=
     RDKit          3D

 14 15  0  0  0  0  0  0  0  0999 V2000
    5.3720   69.9740   66.6980 C   0  0  0  0  0  0  0  0  0  0  0  0
    4.7550   69.4110   65.6480 N   0  0  0  0  0  0  0  0  0  0  0  0
    3.4410   69.1330   65.7950 C   0  0  0  0  0  0  0  0  0  0  0  0
    2.6550   69.3490   66.8710 N   0  0  0  0  0  0  0  0  0  0  0  0
    3.3500   69.9120   67.8730 C   0  0  0  0  0  0  0  0  0  0  0  0
    4.6890   70.2510   67.8670 C   0  0  0  0  0  0  0  0  0  0  0  0
    4.9230   70.8020   69.1390 C   0  0  0  0  0  0  0  0  0  0  0  0
    3.8240   70.8170   69.9050 N   0  0  0  0  0  0  0  0  0  0  0  0
    2.8820   70.2680   69.1060 N   0  0  0  0  0  0  0  0  0  0  0  0
    6.6960   70.2440   66.5200 O   0  0  0  0  0  0  0  0  0  0  0  0
    2.9485   68.6714   64.9264 H   0  0  0  0  0  0  0  0  0  0  0  0
    5.9019   71.1797   69.4694 H   0  0  0  0  0  0  0  0  0  0  0  0
    1.9041   70.1311   69.3991 H   0  0  0  0  0  0  0  0  0  0  0  0
    7.2190   70.6597   67.2506 H   0  0  0  0  0  0  0  0  0  0  0  0
  2  1  2  0
  3  2  1  0
  4  3  2  0
  5  4  1  0
  6  5  2  0
  6  1  1  0
  7  6  1  0
  8  7  2  0
  9  8  1  0
  9  5  1  0
 10  1  1  0
  3 11  1  0
  7 12  1  0
  9 13  1  0
 10 14  1  0
M  END
>  <score>  (1) 
-6.077

$$$$
=
     RDKit          3D

 14 15  0  0  0  0  0  0  0  0999 V2000
    3.3670   70.0360   68.3150 C   0  0  0  0  0  0  0  0  0  0  0  0
    2.4600   69.4700   67.5040 N   0  0  0  0  0  0  0  0  0  0  0  0
    2.8910   69.1040   66.2760 C   0  0  0  0  0  0  0  0  0  0  0  0
    4.1270   69.2340   65.7510 N   0  0  0  0  0  0  0  0  0  0  0  0
    4.9690   69.8080   66.6260 C   0  0  0  0  0  0  0  0  0  0  0  0
    4.6720   70.2320   67.9070 C   0  0  0  0  0  0  0  0  0  0  0  0
    5.8810   70.7540   68.3990 C   0  0  0  0  0  0  0  0  0  0  0  0
    6.8780   70.6750   67.5070 N   0  0  0  0  0  0  0  0  0  0  0  0
    6.2910   70.0940   66.4370 N   0  0  0  0  0  0  0  0  0  0  0  0
    2.9030   70.3940   69.5460 O   0  0  0  0  0  0  0  0  0  0  0  0
    2.1379   68.6412   65.6214 H   0  0  0  0  0  0  0  0  0  0  0  0
    5.9961   71.1808   69.4063 H   0  0  0  0  0  0  0  0  0  0  0  0
    6.7932   69.8866   65.5620 H   0  0  0  0  0  0  0  0  0  0  0  0
    3.5127   70.8176   70.2009 H   0  0  0  0  0  0  0  0  0  0  0  0
  2  1  2  0
  3  2  1  0
  4  3  2  0
  5  4  1  0
  6  5  2  0
  6  1  1  0
  7  6  1  0
  8  7  2  0
  9  8  1  0
  9  5  1  0
 10  1  1  0
  3 11  1  0
  7 12  1  0
  9 13  1  0
 10 14  1  0
M  END
>  <score>  (2) 
-6.031

$$$$
=
     RDKit          3D

 14 15  0  0  0  0  0  0  0  0999 V2000
    4.1020   70.3420   68.6800 C   0  0  0  0  0  0  0  0  0  0  0  0
    5.2390   70.8080   69.2180 N   0  0  0  0  0  0  0  0  0  0  0  0
    6.3340   70.7950   68.4270 C   0  0  0  0  0  0  0  0  0  0  0  0
    6.4380   70.3690   67.1500 N   0  0  0  0  0  0  0  0  0  0  0  0
    5.2580   69.9190   66.6910 C   0  0  0  0  0  0  0  0  0  0  0  0
    4.0630   69.8720   67.3810 C   0  0  0  0  0  0  0  0  0  0  0  0
    3.1440   69.3260   66.4670 C   0  0  0  0  0  0  0  0  0  0  0  0
    3.7020   69.0430   65.2820 N   0  0  0  0  0  0  0  0  0  0  0  0
    4.9910   69.4150   65.4500 N   0  0  0  0  0  0  0  0  0  0  0  0
    3.0150   70.3680   69.5020 O   0  0  0  0  0  0  0  0  0  0  0  0
    7.2587   71.1806   68.8811 H   0  0  0  0  0  0  0  0  0  0  0  0
    2.0833   69.1505   66.6994 H   0  0  0  0  0  0  0  0  0  0  0  0
    5.7041   69.3267   64.7120 H   0  0  0  0  0  0  0  0  0  0  0  0
    2.1397   70.0402   69.1757 H   0  0  0  0  0  0  0  0  0  0  0  0
  2  1  2  0
  3  2  1  0
  4  3  2  0
  5  4  1  0
  6  5  2  0
  6  1  1  0
  7  6  1  0
  8  7  2  0
  9  8  1  0
  9  5  1  0
 10  1  1  0
  3 11  1  0
  7 12  1  0
  9 13  1  0
 10 14  1  0
M  END
>  <score>  (3) 
-5.796

$$$$
=
     RDKit          3D

 14 15  0  0  0  0  0  0  0  0999 V2000
    5.0490   69.7790   65.7630 C   0  0  0  0  0  0  0  0  0  0  0  0
    3.7720   69.3880   65.6430 N   0  0  0  0  0  0  0  0  0  0  0  0
    3.0160   69.4360   66.7610 C   0  0  0  0  0  0  0  0  0  0  0  0
    3.3790   69.8320   68.0000 N   0  0  0  0  0  0  0  0  0  0  0  0
    4.6690   70.2050   68.0310 C   0  0  0  0  0  0  0  0  0  0  0  0
    5.5580   70.2080   66.9740 C   0  0  0  0  0  0  0  0  0  0  0  0
    6.7630   70.6790   67.5220 C   0  0  0  0  0  0  0  0  0  0  0  0
    6.6610   70.9580   68.8300 N   0  0  0  0  0  0  0  0  0  0  0  0
    5.3730   70.6580   69.1100 N   0  0  0  0  0  0  0  0  0  0  0  0
    5.7870   69.7190   64.6180 O   0  0  0  0  0  0  0  0  0  0  0  0
    1.9712   69.1111   66.6480 H   0  0  0  0  0  0  0  0  0  0  0  0
    7.6889   70.8052   66.9417 H   0  0  0  0  0  0  0  0  0  0  0  0
    4.9614   70.7613   70.0485 H   0  0  0  0  0  0  0  0  0  0  0  0
    6.7387   69.9916   64.6276 H   0  0  0  0  0  0  0  0  0  0  0  0
  2  1  2  0
  3  2  1  0
  4  3  2  0
  5  4  1  0
  6  5  2  0
  6  1  1  0
  7  6  1  0
  8  7  2  0
  9  8  1  0
  9  5  1  0
 10  1  1  0
  3 11  1  0
  7 12  1  0
  9 13  1  0
 10 14  1  0
M  END
>  <score>  (4) 
-5.661

$$$$
=
     RDKit          3D

 14 15  0  0  0  0  0  0  0  0999 V2000
   -2.0670   67.9960   66.8880 C   0  0  0  0  0  0  0  0  0  0  0  0
   -1.9380   68.6450   65.7210 N   0  0  0  0  0  0  0  0  0  0  0  0
   -0.6920   68.7240   65.2060 C   0  0  0  0  0  0  0  0  0  0  0  0
    0.4560   68.2290   65.7150 N   0  0  0  0  0  0  0  0  0  0  0  0
    0.2380   67.5980   66.8800 C   0  0  0  0  0  0  0  0  0  0  0  0
   -0.9730   67.4400   67.5240 C   0  0  0  0  0  0  0  0  0  0  0  0
   -0.6670   66.7150   68.6890 C   0  0  0  0  0  0  0  0  0  0  0  0
    0.6390   66.4290   68.7900 N   0  0  0  0  0  0  0  0  0  0  0  0
    1.1630   66.9800   67.6720 N   0  0  0  0  0  0  0  0  0  0  0  0
   -3.3360   67.9330   67.3830 O   0  0  0  0  0  0  0  0  0  0  0  0
   -0.6011   69.2601   64.2498 H   0  0  0  0  0  0  0  0  0  0  0  0
   -1.4169   66.4152   69.4358 H   0  0  0  0  0  0  0  0  0  0  0  0
    2.1655   66.9376   67.4396 H   0  0  0  0  0  0  0  0  0  0  0  0
   -3.5104   67.4700   68.2405 H   0  0  0  0  0  0  0  0  0  0  0  0
  2  1  2  0
  3  2  1  0
  4  3  2  0
  5  4  1  0
  6  5  2  0
  6  1  1  0
  7  6  1  0
  8  7  2  0
  9  8  1  0
  9  5  1  0
 10  1  1  0
  3 11  1  0
  7 12  1  0
  9 13  1  0
 10 14  1  0
M  END
>  <score>  (5) 
-5.645

$$$$
=
     RDKit          3D

 14 15  0  0  0  0  0  0  0  0999 V2000
    5.7020   70.2730   67.5050 C   0  0  0  0  0  0  0  0  0  0  0  0
    5.6930   70.7090   68.7730 N   0  0  0  0  0  0  0  0  0  0  0  0
    4.5060   70.6710   69.4190 C   0  0  0  0  0  0  0  0  0  0  0  0
    3.3130   70.2480   68.9510 N   0  0  0  0  0  0  0  0  0  0  0  0
    3.4110   69.8310   67.6780 C   0  0  0  0  0  0  0  0  0  0  0  0
    4.5500   69.8120   66.8960 C   0  0  0  0  0  0  0  0  0  0  0  0
    4.1260   69.2930   65.6610 C   0  0  0  0  0  0  0  0  0  0  0  0
    2.8170   69.0010   65.6450 N   0  0  0  0  0  0  0  0  0  0  0  0
    2.4100   69.3410   66.8880 N   0  0  0  0  0  0  0  0  0  0  0  0
    6.9120   70.3230   66.8800 O   0  0  0  0  0  0  0  0  0  0  0  0
    4.5136   71.0307   70.4585 H   0  0  0  0  0  0  0  0  0  0  0  0
    4.7949   69.1425   64.8008 H   0  0  0  0  0  0  0  0  0  0  0  0
    1.4367   69.2402   67.2095 H   0  0  0  0  0  0  0  0  0  0  0  0
    6.9977   70.0179   65.9421 H   0  0  0  0  0  0  0  0  0  0  0  0
  2  1  2  0
  3  2  1  0
  4  3  2  0
  5  4  1  0
  6  5  2  0
  6  1  1  0
  7  6  1  0
  8  7  2  0
  9  8  1  0
  9  5  1  0
 10  1  1  0
  3 11  1  0
  7 12  1  0
  9 13  1  0
 10 14  1  0
M  END
>  <score>  (6) 
-5.61

$$$$
=
     RDKit          3D

 14 15  0  0  0  0  0  0  0  0999 V2000
    2.7420   65.9740   64.6720 C   0  0  0  0  0  0  0  0  0  0  0  0
    3.1470   64.7330   64.9780 N   0  0  0  0  0  0  0  0  0  0  0  0
    4.1600   64.2270   64.2410 C   0  0  0  0  0  0  0  0  0  0  0  0
    4.8290   64.8120   63.2250 N   0  0  0  0  0  0  0  0  0  0  0  0
    4.3600   66.0480   62.9840 C   0  0  0  0  0  0  0  0  0  0  0  0
    3.3360   66.6920   63.6510 C   0  0  0  0  0  0  0  0  0  0  0  0
    3.2370   67.9470   63.0260 C   0  0  0  0  0  0  0  0  0  0  0  0
    4.1260   68.1010   62.0340 N   0  0  0  0  0  0  0  0  0  0  0  0
    4.7950   66.9270   62.0340 N   0  0  0  0  0  0  0  0  0  0  0  0
    1.7190   66.4580   65.4320 O   0  0  0  0  0  0  0  0  0  0  0  0
    4.4806   63.2078   64.5024 H   0  0  0  0  0  0  0  0  0  0  0  0
    2.5097   68.7186   63.3187 H   0  0  0  0  0  0  0  0  0  0  0  0
    5.5611   66.7151   61.3789 H   0  0  0  0  0  0  0  0  0  0  0  0
    1.3657   67.3676   65.2651 H   0  0  0  0  0  0  0  0  0  0  0  0
  2  1  2  0
  3  2  1  0
  4  3  2  0
  5  4  1  0
  6  5  2  0
  6  1  1  0
  7  6  1  0
  8  7  2  0
  9  8  1  0
  9  5  1  0
 10  1  1  0
  3 11  1  0
  7 12  1  0
  9 13  1  0
 10 14  1  0
M  END
>  <score>  (7) 
-5.591

$$$$
=
     RDKit          3D

 14 15  0  0  0  0  0  0  0  0999 V2000
    3.1940   69.2680   66.3490 C   0  0  0  0  0  0  0  0  0  0  0  0
    4.0610   69.1430   65.3330 N   0  0  0  0  0  0  0  0  0  0  0  0
    5.3250   69.5640   65.5590 C   0  0  0  0  0  0  0  0  0  0  0  0
    5.8380   70.1020   66.6860 N   0  0  0  0  0  0  0  0  0  0  0  0
    4.9060   70.1920   67.6490 C   0  0  0  0  0  0  0  0  0  0  0  0
    3.5830   69.8050   67.5620 C   0  0  0  0  0  0  0  0  0  0  0  0
    3.0400   70.1050   68.8230 C   0  0  0  0  0  0  0  0  0  0  0  0
    3.9400   70.6440   69.6580 N   0  0  0  0  0  0  0  0  0  0  0  0
    5.0670   70.6850   68.9120 N   0  0  0  0  0  0  0  0  0  0  0  0
    1.9280   68.8340   66.0920 O   0  0  0  0  0  0  0  0  0  0  0  0
    6.0251   69.4544   64.7176 H   0  0  0  0  0  0  0  0  0  0  0  0
    1.9908   69.9180   69.0953 H   0  0  0  0  0  0  0  0  0  0  0  0
    5.9624   71.0534   69.2634 H   0  0  0  0  0  0  0  0  0  0  0  0
    1.2322   68.8940   66.7936 H   0  0  0  0  0  0  0  0  0  0  0  0
  2  1  2  0
  3  2  1  0
  4  3  2  0
  5  4  1  0
  6  5  2  0
  6  1  1  0
  7  6  1  0
  8  7  2  0
  9  8  1  0
  9  5  1  0
 10  1  1  0
  3 11  1  0
  7 12  1  0
  9 13  1  0
 10 14  1  0
M  END
>  <score>  (8) 
-5.563

$$$$
=
     RDKit          3D

 14 15  0  0  0  0  0  0  0  0999 V2000
    5.2810   69.8710   66.2800 C   0  0  0  0  0  0  0  0  0  0  0  0
    4.4750   69.8670   67.3520 N   0  0  0  0  0  0  0  0  0  0  0  0
    3.1940   69.4890   67.1460 C   0  0  0  0  0  0  0  0  0  0  0  0
    2.6100   69.1100   65.9900 N   0  0  0  0  0  0  0  0  0  0  0  0
    3.4840   69.1440   64.9700 C   0  0  0  0  0  0  0  0  0  0  0  0
    4.8160   69.5080   65.0310 C   0  0  0  0  0  0  0  0  0  0  0  0
    5.2820   69.3750   63.7120 C   0  0  0  0  0  0  0  0  0  0  0  0
    4.3280   68.9600   62.8660 N   0  0  0  0  0  0  0  0  0  0  0  0
    3.2440   68.8290   63.6630 N   0  0  0  0  0  0  0  0  0  0  0  0
    6.5670   70.2560   66.5200 O   0  0  0  0  0  0  0  0  0  0  0  0
    2.5445   69.4904   68.0338 H   0  0  0  0  0  0  0  0  0  0  0  0
    6.3170   69.5882   63.4066 H   0  0  0  0  0  0  0  0  0  0  0  0
    2.3240   68.5208   63.3172 H   0  0  0  0  0  0  0  0  0  0  0  0
    7.2219   70.2843   65.7781 H   0  0  0  0  0  0  0  0  0  0  0  0
  2  1  2  0
  3  2  1  0
  4  3  2  0
  5  4  1  0
  6  5  2  0
  6  1  1  0
  7  6  1  0
  8  7  2  0
  9  8  1  0
  9  5  1  0
 10  1  1  0
  3 11  1  0
  7 12  1  0
  9 13  1  0
 10 14  1  0
M  END
>  <score>  (9) 
-5.495

$$$$
