=
     RDKit          3D

 40 41  0  0  0  0  0  0  0  0999 V2000
    2.3220   63.0240   72.1220 C   0  0  0  0  0  0  0  0  0  0  0  0
    3.1090   63.7710   71.0370 C   0  0  0  0  0  0  0  0  0  0  0  0
    2.3170   63.8860   69.7410 C   0  0  0  0  0  0  0  0  0  0  0  0
    0.9890   64.5530   69.9780 N   0  0  0  0  0  4  0  0  0  0  0  0
    0.1690   63.8180   71.0150 C   0  0  0  0  0  0  0  0  0  0  0  0
    0.9470   63.6770   72.3150 C   0  0  0  0  0  0  0  0  0  0  0  0
    3.3140   60.6770   72.2770 C   0  0  0  0  0  0  0  0  0  0  0  0
    4.1010   60.8680   73.1890 O   0  0  0  0  0  0  0  0  0  0  0  0
    2.3590   61.5830   71.8490 N   0  0  0  0  0  0  0  0  0  0  0  0
    3.9670   59.2680   70.4110 N   0  0  0  0  0  0  0  0  0  0  0  0
    3.3040   59.3520   71.5350 C   0  0  0  0  0  0  0  0  0  0  0  0
    3.8690   57.9980   69.8240 O   0  0  0  0  0  0  0  0  0  0  0  0
    2.5730   58.2110   72.0360 C   0  0  0  0  0  0  0  0  0  0  0  0
    1.9740   57.2860   72.4070 N   0  0  0  0  0  0  0  0  0  0  0  0
    1.0800   66.0540   70.1700 C   0  0  0  0  0  0  0  0  0  0  0  0
    0.4640   66.8320   69.0390 C   0  0  0  0  0  0  0  0  0  0  0  0
    1.1600   67.8960   68.4430 C   0  0  0  0  0  0  0  0  0  0  0  0
    0.5740   68.6330   67.4130 C   0  0  0  0  0  0  0  0  0  0  0  0
   -0.7080   68.3170   66.9690 C   0  0  0  0  0  0  0  0  0  0  0  0
   -1.4060   67.2610   67.5500 C   0  0  0  0  0  0  0  0  0  0  0  0
   -0.8250   66.5200   68.5790 C   0  0  0  0  0  0  0  0  0  0  0  0
    2.7855   63.1144   73.1155 H   0  0  0  0  0  0  0  0  0  0  0  0
    3.3451   64.7819   71.4008 H   0  0  0  0  0  0  0  0  0  0  0  0
    4.0266   63.2017   70.8273 H   0  0  0  0  0  0  0  0  0  0  0  0
    2.8945   64.4810   69.0181 H   0  0  0  0  0  0  0  0  0  0  0  0
    2.1360   62.8739   69.3499 H   0  0  0  0  0  0  0  0  0  0  0  0
    0.4533   64.4714   69.1020 H   0  0  0  0  0  0  0  0  0  0  0  0
   -0.7570   64.3797   71.2075 H   0  0  0  0  0  0  0  0  0  0  0  0
   -0.0661   62.8136   70.6329 H   0  0  0  0  0  0  0  0  0  0  0  0
    1.0918   64.6780   72.7474 H   0  0  0  0  0  0  0  0  0  0  0  0
    0.3625   63.0238   72.9795 H   0  0  0  0  0  0  0  0  0  0  0  0
    1.5909   61.2043   71.2767 H   0  0  0  0  0  0  0  0  0  0  0  0
    4.3297   57.8115   68.9678 H   0  0  0  0  0  0  0  0  0  0  0  0
    0.5598   66.3199   71.1020 H   0  0  0  0  0  0  0  0  0  0  0  0
    2.1477   66.3161   70.2052 H   0  0  0  0  0  0  0  0  0  0  0  0
    2.1725   68.1499   68.7898 H   0  0  0  0  0  0  0  0  0  0  0  0
    1.1255   69.4650   66.9508 H   0  0  0  0  0  0  0  0  0  0  0  0
   -1.1692   68.9016   66.1593 H   0  0  0  0  0  0  0  0  0  0  0  0
   -2.4173   67.0109   67.1967 H   0  0  0  0  0  0  0  0  0  0  0  0
   -1.3803   65.6860   69.0329 H   0  0  0  0  0  0  0  0  0  0  0  0
  2  1  1  0
  3  2  1  0
  4  3  1  0
  5  4  1  0
  6  5  1  0
  6  1  1  0
  8  7  2  0
  9  7  1  0
  9  1  1  0
 11 10  2  0
 11  7  1  0
 12 10  1  0
 13 11  1  0
 14 13  3  0
 15  4  1  0
 16 15  1  0
 17 16  2  0
 18 17  1  0
 19 18  2  0
 20 19  1  0
 21 20  2  0
 21 16  1  0
  1 22  1  0
  2 23  1  0
  2 24  1  0
  3 25  1  0
  3 26  1  0
  4 27  1  0
  5 28  1  0
  5 29  1  0
  6 30  1  0
  6 31  1  0
  9 32  1  0
 12 33  1  0
 15 34  1  0
 15 35  1  0
 17 36  1  0
 18 37  1  0
 19 38  1  0
 20 39  1  0
 21 40  1  0
M  CHG  1   4   1
M  END
>  <score>  (1) 
-7.827

$$$$
=
     RDKit          3D

 40 41  0  0  0  0  0  0  0  0999 V2000
    1.1350   65.3170   70.6270 C   0  0  0  0  0  0  0  0  0  0  0  0
    0.2660   64.5350   71.6210 C   0  0  0  0  0  0  0  0  0  0  0  0
   -0.0090   63.1160   71.1390 C   0  0  0  0  0  0  0  0  0  0  0  0
    1.2750   62.3780   70.8740 N   0  0  0  0  0  4  0  0  0  0  0  0
    2.1400   63.1020   69.8650 C   0  0  0  0  0  0  0  0  0  0  0  0
    2.4150   64.5280   70.3190 C   0  0  0  0  0  0  0  0  0  0  0  0
    0.4460   66.9180   68.7630 C   0  0  0  0  0  0  0  0  0  0  0  0
    1.4400   67.6240   68.7480 O   0  0  0  0  0  0  0  0  0  0  0  0
    0.3120   65.7490   69.4930 N   0  0  0  0  0  0  0  0  0  0  0  0
   -1.9520   67.0170   68.3930 N   0  0  0  0  0  0  0  0  0  0  0  0
   -0.7620   67.2720   67.9130 C   0  0  0  0  0  0  0  0  0  0  0  0
   -2.9760   67.3820   67.5080 O   0  0  0  0  0  0  0  0  0  0  0  0
   -0.6160   67.8610   66.6020 C   0  0  0  0  0  0  0  0  0  0  0  0
   -0.5320   68.3260   65.5400 N   0  0  0  0  0  0  0  0  0  0  0  0
    1.9900   61.9170   72.1290 C   0  0  0  0  0  0  0  0  0  0  0  0
    2.0370   60.4200   72.2660 C   0  0  0  0  0  0  0  0  0  0  0  0
    2.9750   59.6660   71.5430 C   0  0  0  0  0  0  0  0  0  0  0  0
    2.9960   58.2750   71.6520 C   0  0  0  0  0  0  0  0  0  0  0  0
    2.0850   57.6250   72.4810 C   0  0  0  0  0  0  0  0  0  0  0  0
    1.1530   58.3620   73.2070 C   0  0  0  0  0  0  0  0  0  0  0  0
    1.1280   59.7530   73.1020 C   0  0  0  0  0  0  0  0  0  0  0  0
    1.5146   66.2594   71.0488 H   0  0  0  0  0  0  0  0  0  0  0  0
    0.7871   64.4875   72.5886 H   0  0  0  0  0  0  0  0  0  0  0  0
   -0.6979   65.0564   71.7157 H   0  0  0  0  0  0  0  0  0  0  0  0
   -0.5802   62.5785   71.9103 H   0  0  0  0  0  0  0  0  0  0  0  0
   -0.5823   63.1693   70.2017 H   0  0  0  0  0  0  0  0  0  0  0  0
    1.0210   61.4878   70.4225 H   0  0  0  0  0  0  0  0  0  0  0  0
    3.0949   62.5666   69.7575 H   0  0  0  0  0  0  0  0  0  0  0  0
    1.6099   63.1330   68.9016 H   0  0  0  0  0  0  0  0  0  0  0  0
    3.0327   64.4933   71.2285 H   0  0  0  0  0  0  0  0  0  0  0  0
    2.9281   65.0429   69.4934 H   0  0  0  0  0  0  0  0  0  0  0  0
   -0.4478   65.1144   69.2087 H   0  0  0  0  0  0  0  0  0  0  0  0
   -3.9225   67.2378   67.7597 H   0  0  0  0  0  0  0  0  0  0  0  0
    3.0214   62.2987   72.1044 H   0  0  0  0  0  0  0  0  0  0  0  0
    1.4264   62.3072   72.9893 H   0  0  0  0  0  0  0  0  0  0  0  0
    3.6971   60.1744   70.8872 H   0  0  0  0  0  0  0  0  0  0  0  0
    3.7335   57.6908   71.0821 H   0  0  0  0  0  0  0  0  0  0  0  0
    2.1018   56.5281   72.5623 H   0  0  0  0  0  0  0  0  0  0  0  0
    0.4361   57.8473   73.8636 H   0  0  0  0  0  0  0  0  0  0  0  0
    0.3907   60.3310   73.6784 H   0  0  0  0  0  0  0  0  0  0  0  0
  2  1  1  0
  3  2  1  0
  4  3  1  0
  5  4  1  0
  6  5  1  0
  6  1  1  0
  8  7  2  0
  9  7  1  0
  9  1  1  0
 11 10  2  0
 11  7  1  0
 12 10  1  0
 13 11  1  0
 14 13  3  0
 15  4  1  0
 16 15  1  0
 17 16  2  0
 18 17  1  0
 19 18  2  0
 20 19  1  0
 21 20  2  0
 21 16  1  0
  1 22  1  0
  2 23  1  0
  2 24  1  0
  3 25  1  0
  3 26  1  0
  4 27  1  0
  5 28  1  0
  5 29  1  0
  6 30  1  0
  6 31  1  0
  9 32  1  0
 12 33  1  0
 15 34  1  0
 15 35  1  0
 17 36  1  0
 18 37  1  0
 19 38  1  0
 20 39  1  0
 21 40  1  0
M  CHG  1   4   1
M  END
>  <score>  (2) 
-7.586

$$$$
=
     RDKit          3D

 40 41  0  0  0  0  0  0  0  0999 V2000
    1.0410   67.6830   66.6370 C   0  0  0  0  0  0  0  0  0  0  0  0
    2.5200   67.9980   66.3780 C   0  0  0  0  0  0  0  0  0  0  0  0
    2.8030   69.4930   66.4550 C   0  0  0  0  0  0  0  0  0  0  0  0
    2.3720   70.0550   67.7830 N   0  0  0  0  0  4  0  0  0  0  0  0
    0.9060   69.7980   68.0520 C   0  0  0  0  0  0  0  0  0  0  0  0
    0.5970   68.3100   67.9650 C   0  0  0  0  0  0  0  0  0  0  0  0
    0.7220   68.0920   64.1380 C   0  0  0  0  0  0  0  0  0  0  0  0
    1.7800   67.6360   63.7380 O   0  0  0  0  0  0  0  0  0  0  0  0
    0.2560   68.0000   65.4390 N   0  0  0  0  0  0  0  0  0  0  0  0
   -1.4940   68.8380   63.4810 N   0  0  0  0  0  0  0  0  0  0  0  0
   -0.2210   68.8000   63.1800 C   0  0  0  0  0  0  0  0  0  0  0  0
   -2.2530   69.5100   62.5130 O   0  0  0  0  0  0  0  0  0  0  0  0
    0.2570   69.4050   61.9580 C   0  0  0  0  0  0  0  0  0  0  0  0
    0.6090   69.8990   60.9670 N   0  0  0  0  0  0  0  0  0  0  0  0
    3.3090   69.7210   68.9260 C   0  0  0  0  0  0  0  0  0  0  0  0
    4.7200   70.1850   68.6880 C   0  0  0  0  0  0  0  0  0  0  0  0
    5.2450   70.2390   67.3870 C   0  0  0  0  0  0  0  0  0  0  0  0
    6.5620   70.6430   67.1740 C   0  0  0  0  0  0  0  0  0  0  0  0
    7.3680   70.9980   68.2530 C   0  0  0  0  0  0  0  0  0  0  0  0
    6.8580   70.9540   69.5480 C   0  0  0  0  0  0  0  0  0  0  0  0
    5.5410   70.5510   69.7670 C   0  0  0  0  0  0  0  0  0  0  0  0
    0.8605   66.6091   66.7921 H   0  0  0  0  0  0  0  0  0  0  0  0
    3.1314   67.4808   67.1321 H   0  0  0  0  0  0  0  0  0  0  0  0
    2.7695   67.6551   65.3630 H   0  0  0  0  0  0  0  0  0  0  0  0
    3.8822   69.6621   66.3259 H   0  0  0  0  0  0  0  0  0  0  0  0
    2.2362   69.9988   65.6594 H   0  0  0  0  0  0  0  0  0  0  0  0
    2.4585   71.0792   67.7162 H   0  0  0  0  0  0  0  0  0  0  0  0
    0.6545   70.1609   69.0595 H   0  0  0  0  0  0  0  0  0  0  0  0
    0.3088   70.3285   67.2957 H   0  0  0  0  0  0  0  0  0  0  0  0
    1.1164   67.7953   68.7868 H   0  0  0  0  0  0  0  0  0  0  0  0
   -0.4948   68.1957   68.0344 H   0  0  0  0  0  0  0  0  0  0  0  0
   -0.7495   68.1727   65.5805 H   0  0  0  0  0  0  0  0  0  0  0  0
   -3.2316   69.6044   62.6291 H   0  0  0  0  0  0  0  0  0  0  0  0
    2.9317   70.2028   69.8401 H   0  0  0  0  0  0  0  0  0  0  0  0
    3.3356   68.6252   69.0185 H   0  0  0  0  0  0  0  0  0  0  0  0
    4.6132   69.9608   66.5306 H   0  0  0  0  0  0  0  0  0  0  0  0
    6.9656   70.6815   66.1515 H   0  0  0  0  0  0  0  0  0  0  0  0
    8.4079   71.3133   68.0821 H   0  0  0  0  0  0  0  0  0  0  0  0
    7.4946   71.2374   70.3991 H   0  0  0  0  0  0  0  0  0  0  0  0
    5.1426   70.5196   70.7918 H   0  0  0  0  0  0  0  0  0  0  0  0
  2  1  1  0
  3  2  1  0
  4  3  1  0
  5  4  1  0
  6  5  1  0
  6  1  1  0
  8  7  2  0
  9  7  1  0
  9  1  1  0
 11 10  2  0
 11  7  1  0
 12 10  1  0
 13 11  1  0
 14 13  3  0
 15  4  1  0
 16 15  1  0
 17 16  2  0
 18 17  1  0
 19 18  2  0
 20 19  1  0
 21 20  2  0
 21 16  1  0
  1 22  1  0
  2 23  1  0
  2 24  1  0
  3 25  1  0
  3 26  1  0
  4 27  1  0
  5 28  1  0
  5 29  1  0
  6 30  1  0
  6 31  1  0
  9 32  1  0
 12 33  1  0
 15 34  1  0
 15 35  1  0
 17 36  1  0
 18 37  1  0
 19 38  1  0
 20 39  1  0
 21 40  1  0
M  CHG  1   4   1
M  END
>  <score>  (3) 
-6.973

$$$$
=
     RDKit          3D

 40 41  0  0  0  0  0  0  0  0999 V2000
   -0.2420   68.8720   66.3530 C   0  0  0  0  0  0  0  0  0  0  0  0
   -0.5730   67.3840   66.5220 C   0  0  0  0  0  0  0  0  0  0  0  0
    0.6330   66.5850   66.9980 C   0  0  0  0  0  0  0  0  0  0  0  0
    1.1810   67.1490   68.2820 N   0  0  0  0  0  4  0  0  0  0  0  0
    1.5570   68.6070   68.1380 C   0  0  0  0  0  0  0  0  0  0  0  0
    0.3690   69.4230   67.6490 C   0  0  0  0  0  0  0  0  0  0  0  0
    0.0690   68.8190   63.8200 C   0  0  0  0  0  0  0  0  0  0  0  0
   -1.0990   68.6880   63.4920 O   0  0  0  0  0  0  0  0  0  0  0  0
    0.5100   69.0670   65.1090 N   0  0  0  0  0  0  0  0  0  0  0  0
    0.9510   69.2840   61.6060 N   0  0  0  0  0  0  0  0  0  0  0  0
    1.1720   68.7480   62.7790 C   0  0  0  0  0  0  0  0  0  0  0  0
    2.0430   69.1430   60.7380 O   0  0  0  0  0  0  0  0  0  0  0  0
    2.4320   68.0980   63.0560 C   0  0  0  0  0  0  0  0  0  0  0  0
    3.4500   67.5700   63.2460 N   0  0  0  0  0  0  0  0  0  0  0  0
    0.3520   66.8110   69.5050 C   0  0  0  0  0  0  0  0  0  0  0  0
    0.8960   65.6430   70.2820 C   0  0  0  0  0  0  0  0  0  0  0  0
    2.1650   65.1180   69.9880 C   0  0  0  0  0  0  0  0  0  0  0  0
    2.6540   64.0180   70.6920 C   0  0  0  0  0  0  0  0  0  0  0  0
    1.8840   63.4310   71.6940 C   0  0  0  0  0  0  0  0  0  0  0  0
    0.6260   63.9450   71.9990 C   0  0  0  0  0  0  0  0  0  0  0  0
    0.1330   65.0460   71.2980 C   0  0  0  0  0  0  0  0  0  0  0  0
   -1.1410   69.4908   66.2156 H   0  0  0  0  0  0  0  0  0  0  0  0
   -1.3818   67.2811   67.2604 H   0  0  0  0  0  0  0  0  0  0  0  0
   -0.8786   66.9891   65.5419 H   0  0  0  0  0  0  0  0  0  0  0  0
    0.3299   65.5407   67.1642 H   0  0  0  0  0  0  0  0  0  0  0  0
    1.4166   66.6408   66.2280 H   0  0  0  0  0  0  0  0  0  0  0  0
    2.0671   66.6589   68.4707 H   0  0  0  0  0  0  0  0  0  0  0  0
    1.8834   68.9939   69.1146 H   0  0  0  0  0  0  0  0  0  0  0  0
    2.3708   68.6915   67.4028 H   0  0  0  0  0  0  0  0  0  0  0  0
   -0.4047   69.4195   68.4309 H   0  0  0  0  0  0  0  0  0  0  0  0
    0.7320   70.4394   67.4364 H   0  0  0  0  0  0  0  0  0  0  0  0
    1.4701   69.4275   65.2045 H   0  0  0  0  0  0  0  0  0  0  0  0
    1.9956   69.5090   59.8193 H   0  0  0  0  0  0  0  0  0  0  0  0
    0.3279   67.6902   70.1656 H   0  0  0  0  0  0  0  0  0  0  0  0
   -0.6525   66.5322   69.1538 H   0  0  0  0  0  0  0  0  0  0  0  0
    2.7769   65.5772   69.1976 H   0  0  0  0  0  0  0  0  0  0  0  0
    3.6491   63.6131   70.4559 H   0  0  0  0  0  0  0  0  0  0  0  0
    2.2701   62.5606   72.2448 H   0  0  0  0  0  0  0  0  0  0  0  0
    0.0209   63.4828   72.7928 H   0  0  0  0  0  0  0  0  0  0  0  0
   -0.8607   65.4491   71.5432 H   0  0  0  0  0  0  0  0  0  0  0  0
  2  1  1  0
  3  2  1  0
  4  3  1  0
  5  4  1  0
  6  5  1  0
  6  1  1  0
  8  7  2  0
  9  7  1  0
  9  1  1  0
 11 10  2  0
 11  7  1  0
 12 10  1  0
 13 11  1  0
 14 13  3  0
 15  4  1  0
 16 15  1  0
 17 16  2  0
 18 17  1  0
 19 18  2  0
 20 19  1  0
 21 20  2  0
 21 16  1  0
  1 22  1  0
  2 23  1  0
  2 24  1  0
  3 25  1  0
  3 26  1  0
  4 27  1  0
  5 28  1  0
  5 29  1  0
  6 30  1  0
  6 31  1  0
  9 32  1  0
 12 33  1  0
 15 34  1  0
 15 35  1  0
 17 36  1  0
 18 37  1  0
 19 38  1  0
 20 39  1  0
 21 40  1  0
M  CHG  1   4   1
M  END
>  <score>  (4) 
-6.944

$$$$
=
     RDKit          3D

 40 41  0  0  0  0  0  0  0  0999 V2000
    2.0390   60.6300   73.4210 C   0  0  0  0  0  0  0  0  0  0  0  0
    1.1840   59.4100   73.0570 C   0  0  0  0  0  0  0  0  0  0  0  0
    2.0370   58.1700   72.8220 C   0  0  0  0  0  0  0  0  0  0  0  0
    2.8920   57.8690   74.0230 N   0  0  0  0  0  4  0  0  0  0  0  0
    3.7810   59.0390   74.3860 C   0  0  0  0  0  0  0  0  0  0  0  0
    2.9500   60.2940   74.6100 C   0  0  0  0  0  0  0  0  0  0  0  0
    2.0770   61.9540   71.2390 C   0  0  0  0  0  0  0  0  0  0  0  0
    1.0380   62.5760   71.3820 O   0  0  0  0  0  0  0  0  0  0  0  0
    2.6710   61.1650   72.2100 N   0  0  0  0  0  0  0  0  0  0  0  0
    2.6740   63.0850   69.1750 N   0  0  0  0  0  0  0  0  0  0  0  0
    2.8490   62.0340   69.9330 C   0  0  0  0  0  0  0  0  0  0  0  0
    3.4350   63.0300   67.9990 O   0  0  0  0  0  0  0  0  0  0  0  0
    3.7430   60.9770   69.5190 C   0  0  0  0  0  0  0  0  0  0  0  0
    4.4880   60.1440   69.2010 N   0  0  0  0  0  0  0  0  0  0  0  0
    2.1350   57.2480   75.1790 C   0  0  0  0  0  0  0  0  0  0  0  0
    1.3680   56.0130   74.7880 C   0  0  0  0  0  0  0  0  0  0  0  0
   -0.0350   56.0180   74.7780 C   0  0  0  0  0  0  0  0  0  0  0  0
   -0.7420   54.8630   74.4420 C   0  0  0  0  0  0  0  0  0  0  0  0
   -0.0570   53.6950   74.1140 C   0  0  0  0  0  0  0  0  0  0  0  0
    1.3350   53.6800   74.1150 C   0  0  0  0  0  0  0  0  0  0  0  0
    2.0470   54.8320   74.4500 C   0  0  0  0  0  0  0  0  0  0  0  0
    1.4352   61.4705   73.7939 H   0  0  0  0  0  0  0  0  0  0  0  0
    0.4825   59.2087   73.8801 H   0  0  0  0  0  0  0  0  0  0  0  0
    0.6459   59.6360   72.1246 H   0  0  0  0  0  0  0  0  0  0  0  0
    1.3777   57.3117   72.6254 H   0  0  0  0  0  0  0  0  0  0  0  0
    2.6952   58.3552   71.9604 H   0  0  0  0  0  0  0  0  0  0  0  0
    3.5365   57.1139   73.7485 H   0  0  0  0  0  0  0  0  0  0  0  0
    4.3327   58.8015   75.3075 H   0  0  0  0  0  0  0  0  0  0  0  0
    4.4826   59.2213   73.5586 H   0  0  0  0  0  0  0  0  0  0  0  0
    2.3226   60.1446   75.5011 H   0  0  0  0  0  0  0  0  0  0  0  0
    3.6493   61.1336   74.7364 H   0  0  0  0  0  0  0  0  0  0  0  0
    3.6631   60.9284   72.0664 H   0  0  0  0  0  0  0  0  0  0  0  0
    3.3871   63.7702   67.3433 H   0  0  0  0  0  0  0  0  0  0  0  0
    2.8559   56.9781   75.9647 H   0  0  0  0  0  0  0  0  0  0  0  0
    1.4033   57.9912   75.5286 H   0  0  0  0  0  0  0  0  0  0  0  0
   -0.5806   56.9375   75.0365 H   0  0  0  0  0  0  0  0  0  0  0  0
   -1.8419   54.8746   74.4361 H   0  0  0  0  0  0  0  0  0  0  0  0
   -0.6164   52.7842   73.8541 H   0  0  0  0  0  0  0  0  0  0  0  0
    1.8744   52.7583   73.8512 H   0  0  0  0  0  0  0  0  0  0  0  0
    3.1469   54.8147   74.4492 H   0  0  0  0  0  0  0  0  0  0  0  0
  2  1  1  0
  3  2  1  0
  4  3  1  0
  5  4  1  0
  6  5  1  0
  6  1  1  0
  8  7  2  0
  9  7  1  0
  9  1  1  0
 11 10  2  0
 11  7  1  0
 12 10  1  0
 13 11  1  0
 14 13  3  0
 15  4  1  0
 16 15  1  0
 17 16  2  0
 18 17  1  0
 19 18  2  0
 20 19  1  0
 21 20  2  0
 21 16  1  0
  1 22  1  0
  2 23  1  0
  2 24  1  0
  3 25  1  0
  3 26  1  0
  4 27  1  0
  5 28  1  0
  5 29  1  0
  6 30  1  0
  6 31  1  0
  9 32  1  0
 12 33  1  0
 15 34  1  0
 15 35  1  0
 17 36  1  0
 18 37  1  0
 19 38  1  0
 20 39  1  0
 21 40  1  0
M  CHG  1   4   1
M  END
>  <score>  (5) 
-6.504

$$$$
=
     RDKit          3D

 40 41  0  0  0  0  0  0  0  0999 V2000
    2.6190   58.6030   72.5820 C   0  0  0  0  0  0  0  0  0  0  0  0
    1.8490   59.9160   72.7750 C   0  0  0  0  0  0  0  0  0  0  0  0
    2.7630   61.1300   72.6720 C   0  0  0  0  0  0  0  0  0  0  0  0
    3.4970   61.1420   71.3580 N   0  0  0  0  0  4  0  0  0  0  0  0
    4.3010   59.8770   71.1530 C   0  0  0  0  0  0  0  0  0  0  0  0
    3.4100   58.6490   71.2670 C   0  0  0  0  0  0  0  0  0  0  0  0
    2.9230   57.4960   74.8620 C   0  0  0  0  0  0  0  0  0  0  0  0
    1.9960   56.7050   74.8090 O   0  0  0  0  0  0  0  0  0  0  0  0
    3.3570   58.2840   73.8090 N   0  0  0  0  0  0  0  0  0  0  0  0
    4.6190   56.7420   76.4270 N   0  0  0  0  0  0  0  0  0  0  0  0
    3.7270   57.6540   76.1410 C   0  0  0  0  0  0  0  0  0  0  0  0
    5.2830   57.0010   77.6350 O   0  0  0  0  0  0  0  0  0  0  0  0
    3.5140   58.7700   77.0340 C   0  0  0  0  0  0  0  0  0  0  0  0
    3.3740   59.6780   77.7460 N   0  0  0  0  0  0  0  0  0  0  0  0
    2.6420   61.5650   70.1800 C   0  0  0  0  0  0  0  0  0  0  0  0
    1.9600   62.8900   70.3890 C   0  0  0  0  0  0  0  0  0  0  0  0
    0.6130   62.9460   70.7770 C   0  0  0  0  0  0  0  0  0  0  0  0
   -0.0230   64.1760   70.9430 C   0  0  0  0  0  0  0  0  0  0  0  0
    0.6770   65.3600   70.7240 C   0  0  0  0  0  0  0  0  0  0  0  0
    2.0160   65.3180   70.3440 C   0  0  0  0  0  0  0  0  0  0  0  0
    2.6570   64.0900   70.1770 C   0  0  0  0  0  0  0  0  0  0  0  0
    1.9516   57.7394   72.4454 H   0  0  0  0  0  0  0  0  0  0  0  0
    1.0713   59.9895   72.0005 H   0  0  0  0  0  0  0  0  0  0  0  0
    1.4059   59.9069   73.7818 H   0  0  0  0  0  0  0  0  0  0  0  0
    2.1572   62.0445   72.7541 H   0  0  0  0  0  0  0  0  0  0  0  0
    3.5016   61.0829   73.4858 H   0  0  0  0  0  0  0  0  0  0  0  0
    4.1937   61.8987   71.4111 H   0  0  0  0  0  0  0  0  0  0  0  0
    4.7597   59.8987   70.1535 H   0  0  0  0  0  0  0  0  0  0  0  0
    5.0789   59.8228   71.9289 H   0  0  0  0  0  0  0  0  0  0  0  0
    2.6974   58.6537   70.4291 H   0  0  0  0  0  0  0  0  0  0  0  0
    4.0636   57.7645   71.2445 H   0  0  0  0  0  0  0  0  0  0  0  0
    4.2996   58.6898   73.8969 H   0  0  0  0  0  0  0  0  0  0  0  0
    5.9824   56.3795   77.9585 H   0  0  0  0  0  0  0  0  0  0  0  0
    3.2845   61.6388   69.2902 H   0  0  0  0  0  0  0  0  0  0  0  0
    1.8542   60.8070   70.0586 H   0  0  0  0  0  0  0  0  0  0  0  0
    0.0551   62.0141   70.9513 H   0  0  0  0  0  0  0  0  0  0  0  0
   -1.0794   64.2111   71.2475 H   0  0  0  0  0  0  0  0  0  0  0  0
    0.1718   66.3288   70.8513 H   0  0  0  0  0  0  0  0  0  0  0  0
    2.5689   66.2539   70.1753 H   0  0  0  0  0  0  0  0  0  0  0  0
    3.7150   64.0620   69.8774 H   0  0  0  0  0  0  0  0  0  0  0  0
  2  1  1  0
  3  2  1  0
  4  3  1  0
  5  4  1  0
  6  5  1  0
  6  1  1  0
  8  7  2  0
  9  7  1  0
  9  1  1  0
 11 10  2  0
 11  7  1  0
 12 10  1  0
 13 11  1  0
 14 13  3  0
 15  4  1  0
 16 15  1  0
 17 16  2  0
 18 17  1  0
 19 18  2  0
 20 19  1  0
 21 20  2  0
 21 16  1  0
  1 22  1  0
  2 23  1  0
  2 24  1  0
  3 25  1  0
  3 26  1  0
  4 27  1  0
  5 28  1  0
  5 29  1  0
  6 30  1  0
  6 31  1  0
  9 32  1  0
 12 33  1  0
 15 34  1  0
 15 35  1  0
 17 36  1  0
 18 37  1  0
 19 38  1  0
 20 39  1  0
 21 40  1  0
M  CHG  1   4   1
M  END
>  <score>  (6) 
-6.421

$$$$
=
     RDKit          3D

 40 41  0  0  0  0  0  0  0  0999 V2000
    3.2160   60.6080   73.0550 C   0  0  0  0  0  0  0  0  0  0  0  0
    1.9730   60.6030   73.9550 C   0  0  0  0  0  0  0  0  0  0  0  0
    0.8970   59.6620   73.4290 C   0  0  0  0  0  0  0  0  0  0  0  0
    1.4330   58.2650   73.2690 N   0  0  0  0  0  4  0  0  0  0  0  0
    2.6360   58.2290   72.3520 C   0  0  0  0  0  0  0  0  0  0  0  0
    3.7200   59.1730   72.8500 C   0  0  0  0  0  0  0  0  0  0  0  0
    3.8560   62.1890   71.1550 C   0  0  0  0  0  0  0  0  0  0  0  0
    5.0690   62.0920   71.2340 O   0  0  0  0  0  0  0  0  0  0  0  0
    2.9490   61.4130   71.8580 N   0  0  0  0  0  0  0  0  0  0  0  0
    2.4470   64.1170   70.7130 N   0  0  0  0  0  0  0  0  0  0  0  0
    3.2240   63.1940   70.2080 C   0  0  0  0  0  0  0  0  0  0  0  0
    1.9220   64.9720   69.7340 O   0  0  0  0  0  0  0  0  0  0  0  0
    3.4530   63.1360   68.7820 C   0  0  0  0  0  0  0  0  0  0  0  0
    3.6220   63.0600   67.6350 N   0  0  0  0  0  0  0  0  0  0  0  0
    1.5900   57.5120   74.5740 C   0  0  0  0  0  0  0  0  0  0  0  0
    1.1160   56.0870   74.4950 C   0  0  0  0  0  0  0  0  0  0  0  0
    2.0380   55.0280   74.4700 C   0  0  0  0  0  0  0  0  0  0  0  0
    1.5950   53.7100   74.3680 C   0  0  0  0  0  0  0  0  0  0  0  0
    0.2320   53.4340   74.2910 C   0  0  0  0  0  0  0  0  0  0  0  0
   -0.6930   54.4740   74.3210 C   0  0  0  0  0  0  0  0  0  0  0  0
   -0.2550   55.7950   74.4230 C   0  0  0  0  0  0  0  0  0  0  0  0
    4.0739   61.1117   73.5244 H   0  0  0  0  0  0  0  0  0  0  0  0
    2.2660   60.2797   74.9648 H   0  0  0  0  0  0  0  0  0  0  0  0
    1.5582   61.6217   73.9705 H   0  0  0  0  0  0  0  0  0  0  0  0
    0.0559   59.6455   74.1377 H   0  0  0  0  0  0  0  0  0  0  0  0
    0.5650   60.0247   72.4450 H   0  0  0  0  0  0  0  0  0  0  0  0
    0.7063   57.7192   72.7844 H   0  0  0  0  0  0  0  0  0  0  0  0
    3.0357   57.2047   72.3207 H   0  0  0  0  0  0  0  0  0  0  0  0
    2.3240   58.5478   71.3465 H   0  0  0  0  0  0  0  0  0  0  0  0
    4.1008   58.7945   73.8101 H   0  0  0  0  0  0  0  0  0  0  0  0
    4.5063   59.2065   72.0815 H   0  0  0  0  0  0  0  0  0  0  0  0
    1.9827   61.3998   71.5018 H   0  0  0  0  0  0  0  0  0  0  0  0
    1.3184   65.7120   69.9952 H   0  0  0  0  0  0  0  0  0  0  0  0
    2.6543   57.5118   74.8519 H   0  0  0  0  0  0  0  0  0  0  0  0
    0.9680   58.0229   75.3237 H   0  0  0  0  0  0  0  0  0  0  0  0
    3.1157   55.2396   74.5312 H   0  0  0  0  0  0  0  0  0  0  0  0
    2.3236   52.8862   74.3483 H   0  0  0  0  0  0  0  0  0  0  0  0
   -0.1139   52.3932   74.2064 H   0  0  0  0  0  0  0  0  0  0  0  0
   -1.7694   54.2544   74.2643 H   0  0  0  0  0  0  0  0  0  0  0  0
   -0.9896   56.6134   74.4472 H   0  0  0  0  0  0  0  0  0  0  0  0
  2  1  1  0
  3  2  1  0
  4  3  1  0
  5  4  1  0
  6  5  1  0
  6  1  1  0
  8  7  2  0
  9  7  1  0
  9  1  1  0
 11 10  2  0
 11  7  1  0
 12 10  1  0
 13 11  1  0
 14 13  3  0
 15  4  1  0
 16 15  1  0
 17 16  2  0
 18 17  1  0
 19 18  2  0
 20 19  1  0
 21 20  2  0
 21 16  1  0
  1 22  1  0
  2 23  1  0
  2 24  1  0
  3 25  1  0
  3 26  1  0
  4 27  1  0
  5 28  1  0
  5 29  1  0
  6 30  1  0
  6 31  1  0
  9 32  1  0
 12 33  1  0
 15 34  1  0
 15 35  1  0
 17 36  1  0
 18 37  1  0
 19 38  1  0
 20 39  1  0
 21 40  1  0
M  CHG  1   4   1
M  END
>  <score>  (7) 
-6.017

$$$$
=
     RDKit          3D

 40 41  0  0  0  0  0  0  0  0999 V2000
   -1.0510   61.2990   74.6770 C   0  0  0  0  0  0  0  0  0  0  0  0
   -0.6850   60.9610   73.2250 C   0  0  0  0  0  0  0  0  0  0  0  0
   -0.2880   62.2030   72.4370 C   0  0  0  0  0  0  0  0  0  0  0  0
    0.8480   62.9270   73.1080 N   0  0  0  0  0  4  0  0  0  0  0  0
    0.5040   63.3120   74.5310 C   0  0  0  0  0  0  0  0  0  0  0  0
    0.0890   62.0880   75.3340 C   0  0  0  0  0  0  0  0  0  0  0  0
   -3.2930   61.8400   75.7720 C   0  0  0  0  0  0  0  0  0  0  0  0
   -3.0040   61.5750   76.9270 O   0  0  0  0  0  0  0  0  0  0  0  0
   -2.3960   61.8850   74.7180 N   0  0  0  0  0  0  0  0  0  0  0  0
   -5.1180   63.4260   75.5560 N   0  0  0  0  0  0  0  0  0  0  0  0
   -4.7230   62.1900   75.3980 C   0  0  0  0  0  0  0  0  0  0  0  0
   -6.4570   63.6130   75.1840 O   0  0  0  0  0  0  0  0  0  0  0  0
   -5.6380   61.1920   74.8940 C   0  0  0  0  0  0  0  0  0  0  0  0
   -6.3500   60.3800   74.4650 N   0  0  0  0  0  0  0  0  0  0  0  0
    2.1960   62.2600   72.9250 C   0  0  0  0  0  0  0  0  0  0  0  0
    2.6780   62.2820   71.5000 C   0  0  0  0  0  0  0  0  0  0  0  0
    2.9570   63.5000   70.8600 C   0  0  0  0  0  0  0  0  0  0  0  0
    3.3760   63.5170   69.5290 C   0  0  0  0  0  0  0  0  0  0  0  0
    3.5210   62.3240   68.8260 C   0  0  0  0  0  0  0  0  0  0  0  0
    3.2530   61.1090   69.4520 C   0  0  0  0  0  0  0  0  0  0  0  0
    2.8340   61.0860   70.7830 C   0  0  0  0  0  0  0  0  0  0  0  0
   -1.1351   60.4031   75.3097 H   0  0  0  0  0  0  0  0  0  0  0  0
    0.1587   60.2552   73.2257 H   0  0  0  0  0  0  0  0  0  0  0  0
   -1.5700   60.5194   72.7436 H   0  0  0  0  0  0  0  0  0  0  0  0
    0.0240   61.9030   71.4257 H   0  0  0  0  0  0  0  0  0  0  0  0
   -1.1544   62.8790   72.3883 H   0  0  0  0  0  0  0  0  0  0  0  0
    0.9716   63.8193   72.6085 H   0  0  0  0  0  0  0  0  0  0  0  0
    1.3843   63.7723   75.0034 H   0  0  0  0  0  0  0  0  0  0  0  0
   -0.3347   64.0235   74.5119 H   0  0  0  0  0  0  0  0  0  0  0  0
    0.9603   61.4246   75.4375 H   0  0  0  0  0  0  0  0  0  0  0  0
   -0.2753   62.4422   76.3096 H   0  0  0  0  0  0  0  0  0  0  0  0
   -2.7061   62.3834   73.8716 H   0  0  0  0  0  0  0  0  0  0  0  0
   -6.8711   64.5091   75.2590 H   0  0  0  0  0  0  0  0  0  0  0  0
    2.9332   62.7831   73.5518 H   0  0  0  0  0  0  0  0  0  0  0  0
    2.0817   61.2053   73.2158 H   0  0  0  0  0  0  0  0  0  0  0  0
    2.8448   64.4457   71.4105 H   0  0  0  0  0  0  0  0  0  0  0  0
    3.5922   64.4753   69.0341 H   0  0  0  0  0  0  0  0  0  0  0  0
    3.8474   62.3410   67.7757 H   0  0  0  0  0  0  0  0  0  0  0  0
    3.3717   60.1668   68.8969 H   0  0  0  0  0  0  0  0  0  0  0  0
    2.6246   60.1238   71.2733 H   0  0  0  0  0  0  0  0  0  0  0  0
  2  1  1  0
  3  2  1  0
  4  3  1  0
  5  4  1  0
  6  5  1  0
  6  1  1  0
  8  7  2  0
  9  7  1  0
  9  1  1  0
 11 10  2  0
 11  7  1  0
 12 10  1  0
 13 11  1  0
 14 13  3  0
 15  4  1  0
 16 15  1  0
 17 16  2  0
 18 17  1  0
 19 18  2  0
 20 19  1  0
 21 20  2  0
 21 16  1  0
  1 22  1  0
  2 23  1  0
  2 24  1  0
  3 25  1  0
  3 26  1  0
  4 27  1  0
  5 28  1  0
  5 29  1  0
  6 30  1  0
  6 31  1  0
  9 32  1  0
 12 33  1  0
 15 34  1  0
 15 35  1  0
 17 36  1  0
 18 37  1  0
 19 38  1  0
 20 39  1  0
 21 40  1  0
M  CHG  1   4   1
M  END
>  <score>  (8) 
-5.962

$$$$
=
     RDKit          3D

 40 41  0  0  0  0  0  0  0  0999 V2000
    0.6520   59.2520   73.9690 C   0  0  0  0  0  0  0  0  0  0  0  0
    0.8150   60.2850   72.8450 C   0  0  0  0  0  0  0  0  0  0  0  0
    1.8800   61.3210   73.1780 C   0  0  0  0  0  0  0  0  0  0  0  0
    3.1990   60.6610   73.4770 N   0  0  0  0  0  4  0  0  0  0  0  0
    3.0840   59.6650   74.6100 C   0  0  0  0  0  0  0  0  0  0  0  0
    2.0130   58.6280   74.3060 C   0  0  0  0  0  0  0  0  0  0  0  0
   -1.4870   60.0390   75.1190 C   0  0  0  0  0  0  0  0  0  0  0  0
   -2.3000   59.4850   74.3980 O   0  0  0  0  0  0  0  0  0  0  0  0
   -0.1160   59.8440   75.0690 N   0  0  0  0  0  0  0  0  0  0  0  0
   -2.4390   60.5080   77.3020 N   0  0  0  0  0  0  0  0  0  0  0  0
   -1.9470   61.0050   76.1970 C   0  0  0  0  0  0  0  0  0  0  0  0
   -2.8330   61.5030   78.2080 O   0  0  0  0  0  0  0  0  0  0  0  0
   -1.8630   62.4360   76.0160 C   0  0  0  0  0  0  0  0  0  0  0  0
   -1.8250   63.5900   75.8860 N   0  0  0  0  0  0  0  0  0  0  0  0
    3.9300   60.1620   72.2470 C   0  0  0  0  0  0  0  0  0  0  0  0
    3.9590   61.1670   71.1270 C   0  0  0  0  0  0  0  0  0  0  0  0
    4.7510   62.3210   71.2240 C   0  0  0  0  0  0  0  0  0  0  0  0
    4.7530   63.2650   70.1970 C   0  0  0  0  0  0  0  0  0  0  0  0
    3.9670   63.0660   69.0640 C   0  0  0  0  0  0  0  0  0  0  0  0
    3.1800   61.9220   68.9540 C   0  0  0  0  0  0  0  0  0  0  0  0
    3.1750   60.9750   69.9780 C   0  0  0  0  0  0  0  0  0  0  0  0
    0.0460   58.3868   73.6621 H   0  0  0  0  0  0  0  0  0  0  0  0
    1.1032   59.7628   71.9207 H   0  0  0  0  0  0  0  0  0  0  0  0
   -0.1442   60.8090   72.7210 H   0  0  0  0  0  0  0  0  0  0  0  0
    2.0031   61.9989   72.3205 H   0  0  0  0  0  0  0  0  0  0  0  0
    1.5582   61.8809   74.0685 H   0  0  0  0  0  0  0  0  0  0  0  0
    3.8289   61.3968   73.8274 H   0  0  0  0  0  0  0  0  0  0  0  0
    4.0506   59.1574   74.7444 H   0  0  0  0  0  0  0  0  0  0  0  0
    2.8054   60.2033   75.5279 H   0  0  0  0  0  0  0  0  0  0  0  0
    2.3436   58.0239   73.4482 H   0  0  0  0  0  0  0  0  0  0  0  0
    1.8798   58.0177   75.2114 H   0  0  0  0  0  0  0  0  0  0  0  0
    0.4216   60.1476   75.8934 H   0  0  0  0  0  0  0  0  0  0  0  0
   -3.2215   61.2502   79.0828 H   0  0  0  0  0  0  0  0  0  0  0  0
    4.9659   59.9225   72.5289 H   0  0  0  0  0  0  0  0  0  0  0  0
    3.3873   59.2784   71.8798 H   0  0  0  0  0  0  0  0  0  0  0  0
    5.3745   62.4824   72.1158 H   0  0  0  0  0  0  0  0  0  0  0  0
    5.3759   64.1676   70.2818 H   0  0  0  0  0  0  0  0  0  0  0  0
    3.9679   63.8125   68.2561 H   0  0  0  0  0  0  0  0  0  0  0  0
    2.5614   61.7652   68.0580 H   0  0  0  0  0  0  0  0  0  0  0  0
    2.5532   60.0724   69.8849 H   0  0  0  0  0  0  0  0  0  0  0  0
  2  1  1  0
  3  2  1  0
  4  3  1  0
  5  4  1  0
  6  5  1  0
  6  1  1  0
  8  7  2  0
  9  7  1  0
  9  1  1  0
 11 10  2  0
 11  7  1  0
 12 10  1  0
 13 11  1  0
 14 13  3  0
 15  4  1  0
 16 15  1  0
 17 16  2  0
 18 17  1  0
 19 18  2  0
 20 19  1  0
 21 20  2  0
 21 16  1  0
  1 22  1  0
  2 23  1  0
  2 24  1  0
  3 25  1  0
  3 26  1  0
  4 27  1  0
  5 28  1  0
  5 29  1  0
  6 30  1  0
  6 31  1  0
  9 32  1  0
 12 33  1  0
 15 34  1  0
 15 35  1  0
 17 36  1  0
 18 37  1  0
 19 38  1  0
 20 39  1  0
 21 40  1  0
M  CHG  1   4   1
M  END
>  <score>  (9) 
-5.821

$$$$
