=
     RDKit          3D

 36 39  0  0  0  0  0  0  0  0999 V2000
    1.5960   67.1770   65.6510 C   0  0  0  0  0  0  0  0  0  0  0  0
    3.2720   64.7340   65.7600 O   0  0  0  0  0  0  0  0  0  0  0  0
    3.2740   65.5150   64.8340 C   0  0  0  0  0  0  0  0  0  0  0  0
    4.1760   65.4210   63.5770 C   0  0  0  0  0  0  0  0  0  0  0  0
    4.9730   64.5530   63.3060 O   0  0  0  0  0  0  0  0  0  0  0  0
    3.8720   66.6160   62.7910 C   0  0  0  0  0  0  0  0  0  0  0  0
    2.8950   67.3350   63.4800 C   0  0  0  0  0  0  0  0  0  0  0  0
    2.5300   66.6750   64.6660 N   0  0  0  0  0  0  0  0  0  0  0  0
    2.4230   68.5300   62.9700 C   0  0  0  0  0  0  0  0  0  0  0  0
    2.9550   68.9790   61.7530 C   0  0  0  0  0  0  0  0  0  0  0  0
    3.9410   68.2410   61.0700 C   0  0  0  0  0  0  0  0  0  0  0  0
    4.4140   67.0360   61.5910 C   0  0  0  0  0  0  0  0  0  0  0  0
    1.5560   68.7100   65.6830 C   0  0  0  0  0  0  0  0  0  0  0  0
    2.3780   69.2570   66.7420 N   0  0  0  0  0  0  0  0  0  0  0  0
    3.7540   69.5270   66.6470 C   0  0  0  0  0  0  0  0  0  0  0  0
    4.6160   69.2870   65.5930 C   0  0  0  0  0  0  0  0  0  0  0  0
    5.9610   69.6540   65.7480 C   0  0  0  0  0  0  0  0  0  0  0  0
    6.4210   70.2500   66.9390 C   0  0  0  0  0  0  0  0  0  0  0  0
    5.5450   70.4910   67.9970 C   0  0  0  0  0  0  0  0  0  0  0  0
    4.2260   70.1190   67.8170 C   0  0  0  0  0  0  0  0  0  0  0  0
    3.0920   70.2570   68.7300 C   0  0  0  0  0  0  0  0  0  0  0  0
    3.1060   70.7260   69.8440 O   0  0  0  0  0  0  0  0  0  0  0  0
    1.8720   69.6900   67.9590 C   0  0  0  0  0  0  0  0  0  0  0  0
    0.7290   69.6770   68.3590 O   0  0  0  0  0  0  0  0  0  0  0  0
    0.5907   66.8013   65.4097 H   0  0  0  0  0  0  0  0  0  0  0  0
    1.9274   66.8271   66.6398 H   0  0  0  0  0  0  0  0  0  0  0  0
    1.6546   69.1101   63.5020 H   0  0  0  0  0  0  0  0  0  0  0  0
    2.5954   69.9257   61.3235 H   0  0  0  0  0  0  0  0  0  0  0  0
    4.3418   68.6178   60.1174 H   0  0  0  0  0  0  0  0  0  0  0  0
    5.1834   66.4471   61.0702 H   0  0  0  0  0  0  0  0  0  0  0  0
    1.9194   69.0940   64.7184 H   0  0  0  0  0  0  0  0  0  0  0  0
    0.5163   69.0166   65.8702 H   0  0  0  0  0  0  0  0  0  0  0  0
    4.2583   68.8228   64.6621 H   0  0  0  0  0  0  0  0  0  0  0  0
    6.6688   69.4734   64.9256 H   0  0  0  0  0  0  0  0  0  0  0  0
    7.4810   70.5278   67.0352 H   0  0  0  0  0  0  0  0  0  0  0  0
    5.8883   70.9563   68.9328 H   0  0  0  0  0  0  0  0  0  0  0  0
  3  2  2  0
  4  3  1  0
  5  4  2  0
  6  4  1  0
  7  6  2  0
  8  7  1  0
  8  3  1  0
  8  1  1  0
  9  7  1  0
 10  9  2  0
 11 10  1  0
 12 11  2  0
 12  6  1  0
 13  1  1  0
 14 13  1  0
 15 14  1  0
 16 15  2  0
 17 16  1  0
 18 17  2  0
 19 18  1  0
 20 15  1  0
 20 19  2  0
 21 20  1  0
 22 21  2  0
 23 21  1  0
 23 14  1  0
 24 23  2  0
  1 25  1  0
  1 26  1  0
  9 27  1  0
 10 28  1  0
 11 29  1  0
 12 30  1  0
 13 31  1  0
 13 32  1  0
 16 33  1  0
 17 34  1  0
 18 35  1  0
 19 36  1  0
M  END
>  <score>  (1) 
-10.406

$$$$
=
     RDKit          3D

 36 39  0  0  0  0  0  0  0  0999 V2000
    4.2300   68.3330   64.8560 C   0  0  0  0  0  0  0  0  0  0  0  0
    5.4820   68.4670   62.1720 O   0  0  0  0  0  0  0  0  0  0  0  0
    4.2890   68.5450   62.3670 C   0  0  0  0  0  0  0  0  0  0  0  0
    3.2120   68.7830   61.2780 C   0  0  0  0  0  0  0  0  0  0  0  0
    3.3800   68.8850   60.0850 O   0  0  0  0  0  0  0  0  0  0  0  0
    1.9430   68.8750   62.0010 C   0  0  0  0  0  0  0  0  0  0  0  0
    2.2190   68.6990   63.3560 C   0  0  0  0  0  0  0  0  0  0  0  0
    3.5920   68.4830   63.5650 N   0  0  0  0  0  0  0  0  0  0  0  0
    1.1960   68.7530   64.2860 C   0  0  0  0  0  0  0  0  0  0  0  0
   -0.1050   68.9850   63.8170 C   0  0  0  0  0  0  0  0  0  0  0  0
   -0.3650   69.1610   62.4440 C   0  0  0  0  0  0  0  0  0  0  0  0
    0.6720   69.1070   61.5120 C   0  0  0  0  0  0  0  0  0  0  0  0
    4.8760   69.6380   65.3390 C   0  0  0  0  0  0  0  0  0  0  0  0
    4.7080   69.8370   66.7620 N   0  0  0  0  0  0  0  0  0  0  0  0
    5.7280   70.1960   67.6600 C   0  0  0  0  0  0  0  0  0  0  0  0
    7.0780   70.3720   67.4160 C   0  0  0  0  0  0  0  0  0  0  0  0
    7.8970   70.7360   68.4940 C   0  0  0  0  0  0  0  0  0  0  0  0
    7.3650   70.9180   69.7860 C   0  0  0  0  0  0  0  0  0  0  0  0
    6.0020   70.7400   70.0240 C   0  0  0  0  0  0  0  0  0  0  0  0
    5.2180   70.3820   68.9440 C   0  0  0  0  0  0  0  0  0  0  0  0
    3.7770   70.1420   68.8840 C   0  0  0  0  0  0  0  0  0  0  0  0
    2.9890   70.2070   69.7990 O   0  0  0  0  0  0  0  0  0  0  0  0
    3.4760   69.8060   67.4010 C   0  0  0  0  0  0  0  0  0  0  0  0
    2.3780   69.5980   66.9340 O   0  0  0  0  0  0  0  0  0  0  0  0
    3.4736   68.0193   65.5905 H   0  0  0  0  0  0  0  0  0  0  0  0
    5.0256   67.5803   64.7538 H   0  0  0  0  0  0  0  0  0  0  0  0
    1.3968   68.6182   65.3591 H   0  0  0  0  0  0  0  0  0  0  0  0
   -0.9376   69.0304   64.5344 H   0  0  0  0  0  0  0  0  0  0  0  0
   -1.3950   69.3427   62.1033 H   0  0  0  0  0  0  0  0  0  0  0  0
    0.4859   69.2430   60.4364 H   0  0  0  0  0  0  0  0  0  0  0  0
    5.9515   69.6067   65.1102 H   0  0  0  0  0  0  0  0  0  0  0  0
    4.3805   70.4721   64.8206 H   0  0  0  0  0  0  0  0  0  0  0  0
    7.4957   70.2309   66.4082 H   0  0  0  0  0  0  0  0  0  0  0  0
    8.9746   70.8822   68.3282 H   0  0  0  0  0  0  0  0  0  0  0  0
    8.0303   71.2030   70.6143 H   0  0  0  0  0  0  0  0  0  0  0  0
    5.5708   70.8784   71.0264 H   0  0  0  0  0  0  0  0  0  0  0  0
  3  2  2  0
  4  3  1  0
  5  4  2  0
  6  4  1  0
  7  6  2  0
  8  7  1  0
  8  3  1  0
  8  1  1  0
  9  7  1  0
 10  9  2  0
 11 10  1  0
 12 11  2  0
 12  6  1  0
 13  1  1  0
 14 13  1  0
 15 14  1  0
 16 15  2  0
 17 16  1  0
 18 17  2  0
 19 18  1  0
 20 15  1  0
 20 19  2  0
 21 20  1  0
 22 21  2  0
 23 21  1  0
 23 14  1  0
 24 23  2  0
  1 25  1  0
  1 26  1  0
  9 27  1  0
 10 28  1  0
 11 29  1  0
 12 30  1  0
 13 31  1  0
 13 32  1  0
 16 33  1  0
 17 34  1  0
 18 35  1  0
 19 36  1  0
M  END
>  <score>  (2) 
-10.261

$$$$
=
     RDKit          3D

 36 39  0  0  0  0  0  0  0  0999 V2000
    1.4580   68.1150   64.5150 C   0  0  0  0  0  0  0  0  0  0  0  0
    2.9520   68.0440   61.9550 O   0  0  0  0  0  0  0  0  0  0  0  0
    3.3930   68.5080   62.9840 C   0  0  0  0  0  0  0  0  0  0  0  0
    4.8170   69.0920   63.1720 C   0  0  0  0  0  0  0  0  0  0  0  0
    5.6800   69.2120   62.3340 O   0  0  0  0  0  0  0  0  0  0  0  0
    4.9040   69.4530   64.5870 C   0  0  0  0  0  0  0  0  0  0  0  0
    3.6800   69.1410   65.1760 C   0  0  0  0  0  0  0  0  0  0  0  0
    2.7880   68.6080   64.2290 N   0  0  0  0  0  0  0  0  0  0  0  0
    3.4810   69.3660   66.5260 C   0  0  0  0  0  0  0  0  0  0  0  0
    4.5410   69.9140   67.2620 C   0  0  0  0  0  0  0  0  0  0  0  0
    5.7710   70.2230   66.6510 C   0  0  0  0  0  0  0  0  0  0  0  0
    5.9660   69.9920   65.2880 C   0  0  0  0  0  0  0  0  0  0  0  0
    0.6780   69.0550   65.4430 C   0  0  0  0  0  0  0  0  0  0  0  0
   -0.2090   68.3350   66.3320 N   0  0  0  0  0  0  0  0  0  0  0  0
    0.1770   67.6860   67.5170 C   0  0  0  0  0  0  0  0  0  0  0  0
    1.4430   67.5360   68.0530 C   0  0  0  0  0  0  0  0  0  0  0  0
    1.5640   66.8390   69.2640 C   0  0  0  0  0  0  0  0  0  0  0  0
    0.4340   66.3070   69.9150 C   0  0  0  0  0  0  0  0  0  0  0  0
   -0.8400   66.4630   69.3690 C   0  0  0  0  0  0  0  0  0  0  0  0
   -0.9310   67.1550   68.1760 C   0  0  0  0  0  0  0  0  0  0  0  0
   -2.1140   67.4840   67.3840 C   0  0  0  0  0  0  0  0  0  0  0  0
   -3.2620   67.1940   67.6320 O   0  0  0  0  0  0  0  0  0  0  0  0
   -1.5870   68.2950   66.1730 C   0  0  0  0  0  0  0  0  0  0  0  0
   -2.2710   68.7990   65.3090 O   0  0  0  0  0  0  0  0  0  0  0  0
    0.9066   68.0140   63.5685 H   0  0  0  0  0  0  0  0  0  0  0  0
    1.5599   67.1456   65.0248 H   0  0  0  0  0  0  0  0  0  0  0  0
    2.5220   69.1228   67.0068 H   0  0  0  0  0  0  0  0  0  0  0  0
    4.4091   70.1061   68.3370 H   0  0  0  0  0  0  0  0  0  0  0  0
    6.5862   70.6505   67.2532 H   0  0  0  0  0  0  0  0  0  0  0  0
    6.9206   70.2281   64.7950 H   0  0  0  0  0  0  0  0  0  0  0  0
    1.3945   69.6306   66.0475 H   0  0  0  0  0  0  0  0  0  0  0  0
    0.0625   69.7153   64.8144 H   0  0  0  0  0  0  0  0  0  0  0  0
    2.3268   67.9501   67.5457 H   0  0  0  0  0  0  0  0  0  0  0  0
    2.5591   66.7054   69.7134 H   0  0  0  0  0  0  0  0  0  0  0  0
    0.5574   65.7632   70.8632 H   0  0  0  0  0  0  0  0  0  0  0  0
   -1.7322   66.0537   69.8655 H   0  0  0  0  0  0  0  0  0  0  0  0
  3  2  2  0
  4  3  1  0
  5  4  2  0
  6  4  1  0
  7  6  2  0
  8  7  1  0
  8  3  1  0
  8  1  1  0
  9  7  1  0
 10  9  2  0
 11 10  1  0
 12 11  2  0
 12  6  1  0
 13  1  1  0
 14 13  1  0
 15 14  1  0
 16 15  2  0
 17 16  1  0
 18 17  2  0
 19 18  1  0
 20 15  1  0
 20 19  2  0
 21 20  1  0
 22 21  2  0
 23 21  1  0
 23 14  1  0
 24 23  2  0
  1 25  1  0
  1 26  1  0
  9 27  1  0
 10 28  1  0
 11 29  1  0
 12 30  1  0
 13 31  1  0
 13 32  1  0
 16 33  1  0
 17 34  1  0
 18 35  1  0
 19 36  1  0
M  END
>  <score>  (3) 
-10.16

$$$$
=
     RDKit          3D

 36 39  0  0  0  0  0  0  0  0999 V2000
    1.0110   69.0790   66.0870 C   0  0  0  0  0  0  0  0  0  0  0  0
   -1.8420   68.5640   65.4670 O   0  0  0  0  0  0  0  0  0  0  0  0
   -1.2530   68.0720   66.4060 C   0  0  0  0  0  0  0  0  0  0  0  0
   -1.8800   67.1410   67.4750 C   0  0  0  0  0  0  0  0  0  0  0  0
   -3.0170   66.7330   67.5210 O   0  0  0  0  0  0  0  0  0  0  0  0
   -0.8060   66.8700   68.4310 C   0  0  0  0  0  0  0  0  0  0  0  0
    0.3320   67.5420   67.9840 C   0  0  0  0  0  0  0  0  0  0  0  0
    0.0730   68.2270   66.7850 N   0  0  0  0  0  0  0  0  0  0  0  0
    1.5070   67.4740   68.7100 C   0  0  0  0  0  0  0  0  0  0  0  0
    1.5080   66.7150   69.8890 C   0  0  0  0  0  0  0  0  0  0  0  0
    0.3500   66.0430   70.3250 C   0  0  0  0  0  0  0  0  0  0  0  0
   -0.8340   66.1170   69.5880 C   0  0  0  0  0  0  0  0  0  0  0  0
    1.6660   68.3680   64.8960 C   0  0  0  0  0  0  0  0  0  0  0  0
    3.0120   68.8400   64.6490 N   0  0  0  0  0  0  0  0  0  0  0  0
    3.8810   69.3650   65.6210 C   0  0  0  0  0  0  0  0  0  0  0  0
    3.6440   69.6020   66.9620 C   0  0  0  0  0  0  0  0  0  0  0  0
    4.6880   70.1380   67.7290 C   0  0  0  0  0  0  0  0  0  0  0  0
    5.9410   70.4260   67.1530 C   0  0  0  0  0  0  0  0  0  0  0  0
    6.1740   70.1830   65.7990 C   0  0  0  0  0  0  0  0  0  0  0  0
    5.1280   69.6550   65.0680 C   0  0  0  0  0  0  0  0  0  0  0  0
    5.0780   69.2870   63.6540 C   0  0  0  0  0  0  0  0  0  0  0  0
    5.9690   69.3910   62.8420 O   0  0  0  0  0  0  0  0  0  0  0  0
    3.6530   68.7230   63.4240 C   0  0  0  0  0  0  0  0  0  0  0  0
    3.2370   68.2580   62.3850 O   0  0  0  0  0  0  0  0  0  0  0  0
    0.4764   69.9671   65.7188 H   0  0  0  0  0  0  0  0  0  0  0  0
    1.8070   69.3548   66.7944 H   0  0  0  0  0  0  0  0  0  0  0  0
    2.4129   67.9991   68.3730 H   0  0  0  0  0  0  0  0  0  0  0  0
    2.4303   66.6432   70.4842 H   0  0  0  0  0  0  0  0  0  0  0  0
    0.3781   65.4547   71.2540 H   0  0  0  0  0  0  0  0  0  0  0  0
   -1.7477   65.5988   69.9146 H   0  0  0  0  0  0  0  0  0  0  0  0
    1.7020   67.2885   65.1042 H   0  0  0  0  0  0  0  0  0  0  0  0
    1.0634   68.5838   64.0014 H   0  0  0  0  0  0  0  0  0  0  0  0
    2.6665   69.3770   67.4134 H   0  0  0  0  0  0  0  0  0  0  0  0
    4.5260   70.3370   68.7986 H   0  0  0  0  0  0  0  0  0  0  0  0
    6.7435   70.8466   67.7768 H   0  0  0  0  0  0  0  0  0  0  0  0
    7.1469   70.4021   65.3347 H   0  0  0  0  0  0  0  0  0  0  0  0
  3  2  2  0
  4  3  1  0
  5  4  2  0
  6  4  1  0
  7  6  2  0
  8  7  1  0
  8  3  1  0
  8  1  1  0
  9  7  1  0
 10  9  2  0
 11 10  1  0
 12 11  2  0
 12  6  1  0
 13  1  1  0
 14 13  1  0
 15 14  1  0
 16 15  2  0
 17 16  1  0
 18 17  2  0
 19 18  1  0
 20 15  1  0
 20 19  2  0
 21 20  1  0
 22 21  2  0
 23 21  1  0
 23 14  1  0
 24 23  2  0
  1 25  1  0
  1 26  1  0
  9 27  1  0
 10 28  1  0
 11 29  1  0
 12 30  1  0
 13 31  1  0
 13 32  1  0
 16 33  1  0
 17 34  1  0
 18 35  1  0
 19 36  1  0
M  END
>  <score>  (4) 
-10.127

$$$$
=
     RDKit          3D

 36 39  0  0  0  0  0  0  0  0999 V2000
    2.3450   67.9010   65.8830 C   0  0  0  0  0  0  0  0  0  0  0  0
    1.1310   69.0440   63.4320 O   0  0  0  0  0  0  0  0  0  0  0  0
    0.4910   68.6010   64.3620 C   0  0  0  0  0  0  0  0  0  0  0  0
   -1.0550   68.5990   64.4710 C   0  0  0  0  0  0  0  0  0  0  0  0
   -1.8520   68.9900   63.6520 O   0  0  0  0  0  0  0  0  0  0  0  0
   -1.3490   68.0360   65.7890 C   0  0  0  0  0  0  0  0  0  0  0  0
   -0.1310   67.7230   66.3930 C   0  0  0  0  0  0  0  0  0  0  0  0
    0.9450   68.0340   65.5440 N   0  0  0  0  0  0  0  0  0  0  0  0
   -0.1060   67.1820   67.6650 C   0  0  0  0  0  0  0  0  0  0  0  0
   -1.3320   66.9640   68.3100 C   0  0  0  0  0  0  0  0  0  0  0  0
   -2.5520   67.2860   67.6860 C   0  0  0  0  0  0  0  0  0  0  0  0
   -2.5710   67.8330   66.4010 C   0  0  0  0  0  0  0  0  0  0  0  0
    3.1110   69.2200   65.7140 C   0  0  0  0  0  0  0  0  0  0  0  0
    3.5930   69.7380   66.9760 N   0  0  0  0  0  0  0  0  0  0  0  0
    4.9370   70.0100   67.2840 C   0  0  0  0  0  0  0  0  0  0  0  0
    6.0660   69.7960   66.5150 C   0  0  0  0  0  0  0  0  0  0  0  0
    7.3070   70.1580   67.0570 C   0  0  0  0  0  0  0  0  0  0  0  0
    7.4040   70.7230   68.3440 C   0  0  0  0  0  0  0  0  0  0  0  0
    6.2610   70.9370   69.1140 C   0  0  0  0  0  0  0  0  0  0  0  0
    5.0510   70.5710   68.5560 C   0  0  0  0  0  0  0  0  0  0  0  0
    3.7030   70.6860   69.1090 C   0  0  0  0  0  0  0  0  0  0  0  0
    3.3950   71.1270   70.1920 O   0  0  0  0  0  0  0  0  0  0  0  0
    2.7580   70.1410   68.0090 C   0  0  0  0  0  0  0  0  0  0  0  0
    1.5480   70.1180   68.0660 O   0  0  0  0  0  0  0  0  0  0  0  0
    2.4263   67.5760   66.9308 H   0  0  0  0  0  0  0  0  0  0  0  0
    2.7891   67.1629   65.1989 H   0  0  0  0  0  0  0  0  0  0  0  0
    0.8458   66.9304   68.1558 H   0  0  0  0  0  0  0  0  0  0  0  0
   -1.3405   66.5334   69.3222 H   0  0  0  0  0  0  0  0  0  0  0  0
   -3.4992   67.1052   68.2153 H   0  0  0  0  0  0  0  0  0  0  0  0
   -3.5155   68.0904   65.8993 H   0  0  0  0  0  0  0  0  0  0  0  0
    3.9711   69.0476   65.0502 H   0  0  0  0  0  0  0  0  0  0  0  0
    2.4182   69.9605   65.2877 H   0  0  0  0  0  0  0  0  0  0  0  0
    5.9926   69.3556   65.5097 H   0  0  0  0  0  0  0  0  0  0  0  0
    8.2215   69.9981   66.4669 H   0  0  0  0  0  0  0  0  0  0  0  0
    8.3906   70.9979   68.7453 H   0  0  0  0  0  0  0  0  0  0  0  0
    6.3201   71.3773   70.1203 H   0  0  0  0  0  0  0  0  0  0  0  0
  3  2  2  0
  4  3  1  0
  5  4  2  0
  6  4  1  0
  7  6  2  0
  8  7  1  0
  8  3  1  0
  8  1  1  0
  9  7  1  0
 10  9  2  0
 11 10  1  0
 12 11  2  0
 12  6  1  0
 13  1  1  0
 14 13  1  0
 15 14  1  0
 16 15  2  0
 17 16  1  0
 18 17  2  0
 19 18  1  0
 20 15  1  0
 20 19  2  0
 21 20  1  0
 22 21  2  0
 23 21  1  0
 23 14  1  0
 24 23  2  0
  1 25  1  0
  1 26  1  0
  9 27  1  0
 10 28  1  0
 11 29  1  0
 12 30  1  0
 13 31  1  0
 13 32  1  0
 16 33  1  0
 17 34  1  0
 18 35  1  0
 19 36  1  0
M  END
>  <score>  (5) 
-9.713

$$$$
=
     RDKit          3D

 36 39  0  0  0  0  0  0  0  0999 V2000
    2.8990   69.5840   68.5850 C   0  0  0  0  0  0  0  0  0  0  0  0
    5.5220   70.8930   69.0300 O   0  0  0  0  0  0  0  0  0  0  0  0
    5.1730   70.4180   67.9710 C   0  0  0  0  0  0  0  0  0  0  0  0
    5.9910   70.4520   66.6550 C   0  0  0  0  0  0  0  0  0  0  0  0
    7.0970   70.9100   66.4870 O   0  0  0  0  0  0  0  0  0  0  0  0
    5.1330   69.8260   65.6480 C   0  0  0  0  0  0  0  0  0  0  0  0
    3.9510   69.4470   66.2830 C   0  0  0  0  0  0  0  0  0  0  0  0
    3.9860   69.7750   67.6490 N   0  0  0  0  0  0  0  0  0  0  0  0
    2.9410   68.8380   65.5610 C   0  0  0  0  0  0  0  0  0  0  0  0
    3.1520   68.6190   64.1930 C   0  0  0  0  0  0  0  0  0  0  0  0
    4.3530   69.0090   63.5680 C   0  0  0  0  0  0  0  0  0  0  0  0
    5.3680   69.6250   64.3020 C   0  0  0  0  0  0  0  0  0  0  0  0
    1.5300   69.8470   67.9450 C   0  0  0  0  0  0  0  0  0  0  0  0
    0.6260   68.7290   68.1080 N   0  0  0  0  0  0  0  0  0  0  0  0
   -0.5830   68.5520   67.4130 C   0  0  0  0  0  0  0  0  0  0  0  0
   -1.1930   69.3940   66.5020 C   0  0  0  0  0  0  0  0  0  0  0  0
   -2.4110   68.9820   65.9410 C   0  0  0  0  0  0  0  0  0  0  0  0
   -2.9950   67.7490   66.2930 C   0  0  0  0  0  0  0  0  0  0  0  0
   -2.3730   66.9040   67.2120 C   0  0  0  0  0  0  0  0  0  0  0  0
   -1.1750   67.3350   67.7490 C   0  0  0  0  0  0  0  0  0  0  0  0
   -0.2980   66.6690   68.7100 C   0  0  0  0  0  0  0  0  0  0  0  0
   -0.4730   65.5920   69.2330 O   0  0  0  0  0  0  0  0  0  0  0  0
    0.9060   67.6260   68.9020 C   0  0  0  0  0  0  0  0  0  0  0  0
    1.8810   67.4050   69.5860 O   0  0  0  0  0  0  0  0  0  0  0  0
    2.9253   68.5472   68.9516 H   0  0  0  0  0  0  0  0  0  0  0  0
    3.0311   70.3029   69.4070 H   0  0  0  0  0  0  0  0  0  0  0  0
    2.0011   68.5349   66.0454 H   0  0  0  0  0  0  0  0  0  0  0  0
    2.3656   68.1337   63.5963 H   0  0  0  0  0  0  0  0  0  0  0  0
    4.4920   68.8264   62.4922 H   0  0  0  0  0  0  0  0  0  0  0  0
    6.3117   69.9360   63.8300 H   0  0  0  0  0  0  0  0  0  0  0  0
    1.0835   70.7351   68.4162 H   0  0  0  0  0  0  0  0  0  0  0  0
    1.6854   70.0009   66.8670 H   0  0  0  0  0  0  0  0  0  0  0  0
   -0.7378   70.3565   66.2257 H   0  0  0  0  0  0  0  0  0  0  0  0
   -2.9188   69.6327   65.2139 H   0  0  0  0  0  0  0  0  0  0  0  0
   -3.9510   67.4498   65.8385 H   0  0  0  0  0  0  0  0  0  0  0  0
   -2.8161   65.9382   67.4964 H   0  0  0  0  0  0  0  0  0  0  0  0
  3  2  2  0
  4  3  1  0
  5  4  2  0
  6  4  1  0
  7  6  2  0
  8  7  1  0
  8  3  1  0
  8  1  1  0
  9  7  1  0
 10  9  2  0
 11 10  1  0
 12 11  2  0
 12  6  1  0
 13  1  1  0
 14 13  1  0
 15 14  1  0
 16 15  2  0
 17 16  1  0
 18 17  2  0
 19 18  1  0
 20 15  1  0
 20 19  2  0
 21 20  1  0
 22 21  2  0
 23 21  1  0
 23 14  1  0
 24 23  2  0
  1 25  1  0
  1 26  1  0
  9 27  1  0
 10 28  1  0
 11 29  1  0
 12 30  1  0
 13 31  1  0
 13 32  1  0
 16 33  1  0
 17 34  1  0
 18 35  1  0
 19 36  1  0
M  END
>  <score>  (6) 
-9.346

$$$$
=
     RDKit          3D

 36 39  0  0  0  0  0  0  0  0999 V2000
    1.8990   67.5910   66.4420 C   0  0  0  0  0  0  0  0  0  0  0  0
    0.1620   66.7570   68.6950 O   0  0  0  0  0  0  0  0  0  0  0  0
   -0.2450   67.3080   67.6950 C   0  0  0  0  0  0  0  0  0  0  0  0
   -1.7280   67.6260   67.3800 C   0  0  0  0  0  0  0  0  0  0  0  0
   -2.6910   67.4180   68.0820 O   0  0  0  0  0  0  0  0  0  0  0  0
   -1.7230   68.2180   66.0420 C   0  0  0  0  0  0  0  0  0  0  0  0
   -0.3980   68.2660   65.6100 C   0  0  0  0  0  0  0  0  0  0  0  0
    0.4690   67.7530   66.5910 N   0  0  0  0  0  0  0  0  0  0  0  0
   -0.0940   68.7710   64.3600 C   0  0  0  0  0  0  0  0  0  0  0  0
   -1.1520   69.2270   63.5610 C   0  0  0  0  0  0  0  0  0  0  0  0
   -2.4850   69.1710   64.0130 C   0  0  0  0  0  0  0  0  0  0  0  0
   -2.7850   68.6580   65.2760 C   0  0  0  0  0  0  0  0  0  0  0  0
    2.5890   68.8950   66.0200 C   0  0  0  0  0  0  0  0  0  0  0  0
    3.2550   69.5450   67.1290 N   0  0  0  0  0  0  0  0  0  0  0  0
    4.6240   69.8560   67.1850 C   0  0  0  0  0  0  0  0  0  0  0  0
    5.6200   69.5720   66.2680 C   0  0  0  0  0  0  0  0  0  0  0  0
    6.9230   69.9970   66.5610 C   0  0  0  0  0  0  0  0  0  0  0  0
    7.2130   70.6920   67.7510 C   0  0  0  0  0  0  0  0  0  0  0  0
    6.2040   70.9770   68.6720 C   0  0  0  0  0  0  0  0  0  0  0  0
    4.9290   70.5470   68.3580 C   0  0  0  0  0  0  0  0  0  0  0  0
    3.6850   70.7090   69.1090 C   0  0  0  0  0  0  0  0  0  0  0  0
    3.5450   71.2580   70.1770 O   0  0  0  0  0  0  0  0  0  0  0  0
    2.5880   70.0460   68.2370 C   0  0  0  0  0  0  0  0  0  0  0  0
    1.4040   70.0210   68.4920 O   0  0  0  0  0  0  0  0  0  0  0  0
    2.3204   67.2623   67.4034 H   0  0  0  0  0  0  0  0  0  0  0  0
    2.0740   66.8454   65.6524 H   0  0  0  0  0  0  0  0  0  0  0  0
    0.9456   68.8138   64.0031 H   0  0  0  0  0  0  0  0  0  0  0  0
   -0.9372   69.6360   62.5627 H   0  0  0  0  0  0  0  0  0  0  0  0
   -3.2963   69.5346   63.3652 H   0  0  0  0  0  0  0  0  0  0  0  0
   -3.8201   68.6064   65.6446 H   0  0  0  0  0  0  0  0  0  0  0  0
    3.3343   68.6663   65.2440 H   0  0  0  0  0  0  0  0  0  0  0  0
    1.8152   69.5797   65.6426 H   0  0  0  0  0  0  0  0  0  0  0  0
    5.3963   69.0294   65.3377 H   0  0  0  0  0  0  0  0  0  0  0  0
    7.7337   69.7839   65.8487 H   0  0  0  0  0  0  0  0  0  0  0  0
    8.2448   71.0133   67.9565 H   0  0  0  0  0  0  0  0  0  0  0  0
    6.4142   71.5194   69.6056 H   0  0  0  0  0  0  0  0  0  0  0  0
  3  2  2  0
  4  3  1  0
  5  4  2  0
  6  4  1  0
  7  6  2  0
  8  7  1  0
  8  3  1  0
  8  1  1  0
  9  7  1  0
 10  9  2  0
 11 10  1  0
 12 11  2  0
 12  6  1  0
 13  1  1  0
 14 13  1  0
 15 14  1  0
 16 15  2  0
 17 16  1  0
 18 17  2  0
 19 18  1  0
 20 15  1  0
 20 19  2  0
 21 20  1  0
 22 21  2  0
 23 21  1  0
 23 14  1  0
 24 23  2  0
  1 25  1  0
  1 26  1  0
  9 27  1  0
 10 28  1  0
 11 29  1  0
 12 30  1  0
 13 31  1  0
 13 32  1  0
 16 33  1  0
 17 34  1  0
 18 35  1  0
 19 36  1  0
M  END
>  <score>  (7) 
-9.166

$$$$
=
     RDKit          3D

 36 39  0  0  0  0  0  0  0  0999 V2000
    2.0450   67.8380   65.7920 C   0  0  0  0  0  0  0  0  0  0  0  0
   -0.8760   67.9440   66.2880 O   0  0  0  0  0  0  0  0  0  0  0  0
   -0.3540   68.2720   65.2440 C   0  0  0  0  0  0  0  0  0  0  0  0
   -1.1020   68.7470   63.9730 C   0  0  0  0  0  0  0  0  0  0  0  0
   -2.2930   68.9020   63.8340 O   0  0  0  0  0  0  0  0  0  0  0  0
   -0.0620   68.9530   62.9650 C   0  0  0  0  0  0  0  0  0  0  0  0
    1.1630   68.6550   63.5600 C   0  0  0  0  0  0  0  0  0  0  0  0
    0.9910   68.2780   64.9030 N   0  0  0  0  0  0  0  0  0  0  0  0
    2.3320   68.7500   62.8270 C   0  0  0  0  0  0  0  0  0  0  0  0
    2.2350   69.1540   61.4880 C   0  0  0  0  0  0  0  0  0  0  0  0
    0.9890   69.4510   60.9030 C   0  0  0  0  0  0  0  0  0  0  0  0
   -0.1870   69.3510   61.6480 C   0  0  0  0  0  0  0  0  0  0  0  0
    3.3090   68.6980   65.6620 C   0  0  0  0  0  0  0  0  0  0  0  0
    3.6370   69.3780   66.8980 N   0  0  0  0  0  0  0  0  0  0  0  0
    4.9060   69.8720   67.2420 C   0  0  0  0  0  0  0  0  0  0  0  0
    6.0960   69.7750   66.5440 C   0  0  0  0  0  0  0  0  0  0  0  0
    7.2380   70.3610   67.1090 C   0  0  0  0  0  0  0  0  0  0  0  0
    7.1770   71.0300   68.3480 C   0  0  0  0  0  0  0  0  0  0  0  0
    5.9730   71.1250   69.0460 C   0  0  0  0  0  0  0  0  0  0  0  0
    4.8640   70.5390   68.4660 C   0  0  0  0  0  0  0  0  0  0  0  0
    3.4850   70.4890   68.9480 C   0  0  0  0  0  0  0  0  0  0  0  0
    3.0540   70.9580   69.9760 O   0  0  0  0  0  0  0  0  0  0  0  0
    2.6940   69.7250   67.8550 C   0  0  0  0  0  0  0  0  0  0  0  0
    1.5000   69.5230   67.8600 O   0  0  0  0  0  0  0  0  0  0  0  0
    1.6817   67.8966   66.8286 H   0  0  0  0  0  0  0  0  0  0  0  0
    2.3090   66.8058   65.5182 H   0  0  0  0  0  0  0  0  0  0  0  0
    3.3067   68.5161   63.2801 H   0  0  0  0  0  0  0  0  0  0  0  0
    3.1495   69.2406   60.8829 H   0  0  0  0  0  0  0  0  0  0  0  0
    0.9421   69.7646   59.8497 H   0  0  0  0  0  0  0  0  0  0  0  0
   -1.1685   69.5787   61.2067 H   0  0  0  0  0  0  0  0  0  0  0  0
    4.1515   68.0493   65.3801 H   0  0  0  0  0  0  0  0  0  0  0  0
    3.1195   69.4635   64.8952 H   0  0  0  0  0  0  0  0  0  0  0  0
    6.1452   69.2546   65.5761 H   0  0  0  0  0  0  0  0  0  0  0  0
    8.1981   70.2974   66.5759 H   0  0  0  0  0  0  0  0  0  0  0  0
    8.0876   71.4816   68.7686 H   0  0  0  0  0  0  0  0  0  0  0  0
    5.9092   71.6430   70.0143 H   0  0  0  0  0  0  0  0  0  0  0  0
  3  2  2  0
  4  3  1  0
  5  4  2  0
  6  4  1  0
  7  6  2  0
  8  7  1  0
  8  3  1  0
  8  1  1  0
  9  7  1  0
 10  9  2  0
 11 10  1  0
 12 11  2  0
 12  6  1  0
 13  1  1  0
 14 13  1  0
 15 14  1  0
 16 15  2  0
 17 16  1  0
 18 17  2  0
 19 18  1  0
 20 15  1  0
 20 19  2  0
 21 20  1  0
 22 21  2  0
 23 21  1  0
 23 14  1  0
 24 23  2  0
  1 25  1  0
  1 26  1  0
  9 27  1  0
 10 28  1  0
 11 29  1  0
 12 30  1  0
 13 31  1  0
 13 32  1  0
 16 33  1  0
 17 34  1  0
 18 35  1  0
 19 36  1  0
M  END
>  <score>  (8) 
-9.142

$$$$
=
     RDKit          3D

 36 39  0  0  0  0  0  0  0  0999 V2000
    3.1500   59.6260   71.3440 C   0  0  0  0  0  0  0  0  0  0  0  0
    5.8190   60.8380   70.9020 O   0  0  0  0  0  0  0  0  0  0  0  0
    4.7770   61.4550   70.8440 C   0  0  0  0  0  0  0  0  0  0  0  0
    4.6450   62.9780   70.5890 C   0  0  0  0  0  0  0  0  0  0  0  0
    5.5330   63.7690   70.3720 O   0  0  0  0  0  0  0  0  0  0  0  0
    3.2130   63.2640   70.6840 C   0  0  0  0  0  0  0  0  0  0  0  0
    2.5610   62.0600   70.9470 C   0  0  0  0  0  0  0  0  0  0  0  0
    3.4790   60.9970   71.0180 N   0  0  0  0  0  0  0  0  0  0  0  0
    1.1870   62.0340   71.1030 C   0  0  0  0  0  0  0  0  0  0  0  0
    0.4910   63.2440   70.9840 C   0  0  0  0  0  0  0  0  0  0  0  0
    1.1650   64.4510   70.7180 C   0  0  0  0  0  0  0  0  0  0  0  0
    2.5520   64.4710   70.5630 C   0  0  0  0  0  0  0  0  0  0  0  0
    3.3410   59.3230   72.8360 C   0  0  0  0  0  0  0  0  0  0  0  0
    2.1020   59.4270   73.5780 N   0  0  0  0  0  0  0  0  0  0  0  0
    1.1620   58.3960   73.7400 C   0  0  0  0  0  0  0  0  0  0  0  0
    1.1660   57.1230   73.2010 C   0  0  0  0  0  0  0  0  0  0  0  0
    0.0990   56.2710   73.5190 C   0  0  0  0  0  0  0  0  0  0  0  0
   -0.9470   56.6970   74.3620 C   0  0  0  0  0  0  0  0  0  0  0  0
   -0.9450   57.9830   74.9030 C   0  0  0  0  0  0  0  0  0  0  0  0
    0.1190   58.8000   74.5730 C   0  0  0  0  0  0  0  0  0  0  0  0
    0.3980   60.1730   74.9920 C   0  0  0  0  0  0  0  0  0  0  0  0
   -0.2780   60.8640   75.7190 O   0  0  0  0  0  0  0  0  0  0  0  0
    1.7470   60.5420   74.3240 C   0  0  0  0  0  0  0  0  0  0  0  0
    2.3460   61.5850   74.4730 O   0  0  0  0  0  0  0  0  0  0  0  0
    2.0992   59.4407   71.0766 H   0  0  0  0  0  0  0  0  0  0  0  0
    3.8288   58.9719   70.7771 H   0  0  0  0  0  0  0  0  0  0  0  0
    0.6575   61.0931   71.3138 H   0  0  0  0  0  0  0  0  0  0  0  0
   -0.6028   63.2511   71.1006 H   0  0  0  0  0  0  0  0  0  0  0  0
    0.5934   65.3868   70.6315 H   0  0  0  0  0  0  0  0  0  0  0  0
    3.0940   65.4051   70.3541 H   0  0  0  0  0  0  0  0  0  0  0  0
    3.7330   58.3008   72.9426 H   0  0  0  0  0  0  0  0  0  0  0  0
    4.0426   60.0653   73.2443 H   0  0  0  0  0  0  0  0  0  0  0  0
    1.9814   56.7888   72.5427 H   0  0  0  0  0  0  0  0  0  0  0  0
    0.0779   55.2527   73.1035 H   0  0  0  0  0  0  0  0  0  0  0  0
   -1.7729   56.0090   74.5957 H   0  0  0  0  0  0  0  0  0  0  0  0
   -1.7539   58.3306   75.5624 H   0  0  0  0  0  0  0  0  0  0  0  0
  3  2  2  0
  4  3  1  0
  5  4  2  0
  6  4  1  0
  7  6  2  0
  8  7  1  0
  8  3  1  0
  8  1  1  0
  9  7  1  0
 10  9  2  0
 11 10  1  0
 12 11  2  0
 12  6  1  0
 13  1  1  0
 14 13  1  0
 15 14  1  0
 16 15  2  0
 17 16  1  0
 18 17  2  0
 19 18  1  0
 20 15  1  0
 20 19  2  0
 21 20  1  0
 22 21  2  0
 23 21  1  0
 23 14  1  0
 24 23  2  0
  1 25  1  0
  1 26  1  0
  9 27  1  0
 10 28  1  0
 11 29  1  0
 12 30  1  0
 13 31  1  0
 13 32  1  0
 16 33  1  0
 17 34  1  0
 18 35  1  0
 19 36  1  0
M  END
>  <score>  (9) 
-8.61

$$$$
