=
     RDKit          3D

 53 58  0  0  0  0  0  0  0  0999 V2000
    3.4440   60.8170   71.4850 C   0  0  0  0  0  0  0  0  0  0  0  0
    3.4270   61.6640   70.3880 C   0  0  0  0  0  0  0  0  0  0  0  0
    3.9650   61.4430   69.1570 O   0  0  0  0  0  0  0  0  0  0  0  0
    3.6320   62.6610   68.4620 C   0  0  0  0  0  0  0  0  0  0  0  0
    2.9060   63.5920   69.2830 O   0  0  0  0  0  0  0  0  0  0  0  0
    2.8210   62.8980   70.4510 C   0  0  0  0  0  0  0  0  0  0  0  0
    2.2030   63.3650   71.5910 C   0  0  0  0  0  0  0  0  0  0  0  0
    2.1880   62.5390   72.7230 C   0  0  0  0  0  0  0  0  0  0  0  0
    2.8140   61.2620   72.6740 C   0  0  0  0  0  0  0  0  0  0  0  0
    2.7790   60.3450   73.8860 C   0  0  2  0  0  0  0  0  0  0  0  0
    1.7120   59.2340   73.7130 C   0  0  0  0  0  0  0  0  0  0  0  0
    1.2940   58.5140   74.9800 C   0  0  0  0  0  0  0  0  0  0  0  0
    1.6790   59.0200   76.2380 C   0  0  0  0  0  0  0  0  0  0  0  0
    2.5690   60.2240   76.3580 C   0  0  0  0  0  0  0  0  0  0  0  0
    2.5420   61.1280   75.1640 N   0  0  2  0  0  4  0  0  0  0  0  0
    1.3280   62.0110   75.0670 C   0  0  0  0  0  0  0  0  0  0  0  0
    1.5620   63.0710   73.9920 C   0  0  0  0  0  0  0  0  0  0  0  0
    1.2740   58.3630   77.4140 C   0  0  0  0  0  0  0  0  0  0  0  0
    0.4620   57.2310   77.3580 C   0  0  0  0  0  0  0  0  0  0  0  0
    0.0510   56.7480   76.1070 C   0  0  0  0  0  0  0  0  0  0  0  0
    0.4710   57.3640   74.9170 C   0  0  0  0  0  0  0  0  0  0  0  0
   -0.0180   56.7880   73.6140 C   0  0  0  0  0  0  0  0  0  0  0  0
   -0.4120   55.4350   73.7680 O   0  0  0  0  0  0  0  0  0  0  0  0
   -1.3280   55.3230   74.8460 C   0  0  0  0  0  0  0  0  0  0  0  0
   -0.7550   55.6370   76.1090 O   0  0  0  0  0  0  0  0  0  0  0  0
    3.4960   58.5550   70.7100 C   0  0  0  0  0  0  0  0  0  0  0  0
    4.0100   59.5750   71.5620 O   0  0  0  0  0  0  0  0  0  0  0  0
   -0.0030   56.5500   78.4520 O   0  0  0  0  0  0  0  0  0  0  0  0
    0.9410   55.8710   79.2680 C   0  0  0  0  0  0  0  0  0  0  0  0
    4.5638   63.1403   68.1273 H   0  0  0  0  0  0  0  0  0  0  0  0
    2.9837   62.3917   67.6151 H   0  0  0  0  0  0  0  0  0  0  0  0
    1.7339   64.3598   71.6118 H   0  0  0  0  0  0  0  0  0  0  0  0
    3.7642   59.8623   73.9659 H   0  0  0  0  0  0  0  0  0  0  0  0
    0.8140   59.6944   73.2752 H   0  0  0  0  0  0  0  0  0  0  0  0
    2.1799   58.4686   73.0764 H   0  0  0  0  0  0  0  0  0  0  0  0
    2.2493   60.8033   77.2368 H   0  0  0  0  0  0  0  0  0  0  0  0
    3.5990   59.8485   76.4473 H   0  0  0  0  0  0  0  0  0  0  0  0
    3.3232   61.7855   75.2993 H   0  0  0  0  0  0  0  0  0  0  0  0
    0.4513   61.4029   74.7993 H   0  0  0  0  0  0  0  0  0  0  0  0
    1.1489   62.5005   76.0357 H   0  0  0  0  0  0  0  0  0  0  0  0
    0.5921   63.5220   73.7354 H   0  0  0  0  0  0  0  0  0  0  0  0
    2.2717   63.7978   74.4140 H   0  0  0  0  0  0  0  0  0  0  0  0
    1.6023   58.7475   78.3909 H   0  0  0  0  0  0  0  0  0  0  0  0
   -0.8795   57.3750   73.2630 H   0  0  0  0  0  0  0  0  0  0  0  0
    0.8036   56.8309   72.8838 H   0  0  0  0  0  0  0  0  0  0  0  0
   -2.1672   56.0103   74.6633 H   0  0  0  0  0  0  0  0  0  0  0  0
   -1.6524   54.2728   74.8887 H   0  0  0  0  0  0  0  0  0  0  0  0
    3.0847   57.7388   71.3221 H   0  0  0  0  0  0  0  0  0  0  0  0
    2.7012   58.9736   70.0751 H   0  0  0  0  0  0  0  0  0  0  0  0
    4.3053   58.1652   70.0751 H   0  0  0  0  0  0  0  0  0  0  0  0
    0.7010   56.0436   80.3275 H   0  0  0  0  0  0  0  0  0  0  0  0
    0.9020   54.7927   79.0542 H   0  0  0  0  0  0  0  0  0  0  0  0
    1.9509   56.2509   79.0542 H   0  0  0  0  0  0  0  0  0  0  0  0
  2  1  2  0
  3  2  1  0
  4  3  1  0
  5  4  1  0
  6  5  1  0
  6  2  1  0
  7  6  2  0
  8  7  1  0
  9  8  2  0
  9  1  1  0
 10  9  1  0
 11 10  1  0
 12 11  1  0
 13 12  2  0
 14 13  1  0
 15 10  1  0
 15 14  1  0
 16 15  1  0
 17 16  1  0
 17  8  1  0
 18 13  1  0
 19 18  2  0
 20 19  1  0
 21 20  2  0
 21 12  1  0
 22 21  1  0
 23 22  1  0
 24 23  1  0
 25 24  1  0
 25 20  1  0
 27 26  1  0
 27  1  1  0
 28 19  1  0
 29 28  1  0
  4 30  1  0
  4 31  1  0
  7 32  1  0
 10 33  1  1
 11 34  1  0
 11 35  1  0
 14 36  1  0
 14 37  1  0
 15 38  1  1
 16 39  1  0
 16 40  1  0
 17 41  1  0
 17 42  1  0
 18 43  1  0
 22 44  1  0
 22 45  1  0
 24 46  1  0
 24 47  1  0
 26 48  1  0
 26 49  1  0
 26 50  1  0
 29 51  1  0
 29 52  1  0
 29 53  1  0
M  CHG  1  15   1
M  END
>  <score>  (1) 
-8.105

$$$$
=
     RDKit          3D

 53 58  0  0  0  0  0  0  0  0999 V2000
    0.6930   57.3260   74.2180 C   0  0  0  0  0  0  0  0  0  0  0  0
    0.8620   56.4290   75.2600 C   0  0  0  0  0  0  0  0  0  0  0  0
    1.2820   55.1350   75.1870 O   0  0  0  0  0  0  0  0  0  0  0  0
    1.2540   54.7320   76.5710 C   0  0  0  0  0  0  0  0  0  0  0  0
    0.8150   55.7830   77.4490 O   0  0  0  0  0  0  0  0  0  0  0  0
    0.5980   56.7920   76.5610 C   0  0  0  0  0  0  0  0  0  0  0  0
    0.1530   58.0500   76.9060 C   0  0  0  0  0  0  0  0  0  0  0  0
   -0.0250   58.9940   75.8850 C   0  0  0  0  0  0  0  0  0  0  0  0
    0.2410   58.6310   74.5340 C   0  0  0  0  0  0  0  0  0  0  0  0
    0.0810   59.6550   73.4220 C   0  0  2  0  0  0  0  0  0  0  0  0
    1.4560   60.2160   72.9790 C   0  0  0  0  0  0  0  0  0  0  0  0
    1.4200   61.5070   72.1850 C   0  0  0  0  0  0  0  0  0  0  0  0
    0.2230   62.2470   72.0970 C   0  0  0  0  0  0  0  0  0  0  0  0
   -1.0530   61.7470   72.7110 C   0  0  0  0  0  0  0  0  0  0  0  0
   -0.8540   60.7760   73.8340 N   0  0  2  0  0  4  0  0  0  0  0  0
   -0.4470   61.3980   75.1420 C   0  0  0  0  0  0  0  0  0  0  0  0
   -0.5670   60.3550   76.2530 C   0  0  0  0  0  0  0  0  0  0  0  0
    0.1950   63.4550   71.3770 C   0  0  0  0  0  0  0  0  0  0  0  0
    1.3480   63.9550   70.7740 C   0  0  0  0  0  0  0  0  0  0  0  0
    2.5460   63.2360   70.8910 C   0  0  0  0  0  0  0  0  0  0  0  0
    2.5930   62.0090   71.5730 C   0  0  0  0  0  0  0  0  0  0  0  0
    3.9190   61.3000   71.6590 C   0  0  0  0  0  0  0  0  0  0  0  0
    4.7940   61.7230   70.6260 O   0  0  0  0  0  0  0  0  0  0  0  0
    4.8790   63.1390   70.6210 C   0  0  0  0  0  0  0  0  0  0  0  0
    3.6530   63.7770   70.2860 O   0  0  0  0  0  0  0  0  0  0  0  0
    2.2550   56.8860   72.4610 C   0  0  0  0  0  0  0  0  0  0  0  0
    0.9110   57.0990   72.8880 O   0  0  0  0  0  0  0  0  0  0  0  0
    1.4170   65.1360   70.0820 O   0  0  0  0  0  0  0  0  0  0  0  0
    0.3800   66.0870   70.2760 C   0  0  0  0  0  0  0  0  0  0  0  0
    0.5682   53.8782   76.6746 H   0  0  0  0  0  0  0  0  0  0  0  0
    2.2819   54.4673   76.8596 H   0  0  0  0  0  0  0  0  0  0  0  0
   -0.0570   58.3065   77.9549 H   0  0  0  0  0  0  0  0  0  0  0  0
   -0.3707   59.1416   72.5604 H   0  0  0  0  0  0  0  0  0  0  0  0
    2.0549   60.3938   73.8843 H   0  0  0  0  0  0  0  0  0  0  0  0
    1.8808   59.4613   72.3008 H   0  0  0  0  0  0  0  0  0  0  0  0
   -1.6120   62.6119   73.0976 H   0  0  0  0  0  0  0  0  0  0  0  0
   -1.5952   61.2087   71.9196 H   0  0  0  0  0  0  0  0  0  0  0  0
   -1.7851   60.3776   74.0216 H   0  0  0  0  0  0  0  0  0  0  0  0
    0.5942   61.7466   75.0755 H   0  0  0  0  0  0  0  0  0  0  0  0
   -1.1027   62.2527   75.3648 H   0  0  0  0  0  0  0  0  0  0  0  0
   -0.0142   60.7208   77.1308 H   0  0  0  0  0  0  0  0  0  0  0  0
   -1.6414   60.2249   76.4501 H   0  0  0  0  0  0  0  0  0  0  0  0
   -0.7492   64.0124   71.2886 H   0  0  0  0  0  0  0  0  0  0  0  0
    4.3809   61.5195   72.6329 H   0  0  0  0  0  0  0  0  0  0  0  0
    3.7446   60.2197   71.5475 H   0  0  0  0  0  0  0  0  0  0  0  0
    5.1837   63.4736   71.6236 H   0  0  0  0  0  0  0  0  0  0  0  0
    5.6117   63.4177   69.8493 H   0  0  0  0  0  0  0  0  0  0  0  0
    2.9072   56.7826   73.3407 H   0  0  0  0  0  0  0  0  0  0  0  0
    2.3066   55.9685   71.8565 H   0  0  0  0  0  0  0  0  0  0  0  0
    2.5878   57.7426   71.8565 H   0  0  0  0  0  0  0  0  0  0  0  0
    0.2167   66.2368   71.3535 H   0  0  0  0  0  0  0  0  0  0  0  0
    0.6671   67.0423   69.8124 H   0  0  0  0  0  0  0  0  0  0  0  0
   -0.5469   65.7184   69.8124 H   0  0  0  0  0  0  0  0  0  0  0  0
  2  1  2  0
  3  2  1  0
  4  3  1  0
  5  4  1  0
  6  5  1  0
  6  2  1  0
  7  6  2  0
  8  7  1  0
  9  8  2  0
  9  1  1  0
 10  9  1  0
 11 10  1  0
 12 11  1  0
 13 12  2  0
 14 13  1  0
 15 10  1  0
 15 14  1  0
 16 15  1  0
 17 16  1  0
 17  8  1  0
 18 13  1  0
 19 18  2  0
 20 19  1  0
 21 20  2  0
 21 12  1  0
 22 21  1  0
 23 22  1  0
 24 23  1  0
 25 24  1  0
 25 20  1  0
 27 26  1  0
 27  1  1  0
 28 19  1  0
 29 28  1  0
  4 30  1  0
  4 31  1  0
  7 32  1  0
 10 33  1  6
 11 34  1  0
 11 35  1  0
 14 36  1  0
 14 37  1  0
 15 38  1  1
 16 39  1  0
 16 40  1  0
 17 41  1  0
 17 42  1  0
 18 43  1  0
 22 44  1  0
 22 45  1  0
 24 46  1  0
 24 47  1  0
 26 48  1  0
 26 49  1  0
 26 50  1  0
 29 51  1  0
 29 52  1  0
 29 53  1  0
M  CHG  1  15   1
M  END
>  <score>  (2) 
-8.093

$$$$
=
     RDKit          3D

 53 58  0  0  0  0  0  0  0  0999 V2000
    2.6810   58.1710   76.5020 C   0  0  0  0  0  0  0  0  0  0  0  0
    2.1620   57.3640   77.5020 C   0  0  0  0  0  0  0  0  0  0  0  0
    2.2380   57.5520   78.8480 O   0  0  0  0  0  0  0  0  0  0  0  0
    1.5270   56.4040   79.3520 C   0  0  0  0  0  0  0  0  0  0  0  0
    1.0400   55.5450   78.3060 O   0  0  0  0  0  0  0  0  0  0  0  0
    1.4720   56.2110   77.2000 C   0  0  0  0  0  0  0  0  0  0  0  0
    1.2590   55.7910   75.9050 C   0  0  0  0  0  0  0  0  0  0  0  0
    1.7590   56.5790   74.8600 C   0  0  0  0  0  0  0  0  0  0  0  0
    2.4770   57.7720   75.1570 C   0  0  0  0  0  0  0  0  0  0  0  0
    2.9990   58.6510   74.0320 C   0  0  2  0  0  0  0  0  0  0  0  0
    2.0890   59.8880   73.8250 C   0  0  0  0  0  0  0  0  0  0  0  0
    2.2520   60.6170   72.5050 C   0  0  0  0  0  0  0  0  0  0  0  0
    3.0030   60.0320   71.4650 C   0  0  0  0  0  0  0  0  0  0  0  0
    3.7190   58.7260   71.6560 C   0  0  0  0  0  0  0  0  0  0  0  0
    3.1480   57.8670   72.7420 N   0  0  2  0  0  4  0  0  0  0  0  0
    1.8820   57.1410   72.3740 C   0  0  0  0  0  0  0  0  0  0  0  0
    1.5770   56.0910   73.4420 C   0  0  0  0  0  0  0  0  0  0  0  0
    3.1380   60.7000   70.2340 C   0  0  0  0  0  0  0  0  0  0  0  0
    2.5080   61.9230   70.0120 C   0  0  0  0  0  0  0  0  0  0  0  0
    1.7330   62.4880   71.0350 C   0  0  0  0  0  0  0  0  0  0  0  0
    1.6120   61.8600   72.2850 C   0  0  0  0  0  0  0  0  0  0  0  0
    0.7570   62.5280   73.3300 C   0  0  0  0  0  0  0  0  0  0  0  0
    0.6170   63.9140   73.0670 O   0  0  0  0  0  0  0  0  0  0  0  0
    0.1770   64.1060   71.7320 C   0  0  0  0  0  0  0  0  0  0  0  0
    1.1270   63.6880   70.7590 O   0  0  0  0  0  0  0  0  0  0  0  0
    2.7490   60.4100   77.3390 C   0  0  0  0  0  0  0  0  0  0  0  0
    3.3860   59.3310   76.6580 O   0  0  0  0  0  0  0  0  0  0  0  0
    2.5610   62.6250   68.8360 O   0  0  0  0  0  0  0  0  0  0  0  0
    3.8390   62.9450   68.3040 C   0  0  0  0  0  0  0  0  0  0  0  0
    2.2062   55.8246   79.9946 H   0  0  0  0  0  0  0  0  0  0  0  0
    0.6538   56.7743   79.9091 H   0  0  0  0  0  0  0  0  0  0  0  0
    0.7103   54.8606   75.6969 H   0  0  0  0  0  0  0  0  0  0  0  0
    3.9978   59.0071   74.3247 H   0  0  0  0  0  0  0  0  0  0  0  0
    1.0437   59.5534   73.8984 H   0  0  0  0  0  0  0  0  0  0  0  0
    2.3852   60.6086   74.6015 H   0  0  0  0  0  0  0  0  0  0  0  0
    3.6714   58.1649   70.7111 H   0  0  0  0  0  0  0  0  0  0  0  0
    4.7491   58.9705   71.9544 H   0  0  0  0  0  0  0  0  0  0  0  0
    3.8374   57.1160   72.8892 H   0  0  0  0  0  0  0  0  0  0  0  0
    1.0502   57.8584   72.3151 H   0  0  0  0  0  0  0  0  0  0  0  0
    2.0077   56.6499   71.3978 H   0  0  0  0  0  0  0  0  0  0  0  0
    0.5327   55.7679   73.3198 H   0  0  0  0  0  0  0  0  0  0  0  0
    2.2965   55.2721   73.2947 H   0  0  0  0  0  0  0  0  0  0  0  0
    3.7486   60.2511   69.4367 H   0  0  0  0  0  0  0  0  0  0  0  0
   -0.2387   62.0605   73.3317 H   0  0  0  0  0  0  0  0  0  0  0  0
    1.2437   62.4061   74.3089 H   0  0  0  0  0  0  0  0  0  0  0  0
   -0.7495   63.5318   71.5841 H   0  0  0  0  0  0  0  0  0  0  0  0
    0.0229   65.1862   71.5927 H   0  0  0  0  0  0  0  0  0  0  0  0
    2.8370   60.2610   78.4253 H   0  0  0  0  0  0  0  0  0  0  0  0
    3.2328   61.3573   77.0585 H   0  0  0  0  0  0  0  0  0  0  0  0
    1.6859   60.4441   77.0585 H   0  0  0  0  0  0  0  0  0  0  0  0
    4.5455   63.1219   69.1284 H   0  0  0  0  0  0  0  0  0  0  0  0
    4.1986   62.1092   67.6859 H   0  0  0  0  0  0  0  0  0  0  0  0
    3.7623   63.8517   67.6859 H   0  0  0  0  0  0  0  0  0  0  0  0
  2  1  2  0
  3  2  1  0
  4  3  1  0
  5  4  1  0
  6  5  1  0
  6  2  1  0
  7  6  2  0
  8  7  1  0
  9  8  2  0
  9  1  1  0
 10  9  1  0
 11 10  1  0
 12 11  1  0
 13 12  2  0
 14 13  1  0
 15 10  1  0
 15 14  1  0
 16 15  1  0
 17 16  1  0
 17  8  1  0
 18 13  1  0
 19 18  2  0
 20 19  1  0
 21 20  2  0
 21 12  1  0
 22 21  1  0
 23 22  1  0
 24 23  1  0
 25 24  1  0
 25 20  1  0
 27 26  1  0
 27  1  1  0
 28 19  1  0
 29 28  1  0
  4 30  1  0
  4 31  1  0
  7 32  1  0
 10 33  1  1
 11 34  1  0
 11 35  1  0
 14 36  1  0
 14 37  1  0
 15 38  1  1
 16 39  1  0
 16 40  1  0
 17 41  1  0
 17 42  1  0
 18 43  1  0
 22 44  1  0
 22 45  1  0
 24 46  1  0
 24 47  1  0
 26 48  1  0
 26 49  1  0
 26 50  1  0
 29 51  1  0
 29 52  1  0
 29 53  1  0
M  CHG  1  15   1
M  END
>  <score>  (3) 
-8.079

$$$$
=
     RDKit          3D

 53 58  0  0  0  0  0  0  0  0999 V2000
    2.6580   61.4790   72.6760 C   0  0  0  0  0  0  0  0  0  0  0  0
    2.8600   62.3100   71.5860 C   0  0  0  0  0  0  0  0  0  0  0  0
    4.0480   62.6950   71.0410 O   0  0  0  0  0  0  0  0  0  0  0  0
    3.6190   63.5410   69.9560 C   0  0  0  0  0  0  0  0  0  0  0  0
    2.1870   63.6540   69.8680 O   0  0  0  0  0  0  0  0  0  0  0  0
    1.8000   62.8640   70.9060 C   0  0  0  0  0  0  0  0  0  0  0  0
    0.4880   62.6340   71.2620 C   0  0  0  0  0  0  0  0  0  0  0  0
    0.2340   61.7930   72.3530 C   0  0  0  0  0  0  0  0  0  0  0  0
    1.3210   61.2160   73.0690 C   0  0  0  0  0  0  0  0  0  0  0  0
    1.0580   60.2790   74.2360 C   0  0  2  0  0  0  0  0  0  0  0  0
    1.2480   58.8000   73.8170 C   0  0  0  0  0  0  0  0  0  0  0  0
    0.6380   57.7650   74.7420 C   0  0  0  0  0  0  0  0  0  0  0  0
   -0.2490   58.1670   75.7610 C   0  0  0  0  0  0  0  0  0  0  0  0
   -0.5500   59.6170   76.0100 C   0  0  0  0  0  0  0  0  0  0  0  0
   -0.3230   60.5020   74.8230 N   0  0  2  0  0  4  0  0  0  0  0  0
   -1.3990   60.4390   73.7730 C   0  0  0  0  0  0  0  0  0  0  0  0
   -1.2000   61.5850   72.7810 C   0  0  0  0  0  0  0  0  0  0  0  0
   -0.8300   57.2050   76.6070 C   0  0  0  0  0  0  0  0  0  0  0  0
   -0.5700   55.8470   76.4300 C   0  0  0  0  0  0  0  0  0  0  0  0
    0.2850   55.4450   75.3940 C   0  0  0  0  0  0  0  0  0  0  0  0
    0.9070   56.3870   74.5600 C   0  0  0  0  0  0  0  0  0  0  0  0
    1.8080   55.8750   73.4660 C   0  0  0  0  0  0  0  0  0  0  0  0
    2.2780   54.5710   73.7590 O   0  0  0  0  0  0  0  0  0  0  0  0
    1.1820   53.7240   74.0680 C   0  0  0  0  0  0  0  0  0  0  0  0
    0.5000   54.0960   75.2590 O   0  0  0  0  0  0  0  0  0  0  0  0
    4.5170   59.9790   72.7910 C   0  0  0  0  0  0  0  0  0  0  0  0
    3.6130   60.8700   73.4410 O   0  0  0  0  0  0  0  0  0  0  0  0
   -1.1160   54.8430   77.1870 O   0  0  0  0  0  0  0  0  0  0  0  0
   -2.5140   54.6130   77.0840 C   0  0  0  0  0  0  0  0  0  0  0  0
    4.0420   64.5454   70.1053 H   0  0  0  0  0  0  0  0  0  0  0  0
    3.9727   63.0835   69.0203 H   0  0  0  0  0  0  0  0  0  0  0  0
   -0.3379   63.0989   70.7037 H   0  0  0  0  0  0  0  0  0  0  0  0
    1.7961   60.5087   75.0186 H   0  0  0  0  0  0  0  0  0  0  0  0
    0.7961   58.6709   72.8225 H   0  0  0  0  0  0  0  0  0  0  0  0
    2.3329   58.6204   73.8443 H   0  0  0  0  0  0  0  0  0  0  0  0
   -1.6050   59.7043   76.3091 H   0  0  0  0  0  0  0  0  0  0  0  0
    0.1436   59.9545   76.7942 H   0  0  0  0  0  0  0  0  0  0  0  0
   -0.3770   61.4651   75.1841 H   0  0  0  0  0  0  0  0  0  0  0  0
   -1.3389   59.4777   73.2417 H   0  0  0  0  0  0  0  0  0  0  0  0
   -2.3864   60.5294   74.2494 H   0  0  0  0  0  0  0  0  0  0  0  0
   -1.8002   61.3726   71.8840 H   0  0  0  0  0  0  0  0  0  0  0  0
   -1.5126   62.5057   73.2955 H   0  0  0  0  0  0  0  0  0  0  0  0
   -1.4981   57.5285   77.4187 H   0  0  0  0  0  0  0  0  0  0  0  0
    1.2463   55.8501   72.5205 H   0  0  0  0  0  0  0  0  0  0  0  0
    2.6744   56.5478   73.3843 H   0  0  0  0  0  0  0  0  0  0  0  0
    0.4680   53.7584   73.2319 H   0  0  0  0  0  0  0  0  0  0  0  0
    1.5868   52.7137   74.2272 H   0  0  0  0  0  0  0  0  0  0  0  0
    5.0861   59.4181   73.5470 H   0  0  0  0  0  0  0  0  0  0  0  0
    3.9506   59.2762   72.1623 H   0  0  0  0  0  0  0  0  0  0  0  0
    5.2116   60.5555   72.1623 H   0  0  0  0  0  0  0  0  0  0  0  0
   -2.9490   54.5414   78.0918 H   0  0  0  0  0  0  0  0  0  0  0  0
   -2.9836   55.4460   76.5402 H   0  0  0  0  0  0  0  0  0  0  0  0
   -2.6919   53.6735   76.5402 H   0  0  0  0  0  0  0  0  0  0  0  0
  2  1  2  0
  3  2  1  0
  4  3  1  0
  5  4  1  0
  6  5  1  0
  6  2  1  0
  7  6  2  0
  8  7  1  0
  9  8  2  0
  9  1  1  0
 10  9  1  0
 11 10  1  0
 12 11  1  0
 13 12  2  0
 14 13  1  0
 15 10  1  0
 15 14  1  0
 16 15  1  0
 17 16  1  0
 17  8  1  0
 18 13  1  0
 19 18  2  0
 20 19  1  0
 21 20  2  0
 21 12  1  0
 22 21  1  0
 23 22  1  0
 24 23  1  0
 25 24  1  0
 25 20  1  0
 27 26  1  0
 27  1  1  0
 28 19  1  0
 29 28  1  0
  4 30  1  0
  4 31  1  0
  7 32  1  0
 10 33  1  1
 11 34  1  0
 11 35  1  0
 14 36  1  0
 14 37  1  0
 15 38  1  1
 16 39  1  0
 16 40  1  0
 17 41  1  0
 17 42  1  0
 18 43  1  0
 22 44  1  0
 22 45  1  0
 24 46  1  0
 24 47  1  0
 26 48  1  0
 26 49  1  0
 26 50  1  0
 29 51  1  0
 29 52  1  0
 29 53  1  0
M  CHG  1  15   1
M  END
>  <score>  (4) 
-7.788

$$$$
=
     RDKit          3D

 53 58  0  0  0  0  0  0  0  0999 V2000
   -3.0890   61.9420   75.3780 C   0  0  0  0  0  0  0  0  0  0  0  0
   -4.4350   61.6140   75.4120 C   0  0  0  0  0  0  0  0  0  0  0  0
   -5.4860   62.4360   75.6870 O   0  0  0  0  0  0  0  0  0  0  0  0
   -6.6070   61.5370   75.5720 C   0  0  0  0  0  0  0  0  0  0  0  0
   -6.2140   60.1950   75.2350 O   0  0  0  0  0  0  0  0  0  0  0  0
   -4.8630   60.3320   75.1530 C   0  0  0  0  0  0  0  0  0  0  0  0
   -3.9930   59.3060   74.8500 C   0  0  0  0  0  0  0  0  0  0  0  0
   -2.6220   59.5920   74.7970 C   0  0  0  0  0  0  0  0  0  0  0  0
   -2.1650   60.9130   75.0660 C   0  0  0  0  0  0  0  0  0  0  0  0
   -0.6840   61.2430   74.9810 C   0  0  2  0  0  0  0  0  0  0  0  0
   -0.3500   61.9730   73.6560 C   0  0  0  0  0  0  0  0  0  0  0  0
    1.1140   61.9970   73.2630 C   0  0  0  0  0  0  0  0  0  0  0  0
    2.0400   61.1840   73.9460 C   0  0  0  0  0  0  0  0  0  0  0  0
    1.6270   60.3410   75.1190 C   0  0  0  0  0  0  0  0  0  0  0  0
    0.1690   59.9980   75.1430 N   0  0  2  0  0  4  0  0  0  0  0  0
   -0.2400   58.9070   74.1900 C   0  0  0  0  0  0  0  0  0  0  0  0
   -1.6620   58.4580   74.5220 C   0  0  0  0  0  0  0  0  0  0  0  0
    3.3950   61.1910   73.5690 C   0  0  0  0  0  0  0  0  0  0  0  0
    3.8350   61.9700   72.4990 C   0  0  0  0  0  0  0  0  0  0  0  0
    2.9070   62.7520   71.7970 C   0  0  0  0  0  0  0  0  0  0  0  0
    1.5550   62.7900   72.1770 C   0  0  0  0  0  0  0  0  0  0  0  0
    0.6200   63.6520   71.3690 C   0  0  0  0  0  0  0  0  0  0  0  0
    1.3280   64.6640   70.6740 O   0  0  0  0  0  0  0  0  0  0  0  0
    2.3880   64.0830   69.9310 C   0  0  0  0  0  0  0  0  0  0  0  0
    3.3910   63.4910   70.7470 O   0  0  0  0  0  0  0  0  0  0  0  0
   -2.5290   63.6450   76.9610 C   0  0  0  0  0  0  0  0  0  0  0  0
   -2.5300   63.1650   75.6180 O   0  0  0  0  0  0  0  0  0  0  0  0
    5.1270   62.0130   72.0450 O   0  0  0  0  0  0  0  0  0  0  0  0
    5.6560   60.8540   71.4170 C   0  0  0  0  0  0  0  0  0  0  0  0
   -7.1404   61.5158   76.5338 H   0  0  0  0  0  0  0  0  0  0  0  0
   -7.2469   61.9086   74.7581 H   0  0  0  0  0  0  0  0  0  0  0  0
   -4.3653   58.2895   74.6550 H   0  0  0  0  0  0  0  0  0  0  0  0
   -0.4475   61.9229   75.8127 H   0  0  0  0  0  0  0  0  0  0  0  0
   -0.9076   61.4766   72.8481 H   0  0  0  0  0  0  0  0  0  0  0  0
   -0.6320   63.0241   73.8165 H   0  0  0  0  0  0  0  0  0  0  0  0
    2.2019   59.4036   75.0901 H   0  0  0  0  0  0  0  0  0  0  0  0
    1.8278   60.9351   76.0227 H   0  0  0  0  0  0  0  0  0  0  0  0
   -0.0034   59.5975   76.0762 H   0  0  0  0  0  0  0  0  0  0  0  0
   -0.2056   59.2874   73.1584 H   0  0  0  0  0  0  0  0  0  0  0  0
    0.4488   58.0548   74.2858 H   0  0  0  0  0  0  0  0  0  0  0  0
   -2.0481   57.8781   73.6708 H   0  0  0  0  0  0  0  0  0  0  0  0
   -1.5985   57.8666   75.4473 H   0  0  0  0  0  0  0  0  0  0  0  0
    4.1167   60.5745   74.1249 H   0  0  0  0  0  0  0  0  0  0  0  0
    0.0891   63.0210   70.6410 H   0  0  0  0  0  0  0  0  0  0  0  0
   -0.0912   64.1336   72.0562 H   0  0  0  0  0  0  0  0  0  0  0  0
    1.9689   63.3061   69.2747 H   0  0  0  0  0  0  0  0  0  0  0  0
    2.8681   64.8929   69.3622 H   0  0  0  0  0  0  0  0  0  0  0  0
   -2.5308   62.7918   77.6553 H   0  0  0  0  0  0  0  0  0  0  0  0
   -1.6296   64.2548   77.1318 H   0  0  0  0  0  0  0  0  0  0  0  0
   -3.4259   64.2586   77.1318 H   0  0  0  0  0  0  0  0  0  0  0  0
    5.9829   60.1377   72.1851 H   0  0  0  0  0  0  0  0  0  0  0  0
    4.8803   60.3904   70.7898 H   0  0  0  0  0  0  0  0  0  0  0  0
    6.5144   61.1363   70.7898 H   0  0  0  0  0  0  0  0  0  0  0  0
  2  1  2  0
  3  2  1  0
  4  3  1  0
  5  4  1  0
  6  5  1  0
  6  2  1  0
  7  6  2  0
  8  7  1  0
  9  8  2  0
  9  1  1  0
 10  9  1  0
 11 10  1  0
 12 11  1  0
 13 12  2  0
 14 13  1  0
 15 10  1  0
 15 14  1  0
 16 15  1  0
 17 16  1  0
 17  8  1  0
 18 13  1  0
 19 18  2  0
 20 19  1  0
 21 20  2  0
 21 12  1  0
 22 21  1  0
 23 22  1  0
 24 23  1  0
 25 24  1  0
 25 20  1  0
 27 26  1  0
 27  1  1  0
 28 19  1  0
 29 28  1  0
  4 30  1  0
  4 31  1  0
  7 32  1  0
 10 33  1  1
 11 34  1  0
 11 35  1  0
 14 36  1  0
 14 37  1  0
 15 38  1  1
 16 39  1  0
 16 40  1  0
 17 41  1  0
 17 42  1  0
 18 43  1  0
 22 44  1  0
 22 45  1  0
 24 46  1  0
 24 47  1  0
 26 48  1  0
 26 49  1  0
 26 50  1  0
 29 51  1  0
 29 52  1  0
 29 53  1  0
M  CHG  1  15   1
M  END
>  <score>  (5) 
-7.461

$$$$
=
     RDKit          3D

 53 58  0  0  0  0  0  0  0  0999 V2000
    2.0810   61.2470   72.2300 C   0  0  0  0  0  0  0  0  0  0  0  0
    2.6990   62.1100   71.3380 C   0  0  0  0  0  0  0  0  0  0  0  0
    2.6390   63.4710   71.3190 O   0  0  0  0  0  0  0  0  0  0  0  0
    3.4670   63.7900   70.1830 C   0  0  0  0  0  0  0  0  0  0  0  0
    4.0060   62.6220   69.5390 O   0  0  0  0  0  0  0  0  0  0  0  0
    3.4850   61.6330   70.3150 C   0  0  0  0  0  0  0  0  0  0  0  0
    3.7040   60.2870   70.1110 C   0  0  0  0  0  0  0  0  0  0  0  0
    3.1060   59.3770   70.9930 C   0  0  0  0  0  0  0  0  0  0  0  0
    2.2870   59.8560   72.0540 C   0  0  0  0  0  0  0  0  0  0  0  0
    1.6570   58.8800   73.0350 C   0  0  2  0  0  0  0  0  0  0  0  0
    2.4410   58.8480   74.3710 C   0  0  0  0  0  0  0  0  0  0  0  0
    2.1770   57.6540   75.2670 C   0  0  0  0  0  0  0  0  0  0  0  0
    1.4590   56.5470   74.7710 C   0  0  0  0  0  0  0  0  0  0  0  0
    0.8730   56.5490   73.3880 C   0  0  0  0  0  0  0  0  0  0  0  0
    1.5490   57.4890   72.4370 N   0  0  2  0  0  4  0  0  0  0  0  0
    2.8680   57.0030   71.8990 C   0  0  0  0  0  0  0  0  0  0  0  0
    3.2970   57.9000   70.7380 C   0  0  0  0  0  0  0  0  0  0  0  0
    1.2300   55.4300   75.5950 C   0  0  0  0  0  0  0  0  0  0  0  0
    1.7370   55.3850   76.8930 C   0  0  0  0  0  0  0  0  0  0  0  0
    2.4810   56.4720   77.3740 C   0  0  0  0  0  0  0  0  0  0  0  0
    2.6920   57.6130   76.5840 C   0  0  0  0  0  0  0  0  0  0  0  0
    3.5060   58.7370   77.1710 C   0  0  0  0  0  0  0  0  0  0  0  0
    3.5100   58.6810   78.5870 O   0  0  0  0  0  0  0  0  0  0  0  0
    3.8950   57.3840   79.0150 C   0  0  0  0  0  0  0  0  0  0  0  0
    2.9650   56.3710   78.6540 O   0  0  0  0  0  0  0  0  0  0  0  0
   -0.0440   62.0410   72.9890 C   0  0  0  0  0  0  0  0  0  0  0  0
    1.2750   61.5820   73.2810 O   0  0  0  0  0  0  0  0  0  0  0  0
    1.5890   54.3270   77.7520 O   0  0  0  0  0  0  0  0  0  0  0  0
    1.2140   53.0700   77.2060 C   0  0  0  0  0  0  0  0  0  0  0  0
    2.8615   64.3461   69.4522 H   0  0  0  0  0  0  0  0  0  0  0  0
    4.3154   64.3867   70.5494 H   0  0  0  0  0  0  0  0  0  0  0  0
    4.3314   59.9369   69.2781 H   0  0  0  0  0  0  0  0  0  0  0  0
    0.6375   59.2343   73.2473 H   0  0  0  0  0  0  0  0  0  0  0  0
    3.5146   58.8586   74.1317 H   0  0  0  0  0  0  0  0  0  0  0  0
    2.0980   59.7262   74.9377 H   0  0  0  0  0  0  0  0  0  0  0  0
    0.9492   55.5306   72.9794 H   0  0  0  0  0  0  0  0  0  0  0  0
   -0.1677   56.8916   73.4857 H   0  0  0  0  0  0  0  0  0  0  0  0
    0.9371   57.5308   71.6095 H   0  0  0  0  0  0  0  0  0  0  0  0
    3.6269   57.0421   72.6943 H   0  0  0  0  0  0  0  0  0  0  0  0
    2.7646   55.9660   71.5469 H   0  0  0  0  0  0  0  0  0  0  0  0
    4.3636   57.7195   70.5385 H   0  0  0  0  0  0  0  0  0  0  0  0
    2.6538   57.6409   69.8841 H   0  0  0  0  0  0  0  0  0  0  0  0
    0.6440   54.5821   75.2107 H   0  0  0  0  0  0  0  0  0  0  0  0
    4.5407   58.6595   76.8058 H   0  0  0  0  0  0  0  0  0  0  0  0
    3.0561   59.6918   76.8612 H   0  0  0  0  0  0  0  0  0  0  0  0
    4.8677   57.1418   78.5620 H   0  0  0  0  0  0  0  0  0  0  0  0
    3.9418   57.4052   80.1138 H   0  0  0  0  0  0  0  0  0  0  0  0
   -0.5834   62.2287   73.9291 H   0  0  0  0  0  0  0  0  0  0  0  0
    0.0124   62.9723   72.4064 H   0  0  0  0  0  0  0  0  0  0  0  0
   -0.5779   61.2758   72.4064 H   0  0  0  0  0  0  0  0  0  0  0  0
    1.0033   52.3637   78.0226 H   0  0  0  0  0  0  0  0  0  0  0  0
    0.3135   53.1933   76.5864 H   0  0  0  0  0  0  0  0  0  0  0  0
    2.0349   52.6798   76.5864 H   0  0  0  0  0  0  0  0  0  0  0  0
  2  1  2  0
  3  2  1  0
  4  3  1  0
  5  4  1  0
  6  5  1  0
  6  2  1  0
  7  6  2  0
  8  7  1  0
  9  8  2  0
  9  1  1  0
 10  9  1  0
 11 10  1  0
 12 11  1  0
 13 12  2  0
 14 13  1  0
 15 10  1  0
 15 14  1  0
 16 15  1  0
 17 16  1  0
 17  8  1  0
 18 13  1  0
 19 18  2  0
 20 19  1  0
 21 20  2  0
 21 12  1  0
 22 21  1  0
 23 22  1  0
 24 23  1  0
 25 24  1  0
 25 20  1  0
 27 26  1  0
 27  1  1  0
 28 19  1  0
 29 28  1  0
  4 30  1  0
  4 31  1  0
  7 32  1  0
 10 33  1  1
 11 34  1  0
 11 35  1  0
 14 36  1  0
 14 37  1  0
 15 38  1  6
 16 39  1  0
 16 40  1  0
 17 41  1  0
 17 42  1  0
 18 43  1  0
 22 44  1  0
 22 45  1  0
 24 46  1  0
 24 47  1  0
 26 48  1  0
 26 49  1  0
 26 50  1  0
 29 51  1  0
 29 52  1  0
 29 53  1  0
M  CHG  1  15   1
M  END
>  <score>  (6) 
-7.34

$$$$
=
     RDKit          3D

 53 58  0  0  0  0  0  0  0  0999 V2000
    1.6680   62.1210   72.1640 C   0  0  0  0  0  0  0  0  0  0  0  0
    1.1270   63.2480   71.5660 C   0  0  0  0  0  0  0  0  0  0  0  0
    1.0920   63.5520   70.2390 O   0  0  0  0  0  0  0  0  0  0  0  0
    0.4180   64.8260   70.2410 C   0  0  0  0  0  0  0  0  0  0  0  0
    0.0640   65.2680   71.5630 O   0  0  0  0  0  0  0  0  0  0  0  0
    0.5340   64.2370   72.3170 C   0  0  0  0  0  0  0  0  0  0  0  0
    0.4430   64.1730   73.6910 C   0  0  0  0  0  0  0  0  0  0  0  0
    0.9700   63.0480   74.3390 C   0  0  0  0  0  0  0  0  0  0  0  0
    1.5900   62.0190   73.5760 C   0  0  0  0  0  0  0  0  0  0  0  0
    2.1380   60.7790   74.2640 C   0  0  2  0  0  0  0  0  0  0  0  0
    1.1710   59.5790   74.1020 C   0  0  0  0  0  0  0  0  0  0  0  0
    1.3870   58.4210   75.0580 C   0  0  0  0  0  0  0  0  0  0  0  0
    2.2460   58.5720   76.1650 C   0  0  0  0  0  0  0  0  0  0  0  0
    3.0250   59.8370   76.3840 C   0  0  0  0  0  0  0  0  0  0  0  0
    2.4300   61.0450   75.7290 N   0  0  2  0  0  4  0  0  0  0  0  0
    1.2420   61.6300   76.4440 C   0  0  0  0  0  0  0  0  0  0  0  0
    0.9230   63.0010   75.8490 C   0  0  0  0  0  0  0  0  0  0  0  0
    2.4300   57.5040   77.0620 C   0  0  0  0  0  0  0  0  0  0  0  0
    1.7440   56.3020   76.8930 C   0  0  0  0  0  0  0  0  0  0  0  0
    0.8630   56.1650   75.8120 C   0  0  0  0  0  0  0  0  0  0  0  0
    0.6890   57.2020   74.8810 C   0  0  0  0  0  0  0  0  0  0  0  0
   -0.2800   56.9790   73.7490 C   0  0  0  0  0  0  0  0  0  0  0  0
   -0.4850   55.5960   73.5160 O   0  0  0  0  0  0  0  0  0  0  0  0
   -0.8360   54.9530   74.7310 C   0  0  0  0  0  0  0  0  0  0  0  0
    0.2070   54.9650   75.6980 O   0  0  0  0  0  0  0  0  0  0  0  0
    3.5780   61.2990   70.9820 C   0  0  0  0  0  0  0  0  0  0  0  0
    2.2870   61.0720   71.5440 O   0  0  0  0  0  0  0  0  0  0  0  0
    1.8410   55.2250   77.7350 O   0  0  0  0  0  0  0  0  0  0  0  0
    1.8710   55.4690   79.1340 C   0  0  0  0  0  0  0  0  0  0  0  0
    1.0822   65.5756   69.7861 H   0  0  0  0  0  0  0  0  0  0  0  0
   -0.5152   64.7075   69.6708 H   0  0  0  0  0  0  0  0  0  0  0  0
   -0.0309   64.9838   74.2637 H   0  0  0  0  0  0  0  0  0  0  0  0
    3.0880   60.5192   73.7741 H   0  0  0  0  0  0  0  0  0  0  0  0
    0.1458   59.9500   74.2480 H   0  0  0  0  0  0  0  0  0  0  0  0
    1.3629   59.1753   73.0969 H   0  0  0  0  0  0  0  0  0  0  0  0
    3.0818   60.0242   77.4665 H   0  0  0  0  0  0  0  0  0  0  0  0
    4.0132   59.6832   75.9258 H   0  0  0  0  0  0  0  0  0  0  0  0
    3.1514   61.7773   75.7944 H   0  0  0  0  0  0  0  0  0  0  0  0
    0.3745   60.9648   76.3215 H   0  0  0  0  0  0  0  0  0  0  0  0
    1.4702   61.7357   77.5149 H   0  0  0  0  0  0  0  0  0  0  0  0
   -0.0881   63.2902   76.1717 H   0  0  0  0  0  0  0  0  0  0  0  0
    1.6998   63.6907   76.2107 H   0  0  0  0  0  0  0  0  0  0  0  0
    3.1241   57.6187   77.9076 H   0  0  0  0  0  0  0  0  0  0  0  0
   -1.2426   57.4468   74.0030 H   0  0  0  0  0  0  0  0  0  0  0  0
    0.1400   57.4279   72.8368 H   0  0  0  0  0  0  0  0  0  0  0  0
   -1.7117   55.4651   75.1563 H   0  0  0  0  0  0  0  0  0  0  0  0
   -1.0457   53.8999   74.4924 H   0  0  0  0  0  0  0  0  0  0  0  0
    4.3124   61.4281   71.7907 H   0  0  0  0  0  0  0  0  0  0  0  0
    3.8642   60.4374   70.3609 H   0  0  0  0  0  0  0  0  0  0  0  0
    3.5531   62.2065   70.3609 H   0  0  0  0  0  0  0  0  0  0  0  0
    1.7541   54.5182   79.6746 H   0  0  0  0  0  0  0  0  0  0  0  0
    2.8325   55.9293   79.4054 H   0  0  0  0  0  0  0  0  0  0  0  0
    1.0496   56.1485   79.4054 H   0  0  0  0  0  0  0  0  0  0  0  0
  2  1  2  0
  3  2  1  0
  4  3  1  0
  5  4  1  0
  6  5  1  0
  6  2  1  0
  7  6  2  0
  8  7  1  0
  9  8  2  0
  9  1  1  0
 10  9  1  0
 11 10  1  0
 12 11  1  0
 13 12  2  0
 14 13  1  0
 15 10  1  0
 15 14  1  0
 16 15  1  0
 17 16  1  0
 17  8  1  0
 18 13  1  0
 19 18  2  0
 20 19  1  0
 21 20  2  0
 21 12  1  0
 22 21  1  0
 23 22  1  0
 24 23  1  0
 25 24  1  0
 25 20  1  0
 27 26  1  0
 27  1  1  0
 28 19  1  0
 29 28  1  0
  4 30  1  0
  4 31  1  0
  7 32  1  0
 10 33  1  6
 11 34  1  0
 11 35  1  0
 14 36  1  0
 14 37  1  0
 15 38  1  6
 16 39  1  0
 16 40  1  0
 17 41  1  0
 17 42  1  0
 18 43  1  0
 22 44  1  0
 22 45  1  0
 24 46  1  0
 24 47  1  0
 26 48  1  0
 26 49  1  0
 26 50  1  0
 29 51  1  0
 29 52  1  0
 29 53  1  0
M  CHG  1  15   1
M  END
>  <score>  (7) 
-7.096

$$$$
=
     RDKit          3D

 53 58  0  0  0  0  0  0  0  0999 V2000
    2.1450   61.6880   71.5280 C   0  0  0  0  0  0  0  0  0  0  0  0
    3.3620   62.2790   71.2280 C   0  0  0  0  0  0  0  0  0  0  0  0
    3.5970   63.3180   70.3800 O   0  0  0  0  0  0  0  0  0  0  0  0
    5.0270   63.4740   70.4860 C   0  0  0  0  0  0  0  0  0  0  0  0
    5.6250   62.5280   71.3900 O   0  0  0  0  0  0  0  0  0  0  0  0
    4.5300   61.8340   71.8040 C   0  0  0  0  0  0  0  0  0  0  0  0
    4.5650   60.7870   72.7000 C   0  0  0  0  0  0  0  0  0  0  0  0
    3.3570   60.1640   73.0390 C   0  0  0  0  0  0  0  0  0  0  0  0
    2.1410   60.6110   72.4490 C   0  0  0  0  0  0  0  0  0  0  0  0
    0.8200   59.9620   72.8310 C   0  0  2  0  0  0  0  0  0  0  0  0
    0.0350   60.8470   73.8320 C   0  0  0  0  0  0  0  0  0  0  0  0
   -1.0790   60.1570   74.5940 C   0  0  0  0  0  0  0  0  0  0  0  0
   -1.1930   58.7520   74.5560 C   0  0  0  0  0  0  0  0  0  0  0  0
   -0.2780   57.9150   73.7090 C   0  0  0  0  0  0  0  0  0  0  0  0
    1.0320   58.5680   73.3920 N   0  0  2  0  0  4  0  0  0  0  0  0
    2.0320   58.5580   74.5160 C   0  0  0  0  0  0  0  0  0  0  0  0
    3.3980   58.9790   73.9760 C   0  0  0  0  0  0  0  0  0  0  0  0
   -2.2150   58.1100   75.2800 C   0  0  0  0  0  0  0  0  0  0  0  0
   -3.1020   58.8420   76.0680 C   0  0  0  0  0  0  0  0  0  0  0  0
   -2.9660   60.2360   76.1320 C   0  0  0  0  0  0  0  0  0  0  0  0
   -1.9780   60.9040   75.3910 C   0  0  0  0  0  0  0  0  0  0  0  0
   -1.8940   62.4040   75.5180 C   0  0  0  0  0  0  0  0  0  0  0  0
   -3.1240   62.9490   75.9660 O   0  0  0  0  0  0  0  0  0  0  0  0
   -3.5450   62.2780   77.1430 C   0  0  0  0  0  0  0  0  0  0  0  0
   -3.8590   60.9070   76.9290 O   0  0  0  0  0  0  0  0  0  0  0  0
    0.4470   63.3510   71.2550 C   0  0  0  0  0  0  0  0  0  0  0  0
    0.9180   62.0240   71.0290 O   0  0  0  0  0  0  0  0  0  0  0  0
   -4.1040   58.2960   76.8260 O   0  0  0  0  0  0  0  0  0  0  0  0
   -5.2740   57.8410   76.1620 C   0  0  0  0  0  0  0  0  0  0  0  0
    5.4705   63.3362   69.4889 H   0  0  0  0  0  0  0  0  0  0  0  0
    5.2220   64.4810   70.8834 H   0  0  0  0  0  0  0  0  0  0  0  0
    5.5163   60.4497   73.1372 H   0  0  0  0  0  0  0  0  0  0  0  0
    0.2185   59.8670   71.9149 H   0  0  0  0  0  0  0  0  0  0  0  0
    0.7519   61.2415   74.5671 H   0  0  0  0  0  0  0  0  0  0  0  0
   -0.4558   61.6209   73.2235 H   0  0  0  0  0  0  0  0  0  0  0  0
   -0.0749   56.9759   74.2445 H   0  0  0  0  0  0  0  0  0  0  0  0
   -0.7924   57.7554   72.7499 H   0  0  0  0  0  0  0  0  0  0  0  0
    1.4638   57.9803   72.6646 H   0  0  0  0  0  0  0  0  0  0  0  0
    1.7129   59.2618   75.2988 H   0  0  0  0  0  0  0  0  0  0  0  0
    2.0987   57.5463   74.9427 H   0  0  0  0  0  0  0  0  0  0  0  0
    4.0416   59.2369   74.8299 H   0  0  0  0  0  0  0  0  0  0  0  0
    3.7823   58.1291   73.3930 H   0  0  0  0  0  0  0  0  0  0  0  0
   -2.3152   57.0160   75.2233 H   0  0  0  0  0  0  0  0  0  0  0  0
   -1.1040   62.6596   76.2395 H   0  0  0  0  0  0  0  0  0  0  0  0
   -1.6654   62.8257   74.5281 H   0  0  0  0  0  0  0  0  0  0  0  0
   -2.7372   62.3389   77.8872 H   0  0  0  0  0  0  0  0  0  0  0  0
   -4.4652   62.7724   77.4877 H   0  0  0  0  0  0  0  0  0  0  0  0
    0.3809   63.5373   72.3371 H   0  0  0  0  0  0  0  0  0  0  0  0
    1.1448   64.0700   70.8011 H   0  0  0  0  0  0  0  0  0  0  0  0
   -0.5480   63.4692   70.8011 H   0  0  0  0  0  0  0  0  0  0  0  0
   -6.0280   57.5478   76.9073 H   0  0  0  0  0  0  0  0  0  0  0  0
   -5.6756   58.6485   75.5322 H   0  0  0  0  0  0  0  0  0  0  0  0
   -5.0246   56.9743   75.5322 H   0  0  0  0  0  0  0  0  0  0  0  0
  2  1  2  0
  3  2  1  0
  4  3  1  0
  5  4  1  0
  6  5  1  0
  6  2  1  0
  7  6  2  0
  8  7  1  0
  9  8  2  0
  9  1  1  0
 10  9  1  0
 11 10  1  0
 12 11  1  0
 13 12  2  0
 14 13  1  0
 15 10  1  0
 15 14  1  0
 16 15  1  0
 17 16  1  0
 17  8  1  0
 18 13  1  0
 19 18  2  0
 20 19  1  0
 21 20  2  0
 21 12  1  0
 22 21  1  0
 23 22  1  0
 24 23  1  0
 25 24  1  0
 25 20  1  0
 27 26  1  0
 27  1  1  0
 28 19  1  0
 29 28  1  0
  4 30  1  0
  4 31  1  0
  7 32  1  0
 10 33  1  6
 11 34  1  0
 11 35  1  0
 14 36  1  0
 14 37  1  0
 15 38  1  6
 16 39  1  0
 16 40  1  0
 17 41  1  0
 17 42  1  0
 18 43  1  0
 22 44  1  0
 22 45  1  0
 24 46  1  0
 24 47  1  0
 26 48  1  0
 26 49  1  0
 26 50  1  0
 29 51  1  0
 29 52  1  0
 29 53  1  0
M  CHG  1  15   1
M  END
>  <score>  (8) 
-7.051

$$$$
=
     RDKit          3D

 53 58  0  0  0  0  0  0  0  0999 V2000
    2.2800   60.6980   72.4570 C   0  0  0  0  0  0  0  0  0  0  0  0
    2.9080   60.4680   71.2430 C   0  0  0  0  0  0  0  0  0  0  0  0
    3.6010   59.3600   70.8600 O   0  0  0  0  0  0  0  0  0  0  0  0
    4.0070   59.7090   69.5220 C   0  0  0  0  0  0  0  0  0  0  0  0
    3.5580   61.0160   69.1250 O   0  0  0  0  0  0  0  0  0  0  0  0
    2.8880   61.4120   70.2420 C   0  0  0  0  0  0  0  0  0  0  0  0
    2.2540   62.6280   70.3800 C   0  0  0  0  0  0  0  0  0  0  0  0
    1.5990   62.9020   71.5870 C   0  0  0  0  0  0  0  0  0  0  0  0
    1.6150   61.9370   72.6340 C   0  0  0  0  0  0  0  0  0  0  0  0
    0.8820   62.2100   73.9380 C   0  0  2  0  0  0  0  0  0  0  0  0
   -0.4690   61.4530   73.9860 C   0  0  0  0  0  0  0  0  0  0  0  0
   -1.4650   61.9410   75.0200 C   0  0  0  0  0  0  0  0  0  0  0  0
   -1.2420   63.1590   75.6930 C   0  0  0  0  0  0  0  0  0  0  0  0
    0.0090   63.9590   75.4700 C   0  0  0  0  0  0  0  0  0  0  0  0
    0.6770   63.6970   74.1550 N   0  0  2  0  0  4  0  0  0  0  0  0
    0.0220   64.3560   72.9710 C   0  0  0  0  0  0  0  0  0  0  0  0
    0.9530   64.2570   71.7630 C   0  0  0  0  0  0  0  0  0  0  0  0
   -2.1760   63.6210   76.6380 C   0  0  0  0  0  0  0  0  0  0  0  0
   -3.3460   62.9070   76.8960 C   0  0  0  0  0  0  0  0  0  0  0  0
   -3.5840   61.7130   76.2010 C   0  0  0  0  0  0  0  0  0  0  0  0
   -2.6500   61.2120   75.2790 C   0  0  0  0  0  0  0  0  0  0  0  0
   -2.9820   59.9250   74.5690 C   0  0  0  0  0  0  0  0  0  0  0  0
   -3.9370   59.1700   75.2960 O   0  0  0  0  0  0  0  0  0  0  0  0
   -5.0580   59.9840   75.6010 C   0  0  0  0  0  0  0  0  0  0  0  0
   -4.7540   61.0560   76.4850 O   0  0  0  0  0  0  0  0  0  0  0  0
    3.4330   59.6250   74.2570 C   0  0  0  0  0  0  0  0  0  0  0  0
    2.2270   59.8570   73.5330 O   0  0  0  0  0  0  0  0  0  0  0  0
   -4.3210   63.3000   77.7750 O   0  0  0  0  0  0  0  0  0  0  0  0
   -4.7800   64.6430   77.7100 C   0  0  0  0  0  0  0  0  0  0  0  0
    5.1055   59.6845   69.4707 H   0  0  0  0  0  0  0  0  0  0  0  0
    3.5493   58.9801   68.8370 H   0  0  0  0  0  0  0  0  0  0  0  0
    2.2623   63.3644   69.5629 H   0  0  0  0  0  0  0  0  0  0  0  0
    1.5120   61.8352   74.7581 H   0  0  0  0  0  0  0  0  0  0  0  0
   -0.9403   61.5414   72.9960 H   0  0  0  0  0  0  0  0  0  0  0  0
   -0.2218   60.4207   74.2746 H   0  0  0  0  0  0  0  0  0  0  0  0
   -0.2507   65.0268   75.5187 H   0  0  0  0  0  0  0  0  0  0  0  0
    0.7211   63.6584   76.2527 H   0  0  0  0  0  0  0  0  0  0  0  0
    1.5991   64.1515   74.2192 H   0  0  0  0  0  0  0  0  0  0  0  0
   -0.9278   63.8487   72.7462 H   0  0  0  0  0  0  0  0  0  0  0  0
   -0.1765   65.4136   73.1993 H   0  0  0  0  0  0  0  0  0  0  0  0
    0.3688   64.4806   70.8582 H   0  0  0  0  0  0  0  0  0  0  0  0
    1.7682   64.9757   71.9329 H   0  0  0  0  0  0  0  0  0  0  0  0
   -1.9810   64.5578   77.1806 H   0  0  0  0  0  0  0  0  0  0  0  0
   -3.3908   60.1588   73.5749 H   0  0  0  0  0  0  0  0  0  0  0  0
   -2.0617   59.3291   74.4796 H   0  0  0  0  0  0  0  0  0  0  0  0
   -5.4483   60.4056   74.6630 H   0  0  0  0  0  0  0  0  0  0  0  0
   -5.7954   59.3443   76.1079 H   0  0  0  0  0  0  0  0  0  0  0  0
    3.2260   59.6648   75.3366 H   0  0  0  0  0  0  0  0  0  0  0  0
    3.8321   58.6336   73.9965 H   0  0  0  0  0  0  0  0  0  0  0  0
    4.1714   60.3976   73.9965 H   0  0  0  0  0  0  0  0  0  0  0  0
   -4.9138   65.0345   78.7292 H   0  0  0  0  0  0  0  0  0  0  0  0
   -4.0409   65.2576   77.1752 H   0  0  0  0  0  0  0  0  0  0  0  0
   -5.7407   64.6767   77.1752 H   0  0  0  0  0  0  0  0  0  0  0  0
  2  1  2  0
  3  2  1  0
  4  3  1  0
  5  4  1  0
  6  5  1  0
  6  2  1  0
  7  6  2  0
  8  7  1  0
  9  8  2  0
  9  1  1  0
 10  9  1  0
 11 10  1  0
 12 11  1  0
 13 12  2  0
 14 13  1  0
 15 10  1  0
 15 14  1  0
 16 15  1  0
 17 16  1  0
 17  8  1  0
 18 13  1  0
 19 18  2  0
 20 19  1  0
 21 20  2  0
 21 12  1  0
 22 21  1  0
 23 22  1  0
 24 23  1  0
 25 24  1  0
 25 20  1  0
 27 26  1  0
 27  1  1  0
 28 19  1  0
 29 28  1  0
  4 30  1  0
  4 31  1  0
  7 32  1  0
 10 33  1  1
 11 34  1  0
 11 35  1  0
 14 36  1  0
 14 37  1  0
 15 38  1  1
 16 39  1  0
 16 40  1  0
 17 41  1  0
 17 42  1  0
 18 43  1  0
 22 44  1  0
 22 45  1  0
 24 46  1  0
 24 47  1  0
 26 48  1  0
 26 49  1  0
 26 50  1  0
 29 51  1  0
 29 52  1  0
 29 53  1  0
M  CHG  1  15   1
M  END
>  <score>  (9) 
-6.929

$$$$
