=
     RDKit          3D

 43 46  0  0  0  0  0  0  0  0999 V2000
    3.3100   67.3770   64.3010 C   0  0  2  0  0  0  0  0  0  0  0  0
    2.2550   67.7020   65.4220 C   0  0  1  0  0  0  0  0  0  0  0  0
    3.0160   68.6710   66.3080 C   0  0  0  0  0  0  0  0  0  0  0  0
    4.2020   68.9880   65.7980 C   0  0  0  0  0  0  0  0  0  0  0  0
    4.4300   68.2940   64.6290 N   0  0  0  0  0  0  0  0  0  0  0  0
    5.2170   68.6810   63.4710 C   0  0  0  0  0  0  0  0  0  0  0  0
    4.2500   68.4590   62.3310 C   0  0  1  0  0  0  0  0  0  0  0  0
    3.0240   67.7520   62.8530 C   0  0  2  0  0  0  0  0  0  0  0  0
    2.9490   69.1200   62.3330 N   0  0  0  0  0  4  0  0  0  0  0  0
    5.0920   69.9930   66.4210 C   0  0  0  0  0  0  0  0  0  0  0  0
    6.0730   70.4220   65.8240 O   0  0  0  0  0  0  0  0  0  0  0  0
    4.7030   70.4680   67.7840 C   0  0  0  0  0  0  0  0  0  0  0  0
    3.5160   70.1310   68.3290 C   0  0  0  0  0  0  0  0  0  0  0  0
    2.5410   69.2740   67.5480 C   0  0  0  0  0  0  0  0  0  0  0  0
    1.3800   69.1170   67.9140 O   0  0  0  0  0  0  0  0  0  0  0  0
    5.7480   71.3120   68.4590 C   0  0  0  0  0  0  0  0  0  0  0  0
    3.0630   70.5280   69.5780 N   0  0  0  0  0  0  0  0  0  0  0  0
    3.0110   64.9950   64.6360 C   0  0  0  0  0  0  0  0  0  0  0  0
    3.8840   66.0760   64.3430 O   0  0  0  0  0  0  0  0  0  0  0  0
    0.9330   68.3210   64.9430 C   0  0  0  0  0  0  0  0  0  0  0  0
   -0.2300   67.8650   65.6570 O   0  0  0  0  0  0  0  0  0  0  0  0
   -1.3100   68.6790   65.5790 C   0  0  0  0  0  0  0  0  0  0  0  0
   -2.0370   68.7940   64.6110 O   0  0  0  0  0  0  0  0  0  0  0  0
   -1.4420   69.3950   66.7160 N   0  0  0  0  0  0  0  0  0  0  0  0
    1.9103   66.7781   65.9094 H   0  0  0  0  0  0  0  0  0  0  0  0
    5.5236   69.7356   63.5329 H   0  0  0  0  0  0  0  0  0  0  0  0
    6.1544   68.1147   63.3681 H   0  0  0  0  0  0  0  0  0  0  0  0
    5.0115   68.3652   61.5428 H   0  0  0  0  0  0  0  0  0  0  0  0
    2.3354   66.9136   62.6717 H   0  0  0  0  0  0  0  0  0  0  0  0
    2.4677   69.3001   61.4404 H   0  0  0  0  0  0  0  0  0  0  0  0
    2.5990   70.0120   62.7108 H   0  0  0  0  0  0  0  0  0  0  0  0
    5.6406   71.2253   69.5503 H   0  0  0  0  0  0  0  0  0  0  0  0
    6.7483   70.9654   68.1603 H   0  0  0  0  0  0  0  0  0  0  0  0
    5.6197   72.3629   68.1603 H   0  0  0  0  0  0  0  0  0  0  0  0
    2.1387   70.2201   69.9124 H   0  0  0  0  0  0  0  0  0  0  0  0
    3.6508   71.1307   70.1714 H   0  0  0  0  0  0  0  0  0  0  0  0
    2.9200   64.8824   65.7264 H   0  0  0  0  0  0  0  0  0  0  0  0
    2.0196   65.1969   64.2043 H   0  0  0  0  0  0  0  0  0  0  0  0
    3.4171   64.0683   64.2043 H   0  0  0  0  0  0  0  0  0  0  0  0
    1.0021   69.4126   65.0595 H   0  0  0  0  0  0  0  0  0  0  0  0
    0.8012   68.0089   63.8965 H   0  0  0  0  0  0  0  0  0  0  0  0
   -2.2186   70.0642   66.8160 H   0  0  0  0  0  0  0  0  0  0  0  0
   -0.7661   69.2720   67.4834 H   0  0  0  0  0  0  0  0  0  0  0  0
  2  1  1  0
  3  2  1  0
  4  3  2  0
  5  1  1  0
  5  4  1  0
  6  5  1  0
  7  6  1  0
  8  7  1  0
  8  1  1  0
  9  8  1  0
  9  7  1  0
 10  4  1  0
 11 10  2  0
 12 10  1  0
 13 12  2  0
 14 13  1  0
 14  3  1  0
 15 14  2  0
 16 12  1  0
 17 13  1  0
 19 18  1  0
  1 19  1  6
 20  2  1  0
 21 20  1  0
 22 21  1  0
 23 22  2  0
 24 22  1  0
  2 25  1  1
  6 26  1  0
  6 27  1  0
  7 28  1  6
  8 29  1  6
  9 30  1  0
  9 31  1  0
 16 32  1  0
 16 33  1  0
 16 34  1  0
 17 35  1  0
 17 36  1  0
 18 37  1  0
 18 38  1  0
 18 39  1  0
 20 40  1  0
 20 41  1  0
 24 42  1  0
 24 43  1  0
M  CHG  1   9   1
M  END
>  <score>  (1) 
-9.683

$$$$
=
     RDKit          3D

 43 46  0  0  0  0  0  0  0  0999 V2000
    3.8780   67.1210   63.8220 C   0  0  2  0  0  0  0  0  0  0  0  0
    2.6480   67.2030   64.8000 C   0  0  1  0  0  0  0  0  0  0  0  0
    3.1110   68.2320   65.8140 C   0  0  0  0  0  0  0  0  0  0  0  0
    4.2810   68.7700   65.4800 C   0  0  0  0  0  0  0  0  0  0  0  0
    4.7720   68.1900   64.3300 N   0  0  0  0  0  0  0  0  0  0  0  0
    5.6230   68.7680   63.3030 C   0  0  0  0  0  0  0  0  0  0  0  0
    4.8620   68.4530   62.0360 C   0  0  1  0  0  0  0  0  0  0  0  0
    3.7190   67.5240   62.3620 C   0  0  2  0  0  0  0  0  0  0  0  0
    3.4780   68.8890   61.8840 N   0  0  0  0  0  4  0  0  0  0  0  0
    4.8980   69.8720   66.2520 C   0  0  0  0  0  0  0  0  0  0  0  0
    5.8590   70.4910   65.8080 O   0  0  0  0  0  0  0  0  0  0  0  0
    4.2620   70.1980   67.5650 C   0  0  0  0  0  0  0  0  0  0  0  0
    3.0910   69.6380   67.9320 C   0  0  0  0  0  0  0  0  0  0  0  0
    2.3850   68.6770   66.9970 C   0  0  0  0  0  0  0  0  0  0  0  0
    1.2320   68.3100   67.1970 O   0  0  0  0  0  0  0  0  0  0  0  0
    5.0510   71.1640   68.4040 C   0  0  0  0  0  0  0  0  0  0  0  0
    2.4200   69.8830   69.1200 N   0  0  0  0  0  0  0  0  0  0  0  0
    3.9520   64.7060   64.0190 C   0  0  0  0  0  0  0  0  0  0  0  0
    4.6570   65.9330   63.8970 O   0  0  0  0  0  0  0  0  0  0  0  0
    1.3120   67.6200   64.1670 C   0  0  0  0  0  0  0  0  0  0  0  0
    1.2580   68.9940   63.7440 O   0  0  0  0  0  0  0  0  0  0  0  0
    0.2520   69.2950   62.8880 C   0  0  0  0  0  0  0  0  0  0  0  0
    0.3890   69.8000   61.7900 O   0  0  0  0  0  0  0  0  0  0  0  0
   -0.9420   69.0050   63.4470 N   0  0  0  0  0  0  0  0  0  0  0  0
    2.4075   66.2087   65.2045 H   0  0  0  0  0  0  0  0  0  0  0  0
    5.7329   69.8537   63.4418 H   0  0  0  0  0  0  0  0  0  0  0  0
    6.6495   68.3727   63.3090 H   0  0  0  0  0  0  0  0  0  0  0  0
    5.7229   68.5307   61.3557 H   0  0  0  0  0  0  0  0  0  0  0  0
    3.2134   66.5949   62.0601 H   0  0  0  0  0  0  0  0  0  0  0  0
    3.0913   69.0378   60.9410 H   0  0  0  0  0  0  0  0  0  0  0  0
    2.9350   69.6880   62.2413 H   0  0  0  0  0  0  0  0  0  0  0  0
    4.8773   70.9513   69.4692 H   0  0  0  0  0  0  0  0  0  0  0  0
    6.1221   71.0556   68.1784 H   0  0  0  0  0  0  0  0  0  0  0  0
    4.7309   72.1919   68.1784 H   0  0  0  0  0  0  0  0  0  0  0  0
    1.5275   69.4072   69.3150 H   0  0  0  0  0  0  0  0  0  0  0  0
    2.8139   70.5409   69.8077 H   0  0  0  0  0  0  0  0  0  0  0  0
    3.8144   64.4665   65.0838 H   0  0  0  0  0  0  0  0  0  0  0  0
    2.9691   64.7981   63.5339 H   0  0  0  0  0  0  0  0  0  0  0  0
    4.5266   63.9032   63.5339 H   0  0  0  0  0  0  0  0  0  0  0  0
    1.1336   66.9823   63.2886 H   0  0  0  0  0  0  0  0  0  0  0  0
    0.5447   67.5010   64.9462 H   0  0  0  0  0  0  0  0  0  0  0  0
   -1.8116   69.1767   62.9224 H   0  0  0  0  0  0  0  0  0  0  0  0
   -0.9835   68.6120   64.3982 H   0  0  0  0  0  0  0  0  0  0  0  0
  2  1  1  0
  3  2  1  0
  4  3  2  0
  5  1  1  0
  5  4  1  0
  6  5  1  0
  7  6  1  0
  8  7  1  0
  8  1  1  0
  9  8  1  0
  9  7  1  0
 10  4  1  0
 11 10  2  0
 12 10  1  0
 13 12  2  0
 14 13  1  0
 14  3  1  0
 15 14  2  0
 16 12  1  0
 17 13  1  0
 19 18  1  0
  1 19  1  6
 20  2  1  0
 21 20  1  0
 22 21  1  0
 23 22  2  0
 24 22  1  0
  2 25  1  1
  6 26  1  0
  6 27  1  0
  7 28  1  6
  8 29  1  6
  9 30  1  0
  9 31  1  0
 16 32  1  0
 16 33  1  0
 16 34  1  0
 17 35  1  0
 17 36  1  0
 18 37  1  0
 18 38  1  0
 18 39  1  0
 20 40  1  0
 20 41  1  0
 24 42  1  0
 24 43  1  0
M  CHG  1   9   1
M  END
>  <score>  (2) 
-9.475

$$$$
=
     RDKit          3D

 43 46  0  0  0  0  0  0  0  0999 V2000
    0.9340   68.3300   67.4780 C   0  0  2  0  0  0  0  0  0  0  0  0
    2.3940   68.9090   67.5880 C   0  0  1  0  0  0  0  0  0  0  0  0
    2.8310   68.9590   66.1360 C   0  0  0  0  0  0  0  0  0  0  0  0
    1.8450   68.6290   65.3070 C   0  0  0  0  0  0  0  0  0  0  0  0
    0.7150   68.2740   66.0120 N   0  0  0  0  0  0  0  0  0  0  0  0
   -0.6820   68.4050   65.6320 C   0  0  0  0  0  0  0  0  0  0  0  0
   -1.2790   69.1120   66.8270 C   0  0  1  0  0  0  0  0  0  0  0  0
   -0.2540   69.1660   67.9330 C   0  0  2  0  0  0  0  0  0  0  0  0
   -0.7300   70.3870   67.2760 N   0  0  0  0  0  4  0  0  0  0  0  0
    1.9870   68.7000   63.8360 C   0  0  0  0  0  0  0  0  0  0  0  0
    1.0100   68.6000   63.1020 O   0  0  0  0  0  0  0  0  0  0  0  0
    3.3690   68.9330   63.3140 C   0  0  0  0  0  0  0  0  0  0  0  0
    4.3860   69.2390   64.1450 C   0  0  0  0  0  0  0  0  0  0  0  0
    4.1350   69.3740   65.6330 C   0  0  0  0  0  0  0  0  0  0  0  0
    4.9740   69.8480   66.3910 O   0  0  0  0  0  0  0  0  0  0  0  0
    3.4960   68.7750   61.8250 C   0  0  0  0  0  0  0  0  0  0  0  0
    5.6960   69.4810   63.7580 N   0  0  0  0  0  0  0  0  0  0  0  0
    0.8970   66.7460   69.3130 C   0  0  0  0  0  0  0  0  0  0  0  0
    0.7610   66.9890   67.9200 O   0  0  0  0  0  0  0  0  0  0  0  0
    2.5210   70.2920   68.2470 C   0  0  0  0  0  0  0  0  0  0  0  0
    3.1830   70.2820   69.5240 O   0  0  0  0  0  0  0  0  0  0  0  0
    4.4570   70.7450   69.5160 C   0  0  0  0  0  0  0  0  0  0  0  0
    5.3580   70.3400   70.2240 O   0  0  0  0  0  0  0  0  0  0  0  0
    4.5780   71.7670   68.6420 N   0  0  0  0  0  0  0  0  0  0  0  0
    3.0104   68.2835   68.2504 H   0  0  0  0  0  0  0  0  0  0  0  0
   -0.7909   69.0073   64.7180 H   0  0  0  0  0  0  0  0  0  0  0  0
   -1.1667   67.4446   65.4024 H   0  0  0  0  0  0  0  0  0  0  0  0
   -2.3172   68.7957   66.6480 H   0  0  0  0  0  0  0  0  0  0  0  0
   -0.0919   68.9863   69.0060 H   0  0  0  0  0  0  0  0  0  0  0  0
   -1.3286   71.0448   67.7955 H   0  0  0  0  0  0  0  0  0  0  0  0
   -0.2641   71.1734   66.8013 H   0  0  0  0  0  0  0  0  0  0  0  0
    4.1708   67.9355   61.6016 H   0  0  0  0  0  0  0  0  0  0  0  0
    2.5051   68.5742   61.3917 H   0  0  0  0  0  0  0  0  0  0  0  0
    3.9051   69.6996   61.3917 H   0  0  0  0  0  0  0  0  0  0  0  0
    6.4085   69.7085   64.4661 H   0  0  0  0  0  0  0  0  0  0  0  0
    5.9561   69.4331   62.7625 H   0  0  0  0  0  0  0  0  0  0  0  0
    0.4354   67.5707   69.8758 H   0  0  0  0  0  0  0  0  0  0  0  0
    0.3967   65.8009   69.5709 H   0  0  0  0  0  0  0  0  0  0  0  0
    1.9642   66.6782   69.5709 H   0  0  0  0  0  0  0  0  0  0  0  0
    3.0901   70.9453   67.5693 H   0  0  0  0  0  0  0  0  0  0  0  0
    1.4965   70.6499   68.4267 H   0  0  0  0  0  0  0  0  0  0  0  0
    5.4884   72.2322   68.5164 H   0  0  0  0  0  0  0  0  0  0  0  0
    3.7599   72.0815   68.1009 H   0  0  0  0  0  0  0  0  0  0  0  0
  2  1  1  0
  3  2  1  0
  4  3  2  0
  5  1  1  0
  5  4  1  0
  6  5  1  0
  7  6  1  0
  8  7  1  0
  8  1  1  0
  9  8  1  0
  9  7  1  0
 10  4  1  0
 11 10  2  0
 12 10  1  0
 13 12  2  0
 14 13  1  0
 14  3  1  0
 15 14  2  0
 16 12  1  0
 17 13  1  0
 19 18  1  0
  1 19  1  1
 20  2  1  0
 21 20  1  0
 22 21  1  0
 23 22  2  0
 24 22  1  0
  2 25  1  1
  6 26  1  0
  6 27  1  0
  7 28  1  1
  8 29  1  1
  9 30  1  0
  9 31  1  0
 16 32  1  0
 16 33  1  0
 16 34  1  0
 17 35  1  0
 17 36  1  0
 18 37  1  0
 18 38  1  0
 18 39  1  0
 20 40  1  0
 20 41  1  0
 24 42  1  0
 24 43  1  0
M  CHG  1   9   1
M  END
>  <score>  (3) 
-9.05

$$$$
=
     RDKit          3D

 43 46  0  0  0  0  0  0  0  0999 V2000
    1.6200   68.5480   64.6520 C   0  0  2  0  0  0  0  0  0  0  0  0
    3.1330   68.3940   64.2430 C   0  0  1  0  0  0  0  0  0  0  0  0
    3.8510   69.0110   65.4290 C   0  0  0  0  0  0  0  0  0  0  0  0
    3.0090   69.3420   66.4050 C   0  0  0  0  0  0  0  0  0  0  0  0
    1.7080   69.0840   66.0330 N   0  0  0  0  0  0  0  0  0  0  0  0
    0.5700   68.7250   66.8640 C   0  0  0  0  0  0  0  0  0  0  0  0
    0.0400   67.4890   66.1740 C   0  0  1  0  0  0  0  0  0  0  0  0
    0.7570   67.3110   64.8580 C   0  0  2  0  0  0  0  0  0  0  0  0
    0.9140   66.3430   65.9480 N   0  0  0  0  0  4  0  0  0  0  0  0
    3.4720   69.8670   67.7090 C   0  0  0  0  0  0  0  0  0  0  0  0
    2.7040   69.9600   68.6590 O   0  0  0  0  0  0  0  0  0  0  0  0
    4.9190   70.2340   67.8000 C   0  0  0  0  0  0  0  0  0  0  0  0
    5.7790   69.9330   66.8050 C   0  0  0  0  0  0  0  0  0  0  0  0
    5.2890   69.1900   65.5790 C   0  0  0  0  0  0  0  0  0  0  0  0
    6.0660   68.7170   64.7550 O   0  0  0  0  0  0  0  0  0  0  0  0
    5.2870   70.9640   69.0610 C   0  0  0  0  0  0  0  0  0  0  0  0
    7.1350   70.2220   66.8000 N   0  0  0  0  0  0  0  0  0  0  0  0
    0.1970   69.0860   62.7650 C   0  0  0  0  0  0  0  0  0  0  0  0
    0.8760   69.5240   63.9330 O   0  0  0  0  0  0  0  0  0  0  0  0
    3.6190   66.9580   63.9940 C   0  0  0  0  0  0  0  0  0  0  0  0
    3.7370   66.6040   62.6050 O   0  0  0  0  0  0  0  0  0  0  0  0
    4.0940   67.6180   61.7800 C   0  0  0  0  0  0  0  0  0  0  0  0
    3.3660   68.1530   60.9650 O   0  0  0  0  0  0  0  0  0  0  0  0
    5.3980   67.9220   61.9480 N   0  0  0  0  0  0  0  0  0  0  0  0
    3.3226   68.8704   63.2698 H   0  0  0  0  0  0  0  0  0  0  0  0
    0.8845   68.5015   67.8941 H   0  0  0  0  0  0  0  0  0  0  0  0
   -0.1752   69.5285   66.9590 H   0  0  0  0  0  0  0  0  0  0  0  0
   -0.9796   67.5504   66.5822 H   0  0  0  0  0  0  0  0  0  0  0  0
    0.6128   67.1151   63.7852 H   0  0  0  0  0  0  0  0  0  0  0  0
    0.5062   65.4017   65.8560 H   0  0  0  0  0  0  0  0  0  0  0  0
    1.7255   65.9514   66.4471 H   0  0  0  0  0  0  0  0  0  0  0  0
    4.9851   70.3650   69.9328 H   0  0  0  0  0  0  0  0  0  0  0  0
    6.3747   71.1263   69.0866 H   0  0  0  0  0  0  0  0  0  0  0  0
    4.7706   71.9349   69.0866 H   0  0  0  0  0  0  0  0  0  0  0  0
    7.7159   69.9529   65.9932 H   0  0  0  0  0  0  0  0  0  0  0  0
    7.5614   70.7058   67.6031 H   0  0  0  0  0  0  0  0  0  0  0  0
   -0.6950   68.5106   63.0535 H   0  0  0  0  0  0  0  0  0  0  0  0
   -0.1068   69.9588   62.1684 H   0  0  0  0  0  0  0  0  0  0  0  0
    0.8669   68.4493   62.1684 H   0  0  0  0  0  0  0  0  0  0  0  0
    4.6070   66.8427   64.4637 H   0  0  0  0  0  0  0  0  0  0  0  0
    2.8590   66.2898   64.4252 H   0  0  0  0  0  0  0  0  0  0  0  0
    5.8270   68.6754   61.3919 H   0  0  0  0  0  0  0  0  0  0  0  0
    5.9643   67.4007   62.6324 H   0  0  0  0  0  0  0  0  0  0  0  0
  2  1  1  0
  3  2  1  0
  4  3  2  0
  5  1  1  0
  5  4  1  0
  6  5  1  0
  7  6  1  0
  8  7  1  0
  8  1  1  0
  9  8  1  0
  9  7  1  0
 10  4  1  0
 11 10  2  0
 12 10  1  0
 13 12  2  0
 14 13  1  0
 14  3  1  0
 15 14  2  0
 16 12  1  0
 17 13  1  0
 19 18  1  0
  1 19  1  6
 20  2  1  0
 21 20  1  0
 22 21  1  0
 23 22  2  0
 24 22  1  0
  2 25  1  6
  6 26  1  0
  6 27  1  0
  7 28  1  6
  8 29  1  6
  9 30  1  0
  9 31  1  0
 16 32  1  0
 16 33  1  0
 16 34  1  0
 17 35  1  0
 17 36  1  0
 18 37  1  0
 18 38  1  0
 18 39  1  0
 20 40  1  0
 20 41  1  0
 24 42  1  0
 24 43  1  0
M  CHG  1   9   1
M  END
>  <score>  (4) 
-8.998

$$$$
=
     RDKit          3D

 43 46  0  0  0  0  0  0  0  0999 V2000
    0.6710   68.2720   66.1730 C   0  0  2  0  0  0  0  0  0  0  0  0
    1.4540   67.8510   64.8740 C   0  0  1  0  0  0  0  0  0  0  0  0
    2.8030   68.5130   65.0820 C   0  0  0  0  0  0  0  0  0  0  0  0
    2.8960   69.0900   66.2780 C   0  0  0  0  0  0  0  0  0  0  0  0
    1.7100   68.9710   66.9690 N   0  0  0  0  0  0  0  0  0  0  0  0
    1.4880   68.8940   68.4030 C   0  0  0  0  0  0  0  0  0  0  0  0
    0.6180   67.6650   68.5310 C   0  0  1  0  0  0  0  0  0  0  0  0
    0.1970   67.2100   67.1560 C   0  0  2  0  0  0  0  0  0  0  0  0
    1.0710   66.3860   67.9960 N   0  0  0  0  0  4  0  0  0  0  0  0
    4.1470   69.7140   66.7620 C   0  0  0  0  0  0  0  0  0  0  0  0
    4.2730   70.0440   67.9360 O   0  0  0  0  0  0  0  0  0  0  0  0
    5.2390   69.8810   65.7540 C   0  0  0  0  0  0  0  0  0  0  0  0
    5.1460   69.3280   64.5270 C   0  0  0  0  0  0  0  0  0  0  0  0
    3.9300   68.5040   64.1580 C   0  0  0  0  0  0  0  0  0  0  0  0
    3.8970   67.8190   63.1410 O   0  0  0  0  0  0  0  0  0  0  0  0
    6.3940   70.7140   66.2340 C   0  0  0  0  0  0  0  0  0  0  0  0
    6.1060   69.4180   63.5300 N   0  0  0  0  0  0  0  0  0  0  0  0
   -1.6730   68.7470   65.7730 C   0  0  0  0  0  0  0  0  0  0  0  0
   -0.3580   69.2380   65.9950 O   0  0  0  0  0  0  0  0  0  0  0  0
    1.6150   66.3400   64.6460 C   0  0  0  0  0  0  0  0  0  0  0  0
    2.6140   65.7180   65.4730 O   0  0  0  0  0  0  0  0  0  0  0  0
    3.3360   64.7430   64.8690 C   0  0  0  0  0  0  0  0  0  0  0  0
    3.6330   64.7130   63.6900 O   0  0  0  0  0  0  0  0  0  0  0  0
    3.6400   63.7690   65.7530 N   0  0  0  0  0  0  0  0  0  0  0  0
    0.9042   68.1604   63.9729 H   0  0  0  0  0  0  0  0  0  0  0  0
    2.4362   68.7687   68.9463 H   0  0  0  0  0  0  0  0  0  0  0  0
    1.0324   69.8012   68.8266 H   0  0  0  0  0  0  0  0  0  0  0  0
    0.1833   67.9266   69.5070 H   0  0  0  0  0  0  0  0  0  0  0  0
   -0.6631   66.8933   66.5478 H   0  0  0  0  0  0  0  0  0  0  0  0
    0.7113   65.5090   68.3990 H   0  0  0  0  0  0  0  0  0  0  0  0
    1.9958   65.9534   67.8598 H   0  0  0  0  0  0  0  0  0  0  0  0
    6.4071   70.7235   67.3339 H   0  0  0  0  0  0  0  0  0  0  0  0
    7.3355   70.2857   65.8597 H   0  0  0  0  0  0  0  0  0  0  0  0
    6.2848   71.7426   65.8597 H   0  0  0  0  0  0  0  0  0  0  0  0
    5.9480   68.9616   62.6202 H   0  0  0  0  0  0  0  0  0  0  0  0
    6.9769   69.9412   63.6994 H   0  0  0  0  0  0  0  0  0  0  0  0
   -2.1641   68.5636   66.7401 H   0  0  0  0  0  0  0  0  0  0  0  0
   -2.2506   69.4901   65.2035 H   0  0  0  0  0  0  0  0  0  0  0  0
   -1.6222   67.8072   65.2035 H   0  0  0  0  0  0  0  0  0  0  0  0
    0.6486   65.8561   64.8509 H   0  0  0  0  0  0  0  0  0  0  0  0
    1.9456   66.2129   63.6046 H   0  0  0  0  0  0  0  0  0  0  0  0
    4.1883   62.9514   65.4501 H   0  0  0  0  0  0  0  0  0  0  0  0
    3.3236   63.8435   66.7304 H   0  0  0  0  0  0  0  0  0  0  0  0
  2  1  1  0
  3  2  1  0
  4  3  2  0
  5  1  1  0
  5  4  1  0
  6  5  1  0
  7  6  1  0
  8  7  1  0
  8  1  1  0
  9  8  1  0
  9  7  1  0
 10  4  1  0
 11 10  2  0
 12 10  1  0
 13 12  2  0
 14 13  1  0
 14  3  1  0
 15 14  2  0
 16 12  1  0
 17 13  1  0
 19 18  1  0
  1 19  1  6
 20  2  1  0
 21 20  1  0
 22 21  1  0
 23 22  2  0
 24 22  1  0
  2 25  1  6
  6 26  1  0
  6 27  1  0
  7 28  1  1
  8 29  1  1
  9 30  1  0
  9 31  1  0
 16 32  1  0
 16 33  1  0
 16 34  1  0
 17 35  1  0
 17 36  1  0
 18 37  1  0
 18 38  1  0
 18 39  1  0
 20 40  1  0
 20 41  1  0
 24 42  1  0
 24 43  1  0
M  CHG  1   9   1
M  END
>  <score>  (5) 
-8.898

$$$$
=
     RDKit          3D

 43 46  0  0  0  0  0  0  0  0999 V2000
    1.3470   68.1720   66.9030 C   0  0  2  0  0  0  0  0  0  0  0  0
    2.7100   68.4190   66.1540 C   0  0  1  0  0  0  0  0  0  0  0  0
    2.2550   68.6400   64.7240 C   0  0  0  0  0  0  0  0  0  0  0  0
    0.9290   68.6680   64.6200 C   0  0  0  0  0  0  0  0  0  0  0  0
    0.3410   68.4260   65.8430 N   0  0  0  0  0  0  0  0  0  0  0  0
   -0.9330   68.9000   66.3580 C   0  0  0  0  0  0  0  0  0  0  0  0
   -0.5450   69.4850   67.6960 C   0  0  1  0  0  0  0  0  0  0  0  0
    0.8920   69.1340   67.9930 C   0  0  2  0  0  0  0  0  0  0  0  0
    0.4770   70.5230   67.7740 N   0  0  0  0  0  4  0  0  0  0  0  0
    0.2380   68.9720   63.3470 C   0  0  0  0  0  0  0  0  0  0  0  0
   -0.9660   69.2020   63.3230 O   0  0  0  0  0  0  0  0  0  0  0  0
    1.0940   69.0140   62.1220 C   0  0  0  0  0  0  0  0  0  0  0  0
    2.4390   68.9560   62.2080 C   0  0  0  0  0  0  0  0  0  0  0  0
    3.1080   68.8690   63.5640 C   0  0  0  0  0  0  0  0  0  0  0  0
    4.3180   69.0220   63.7000 O   0  0  0  0  0  0  0  0  0  0  0  0
    0.3190   69.1030   60.8370 C   0  0  0  0  0  0  0  0  0  0  0  0
    3.3160   68.9970   61.1340 N   0  0  0  0  0  0  0  0  0  0  0  0
    0.9770   66.6120   68.7210 C   0  0  0  0  0  0  0  0  0  0  0  0
    1.1000   66.8360   67.3240 O   0  0  0  0  0  0  0  0  0  0  0  0
    3.5460   69.6070   66.6540 C   0  0  0  0  0  0  0  0  0  0  0  0
    4.9420   69.3140   66.8400 O   0  0  0  0  0  0  0  0  0  0  0  0
    5.6890   70.3410   67.3110 C   0  0  0  0  0  0  0  0  0  0  0  0
    5.2830   71.2420   68.0190 O   0  0  0  0  0  0  0  0  0  0  0  0
    6.9510   70.2580   66.8370 N   0  0  0  0  0  0  0  0  0  0  0  0
    3.3980   67.5751   66.3109 H   0  0  0  0  0  0  0  0  0  0  0  0
   -1.3680   69.6664   65.6997 H   0  0  0  0  0  0  0  0  0  0  0  0
   -1.6988   68.1134   66.4278 H   0  0  0  0  0  0  0  0  0  0  0  0
   -1.5445   69.4193   68.1507 H   0  0  0  0  0  0  0  0  0  0  0  0
    1.5706   68.7366   68.7621 H   0  0  0  0  0  0  0  0  0  0  0  0
    0.4726   71.1840   68.5639 H   0  0  0  0  0  0  0  0  0  0  0  0
    0.7876   71.2719   67.1387 H   0  0  0  0  0  0  0  0  0  0  0  0
   -0.7508   69.2259   61.0618 H   0  0  0  0  0  0  0  0  0  0  0  0
    0.6728   69.9664   60.2545 H   0  0  0  0  0  0  0  0  0  0  0  0
    0.4679   68.1819   60.2545 H   0  0  0  0  0  0  0  0  0  0  0  0
    4.3319   68.9464   61.2964 H   0  0  0  0  0  0  0  0  0  0  0  0
    2.9513   69.0780   60.1741 H   0  0  0  0  0  0  0  0  0  0  0  0
    1.4363   67.4484   69.2683 H   0  0  0  0  0  0  0  0  0  0  0  0
   -0.0875   66.5393   68.9884 H   0  0  0  0  0  0  0  0  0  0  0  0
    1.4870   65.6748   68.9884 H   0  0  0  0  0  0  0  0  0  0  0  0
    3.4602   70.4215   65.9197 H   0  0  0  0  0  0  0  0  0  0  0  0
    3.1473   69.8778   67.6428 H   0  0  0  0  0  0  0  0  0  0  0  0
    7.6486   70.9677   67.1027 H   0  0  0  0  0  0  0  0  0  0  0  0
    7.2158   69.4850   66.2099 H   0  0  0  0  0  0  0  0  0  0  0  0
  2  1  1  0
  3  2  1  0
  4  3  2  0
  5  1  1  0
  5  4  1  0
  6  5  1  0
  7  6  1  0
  8  7  1  0
  8  1  1  0
  9  8  1  0
  9  7  1  0
 10  4  1  0
 11 10  2  0
 12 10  1  0
 13 12  2  0
 14 13  1  0
 14  3  1  0
 15 14  2  0
 16 12  1  0
 17 13  1  0
 19 18  1  0
  1 19  1  1
 20  2  1  0
 21 20  1  0
 22 21  1  0
 23 22  2  0
 24 22  1  0
  2 25  1  6
  6 26  1  0
  6 27  1  0
  7 28  1  1
  8 29  1  1
  9 30  1  0
  9 31  1  0
 16 32  1  0
 16 33  1  0
 16 34  1  0
 17 35  1  0
 17 36  1  0
 18 37  1  0
 18 38  1  0
 18 39  1  0
 20 40  1  0
 20 41  1  0
 24 42  1  0
 24 43  1  0
M  CHG  1   9   1
M  END
>  <score>  (6) 
-7.892

$$$$
=
     RDKit          3D

 43 46  0  0  0  0  0  0  0  0999 V2000
    3.1830   61.6630   70.4900 C   0  0  2  0  0  0  0  0  0  0  0  0
    1.8970   62.4580   70.9260 C   0  0  1  0  0  0  0  0  0  0  0  0
    1.1960   61.4640   71.8330 C   0  0  0  0  0  0  0  0  0  0  0  0
    1.9260   60.3700   72.0330 C   0  0  0  0  0  0  0  0  0  0  0  0
    3.0950   60.4260   71.3050 N   0  0  0  0  0  0  0  0  0  0  0  0
    4.3900   59.8370   71.6030 C   0  0  0  0  0  0  0  0  0  0  0  0
    5.3250   61.0160   71.4550 C   0  0  1  0  0  0  0  0  0  0  0  0
    4.5650   62.1800   70.8700 C   0  0  2  0  0  0  0  0  0  0  0  0
    5.1030   62.2300   72.2320 N   0  0  0  0  0  4  0  0  0  0  0  0
    1.5090   59.2960   72.9610 C   0  0  0  0  0  0  0  0  0  0  0  0
    2.2890   58.4090   73.2900 O   0  0  0  0  0  0  0  0  0  0  0  0
    0.1120   59.3800   73.4890 C   0  0  0  0  0  0  0  0  0  0  0  0
   -0.6520   60.4700   73.2690 C   0  0  0  0  0  0  0  0  0  0  0  0
   -0.0900   61.6450   72.4940 C   0  0  0  0  0  0  0  0  0  0  0  0
   -0.6690   62.7260   72.4490 O   0  0  0  0  0  0  0  0  0  0  0  0
   -0.3320   58.1590   74.2430 C   0  0  0  0  0  0  0  0  0  0  0  0
   -1.9500   60.6460   73.7230 N   0  0  0  0  0  0  0  0  0  0  0  0
    3.5540   62.1570   68.1460 C   0  0  0  0  0  0  0  0  0  0  0  0
    3.2080   61.2070   69.1430 O   0  0  0  0  0  0  0  0  0  0  0  0
    2.1440   63.7870   71.6570 C   0  0  0  0  0  0  0  0  0  0  0  0
    1.9780   64.9560   70.8350 O   0  0  0  0  0  0  0  0  0  0  0  0
    0.6940   65.3000   70.5740 C   0  0  0  0  0  0  0  0  0  0  0  0
    0.2050   65.4100   69.4660 O   0  0  0  0  0  0  0  0  0  0  0  0
    0.0360   65.5610   71.7230 N   0  0  0  0  0  0  0  0  0  0  0  0
    1.3259   62.7851   70.0446 H   0  0  0  0  0  0  0  0  0  0  0  0
    4.4176   59.4332   72.6258 H   0  0  0  0  0  0  0  0  0  0  0  0
    4.6468   58.9881   70.9523 H   0  0  0  0  0  0  0  0  0  0  0  0
    6.2370   60.4260   71.2813 H   0  0  0  0  0  0  0  0  0  0  0  0
    4.5911   62.9608   70.0957 H   0  0  0  0  0  0  0  0  0  0  0  0
    5.8966   62.8515   72.4438 H   0  0  0  0  0  0  0  0  0  0  0  0
    4.6940   62.4237   73.1573 H   0  0  0  0  0  0  0  0  0  0  0  0
   -0.2625   58.3502   75.3240 H   0  0  0  0  0  0  0  0  0  0  0  0
   -1.3734   57.9233   73.9786 H   0  0  0  0  0  0  0  0  0  0  0  0
    0.3147   57.3094   73.9786 H   0  0  0  0  0  0  0  0  0  0  0  0
   -2.4583   61.5151   73.5055 H   0  0  0  0  0  0  0  0  0  0  0  0
   -2.4061   59.9077   74.2778 H   0  0  0  0  0  0  0  0  0  0  0  0
    3.8925   63.0865   68.6270 H   0  0  0  0  0  0  0  0  0  0  0  0
    4.3627   61.7528   67.5193 H   0  0  0  0  0  0  0  0  0  0  0  0
    2.6748   62.3676   67.5193 H   0  0  0  0  0  0  0  0  0  0  0  0
    1.4376   63.8540   72.4975 H   0  0  0  0  0  0  0  0  0  0  0  0
    3.1952   63.7771   71.9809 H   0  0  0  0  0  0  0  0  0  0  0  0
   -0.9556   65.8383   71.6970 H   0  0  0  0  0  0  0  0  0  0  0  0
    0.5254   65.4829   72.6259 H   0  0  0  0  0  0  0  0  0  0  0  0
  2  1  1  0
  3  2  1  0
  4  3  2  0
  5  1  1  0
  5  4  1  0
  6  5  1  0
  7  6  1  0
  8  7  1  0
  8  1  1  0
  9  8  1  0
  9  7  1  0
 10  4  1  0
 11 10  2  0
 12 10  1  0
 13 12  2  0
 14 13  1  0
 14  3  1  0
 15 14  2  0
 16 12  1  0
 17 13  1  0
 19 18  1  0
  1 19  1  6
 20  2  1  0
 21 20  1  0
 22 21  1  0
 23 22  2  0
 24 22  1  0
  2 25  1  6
  6 26  1  0
  6 27  1  0
  7 28  1  6
  8 29  1  6
  9 30  1  0
  9 31  1  0
 16 32  1  0
 16 33  1  0
 16 34  1  0
 17 35  1  0
 17 36  1  0
 18 37  1  0
 18 38  1  0
 18 39  1  0
 20 40  1  0
 20 41  1  0
 24 42  1  0
 24 43  1  0
M  CHG  1   9   1
M  END
>  <score>  (7) 
-7.507

$$$$
=
     RDKit          3D

 43 46  0  0  0  0  0  0  0  0999 V2000
   -0.0030   61.9390   73.2390 C   0  0  2  0  0  0  0  0  0  0  0  0
    0.8950   60.6750   72.9670 C   0  0  1  0  0  0  0  0  0  0  0  0
    1.7320   61.1240   71.7840 C   0  0  0  0  0  0  0  0  0  0  0  0
    1.5170   62.4010   71.4760 C   0  0  0  0  0  0  0  0  0  0  0  0
    0.5430   62.9390   72.2890 N   0  0  0  0  0  0  0  0  0  0  0  0
    0.3790   64.3120   72.7370 C   0  0  0  0  0  0  0  0  0  0  0  0
    0.2380   64.1500   74.2330 C   0  0  1  0  0  0  0  0  0  0  0  0
    0.1100   62.6840   74.5630 C   0  0  2  0  0  0  0  0  0  0  0  0
    1.2730   63.4630   74.9980 N   0  0  0  0  0  4  0  0  0  0  0  0
    2.2860   63.1040   70.4250 C   0  0  0  0  0  0  0  0  0  0  0  0
    2.2220   64.3230   70.3080 O   0  0  0  0  0  0  0  0  0  0  0  0
    3.1560   62.2530   69.5570 C   0  0  0  0  0  0  0  0  0  0  0  0
    3.3590   60.9490   69.8390 C   0  0  0  0  0  0  0  0  0  0  0  0
    2.7200   60.3300   71.0640 C   0  0  0  0  0  0  0  0  0  0  0  0
    3.0400   59.2170   71.4690 O   0  0  0  0  0  0  0  0  0  0  0  0
    3.7370   62.9760   68.3750 C   0  0  0  0  0  0  0  0  0  0  0  0
    4.1530   60.0830   69.1020 N   0  0  0  0  0  0  0  0  0  0  0  0
   -2.1990   61.0510   73.7540 C   0  0  0  0  0  0  0  0  0  0  0  0
   -1.3750   61.8170   72.8860 O   0  0  0  0  0  0  0  0  0  0  0  0
    1.7910   60.2230   74.1310 C   0  0  0  0  0  0  0  0  0  0  0  0
    1.3550   59.0150   74.7800 O   0  0  0  0  0  0  0  0  0  0  0  0
    1.6890   57.8670   74.1440 C   0  0  0  0  0  0  0  0  0  0  0  0
    0.9020   57.0560   73.6940 O   0  0  0  0  0  0  0  0  0  0  0  0
    3.0300   57.7140   74.1250 N   0  0  0  0  0  0  0  0  0  0  0  0
    0.2708   59.7847   72.8006 H   0  0  0  0  0  0  0  0  0  0  0  0
    1.2592   64.9211   72.4838 H   0  0  0  0  0  0  0  0  0  0  0  0
   -0.4716   64.8288   72.2686 H   0  0  0  0  0  0  0  0  0  0  0  0
   -0.2760   65.1064   74.4096 H   0  0  0  0  0  0  0  0  0  0  0  0
   -0.4730   61.9485   75.1366 H   0  0  0  0  0  0  0  0  0  0  0  0
    1.3963   63.6796   75.9974 H   0  0  0  0  0  0  0  0  0  0  0  0
    2.2912   63.3528   74.8882 H   0  0  0  0  0  0  0  0  0  0  0  0
    4.3899   63.7884   68.7268 H   0  0  0  0  0  0  0  0  0  0  0  0
    4.3234   62.2719   67.7664 H   0  0  0  0  0  0  0  0  0  0  0  0
    2.9231   63.3971   67.7664 H   0  0  0  0  0  0  0  0  0  0  0  0
    4.2502   59.0997   69.3929 H   0  0  0  0  0  0  0  0  0  0  0  0
    4.6454   60.4231   68.2637 H   0  0  0  0  0  0  0  0  0  0  0  0
   -1.9476   61.2847   74.7991 H   0  0  0  0  0  0  0  0  0  0  0  0
   -3.2551   61.2955   73.5674 H   0  0  0  0  0  0  0  0  0  0  0  0
   -2.0321   59.9799   73.5674 H   0  0  0  0  0  0  0  0  0  0  0  0
    2.8057   60.0570   73.7402 H   0  0  0  0  0  0  0  0  0  0  0  0
    1.7492   61.0198   74.8882 H   0  0  0  0  0  0  0  0  0  0  0  0
    3.4476   56.8866   73.6756 H   0  0  0  0  0  0  0  0  0  0  0  0
    3.6356   58.4246   74.5599 H   0  0  0  0  0  0  0  0  0  0  0  0
  2  1  1  0
  3  2  1  0
  4  3  2  0
  5  1  1  0
  5  4  1  0
  6  5  1  0
  7  6  1  0
  8  7  1  0
  8  1  1  0
  9  8  1  0
  9  7  1  0
 10  4  1  0
 11 10  2  0
 12 10  1  0
 13 12  2  0
 14 13  1  0
 14  3  1  0
 15 14  2  0
 16 12  1  0
 17 13  1  0
 19 18  1  0
  1 19  1  6
 20  2  1  0
 21 20  1  0
 22 21  1  0
 23 22  2  0
 24 22  1  0
  2 25  1  6
  6 26  1  0
  6 27  1  0
  7 28  1  1
  8 29  1  1
  9 30  1  0
  9 31  1  0
 16 32  1  0
 16 33  1  0
 16 34  1  0
 17 35  1  0
 17 36  1  0
 18 37  1  0
 18 38  1  0
 18 39  1  0
 20 40  1  0
 20 41  1  0
 24 42  1  0
 24 43  1  0
M  CHG  1   9   1
M  END
>  <score>  (8) 
-7.137

$$$$
=
     RDKit          3D

 43 46  0  0  0  0  0  0  0  0999 V2000
    0.0470   61.1950   73.8690 C   0  0  2  0  0  0  0  0  0  0  0  0
    0.4740   59.6810   73.9300 C   0  0  1  0  0  0  0  0  0  0  0  0
    1.4820   59.5860   72.8000 C   0  0  0  0  0  0  0  0  0  0  0  0
    1.7340   60.7730   72.2550 C   0  0  0  0  0  0  0  0  0  0  0  0
    0.9560   61.7510   72.8370 N   0  0  0  0  0  0  0  0  0  0  0  0
    1.2450   63.1630   73.0210 C   0  0  0  0  0  0  0  0  0  0  0  0
    0.9690   63.3620   74.4930 C   0  0  1  0  0  0  0  0  0  0  0  0
    0.3290   62.1150   75.0510 C   0  0  2  0  0  0  0  0  0  0  0  0
    1.6600   62.5470   75.4860 N   0  0  0  0  0  4  0  0  0  0  0  0
    2.7580   60.9620   71.2030 C   0  0  0  0  0  0  0  0  0  0  0  0
    3.1210   62.0850   70.8720 O   0  0  0  0  0  0  0  0  0  0  0  0
    3.3340   59.7180   70.6070 C   0  0  0  0  0  0  0  0  0  0  0  0
    3.0640   58.5040   71.1300 C   0  0  0  0  0  0  0  0  0  0  0  0
    2.1800   58.3860   72.3550 C   0  0  0  0  0  0  0  0  0  0  0  0
    2.0770   57.3360   72.9800 O   0  0  0  0  0  0  0  0  0  0  0  0
    4.1960   59.9590   69.4000 C   0  0  0  0  0  0  0  0  0  0  0  0
    3.5560   57.2970   70.6560 N   0  0  0  0  0  0  0  0  0  0  0  0
   -2.3280   60.7180   73.9560 C   0  0  0  0  0  0  0  0  0  0  0  0
   -1.2610   61.4550   73.3760 O   0  0  0  0  0  0  0  0  0  0  0  0
    1.0910   59.2090   75.2560 C   0  0  0  0  0  0  0  0  0  0  0  0
    2.4640   59.5930   75.4420 O   0  0  0  0  0  0  0  0  0  0  0  0
    3.2570   58.6470   76.0010 C   0  0  0  0  0  0  0  0  0  0  0  0
    3.1550   58.2240   77.1360 O   0  0  0  0  0  0  0  0  0  0  0  0
    4.2210   58.2710   75.1340 N   0  0  0  0  0  0  0  0  0  0  0  0
   -0.4053   59.0259   73.8422 H   0  0  0  0  0  0  0  0  0  0  0  0
    2.2938   63.3893   72.7787 H   0  0  0  0  0  0  0  0  0  0  0  0
    0.6514   63.8214   72.3698 H   0  0  0  0  0  0  0  0  0  0  0  0
    0.8028   64.4480   74.4384 H   0  0  0  0  0  0  0  0  0  0  0  0
   -0.5024   61.7399   75.6658 H   0  0  0  0  0  0  0  0  0  0  0  0
    1.7910   62.9099   76.4410 H   0  0  0  0  0  0  0  0  0  0  0  0
    2.5839   62.0933   75.5231 H   0  0  0  0  0  0  0  0  0  0  0  0
    5.2086   60.2421   69.7232 H   0  0  0  0  0  0  0  0  0  0  0  0
    4.2470   59.0407   68.7966 H   0  0  0  0  0  0  0  0  0  0  0  0
    3.7634   60.7706   68.7966 H   0  0  0  0  0  0  0  0  0  0  0  0
    3.2946   56.4160   71.1212 H   0  0  0  0  0  0  0  0  0  0  0  0
    4.1828   57.2816   69.8388 H   0  0  0  0  0  0  0  0  0  0  0  0
   -2.2550   60.7684   75.0524 H   0  0  0  0  0  0  0  0  0  0  0  0
   -3.2880   61.1464   73.6323 H   0  0  0  0  0  0  0  0  0  0  0  0
   -2.2672   59.6685   73.6323 H   0  0  0  0  0  0  0  0  0  0  0  0
    0.5002   59.6338   76.0809 H   0  0  0  0  0  0  0  0  0  0  0  0
    1.0723   58.1093   75.2372 H   0  0  0  0  0  0  0  0  0  0  0  0
    4.9095   57.5555   75.4079 H   0  0  0  0  0  0  0  0  0  0  0  0
    4.2681   58.6996   74.1986 H   0  0  0  0  0  0  0  0  0  0  0  0
  2  1  1  0
  3  2  1  0
  4  3  2  0
  5  1  1  0
  5  4  1  0
  6  5  1  0
  7  6  1  0
  8  7  1  0
  8  1  1  0
  9  8  1  0
  9  7  1  0
 10  4  1  0
 11 10  2  0
 12 10  1  0
 13 12  2  0
 14 13  1  0
 14  3  1  0
 15 14  2  0
 16 12  1  0
 17 13  1  0
 19 18  1  0
  1 19  1  6
 20  2  1  0
 21 20  1  0
 22 21  1  0
 23 22  2  0
 24 22  1  0
  2 25  1  6
  6 26  1  0
  6 27  1  0
  7 28  1  1
  8 29  1  1
  9 30  1  0
  9 31  1  0
 16 32  1  0
 16 33  1  0
 16 34  1  0
 17 35  1  0
 17 36  1  0
 18 37  1  0
 18 38  1  0
 18 39  1  0
 20 40  1  0
 20 41  1  0
 24 42  1  0
 24 43  1  0
M  CHG  1   9   1
M  END
>  <score>  (9) 
-6.936

$$$$
