=
     RDKit          3D

 54 57  0  0  0  0  0  0  0  0999 V2000
    2.1360   63.9920   71.7350 C   0  0  1  0  0  0  0  0  0  0  0  0
    2.2730   65.0720   70.6590 C   0  0  0  0  0  0  0  0  0  0  0  0
    0.8240   65.3930   70.4110 C   0  0  0  0  0  0  0  0  0  0  0  0
   -0.0110   64.8570   71.2480 N   0  0  0  0  0  0  0  0  0  0  0  0
    0.7170   64.0800   72.1030 N   0  0  0  0  0  0  0  0  0  0  0  0
    0.4000   66.2870   69.3080 C   0  0  0  0  0  0  0  0  0  0  0  0
    1.2660   67.2460   68.7680 C   0  0  0  0  0  0  0  0  0  0  0  0
    0.8320   68.0740   67.7270 C   0  0  0  0  0  0  0  0  0  0  0  0
   -0.4640   67.9440   67.2280 C   0  0  0  0  0  0  0  0  0  0  0  0
   -1.3320   66.9940   67.7600 C   0  0  0  0  0  0  0  0  0  0  0  0
   -0.9010   66.1670   68.7990 C   0  0  0  0  0  0  0  0  0  0  0  0
   -0.9920   68.9650   65.9480 Cl  0  0  0  0  0  0  0  0  0  0  0  0
    3.3540   60.1160   70.1890 C   0  0  0  0  0  0  0  0  0  0  0  0
    2.8880   61.1020   69.3210 C   0  0  0  0  0  0  0  0  0  0  0  0
    2.4930   62.3460   69.8100 C   0  0  0  0  0  0  0  0  0  0  0  0
    2.5460   62.6290   71.1850 C   0  0  0  0  0  0  0  0  0  0  0  0
    3.0340   61.6360   72.0590 C   0  0  0  0  0  0  0  0  0  0  0  0
    3.4300   60.3870   71.5570 C   0  0  0  0  0  0  0  0  0  0  0  0
    3.4830   57.7410   70.2970 C   0  0  0  0  0  0  0  0  0  0  0  0
    3.7100   58.9450   69.5770 O   0  0  0  0  0  0  0  0  0  0  0  0
    3.0980   61.9950   73.3830 O   0  0  0  0  0  0  0  0  0  0  0  0
    2.7280   61.0190   74.3500 C   0  0  0  0  0  0  0  0  0  0  0  0
    0.1410   63.5480   73.2550 C   0  0  0  0  0  0  0  0  0  0  0  0
    0.2510   64.1710   74.5110 C   0  0  0  0  0  0  0  0  0  0  0  0
   -0.3300   63.6210   75.6600 C   0  0  0  0  0  0  0  0  0  0  0  0
   -1.0450   62.4280   75.5680 C   0  0  0  0  0  0  0  0  0  0  0  0
   -1.1620   61.7730   74.3440 C   0  0  0  0  0  0  0  0  0  0  0  0
   -0.5750   62.3370   73.2050 C   0  0  0  0  0  0  0  0  0  0  0  0
   -1.7560   61.7110   77.0160 S   0  0  0  0  0  6  0  0  0  0  0  0
   -2.6660   60.6550   76.6330 O   0  0  0  0  0  0  0  0  0  0  0  0
   -2.1320   62.7600   77.9350 O   0  0  0  0  0  0  0  0  0  0  0  0
   -0.4340   60.9420   77.7090 N   0  0  0  0  0  0  0  0  0  0  0  0
    2.7898   64.1294   72.6089 H   0  0  0  0  0  0  0  0  0  0  0  0
    2.8258   65.9477   71.0299 H   0  0  0  0  0  0  0  0  0  0  0  0
    2.8345   64.7618   69.7654 H   0  0  0  0  0  0  0  0  0  0  0  0
    2.2878   67.3483   69.1624 H   0  0  0  0  0  0  0  0  0  0  0  0
    1.5123   68.8269   67.3024 H   0  0  0  0  0  0  0  0  0  0  0  0
   -2.3532   66.8955   67.3632 H   0  0  0  0  0  0  0  0  0  0  0  0
   -1.5861   65.4168   69.2208 H   0  0  0  0  0  0  0  0  0  0  0  0
    2.8315   60.8968   68.2418 H   0  0  0  0  0  0  0  0  0  0  0  0
    2.1353   63.1159   69.1105 H   0  0  0  0  0  0  0  0  0  0  0  0
    3.8032   59.6152   72.2463 H   0  0  0  0  0  0  0  0  0  0  0  0
    3.5218   57.9467   71.3769 H   0  0  0  0  0  0  0  0  0  0  0  0
    2.4932   57.3386   70.0357 H   0  0  0  0  0  0  0  0  0  0  0  0
    4.2584   57.0058   70.0357 H   0  0  0  0  0  0  0  0  0  0  0  0
    2.8825   61.4265   75.3600 H   0  0  0  0  0  0  0  0  0  0  0  0
    1.6679   60.7563   74.2188 H   0  0  0  0  0  0  0  0  0  0  0  0
    3.3476   60.1196   74.2188 H   0  0  0  0  0  0  0  0  0  0  0  0
    0.8085   65.1157   74.5929 H   0  0  0  0  0  0  0  0  0  0  0  0
   -0.2228   64.1278   76.6304 H   0  0  0  0  0  0  0  0  0  0  0  0
   -1.7102   60.8220   74.2732 H   0  0  0  0  0  0  0  0  0  0  0  0
   -0.6765   61.8175   72.2407 H   0  0  0  0  0  0  0  0  0  0  0  0
   -0.5101   60.9863   78.7352 H   0  0  0  0  0  0  0  0  0  0  0  0
   -0.4133   59.9570   77.4084 H   0  0  0  0  0  0  0  0  0  0  0  0
  2  1  1  0
  3  2  1  0
  4  3  2  0
  5  4  1  0
  5  1  1  0
  6  3  1  0
  7  6  2  0
  8  7  1  0
  9  8  2  0
 10  9  1  0
 11 10  2  0
 11  6  1  0
 12  9  1  0
 14 13  2  0
 15 14  1  0
 16 15  2  0
 16  1  1  0
 17 16  1  0
 18 13  1  0
 18 17  2  0
 20 19  1  0
 20 13  1  0
 21 17  1  0
 22 21  1  0
 23  5  1  0
 24 23  2  0
 25 24  1  0
 26 25  2  0
 27 26  1  0
 28 27  2  0
 28 23  1  0
 29 26  1  0
 30 29  2  0
 31 29  2  0
 32 29  1  0
  1 33  1  1
  2 34  1  0
  2 35  1  0
  7 36  1  0
  8 37  1  0
 10 38  1  0
 11 39  1  0
 14 40  1  0
 15 41  1  0
 18 42  1  0
 19 43  1  0
 19 44  1  0
 19 45  1  0
 22 46  1  0
 22 47  1  0
 22 48  1  0
 24 49  1  0
 25 50  1  0
 27 51  1  0
 28 52  1  0
 32 53  1  0
 32 54  1  0
M  END
>  <score>  (1) 
-8.112

$$$$
=
     RDKit          3D

 54 57  0  0  0  0  0  0  0  0999 V2000
    2.6260   68.4650   64.3550 C   0  0  1  0  0  0  0  0  0  0  0  0
    1.1460   68.5180   63.9680 C   0  0  0  0  0  0  0  0  0  0  0  0
    0.5230   68.7800   65.3110 C   0  0  0  0  0  0  0  0  0  0  0  0
    1.3600   69.0590   66.2630 N   0  0  0  0  0  0  0  0  0  0  0  0
    2.6160   68.9650   65.7360 N   0  0  0  0  0  0  0  0  0  0  0  0
   -0.9460   68.7540   65.5100 C   0  0  0  0  0  0  0  0  0  0  0  0
   -1.8300   69.1140   64.4860 C   0  0  0  0  0  0  0  0  0  0  0  0
   -3.2110   69.0770   64.7080 C   0  0  0  0  0  0  0  0  0  0  0  0
   -3.7060   68.6830   65.9510 C   0  0  0  0  0  0  0  0  0  0  0  0
   -2.8330   68.3240   66.9760 C   0  0  0  0  0  0  0  0  0  0  0  0
   -1.4540   68.3610   66.7560 C   0  0  0  0  0  0  0  0  0  0  0  0
   -5.4040   68.6400   66.2190 Cl  0  0  0  0  0  0  0  0  0  0  0  0
    4.1510   64.4190   63.9130 C   0  0  0  0  0  0  0  0  0  0  0  0
    3.2330   64.7160   64.9170 C   0  0  0  0  0  0  0  0  0  0  0  0
    2.7420   66.0120   65.0680 C   0  0  0  0  0  0  0  0  0  0  0  0
    3.1680   67.0460   64.2180 C   0  0  0  0  0  0  0  0  0  0  0  0
    4.0840   66.7390   63.1900 C   0  0  0  0  0  0  0  0  0  0  0  0
    4.5720   65.4310   63.0470 C   0  0  0  0  0  0  0  0  0  0  0  0
    5.6860   62.7970   63.0840 C   0  0  0  0  0  0  0  0  0  0  0  0
    4.5480   63.1100   63.8770 O   0  0  0  0  0  0  0  0  0  0  0  0
    4.4250   67.7870   62.3720 O   0  0  0  0  0  0  0  0  0  0  0  0
    5.6980   68.3910   62.5670 C   0  0  0  0  0  0  0  0  0  0  0  0
    3.7270   69.4230   66.4420 C   0  0  0  0  0  0  0  0  0  0  0  0
    5.0100   69.4880   65.8710 C   0  0  0  0  0  0  0  0  0  0  0  0
    6.1170   69.9460   66.5960 C   0  0  0  0  0  0  0  0  0  0  0  0
    5.9540   70.3590   67.9170 C   0  0  0  0  0  0  0  0  0  0  0  0
    4.7010   70.2940   68.5220 C   0  0  0  0  0  0  0  0  0  0  0  0
    3.6050   69.8330   67.7840 C   0  0  0  0  0  0  0  0  0  0  0  0
    7.3480   70.9110   68.8490 S   0  0  0  0  0  6  0  0  0  0  0  0
    7.4450   72.3510   68.7620 O   0  0  0  0  0  0  0  0  0  0  0  0
    8.4730   70.0430   68.5880 O   0  0  0  0  0  0  0  0  0  0  0  0
    6.8680   70.5820   70.4240 N   0  0  0  0  0  0  0  0  0  0  0  0
    3.2904   69.0618   63.7128 H   0  0  0  0  0  0  0  0  0  0  0  0
    0.9403   69.3331   63.2586 H   0  0  0  0  0  0  0  0  0  0  0  0
    0.7727   67.6187   63.4562 H   0  0  0  0  0  0  0  0  0  0  0  0
   -1.4388   69.4261   63.5064 H   0  0  0  0  0  0  0  0  0  0  0  0
   -3.9057   69.3584   63.9029 H   0  0  0  0  0  0  0  0  0  0  0  0
   -3.2281   68.0128   67.9543 H   0  0  0  0  0  0  0  0  0  0  0  0
   -0.7632   68.0803   67.5647 H   0  0  0  0  0  0  0  0  0  0  0  0
    2.8923   63.9212   65.5968 H   0  0  0  0  0  0  0  0  0  0  0  0
    2.0122   66.2275   65.8623 H   0  0  0  0  0  0  0  0  0  0  0  0
    5.2913   65.2010   62.2472 H   0  0  0  0  0  0  0  0  0  0  0  0
    6.5371   62.5629   63.7403 H   0  0  0  0  0  0  0  0  0  0  0  0
    5.4624   61.9270   62.4491 H   0  0  0  0  0  0  0  0  0  0  0  0
    5.9388   63.6590   62.4491 H   0  0  0  0  0  0  0  0  0  0  0  0
    5.8977   68.4857   63.6446 H   0  0  0  0  0  0  0  0  0  0  0  0
    6.4754   67.7657   62.1036 H   0  0  0  0  0  0  0  0  0  0  0  0
    5.7054   69.3886   62.1036 H   0  0  0  0  0  0  0  0  0  0  0  0
    5.1480   69.1706   64.8269 H   0  0  0  0  0  0  0  0  0  0  0  0
    7.1105   69.9796   66.1251 H   0  0  0  0  0  0  0  0  0  0  0  0
    4.5742   70.6022   69.5703 H   0  0  0  0  0  0  0  0  0  0  0  0
    2.6176   69.7895   68.2669 H   0  0  0  0  0  0  0  0  0  0  0  0
    7.5212   71.0297   71.0826 H   0  0  0  0  0  0  0  0  0  0  0  0
    5.9187   70.9509   70.5778 H   0  0  0  0  0  0  0  0  0  0  0  0
  2  1  1  0
  3  2  1  0
  4  3  2  0
  5  4  1  0
  5  1  1  0
  6  3  1  0
  7  6  2  0
  8  7  1  0
  9  8  2  0
 10  9  1  0
 11 10  2  0
 11  6  1  0
 12  9  1  0
 14 13  2  0
 15 14  1  0
 16 15  2  0
 16  1  1  0
 17 16  1  0
 18 13  1  0
 18 17  2  0
 20 19  1  0
 20 13  1  0
 21 17  1  0
 22 21  1  0
 23  5  1  0
 24 23  2  0
 25 24  1  0
 26 25  2  0
 27 26  1  0
 28 27  2  0
 28 23  1  0
 29 26  1  0
 30 29  2  0
 31 29  2  0
 32 29  1  0
  1 33  1  6
  2 34  1  0
  2 35  1  0
  7 36  1  0
  8 37  1  0
 10 38  1  0
 11 39  1  0
 14 40  1  0
 15 41  1  0
 18 42  1  0
 19 43  1  0
 19 44  1  0
 19 45  1  0
 22 46  1  0
 22 47  1  0
 22 48  1  0
 24 49  1  0
 25 50  1  0
 27 51  1  0
 28 52  1  0
 32 53  1  0
 32 54  1  0
M  END
>  <score>  (2) 
-7.73

$$$$
=
     RDKit          3D

 54 57  0  0  0  0  0  0  0  0999 V2000
    1.0450   59.6320   74.5570 C   0  0  1  0  0  0  0  0  0  0  0  0
    2.1180   60.3910   73.7740 C   0  0  0  0  0  0  0  0  0  0  0  0
    1.3440   60.7580   72.5380 C   0  0  0  0  0  0  0  0  0  0  0  0
    0.0690   60.5220   72.5940 N   0  0  0  0  0  0  0  0  0  0  0  0
   -0.1780   59.9280   73.7990 N   0  0  0  0  0  0  0  0  0  0  0  0
    1.9990   61.3780   71.3610 C   0  0  0  0  0  0  0  0  0  0  0  0
    1.7540   62.7090   71.0030 C   0  0  0  0  0  0  0  0  0  0  0  0
    2.3900   63.2610   69.8860 C   0  0  0  0  0  0  0  0  0  0  0  0
    3.2670   62.4850   69.1290 C   0  0  0  0  0  0  0  0  0  0  0  0
    3.5150   61.1590   69.4770 C   0  0  0  0  0  0  0  0  0  0  0  0
    2.8810   60.6060   70.5920 C   0  0  0  0  0  0  0  0  0  0  0  0
    4.0450   63.1690   67.7560 Cl  0  0  0  0  0  0  0  0  0  0  0  0
    2.0530   55.4100   74.7740 C   0  0  0  0  0  0  0  0  0  0  0  0
    1.5160   55.9420   73.6050 C   0  0  0  0  0  0  0  0  0  0  0  0
    1.1860   57.2950   73.5290 C   0  0  0  0  0  0  0  0  0  0  0  0
    1.3800   58.1450   74.6290 C   0  0  0  0  0  0  0  0  0  0  0  0
    1.9400   57.6070   75.8070 C   0  0  0  0  0  0  0  0  0  0  0  0
    2.2690   56.2450   75.8730 C   0  0  0  0  0  0  0  0  0  0  0  0
    1.3350   53.1770   75.1900 C   0  0  0  0  0  0  0  0  0  0  0  0
    2.3310   54.0710   74.7110 O   0  0  0  0  0  0  0  0  0  0  0  0
    2.1400   58.5030   76.8280 O   0  0  0  0  0  0  0  0  0  0  0  0
    3.4820   58.8100   77.1840 C   0  0  0  0  0  0  0  0  0  0  0  0
   -1.4820   59.7530   74.2580 C   0  0  0  0  0  0  0  0  0  0  0  0
   -1.8780   58.6210   74.9940 C   0  0  0  0  0  0  0  0  0  0  0  0
   -3.1930   58.4590   75.4440 C   0  0  0  0  0  0  0  0  0  0  0  0
   -4.1440   59.4400   75.1690 C   0  0  0  0  0  0  0  0  0  0  0  0
   -3.7930   60.5670   74.4290 C   0  0  0  0  0  0  0  0  0  0  0  0
   -2.4740   60.7140   73.9860 C   0  0  0  0  0  0  0  0  0  0  0  0
   -5.8120   59.2300   75.7070 S   0  0  0  0  0  6  0  0  0  0  0  0
   -6.2050   60.3650   76.5110 O   0  0  0  0  0  0  0  0  0  0  0  0
   -6.0060   57.8680   76.1460 O   0  0  0  0  0  0  0  0  0  0  0  0
   -6.6640   59.3770   74.2670 N   0  0  0  0  0  0  0  0  0  0  0  0
    0.9500   59.9297   75.6117 H   0  0  0  0  0  0  0  0  0  0  0  0
    2.4630   61.2830   74.3173 H   0  0  0  0  0  0  0  0  0  0  0  0
    3.0395   59.8203   73.5863 H   0  0  0  0  0  0  0  0  0  0  0  0
    1.0615   63.3207   71.5999 H   0  0  0  0  0  0  0  0  0  0  0  0
    2.1983   64.3071   69.6049 H   0  0  0  0  0  0  0  0  0  0  0  0
    4.2069   60.5503   68.8764 H   0  0  0  0  0  0  0  0  0  0  0  0
    3.0748   59.5590   70.8682 H   0  0  0  0  0  0  0  0  0  0  0  0
    1.3507   55.2902   72.7345 H   0  0  0  0  0  0  0  0  0  0  0  0
    0.7686   57.7009   72.5957 H   0  0  0  0  0  0  0  0  0  0  0  0
    2.7001   55.8315   76.7966 H   0  0  0  0  0  0  0  0  0  0  0  0
    1.3382   53.1798   76.2900 H   0  0  0  0  0  0  0  0  0  0  0  0
    0.3481   53.4981   74.8253 H   0  0  0  0  0  0  0  0  0  0  0  0
    1.5480   52.1613   74.8253 H   0  0  0  0  0  0  0  0  0  0  0  0
    3.5749   58.8313   78.2799 H   0  0  0  0  0  0  0  0  0  0  0  0
    4.1549   58.0426   76.7738 H   0  0  0  0  0  0  0  0  0  0  0  0
    3.7543   59.7936   76.7738 H   0  0  0  0  0  0  0  0  0  0  0  0
   -1.1344   57.8430   75.2216 H   0  0  0  0  0  0  0  0  0  0  0  0
   -3.4751   57.5607   76.0127 H   0  0  0  0  0  0  0  0  0  0  0  0
   -4.5459   61.3342   74.1952 H   0  0  0  0  0  0  0  0  0  0  0  0
   -2.2035   61.6091   73.4067 H   0  0  0  0  0  0  0  0  0  0  0  0
   -7.6586   59.5486   74.4725 H   0  0  0  0  0  0  0  0  0  0  0  0
   -6.2850   60.1650   73.7227 H   0  0  0  0  0  0  0  0  0  0  0  0
  2  1  1  0
  3  2  1  0
  4  3  2  0
  5  4  1  0
  5  1  1  0
  6  3  1  0
  7  6  2  0
  8  7  1  0
  9  8  2  0
 10  9  1  0
 11 10  2  0
 11  6  1  0
 12  9  1  0
 14 13  2  0
 15 14  1  0
 16 15  2  0
 16  1  1  0
 17 16  1  0
 18 13  1  0
 18 17  2  0
 20 19  1  0
 20 13  1  0
 21 17  1  0
 22 21  1  0
 23  5  1  0
 24 23  2  0
 25 24  1  0
 26 25  2  0
 27 26  1  0
 28 27  2  0
 28 23  1  0
 29 26  1  0
 30 29  2  0
 31 29  2  0
 32 29  1  0
  1 33  1  1
  2 34  1  0
  2 35  1  0
  7 36  1  0
  8 37  1  0
 10 38  1  0
 11 39  1  0
 14 40  1  0
 15 41  1  0
 18 42  1  0
 19 43  1  0
 19 44  1  0
 19 45  1  0
 22 46  1  0
 22 47  1  0
 22 48  1  0
 24 49  1  0
 25 50  1  0
 27 51  1  0
 28 52  1  0
 32 53  1  0
 32 54  1  0
M  END
>  <score>  (3) 
-7.685

$$$$
=
     RDKit          3D

 54 57  0  0  0  0  0  0  0  0999 V2000
   -0.8000   60.8600   74.8860 C   0  0  1  0  0  0  0  0  0  0  0  0
   -2.0580   61.6420   75.2670 C   0  0  0  0  0  0  0  0  0  0  0  0
   -3.1230   60.6880   74.8000 C   0  0  0  0  0  0  0  0  0  0  0  0
   -2.6950   59.5180   74.4380 N   0  0  0  0  0  0  0  0  0  0  0  0
   -1.3340   59.5350   74.5440 N   0  0  0  0  0  0  0  0  0  0  0  0
   -4.5580   61.0610   74.7920 C   0  0  0  0  0  0  0  0  0  0  0  0
   -5.0170   62.2200   75.4310 C   0  0  0  0  0  0  0  0  0  0  0  0
   -6.3780   62.5410   75.4040 C   0  0  0  0  0  0  0  0  0  0  0  0
   -7.2780   61.7060   74.7410 C   0  0  0  0  0  0  0  0  0  0  0  0
   -6.8300   60.5520   74.1040 C   0  0  0  0  0  0  0  0  0  0  0  0
   -5.4710   60.2290   74.1300 C   0  0  0  0  0  0  0  0  0  0  0  0
   -8.9510   62.1060   74.7110 Cl  0  0  0  0  0  0  0  0  0  0  0  0
    1.3050   62.8500   71.6450 C   0  0  0  0  0  0  0  0  0  0  0  0
   -0.0770   62.6840   71.5850 C   0  0  0  0  0  0  0  0  0  0  0  0
   -0.7590   62.0440   72.6200 C   0  0  0  0  0  0  0  0  0  0  0  0
   -0.0680   61.5450   73.7360 C   0  0  0  0  0  0  0  0  0  0  0  0
    1.3290   61.7290   73.8020 C   0  0  0  0  0  0  0  0  0  0  0  0
    2.0050   62.3750   72.7560 C   0  0  0  0  0  0  0  0  0  0  0  0
    3.2530   63.6870   70.5610 C   0  0  0  0  0  0  0  0  0  0  0  0
    1.8450   63.4950   70.5660 O   0  0  0  0  0  0  0  0  0  0  0  0
    1.9340   61.2540   74.9390 O   0  0  0  0  0  0  0  0  0  0  0  0
    3.0220   60.3510   74.7800 C   0  0  0  0  0  0  0  0  0  0  0  0
   -0.5910   58.3610   74.4420 C   0  0  0  0  0  0  0  0  0  0  0  0
   -0.8180   57.2500   75.2740 C   0  0  0  0  0  0  0  0  0  0  0  0
   -0.0590   56.0780   75.1610 C   0  0  0  0  0  0  0  0  0  0  0  0
    0.9440   55.9960   74.1980 C   0  0  0  0  0  0  0  0  0  0  0  0
    1.2090   57.0810   73.3660 C   0  0  0  0  0  0  0  0  0  0  0  0
    0.4420   58.2450   73.4920 C   0  0  0  0  0  0  0  0  0  0  0  0
    1.9250   54.5330   74.0690 S   0  0  0  0  0  6  0  0  0  0  0  0
    2.5860   54.5100   72.7830 O   0  0  0  0  0  0  0  0  0  0  0  0
    1.1760   53.4060   74.5730 O   0  0  0  0  0  0  0  0  0  0  0  0
    3.1360   54.8250   75.1960 N   0  0  0  0  0  0  0  0  0  0  0  0
   -0.0404   60.7973   75.6792 H   0  0  0  0  0  0  0  0  0  0  0  0
   -2.1155   61.8161   76.3516 H   0  0  0  0  0  0  0  0  0  0  0  0
   -2.1215   62.6501   74.8316 H   0  0  0  0  0  0  0  0  0  0  0  0
   -4.3070   62.8776   75.9540 H   0  0  0  0  0  0  0  0  0  0  0  0
   -6.7387   63.4513   75.9052 H   0  0  0  0  0  0  0  0  0  0  0  0
   -7.5433   59.8970   73.5822 H   0  0  0  0  0  0  0  0  0  0  0  0
   -5.1157   59.3168   73.6282 H   0  0  0  0  0  0  0  0  0  0  0  0
   -0.6346   63.0605   70.7148 H   0  0  0  0  0  0  0  0  0  0  0  0
   -1.8514   61.9288   72.5612 H   0  0  0  0  0  0  0  0  0  0  0  0
    3.0955   62.5084   72.8115 H   0  0  0  0  0  0  0  0  0  0  0  0
    3.6199   63.7370   71.5968 H   0  0  0  0  0  0  0  0  0  0  0  0
    3.7358   62.8464   70.0412 H   0  0  0  0  0  0  0  0  0  0  0  0
    3.4931   64.6262   70.0412 H   0  0  0  0  0  0  0  0  0  0  0  0
    3.3916   60.0443   75.7696 H   0  0  0  0  0  0  0  0  0  0  0  0
    2.6842   59.4642   74.2237 H   0  0  0  0  0  0  0  0  0  0  0  0
    3.8314   60.8464   74.2237 H   0  0  0  0  0  0  0  0  0  0  0  0
   -1.6122   57.3027   76.0332 H   0  0  0  0  0  0  0  0  0  0  0  0
   -0.2542   55.2266   75.8296 H   0  0  0  0  0  0  0  0  0  0  0  0
    2.0130   57.0237   72.6174 H   0  0  0  0  0  0  0  0  0  0  0  0
    0.6528   59.0962   72.8279 H   0  0  0  0  0  0  0  0  0  0  0  0
    2.7502   54.7320   76.1465 H   0  0  0  0  0  0  0  0  0  0  0  0
    3.8973   54.1435   75.0663 H   0  0  0  0  0  0  0  0  0  0  0  0
  2  1  1  0
  3  2  1  0
  4  3  2  0
  5  4  1  0
  5  1  1  0
  6  3  1  0
  7  6  2  0
  8  7  1  0
  9  8  2  0
 10  9  1  0
 11 10  2  0
 11  6  1  0
 12  9  1  0
 14 13  2  0
 15 14  1  0
 16 15  2  0
 16  1  1  0
 17 16  1  0
 18 13  1  0
 18 17  2  0
 20 19  1  0
 20 13  1  0
 21 17  1  0
 22 21  1  0
 23  5  1  0
 24 23  2  0
 25 24  1  0
 26 25  2  0
 27 26  1  0
 28 27  2  0
 28 23  1  0
 29 26  1  0
 30 29  2  0
 31 29  2  0
 32 29  1  0
  1 33  1  1
  2 34  1  0
  2 35  1  0
  7 36  1  0
  8 37  1  0
 10 38  1  0
 11 39  1  0
 14 40  1  0
 15 41  1  0
 18 42  1  0
 19 43  1  0
 19 44  1  0
 19 45  1  0
 22 46  1  0
 22 47  1  0
 22 48  1  0
 24 49  1  0
 25 50  1  0
 27 51  1  0
 28 52  1  0
 32 53  1  0
 32 54  1  0
M  END
>  <score>  (4) 
-7.287

$$$$
=
     RDKit          3D

 54 57  0  0  0  0  0  0  0  0999 V2000
    0.9610   59.4040   73.6470 C   0  0  1  0  0  0  0  0  0  0  0  0
    0.8890   60.2680   72.3870 C   0  0  0  0  0  0  0  0  0  0  0  0
    1.4960   61.5460   72.8980 C   0  0  0  0  0  0  0  0  0  0  0  0
    2.0300   61.4690   74.0780 N   0  0  0  0  0  0  0  0  0  0  0  0
    1.8140   60.2020   74.5380 N   0  0  0  0  0  0  0  0  0  0  0  0
    1.5050   62.7860   72.0860 C   0  0  0  0  0  0  0  0  0  0  0  0
    2.6060   63.1330   71.2940 C   0  0  0  0  0  0  0  0  0  0  0  0
    2.5810   64.3120   70.5400 C   0  0  0  0  0  0  0  0  0  0  0  0
    1.4600   65.1400   70.5790 C   0  0  0  0  0  0  0  0  0  0  0  0
    0.3610   64.8020   71.3660 C   0  0  0  0  0  0  0  0  0  0  0  0
    0.3840   63.6270   72.1190 C   0  0  0  0  0  0  0  0  0  0  0  0
    1.4350   66.5880   69.6500 Cl  0  0  0  0  0  0  0  0  0  0  0  0
   -3.0270   58.6240   75.1910 C   0  0  0  0  0  0  0  0  0  0  0  0
   -2.6990   59.8870   74.7030 C   0  0  0  0  0  0  0  0  0  0  0  0
   -1.4210   60.1460   74.2100 C   0  0  0  0  0  0  0  0  0  0  0  0
   -0.4360   59.1440   74.2020 C   0  0  0  0  0  0  0  0  0  0  0  0
   -0.7760   57.8620   74.6810 C   0  0  0  0  0  0  0  0  0  0  0  0
   -2.0650   57.6110   75.1750 C   0  0  0  0  0  0  0  0  0  0  0  0
   -5.3530   58.6070   74.6770 C   0  0  0  0  0  0  0  0  0  0  0  0
   -4.3140   58.5080   75.6420 O   0  0  0  0  0  0  0  0  0  0  0  0
    0.2210   56.9210   74.6060 O   0  0  0  0  0  0  0  0  0  0  0  0
   -0.0350   55.7450   73.8470 C   0  0  0  0  0  0  0  0  0  0  0  0
    2.4580   59.7340   75.6820 C   0  0  0  0  0  0  0  0  0  0  0  0
    3.1900   58.5340   75.6980 C   0  0  0  0  0  0  0  0  0  0  0  0
    3.8280   58.0750   76.8570 C   0  0  0  0  0  0  0  0  0  0  0  0
    3.7490   58.8230   78.0300 C   0  0  0  0  0  0  0  0  0  0  0  0
    3.0190   60.0090   78.0580 C   0  0  0  0  0  0  0  0  0  0  0  0
    2.3870   60.4530   76.8910 C   0  0  0  0  0  0  0  0  0  0  0  0
    4.5250   58.2380   79.5040 S   0  0  0  0  0  6  0  0  0  0  0  0
    3.6230   57.3510   80.2030 O   0  0  0  0  0  0  0  0  0  0  0  0
    5.1930   59.3360   80.1630 O   0  0  0  0  0  0  0  0  0  0  0  0
    5.7430   57.2570   78.8910 N   0  0  0  0  0  0  0  0  0  0  0  0
    1.3719   58.3959   73.4895 H   0  0  0  0  0  0  0  0  0  0  0  0
    1.4798   59.8378   71.5649 H   0  0  0  0  0  0  0  0  0  0  0  0
   -0.1197   60.3767   71.9620 H   0  0  0  0  0  0  0  0  0  0  0  0
    3.4903   62.4794   71.2643 H   0  0  0  0  0  0  0  0  0  0  0  0
    3.4454   64.5851   69.9170 H   0  0  0  0  0  0  0  0  0  0  0  0
   -0.5212   65.4585   71.3938 H   0  0  0  0  0  0  0  0  0  0  0  0
   -0.4823   63.3594   72.7418 H   0  0  0  0  0  0  0  0  0  0  0  0
   -3.4546   60.6864   74.7067 H   0  0  0  0  0  0  0  0  0  0  0  0
   -1.1808   61.1471   73.8225 H   0  0  0  0  0  0  0  0  0  0  0  0
   -2.3199   56.6097   75.5523 H   0  0  0  0  0  0  0  0  0  0  0  0
   -6.3219   58.6993   75.1896 H   0  0  0  0  0  0  0  0  0  0  0  0
   -5.1854   59.4932   74.0473 H   0  0  0  0  0  0  0  0  0  0  0  0
   -5.3558   57.7051   74.0473 H   0  0  0  0  0  0  0  0  0  0  0  0
   -0.2186   54.9014   74.5286 H   0  0  0  0  0  0  0  0  0  0  0  0
   -0.9197   55.9033   73.2128 H   0  0  0  0  0  0  0  0  0  0  0  0
    0.8355   55.5212   73.2128 H   0  0  0  0  0  0  0  0  0  0  0  0
    3.2636   57.9396   74.7754 H   0  0  0  0  0  0  0  0  0  0  0  0
    4.3887   57.1287   76.8415 H   0  0  0  0  0  0  0  0  0  0  0  0
    2.9401   60.5908   78.9882 H   0  0  0  0  0  0  0  0  0  0  0  0
    1.8168   61.3932   76.9188 H   0  0  0  0  0  0  0  0  0  0  0  0
    6.2679   56.8342   79.6698 H   0  0  0  0  0  0  0  0  0  0  0  0
    5.3264   56.5127   78.3136 H   0  0  0  0  0  0  0  0  0  0  0  0
  2  1  1  0
  3  2  1  0
  4  3  2  0
  5  4  1  0
  5  1  1  0
  6  3  1  0
  7  6  2  0
  8  7  1  0
  9  8  2  0
 10  9  1  0
 11 10  2  0
 11  6  1  0
 12  9  1  0
 14 13  2  0
 15 14  1  0
 16 15  2  0
 16  1  1  0
 17 16  1  0
 18 13  1  0
 18 17  2  0
 20 19  1  0
 20 13  1  0
 21 17  1  0
 22 21  1  0
 23  5  1  0
 24 23  2  0
 25 24  1  0
 26 25  2  0
 27 26  1  0
 28 27  2  0
 28 23  1  0
 29 26  1  0
 30 29  2  0
 31 29  2  0
 32 29  1  0
  1 33  1  6
  2 34  1  0
  2 35  1  0
  7 36  1  0
  8 37  1  0
 10 38  1  0
 11 39  1  0
 14 40  1  0
 15 41  1  0
 18 42  1  0
 19 43  1  0
 19 44  1  0
 19 45  1  0
 22 46  1  0
 22 47  1  0
 22 48  1  0
 24 49  1  0
 25 50  1  0
 27 51  1  0
 28 52  1  0
 32 53  1  0
 32 54  1  0
M  END
>  <score>  (5) 
-7.173

$$$$
=
     RDKit          3D

 54 57  0  0  0  0  0  0  0  0999 V2000
   -1.1430   59.3410   74.0000 C   0  0  1  0  0  0  0  0  0  0  0  0
   -0.5730   60.5000   73.1790 C   0  0  0  0  0  0  0  0  0  0  0  0
    0.8130   59.9840   72.9050 C   0  0  0  0  0  0  0  0  0  0  0  0
    1.0170   58.7470   73.2400 N   0  0  0  0  0  0  0  0  0  0  0  0
   -0.1310   58.2910   73.8210 N   0  0  0  0  0  0  0  0  0  0  0  0
    1.8490   60.8290   72.2660 C   0  0  0  0  0  0  0  0  0  0  0  0
    3.0210   60.2760   71.7360 C   0  0  0  0  0  0  0  0  0  0  0  0
    3.9780   61.1040   71.1400 C   0  0  0  0  0  0  0  0  0  0  0  0
    3.7650   62.4800   71.0740 C   0  0  0  0  0  0  0  0  0  0  0  0
    2.6020   63.0390   71.5990 C   0  0  0  0  0  0  0  0  0  0  0  0
    1.6450   62.2140   72.1960 C   0  0  0  0  0  0  0  0  0  0  0  0
    4.9450   63.4930   70.3400 Cl  0  0  0  0  0  0  0  0  0  0  0  0
   -1.7530   60.5750   78.1230 C   0  0  0  0  0  0  0  0  0  0  0  0
   -0.4650   60.5020   77.5970 C   0  0  0  0  0  0  0  0  0  0  0  0
   -0.2610   60.1030   76.2760 C   0  0  0  0  0  0  0  0  0  0  0  0
   -1.3460   59.7590   75.4530 C   0  0  0  0  0  0  0  0  0  0  0  0
   -2.6500   59.8510   75.9830 C   0  0  0  0  0  0  0  0  0  0  0  0
   -2.8440   60.2540   77.3120 C   0  0  0  0  0  0  0  0  0  0  0  0
   -0.6260   61.5370   79.9880 C   0  0  0  0  0  0  0  0  0  0  0  0
   -1.8090   60.9810   79.4280 O   0  0  0  0  0  0  0  0  0  0  0  0
   -3.6640   59.5400   75.1110 O   0  0  0  0  0  0  0  0  0  0  0  0
   -4.5670   60.5790   74.7510 C   0  0  0  0  0  0  0  0  0  0  0  0
   -0.3110   56.9350   74.0870 C   0  0  0  0  0  0  0  0  0  0  0  0
   -1.4340   56.4440   74.7770 C   0  0  0  0  0  0  0  0  0  0  0  0
   -1.5980   55.0780   75.0400 C   0  0  0  0  0  0  0  0  0  0  0  0
   -0.6330   54.1710   74.6050 C   0  0  0  0  0  0  0  0  0  0  0  0
    0.5010   54.6220   73.9330 C   0  0  0  0  0  0  0  0  0  0  0  0
    0.6490   55.9890   73.6790 C   0  0  0  0  0  0  0  0  0  0  0  0
   -0.8160   52.4510   74.9580 S   0  0  0  0  0  6  0  0  0  0  0  0
   -1.8390   52.2730   75.9640 O   0  0  0  0  0  0  0  0  0  0  0  0
    0.4890   51.8420   75.0680 O   0  0  0  0  0  0  0  0  0  0  0  0
   -1.4780   51.8700   73.5290 N   0  0  0  0  0  0  0  0  0  0  0  0
   -2.1402   59.0008   73.6839 H   0  0  0  0  0  0  0  0  0  0  0  0
   -1.1395   60.6566   72.2492 H   0  0  0  0  0  0  0  0  0  0  0  0
   -0.6077   61.4784   73.6805 H   0  0  0  0  0  0  0  0  0  0  0  0
    3.1892   59.1902   71.7883 H   0  0  0  0  0  0  0  0  0  0  0  0
    4.8986   60.6693   70.7234 H   0  0  0  0  0  0  0  0  0  0  0  0
    2.4377   64.1253   71.5439 H   0  0  0  0  0  0  0  0  0  0  0  0
    0.7270   62.6537   72.6131 H   0  0  0  0  0  0  0  0  0  0  0  0
    0.3978   60.7610   78.2283 H   0  0  0  0  0  0  0  0  0  0  0  0
    0.7619   60.0572   75.8740 H   0  0  0  0  0  0  0  0  0  0  0  0
   -3.8638   60.3179   77.7193 H   0  0  0  0  0  0  0  0  0  0  0  0
   -0.6906   61.5066   81.0857 H   0  0  0  0  0  0  0  0  0  0  0  0
    0.2459   60.9544   79.6557 H   0  0  0  0  0  0  0  0  0  0  0  0
   -0.5182   62.5801   79.6557 H   0  0  0  0  0  0  0  0  0  0  0  0
   -4.9718   61.0448   75.6616 H   0  0  0  0  0  0  0  0  0  0  0  0
   -4.0357   61.3369   74.1566 H   0  0  0  0  0  0  0  0  0  0  0  0
   -5.3915   60.1586   74.1566 H   0  0  0  0  0  0  0  0  0  0  0  0
   -2.2038   57.1514   75.1191 H   0  0  0  0  0  0  0  0  0  0  0  0
   -2.4838   54.7228   75.5870 H   0  0  0  0  0  0  0  0  0  0  0  0
    1.2725   53.9096   73.6054 H   0  0  0  0  0  0  0  0  0  0  0  0
    1.5444   56.3368   73.1430 H   0  0  0  0  0  0  0  0  0  0  0  0
   -2.2347   51.2059   73.7463 H   0  0  0  0  0  0  0  0  0  0  0  0
   -1.8575   52.6559   72.9820 H   0  0  0  0  0  0  0  0  0  0  0  0
  2  1  1  0
  3  2  1  0
  4  3  2  0
  5  4  1  0
  5  1  1  0
  6  3  1  0
  7  6  2  0
  8  7  1  0
  9  8  2  0
 10  9  1  0
 11 10  2  0
 11  6  1  0
 12  9  1  0
 14 13  2  0
 15 14  1  0
 16 15  2  0
 16  1  1  0
 17 16  1  0
 18 13  1  0
 18 17  2  0
 20 19  1  0
 20 13  1  0
 21 17  1  0
 22 21  1  0
 23  5  1  0
 24 23  2  0
 25 24  1  0
 26 25  2  0
 27 26  1  0
 28 27  2  0
 28 23  1  0
 29 26  1  0
 30 29  2  0
 31 29  2  0
 32 29  1  0
  1 33  1  6
  2 34  1  0
  2 35  1  0
  7 36  1  0
  8 37  1  0
 10 38  1  0
 11 39  1  0
 14 40  1  0
 15 41  1  0
 18 42  1  0
 19 43  1  0
 19 44  1  0
 19 45  1  0
 22 46  1  0
 22 47  1  0
 22 48  1  0
 24 49  1  0
 25 50  1  0
 27 51  1  0
 28 52  1  0
 32 53  1  0
 32 54  1  0
M  END
>  <score>  (6) 
-7.03

$$$$
=
     RDKit          3D

 54 57  0  0  0  0  0  0  0  0999 V2000
    0.3590   59.6960   74.4920 C   0  0  1  0  0  0  0  0  0  0  0  0
    0.5890   60.8480   73.5120 C   0  0  0  0  0  0  0  0  0  0  0  0
    1.4510   60.1650   72.4860 C   0  0  0  0  0  0  0  0  0  0  0  0
    1.5580   58.8790   72.6230 N   0  0  0  0  0  0  0  0  0  0  0  0
    0.8660   58.5340   73.7490 N   0  0  0  0  0  0  0  0  0  0  0  0
    2.0970   60.9160   71.3830 C   0  0  0  0  0  0  0  0  0  0  0  0
    1.7720   62.2520   71.1180 C   0  0  0  0  0  0  0  0  0  0  0  0
    2.4010   62.9300   70.0690 C   0  0  0  0  0  0  0  0  0  0  0  0
    3.3510   62.2740   69.2860 C   0  0  0  0  0  0  0  0  0  0  0  0
    3.6790   60.9450   69.5420 C   0  0  0  0  0  0  0  0  0  0  0  0
    3.0520   60.2660   70.5890 C   0  0  0  0  0  0  0  0  0  0  0  0
    4.1220   63.1130   67.9970 Cl  0  0  0  0  0  0  0  0  0  0  0  0
    2.4320   60.4820   78.2310 C   0  0  0  0  0  0  0  0  0  0  0  0
    3.0740   59.7910   77.2050 C   0  0  0  0  0  0  0  0  0  0  0  0
    2.4140   59.5320   76.0050 C   0  0  0  0  0  0  0  0  0  0  0  0
    1.0890   59.9530   75.8070 C   0  0  0  0  0  0  0  0  0  0  0  0
    0.4470   60.6670   76.8400 C   0  0  0  0  0  0  0  0  0  0  0  0
    1.1190   60.9230   78.0440 C   0  0  0  0  0  0  0  0  0  0  0  0
    4.4600   60.0250   79.3910 C   0  0  0  0  0  0  0  0  0  0  0  0
    3.1940   60.6690   79.3520 O   0  0  0  0  0  0  0  0  0  0  0  0
   -0.8320   61.0830   76.5630 O   0  0  0  0  0  0  0  0  0  0  0  0
   -1.1110   62.4740   76.6650 C   0  0  0  0  0  0  0  0  0  0  0  0
    0.6010   57.1990   74.0480 C   0  0  0  0  0  0  0  0  0  0  0  0
    1.6030   56.2120   74.0470 C   0  0  0  0  0  0  0  0  0  0  0  0
    1.3190   54.8740   74.3460 C   0  0  0  0  0  0  0  0  0  0  0  0
    0.0140   54.4990   74.6600 C   0  0  0  0  0  0  0  0  0  0  0  0
   -1.0080   55.4450   74.6550 C   0  0  0  0  0  0  0  0  0  0  0  0
   -0.7080   56.7780   74.3540 C   0  0  0  0  0  0  0  0  0  0  0  0
   -0.3590   52.8090   75.0090 S   0  0  0  0  0  6  0  0  0  0  0  0
   -0.8840   52.1770   73.8190 O   0  0  0  0  0  0  0  0  0  0  0  0
   -1.0230   52.7170   76.2880 O   0  0  0  0  0  0  0  0  0  0  0  0
    1.1700   52.1530   75.2340 N   0  0  0  0  0  0  0  0  0  0  0  0
   -0.6882   59.5555   74.7978 H   0  0  0  0  0  0  0  0  0  0  0  0
   -0.3556   61.2054   73.0761 H   0  0  0  0  0  0  0  0  0  0  0  0
    1.0343   61.7490   73.9591 H   0  0  0  0  0  0  0  0  0  0  0  0
    1.0218   62.7683   71.7350 H   0  0  0  0  0  0  0  0  0  0  0  0
    2.1468   63.9799   69.8615 H   0  0  0  0  0  0  0  0  0  0  0  0
    4.4290   60.4321   68.9220 H   0  0  0  0  0  0  0  0  0  0  0  0
    3.3089   59.2158   70.7916 H   0  0  0  0  0  0  0  0  0  0  0  0
    4.1097   59.4473   77.3433 H   0  0  0  0  0  0  0  0  0  0  0  0
    2.9376   58.9910   75.2030 H   0  0  0  0  0  0  0  0  0  0  0  0
    0.6089   61.4750   78.8472 H   0  0  0  0  0  0  0  0  0  0  0  0
    4.7613   59.8717   80.4378 H   0  0  0  0  0  0  0  0  0  0  0  0
    4.3922   59.0518   78.8827 H   0  0  0  0  0  0  0  0  0  0  0  0
    5.2066   60.6529   78.8827 H   0  0  0  0  0  0  0  0  0  0  0  0
   -1.1683   62.7597   77.7257 H   0  0  0  0  0  0  0  0  0  0  0  0
   -0.3096   63.0457   76.1741 H   0  0  0  0  0  0  0  0  0  0  0  0
   -2.0708   62.6924   76.1741 H   0  0  0  0  0  0  0  0  0  0  0  0
    2.6370   56.4988   73.8049 H   0  0  0  0  0  0  0  0  0  0  0  0
    2.1221   54.1224   74.3331 H   0  0  0  0  0  0  0  0  0  0  0  0
   -2.0415   55.1470   74.8855 H   0  0  0  0  0  0  0  0  0  0  0  0
   -1.5196   57.5205   74.3564 H   0  0  0  0  0  0  0  0  0  0  0  0
    1.3631   52.0702   76.2423 H   0  0  0  0  0  0  0  0  0  0  0  0
    1.2109   51.2203   74.7988 H   0  0  0  0  0  0  0  0  0  0  0  0
  2  1  1  0
  3  2  1  0
  4  3  2  0
  5  4  1  0
  5  1  1  0
  6  3  1  0
  7  6  2  0
  8  7  1  0
  9  8  2  0
 10  9  1  0
 11 10  2  0
 11  6  1  0
 12  9  1  0
 14 13  2  0
 15 14  1  0
 16 15  2  0
 16  1  1  0
 17 16  1  0
 18 13  1  0
 18 17  2  0
 20 19  1  0
 20 13  1  0
 21 17  1  0
 22 21  1  0
 23  5  1  0
 24 23  2  0
 25 24  1  0
 26 25  2  0
 27 26  1  0
 28 27  2  0
 28 23  1  0
 29 26  1  0
 30 29  2  0
 31 29  2  0
 32 29  1  0
  1 33  1  1
  2 34  1  0
  2 35  1  0
  7 36  1  0
  8 37  1  0
 10 38  1  0
 11 39  1  0
 14 40  1  0
 15 41  1  0
 18 42  1  0
 19 43  1  0
 19 44  1  0
 19 45  1  0
 22 46  1  0
 22 47  1  0
 22 48  1  0
 24 49  1  0
 25 50  1  0
 27 51  1  0
 28 52  1  0
 32 53  1  0
 32 54  1  0
M  END
>  <score>  (7) 
-6.967

$$$$
=
     RDKit          3D

 54 57  0  0  0  0  0  0  0  0999 V2000
    0.7250   60.6520   74.7990 C   0  0  1  0  0  0  0  0  0  0  0  0
    1.9100   61.0520   73.9170 C   0  0  0  0  0  0  0  0  0  0  0  0
    1.1850   61.5460   72.6950 C   0  0  0  0  0  0  0  0  0  0  0  0
   -0.1010   61.6630   72.8270 N   0  0  0  0  0  0  0  0  0  0  0  0
   -0.4210   61.2230   74.0790 N   0  0  0  0  0  0  0  0  0  0  0  0
    1.9050   61.9040   71.4500 C   0  0  0  0  0  0  0  0  0  0  0  0
    2.6000   60.9430   70.7050 C   0  0  0  0  0  0  0  0  0  0  0  0
    3.2690   61.3160   69.5340 C   0  0  0  0  0  0  0  0  0  0  0  0
    3.2440   62.6440   69.1100 C   0  0  0  0  0  0  0  0  0  0  0  0
    2.5560   63.6060   69.8460 C   0  0  0  0  0  0  0  0  0  0  0  0
    1.8870   63.2360   71.0150 C   0  0  0  0  0  0  0  0  0  0  0  0
    4.0690   63.0960   67.6700 Cl  0  0  0  0  0  0  0  0  0  0  0  0
    0.5940   56.3310   75.2520 C   0  0  0  0  0  0  0  0  0  0  0  0
    0.0300   56.9360   74.1310 C   0  0  0  0  0  0  0  0  0  0  0  0
    0.0650   58.3210   73.9800 C   0  0  0  0  0  0  0  0  0  0  0  0
    0.6600   59.1360   74.9570 C   0  0  0  0  0  0  0  0  0  0  0  0
    1.2450   58.5210   76.0830 C   0  0  0  0  0  0  0  0  0  0  0  0
    1.2050   57.1260   76.2250 C   0  0  0  0  0  0  0  0  0  0  0  0
    0.1830   54.3200   74.0450 C   0  0  0  0  0  0  0  0  0  0  0  0
    0.4910   54.9670   75.2730 O   0  0  0  0  0  0  0  0  0  0  0  0
    1.8450   59.3740   76.9770 O   0  0  0  0  0  0  0  0  0  0  0  0
    3.2430   59.2290   77.1910 C   0  0  0  0  0  0  0  0  0  0  0  0
   -1.6930   61.4290   74.6090 C   0  0  0  0  0  0  0  0  0  0  0  0
   -2.8390   60.8050   74.0840 C   0  0  0  0  0  0  0  0  0  0  0  0
   -4.1110   61.0260   74.6250 C   0  0  0  0  0  0  0  0  0  0  0  0
   -4.2580   61.8780   75.7180 C   0  0  0  0  0  0  0  0  0  0  0  0
   -3.1490   62.5260   76.2560 C   0  0  0  0  0  0  0  0  0  0  0  0
   -1.8840   62.2950   75.7030 C   0  0  0  0  0  0  0  0  0  0  0  0
   -5.8620   62.1850   76.3890 S   0  0  0  0  0  6  0  0  0  0  0  0
   -5.9170   63.5350   76.9040 O   0  0  0  0  0  0  0  0  0  0  0  0
   -6.2840   61.0430   77.1670 O   0  0  0  0  0  0  0  0  0  0  0  0
   -6.8220   62.1840   75.0110 N   0  0  0  0  0  0  0  0  0  0  0  0
    0.7771   61.0213   75.8338 H   0  0  0  0  0  0  0  0  0  0  0  0
    2.5123   61.8468   74.3813 H   0  0  0  0  0  0  0  0  0  0  0  0
    2.6338   60.2457   73.7270 H   0  0  0  0  0  0  0  0  0  0  0  0
    2.6199   59.8955   71.0403 H   0  0  0  0  0  0  0  0  0  0  0  0
    3.8145   60.5616   68.9481 H   0  0  0  0  0  0  0  0  0  0  0  0
    2.5396   64.6527   69.5080 H   0  0  0  0  0  0  0  0  0  0  0  0
    1.3431   63.9943   71.5973 H   0  0  0  0  0  0  0  0  0  0  0  0
   -0.4471   56.3152   73.3584 H   0  0  0  0  0  0  0  0  0  0  0  0
   -0.3787   58.7814   73.0849 H   0  0  0  0  0  0  0  0  0  0  0  0
    1.6582   56.6543   77.1094 H   0  0  0  0  0  0  0  0  0  0  0  0
   -0.2814   53.3444   74.2510 H   0  0  0  0  0  0  0  0  0  0  0  0
   -0.5149   54.9436   73.4670 H   0  0  0  0  0  0  0  0  0  0  0  0
    1.1070   54.1715   73.4670 H   0  0  0  0  0  0  0  0  0  0  0  0
    3.4483   59.2077   78.2715 H   0  0  0  0  0  0  0  0  0  0  0  0
    3.5885   58.2902   76.7336 H   0  0  0  0  0  0  0  0  0  0  0  0
    3.7739   60.0769   76.7336 H   0  0  0  0  0  0  0  0  0  0  0  0
   -2.7329   60.1254   73.2256 H   0  0  0  0  0  0  0  0  0  0  0  0
   -4.9906   60.5294   74.1894 H   0  0  0  0  0  0  0  0  0  0  0  0
   -3.2659   63.2127   77.1073 H   0  0  0  0  0  0  0  0  0  0  0  0
   -1.0117   62.8060   76.1366 H   0  0  0  0  0  0  0  0  0  0  0  0
   -7.8151   62.1830   75.2844 H   0  0  0  0  0  0  0  0  0  0  0  0
   -6.6207   63.0252   74.4517 H   0  0  0  0  0  0  0  0  0  0  0  0
  2  1  1  0
  3  2  1  0
  4  3  2  0
  5  4  1  0
  5  1  1  0
  6  3  1  0
  7  6  2  0
  8  7  1  0
  9  8  2  0
 10  9  1  0
 11 10  2  0
 11  6  1  0
 12  9  1  0
 14 13  2  0
 15 14  1  0
 16 15  2  0
 16  1  1  0
 17 16  1  0
 18 13  1  0
 18 17  2  0
 20 19  1  0
 20 13  1  0
 21 17  1  0
 22 21  1  0
 23  5  1  0
 24 23  2  0
 25 24  1  0
 26 25  2  0
 27 26  1  0
 28 27  2  0
 28 23  1  0
 29 26  1  0
 30 29  2  0
 31 29  2  0
 32 29  1  0
  1 33  1  1
  2 34  1  0
  2 35  1  0
  7 36  1  0
  8 37  1  0
 10 38  1  0
 11 39  1  0
 14 40  1  0
 15 41  1  0
 18 42  1  0
 19 43  1  0
 19 44  1  0
 19 45  1  0
 22 46  1  0
 22 47  1  0
 22 48  1  0
 24 49  1  0
 25 50  1  0
 27 51  1  0
 28 52  1  0
 32 53  1  0
 32 54  1  0
M  END
>  <score>  (8) 
-6.626

$$$$
=
     RDKit          3D

 54 57  0  0  0  0  0  0  0  0999 V2000
   -0.4280   62.6480   75.5750 C   0  0  1  0  0  0  0  0  0  0  0  0
    0.6500   63.2020   74.6420 C   0  0  0  0  0  0  0  0  0  0  0  0
    0.2890   62.5000   73.3620 C   0  0  0  0  0  0  0  0  0  0  0  0
   -0.8400   61.8600   73.3830 N   0  0  0  0  0  0  0  0  0  0  0  0
   -1.3480   61.9790   74.6450 N   0  0  0  0  0  0  0  0  0  0  0  0
    1.1530   62.5730   72.1600 C   0  0  0  0  0  0  0  0  0  0  0  0
    1.8020   61.4400   71.6540 C   0  0  0  0  0  0  0  0  0  0  0  0
    2.6100   61.5460   70.5170 C   0  0  0  0  0  0  0  0  0  0  0  0
    2.7710   62.7810   69.8890 C   0  0  0  0  0  0  0  0  0  0  0  0
    2.1300   63.9130   70.3860 C   0  0  0  0  0  0  0  0  0  0  0  0
    1.3230   63.8100   71.5210 C   0  0  0  0  0  0  0  0  0  0  0  0
    3.7660   62.9050   68.4920 Cl  0  0  0  0  0  0  0  0  0  0  0  0
    1.3590   60.0230   78.5440 C   0  0  0  0  0  0  0  0  0  0  0  0
    1.2440   59.6080   77.2190 C   0  0  0  0  0  0  0  0  0  0  0  0
    0.6690   60.4430   76.2620 C   0  0  0  0  0  0  0  0  0  0  0  0
    0.1850   61.7130   76.6130 C   0  0  0  0  0  0  0  0  0  0  0  0
    0.3180   62.1390   77.9520 C   0  0  0  0  0  0  0  0  0  0  0  0
    0.8990   61.2910   78.9070 C   0  0  0  0  0  0  0  0  0  0  0  0
    2.6230   58.0170   78.7680 C   0  0  0  0  0  0  0  0  0  0  0  0
    1.9430   59.1080   79.3760 O   0  0  0  0  0  0  0  0  0  0  0  0
   -0.1380   63.4060   78.2160 O   0  0  0  0  0  0  0  0  0  0  0  0
   -0.5560   63.6950   79.5440 C   0  0  0  0  0  0  0  0  0  0  0  0
   -2.6560   61.5920   74.9320 C   0  0  0  0  0  0  0  0  0  0  0  0
   -3.2360   60.4330   74.3870 C   0  0  0  0  0  0  0  0  0  0  0  0
   -4.5530   60.0610   74.6820 C   0  0  0  0  0  0  0  0  0  0  0  0
   -5.3170   60.8480   75.5420 C   0  0  0  0  0  0  0  0  0  0  0  0
   -4.7820   62.0120   76.0880 C   0  0  0  0  0  0  0  0  0  0  0  0
   -3.4640   62.3700   75.7830 C   0  0  0  0  0  0  0  0  0  0  0  0
   -6.9880   60.4030   75.8960 S   0  0  0  0  0  6  0  0  0  0  0  0
   -7.6190   61.4620   76.6520 O   0  0  0  0  0  0  0  0  0  0  0  0
   -7.0390   59.0210   76.3130 O   0  0  0  0  0  0  0  0  0  0  0  0
   -7.6920   60.4510   74.3720 N   0  0  0  0  0  0  0  0  0  0  0  0
   -0.9448   63.4074   76.1801 H   0  0  0  0  0  0  0  0  0  0  0  0
    0.5773   64.2949   74.5406 H   0  0  0  0  0  0  0  0  0  0  0  0
    1.6824   63.0340   74.9824 H   0  0  0  0  0  0  0  0  0  0  0  0
    1.6764   60.4666   72.1506 H   0  0  0  0  0  0  0  0  0  0  0  0
    3.1182   60.6556   70.1183 H   0  0  0  0  0  0  0  0  0  0  0  0
    2.2589   64.8845   69.8865 H   0  0  0  0  0  0  0  0  0  0  0  0
    0.8179   64.7038   71.9160 H   0  0  0  0  0  0  0  0  0  0  0  0
    1.6100   58.6131   76.9254 H   0  0  0  0  0  0  0  0  0  0  0  0
    0.5937   60.1023   75.2188 H   0  0  0  0  0  0  0  0  0  0  0  0
    0.9930   61.6275   79.9501 H   0  0  0  0  0  0  0  0  0  0  0  0
    3.0329   57.3594   79.5488 H   0  0  0  0  0  0  0  0  0  0  0  0
    1.9188   57.4488   78.1425 H   0  0  0  0  0  0  0  0  0  0  0  0
    3.4433   58.3989   78.1425 H   0  0  0  0  0  0  0  0  0  0  0  0
    0.1329   63.2187   80.2571 H   0  0  0  0  0  0  0  0  0  0  0  0
   -0.5514   64.7837   79.7011 H   0  0  0  0  0  0  0  0  0  0  0  0
   -1.5729   63.3062   79.7011 H   0  0  0  0  0  0  0  0  0  0  0  0
   -2.6396   59.8022   73.7114 H   0  0  0  0  0  0  0  0  0  0  0  0
   -4.9830   59.1516   74.2370 H   0  0  0  0  0  0  0  0  0  0  0  0
   -5.3895   62.6439   76.7526 H   0  0  0  0  0  0  0  0  0  0  0  0
   -3.0461   63.2880   76.2219 H   0  0  0  0  0  0  0  0  0  0  0  0
   -8.7151   60.5208   74.4685 H   0  0  0  0  0  0  0  0  0  0  0  0
   -7.3391   61.2699   73.8564 H   0  0  0  0  0  0  0  0  0  0  0  0
  2  1  1  0
  3  2  1  0
  4  3  2  0
  5  4  1  0
  5  1  1  0
  6  3  1  0
  7  6  2  0
  8  7  1  0
  9  8  2  0
 10  9  1  0
 11 10  2  0
 11  6  1  0
 12  9  1  0
 14 13  2  0
 15 14  1  0
 16 15  2  0
 16  1  1  0
 17 16  1  0
 18 13  1  0
 18 17  2  0
 20 19  1  0
 20 13  1  0
 21 17  1  0
 22 21  1  0
 23  5  1  0
 24 23  2  0
 25 24  1  0
 26 25  2  0
 27 26  1  0
 28 27  2  0
 28 23  1  0
 29 26  1  0
 30 29  2  0
 31 29  2  0
 32 29  1  0
  1 33  1  1
  2 34  1  0
  2 35  1  0
  7 36  1  0
  8 37  1  0
 10 38  1  0
 11 39  1  0
 14 40  1  0
 15 41  1  0
 18 42  1  0
 19 43  1  0
 19 44  1  0
 19 45  1  0
 22 46  1  0
 22 47  1  0
 22 48  1  0
 24 49  1  0
 25 50  1  0
 27 51  1  0
 28 52  1  0
 32 53  1  0
 32 54  1  0
M  END
>  <score>  (9) 
-6.128

$$$$
