=
     RDKit          3D

 69 74  0  0  0  0  0  0  0  0999 V2000
    0.9050   62.4160   72.4610 C   0  0  0  0  0  0  0  0  0  0  0  0
    0.4670   63.4770   73.2640 C   0  0  0  0  0  0  0  0  0  0  0  0
    0.1710   64.7230   72.6990 C   0  0  0  0  0  0  0  0  0  0  0  0
    0.3220   64.9210   71.3270 C   0  0  0  0  0  0  0  0  0  0  0  0
    0.7690   63.8660   70.5270 C   0  0  0  0  0  0  0  0  0  0  0  0
    1.0660   62.6190   71.0860 C   0  0  0  0  0  0  0  0  0  0  0  0
    0.4410   60.1650   72.9850 O   0  0  0  0  0  0  0  0  0  0  0  0
    1.2090   61.1110   73.1130 C   0  0  0  0  0  0  0  0  0  0  0  0
    2.3930   61.0430   73.8200 N   0  0  0  0  0  0  0  0  0  0  0  0
    2.8760   59.7720   74.3330 C   0  0  0  0  0  0  0  0  0  0  0  0
    4.0050   59.1850   73.4820 C   0  0  0  0  0  0  0  0  0  0  0  0
    3.8380   59.4310   72.0120 C   0  0  0  0  0  0  0  0  0  0  0  0
    3.3630   58.5250   71.0820 C   0  0  0  0  0  0  0  0  0  0  0  0
    3.3590   59.1300   69.8550 N   0  0  0  0  0  0  0  0  0  0  0  0
    3.8280   60.4170   69.9580 C   0  0  0  0  0  0  0  0  0  0  0  0
    4.1310   60.6390   71.3020 C   0  0  0  0  0  0  0  0  0  0  0  0
    4.6280   61.9040   71.6770 C   0  0  0  0  0  0  0  0  0  0  0  0
    4.8070   62.8930   70.7030 C   0  0  0  0  0  0  0  0  0  0  0  0
    4.4980   62.6390   69.3700 C   0  0  0  0  0  0  0  0  0  0  0  0
    4.0020   61.3950   68.9700 C   0  0  0  0  0  0  0  0  0  0  0  0
    0.0700   66.0820   70.6510 O   0  0  0  0  0  0  0  0  0  0  0  0
    1.0970   66.5660   69.7880 C   0  0  0  0  0  0  0  0  0  0  0  0
    0.4550   67.3350   68.6330 C   0  0  0  0  0  0  0  0  0  0  0  0
    1.3800   67.5470   67.4280 C   0  0  0  0  0  0  0  0  0  0  0  0
    1.5200   69.0090   67.0000 C   0  0  0  0  0  0  0  0  0  0  0  0
    2.8610   69.3000   66.5060 N   0  0  0  0  0  0  0  0  0  0  0  0
    3.2730   69.1230   65.1990 C   0  0  0  0  0  0  0  0  0  0  0  0
    2.5810   68.6690   64.0620 C   0  0  0  0  0  0  0  0  0  0  0  0
    3.2760   68.5950   62.8520 C   0  0  0  0  0  0  0  0  0  0  0  0
    4.6150   68.9640   62.7710 C   0  0  0  0  0  0  0  0  0  0  0  0
    5.2930   69.4170   63.9060 C   0  0  0  0  0  0  0  0  0  0  0  0
    4.6160   69.5010   65.1420 C   0  0  0  0  0  0  0  0  0  0  0  0
    5.0050   69.9180   66.4530 C   0  0  0  0  0  0  0  0  0  0  0  0
    3.8930   69.7870   67.2870 C   0  0  0  0  0  0  0  0  0  0  0  0
    3.9450   70.1240   68.6510 C   0  0  0  0  0  0  0  0  0  0  0  0
    5.1530   70.6000   69.1690 C   0  0  0  0  0  0  0  0  0  0  0  0
    6.2740   70.7370   68.3580 C   0  0  0  0  0  0  0  0  0  0  0  0
    6.2120   70.4010   67.0020 C   0  0  0  0  0  0  0  0  0  0  0  0
    0.3547   63.3297   74.3483 H   0  0  0  0  0  0  0  0  0  0  0  0
   -0.1810   65.5465   73.3377 H   0  0  0  0  0  0  0  0  0  0  0  0
    0.8887   64.0183   69.4442 H   0  0  0  0  0  0  0  0  0  0  0  0
    1.4254   61.7996   70.4462 H   0  0  0  0  0  0  0  0  0  0  0  0
    2.9388   61.9007   73.9853 H   0  0  0  0  0  0  0  0  0  0  0  0
    3.2488   59.9239   75.3567 H   0  0  0  0  0  0  0  0  0  0  0  0
    2.0363   59.0619   74.3085 H   0  0  0  0  0  0  0  0  0  0  0  0
    4.9547   59.6366   73.8046 H   0  0  0  0  0  0  0  0  0  0  0  0
    3.9885   58.0953   73.6309 H   0  0  0  0  0  0  0  0  0  0  0  0
    3.0430   57.4939   71.2926 H   0  0  0  0  0  0  0  0  0  0  0  0
    3.0489   58.6845   68.9797 H   0  0  0  0  0  0  0  0  0  0  0  0
    4.8736   62.1124   72.7288 H   0  0  0  0  0  0  0  0  0  0  0  0
    5.1955   63.8802   70.9938 H   0  0  0  0  0  0  0  0  0  0  0  0
    4.6464   63.4295   68.6196 H   0  0  0  0  0  0  0  0  0  0  0  0
    3.7570   61.1911   67.9172 H   0  0  0  0  0  0  0  0  0  0  0  0
    1.7659   67.2347   70.3496 H   0  0  0  0  0  0  0  0  0  0  0  0
    1.6798   65.7207   69.3933 H   0  0  0  0  0  0  0  0  0  0  0  0
   -0.4292   66.7748   68.2948 H   0  0  0  0  0  0  0  0  0  0  0  0
    0.2045   68.3341   69.0189 H   0  0  0  0  0  0  0  0  0  0  0  0
    2.3786   67.1655   67.6873 H   0  0  0  0  0  0  0  0  0  0  0  0
    0.9276   67.0097   66.5814 H   0  0  0  0  0  0  0  0  0  0  0  0
    0.7928   69.2180   66.2016 H   0  0  0  0  0  0  0  0  0  0  0  0
    1.3331   69.6432   67.8791 H   0  0  0  0  0  0  0  0  0  0  0  0
    1.5214   68.3800   64.1235 H   0  0  0  0  0  0  0  0  0  0  0  0
    2.7566   68.2396   61.9498 H   0  0  0  0  0  0  0  0  0  0  0  0
    5.1430   68.8988   61.8082 H   0  0  0  0  0  0  0  0  0  0  0  0
    6.3517   69.7074   63.8365 H   0  0  0  0  0  0  0  0  0  0  0  0
    3.0587   70.0160   69.2935 H   0  0  0  0  0  0  0  0  0  0  0  0
    5.2176   70.8700   70.2334 H   0  0  0  0  0  0  0  0  0  0  0  0
    7.2155   71.1120   68.7857 H   0  0  0  0  0  0  0  0  0  0  0  0
    7.1017   70.5129   66.3649 H   0  0  0  0  0  0  0  0  0  0  0  0
  2  1  2  0
  3  2  1  0
  4  3  2  0
  5  4  1  0
  6  5  2  0
  6  1  1  0
  8  7  2  0
  8  1  1  0
  9  8  1  0
 10  9  1  0
 11 10  1  0
 12 11  1  0
 13 12  2  0
 14 13  1  0
 15 14  1  0
 16 12  1  0
 16 15  2  0
 17 16  1  0
 18 17  2  0
 19 18  1  0
 20 19  2  0
 20 15  1  0
 21  4  1  0
 22 21  1  0
 23 22  1  0
 24 23  1  0
 25 24  1  0
 26 25  1  0
 27 26  1  0
 28 27  2  0
 29 28  1  0
 30 29  2  0
 31 30  1  0
 32 31  2  0
 32 27  1  0
 33 32  1  0
 34 33  2  0
 34 26  1  0
 35 34  1  0
 36 35  2  0
 37 36  1  0
 38 33  1  0
 38 37  2  0
  2 39  1  0
  3 40  1  0
  5 41  1  0
  6 42  1  0
  9 43  1  0
 10 44  1  0
 10 45  1  0
 11 46  1  0
 11 47  1  0
 13 48  1  0
 14 49  1  0
 17 50  1  0
 18 51  1  0
 19 52  1  0
 20 53  1  0
 22 54  1  0
 22 55  1  0
 23 56  1  0
 23 57  1  0
 24 58  1  0
 24 59  1  0
 25 60  1  0
 25 61  1  0
 28 62  1  0
 29 63  1  0
 30 64  1  0
 31 65  1  0
 35 66  1  0
 36 67  1  0
 37 68  1  0
 38 69  1  0
M  END
>  <score>  (1) 
-13.02

$$$$
=
     RDKit          3D

 69 74  0  0  0  0  0  0  0  0999 V2000
    1.3620   62.9780   72.6790 C   0  0  0  0  0  0  0  0  0  0  0  0
    2.4640   63.0820   71.8200 C   0  0  0  0  0  0  0  0  0  0  0  0
    2.4730   64.0250   70.7850 C   0  0  0  0  0  0  0  0  0  0  0  0
    1.3750   64.8620   70.5930 C   0  0  0  0  0  0  0  0  0  0  0  0
    0.2720   64.7520   71.4440 C   0  0  0  0  0  0  0  0  0  0  0  0
    0.2570   63.8120   72.4800 C   0  0  0  0  0  0  0  0  0  0  0  0
    0.3650   61.4370   74.1590 O   0  0  0  0  0  0  0  0  0  0  0  0
    1.4020   61.9560   73.7620 C   0  0  0  0  0  0  0  0  0  0  0  0
    2.6530   61.6280   74.2460 N   0  0  0  0  0  0  0  0  0  0  0  0
    2.8220   60.5140   75.1640 C   0  0  0  0  0  0  0  0  0  0  0  0
    3.7150   59.4110   74.5910 C   0  0  0  0  0  0  0  0  0  0  0  0
    3.3910   59.0540   73.1710 C   0  0  0  0  0  0  0  0  0  0  0  0
    2.5350   58.0510   72.7560 C   0  0  0  0  0  0  0  0  0  0  0  0
    2.5070   58.0470   71.3890 N   0  0  0  0  0  0  0  0  0  0  0  0
    3.3330   59.0260   70.8930 C   0  0  0  0  0  0  0  0  0  0  0  0
    3.8980   59.6810   71.9880 C   0  0  0  0  0  0  0  0  0  0  0  0
    4.7880   60.7470   71.7460 C   0  0  0  0  0  0  0  0  0  0  0  0
    5.0830   61.1150   70.4280 C   0  0  0  0  0  0  0  0  0  0  0  0
    4.5050   60.4390   69.3570 C   0  0  0  0  0  0  0  0  0  0  0  0
    3.6170   59.3810   69.5680 C   0  0  0  0  0  0  0  0  0  0  0  0
    1.2550   65.8210   69.6260 O   0  0  0  0  0  0  0  0  0  0  0  0
   -0.0440   66.3700   69.4150 C   0  0  0  0  0  0  0  0  0  0  0  0
    0.0170   67.3550   68.2470 C   0  0  0  0  0  0  0  0  0  0  0  0
    1.4390   67.7290   67.8130 C   0  0  0  0  0  0  0  0  0  0  0  0
    1.5630   69.1350   67.2260 C   0  0  0  0  0  0  0  0  0  0  0  0
    2.8840   69.3670   66.6530 N   0  0  0  0  0  0  0  0  0  0  0  0
    3.9700   69.8550   67.3540 C   0  0  0  0  0  0  0  0  0  0  0  0
    4.1130   70.2240   68.7040 C   0  0  0  0  0  0  0  0  0  0  0  0
    5.3580   70.6930   69.1320 C   0  0  0  0  0  0  0  0  0  0  0  0
    6.4290   70.7910   68.2490 C   0  0  0  0  0  0  0  0  0  0  0  0
    6.2770   70.4200   66.9100 C   0  0  0  0  0  0  0  0  0  0  0  0
    5.0310   69.9420   66.4510 C   0  0  0  0  0  0  0  0  0  0  0  0
    4.5570   69.4860   65.1810 C   0  0  0  0  0  0  0  0  0  0  0  0
    3.2160   69.1290   65.3320 C   0  0  0  0  0  0  0  0  0  0  0  0
    2.4550   68.6310   64.2600 C   0  0  0  0  0  0  0  0  0  0  0  0
    3.0770   68.4990   63.0140 C   0  0  0  0  0  0  0  0  0  0  0  0
    4.4100   68.8510   62.8390 C   0  0  0  0  0  0  0  0  0  0  0  0
    5.1600   69.3430   63.9120 C   0  0  0  0  0  0  0  0  0  0  0  0
    3.3293   62.4173   71.9599 H   0  0  0  0  0  0  0  0  0  0  0  0
    3.3475   64.1054   70.1227 H   0  0  0  0  0  0  0  0  0  0  0  0
   -0.5952   65.4127   71.2974 H   0  0  0  0  0  0  0  0  0  0  0  0
   -0.6217   63.7290   73.1365 H   0  0  0  0  0  0  0  0  0  0  0  0
    3.4736   62.1777   73.9538 H   0  0  0  0  0  0  0  0  0  0  0  0
    3.2766   60.8886   76.0930 H   0  0  0  0  0  0  0  0  0  0  0  0
    1.8286   60.0781   75.3462 H   0  0  0  0  0  0  0  0  0  0  0  0
    4.7600   59.7519   74.6342 H   0  0  0  0  0  0  0  0  0  0  0  0
    3.5439   58.5095   75.1976 H   0  0  0  0  0  0  0  0  0  0  0  0
    1.9723   57.3719   73.4134 H   0  0  0  0  0  0  0  0  0  0  0  0
    1.9467   57.4022   70.8135 H   0  0  0  0  0  0  0  0  0  0  0  0
    5.2477   61.2862   72.5874 H   0  0  0  0  0  0  0  0  0  0  0  0
    5.7779   61.9460   70.2368 H   0  0  0  0  0  0  0  0  0  0  0  0
    4.7512   60.7425   68.3287 H   0  0  0  0  0  0  0  0  0  0  0  0
    3.1574   58.8460   68.7239 H   0  0  0  0  0  0  0  0  0  0  0  0
   -0.7524   65.5620   69.1797 H   0  0  0  0  0  0  0  0  0  0  0  0
   -0.3801   66.8907   70.3238 H   0  0  0  0  0  0  0  0  0  0  0  0
   -0.4982   66.9024   67.3869 H   0  0  0  0  0  0  0  0  0  0  0  0
   -0.4625   68.2832   68.5913 H   0  0  0  0  0  0  0  0  0  0  0  0
    2.0972   67.6623   68.6918 H   0  0  0  0  0  0  0  0  0  0  0  0
    1.7224   67.0263   67.0156 H   0  0  0  0  0  0  0  0  0  0  0  0
    0.8058   69.2601   66.4379 H   0  0  0  0  0  0  0  0  0  0  0  0
    1.4102   69.8601   68.0389 H   0  0  0  0  0  0  0  0  0  0  0  0
    3.2679   70.1455   69.4037 H   0  0  0  0  0  0  0  0  0  0  0  0
    5.4933   70.9891   70.1827 H   0  0  0  0  0  0  0  0  0  0  0  0
    7.4006   71.1625   68.6067 H   0  0  0  0  0  0  0  0  0  0  0  0
    7.1264   70.5004   66.2157 H   0  0  0  0  0  0  0  0  0  0  0  0
    1.3996   68.3528   64.3972 H   0  0  0  0  0  0  0  0  0  0  0  0
    2.5025   68.1108   62.1600 H   0  0  0  0  0  0  0  0  0  0  0  0
    4.8784   68.7419   61.8497 H   0  0  0  0  0  0  0  0  0  0  0  0
    6.2154   69.6175   63.7681 H   0  0  0  0  0  0  0  0  0  0  0  0
  2  1  2  0
  3  2  1  0
  4  3  2  0
  5  4  1  0
  6  5  2  0
  6  1  1  0
  8  7  2  0
  8  1  1  0
  9  8  1  0
 10  9  1  0
 11 10  1  0
 12 11  1  0
 13 12  2  0
 14 13  1  0
 15 14  1  0
 16 12  1  0
 16 15  2  0
 17 16  1  0
 18 17  2  0
 19 18  1  0
 20 19  2  0
 20 15  1  0
 21  4  1  0
 22 21  1  0
 23 22  1  0
 24 23  1  0
 25 24  1  0
 26 25  1  0
 27 26  1  0
 28 27  2  0
 29 28  1  0
 30 29  2  0
 31 30  1  0
 32 31  2  0
 32 27  1  0
 33 32  1  0
 34 33  2  0
 34 26  1  0
 35 34  1  0
 36 35  2  0
 37 36  1  0
 38 33  1  0
 38 37  2  0
  2 39  1  0
  3 40  1  0
  5 41  1  0
  6 42  1  0
  9 43  1  0
 10 44  1  0
 10 45  1  0
 11 46  1  0
 11 47  1  0
 13 48  1  0
 14 49  1  0
 17 50  1  0
 18 51  1  0
 19 52  1  0
 20 53  1  0
 22 54  1  0
 22 55  1  0
 23 56  1  0
 23 57  1  0
 24 58  1  0
 24 59  1  0
 25 60  1  0
 25 61  1  0
 28 62  1  0
 29 63  1  0
 30 64  1  0
 31 65  1  0
 35 66  1  0
 36 67  1  0
 37 68  1  0
 38 69  1  0
M  END
>  <score>  (2) 
-12.776

$$$$
=
     RDKit          3D

 69 74  0  0  0  0  0  0  0  0999 V2000
    2.3960   62.2440   71.4500 C   0  0  0  0  0  0  0  0  0  0  0  0
    3.1610   63.3340   71.0170 C   0  0  0  0  0  0  0  0  0  0  0  0
    2.5420   64.5110   70.5800 C   0  0  0  0  0  0  0  0  0  0  0  0
    1.1500   64.6020   70.5610 C   0  0  0  0  0  0  0  0  0  0  0  0
    0.3860   63.5110   70.9850 C   0  0  0  0  0  0  0  0  0  0  0  0
    1.0000   62.3330   71.4220 C   0  0  0  0  0  0  0  0  0  0  0  0
    3.7910   61.0370   72.9180 O   0  0  0  0  0  0  0  0  0  0  0  0
    3.1060   61.0150   71.9020 C   0  0  0  0  0  0  0  0  0  0  0  0
    2.9140   59.8820   71.1370 N   0  0  0  0  0  0  0  0  0  0  0  0
    3.4020   58.5910   71.5910 C   0  0  0  0  0  0  0  0  0  0  0  0
    2.2710   57.6370   71.9800 C   0  0  0  0  0  0  0  0  0  0  0  0
    1.7950   57.8150   73.3910 C   0  0  0  0  0  0  0  0  0  0  0  0
    2.2810   57.1570   74.5050 C   0  0  0  0  0  0  0  0  0  0  0  0
    1.5900   57.5970   75.6010 N   0  0  0  0  0  0  0  0  0  0  0  0
    0.6530   58.5310   75.2290 C   0  0  0  0  0  0  0  0  0  0  0  0
    0.7610   58.6940   73.8470 C   0  0  0  0  0  0  0  0  0  0  0  0
   -0.0960   59.6170   73.2120 C   0  0  0  0  0  0  0  0  0  0  0  0
   -1.0260   60.3340   73.9740 C   0  0  0  0  0  0  0  0  0  0  0  0
   -1.1110   60.1450   75.3510 C   0  0  0  0  0  0  0  0  0  0  0  0
   -0.2720   59.2390   76.0060 C   0  0  0  0  0  0  0  0  0  0  0  0
    0.4210   65.6870   70.1600 O   0  0  0  0  0  0  0  0  0  0  0  0
    1.1490   66.8200   69.6910 C   0  0  0  0  0  0  0  0  0  0  0  0
    0.4590   67.3710   68.4420 C   0  0  0  0  0  0  0  0  0  0  0  0
    1.4110   67.6590   67.2740 C   0  0  0  0  0  0  0  0  0  0  0  0
    1.6560   69.1470   67.0230 C   0  0  0  0  0  0  0  0  0  0  0  0
    3.0090   69.3960   66.5360 N   0  0  0  0  0  0  0  0  0  0  0  0
    4.0470   69.8740   67.3130 C   0  0  0  0  0  0  0  0  0  0  0  0
    4.1060   70.2150   68.6760 C   0  0  0  0  0  0  0  0  0  0  0  0
    5.3190   70.6800   69.1900 C   0  0  0  0  0  0  0  0  0  0  0  0
    6.4410   70.8010   68.3760 C   0  0  0  0  0  0  0  0  0  0  0  0
    6.3740   70.4580   67.0230 C   0  0  0  0  0  0  0  0  0  0  0  0
    5.1610   69.9850   66.4780 C   0  0  0  0  0  0  0  0  0  0  0  0
    4.7690   69.5530   65.1730 C   0  0  0  0  0  0  0  0  0  0  0  0
    3.4230   69.1880   65.2340 C   0  0  0  0  0  0  0  0  0  0  0  0
    2.7320   68.7090   64.1070 C   0  0  0  0  0  0  0  0  0  0  0  0
    3.4290   68.6060   62.8990 C   0  0  0  0  0  0  0  0  0  0  0  0
    4.7680   68.9660   62.8140 C   0  0  0  0  0  0  0  0  0  0  0  0
    5.4480   69.4390   63.9410 C   0  0  0  0  0  0  0  0  0  0  0  0
    4.2588   63.2647   71.0203 H   0  0  0  0  0  0  0  0  0  0  0  0
    3.1533   65.3644   70.2515 H   0  0  0  0  0  0  0  0  0  0  0  0
   -0.7118   63.5799   70.9748 H   0  0  0  0  0  0  0  0  0  0  0  0
    0.3867   61.4781   71.7431 H   0  0  0  0  0  0  0  0  0  0  0  0
    2.4201   59.9525   70.2359 H   0  0  0  0  0  0  0  0  0  0  0  0
    3.9875   58.1313   70.7812 H   0  0  0  0  0  0  0  0  0  0  0  0
    4.0149   58.7637   72.4880 H   0  0  0  0  0  0  0  0  0  0  0  0
    1.4220   57.8092   71.3021 H   0  0  0  0  0  0  0  0  0  0  0  0
    2.6690   56.6147   71.9000 H   0  0  0  0  0  0  0  0  0  0  0  0
    3.0860   56.4074   74.5097 H   0  0  0  0  0  0  0  0  0  0  0  0
    1.7492   57.2745   76.5662 H   0  0  0  0  0  0  0  0  0  0  0  0
   -0.0339   59.7724   72.1248 H   0  0  0  0  0  0  0  0  0  0  0  0
   -1.6959   61.0534   73.4804 H   0  0  0  0  0  0  0  0  0  0  0  0
   -1.8494   60.7172   75.9319 H   0  0  0  0  0  0  0  0  0  0  0  0
   -0.3362   59.0875   77.0936 H   0  0  0  0  0  0  0  0  0  0  0  0
    1.1709   67.5939   70.4724 H   0  0  0  0  0  0  0  0  0  0  0  0
    2.1803   66.5251   69.4472 H   0  0  0  0  0  0  0  0  0  0  0  0
   -0.2863   66.6349   68.1063 H   0  0  0  0  0  0  0  0  0  0  0  0
    0.0085   68.3330   68.7277 H   0  0  0  0  0  0  0  0  0  0  0  0
    2.3779   67.1810   67.4901 H   0  0  0  0  0  0  0  0  0  0  0  0
    0.9330   67.2582   66.3680 H   0  0  0  0  0  0  0  0  0  0  0  0
    0.9355   69.5055   66.2731 H   0  0  0  0  0  0  0  0  0  0  0  0
    1.5307   69.6810   67.9765 H   0  0  0  0  0  0  0  0  0  0  0  0
    3.2200   70.1181   69.3207 H   0  0  0  0  0  0  0  0  0  0  0  0
    5.3880   70.9543   70.2530 H   0  0  0  0  0  0  0  0  0  0  0  0
    7.3868   71.1690   68.8003 H   0  0  0  0  0  0  0  0  0  0  0  0
    7.2642   70.5564   66.3844 H   0  0  0  0  0  0  0  0  0  0  0  0
    1.6719   68.4230   64.1737 H   0  0  0  0  0  0  0  0  0  0  0  0
    2.9095   68.2346   62.0033 H   0  0  0  0  0  0  0  0  0  0  0  0
    5.2972   68.8785   61.8536 H   0  0  0  0  0  0  0  0  0  0  0  0
    6.5086   69.7212   63.8674 H   0  0  0  0  0  0  0  0  0  0  0  0
  2  1  2  0
  3  2  1  0
  4  3  2  0
  5  4  1  0
  6  5  2  0
  6  1  1  0
  8  7  2  0
  8  1  1  0
  9  8  1  0
 10  9  1  0
 11 10  1  0
 12 11  1  0
 13 12  2  0
 14 13  1  0
 15 14  1  0
 16 12  1  0
 16 15  2  0
 17 16  1  0
 18 17  2  0
 19 18  1  0
 20 19  2  0
 20 15  1  0
 21  4  1  0
 22 21  1  0
 23 22  1  0
 24 23  1  0
 25 24  1  0
 26 25  1  0
 27 26  1  0
 28 27  2  0
 29 28  1  0
 30 29  2  0
 31 30  1  0
 32 31  2  0
 32 27  1  0
 33 32  1  0
 34 33  2  0
 34 26  1  0
 35 34  1  0
 36 35  2  0
 37 36  1  0
 38 33  1  0
 38 37  2  0
  2 39  1  0
  3 40  1  0
  5 41  1  0
  6 42  1  0
  9 43  1  0
 10 44  1  0
 10 45  1  0
 11 46  1  0
 11 47  1  0
 13 48  1  0
 14 49  1  0
 17 50  1  0
 18 51  1  0
 19 52  1  0
 20 53  1  0
 22 54  1  0
 22 55  1  0
 23 56  1  0
 23 57  1  0
 24 58  1  0
 24 59  1  0
 25 60  1  0
 25 61  1  0
 28 62  1  0
 29 63  1  0
 30 64  1  0
 31 65  1  0
 35 66  1  0
 36 67  1  0
 37 68  1  0
 38 69  1  0
M  END
>  <score>  (3) 
-12.193

$$$$
=
     RDKit          3D

 69 74  0  0  0  0  0  0  0  0999 V2000
    2.4610   62.4690   71.6660 C   0  0  0  0  0  0  0  0  0  0  0  0
    3.1730   63.4620   70.9810 C   0  0  0  0  0  0  0  0  0  0  0  0
    2.5010   64.5280   70.3720 C   0  0  0  0  0  0  0  0  0  0  0  0
    1.1110   64.6030   70.4320 C   0  0  0  0  0  0  0  0  0  0  0  0
    0.3990   63.6070   71.1080 C   0  0  0  0  0  0  0  0  0  0  0  0
    1.0650   62.5400   71.7180 C   0  0  0  0  0  0  0  0  0  0  0  0
    4.3050   61.5740   72.8320 O   0  0  0  0  0  0  0  0  0  0  0  0
    3.2250   61.3550   72.2950 C   0  0  0  0  0  0  0  0  0  0  0  0
    2.6310   60.1090   72.2570 N   0  0  0  0  0  0  0  0  0  0  0  0
    3.1970   58.9970   73.0020 C   0  0  0  0  0  0  0  0  0  0  0  0
    2.5230   58.7960   74.3610 C   0  0  0  0  0  0  0  0  0  0  0  0
    2.5950   57.3850   74.8620 C   0  0  0  0  0  0  0  0  0  0  0  0
    3.5540   56.8690   75.7140 C   0  0  0  0  0  0  0  0  0  0  0  0
    3.2690   55.5490   75.9340 N   0  0  0  0  0  0  0  0  0  0  0  0
    2.1420   55.1830   75.2380 C   0  0  0  0  0  0  0  0  0  0  0  0
    1.6910   56.3160   74.5600 C   0  0  0  0  0  0  0  0  0  0  0  0
    0.5280   56.2060   73.7700 C   0  0  0  0  0  0  0  0  0  0  0  0
   -0.1340   54.9760   73.6830 C   0  0  0  0  0  0  0  0  0  0  0  0
    0.3430   53.8630   74.3700 C   0  0  0  0  0  0  0  0  0  0  0  0
    1.4920   53.9450   75.1620 C   0  0  0  0  0  0  0  0  0  0  0  0
    0.3340   65.5850   69.8820 O   0  0  0  0  0  0  0  0  0  0  0  0
    0.9680   66.8290   69.5960 C   0  0  0  0  0  0  0  0  0  0  0  0
    0.3730   67.4070   68.3120 C   0  0  0  0  0  0  0  0  0  0  0  0
    1.3960   67.6370   67.1930 C   0  0  0  0  0  0  0  0  0  0  0  0
    1.6160   69.1090   66.8410 C   0  0  0  0  0  0  0  0  0  0  0  0
    2.9810   69.3580   66.3910 N   0  0  0  0  0  0  0  0  0  0  0  0
    3.9970   69.8410   67.1930 C   0  0  0  0  0  0  0  0  0  0  0  0
    4.0180   70.1860   68.5560 C   0  0  0  0  0  0  0  0  0  0  0  0
    5.2170   70.6550   69.1010 C   0  0  0  0  0  0  0  0  0  0  0  0
    6.3600   70.7750   68.3170 C   0  0  0  0  0  0  0  0  0  0  0  0
    6.3300   70.4270   66.9630 C   0  0  0  0  0  0  0  0  0  0  0  0
    5.1330   69.9500   66.3880 C   0  0  0  0  0  0  0  0  0  0  0  0
    4.7760   69.5130   65.0740 C   0  0  0  0  0  0  0  0  0  0  0  0
    3.4290   69.1460   65.1010 C   0  0  0  0  0  0  0  0  0  0  0  0
    2.7690   68.6620   63.9570 C   0  0  0  0  0  0  0  0  0  0  0  0
    3.4990   68.5560   62.7690 C   0  0  0  0  0  0  0  0  0  0  0  0
    4.8400   68.9190   62.7180 C   0  0  0  0  0  0  0  0  0  0  0  0
    5.4880   69.3960   63.8610 C   0  0  0  0  0  0  0  0  0  0  0  0
    4.2698   63.4034   70.9212 H   0  0  0  0  0  0  0  0  0  0  0  0
    3.0709   65.3076   69.8453 H   0  0  0  0  0  0  0  0  0  0  0  0
   -0.6983   63.6639   71.1603 H   0  0  0  0  0  0  0  0  0  0  0  0
    0.4924   61.7578   72.2379 H   0  0  0  0  0  0  0  0  0  0  0  0
    1.7792   59.9665   71.6957 H   0  0  0  0  0  0  0  0  0  0  0  0
    3.0764   58.0781   72.4095 H   0  0  0  0  0  0  0  0  0  0  0  0
    4.2574   59.2244   73.1862 H   0  0  0  0  0  0  0  0  0  0  0  0
    3.0159   59.4513   75.0943 H   0  0  0  0  0  0  0  0  0  0  0  0
    1.4580   59.0396   74.2328 H   0  0  0  0  0  0  0  0  0  0  0  0
    4.4014   57.4248   76.1419 H   0  0  0  0  0  0  0  0  0  0  0  0
    3.8201   54.9198   76.5351 H   0  0  0  0  0  0  0  0  0  0  0  0
    0.1437   57.0812   73.2257 H   0  0  0  0  0  0  0  0  0  0  0  0
   -1.0402   54.8878   73.0657 H   0  0  0  0  0  0  0  0  0  0  0  0
   -0.1919   52.9053   74.2884 H   0  0  0  0  0  0  0  0  0  0  0  0
    1.8721   53.0680   75.7063 H   0  0  0  0  0  0  0  0  0  0  0  0
    0.7997   67.5286   70.4280 H   0  0  0  0  0  0  0  0  0  0  0  0
    2.0495   66.6742   69.4677 H   0  0  0  0  0  0  0  0  0  0  0  0
   -0.3922   66.7089   67.9417 H   0  0  0  0  0  0  0  0  0  0  0  0
   -0.0394   68.3934   68.5709 H   0  0  0  0  0  0  0  0  0  0  0  0
    2.3585   67.2105   67.5119 H   0  0  0  0  0  0  0  0  0  0  0  0
    0.9942   67.1518   66.2912 H   0  0  0  0  0  0  0  0  0  0  0  0
    0.9189   69.3916   66.0384 H   0  0  0  0  0  0  0  0  0  0  0  0
    1.4387   69.7082   67.7463 H   0  0  0  0  0  0  0  0  0  0  0  0
    3.1151   70.0895   69.1769 H   0  0  0  0  0  0  0  0  0  0  0  0
    5.2572   70.9330   70.1645 H   0  0  0  0  0  0  0  0  0  0  0  0
    7.2935   71.1461   68.7652 H   0  0  0  0  0  0  0  0  0  0  0  0
    7.2368   70.5248   66.3480 H   0  0  0  0  0  0  0  0  0  0  0  0
    1.7079   68.3748   63.9958 H   0  0  0  0  0  0  0  0  0  0  0  0
    3.0047   68.1797   61.8612 H   0  0  0  0  0  0  0  0  0  0  0  0
    5.3946   68.8303   61.7722 H   0  0  0  0  0  0  0  0  0  0  0  0
    6.5499   69.6794   63.8152 H   0  0  0  0  0  0  0  0  0  0  0  0
  2  1  2  0
  3  2  1  0
  4  3  2  0
  5  4  1  0
  6  5  2  0
  6  1  1  0
  8  7  2  0
  8  1  1  0
  9  8  1  0
 10  9  1  0
 11 10  1  0
 12 11  1  0
 13 12  2  0
 14 13  1  0
 15 14  1  0
 16 12  1  0
 16 15  2  0
 17 16  1  0
 18 17  2  0
 19 18  1  0
 20 19  2  0
 20 15  1  0
 21  4  1  0
 22 21  1  0
 23 22  1  0
 24 23  1  0
 25 24  1  0
 26 25  1  0
 27 26  1  0
 28 27  2  0
 29 28  1  0
 30 29  2  0
 31 30  1  0
 32 31  2  0
 32 27  1  0
 33 32  1  0
 34 33  2  0
 34 26  1  0
 35 34  1  0
 36 35  2  0
 37 36  1  0
 38 33  1  0
 38 37  2  0
  2 39  1  0
  3 40  1  0
  5 41  1  0
  6 42  1  0
  9 43  1  0
 10 44  1  0
 10 45  1  0
 11 46  1  0
 11 47  1  0
 13 48  1  0
 14 49  1  0
 17 50  1  0
 18 51  1  0
 19 52  1  0
 20 53  1  0
 22 54  1  0
 22 55  1  0
 23 56  1  0
 23 57  1  0
 24 58  1  0
 24 59  1  0
 25 60  1  0
 25 61  1  0
 28 62  1  0
 29 63  1  0
 30 64  1  0
 31 65  1  0
 35 66  1  0
 36 67  1  0
 37 68  1  0
 38 69  1  0
M  END
>  <score>  (4) 
-11.961

$$$$
=
     RDKit          3D

 69 74  0  0  0  0  0  0  0  0999 V2000
    2.0820   62.6900   71.2860 C   0  0  0  0  0  0  0  0  0  0  0  0
    2.8490   63.7550   70.7970 C   0  0  0  0  0  0  0  0  0  0  0  0
    2.2320   64.9240   70.3350 C   0  0  0  0  0  0  0  0  0  0  0  0
    0.8420   65.0310   70.3480 C   0  0  0  0  0  0  0  0  0  0  0  0
    0.0760   63.9650   70.8270 C   0  0  0  0  0  0  0  0  0  0  0  0
    0.6870   62.7950   71.2900 C   0  0  0  0  0  0  0  0  0  0  0  0
    4.0120   61.4080   71.7220 O   0  0  0  0  0  0  0  0  0  0  0  0
    2.7890   61.4680   71.7640 C   0  0  0  0  0  0  0  0  0  0  0  0
    1.9920   60.4600   72.2680 N   0  0  0  0  0  0  0  0  0  0  0  0
    2.5850   59.3110   72.9310 C   0  0  0  0  0  0  0  0  0  0  0  0
    2.1240   57.9820   72.3290 C   0  0  0  0  0  0  0  0  0  0  0  0
    1.2930   57.1560   73.2650 C   0  0  0  0  0  0  0  0  0  0  0  0
    1.5560   55.8570   73.6610 C   0  0  0  0  0  0  0  0  0  0  0  0
    0.5680   55.4600   74.5190 N   0  0  0  0  0  0  0  0  0  0  0  0
   -0.3460   56.4710   74.6930 C   0  0  0  0  0  0  0  0  0  0  0  0
    0.0850   57.5530   73.9240 C   0  0  0  0  0  0  0  0  0  0  0  0
   -0.6850   58.7340   73.9360 C   0  0  0  0  0  0  0  0  0  0  0  0
   -1.8510   58.7900   74.7080 C   0  0  0  0  0  0  0  0  0  0  0  0
   -2.2560   57.6930   75.4630 C   0  0  0  0  0  0  0  0  0  0  0  0
   -1.5100   56.5110   75.4700 C   0  0  0  0  0  0  0  0  0  0  0  0
    0.1160   66.1100   69.9270 O   0  0  0  0  0  0  0  0  0  0  0  0
    0.8040   67.0970   69.1620 C   0  0  0  0  0  0  0  0  0  0  0  0
    0.1240   67.2340   67.8000 C   0  0  0  0  0  0  0  0  0  0  0  0
    0.9500   67.9990   66.7590 C   0  0  0  0  0  0  0  0  0  0  0  0
    1.6160   69.2650   67.2990 C   0  0  0  0  0  0  0  0  0  0  0  0
    2.9500   69.4540   66.7400 N   0  0  0  0  0  0  0  0  0  0  0  0
    3.2900   69.2120   65.4220 C   0  0  0  0  0  0  0  0  0  0  0  0
    2.5210   68.7710   64.3310 C   0  0  0  0  0  0  0  0  0  0  0  0
    3.1540   68.6170   63.0950 C   0  0  0  0  0  0  0  0  0  0  0  0
    4.5090   68.8950   62.9460 C   0  0  0  0  0  0  0  0  0  0  0  0
    5.2660   69.3350   64.0360 C   0  0  0  0  0  0  0  0  0  0  0  0
    4.6510   69.5000   65.2950 C   0  0  0  0  0  0  0  0  0  0  0  0
    5.1240   69.9280   66.5750 C   0  0  0  0  0  0  0  0  0  0  0  0
    4.0450   69.8940   67.4590 C   0  0  0  0  0  0  0  0  0  0  0  0
    4.1790   70.2660   68.8090 C   0  0  0  0  0  0  0  0  0  0  0  0
    5.4380   70.6770   69.2590 C   0  0  0  0  0  0  0  0  0  0  0  0
    6.5270   70.7160   68.3970 C   0  0  0  0  0  0  0  0  0  0  0  0
    6.3840   70.3460   67.0560 C   0  0  0  0  0  0  0  0  0  0  0  0
    3.9457   63.6724   70.7757 H   0  0  0  0  0  0  0  0  0  0  0  0
    2.8442   65.7582   69.9617 H   0  0  0  0  0  0  0  0  0  0  0  0
   -1.0209   64.0469   70.8401 H   0  0  0  0  0  0  0  0  0  0  0  0
    0.0722   61.9596   71.6563 H   0  0  0  0  0  0  0  0  0  0  0  0
    0.9683   60.5228   72.1733 H   0  0  0  0  0  0  0  0  0  0  0  0
    3.6792   59.3780   72.8407 H   0  0  0  0  0  0  0  0  0  0  0  0
    2.2629   59.3301   73.9826 H   0  0  0  0  0  0  0  0  0  0  0  0
    1.5270   58.1957   71.4301 H   0  0  0  0  0  0  0  0  0  0  0  0
    3.0289   57.3996   72.1010 H   0  0  0  0  0  0  0  0  0  0  0  0
    2.4136   55.2473   73.3404 H   0  0  0  0  0  0  0  0  0  0  0  0
    0.5164   54.5355   74.9702 H   0  0  0  0  0  0  0  0  0  0  0  0
   -0.3714   59.6055   73.3426 H   0  0  0  0  0  0  0  0  0  0  0  0
   -2.4535   59.7103   74.7182 H   0  0  0  0  0  0  0  0  0  0  0  0
   -3.1760   57.7572   76.0625 H   0  0  0  0  0  0  0  0  0  0  0  0
   -1.8266   55.6420   76.0655 H   0  0  0  0  0  0  0  0  0  0  0  0
    0.7709   68.0617   69.6895 H   0  0  0  0  0  0  0  0  0  0  0  0
    1.8532   66.7964   69.0250 H   0  0  0  0  0  0  0  0  0  0  0  0
   -0.0732   66.2246   67.4098 H   0  0  0  0  0  0  0  0  0  0  0  0
   -0.7956   67.8152   67.9629 H   0  0  0  0  0  0  0  0  0  0  0  0
    1.7365   67.3289   66.3816 H   0  0  0  0  0  0  0  0  0  0  0  0
    0.2512   68.3189   65.9721 H   0  0  0  0  0  0  0  0  0  0  0  0
    0.9939   70.1339   67.0382 H   0  0  0  0  0  0  0  0  0  0  0  0
    1.7130   69.1625   68.3899 H   0  0  0  0  0  0  0  0  0  0  0  0
    1.4491   68.5529   64.4473 H   0  0  0  0  0  0  0  0  0  0  0  0
    2.5728   68.2711   62.2275 H   0  0  0  0  0  0  0  0  0  0  0  0
    4.9880   68.7678   61.9640 H   0  0  0  0  0  0  0  0  0  0  0  0
    6.3373   69.5518   63.9124 H   0  0  0  0  0  0  0  0  0  0  0  0
    3.3173   70.2345   69.4920 H   0  0  0  0  0  0  0  0  0  0  0  0
    5.5678   70.9736   70.3103 H   0  0  0  0  0  0  0  0  0  0  0  0
    7.5089   71.0403   68.7721 H   0  0  0  0  0  0  0  0  0  0  0  0
    7.2499   70.3805   66.3784 H   0  0  0  0  0  0  0  0  0  0  0  0
  2  1  2  0
  3  2  1  0
  4  3  2  0
  5  4  1  0
  6  5  2  0
  6  1  1  0
  8  7  2  0
  8  1  1  0
  9  8  1  0
 10  9  1  0
 11 10  1  0
 12 11  1  0
 13 12  2  0
 14 13  1  0
 15 14  1  0
 16 12  1  0
 16 15  2  0
 17 16  1  0
 18 17  2  0
 19 18  1  0
 20 19  2  0
 20 15  1  0
 21  4  1  0
 22 21  1  0
 23 22  1  0
 24 23  1  0
 25 24  1  0
 26 25  1  0
 27 26  1  0
 28 27  2  0
 29 28  1  0
 30 29  2  0
 31 30  1  0
 32 31  2  0
 32 27  1  0
 33 32  1  0
 34 33  2  0
 34 26  1  0
 35 34  1  0
 36 35  2  0
 37 36  1  0
 38 33  1  0
 38 37  2  0
  2 39  1  0
  3 40  1  0
  5 41  1  0
  6 42  1  0
  9 43  1  0
 10 44  1  0
 10 45  1  0
 11 46  1  0
 11 47  1  0
 13 48  1  0
 14 49  1  0
 17 50  1  0
 18 51  1  0
 19 52  1  0
 20 53  1  0
 22 54  1  0
 22 55  1  0
 23 56  1  0
 23 57  1  0
 24 58  1  0
 24 59  1  0
 25 60  1  0
 25 61  1  0
 28 62  1  0
 29 63  1  0
 30 64  1  0
 31 65  1  0
 35 66  1  0
 36 67  1  0
 37 68  1  0
 38 69  1  0
M  END
>  <score>  (5) 
-11.602

$$$$
=
     RDKit          3D

 69 74  0  0  0  0  0  0  0  0999 V2000
   -0.2700   67.8200   67.1580 C   0  0  0  0  0  0  0  0  0  0  0  0
   -1.2950   67.0480   67.7210 C   0  0  0  0  0  0  0  0  0  0  0  0
   -1.0960   66.3730   68.9300 C   0  0  0  0  0  0  0  0  0  0  0  0
    0.1340   66.4540   69.5810 C   0  0  0  0  0  0  0  0  0  0  0  0
    1.1610   67.2160   69.0150 C   0  0  0  0  0  0  0  0  0  0  0  0
    0.9670   67.8930   67.8070 C   0  0  0  0  0  0  0  0  0  0  0  0
   -1.4190   69.3620   65.7940 O   0  0  0  0  0  0  0  0  0  0  0  0
   -0.5340   68.5170   65.8680 C   0  0  0  0  0  0  0  0  0  0  0  0
    0.2840   68.1740   64.8100 N   0  0  0  0  0  0  0  0  0  0  0  0
    0.2380   68.9240   63.5670 C   0  0  0  0  0  0  0  0  0  0  0  0
    1.0200   68.2440   62.4400 C   0  0  0  0  0  0  0  0  0  0  0  0
    2.4750   68.6050   62.4180 C   0  0  0  0  0  0  0  0  0  0  0  0
    3.2710   68.7200   61.2940 C   0  0  0  0  0  0  0  0  0  0  0  0
    4.5320   69.0670   61.6920 N   0  0  0  0  0  0  0  0  0  0  0  0
    4.5850   69.1770   63.0610 C   0  0  0  0  0  0  0  0  0  0  0  0
    3.3070   68.8990   63.5460 C   0  0  0  0  0  0  0  0  0  0  0  0
    3.0910   68.9550   64.9380 C   0  0  0  0  0  0  0  0  0  0  0  0
    4.1540   69.2800   65.7900 C   0  0  0  0  0  0  0  0  0  0  0  0
    5.4180   69.5490   65.2740 C   0  0  0  0  0  0  0  0  0  0  0  0
    5.6590   69.5030   63.8990 C   0  0  0  0  0  0  0  0  0  0  0  0
    0.4610   65.8460   70.7610 O   0  0  0  0  0  0  0  0  0  0  0  0
    0.9880   64.5230   70.6860 C   0  0  0  0  0  0  0  0  0  0  0  0
   -0.1710   63.5270   70.6630 C   0  0  0  0  0  0  0  0  0  0  0  0
   -0.3340   62.7220   71.9580 C   0  0  0  0  0  0  0  0  0  0  0  0
    0.9110   62.7100   72.8450 C   0  0  0  0  0  0  0  0  0  0  0  0
    1.7240   61.5190   72.6200 N   0  0  0  0  0  0  0  0  0  0  0  0
    1.3260   60.2290   72.9180 C   0  0  0  0  0  0  0  0  0  0  0  0
    0.1290   59.7290   73.4610 C   0  0  0  0  0  0  0  0  0  0  0  0
    0.0150   58.3500   73.6520 C   0  0  0  0  0  0  0  0  0  0  0  0
    1.0570   57.4920   73.3140 C   0  0  0  0  0  0  0  0  0  0  0  0
    2.2430   57.9980   72.7720 C   0  0  0  0  0  0  0  0  0  0  0  0
    2.3840   59.3870   72.5680 C   0  0  0  0  0  0  0  0  0  0  0  0
    3.4320   60.2050   72.0420 C   0  0  0  0  0  0  0  0  0  0  0  0
    2.9970   61.5310   72.0820 C   0  0  0  0  0  0  0  0  0  0  0  0
    3.8010   62.5900   71.6260 C   0  0  0  0  0  0  0  0  0  0  0  0
    5.0710   62.2880   71.1250 C   0  0  0  0  0  0  0  0  0  0  0  0
    5.5270   60.9750   71.0790 C   0  0  0  0  0  0  0  0  0  0  0  0
    4.7190   59.9280   71.5320 C   0  0  0  0  0  0  0  0  0  0  0  0
   -2.2649   66.9721   67.2076 H   0  0  0  0  0  0  0  0  0  0  0  0
   -1.9110   65.7777   69.3675 H   0  0  0  0  0  0  0  0  0  0  0  0
    2.1327   67.2836   69.5260 H   0  0  0  0  0  0  0  0  0  0  0  0
    1.7857   68.4819   67.3678 H   0  0  0  0  0  0  0  0  0  0  0  0
    0.9326   67.3793   64.9030 H   0  0  0  0  0  0  0  0  0  0  0  0
   -0.8121   69.0258   63.2556 H   0  0  0  0  0  0  0  0  0  0  0  0
    0.7032   69.9036   63.7514 H   0  0  0  0  0  0  0  0  0  0  0  0
    0.9336   67.1545   62.5647 H   0  0  0  0  0  0  0  0  0  0  0  0
    0.5865   68.5915   61.4906 H   0  0  0  0  0  0  0  0  0  0  0  0
    2.9453   68.5596   60.2557 H   0  0  0  0  0  0  0  0  0  0  0  0
    5.3279   69.2235   61.0572 H   0  0  0  0  0  0  0  0  0  0  0  0
    2.0939   68.7448   65.3523 H   0  0  0  0  0  0  0  0  0  0  0  0
    3.9882   69.3230   66.8766 H   0  0  0  0  0  0  0  0  0  0  0  0
    6.2402   69.8018   65.9597 H   0  0  0  0  0  0  0  0  0  0  0  0
    6.6572   69.7153   63.4886 H   0  0  0  0  0  0  0  0  0  0  0  0
    1.5853   64.4153   69.7686 H   0  0  0  0  0  0  0  0  0  0  0  0
    1.6288   64.3279   71.5585 H   0  0  0  0  0  0  0  0  0  0  0  0
   -1.1019   64.0851   70.4843 H   0  0  0  0  0  0  0  0  0  0  0  0
    0.0511   62.8020   69.8661 H   0  0  0  0  0  0  0  0  0  0  0  0
   -1.1642   63.1574   72.5335 H   0  0  0  0  0  0  0  0  0  0  0  0
   -0.5235   61.6796   71.6624 H   0  0  0  0  0  0  0  0  0  0  0  0
    1.5157   63.6015   72.6223 H   0  0  0  0  0  0  0  0  0  0  0  0
    0.5833   62.7075   73.8950 H   0  0  0  0  0  0  0  0  0  0  0  0
   -0.6958   60.4060   73.7283 H   0  0  0  0  0  0  0  0  0  0  0  0
   -0.9120   57.9363   74.0758 H   0  0  0  0  0  0  0  0  0  0  0  0
    0.9474   56.4092   73.4740 H   0  0  0  0  0  0  0  0  0  0  0  0
    3.0632   57.3152   72.5056 H   0  0  0  0  0  0  0  0  0  0  0  0
    3.4407   63.6287   71.6623 H   0  0  0  0  0  0  0  0  0  0  0  0
    5.7183   63.1001   70.7623 H   0  0  0  0  0  0  0  0  0  0  0  0
    6.5304   60.7588   70.6834 H   0  0  0  0  0  0  0  0  0  0  0  0
    5.0849   58.8914   71.4912 H   0  0  0  0  0  0  0  0  0  0  0  0
  2  1  2  0
  3  2  1  0
  4  3  2  0
  5  4  1  0
  6  5  2  0
  6  1  1  0
  8  7  2  0
  8  1  1  0
  9  8  1  0
 10  9  1  0
 11 10  1  0
 12 11  1  0
 13 12  2  0
 14 13  1  0
 15 14  1  0
 16 12  1  0
 16 15  2  0
 17 16  1  0
 18 17  2  0
 19 18  1  0
 20 19  2  0
 20 15  1  0
 21  4  1  0
 22 21  1  0
 23 22  1  0
 24 23  1  0
 25 24  1  0
 26 25  1  0
 27 26  1  0
 28 27  2  0
 29 28  1  0
 30 29  2  0
 31 30  1  0
 32 31  2  0
 32 27  1  0
 33 32  1  0
 34 33  2  0
 34 26  1  0
 35 34  1  0
 36 35  2  0
 37 36  1  0
 38 33  1  0
 38 37  2  0
  2 39  1  0
  3 40  1  0
  5 41  1  0
  6 42  1  0
  9 43  1  0
 10 44  1  0
 10 45  1  0
 11 46  1  0
 11 47  1  0
 13 48  1  0
 14 49  1  0
 17 50  1  0
 18 51  1  0
 19 52  1  0
 20 53  1  0
 22 54  1  0
 22 55  1  0
 23 56  1  0
 23 57  1  0
 24 58  1  0
 24 59  1  0
 25 60  1  0
 25 61  1  0
 28 62  1  0
 29 63  1  0
 30 64  1  0
 31 65  1  0
 35 66  1  0
 36 67  1  0
 37 68  1  0
 38 69  1  0
M  END
>  <score>  (6) 
-11.592

$$$$
=
     RDKit          3D

 69 74  0  0  0  0  0  0  0  0999 V2000
    0.8960   61.8310   72.2450 C   0  0  0  0  0  0  0  0  0  0  0  0
    2.2360   61.9750   71.8620 C   0  0  0  0  0  0  0  0  0  0  0  0
    2.6410   63.0670   71.0870 C   0  0  0  0  0  0  0  0  0  0  0  0
    1.7070   64.0180   70.6780 C   0  0  0  0  0  0  0  0  0  0  0  0
    0.3680   63.8700   71.0520 C   0  0  0  0  0  0  0  0  0  0  0  0
   -0.0420   62.7800   71.8260 C   0  0  0  0  0  0  0  0  0  0  0  0
   -0.5910   60.5890   73.5890 O   0  0  0  0  0  0  0  0  0  0  0  0
    0.5170   60.6480   73.0680 C   0  0  0  0  0  0  0  0  0  0  0  0
    1.4610   59.6460   73.1690 N   0  0  0  0  0  0  0  0  0  0  0  0
    1.1270   58.3740   73.7860 C   0  0  0  0  0  0  0  0  0  0  0  0
    1.4420   57.1810   72.8800 C   0  0  0  0  0  0  0  0  0  0  0  0
    1.2660   55.8530   73.5560 C   0  0  0  0  0  0  0  0  0  0  0  0
    2.2220   54.8610   73.6670 C   0  0  0  0  0  0  0  0  0  0  0  0
    1.6760   53.8110   74.3530 N   0  0  0  0  0  0  0  0  0  0  0  0
    0.3730   54.0900   74.6910 C   0  0  0  0  0  0  0  0  0  0  0  0
    0.0890   55.3690   74.2110 C   0  0  0  0  0  0  0  0  0  0  0  0
   -1.1970   55.9000   74.4400 C   0  0  0  0  0  0  0  0  0  0  0  0
   -2.1470   55.1380   75.1310 C   0  0  0  0  0  0  0  0  0  0  0  0
   -1.8310   53.8640   75.5950 C   0  0  0  0  0  0  0  0  0  0  0  0
   -0.5640   53.3150   75.3850 C   0  0  0  0  0  0  0  0  0  0  0  0
    1.9680   65.1270   69.9220 O   0  0  0  0  0  0  0  0  0  0  0  0
    0.9190   66.0840   69.7900 C   0  0  0  0  0  0  0  0  0  0  0  0
    1.5160   67.4180   69.3410 C   0  0  0  0  0  0  0  0  0  0  0  0
    0.9940   67.9160   67.9880 C   0  0  0  0  0  0  0  0  0  0  0  0
    1.3280   69.3780   67.6910 C   0  0  0  0  0  0  0  0  0  0  0  0
    2.6580   69.5200   67.1070 N   0  0  0  0  0  0  0  0  0  0  0  0
    2.9710   69.2380   65.7910 C   0  0  0  0  0  0  0  0  0  0  0  0
    2.1740   68.7900   64.7230 C   0  0  0  0  0  0  0  0  0  0  0  0
    2.7840   68.5900   63.4810 C   0  0  0  0  0  0  0  0  0  0  0  0
    4.1430   68.8300   63.3050 C   0  0  0  0  0  0  0  0  0  0  0  0
    4.9270   69.2780   64.3720 C   0  0  0  0  0  0  0  0  0  0  0  0
    4.3360   69.4880   65.6360 C   0  0  0  0  0  0  0  0  0  0  0  0
    4.8400   69.9360   66.8970 C   0  0  0  0  0  0  0  0  0  0  0  0
    3.7740   69.9500   67.7990 C   0  0  0  0  0  0  0  0  0  0  0  0
    3.9390   70.3520   69.1360 C   0  0  0  0  0  0  0  0  0  0  0  0
    5.2140   70.7420   69.5570 C   0  0  0  0  0  0  0  0  0  0  0  0
    6.2900   70.7330   68.6770 C   0  0  0  0  0  0  0  0  0  0  0  0
    6.1170   70.3340   67.3480 C   0  0  0  0  0  0  0  0  0  0  0  0
    2.9759   61.2230   72.1734 H   0  0  0  0  0  0  0  0  0  0  0  0
    3.6973   63.1755   70.8000 H   0  0  0  0  0  0  0  0  0  0  0  0
   -0.3714   64.6196   70.7337 H   0  0  0  0  0  0  0  0  0  0  0  0
   -1.1003   62.6691   72.1048 H   0  0  0  0  0  0  0  0  0  0  0  0
    2.4113   59.8017   72.8034 H   0  0  0  0  0  0  0  0  0  0  0  0
    1.7037   58.2716   74.7171 H   0  0  0  0  0  0  0  0  0  0  0  0
    0.0439   58.3704   73.9780 H   0  0  0  0  0  0  0  0  0  0  0  0
    0.7722   57.2194   72.0083 H   0  0  0  0  0  0  0  0  0  0  0  0
    2.5016   57.2615   72.5959 H   0  0  0  0  0  0  0  0  0  0  0  0
    3.2472   54.9079   73.2711 H   0  0  0  0  0  0  0  0  0  0  0  0
    2.1701   52.9370   74.5832 H   0  0  0  0  0  0  0  0  0  0  0  0
   -1.4524   56.9068   74.0780 H   0  0  0  0  0  0  0  0  0  0  0  0
   -3.1515   55.5495   75.3087 H   0  0  0  0  0  0  0  0  0  0  0  0
   -2.5910   53.2807   76.1354 H   0  0  0  0  0  0  0  0  0  0  0  0
   -0.3113   52.3093   75.7519 H   0  0  0  0  0  0  0  0  0  0  0  0
    0.1928   65.7343   69.0414 H   0  0  0  0  0  0  0  0  0  0  0  0
    0.4085   66.2116   70.7560 H   0  0  0  0  0  0  0  0  0  0  0  0
    1.2791   68.1758   70.1024 H   0  0  0  0  0  0  0  0  0  0  0  0
    2.5977   67.2567   69.2228 H   0  0  0  0  0  0  0  0  0  0  0  0
    1.4358   67.2929   67.1965 H   0  0  0  0  0  0  0  0  0  0  0  0
   -0.1029   67.8417   68.0239 H   0  0  0  0  0  0  0  0  0  0  0  0
    0.5844   69.7773   66.9856 H   0  0  0  0  0  0  0  0  0  0  0  0
    1.3091   69.9337   68.6401 H   0  0  0  0  0  0  0  0  0  0  0  0
    1.0990   68.6018   64.8609 H   0  0  0  0  0  0  0  0  0  0  0  0
    2.1810   68.2379   62.6311 H   0  0  0  0  0  0  0  0  0  0  0  0
    4.6036   68.6661   62.3196 H   0  0  0  0  0  0  0  0  0  0  0  0
    6.0010   69.4662   64.2268 H   0  0  0  0  0  0  0  0  0  0  0  0
    3.0876   70.3595   69.8325 H   0  0  0  0  0  0  0  0  0  0  0  0
    5.3677   71.0603   70.5987 H   0  0  0  0  0  0  0  0  0  0  0  0
    7.2853   71.0422   69.0288 H   0  0  0  0  0  0  0  0  0  0  0  0
    6.9727   70.3303   66.6567 H   0  0  0  0  0  0  0  0  0  0  0  0
  2  1  2  0
  3  2  1  0
  4  3  2  0
  5  4  1  0
  6  5  2  0
  6  1  1  0
  8  7  2  0
  8  1  1  0
  9  8  1  0
 10  9  1  0
 11 10  1  0
 12 11  1  0
 13 12  2  0
 14 13  1  0
 15 14  1  0
 16 12  1  0
 16 15  2  0
 17 16  1  0
 18 17  2  0
 19 18  1  0
 20 19  2  0
 20 15  1  0
 21  4  1  0
 22 21  1  0
 23 22  1  0
 24 23  1  0
 25 24  1  0
 26 25  1  0
 27 26  1  0
 28 27  2  0
 29 28  1  0
 30 29  2  0
 31 30  1  0
 32 31  2  0
 32 27  1  0
 33 32  1  0
 34 33  2  0
 34 26  1  0
 35 34  1  0
 36 35  2  0
 37 36  1  0
 38 33  1  0
 38 37  2  0
  2 39  1  0
  3 40  1  0
  5 41  1  0
  6 42  1  0
  9 43  1  0
 10 44  1  0
 10 45  1  0
 11 46  1  0
 11 47  1  0
 13 48  1  0
 14 49  1  0
 17 50  1  0
 18 51  1  0
 19 52  1  0
 20 53  1  0
 22 54  1  0
 22 55  1  0
 23 56  1  0
 23 57  1  0
 24 58  1  0
 24 59  1  0
 25 60  1  0
 25 61  1  0
 28 62  1  0
 29 63  1  0
 30 64  1  0
 31 65  1  0
 35 66  1  0
 36 67  1  0
 37 68  1  0
 38 69  1  0
M  END
>  <score>  (7) 
-11.533

$$$$
=
     RDKit          3D

 69 74  0  0  0  0  0  0  0  0999 V2000
    0.9830   65.3120   70.2680 C   0  0  0  0  0  0  0  0  0  0  0  0
    2.2490   64.7870   69.9780 C   0  0  0  0  0  0  0  0  0  0  0  0
    2.8320   63.8290   70.8150 C   0  0  0  0  0  0  0  0  0  0  0  0
    2.1590   63.3970   71.9570 C   0  0  0  0  0  0  0  0  0  0  0  0
    0.8990   63.9280   72.2530 C   0  0  0  0  0  0  0  0  0  0  0  0
    0.3120   64.8850   71.4190 C   0  0  0  0  0  0  0  0  0  0  0  0
   -0.7570   66.6870   69.4680 O   0  0  0  0  0  0  0  0  0  0  0  0
    0.4090   66.3310   69.3450 C   0  0  0  0  0  0  0  0  0  0  0  0
    1.2680   66.8490   68.3970 N   0  0  0  0  0  0  0  0  0  0  0  0
    0.8680   67.9780   67.5740 C   0  0  0  0  0  0  0  0  0  0  0  0
    1.6060   69.2660   67.9450 C   0  0  0  0  0  0  0  0  0  0  0  0
    2.9070   69.4410   67.2190 C   0  0  0  0  0  0  0  0  0  0  0  0
    3.1530   69.1260   65.8960 C   0  0  0  0  0  0  0  0  0  0  0  0
    4.4550   69.4350   65.6140 N   0  0  0  0  0  0  0  0  0  0  0  0
    5.0750   69.9450   66.7290 C   0  0  0  0  0  0  0  0  0  0  0  0
    4.1270   69.9680   67.7530 C   0  0  0  0  0  0  0  0  0  0  0  0
    4.5150   70.4620   69.0150 C   0  0  0  0  0  0  0  0  0  0  0  0
    5.8280   70.9090   69.2090 C   0  0  0  0  0  0  0  0  0  0  0  0
    6.7500   70.8700   68.1670 C   0  0  0  0  0  0  0  0  0  0  0  0
    6.3920   70.3870   66.9060 C   0  0  0  0  0  0  0  0  0  0  0  0
    2.6120   62.4730   72.8560 O   0  0  0  0  0  0  0  0  0  0  0  0
    3.3830   61.3900   72.3400 C   0  0  0  0  0  0  0  0  0  0  0  0
    3.8510   60.5140   73.5020 C   0  0  0  0  0  0  0  0  0  0  0  0
    3.6690   59.0100   73.2690 C   0  0  0  0  0  0  0  0  0  0  0  0
    2.5290   58.6600   72.3130 C   0  0  0  0  0  0  0  0  0  0  0  0
    1.3190   58.2750   73.0330 N   0  0  0  0  0  0  0  0  0  0  0  0
    0.2570   59.1200   73.2910 C   0  0  0  0  0  0  0  0  0  0  0  0
    0.0400   60.4680   72.9540 C   0  0  0  0  0  0  0  0  0  0  0  0
   -1.1560   61.0670   73.3600 C   0  0  0  0  0  0  0  0  0  0  0  0
   -2.1080   60.3490   74.0770 C   0  0  0  0  0  0  0  0  0  0  0  0
   -1.8850   59.0090   74.4060 C   0  0  0  0  0  0  0  0  0  0  0  0
   -0.6860   58.3790   74.0080 C   0  0  0  0  0  0  0  0  0  0  0  0
   -0.1650   57.0580   74.1710 C   0  0  0  0  0  0  0  0  0  0  0  0
    1.0860   57.0160   73.5530 C   0  0  0  0  0  0  0  0  0  0  0  0
    1.8640   55.8450   73.5310 C   0  0  0  0  0  0  0  0  0  0  0  0
    1.3550   54.7010   74.1540 C   0  0  0  0  0  0  0  0  0  0  0  0
    0.1130   54.7210   74.7780 C   0  0  0  0  0  0  0  0  0  0  0  0
   -0.6550   55.8890   74.7930 C   0  0  0  0  0  0  0  0  0  0  0  0
    2.7898   65.1310   69.0840 H   0  0  0  0  0  0  0  0  0  0  0  0
    3.8222   63.4164   70.5717 H   0  0  0  0  0  0  0  0  0  0  0  0
    0.3637   63.5889   73.1522 H   0  0  0  0  0  0  0  0  0  0  0  0
   -0.6754   65.3012   71.6675 H   0  0  0  0  0  0  0  0  0  0  0  0
    2.2012   66.4315   68.2717 H   0  0  0  0  0  0  0  0  0  0  0  0
    1.0815   67.7401   66.5215 H   0  0  0  0  0  0  0  0  0  0  0  0
   -0.2057   68.1488   67.7411 H   0  0  0  0  0  0  0  0  0  0  0  0
    0.9562   70.1207   67.7058 H   0  0  0  0  0  0  0  0  0  0  0  0
    1.8400   69.2070   69.0182 H   0  0  0  0  0  0  0  0  0  0  0  0
    2.4253   68.6993   65.1900 H   0  0  0  0  0  0  0  0  0  0  0  0
    4.9061   69.3042   64.6973 H   0  0  0  0  0  0  0  0  0  0  0  0
    3.7909   70.4962   69.8423 H   0  0  0  0  0  0  0  0  0  0  0  0
    6.1332   71.2941   70.1931 H   0  0  0  0  0  0  0  0  0  0  0  0
    7.7768   71.2251   68.3392 H   0  0  0  0  0  0  0  0  0  0  0  0
    7.1190   70.3550   66.0811 H   0  0  0  0  0  0  0  0  0  0  0  0
    2.7659   60.7924   71.6530 H   0  0  0  0  0  0  0  0  0  0  0  0
    4.2548   61.7811   71.7949 H   0  0  0  0  0  0  0  0  0  0  0  0
    4.9199   60.7096   73.6726 H   0  0  0  0  0  0  0  0  0  0  0  0
    3.2256   60.7774   74.3678 H   0  0  0  0  0  0  0  0  0  0  0  0
    4.6048   58.6093   72.8521 H   0  0  0  0  0  0  0  0  0  0  0  0
    3.4136   58.5668   74.2428 H   0  0  0  0  0  0  0  0  0  0  0  0
    2.3073   59.5366   71.6866 H   0  0  0  0  0  0  0  0  0  0  0  0
    2.8479   57.8059   71.6975 H   0  0  0  0  0  0  0  0  0  0  0  0
    0.7915   61.0360   72.3860 H   0  0  0  0  0  0  0  0  0  0  0  0
   -1.3472   62.1208   73.1091 H   0  0  0  0  0  0  0  0  0  0  0  0
   -3.0426   60.8393   74.3871 H   0  0  0  0  0  0  0  0  0  0  0  0
   -2.6415   58.4470   74.9733 H   0  0  0  0  0  0  0  0  0  0  0  0
    2.8467   55.8291   73.0370 H   0  0  0  0  0  0  0  0  0  0  0  0
    1.9454   53.7729   74.1502 H   0  0  0  0  0  0  0  0  0  0  0  0
   -0.2684   53.8107   75.2637 H   0  0  0  0  0  0  0  0  0  0  0  0
   -1.6375   55.8973   75.2876 H   0  0  0  0  0  0  0  0  0  0  0  0
  2  1  2  0
  3  2  1  0
  4  3  2  0
  5  4  1  0
  6  5  2  0
  6  1  1  0
  8  7  2  0
  8  1  1  0
  9  8  1  0
 10  9  1  0
 11 10  1  0
 12 11  1  0
 13 12  2  0
 14 13  1  0
 15 14  1  0
 16 12  1  0
 16 15  2  0
 17 16  1  0
 18 17  2  0
 19 18  1  0
 20 19  2  0
 20 15  1  0
 21  4  1  0
 22 21  1  0
 23 22  1  0
 24 23  1  0
 25 24  1  0
 26 25  1  0
 27 26  1  0
 28 27  2  0
 29 28  1  0
 30 29  2  0
 31 30  1  0
 32 31  2  0
 32 27  1  0
 33 32  1  0
 34 33  2  0
 34 26  1  0
 35 34  1  0
 36 35  2  0
 37 36  1  0
 38 33  1  0
 38 37  2  0
  2 39  1  0
  3 40  1  0
  5 41  1  0
  6 42  1  0
  9 43  1  0
 10 44  1  0
 10 45  1  0
 11 46  1  0
 11 47  1  0
 13 48  1  0
 14 49  1  0
 17 50  1  0
 18 51  1  0
 19 52  1  0
 20 53  1  0
 22 54  1  0
 22 55  1  0
 23 56  1  0
 23 57  1  0
 24 58  1  0
 24 59  1  0
 25 60  1  0
 25 61  1  0
 28 62  1  0
 29 63  1  0
 30 64  1  0
 31 65  1  0
 35 66  1  0
 36 67  1  0
 37 68  1  0
 38 69  1  0
M  END
>  <score>  (8) 
-11.432

$$$$
=
     RDKit          3D

 69 74  0  0  0  0  0  0  0  0999 V2000
    1.1650   65.9010   69.9820 C   0  0  0  0  0  0  0  0  0  0  0  0
    0.1690   65.9120   70.9670 C   0  0  0  0  0  0  0  0  0  0  0  0
    0.1130   64.9030   71.9360 C   0  0  0  0  0  0  0  0  0  0  0  0
    1.0480   63.8690   71.9210 C   0  0  0  0  0  0  0  0  0  0  0  0
    2.0380   63.8530   70.9340 C   0  0  0  0  0  0  0  0  0  0  0  0
    2.0970   64.8570   69.9630 C   0  0  0  0  0  0  0  0  0  0  0  0
    0.4930   66.9080   67.9590 O   0  0  0  0  0  0  0  0  0  0  0  0
    1.1770   66.9970   68.9730 C   0  0  0  0  0  0  0  0  0  0  0  0
    1.9610   68.0930   69.2700 N   0  0  0  0  0  0  0  0  0  0  0  0
    1.8980   69.2920   68.4520 C   0  0  0  0  0  0  0  0  0  0  0  0
    3.1290   70.1850   68.6220 C   0  0  0  0  0  0  0  0  0  0  0  0
    4.1590   69.9970   67.5480 C   0  0  0  0  0  0  0  0  0  0  0  0
    5.5170   70.2230   67.6700 C   0  0  0  0  0  0  0  0  0  0  0  0
    6.1110   69.9340   66.4720 N   0  0  0  0  0  0  0  0  0  0  0  0
    5.1690   69.5260   65.5600 C   0  0  0  0  0  0  0  0  0  0  0  0
    3.9330   69.5480   66.2070 C   0  0  0  0  0  0  0  0  0  0  0  0
    2.7880   69.1590   65.4810 C   0  0  0  0  0  0  0  0  0  0  0  0
    2.9190   68.7680   64.1430 C   0  0  0  0  0  0  0  0  0  0  0  0
    4.1670   68.7590   63.5250 C   0  0  0  0  0  0  0  0  0  0  0  0
    5.3170   69.1380   64.2220 C   0  0  0  0  0  0  0  0  0  0  0  0
    1.1080   62.8270   72.8040 O   0  0  0  0  0  0  0  0  0  0  0  0
    0.2490   62.8890   73.9400 C   0  0  0  0  0  0  0  0  0  0  0  0
    1.0980   62.8330   75.2100 C   0  0  0  0  0  0  0  0  0  0  0  0
    1.1280   61.4570   75.8860 C   0  0  0  0  0  0  0  0  0  0  0  0
    2.4630   60.7250   75.7510 C   0  0  0  0  0  0  0  0  0  0  0  0
    2.5190   59.9250   74.5320 N   0  0  0  0  0  0  0  0  0  0  0  0
    1.8260   58.7460   74.3340 C   0  0  0  0  0  0  0  0  0  0  0  0
    0.9330   58.0440   75.1630 C   0  0  0  0  0  0  0  0  0  0  0  0
    0.3770   56.8560   74.6800 C   0  0  0  0  0  0  0  0  0  0  0  0
    0.6960   56.3810   73.4120 C   0  0  0  0  0  0  0  0  0  0  0  0
    1.5820   57.0880   72.5930 C   0  0  0  0  0  0  0  0  0  0  0  0
    2.1580   58.2900   73.0570 C   0  0  0  0  0  0  0  0  0  0  0  0
    3.0690   59.2310   72.4840 C   0  0  0  0  0  0  0  0  0  0  0  0
    3.2780   60.2440   73.4220 C   0  0  0  0  0  0  0  0  0  0  0  0
    4.1260   61.3350   73.1600 C   0  0  0  0  0  0  0  0  0  0  0  0
    4.7730   61.3870   71.9220 C   0  0  0  0  0  0  0  0  0  0  0  0
    4.5820   60.3880   70.9740 C   0  0  0  0  0  0  0  0  0  0  0  0
    3.7350   59.3090   71.2410 C   0  0  0  0  0  0  0  0  0  0  0  0
   -0.5762   66.7211   70.9793 H   0  0  0  0  0  0  0  0  0  0  0  0
   -0.6689   64.9261   72.7093 H   0  0  0  0  0  0  0  0  0  0  0  0
    2.7795   63.0406   70.9213 H   0  0  0  0  0  0  0  0  0  0  0  0
    2.8745   64.8265   69.1855 H   0  0  0  0  0  0  0  0  0  0  0  0
    2.5971   68.0607   70.0795 H   0  0  0  0  0  0  0  0  0  0  0  0
    1.8217   68.9944   67.3958 H   0  0  0  0  0  0  0  0  0  0  0  0
    1.0196   69.8701   68.7748 H   0  0  0  0  0  0  0  0  0  0  0  0
    2.8015   71.2350   68.6100 H   0  0  0  0  0  0  0  0  0  0  0  0
    3.6016   69.9056   69.5752 H   0  0  0  0  0  0  0  0  0  0  0  0
    6.0323   70.5752   68.5758 H   0  0  0  0  0  0  0  0  0  0  0  0
    7.1203   70.0114   66.2814 H   0  0  0  0  0  0  0  0  0  0  0  0
    1.7991   69.1628   65.9626 H   0  0  0  0  0  0  0  0  0  0  0  0
    2.0275   68.4650   63.5744 H   0  0  0  0  0  0  0  0  0  0  0  0
    4.2485   68.4490   62.4727 H   0  0  0  0  0  0  0  0  0  0  0  0
    6.3043   69.1320   63.7371 H   0  0  0  0  0  0  0  0  0  0  0  0
   -0.3222   63.8288   73.9195 H   0  0  0  0  0  0  0  0  0  0  0  0
   -0.4509   62.0405   73.9233 H   0  0  0  0  0  0  0  0  0  0  0  0
    2.1295   63.1111   74.9479 H   0  0  0  0  0  0  0  0  0  0  0  0
    0.6385   63.5280   75.9282 H   0  0  0  0  0  0  0  0  0  0  0  0
    0.9153   61.5933   76.9566 H   0  0  0  0  0  0  0  0  0  0  0  0
    0.3736   60.8376   75.3788 H   0  0  0  0  0  0  0  0  0  0  0  0
    3.2754   61.4663   75.7285 H   0  0  0  0  0  0  0  0  0  0  0  0
    2.5712   60.0476   76.6109 H   0  0  0  0  0  0  0  0  0  0  0  0
    0.6788   58.4198   76.1650 H   0  0  0  0  0  0  0  0  0  0  0  0
   -0.3226   56.2887   75.3114 H   0  0  0  0  0  0  0  0  0  0  0  0
    0.2484   55.4432   73.0512 H   0  0  0  0  0  0  0  0  0  0  0  0
    1.8292   56.7086   71.5905 H   0  0  0  0  0  0  0  0  0  0  0  0
    4.2761   62.1262   73.9093 H   0  0  0  0  0  0  0  0  0  0  0  0
    5.4424   62.2298   71.6947 H   0  0  0  0  0  0  0  0  0  0  0  0
    5.1016   60.4474   70.0063 H   0  0  0  0  0  0  0  0  0  0  0  0
    3.5875   58.5231   70.4856 H   0  0  0  0  0  0  0  0  0  0  0  0
  2  1  2  0
  3  2  1  0
  4  3  2  0
  5  4  1  0
  6  5  2  0
  6  1  1  0
  8  7  2  0
  8  1  1  0
  9  8  1  0
 10  9  1  0
 11 10  1  0
 12 11  1  0
 13 12  2  0
 14 13  1  0
 15 14  1  0
 16 12  1  0
 16 15  2  0
 17 16  1  0
 18 17  2  0
 19 18  1  0
 20 19  2  0
 20 15  1  0
 21  4  1  0
 22 21  1  0
 23 22  1  0
 24 23  1  0
 25 24  1  0
 26 25  1  0
 27 26  1  0
 28 27  2  0
 29 28  1  0
 30 29  2  0
 31 30  1  0
 32 31  2  0
 32 27  1  0
 33 32  1  0
 34 33  2  0
 34 26  1  0
 35 34  1  0
 36 35  2  0
 37 36  1  0
 38 33  1  0
 38 37  2  0
  2 39  1  0
  3 40  1  0
  5 41  1  0
  6 42  1  0
  9 43  1  0
 10 44  1  0
 10 45  1  0
 11 46  1  0
 11 47  1  0
 13 48  1  0
 14 49  1  0
 17 50  1  0
 18 51  1  0
 19 52  1  0
 20 53  1  0
 22 54  1  0
 22 55  1  0
 23 56  1  0
 23 57  1  0
 24 58  1  0
 24 59  1  0
 25 60  1  0
 25 61  1  0
 28 62  1  0
 29 63  1  0
 30 64  1  0
 31 65  1  0
 35 66  1  0
 36 67  1  0
 37 68  1  0
 38 69  1  0
M  END
>  <score>  (9) 
-11.023

$$$$
