=
     RDKit          3D

 51 54  0  0  0  0  0  0  0  0999 V2000
    1.5600   67.7370   64.8170 C   0  0  1  0  0  0  0  0  0  0  0  0
    2.1070   68.4780   63.5820 C   0  0  0  0  0  0  0  0  0  0  0  0
    3.6240   68.6170   63.6450 N   0  0  2  0  0  4  0  0  0  0  0  0
    4.3270   67.2950   63.5260 C   0  0  0  0  0  0  0  0  0  0  0  0
    4.0090   69.4770   64.8650 C   0  0  1  0  0  0  0  0  0  0  0  0
    3.2300   69.0770   66.1400 C   0  0  0  0  0  0  0  0  0  0  0  0
    2.1520   68.2680   66.1040 C   0  0  0  0  0  0  0  0  0  0  0  0
    3.7110   69.6700   67.4140 C   0  0  0  0  0  0  0  0  0  0  0  0
    3.0280   69.7920   68.6300 C   0  0  0  0  0  0  0  0  0  0  0  0
    3.6270   70.4240   69.7290 C   0  0  0  0  0  0  0  0  0  0  0  0
    4.9210   70.9620   69.6580 C   0  0  0  0  0  0  0  0  0  0  0  0
    5.5890   70.8400   68.4390 C   0  0  0  0  0  0  0  0  0  0  0  0
    5.0070   70.2100   67.3520 C   0  0  0  0  0  0  0  0  0  0  0  0
    5.9270   70.2340   66.2790 C   0  0  0  0  0  0  0  0  0  0  0  0
    5.5700   69.5800   64.9970 C   0  0  0  0  0  0  0  0  0  0  0  0
    7.0550   70.8870   66.7170 C   0  0  0  0  0  0  0  0  0  0  0  0
    6.8400   71.2520   68.0300 N   0  0  0  0  0  0  0  0  0  0  0  0
   -0.5830   67.5110   65.9860 N   0  0  0  0  0  0  0  0  0  0  0  0
    0.0390   67.9030   64.8190 C   0  0  0  0  0  0  0  0  0  0  0  0
   -0.5650   68.3340   63.8420 O   0  0  0  0  0  0  0  0  0  0  0  0
   -2.0170   67.7170   66.2360 C   0  0  1  0  0  0  0  0  0  0  0  0
   -1.2190   66.6620   68.4370 C   0  0  0  0  0  0  0  0  0  0  0  0
   -2.3980   67.1870   67.6330 C   0  0  0  0  0  0  0  0  0  0  0  0
   -2.4640   69.1740   65.9930 C   0  0  0  0  0  0  0  0  0  0  0  0
   -3.2890   69.2730   64.8360 O   0  0  0  0  0  0  0  0  0  0  0  0
    1.8398   66.6747   64.7601 H   0  0  0  0  0  0  0  0  0  0  0  0
    1.8363   67.9142   62.6771 H   0  0  0  0  0  0  0  0  0  0  0  0
    1.6671   69.4859   63.5593 H   0  0  0  0  0  0  0  0  0  0  0  0
    3.9658   69.1267   62.8178 H   0  0  0  0  0  0  0  0  0  0  0  0
    4.5372   66.8997   64.5308 H   0  0  0  0  0  0  0  0  0  0  0  0
    3.6863   66.5869   62.9800 H   0  0  0  0  0  0  0  0  0  0  0  0
    5.2723   67.4302   62.9800 H   0  0  0  0  0  0  0  0  0  0  0  0
    3.6766   70.5131   64.7036 H   0  0  0  0  0  0  0  0  0  0  0  0
    1.6807   67.9805   67.0554 H   0  0  0  0  0  0  0  0  0  0  0  0
    2.0095   69.3873   68.7244 H   0  0  0  0  0  0  0  0  0  0  0  0
    3.0671   70.5001   70.6728 H   0  0  0  0  0  0  0  0  0  0  0  0
    5.3870   71.4568   70.5229 H   0  0  0  0  0  0  0  0  0  0  0  0
    6.0056   68.5703   64.9691 H   0  0  0  0  0  0  0  0  0  0  0  0
    5.9648   70.1790   64.1631 H   0  0  0  0  0  0  0  0  0  0  0  0
    7.9632   71.0827   66.1280 H   0  0  0  0  0  0  0  0  0  0  0  0
    7.5158   71.7588   68.6194 H   0  0  0  0  0  0  0  0  0  0  0  0
   -0.0174   67.0534   66.7151 H   0  0  0  0  0  0  0  0  0  0  0  0
   -2.5784   67.1280   65.4957 H   0  0  0  0  0  0  0  0  0  0  0  0
   -1.4356   66.7585   69.5111 H   0  0  0  0  0  0  0  0  0  0  0  0
   -1.0496   65.6034   68.1907 H   0  0  0  0  0  0  0  0  0  0  0  0
   -0.3189   67.2443   68.1907 H   0  0  0  0  0  0  0  0  0  0  0  0
   -3.1226   66.3691   67.5070 H   0  0  0  0  0  0  0  0  0  0  0  0
   -2.8130   68.0373   68.1941 H   0  0  0  0  0  0  0  0  0  0  0  0
   -3.0294   69.5267   66.8682 H   0  0  0  0  0  0  0  0  0  0  0  0
   -1.5677   69.7920   65.8359 H   0  0  0  0  0  0  0  0  0  0  0  0
   -4.2329   69.3863   65.1124 H   0  0  0  0  0  0  0  0  0  0  0  0
  2  1  1  0
  3  2  1  0
  4  3  1  0
  5  3  1  0
  6  5  1  0
  7  1  1  0
  7  6  2  0
  8  6  1  0
  9  8  1  0
 10  9  2  0
 11 10  1  0
 12 11  2  0
 13  8  2  0
 13 12  1  0
 14 13  1  0
 15  5  1  0
 15 14  1  0
 16 14  2  0
 17 12  1  0
 17 16  1  0
 19  1  1  0
 19 18  1  0
 20 19  2  0
 21 18  1  0
 23 22  1  0
 23 21  1  0
 24 21  1  0
 25 24  1  0
  1 26  1  6
  2 27  1  0
  2 28  1  0
  3 29  1  6
  4 30  1  0
  4 31  1  0
  4 32  1  0
  5 33  1  6
  7 34  1  0
  9 35  1  0
 10 36  1  0
 11 37  1  0
 15 38  1  0
 15 39  1  0
 16 40  1  0
 17 41  1  0
 18 42  1  0
 21 43  1  6
 22 44  1  0
 22 45  1  0
 22 46  1  0
 23 47  1  0
 23 48  1  0
 24 49  1  0
 24 50  1  0
 25 51  1  0
M  CHG  1   3   1
M  END
>  <score>  (1) 
-9.996

$$$$
=
     RDKit          3D

 51 54  0  0  0  0  0  0  0  0999 V2000
    0.9340   65.6700   70.7360 C   0  0  1  0  0  0  0  0  0  0  0  0
   -0.3830   65.1490   71.3410 C   0  0  0  0  0  0  0  0  0  0  0  0
   -0.1250   64.0800   72.3970 N   0  0  2  0  0  4  0  0  0  0  0  0
    0.5580   64.6310   73.6170 C   0  0  0  0  0  0  0  0  0  0  0  0
    0.5540   62.8630   71.7380 C   0  0  1  0  0  0  0  0  0  0  0  0
    1.6940   63.2710   70.7760 C   0  0  0  0  0  0  0  0  0  0  0  0
    1.8700   64.5420   70.3620 C   0  0  0  0  0  0  0  0  0  0  0  0
    2.5690   62.1710   70.2930 C   0  0  0  0  0  0  0  0  0  0  0  0
    3.4170   62.1590   69.1790 C   0  0  0  0  0  0  0  0  0  0  0  0
    4.1450   61.0070   68.8450 C   0  0  0  0  0  0  0  0  0  0  0  0
    4.0510   59.8280   69.6000 C   0  0  0  0  0  0  0  0  0  0  0  0
    3.1980   59.8520   70.7030 C   0  0  0  0  0  0  0  0  0  0  0  0
    2.4820   60.9870   71.0440 C   0  0  0  0  0  0  0  0  0  0  0  0
    1.7250   60.7040   72.2040 C   0  0  0  0  0  0  0  0  0  0  0  0
    0.8960   61.7720   72.8130 C   0  0  0  0  0  0  0  0  0  0  0  0
    1.9760   59.3990   72.5530 C   0  0  0  0  0  0  0  0  0  0  0  0
    2.8720   58.8880   71.6350 N   0  0  0  0  0  0  0  0  0  0  0  0
    1.4940   67.4860   69.1870 N   0  0  0  0  0  0  0  0  0  0  0  0
    0.5790   66.5030   69.5030 C   0  0  0  0  0  0  0  0  0  0  0  0
   -0.4530   66.3090   68.8680 O   0  0  0  0  0  0  0  0  0  0  0  0
    1.4030   68.3000   67.9660 C   0  0  1  0  0  0  0  0  0  0  0  0
    3.4510   69.5700   67.0780 C   0  0  0  0  0  0  0  0  0  0  0  0
    2.3090   69.5410   68.0820 C   0  0  0  0  0  0  0  0  0  0  0  0
    1.6510   67.4800   66.6810 C   0  0  0  0  0  0  0  0  0  0  0  0
    0.4320   66.9590   66.1600 O   0  0  0  0  0  0  0  0  0  0  0  0
    1.4636   66.2799   71.4827 H   0  0  0  0  0  0  0  0  0  0  0  0
   -0.9204   65.9888   71.8056 H   0  0  0  0  0  0  0  0  0  0  0  0
   -0.9817   64.7014   70.5340 H   0  0  0  0  0  0  0  0  0  0  0  0
   -1.0189   63.7371   72.7768 H   0  0  0  0  0  0  0  0  0  0  0  0
    0.0694   64.2368   74.5202 H   0  0  0  0  0  0  0  0  0  0  0  0
    1.6162   64.3307   73.6119 H   0  0  0  0  0  0  0  0  0  0  0  0
    0.4883   65.7288   73.6119 H   0  0  0  0  0  0  0  0  0  0  0  0
   -0.1572   62.3681   71.0603 H   0  0  0  0  0  0  0  0  0  0  0  0
    2.7352   64.7695   69.7220 H   0  0  0  0  0  0  0  0  0  0  0  0
    3.5135   63.0624   68.5589 H   0  0  0  0  0  0  0  0  0  0  0  0
    4.8076   61.0287   67.9672 H   0  0  0  0  0  0  0  0  0  0  0  0
    4.6233   58.9270   69.3343 H   0  0  0  0  0  0  0  0  0  0  0  0
    1.4515   62.2373   73.6406 H   0  0  0  0  0  0  0  0  0  0  0  0
   -0.0384   61.3325   73.1921 H   0  0  0  0  0  0  0  0  0  0  0  0
    1.5422   58.8596   73.4079 H   0  0  0  0  0  0  0  0  0  0  0  0
    3.2430   57.9272   71.6445 H   0  0  0  0  0  0  0  0  0  0  0  0
    2.2758   67.6573   69.8354 H   0  0  0  0  0  0  0  0  0  0  0  0
    0.3668   68.6570   67.8718 H   0  0  0  0  0  0  0  0  0  0  0  0
    4.4107   69.5944   67.6149 H   0  0  0  0  0  0  0  0  0  0  0  0
    3.4069   68.6704   66.4464 H   0  0  0  0  0  0  0  0  0  0  0  0
    3.3613   70.4662   66.4464 H   0  0  0  0  0  0  0  0  0  0  0  0
    2.7382   69.5623   69.0946 H   0  0  0  0  0  0  0  0  0  0  0  0
    1.6775   70.4166   67.8707 H   0  0  0  0  0  0  0  0  0  0  0  0
    2.1160   68.1296   65.9248 H   0  0  0  0  0  0  0  0  0  0  0  0
    2.3132   66.6370   66.9277 H   0  0  0  0  0  0  0  0  0  0  0  0
   -0.1644   66.7041   66.9080 H   0  0  0  0  0  0  0  0  0  0  0  0
  2  1  1  0
  3  2  1  0
  4  3  1  0
  5  3  1  0
  6  5  1  0
  7  1  1  0
  7  6  2  0
  8  6  1  0
  9  8  1  0
 10  9  2  0
 11 10  1  0
 12 11  2  0
 13  8  2  0
 13 12  1  0
 14 13  1  0
 15  5  1  0
 15 14  1  0
 16 14  2  0
 17 12  1  0
 17 16  1  0
 19  1  1  0
 19 18  1  0
 20 19  2  0
 21 18  1  0
 23 22  1  0
 23 21  1  0
 24 21  1  0
 25 24  1  0
  1 26  1  1
  2 27  1  0
  2 28  1  0
  3 29  1  1
  4 30  1  0
  4 31  1  0
  4 32  1  0
  5 33  1  6
  7 34  1  0
  9 35  1  0
 10 36  1  0
 11 37  1  0
 15 38  1  0
 15 39  1  0
 16 40  1  0
 17 41  1  0
 18 42  1  0
 21 43  1  6
 22 44  1  0
 22 45  1  0
 22 46  1  0
 23 47  1  0
 23 48  1  0
 24 49  1  0
 24 50  1  0
 25 51  1  0
M  CHG  1   3   1
M  END
>  <score>  (2) 
-9.009

$$$$
=
     RDKit          3D

 51 54  0  0  0  0  0  0  0  0999 V2000
    1.5710   64.0200   70.0540 C   0  0  1  0  0  0  0  0  0  0  0  0
    2.9930   64.0620   70.6440 C   0  0  0  0  0  0  0  0  0  0  0  0
    3.5200   62.6590   70.9230 N   0  0  2  0  0  4  0  0  0  0  0  0
    3.7510   61.8720   69.6650 C   0  0  0  0  0  0  0  0  0  0  0  0
    2.6350   61.9820   71.9890 C   0  0  1  0  0  0  0  0  0  0  0  0
    1.1250   62.1860   71.7200 C   0  0  0  0  0  0  0  0  0  0  0  0
    0.6660   63.0830   70.8230 C   0  0  0  0  0  0  0  0  0  0  0  0
    0.1970   61.3650   72.5390 C   0  0  0  0  0  0  0  0  0  0  0  0
   -1.1660   61.5740   72.7830 C   0  0  0  0  0  0  0  0  0  0  0  0
   -1.8840   60.7120   73.6240 C   0  0  0  0  0  0  0  0  0  0  0  0
   -1.2740   59.6170   74.2560 C   0  0  0  0  0  0  0  0  0  0  0  0
    0.0860   59.4240   74.0100 C   0  0  0  0  0  0  0  0  0  0  0  0
    0.8000   60.2660   73.1750 C   0  0  0  0  0  0  0  0  0  0  0  0
    2.1360   59.8080   73.1160 C   0  0  0  0  0  0  0  0  0  0  0  0
    3.1110   60.5090   72.2480 C   0  0  0  0  0  0  0  0  0  0  0  0
    2.2270   58.6990   73.9240 C   0  0  0  0  0  0  0  0  0  0  0  0
    0.9770   58.4740   74.4640 N   0  0  0  0  0  0  0  0  0  0  0  0
    1.3000   66.1990   68.9640 N   0  0  0  0  0  0  0  0  0  0  0  0
    1.0150   65.4450   70.0830 C   0  0  0  0  0  0  0  0  0  0  0  0
    0.3840   65.8720   71.0450 O   0  0  0  0  0  0  0  0  0  0  0  0
    0.7430   67.5420   68.7410 C   0  0  1  0  0  0  0  0  0  0  0  0
    1.3870   69.8280   67.7660 C   0  0  0  0  0  0  0  0  0  0  0  0
    1.8710   68.5400   68.4150 C   0  0  0  0  0  0  0  0  0  0  0  0
   -0.4010   67.5500   67.7040 C   0  0  0  0  0  0  0  0  0  0  0  0
   -0.0420   66.8160   66.5370 O   0  0  0  0  0  0  0  0  0  0  0  0
    1.6144   63.6362   69.0241 H   0  0  0  0  0  0  0  0  0  0  0  0
    3.6631   64.5604   69.9281 H   0  0  0  0  0  0  0  0  0  0  0  0
    2.9577   64.6144   71.5946 H   0  0  0  0  0  0  0  0  0  0  0  0
    4.4649   62.7118   71.3295 H   0  0  0  0  0  0  0  0  0  0  0  0
    4.0521   60.8463   69.9243 H   0  0  0  0  0  0  0  0  0  0  0  0
    2.8233   61.8437   69.0746 H   0  0  0  0  0  0  0  0  0  0  0  0
    4.5469   62.3496   69.0746 H   0  0  0  0  0  0  0  0  0  0  0  0
    2.7713   62.4895   72.9554 H   0  0  0  0  0  0  0  0  0  0  0  0
   -0.4178   63.1356   70.6422 H   0  0  0  0  0  0  0  0  0  0  0  0
   -1.6791   62.4240   72.3095 H   0  0  0  0  0  0  0  0  0  0  0  0
   -2.9547   60.8989   73.7932 H   0  0  0  0  0  0  0  0  0  0  0  0
   -1.8414   58.9427   74.9143 H   0  0  0  0  0  0  0  0  0  0  0  0
    3.1921   59.9780   71.2881 H   0  0  0  0  0  0  0  0  0  0  0  0
    4.0911   60.5281   72.7470 H   0  0  0  0  0  0  0  0  0  0  0  0
    3.1315   58.1002   74.1067 H   0  0  0  0  0  0  0  0  0  0  0  0
    0.7434   57.7081   75.1118 H   0  0  0  0  0  0  0  0  0  0  0  0
    1.9313   65.8040   68.2524 H   0  0  0  0  0  0  0  0  0  0  0  0
    0.2700   67.8748   69.6767 H   0  0  0  0  0  0  0  0  0  0  0  0
    1.1147   70.5526   68.5476 H   0  0  0  0  0  0  0  0  0  0  0  0
    2.1889   70.2473   67.1406 H   0  0  0  0  0  0  0  0  0  0  0  0
    0.5074   69.6154   67.1406 H   0  0  0  0  0  0  0  0  0  0  0  0
    2.5782   68.0511   67.7288 H   0  0  0  0  0  0  0  0  0  0  0  0
    2.3356   68.8200   69.3720 H   0  0  0  0  0  0  0  0  0  0  0  0
   -1.2960   67.0949   68.1532 H   0  0  0  0  0  0  0  0  0  0  0  0
   -0.6009   68.5918   67.4131 H   0  0  0  0  0  0  0  0  0  0  0  0
    0.3771   65.9591   66.8020 H   0  0  0  0  0  0  0  0  0  0  0  0
  2  1  1  0
  3  2  1  0
  4  3  1  0
  5  3  1  0
  6  5  1  0
  7  1  1  0
  7  6  2  0
  8  6  1  0
  9  8  1  0
 10  9  2  0
 11 10  1  0
 12 11  2  0
 13  8  2  0
 13 12  1  0
 14 13  1  0
 15  5  1  0
 15 14  1  0
 16 14  2  0
 17 12  1  0
 17 16  1  0
 19  1  1  0
 19 18  1  0
 20 19  2  0
 21 18  1  0
 23 22  1  0
 23 21  1  0
 24 21  1  0
 25 24  1  0
  1 26  1  6
  2 27  1  0
  2 28  1  0
  3 29  1  1
  4 30  1  0
  4 31  1  0
  4 32  1  0
  5 33  1  1
  7 34  1  0
  9 35  1  0
 10 36  1  0
 11 37  1  0
 15 38  1  0
 15 39  1  0
 16 40  1  0
 17 41  1  0
 18 42  1  0
 21 43  1  1
 22 44  1  0
 22 45  1  0
 22 46  1  0
 23 47  1  0
 23 48  1  0
 24 49  1  0
 24 50  1  0
 25 51  1  0
M  CHG  1   3   1
M  END
>  <score>  (3) 
-8.464

$$$$
=
     RDKit          3D

 51 54  0  0  0  0  0  0  0  0999 V2000
    0.0370   67.2860   67.4010 C   0  0  1  0  0  0  0  0  0  0  0  0
   -0.5240   68.7190   67.3690 C   0  0  0  0  0  0  0  0  0  0  0  0
   -0.9900   69.1030   65.9690 N   0  0  2  0  0  4  0  0  0  0  0  0
   -2.1880   68.3110   65.5260 C   0  0  0  0  0  0  0  0  0  0  0  0
    0.2160   69.0940   65.0080 C   0  0  1  0  0  0  0  0  0  0  0  0
    1.1130   67.8480   65.1950 C   0  0  0  0  0  0  0  0  0  0  0  0
    0.9960   67.0280   66.2590 C   0  0  0  0  0  0  0  0  0  0  0  0
    2.1460   67.6230   64.1530 C   0  0  0  0  0  0  0  0  0  0  0  0
    3.2990   66.8310   64.2270 C   0  0  0  0  0  0  0  0  0  0  0  0
    4.1950   66.7670   63.1500 C   0  0  0  0  0  0  0  0  0  0  0  0
    3.9820   67.4900   61.9660 C   0  0  0  0  0  0  0  0  0  0  0  0
    2.8340   68.2800   61.9080 C   0  0  0  0  0  0  0  0  0  0  0  0
    1.9400   68.3430   62.9630 C   0  0  0  0  0  0  0  0  0  0  0  0
    0.8820   69.2070   62.6010 C   0  0  0  0  0  0  0  0  0  0  0  0
   -0.2440   69.4170   63.5420 C   0  0  0  0  0  0  0  0  0  0  0  0
    1.1460   69.6730   61.3350 C   0  0  0  0  0  0  0  0  0  0  0  0
    2.3330   69.1050   60.9220 N   0  0  0  0  0  0  0  0  0  0  0  0
    0.3900   65.9460   69.4230 N   0  0  0  0  0  0  0  0  0  0  0  0
    0.7420   67.0950   68.7460 C   0  0  0  0  0  0  0  0  0  0  0  0
    1.5400   67.9200   69.1790 O   0  0  0  0  0  0  0  0  0  0  0  0
    1.0520   65.5150   70.6630 C   0  0  1  0  0  0  0  0  0  0  0  0
    0.5890   64.0450   72.7170 C   0  0  0  0  0  0  0  0  0  0  0  0
    0.0120   64.9820   71.6680 C   0  0  0  0  0  0  0  0  0  0  0  0
    2.2160   64.5320   70.4090 C   0  0  0  0  0  0  0  0  0  0  0  0
    1.7960   63.4360   69.6010 O   0  0  0  0  0  0  0  0  0  0  0  0
   -0.7878   66.5676   67.2841 H   0  0  0  0  0  0  0  0  0  0  0  0
   -1.3768   68.7850   68.0607 H   0  0  0  0  0  0  0  0  0  0  0  0
    0.2767   69.4109   67.6692 H   0  0  0  0  0  0  0  0  0  0  0  0
   -1.3477   70.0689   65.9686 H   0  0  0  0  0  0  0  0  0  0  0  0
   -2.7353   67.9492   66.4089 H   0  0  0  0  0  0  0  0  0  0  0  0
   -2.8481   68.9513   64.9224 H   0  0  0  0  0  0  0  0  0  0  0  0
   -1.8575   67.4528   64.9224 H   0  0  0  0  0  0  0  0  0  0  0  0
    0.9000   69.9147   65.2700 H   0  0  0  0  0  0  0  0  0  0  0  0
    1.6278   66.1285   66.2989 H   0  0  0  0  0  0  0  0  0  0  0  0
    3.5039   66.2528   65.1401 H   0  0  0  0  0  0  0  0  0  0  0  0
    5.0895   66.1326   63.2356 H   0  0  0  0  0  0  0  0  0  0  0  0
    4.6872   67.4361   61.1235 H   0  0  0  0  0  0  0  0  0  0  0  0
   -1.0774   68.7539   63.2670 H   0  0  0  0  0  0  0  0  0  0  0  0
   -0.5696   70.4663   63.4880 H   0  0  0  0  0  0  0  0  0  0  0  0
    0.5238   70.3718   60.7566 H   0  0  0  0  0  0  0  0  0  0  0  0
    2.7807   69.2724   60.0096 H   0  0  0  0  0  0  0  0  0  0  0  0
   -0.3703   65.3642   69.0430 H   0  0  0  0  0  0  0  0  0  0  0  0
    1.5271   66.3965   71.1182 H   0  0  0  0  0  0  0  0  0  0  0  0
    0.3529   64.4283   73.7207 H   0  0  0  0  0  0  0  0  0  0  0  0
    0.1510   63.0434   72.5947 H   0  0  0  0  0  0  0  0  0  0  0  0
    1.6805   63.9853   72.5947 H   0  0  0  0  0  0  0  0  0  0  0  0
   -0.7633   64.4387   71.1079 H   0  0  0  0  0  0  0  0  0  0  0  0
   -0.3869   65.8547   72.2059 H   0  0  0  0  0  0  0  0  0  0  0  0
    3.0305   65.0647   69.8963 H   0  0  0  0  0  0  0  0  0  0  0  0
    2.5594   64.1400   71.3777 H   0  0  0  0  0  0  0  0  0  0  0  0
    1.5093   62.6880   70.1827 H   0  0  0  0  0  0  0  0  0  0  0  0
  2  1  1  0
  3  2  1  0
  4  3  1  0
  5  3  1  0
  6  5  1  0
  7  1  1  0
  7  6  2  0
  8  6  1  0
  9  8  1  0
 10  9  2  0
 11 10  1  0
 12 11  2  0
 13  8  2  0
 13 12  1  0
 14 13  1  0
 15  5  1  0
 15 14  1  0
 16 14  2  0
 17 12  1  0
 17 16  1  0
 19  1  1  0
 19 18  1  0
 20 19  2  0
 21 18  1  0
 23 22  1  0
 23 21  1  0
 24 21  1  0
 25 24  1  0
  1 26  1  6
  2 27  1  0
  2 28  1  0
  3 29  1  1
  4 30  1  0
  4 31  1  0
  4 32  1  0
  5 33  1  1
  7 34  1  0
  9 35  1  0
 10 36  1  0
 11 37  1  0
 15 38  1  0
 15 39  1  0
 16 40  1  0
 17 41  1  0
 18 42  1  0
 21 43  1  1
 22 44  1  0
 22 45  1  0
 22 46  1  0
 23 47  1  0
 23 48  1  0
 24 49  1  0
 24 50  1  0
 25 51  1  0
M  CHG  1   3   1
M  END
>  <score>  (4) 
-8.392

$$$$
=
     RDKit          3D

 51 54  0  0  0  0  0  0  0  0999 V2000
    0.8760   58.6330   73.7850 C   0  0  1  0  0  0  0  0  0  0  0  0
    0.5260   59.6910   74.8480 C   0  0  0  0  0  0  0  0  0  0  0  0
   -0.1390   60.9100   74.2190 N   0  0  2  0  0  4  0  0  0  0  0  0
   -1.4980   60.5990   73.6600 C   0  0  0  0  0  0  0  0  0  0  0  0
    0.8490   61.5890   73.2490 C   0  0  1  0  0  0  0  0  0  0  0  0
    1.5810   60.5720   72.3430 C   0  0  0  0  0  0  0  0  0  0  0  0
    1.5550   59.2440   72.5790 C   0  0  0  0  0  0  0  0  0  0  0  0
    2.3560   61.1420   71.2110 C   0  0  0  0  0  0  0  0  0  0  0  0
    3.3790   60.5420   70.4660 C   0  0  0  0  0  0  0  0  0  0  0  0
    4.0360   61.2510   69.4500 C   0  0  0  0  0  0  0  0  0  0  0  0
    3.7060   62.5790   69.1420 C   0  0  0  0  0  0  0  0  0  0  0  0
    2.6900   63.1680   69.8950 C   0  0  0  0  0  0  0  0  0  0  0  0
    2.0310   62.4720   70.8950 C   0  0  0  0  0  0  0  0  0  0  0  0
    1.0560   63.3240   71.4620 C   0  0  0  0  0  0  0  0  0  0  0  0
    0.1700   62.8090   72.5330 C   0  0  0  0  0  0  0  0  0  0  0  0
    1.1370   64.5330   70.8120 C   0  0  0  0  0  0  0  0  0  0  0  0
    2.1330   64.4290   69.8620 N   0  0  0  0  0  0  0  0  0  0  0  0
    1.1920   56.3810   74.7020 N   0  0  0  0  0  0  0  0  0  0  0  0
    1.7890   57.5980   74.4460 C   0  0  0  0  0  0  0  0  0  0  0  0
    2.9540   57.8550   74.7350 O   0  0  0  0  0  0  0  0  0  0  0  0
    1.9340   55.2170   75.2070 C   0  0  1  0  0  0  0  0  0  0  0  0
    0.9380   53.4860   76.8210 C   0  0  0  0  0  0  0  0  0  0  0  0
    1.5000   54.8890   76.6490 C   0  0  0  0  0  0  0  0  0  0  0  0
    1.8610   54.0030   74.2550 C   0  0  0  0  0  0  0  0  0  0  0  0
    2.7490   54.1610   73.1520 O   0  0  0  0  0  0  0  0  0  0  0  0
   -0.0489   58.1644   73.4176 H   0  0  0  0  0  0  0  0  0  0  0  0
   -0.1618   59.2468   75.5826 H   0  0  0  0  0  0  0  0  0  0  0  0
    1.4578   60.0161   75.3339 H   0  0  0  0  0  0  0  0  0  0  0  0
   -0.3514   61.6089   74.9452 H   0  0  0  0  0  0  0  0  0  0  0  0
   -2.2060   60.4370   74.4861 H   0  0  0  0  0  0  0  0  0  0  0  0
   -1.8420   61.4416   73.0422 H   0  0  0  0  0  0  0  0  0  0  0  0
   -1.4413   59.6906   73.0422 H   0  0  0  0  0  0  0  0  0  0  0  0
    1.6782   62.0320   73.8201 H   0  0  0  0  0  0  0  0  0  0  0  0
    2.0507   58.5741   71.8610 H   0  0  0  0  0  0  0  0  0  0  0  0
    3.6703   59.5031   70.6802 H   0  0  0  0  0  0  0  0  0  0  0  0
    4.8324   60.7517   68.8786 H   0  0  0  0  0  0  0  0  0  0  0  0
    4.2243   63.1305   68.3437 H   0  0  0  0  0  0  0  0  0  0  0  0
   -0.7854   62.4876   72.0926 H   0  0  0  0  0  0  0  0  0  0  0  0
   -0.0088   63.6066   73.2691 H   0  0  0  0  0  0  0  0  0  0  0  0
    0.5202   65.4215   71.0126 H   0  0  0  0  0  0  0  0  0  0  0  0
    2.4186   65.1835   69.2216 H   0  0  0  0  0  0  0  0  0  0  0  0
    0.1809   56.2836   74.5316 H   0  0  0  0  0  0  0  0  0  0  0  0
    3.0012   55.4819   75.2381 H   0  0  0  0  0  0  0  0  0  0  0  0
    0.8461   53.2567   77.8929 H   0  0  0  0  0  0  0  0  0  0  0  0
   -0.0530   53.4273   76.3472 H   0  0  0  0  0  0  0  0  0  0  0  0
    1.6145   52.7594   76.3472 H   0  0  0  0  0  0  0  0  0  0  0  0
    0.7267   55.6109   76.9503 H   0  0  0  0  0  0  0  0  0  0  0  0
    2.4025   54.9497   77.2750 H   0  0  0  0  0  0  0  0  0  0  0  0
    2.1362   53.0942   74.8102 H   0  0  0  0  0  0  0  0  0  0  0  0
    0.8343   53.9242   73.8680 H   0  0  0  0  0  0  0  0  0  0  0  0
    3.6661   54.3242   73.4874 H   0  0  0  0  0  0  0  0  0  0  0  0
  2  1  1  0
  3  2  1  0
  4  3  1  0
  5  3  1  0
  6  5  1  0
  7  1  1  0
  7  6  2  0
  8  6  1  0
  9  8  1  0
 10  9  2  0
 11 10  1  0
 12 11  2  0
 13  8  2  0
 13 12  1  0
 14 13  1  0
 15  5  1  0
 15 14  1  0
 16 14  2  0
 17 12  1  0
 17 16  1  0
 19  1  1  0
 19 18  1  0
 20 19  2  0
 21 18  1  0
 23 22  1  0
 23 21  1  0
 24 21  1  0
 25 24  1  0
  1 26  1  6
  2 27  1  0
  2 28  1  0
  3 29  1  1
  4 30  1  0
  4 31  1  0
  4 32  1  0
  5 33  1  1
  7 34  1  0
  9 35  1  0
 10 36  1  0
 11 37  1  0
 15 38  1  0
 15 39  1  0
 16 40  1  0
 17 41  1  0
 18 42  1  0
 21 43  1  1
 22 44  1  0
 22 45  1  0
 22 46  1  0
 23 47  1  0
 23 48  1  0
 24 49  1  0
 24 50  1  0
 25 51  1  0
M  CHG  1   3   1
M  END
>  <score>  (5) 
-8.299

$$$$
=
     RDKit          3D

 51 54  0  0  0  0  0  0  0  0999 V2000
    0.8710   62.0070   72.4270 C   0  0  1  0  0  0  0  0  0  0  0  0
   -0.6300   62.3450   72.3560 C   0  0  0  0  0  0  0  0  0  0  0  0
   -1.3770   61.8130   73.5740 N   0  0  2  0  0  4  0  0  0  0  0  0
   -0.9800   62.5150   74.8420 C   0  0  0  0  0  0  0  0  0  0  0  0
   -1.2860   60.2740   73.5990 C   0  0  1  0  0  0  0  0  0  0  0  0
    0.1430   59.7610   73.3010 C   0  0  0  0  0  0  0  0  0  0  0  0
    1.1090   60.5620   72.8060 C   0  0  0  0  0  0  0  0  0  0  0  0
    0.3860   58.3180   73.5520 C   0  0  0  0  0  0  0  0  0  0  0  0
    1.4160   57.5090   73.0570 C   0  0  0  0  0  0  0  0  0  0  0  0
    1.4680   56.1430   73.3670 C   0  0  0  0  0  0  0  0  0  0  0  0
    0.4960   55.5300   74.1730 C   0  0  0  0  0  0  0  0  0  0  0  0
   -0.5290   56.3450   74.6550 C   0  0  0  0  0  0  0  0  0  0  0  0
   -0.5820   57.6970   74.3600 C   0  0  0  0  0  0  0  0  0  0  0  0
   -1.7180   58.2470   74.9970 C   0  0  0  0  0  0  0  0  0  0  0  0
   -1.9870   59.7010   74.8810 C   0  0  0  0  0  0  0  0  0  0  0  0
   -2.3520   57.2260   75.6630 C   0  0  0  0  0  0  0  0  0  0  0  0
   -1.6230   56.0740   75.4500 N   0  0  0  0  0  0  0  0  0  0  0  0
    2.6750   61.6700   70.8000 N   0  0  0  0  0  0  0  0  0  0  0  0
    1.4780   62.3070   71.0540 C   0  0  0  0  0  0  0  0  0  0  0  0
    0.9360   63.0720   70.2630 O   0  0  0  0  0  0  0  0  0  0  0  0
    3.3460   61.7210   69.4930 C   0  0  1  0  0  0  0  0  0  0  0  0
    4.9320   63.4220   70.5820 C   0  0  0  0  0  0  0  0  0  0  0  0
    4.1320   63.0390   69.3470 C   0  0  0  0  0  0  0  0  0  0  0  0
    4.1990   60.4660   69.2100 C   0  0  0  0  0  0  0  0  0  0  0  0
    4.5720   59.8140   70.4200 O   0  0  0  0  0  0  0  0  0  0  0  0
    1.3463   62.6169   73.2093 H   0  0  0  0  0  0  0  0  0  0  0  0
   -0.7493   63.4376   72.3118 H   0  0  0  0  0  0  0  0  0  0  0  0
   -1.0501   61.8703   71.4570 H   0  0  0  0  0  0  0  0  0  0  0  0
   -2.3794   62.0374   73.4986 H   0  0  0  0  0  0  0  0  0  0  0  0
   -1.3139   61.9246   75.7080 H   0  0  0  0  0  0  0  0  0  0  0  0
    0.1140   62.6250   74.8731 H   0  0  0  0  0  0  0  0  0  0  0  0
   -1.4495   63.5093   74.8731 H   0  0  0  0  0  0  0  0  0  0  0  0
   -1.8628   59.8579   72.7598 H   0  0  0  0  0  0  0  0  0  0  0  0
    2.1178   60.1445   72.6716 H   0  0  0  0  0  0  0  0  0  0  0  0
    2.1939   57.9508   72.4170 H   0  0  0  0  0  0  0  0  0  0  0  0
    2.2931   55.5348   72.9677 H   0  0  0  0  0  0  0  0  0  0  0  0
    0.5402   54.4575   74.4134 H   0  0  0  0  0  0  0  0  0  0  0  0
   -1.5967   60.2162   75.7711 H   0  0  0  0  0  0  0  0  0  0  0  0
   -3.0722   59.8632   74.8031 H   0  0  0  0  0  0  0  0  0  0  0  0
   -3.2733   57.3115   76.2579 H   0  0  0  0  0  0  0  0  0  0  0  0
   -1.8612   55.1466   75.8295 H   0  0  0  0  0  0  0  0  0  0  0  0
    3.1184   61.1347   71.5601 H   0  0  0  0  0  0  0  0  0  0  0  0
    2.5714   61.7117   68.7120 H   0  0  0  0  0  0  0  0  0  0  0  0
    4.3651   63.1506   71.4848 H   0  0  0  0  0  0  0  0  0  0  0  0
    5.8926   62.8861   70.5773 H   0  0  0  0  0  0  0  0  0  0  0  0
    5.1170   64.5063   70.5773 H   0  0  0  0  0  0  0  0  0  0  0  0
    3.4163   63.8468   69.1342 H   0  0  0  0  0  0  0  0  0  0  0  0
    4.8561   62.8892   68.5326 H   0  0  0  0  0  0  0  0  0  0  0  0
    3.6162   59.7680   68.5911 H   0  0  0  0  0  0  0  0  0  0  0  0
    5.1143   60.7776   68.6854 H   0  0  0  0  0  0  0  0  0  0  0  0
    4.2646   60.3513   71.1927 H   0  0  0  0  0  0  0  0  0  0  0  0
  2  1  1  0
  3  2  1  0
  4  3  1  0
  5  3  1  0
  6  5  1  0
  7  1  1  0
  7  6  2  0
  8  6  1  0
  9  8  1  0
 10  9  2  0
 11 10  1  0
 12 11  2  0
 13  8  2  0
 13 12  1  0
 14 13  1  0
 15  5  1  0
 15 14  1  0
 16 14  2  0
 17 12  1  0
 17 16  1  0
 19  1  1  0
 19 18  1  0
 20 19  2  0
 21 18  1  0
 23 22  1  0
 23 21  1  0
 24 21  1  0
 25 24  1  0
  1 26  1  1
  2 27  1  0
  2 28  1  0
  3 29  1  6
  4 30  1  0
  4 31  1  0
  4 32  1  0
  5 33  1  6
  7 34  1  0
  9 35  1  0
 10 36  1  0
 11 37  1  0
 15 38  1  0
 15 39  1  0
 16 40  1  0
 17 41  1  0
 18 42  1  0
 21 43  1  6
 22 44  1  0
 22 45  1  0
 22 46  1  0
 23 47  1  0
 23 48  1  0
 24 49  1  0
 24 50  1  0
 25 51  1  0
M  CHG  1   3   1
M  END
>  <score>  (6) 
-7.962

$$$$
=
     RDKit          3D

 51 54  0  0  0  0  0  0  0  0999 V2000
    4.0450   59.6680   73.6720 C   0  0  1  0  0  0  0  0  0  0  0  0
    4.0550   59.1600   72.2180 C   0  0  0  0  0  0  0  0  0  0  0  0
    4.2750   60.3020   71.2320 N   0  0  2  0  0  4  0  0  0  0  0  0
    5.6490   60.8980   71.3410 C   0  0  0  0  0  0  0  0  0  0  0  0
    3.1000   61.2960   71.3300 C   0  0  1  0  0  0  0  0  0  0  0  0
    2.7190   61.6200   72.7940 C   0  0  0  0  0  0  0  0  0  0  0  0
    3.1800   60.8980   73.8360 C   0  0  0  0  0  0  0  0  0  0  0  0
    1.7780   62.7510   72.9900 C   0  0  0  0  0  0  0  0  0  0  0  0
    0.9900   63.0440   74.1110 C   0  0  0  0  0  0  0  0  0  0  0  0
    0.1170   64.1410   74.1070 C   0  0  0  0  0  0  0  0  0  0  0  0
   -0.0080   64.9830   72.9910 C   0  0  0  0  0  0  0  0  0  0  0  0
    0.7770   64.6770   71.8790 C   0  0  0  0  0  0  0  0  0  0  0  0
    1.6470   63.6000   71.8780 C   0  0  0  0  0  0  0  0  0  0  0  0
    2.3040   63.5590   70.6270 C   0  0  0  0  0  0  0  0  0  0  0  0
    3.3310   62.5200   70.3750 C   0  0  0  0  0  0  0  0  0  0  0  0
    1.8210   64.6030   69.8740 C   0  0  0  0  0  0  0  0  0  0  0  0
    0.8940   65.2760   70.6420 N   0  0  0  0  0  0  0  0  0  0  0  0
    2.2810   58.0570   74.2190 N   0  0  0  0  0  0  0  0  0  0  0  0
    3.5320   58.5300   74.5560 C   0  0  0  0  0  0  0  0  0  0  0  0
    4.1880   58.0980   75.4980 O   0  0  0  0  0  0  0  0  0  0  0  0
    1.6720   56.8810   74.8580 C   0  0  1  0  0  0  0  0  0  0  0  0
   -0.3800   58.2080   74.0710 C   0  0  0  0  0  0  0  0  0  0  0  0
    0.1350   56.9750   74.7960 C   0  0  0  0  0  0  0  0  0  0  0  0
    2.2260   55.5480   74.3100 C   0  0  0  0  0  0  0  0  0  0  0  0
    3.3440   55.1040   75.0720 O   0  0  0  0  0  0  0  0  0  0  0  0
    5.0639   59.9628   73.9635 H   0  0  0  0  0  0  0  0  0  0  0  0
    4.8650   58.4250   72.1011 H   0  0  0  0  0  0  0  0  0  0  0  0
    3.0783   58.7012   72.0045 H   0  0  0  0  0  0  0  0  0  0  0  0
    4.2642   59.9416   70.2672 H   0  0  0  0  0  0  0  0  0  0  0  0
    5.9154   61.0136   72.4020 H   0  0  0  0  0  0  0  0  0  0  0  0
    6.3764   60.2345   70.8504 H   0  0  0  0  0  0  0  0  0  0  0  0
    5.6616   61.8825   70.8504 H   0  0  0  0  0  0  0  0  0  0  0  0
    2.1839   60.8196   70.9509 H   0  0  0  0  0  0  0  0  0  0  0  0
    2.9141   61.2191   74.8539 H   0  0  0  0  0  0  0  0  0  0  0  0
    1.0571   62.4059   75.0045 H   0  0  0  0  0  0  0  0  0  0  0  0
   -0.4866   64.3475   75.0031 H   0  0  0  0  0  0  0  0  0  0  0  0
   -0.6928   65.8438   72.9930 H   0  0  0  0  0  0  0  0  0  0  0  0
    4.3298   62.9425   70.5591 H   0  0  0  0  0  0  0  0  0  0  0  0
    3.2558   62.1830   69.3306 H   0  0  0  0  0  0  0  0  0  0  0  0
    2.1196   64.8556   68.8459 H   0  0  0  0  0  0  0  0  0  0  0  0
    0.3657   66.1056   70.3362 H   0  0  0  0  0  0  0  0  0  0  0  0
    1.7496   58.5496   73.4870 H   0  0  0  0  0  0  0  0  0  0  0  0
    1.9591   56.8843   75.9199 H   0  0  0  0  0  0  0  0  0  0  0  0
   -0.6948   58.9618   74.8077 H   0  0  0  0  0  0  0  0  0  0  0  0
    0.4199   58.6234   73.4404 H   0  0  0  0  0  0  0  0  0  0  0  0
   -1.2377   57.9310   73.4404 H   0  0  0  0  0  0  0  0  0  0  0  0
   -0.2524   56.9919   75.8254 H   0  0  0  0  0  0  0  0  0  0  0  0
   -0.2147   56.1014   74.2263 H   0  0  0  0  0  0  0  0  0  0  0  0
    1.4350   54.7849   74.3550 H   0  0  0  0  0  0  0  0  0  0  0  0
    2.5525   55.7066   73.2716 H   0  0  0  0  0  0  0  0  0  0  0  0
    3.1389   55.1855   76.0371 H   0  0  0  0  0  0  0  0  0  0  0  0
  2  1  1  0
  3  2  1  0
  4  3  1  0
  5  3  1  0
  6  5  1  0
  7  1  1  0
  7  6  2  0
  8  6  1  0
  9  8  1  0
 10  9  2  0
 11 10  1  0
 12 11  2  0
 13  8  2  0
 13 12  1  0
 14 13  1  0
 15  5  1  0
 15 14  1  0
 16 14  2  0
 17 12  1  0
 17 16  1  0
 19  1  1  0
 19 18  1  0
 20 19  2  0
 21 18  1  0
 23 22  1  0
 23 21  1  0
 24 21  1  0
 25 24  1  0
  1 26  1  1
  2 27  1  0
  2 28  1  0
  3 29  1  6
  4 30  1  0
  4 31  1  0
  4 32  1  0
  5 33  1  6
  7 34  1  0
  9 35  1  0
 10 36  1  0
 11 37  1  0
 15 38  1  0
 15 39  1  0
 16 40  1  0
 17 41  1  0
 18 42  1  0
 21 43  1  1
 22 44  1  0
 22 45  1  0
 22 46  1  0
 23 47  1  0
 23 48  1  0
 24 49  1  0
 24 50  1  0
 25 51  1  0
M  CHG  1   3   1
M  END
>  <score>  (7) 
-7.798

$$$$
=
     RDKit          3D

 51 54  0  0  0  0  0  0  0  0999 V2000
    1.1750   58.4220   74.2790 C   0  0  1  0  0  0  0  0  0  0  0  0
    2.3260   57.6480   73.6100 C   0  0  0  0  0  0  0  0  0  0  0  0
    3.5570   58.5300   73.4310 N   0  0  2  0  0  4  0  0  0  0  0  0
    4.1850   58.9130   74.7410 C   0  0  0  0  0  0  0  0  0  0  0  0
    3.2170   59.6960   72.4810 C   0  0  1  0  0  0  0  0  0  0  0  0
    1.8560   60.3510   72.8120 C   0  0  0  0  0  0  0  0  0  0  0  0
    0.9640   59.7810   73.6480 C   0  0  0  0  0  0  0  0  0  0  0  0
    1.5610   61.6330   72.1230 C   0  0  0  0  0  0  0  0  0  0  0  0
    0.3200   62.2560   71.9350 C   0  0  0  0  0  0  0  0  0  0  0  0
    0.2220   63.4550   71.2150 C   0  0  0  0  0  0  0  0  0  0  0  0
    1.3480   64.0750   70.6530 C   0  0  0  0  0  0  0  0  0  0  0  0
    2.5770   63.4420   70.8410 C   0  0  0  0  0  0  0  0  0  0  0  0
    2.6840   62.2610   71.5570 C   0  0  0  0  0  0  0  0  0  0  0  0
    4.0440   61.8780   71.5840 C   0  0  0  0  0  0  0  0  0  0  0  0
    4.4450   60.6620   72.3310 C   0  0  0  0  0  0  0  0  0  0  0  0
    4.7520   62.8200   70.8760 C   0  0  0  0  0  0  0  0  0  0  0  0
    3.8520   63.7660   70.4280 N   0  0  0  0  0  0  0  0  0  0  0  0
    0.1240   56.2080   74.2010 N   0  0  0  0  0  0  0  0  0  0  0  0
   -0.0900   57.5700   74.1500 C   0  0  0  0  0  0  0  0  0  0  0  0
   -1.1970   58.0760   73.9960 O   0  0  0  0  0  0  0  0  0  0  0  0
   -0.9710   55.2270   74.2310 C   0  0  1  0  0  0  0  0  0  0  0  0
    1.0920   53.6990   74.2570 C   0  0  0  0  0  0  0  0  0  0  0  0
   -0.4140   53.7990   74.0730 C   0  0  0  0  0  0  0  0  0  0  0  0
   -1.8880   55.3930   75.4620 C   0  0  0  0  0  0  0  0  0  0  0  0
   -3.2290   55.0190   75.1580 O   0  0  0  0  0  0  0  0  0  0  0  0
    1.4217   58.6039   75.3354 H   0  0  0  0  0  0  0  0  0  0  0  0
    2.5915   56.7859   74.2395 H   0  0  0  0  0  0  0  0  0  0  0  0
    1.9896   57.3160   72.6167 H   0  0  0  0  0  0  0  0  0  0  0  0
    4.3086   57.9967   72.9710 H   0  0  0  0  0  0  0  0  0  0  0  0
    3.5662   58.5356   75.5685 H   0  0  0  0  0  0  0  0  0  0  0  0
    5.1919   58.4751   74.8068 H   0  0  0  0  0  0  0  0  0  0  0  0
    4.2566   60.0087   74.8068 H   0  0  0  0  0  0  0  0  0  0  0  0
    3.0476   59.3054   71.4667 H   0  0  0  0  0  0  0  0  0  0  0  0
    0.0399   60.3298   73.8820 H   0  0  0  0  0  0  0  0  0  0  0  0
   -0.5874   61.7993   72.3570 H   0  0  0  0  0  0  0  0  0  0  0  0
   -0.7654   63.9227   71.0872 H   0  0  0  0  0  0  0  0  0  0  0  0
    1.2657   65.0165   70.0902 H   0  0  0  0  0  0  0  0  0  0  0  0
    4.8062   60.9501   73.3293 H   0  0  0  0  0  0  0  0  0  0  0  0
    5.2452   60.1465   71.7797 H   0  0  0  0  0  0  0  0  0  0  0  0
    5.8376   62.8199   70.6988 H   0  0  0  0  0  0  0  0  0  0  0  0
    4.0974   64.5939   69.8666 H   0  0  0  0  0  0  0  0  0  0  0  0
    1.0943   55.8628   74.2189 H   0  0  0  0  0  0  0  0  0  0  0  0
   -1.6259   55.4214   73.3688 H   0  0  0  0  0  0  0  0  0  0  0  0
    1.3299   53.6832   75.3308 H   0  0  0  0  0  0  0  0  0  0  0  0
    1.4583   52.7746   73.7866 H   0  0  0  0  0  0  0  0  0  0  0  0
    1.5773   54.5669   73.7866 H   0  0  0  0  0  0  0  0  0  0  0  0
   -0.6638   53.4399   73.0637 H   0  0  0  0  0  0  0  0  0  0  0  0
   -0.8727   53.1889   74.8651 H   0  0  0  0  0  0  0  0  0  0  0  0
   -1.5136   54.7563   76.2771 H   0  0  0  0  0  0  0  0  0  0  0  0
   -1.8804   56.4511   75.7627 H   0  0  0  0  0  0  0  0  0  0  0  0
   -3.7314   54.8789   75.9995 H   0  0  0  0  0  0  0  0  0  0  0  0
  2  1  1  0
  3  2  1  0
  4  3  1  0
  5  3  1  0
  6  5  1  0
  7  1  1  0
  7  6  2  0
  8  6  1  0
  9  8  1  0
 10  9  2  0
 11 10  1  0
 12 11  2  0
 13  8  2  0
 13 12  1  0
 14 13  1  0
 15  5  1  0
 15 14  1  0
 16 14  2  0
 17 12  1  0
 17 16  1  0
 19  1  1  0
 19 18  1  0
 20 19  2  0
 21 18  1  0
 23 22  1  0
 23 21  1  0
 24 21  1  0
 25 24  1  0
  1 26  1  1
  2 27  1  0
  2 28  1  0
  3 29  1  6
  4 30  1  0
  4 31  1  0
  4 32  1  0
  5 33  1  6
  7 34  1  0
  9 35  1  0
 10 36  1  0
 11 37  1  0
 15 38  1  0
 15 39  1  0
 16 40  1  0
 17 41  1  0
 18 42  1  0
 21 43  1  6
 22 44  1  0
 22 45  1  0
 22 46  1  0
 23 47  1  0
 23 48  1  0
 24 49  1  0
 24 50  1  0
 25 51  1  0
M  CHG  1   3   1
M  END
>  <score>  (8) 
-7.582

$$$$
=
     RDKit          3D

 51 54  0  0  0  0  0  0  0  0999 V2000
   -2.0430   60.4240   75.0220 C   0  0  1  0  0  0  0  0  0  0  0  0
   -1.8180   58.9320   74.7160 C   0  0  0  0  0  0  0  0  0  0  0  0
   -0.3370   58.6210   74.5270 N   0  0  2  0  0  4  0  0  0  0  0  0
    0.4500   58.7800   75.7960 C   0  0  0  0  0  0  0  0  0  0  0  0
    0.1950   59.3940   73.3030 C   0  0  1  0  0  0  0  0  0  0  0  0
   -0.2810   60.8650   73.2800 C   0  0  0  0  0  0  0  0  0  0  0  0
   -1.2660   61.3190   74.0820 C   0  0  0  0  0  0  0  0  0  0  0  0
    0.3800   61.7520   72.2880 C   0  0  0  0  0  0  0  0  0  0  0  0
   -0.0630   62.9830   71.7890 C   0  0  0  0  0  0  0  0  0  0  0  0
    0.6760   63.6700   70.8160 C   0  0  0  0  0  0  0  0  0  0  0  0
    1.8750   63.1580   70.2990 C   0  0  0  0  0  0  0  0  0  0  0  0
    2.3030   61.9270   70.8000 C   0  0  0  0  0  0  0  0  0  0  0  0
    1.5830   61.2460   71.7670 C   0  0  0  0  0  0  0  0  0  0  0  0
    2.2710   60.0510   72.0750 C   0  0  0  0  0  0  0  0  0  0  0  0
    1.7350   59.1490   73.1230 C   0  0  0  0  0  0  0  0  0  0  0  0
    3.3960   60.0070   71.2860 C   0  0  0  0  0  0  0  0  0  0  0  0
    3.4070   61.1510   70.5140 N   0  0  0  0  0  0  0  0  0  0  0  0
   -4.3270   59.5720   74.7590 N   0  0  0  0  0  0  0  0  0  0  0  0
   -3.5440   60.6990   74.9030 C   0  0  0  0  0  0  0  0  0  0  0  0
   -3.9950   61.8390   74.9190 O   0  0  0  0  0  0  0  0  0  0  0  0
   -5.7970   59.6140   74.7650 C   0  0  1  0  0  0  0  0  0  0  0  0
   -7.5230   61.0050   73.4700 C   0  0  0  0  0  0  0  0  0  0  0  0
   -6.3240   60.0730   73.3920 C   0  0  0  0  0  0  0  0  0  0  0  0
   -6.4310   58.2940   75.2540 C   0  0  0  0  0  0  0  0  0  0  0  0
   -6.7430   57.4370   74.1600 O   0  0  0  0  0  0  0  0  0  0  0  0
   -1.6806   60.6474   76.0363 H   0  0  0  0  0  0  0  0  0  0  0  0
   -2.2059   58.3324   75.5527 H   0  0  0  0  0  0  0  0  0  0  0  0
   -2.3457   58.6861   73.7827 H   0  0  0  0  0  0  0  0  0  0  0  0
   -0.2112   57.6218   74.3109 H   0  0  0  0  0  0  0  0  0  0  0  0
   -0.2169   58.6453   76.6604 H   0  0  0  0  0  0  0  0  0  0  0  0
    1.2495   58.0252   75.8286 H   0  0  0  0  0  0  0  0  0  0  0  0
    0.8938   59.7860   75.8286 H   0  0  0  0  0  0  0  0  0  0  0  0
   -0.2581   58.9882   72.3865 H   0  0  0  0  0  0  0  0  0  0  0  0
   -1.5159   62.3898   74.0510 H   0  0  0  0  0  0  0  0  0  0  0  0
   -1.0018   63.4159   72.1649 H   0  0  0  0  0  0  0  0  0  0  0  0
    0.3051   64.6378   70.4476 H   0  0  0  0  0  0  0  0  0  0  0  0
    2.4510   63.7006   69.5349 H   0  0  0  0  0  0  0  0  0  0  0  0
    2.2497   59.3490   74.0744 H   0  0  0  0  0  0  0  0  0  0  0  0
    1.9025   58.1044   72.8218 H   0  0  0  0  0  0  0  0  0  0  0  0
    4.1499   59.2061   71.2725 H   0  0  0  0  0  0  0  0  0  0  0  0
    4.1338   61.3905   69.8246 H   0  0  0  0  0  0  0  0  0  0  0  0
   -3.8612   58.6608   74.6421 H   0  0  0  0  0  0  0  0  0  0  0  0
   -6.1130   60.3636   75.5055 H   0  0  0  0  0  0  0  0  0  0  0  0
   -7.7701   61.1971   74.5245 H   0  0  0  0  0  0  0  0  0  0  0  0
   -7.2819   61.9552   72.9709 H   0  0  0  0  0  0  0  0  0  0  0  0
   -8.3843   60.5369   72.9709 H   0  0  0  0  0  0  0  0  0  0  0  0
   -6.6157   59.1813   72.8177 H   0  0  0  0  0  0  0  0  0  0  0  0
   -5.5118   60.6387   72.9122 H   0  0  0  0  0  0  0  0  0  0  0  0
   -5.7226   57.7811   75.9211 H   0  0  0  0  0  0  0  0  0  0  0  0
   -7.3631   58.5316   75.7876 H   0  0  0  0  0  0  0  0  0  0  0  0
   -7.0605   56.5648   74.5042 H   0  0  0  0  0  0  0  0  0  0  0  0
  2  1  1  0
  3  2  1  0
  4  3  1  0
  5  3  1  0
  6  5  1  0
  7  1  1  0
  7  6  2  0
  8  6  1  0
  9  8  1  0
 10  9  2  0
 11 10  1  0
 12 11  2  0
 13  8  2  0
 13 12  1  0
 14 13  1  0
 15  5  1  0
 15 14  1  0
 16 14  2  0
 17 12  1  0
 17 16  1  0
 19  1  1  0
 19 18  1  0
 20 19  2  0
 21 18  1  0
 23 22  1  0
 23 21  1  0
 24 21  1  0
 25 24  1  0
  1 26  1  1
  2 27  1  0
  2 28  1  0
  3 29  1  6
  4 30  1  0
  4 31  1  0
  4 32  1  0
  5 33  1  6
  7 34  1  0
  9 35  1  0
 10 36  1  0
 11 37  1  0
 15 38  1  0
 15 39  1  0
 16 40  1  0
 17 41  1  0
 18 42  1  0
 21 43  1  1
 22 44  1  0
 22 45  1  0
 22 46  1  0
 23 47  1  0
 23 48  1  0
 24 49  1  0
 24 50  1  0
 25 51  1  0
M  CHG  1   3   1
M  END
>  <score>  (9) 
-7.272

$$$$
