=
     RDKit          3D

 81 87  0  0  0  0  0  0  0  0999 V2000
    0.0910   66.9320   68.1000 O   0  0  0  0  0  0  0  0  0  0  0  0
    0.9880   67.2210   68.8840 C   0  0  0  0  0  0  0  0  0  0  0  0
    2.0120   68.0990   68.6070 N   0  0  0  0  0  0  0  0  0  0  0  0
    1.1140   66.4160   70.1800 C   0  0  1  0  0  0  0  0  0  0  0  0
   -0.3250   66.0160   70.5380 C   0  0  0  0  0  0  0  0  0  0  0  0
   -0.3540   64.9730   71.6470 N   0  0  2  0  0  4  0  0  0  0  0  0
    0.1130   65.5380   72.9630 C   0  0  0  0  0  0  0  0  0  0  0  0
    0.3670   63.6950   71.1760 C   0  0  1  0  0  0  0  0  0  0  0  0
    1.7330   64.0020   70.5100 C   0  0  0  0  0  0  0  0  0  0  0  0
    2.0670   65.2440   70.1070 C   0  0  0  0  0  0  0  0  0  0  0  0
    2.6450   62.8490   70.3030 C   0  0  0  0  0  0  0  0  0  0  0  0
    3.7630   62.7670   69.4640 C   0  0  0  0  0  0  0  0  0  0  0  0
    4.4860   61.5700   69.3500 C   0  0  0  0  0  0  0  0  0  0  0  0
    4.1200   60.4150   70.0550 C   0  0  0  0  0  0  0  0  0  0  0  0
    3.0050   60.5110   70.8880 C   0  0  0  0  0  0  0  0  0  0  0  0
    2.2920   61.6910   71.0140 C   0  0  0  0  0  0  0  0  0  0  0  0
    1.2420   61.4800   71.9370 C   0  0  0  0  0  0  0  0  0  0  0  0
    0.3560   62.6110   72.3080 C   0  0  0  0  0  0  0  0  0  0  0  0
    1.3130   60.1720   72.3510 C   0  0  0  0  0  0  0  0  0  0  0  0
    2.3850   59.5900   71.7060 N   0  0  0  0  0  0  0  0  0  0  0  0
    1.9710   69.0430   67.4870 C   0  0  2  0  0  0  0  0  0  0  0  0
    0.8380   68.7430   66.6760 O   0  0  0  0  0  0  0  0  0  0  0  0
    1.3110   68.2680   65.4160 C   0  0  2  0  0  0  0  0  0  0  0  0
    2.7240   68.4470   65.3720 N   0  0  0  0  0  0  0  0  0  0  0  0
    3.1950   68.9520   66.5600 C   0  0  0  0  0  0  0  0  0  0  0  0
    4.3410   69.2700   66.8340 O   0  0  0  0  0  0  0  0  0  0  0  0
    3.4820   68.4220   64.1070 C   0  0  2  0  0  0  0  0  0  0  0  0
    2.5910   68.3310   62.8180 C   0  0  0  0  0  0  0  0  0  0  0  0
    3.0400   68.0490   61.7100 O   0  0  0  0  0  0  0  0  0  0  0  0
    1.2570   68.6530   62.9790 N   0  0  0  0  0  0  0  0  0  0  0  0
    0.6700   69.0520   64.2530 C   0  0  1  0  0  0  0  0  0  0  0  0
   -0.8280   68.8410   64.0340 C   0  0  0  0  0  0  0  0  0  0  0  0
   -0.9900   69.1750   62.5490 C   0  0  0  0  0  0  0  0  0  0  0  0
    0.2720   68.5970   61.9150 C   0  0  0  0  0  0  0  0  0  0  0  0
    4.6120   67.3570   64.1560 C   0  0  0  0  0  0  0  0  0  0  0  0
    5.8980   67.8330   63.4720 C   0  0  0  0  0  0  0  0  0  0  0  0
    4.1840   65.9970   63.5980 C   0  0  0  0  0  0  0  0  0  0  0  0
    1.8450   70.5050   68.0290 C   0  0  0  0  0  0  0  0  0  0  0  0
    0.4060   70.8730   68.4280 C   0  0  0  0  0  0  0  0  0  0  0  0
    2.7430   70.7740   69.2490 C   0  0  0  0  0  0  0  0  0  0  0  0
    1.0420   66.8850   65.3270 O   0  0  0  0  0  0  0  0  0  0  0  0
    2.8440   68.0919   69.2142 H   0  0  0  0  0  0  0  0  0  0  0  0
    1.5785   67.0243   70.9700 H   0  0  0  0  0  0  0  0  0  0  0  0
   -0.8717   66.9097   70.8733 H   0  0  0  0  0  0  0  0  0  0  0  0
   -0.7957   65.5822   69.6434 H   0  0  0  0  0  0  0  0  0  0  0  0
   -1.3254   64.6917   71.8424 H   0  0  0  0  0  0  0  0  0  0  0  0
   -0.3505   64.9772   73.7880 H   0  0  0  0  0  0  0  0  0  0  0  0
    1.2076   65.4525   73.0310 H   0  0  0  0  0  0  0  0  0  0  0  0
   -0.1770   66.5969   73.0310 H   0  0  0  0  0  0  0  0  0  0  0  0
   -0.1934   63.2319   70.3505 H   0  0  0  0  0  0  0  0  0  0  0  0
    3.0778   65.4127   69.7072 H   0  0  0  0  0  0  0  0  0  0  0  0
    4.0777   63.6500   68.8884 H   0  0  0  0  0  0  0  0  0  0  0  0
    5.3646   61.5370   68.6889 H   0  0  0  0  0  0  0  0  0  0  0  0
    4.6856   59.4767   69.9560 H   0  0  0  0  0  0  0  0  0  0  0  0
   -0.6701   62.2395   72.4465 H   0  0  0  0  0  0  0  0  0  0  0  0
    0.7192   63.0622   73.2432 H   0  0  0  0  0  0  0  0  0  0  0  0
    0.6384   59.6787   73.0662 H   0  0  0  0  0  0  0  0  0  0  0  0
    2.6795   58.6095   71.8191 H   0  0  0  0  0  0  0  0  0  0  0  0
    3.9623   69.4073   64.0148 H   0  0  0  0  0  0  0  0  0  0  0  0
    0.8535   70.0949   64.5508 H   0  0  0  0  0  0  0  0  0  0  0  0
   -1.1186   67.8008   64.2425 H   0  0  0  0  0  0  0  0  0  0  0  0
   -1.4604   69.4521   64.6948 H   0  0  0  0  0  0  0  0  0  0  0  0
   -1.8914   68.6995   62.1350 H   0  0  0  0  0  0  0  0  0  0  0  0
   -1.1087   70.2525   62.3623 H   0  0  0  0  0  0  0  0  0  0  0  0
    0.1062   67.5593   61.5900 H   0  0  0  0  0  0  0  0  0  0  0  0
    0.5863   69.1502   61.0177 H   0  0  0  0  0  0  0  0  0  0  0  0
    4.8251   67.2199   65.2264 H   0  0  0  0  0  0  0  0  0  0  0  0
    6.6398   68.1076   64.2364 H   0  0  0  0  0  0  0  0  0  0  0  0
    6.3004   67.0243   62.8443 H   0  0  0  0  0  0  0  0  0  0  0  0
    5.6769   68.7088   62.8443 H   0  0  0  0  0  0  0  0  0  0  0  0
    3.9680   65.3108   64.4301 H   0  0  0  0  0  0  0  0  0  0  0  0
    3.2815   66.1212   62.9815 H   0  0  0  0  0  0  0  0  0  0  0  0
    4.9950   65.5820   62.9815 H   0  0  0  0  0  0  0  0  0  0  0  0
    2.1702   71.1286   67.1832 H   0  0  0  0  0  0  0  0  0  0  0  0
    0.3236   70.8941   69.5247 H   0  0  0  0  0  0  0  0  0  0  0  0
    0.1551   71.8642   68.0223 H   0  0  0  0  0  0  0  0  0  0  0  0
   -0.2899   70.1239   68.0223 H   0  0  0  0  0  0  0  0  0  0  0  0
    2.1692   70.6021   70.1716 H   0  0  0  0  0  0  0  0  0  0  0  0
    3.6086   70.0957   69.2238 H   0  0  0  0  0  0  0  0  0  0  0  0
    3.0932   71.8165   69.2238 H   0  0  0  0  0  0  0  0  0  0  0  0
    0.9679   66.5040   66.2377 H   0  0  0  0  0  0  0  0  0  0  0  0
  2  1  2  0
  3  2  1  0
  4  2  1  0
  5  4  1  0
  6  5  1  0
  7  6  1  0
  8  6  1  0
  9  8  1  0
 10  9  2  0
 10  4  1  0
 11  9  1  0
 12 11  2  0
 13 12  1  0
 14 13  2  0
 15 14  1  0
 16 11  1  0
 16 15  2  0
 17 16  1  0
 18 17  1  0
 18  8  1  0
 19 17  2  0
 20 19  1  0
 20 15  1  0
 21  3  1  1
 22 21  1  0
 23 22  1  0
 24 23  1  0
 25 24  1  0
 25 21  1  0
 26 25  2  0
 27 24  1  0
 28 27  1  0
 29 28  2  0
 30 28  1  0
 31 30  1  0
 31 23  1  0
 32 31  1  0
 33 32  1  0
 34 33  1  0
 34 30  1  0
 35 27  1  0
 36 35  1  0
 37 35  1  0
 38 21  1  0
 39 38  1  0
 40 38  1  0
 23 41  1  6
  3 42  1  0
  4 43  1  1
  5 44  1  0
  5 45  1  0
  6 46  1  1
  7 47  1  0
  7 48  1  0
  7 49  1  0
  8 50  1  6
 10 51  1  0
 12 52  1  0
 13 53  1  0
 14 54  1  0
 18 55  1  0
 18 56  1  0
 19 57  1  0
 20 58  1  0
 27 59  1  6
 31 60  1  1
 32 61  1  0
 32 62  1  0
 33 63  1  0
 33 64  1  0
 34 65  1  0
 34 66  1  0
 35 67  1  0
 36 68  1  0
 36 69  1  0
 36 70  1  0
 37 71  1  0
 37 72  1  0
 37 73  1  0
 38 74  1  0
 39 75  1  0
 39 76  1  0
 39 77  1  0
 40 78  1  0
 40 79  1  0
 40 80  1  0
 41 81  1  0
M  CHG  1   6   1
M  END
>  <score>  (1) 
-10.581

$$$$
=
     RDKit          3D

 81 87  0  0  0  0  0  0  0  0999 V2000
   -0.2700   66.4280   68.6680 O   0  0  0  0  0  0  0  0  0  0  0  0
    0.7240   66.6820   69.3390 C   0  0  0  0  0  0  0  0  0  0  0  0
    1.7180   67.5550   68.9590 N   0  0  0  0  0  0  0  0  0  0  0  0
    1.0000   65.8370   70.5860 C   0  0  1  0  0  0  0  0  0  0  0  0
   -0.3860   65.3910   71.0760 C   0  0  0  0  0  0  0  0  0  0  0  0
   -0.2790   64.3110   72.1440 N   0  0  2  0  0  4  0  0  0  0  0  0
    0.3090   64.8430   73.4240 C   0  0  0  0  0  0  0  0  0  0  0  0
    0.4160   63.0670   71.5560 C   0  0  1  0  0  0  0  0  0  0  0  0
    1.6990   63.4300   70.7650 C   0  0  0  0  0  0  0  0  0  0  0  0
    1.9640   64.6930   70.3750 C   0  0  0  0  0  0  0  0  0  0  0  0
    2.6080   62.3070   70.4250 C   0  0  0  0  0  0  0  0  0  0  0  0
    3.6360   62.2800   69.4730 C   0  0  0  0  0  0  0  0  0  0  0  0
    4.3670   61.1050   69.2430 C   0  0  0  0  0  0  0  0  0  0  0  0
    4.1000   59.9190   69.9410 C   0  0  0  0  0  0  0  0  0  0  0  0
    3.0750   59.9600   70.8870 C   0  0  0  0  0  0  0  0  0  0  0  0
    2.3550   61.1180   71.1270 C   0  0  0  0  0  0  0  0  0  0  0  0
    1.4110   60.8510   72.1450 C   0  0  0  0  0  0  0  0  0  0  0  0
    0.5450   61.9460   72.6440 C   0  0  0  0  0  0  0  0  0  0  0  0
    1.5510   59.5310   72.5020 C   0  0  0  0  0  0  0  0  0  0  0  0
    2.5630   58.9980   71.7300 N   0  0  0  0  0  0  0  0  0  0  0  0
    1.5520   68.5320   67.8800 C   0  0  2  0  0  0  0  0  0  0  0  0
    1.3090   67.8320   66.6620 O   0  0  0  0  0  0  0  0  0  0  0  0
    2.4300   68.0400   65.8040 C   0  0  2  0  0  0  0  0  0  0  0  0
    3.2800   69.0130   66.4040 N   0  0  0  0  0  0  0  0  0  0  0  0
    2.8000   69.3960   67.6340 C   0  0  0  0  0  0  0  0  0  0  0  0
    3.2570   70.2450   68.3820 O   0  0  0  0  0  0  0  0  0  0  0  0
    4.3120   69.7380   65.6390 C   0  0  2  0  0  0  0  0  0  0  0  0
    4.2930   69.4550   64.0950 C   0  0  0  0  0  0  0  0  0  0  0  0
    5.2160   69.7620   63.3450 O   0  0  0  0  0  0  0  0  0  0  0  0
    3.1350   68.8900   63.5960 N   0  0  0  0  0  0  0  0  0  0  0  0
    1.9790   68.5530   64.4210 C   0  0  1  0  0  0  0  0  0  0  0  0
    1.1990   67.5690   63.5500 C   0  0  0  0  0  0  0  0  0  0  0  0
    1.4800   68.0890   62.1380 C   0  0  0  0  0  0  0  0  0  0  0  0
    2.9400   68.5270   62.2060 C   0  0  0  0  0  0  0  0  0  0  0  0
    5.7140   69.5560   66.2850 C   0  0  0  0  0  0  0  0  0  0  0  0
    6.3940   70.8940   66.5950 C   0  0  0  0  0  0  0  0  0  0  0  0
    6.6460   68.6610   65.4640 C   0  0  0  0  0  0  0  0  0  0  0  0
    0.3350   69.4650   68.1910 C   0  0  0  0  0  0  0  0  0  0  0  0
    0.7350   70.9420   68.3360 C   0  0  0  0  0  0  0  0  0  0  0  0
   -0.7690   69.3900   67.1220 C   0  0  0  0  0  0  0  0  0  0  0  0
    3.1500   66.8300   65.7050 O   0  0  0  0  0  0  0  0  0  0  0  0
    2.6196   67.5198   69.4558 H   0  0  0  0  0  0  0  0  0  0  0  0
    1.5313   66.4297   71.3452 H   0  0  0  0  0  0  0  0  0  0  0  0
   -0.9128   66.2598   71.4976 H   0  0  0  0  0  0  0  0  0  0  0  0
   -0.9380   64.9763   70.2197 H   0  0  0  0  0  0  0  0  0  0  0  0
   -1.2189   63.9994   72.4277 H   0  0  0  0  0  0  0  0  0  0  0  0
   -0.2016   64.3811   74.2819 H   0  0  0  0  0  0  0  0  0  0  0  0
    1.3816   64.6023   73.4626 H   0  0  0  0  0  0  0  0  0  0  0  0
    0.1765   65.9343   73.4626 H   0  0  0  0  0  0  0  0  0  0  0  0
   -0.2168   62.6176   70.7766 H   0  0  0  0  0  0  0  0  0  0  0  0
    2.9249   64.8998   69.8812 H   0  0  0  0  0  0  0  0  0  0  0  0
    3.8720   63.1891   68.9005 H   0  0  0  0  0  0  0  0  0  0  0  0
    5.1724   61.1146   68.4938 H   0  0  0  0  0  0  0  0  0  0  0  0
    4.6720   58.9987   69.7518 H   0  0  0  0  0  0  0  0  0  0  0  0
   -0.4532   61.5449   72.8736 H   0  0  0  0  0  0  0  0  0  0  0  0
    0.9933   62.3749   73.5524 H   0  0  0  0  0  0  0  0  0  0  0  0
    0.9638   58.9972   73.2637 H   0  0  0  0  0  0  0  0  0  0  0  0
    2.8886   58.0220   71.7772 H   0  0  0  0  0  0  0  0  0  0  0  0
    4.0546   70.8054   65.7057 H   0  0  0  0  0  0  0  0  0  0  0  0
    1.3286   69.3979   64.6913 H   0  0  0  0  0  0  0  0  0  0  0  0
    1.5717   66.5420   63.6777 H   0  0  0  0  0  0  0  0  0  0  0  0
    0.1279   67.5172   63.7951 H   0  0  0  0  0  0  0  0  0  0  0  0
    1.3422   67.2934   61.3910 H   0  0  0  0  0  0  0  0  0  0  0  0
    0.8018   68.9010   61.8367 H   0  0  0  0  0  0  0  0  0  0  0  0
    3.6091   67.7020   61.9201 H   0  0  0  0  0  0  0  0  0  0  0  0
    3.1653   69.3548   61.5175 H   0  0  0  0  0  0  0  0  0  0  0  0
    5.5227   69.0406   67.2378 H   0  0  0  0  0  0  0  0  0  0  0  0
    6.4616   71.0271   67.6848 H   0  0  0  0  0  0  0  0  0  0  0  0
    7.4049   70.9007   66.1613 H   0  0  0  0  0  0  0  0  0  0  0  0
    5.8035   71.7145   66.1613 H   0  0  0  0  0  0  0  0  0  0  0  0
    7.2704   68.0614   66.1427 H   0  0  0  0  0  0  0  0  0  0  0  0
    6.0466   67.9914   64.8297 H   0  0  0  0  0  0  0  0  0  0  0  0
    7.2907   69.2871   64.8297 H   0  0  0  0  0  0  0  0  0  0  0  0
   -0.0493   69.0861   69.1495 H   0  0  0  0  0  0  0  0  0  0  0  0
    0.8048   71.1999   69.4031 H   0  0  0  0  0  0  0  0  0  0  0  0
    1.7101   71.1068   67.8544 H   0  0  0  0  0  0  0  0  0  0  0  0
   -0.0237   71.5763   67.8544 H   0  0  0  0  0  0  0  0  0  0  0  0
   -1.7510   69.3233   67.6131 H   0  0  0  0  0  0  0  0  0  0  0  0
   -0.7335   70.2926   66.4943 H   0  0  0  0  0  0  0  0  0  0  0  0
   -0.6118   68.5005   66.4943 H   0  0  0  0  0  0  0  0  0  0  0  0
    3.3518   66.4909   66.6129 H   0  0  0  0  0  0  0  0  0  0  0  0
  2  1  2  0
  3  2  1  0
  4  2  1  0
  5  4  1  0
  6  5  1  0
  7  6  1  0
  8  6  1  0
  9  8  1  0
 10  9  2  0
 10  4  1  0
 11  9  1  0
 12 11  2  0
 13 12  1  0
 14 13  2  0
 15 14  1  0
 16 11  1  0
 16 15  2  0
 17 16  1  0
 18 17  1  0
 18  8  1  0
 19 17  2  0
 20 19  1  0
 20 15  1  0
 21  3  1  1
 22 21  1  0
 23 22  1  0
 24 23  1  0
 25 24  1  0
 25 21  1  0
 26 25  2  0
 27 24  1  0
 28 27  1  0
 29 28  2  0
 30 28  1  0
 31 30  1  0
 31 23  1  0
 32 31  1  0
 33 32  1  0
 34 33  1  0
 34 30  1  0
 35 27  1  0
 36 35  1  0
 37 35  1  0
 38 21  1  0
 39 38  1  0
 40 38  1  0
 23 41  1  6
  3 42  1  0
  4 43  1  1
  5 44  1  0
  5 45  1  0
  6 46  1  1
  7 47  1  0
  7 48  1  0
  7 49  1  0
  8 50  1  6
 10 51  1  0
 12 52  1  0
 13 53  1  0
 14 54  1  0
 18 55  1  0
 18 56  1  0
 19 57  1  0
 20 58  1  0
 27 59  1  6
 31 60  1  1
 32 61  1  0
 32 62  1  0
 33 63  1  0
 33 64  1  0
 34 65  1  0
 34 66  1  0
 35 67  1  0
 36 68  1  0
 36 69  1  0
 36 70  1  0
 37 71  1  0
 37 72  1  0
 37 73  1  0
 38 74  1  0
 39 75  1  0
 39 76  1  0
 39 77  1  0
 40 78  1  0
 40 79  1  0
 40 80  1  0
 41 81  1  0
M  CHG  1   6   1
M  END
>  <score>  (2) 
-9.76

$$$$
=
     RDKit          3D

 81 87  0  0  0  0  0  0  0  0999 V2000
    2.7630   57.6120   72.9570 O   0  0  0  0  0  0  0  0  0  0  0  0
    2.7710   58.6650   73.5850 C   0  0  0  0  0  0  0  0  0  0  0  0
    2.2500   58.8220   74.8490 N   0  0  0  0  0  0  0  0  0  0  0  0
    3.1940   59.9450   72.8590 C   0  0  1  0  0  0  0  0  0  0  0  0
    2.9490   59.6560   71.3710 C   0  0  0  0  0  0  0  0  0  0  0  0
    3.0530   60.9220   70.5320 N   0  0  2  0  0  4  0  0  0  0  0  0
    4.4620   61.4500   70.4840 C   0  0  0  0  0  0  0  0  0  0  0  0
    1.9770   61.9310   70.9810 C   0  0  1  0  0  0  0  0  0  0  0  0
    1.9260   62.0890   72.5230 C   0  0  0  0  0  0  0  0  0  0  0  0
    2.5180   61.2050   73.3500 C   0  0  0  0  0  0  0  0  0  0  0  0
    1.1570   63.2450   73.0460 C   0  0  0  0  0  0  0  0  0  0  0  0
    0.6780   63.4530   74.3460 C   0  0  0  0  0  0  0  0  0  0  0  0
   -0.0840   64.5890   74.6550 C   0  0  0  0  0  0  0  0  0  0  0  0
   -0.4030   65.5510   73.6870 C   0  0  0  0  0  0  0  0  0  0  0  0
    0.0800   65.3330   72.3960 C   0  0  0  0  0  0  0  0  0  0  0  0
    0.8410   64.2190   72.0850 C   0  0  0  0  0  0  0  0  0  0  0  0
    1.1970   64.2920   70.7190 C   0  0  0  0  0  0  0  0  0  0  0  0
    2.0730   63.2470   70.1350 C   0  0  0  0  0  0  0  0  0  0  0  0
    0.6350   65.4360   70.2060 C   0  0  0  0  0  0  0  0  0  0  0  0
   -0.0440   66.0610   71.2320 N   0  0  0  0  0  0  0  0  0  0  0  0
    1.9350   57.6930   75.7280 C   0  0  2  0  0  0  0  0  0  0  0  0
    1.9180   56.4980   74.9490 O   0  0  0  0  0  0  0  0  0  0  0  0
    0.5770   56.0130   74.9170 C   0  0  2  0  0  0  0  0  0  0  0  0
   -0.2040   56.7900   75.8200 N   0  0  0  0  0  0  0  0  0  0  0  0
    0.5490   57.7930   76.3850 C   0  0  0  0  0  0  0  0  0  0  0  0
    0.2020   58.5970   77.2360 O   0  0  0  0  0  0  0  0  0  0  0  0
   -1.5160   56.3380   76.3180 C   0  0  2  0  0  0  0  0  0  0  0  0
   -1.9060   54.8800   75.8880 C   0  0  0  0  0  0  0  0  0  0  0  0
   -3.0450   54.4310   75.9910 O   0  0  0  0  0  0  0  0  0  0  0  0
   -0.8710   54.0830   75.4390 N   0  0  0  0  0  0  0  0  0  0  0  0
    0.5140   54.5330   75.3460 C   0  0  1  0  0  0  0  0  0  0  0  0
    1.1510   53.5200   74.3950 C   0  0  0  0  0  0  0  0  0  0  0  0
    0.3900   52.2350   74.7280 C   0  0  0  0  0  0  0  0  0  0  0  0
   -1.0370   52.7210   74.9680 C   0  0  0  0  0  0  0  0  0  0  0  0
   -2.6190   57.3890   76.0140 C   0  0  0  0  0  0  0  0  0  0  0  0
   -2.1960   58.3850   74.9280 C   0  0  0  0  0  0  0  0  0  0  0  0
   -3.1060   58.1340   77.2590 C   0  0  0  0  0  0  0  0  0  0  0  0
    3.0250   57.5670   76.8430 C   0  0  0  0  0  0  0  0  0  0  0  0
    4.2420   56.7390   76.3990 C   0  0  0  0  0  0  0  0  0  0  0  0
    3.5480   58.9290   77.3300 C   0  0  0  0  0  0  0  0  0  0  0  0
    0.0610   56.2040   73.6160 O   0  0  0  0  0  0  0  0  0  0  0  0
    2.0735   59.7768   75.1928 H   0  0  0  0  0  0  0  0  0  0  0  0
    4.2506   60.1733   73.0626 H   0  0  0  0  0  0  0  0  0  0  0  0
    3.6986   58.9317   71.0195 H   0  0  0  0  0  0  0  0  0  0  0  0
    1.9319   59.2518   71.2610 H   0  0  0  0  0  0  0  0  0  0  0  0
    2.8463   60.7108   69.5453 H   0  0  0  0  0  0  0  0  0  0  0  0
    4.8361   61.5902   71.5089 H   0  0  0  0  0  0  0  0  0  0  0  0
    5.1049   60.7318   69.9540 H   0  0  0  0  0  0  0  0  0  0  0  0
    4.4745   62.4138   69.9540 H   0  0  0  0  0  0  0  0  0  0  0  0
    0.9757   61.5352   70.7558 H   0  0  0  0  0  0  0  0  0  0  0  0
    2.5090   61.4093   74.4308 H   0  0  0  0  0  0  0  0  0  0  0  0
    0.9020   62.7175   75.1327 H   0  0  0  0  0  0  0  0  0  0  0  0
   -0.4413   64.7289   75.6859 H   0  0  0  0  0  0  0  0  0  0  0  0
   -1.0063   66.4371   73.9335 H   0  0  0  0  0  0  0  0  0  0  0  0
    1.7545   63.0402   69.1026 H   0  0  0  0  0  0  0  0  0  0  0  0
    3.1134   63.6042   70.1406 H   0  0  0  0  0  0  0  0  0  0  0  0
    0.7122   65.7892   69.1671 H   0  0  0  0  0  0  0  0  0  0  0  0
   -0.5675   66.9434   71.1412 H   0  0  0  0  0  0  0  0  0  0  0  0
   -1.4231   56.2648   77.4116 H   0  0  0  0  0  0  0  0  0  0  0  0
    1.0712   54.5460   76.2944 H   0  0  0  0  0  0  0  0  0  0  0  0
    1.0010   53.8108   73.3448 H   0  0  0  0  0  0  0  0  0  0  0  0
    2.2408   53.4294   74.5142 H   0  0  0  0  0  0  0  0  0  0  0  0
    0.4283   51.5259   73.8879 H   0  0  0  0  0  0  0  0  0  0  0  0
    0.8114   51.6976   75.5903 H   0  0  0  0  0  0  0  0  0  0  0  0
   -1.6195   52.6984   74.0352 H   0  0  0  0  0  0  0  0  0  0  0  0
   -1.5837   52.0898   75.6840 H   0  0  0  0  0  0  0  0  0  0  0  0
   -3.4683   56.8039   75.6314 H   0  0  0  0  0  0  0  0  0  0  0  0
   -1.8077   59.2994   75.4003 H   0  0  0  0  0  0  0  0  0  0  0  0
   -1.4117   57.9340   74.3023 H   0  0  0  0  0  0  0  0  0  0  0  0
   -3.0651   58.6362   74.3023 H   0  0  0  0  0  0  0  0  0  0  0  0
   -2.7611   57.6063   78.1604 H   0  0  0  0  0  0  0  0  0  0  0  0
   -2.7017   59.1570   77.2557 H   0  0  0  0  0  0  0  0  0  0  0  0
   -4.2053   58.1742   77.2557 H   0  0  0  0  0  0  0  0  0  0  0  0
    2.5034   57.0542   77.6646 H   0  0  0  0  0  0  0  0  0  0  0  0
    4.7799   56.3731   77.2860 H   0  0  0  0  0  0  0  0  0  0  0  0
    3.9032   55.8832   75.7967 H   0  0  0  0  0  0  0  0  0  0  0  0
    4.9136   57.3683   75.7967 H   0  0  0  0  0  0  0  0  0  0  0  0
    3.5550   58.9471   78.4298 H   0  0  0  0  0  0  0  0  0  0  0  0
    4.5700   59.0850   76.9542 H   0  0  0  0  0  0  0  0  0  0  0  0
    2.8931   59.7289   76.9542 H   0  0  0  0  0  0  0  0  0  0  0  0
   -0.8658   56.5470   73.6756 H   0  0  0  0  0  0  0  0  0  0  0  0
  2  1  2  0
  3  2  1  0
  4  2  1  0
  5  4  1  0
  6  5  1  0
  7  6  1  0
  8  6  1  0
  9  8  1  0
 10  9  2  0
 10  4  1  0
 11  9  1  0
 12 11  2  0
 13 12  1  0
 14 13  2  0
 15 14  1  0
 16 11  1  0
 16 15  2  0
 17 16  1  0
 18 17  1  0
 18  8  1  0
 19 17  2  0
 20 19  1  0
 20 15  1  0
 21  3  1  6
 22 21  1  0
 23 22  1  0
 24 23  1  0
 25 24  1  0
 25 21  1  0
 26 25  2  0
 27 24  1  0
 28 27  1  0
 29 28  2  0
 30 28  1  0
 31 30  1  0
 31 23  1  0
 32 31  1  0
 33 32  1  0
 34 33  1  0
 34 30  1  0
 35 27  1  0
 36 35  1  0
 37 35  1  0
 38 21  1  0
 39 38  1  0
 40 38  1  0
 23 41  1  6
  3 42  1  0
  4 43  1  6
  5 44  1  0
  5 45  1  0
  6 46  1  6
  7 47  1  0
  7 48  1  0
  7 49  1  0
  8 50  1  6
 10 51  1  0
 12 52  1  0
 13 53  1  0
 14 54  1  0
 18 55  1  0
 18 56  1  0
 19 57  1  0
 20 58  1  0
 27 59  1  1
 31 60  1  1
 32 61  1  0
 32 62  1  0
 33 63  1  0
 33 64  1  0
 34 65  1  0
 34 66  1  0
 35 67  1  0
 36 68  1  0
 36 69  1  0
 36 70  1  0
 37 71  1  0
 37 72  1  0
 37 73  1  0
 38 74  1  0
 39 75  1  0
 39 76  1  0
 39 77  1  0
 40 78  1  0
 40 79  1  0
 40 80  1  0
 41 81  1  0
M  CHG  1   6   1
M  END
>  <score>  (3) 
-9.18

$$$$
=
     RDKit          3D

 81 87  0  0  0  0  0  0  0  0999 V2000
   -1.2550   59.7710   74.1600 O   0  0  0  0  0  0  0  0  0  0  0  0
   -2.1330   60.5810   74.4400 C   0  0  0  0  0  0  0  0  0  0  0  0
   -1.8990   61.8330   74.9620 N   0  0  0  0  0  0  0  0  0  0  0  0
   -3.5920   60.1180   74.4090 C   0  0  1  0  0  0  0  0  0  0  0  0
   -3.6920   59.0510   75.5090 C   0  0  0  0  0  0  0  0  0  0  0  0
   -5.1410   58.6870   75.8030 N   0  0  2  0  0  4  0  0  0  0  0  0
   -5.7820   57.9580   74.6510 C   0  0  0  0  0  0  0  0  0  0  0  0
   -5.8960   59.9320   76.3090 C   0  0  1  0  0  0  0  0  0  0  0  0
   -5.6300   61.1790   75.4270 C   0  0  0  0  0  0  0  0  0  0  0  0
   -4.6110   61.2260   74.5470 C   0  0  0  0  0  0  0  0  0  0  0  0
   -6.5330   62.3390   75.6290 C   0  0  0  0  0  0  0  0  0  0  0  0
   -6.3430   63.6680   75.2280 C   0  0  0  0  0  0  0  0  0  0  0  0
   -7.2850   64.6550   75.5530 C   0  0  0  0  0  0  0  0  0  0  0  0
   -8.4400   64.3610   76.2900 C   0  0  0  0  0  0  0  0  0  0  0  0
   -8.6180   63.0340   76.6830 C   0  0  0  0  0  0  0  0  0  0  0  0
   -7.6980   62.0520   76.3580 C   0  0  0  0  0  0  0  0  0  0  0  0
   -8.1640   60.8200   76.8710 C   0  0  0  0  0  0  0  0  0  0  0  0
   -7.3940   59.5800   76.6080 C   0  0  0  0  0  0  0  0  0  0  0  0
   -9.3510   61.0650   77.5180 C   0  0  0  0  0  0  0  0  0  0  0  0
   -9.6180   62.4130   77.4000 N   0  0  0  0  0  0  0  0  0  0  0  0
   -0.5840   62.4780   74.9290 C   0  0  2  0  0  0  0  0  0  0  0  0
   -0.3080   62.8880   73.5920 O   0  0  0  0  0  0  0  0  0  0  0  0
    0.7810   62.1040   73.1060 C   0  0  2  0  0  0  0  0  0  0  0  0
    1.3040   61.3430   74.1910 N   0  0  0  0  0  0  0  0  0  0  0  0
    0.5690   61.5450   75.3360 C   0  0  0  0  0  0  0  0  0  0  0  0
    0.7800   61.0900   76.4480 O   0  0  0  0  0  0  0  0  0  0  0  0
    2.6420   60.7240   74.1470 C   0  0  2  0  0  0  0  0  0  0  0  0
    3.4870   61.0950   72.8770 C   0  0  0  0  0  0  0  0  0  0  0  0
    4.5030   60.4890   72.5460 O   0  0  0  0  0  0  0  0  0  0  0  0
    3.0620   62.2030   72.1690 N   0  0  0  0  0  0  0  0  0  0  0  0
    1.8990   63.0020   72.5390 C   0  0  1  0  0  0  0  0  0  0  0  0
    1.5730   63.7670   71.2570 C   0  0  0  0  0  0  0  0  0  0  0  0
    2.9590   63.9860   70.6460 C   0  0  0  0  0  0  0  0  0  0  0  0
    3.6910   62.6830   70.9530 C   0  0  0  0  0  0  0  0  0  0  0  0
    2.5570   59.1950   74.4080 C   0  0  0  0  0  0  0  0  0  0  0  0
    3.8270   58.6400   75.0620 C   0  0  0  0  0  0  0  0  0  0  0  0
    2.2050   58.3860   73.1570 C   0  0  0  0  0  0  0  0  0  0  0  0
   -0.5830   63.7320   75.8640 C   0  0  0  0  0  0  0  0  0  0  0  0
   -0.0560   64.9980   75.1670 C   0  0  0  0  0  0  0  0  0  0  0  0
   -1.9760   64.0650   76.4260 C   0  0  0  0  0  0  0  0  0  0  0  0
    0.2890   61.2030   72.1360 O   0  0  0  0  0  0  0  0  0  0  0  0
   -2.6842   62.3394   75.3955 H   0  0  0  0  0  0  0  0  0  0  0  0
   -3.8475   59.7109   73.4196 H   0  0  0  0  0  0  0  0  0  0  0  0
   -3.1561   58.1481   75.1810 H   0  0  0  0  0  0  0  0  0  0  0  0
   -3.2454   59.4593   76.4276 H   0  0  0  0  0  0  0  0  0  0  0  0
   -5.1853   58.0011   76.5702 H   0  0  0  0  0  0  0  0  0  0  0  0
   -6.4617   57.1850   75.0389 H   0  0  0  0  0  0  0  0  0  0  0  0
   -6.3507   58.6714   74.0365 H   0  0  0  0  0  0  0  0  0  0  0  0
   -5.0017   57.4853   74.0365 H   0  0  0  0  0  0  0  0  0  0  0  0
   -5.4906   60.2460   77.2822 H   0  0  0  0  0  0  0  0  0  0  0  0
   -4.5162   62.1104   73.8998 H   0  0  0  0  0  0  0  0  0  0  0  0
   -5.4459   63.9401   74.6524 H   0  0  0  0  0  0  0  0  0  0  0  0
   -7.1123   65.6890   75.2200 H   0  0  0  0  0  0  0  0  0  0  0  0
   -9.1725   65.1404   76.5469 H   0  0  0  0  0  0  0  0  0  0  0  0
   -7.4452   58.9254   77.4906 H   0  0  0  0  0  0  0  0  0  0  0  0
   -7.8248   59.0656   75.7363 H   0  0  0  0  0  0  0  0  0  0  0  0
   -9.9748   60.3215   78.0358 H   0  0  0  0  0  0  0  0  0  0  0  0
  -10.4447   62.8869   77.7910 H   0  0  0  0  0  0  0  0  0  0  0  0
    3.2153   61.1682   74.9740 H   0  0  0  0  0  0  0  0  0  0  0  0
    2.0589   63.7156   73.3607 H   0  0  0  0  0  0  0  0  0  0  0  0
    0.9331   63.1713   70.5895 H   0  0  0  0  0  0  0  0  0  0  0  0
    1.0159   64.6995   71.4303 H   0  0  0  0  0  0  0  0  0  0  0  0
    2.8890   64.1518   69.5608 H   0  0  0  0  0  0  0  0  0  0  0  0
    3.4712   64.8717   71.0500 H   0  0  0  0  0  0  0  0  0  0  0  0
    3.5613   61.9598   70.1344 H   0  0  0  0  0  0  0  0  0  0  0  0
    4.7760   62.8243   71.0658 H   0  0  0  0  0  0  0  0  0  0  0  0
    1.7257   59.0759   75.1185 H   0  0  0  0  0  0  0  0  0  0  0  0
    3.7253   58.6844   76.1564 H   0  0  0  0  0  0  0  0  0  0  0  0
    3.9740   57.5956   74.7495 H   0  0  0  0  0  0  0  0  0  0  0  0
    4.6933   59.2416   74.7495 H   0  0  0  0  0  0  0  0  0  0  0  0
    1.7825   57.4151   73.4551 H   0  0  0  0  0  0  0  0  0  0  0  0
    1.4662   58.9391   72.5585 H   0  0  0  0  0  0  0  0  0  0  0  0
    3.1133   58.2225   72.5585 H   0  0  0  0  0  0  0  0  0  0  0  0
    0.0916   63.4473   76.6849 H   0  0  0  0  0  0  0  0  0  0  0  0
    0.2502   65.7336   75.9254 H   0  0  0  0  0  0  0  0  0  0  0  0
    0.8085   64.7377   74.5386 H   0  0  0  0  0  0  0  0  0  0  0  0
   -0.8499   65.4280   74.5386 H   0  0  0  0  0  0  0  0  0  0  0  0
   -1.9395   64.0563   77.5254 H   0  0  0  0  0  0  0  0  0  0  0  0
   -2.2834   65.0619   76.0772 H   0  0  0  0  0  0  0  0  0  0  0  0
   -2.7010   63.3149   76.0772 H   0  0  0  0  0  0  0  0  0  0  0  0
   -0.1332   60.4299   72.5878 H   0  0  0  0  0  0  0  0  0  0  0  0
  2  1  2  0
  3  2  1  0
  4  2  1  0
  5  4  1  0
  6  5  1  0
  7  6  1  0
  8  6  1  0
  9  8  1  0
 10  9  2  0
 10  4  1  0
 11  9  1  0
 12 11  2  0
 13 12  1  0
 14 13  2  0
 15 14  1  0
 16 11  1  0
 16 15  2  0
 17 16  1  0
 18 17  1  0
 18  8  1  0
 19 17  2  0
 20 19  1  0
 20 15  1  0
 21  3  1  6
 22 21  1  0
 23 22  1  0
 24 23  1  0
 25 24  1  0
 25 21  1  0
 26 25  2  0
 27 24  1  0
 28 27  1  0
 29 28  2  0
 30 28  1  0
 31 30  1  0
 31 23  1  0
 32 31  1  0
 33 32  1  0
 34 33  1  0
 34 30  1  0
 35 27  1  0
 36 35  1  0
 37 35  1  0
 38 21  1  0
 39 38  1  0
 40 38  1  0
 23 41  1  6
  3 42  1  0
  4 43  1  6
  5 44  1  0
  5 45  1  0
  6 46  1  1
  7 47  1  0
  7 48  1  0
  7 49  1  0
  8 50  1  1
 10 51  1  0
 12 52  1  0
 13 53  1  0
 14 54  1  0
 18 55  1  0
 18 56  1  0
 19 57  1  0
 20 58  1  0
 27 59  1  1
 31 60  1  1
 32 61  1  0
 32 62  1  0
 33 63  1  0
 33 64  1  0
 34 65  1  0
 34 66  1  0
 35 67  1  0
 36 68  1  0
 36 69  1  0
 36 70  1  0
 37 71  1  0
 37 72  1  0
 37 73  1  0
 38 74  1  0
 39 75  1  0
 39 76  1  0
 39 77  1  0
 40 78  1  0
 40 79  1  0
 40 80  1  0
 41 81  1  0
M  CHG  1   6   1
M  END
>  <score>  (4) 
-8.986

$$$$
=
     RDKit          3D

 81 87  0  0  0  0  0  0  0  0999 V2000
    0.4780   59.6900   73.2270 O   0  0  0  0  0  0  0  0  0  0  0  0
   -0.3070   59.9190   74.1410 C   0  0  0  0  0  0  0  0  0  0  0  0
   -0.2080   60.9870   75.0040 N   0  0  0  0  0  0  0  0  0  0  0  0
   -1.3520   58.8560   74.4900 C   0  0  1  0  0  0  0  0  0  0  0  0
   -0.9770   58.3810   75.9010 C   0  0  0  0  0  0  0  0  0  0  0  0
   -2.0780   57.5260   76.5130 N   0  0  2  0  0  4  0  0  0  0  0  0
   -2.2230   56.2050   75.8050 C   0  0  0  0  0  0  0  0  0  0  0  0
   -3.3690   58.3580   76.6430 C   0  0  1  0  0  0  0  0  0  0  0  0
   -3.6990   59.1390   75.3450 C   0  0  0  0  0  0  0  0  0  0  0  0
   -2.7870   59.3150   74.3680 C   0  0  0  0  0  0  0  0  0  0  0  0
   -5.0620   59.7180   75.2460 C   0  0  0  0  0  0  0  0  0  0  0  0
   -5.5220   60.7110   74.3730 C   0  0  0  0  0  0  0  0  0  0  0  0
   -6.8410   61.1820   74.4550 C   0  0  0  0  0  0  0  0  0  0  0  0
   -7.7430   60.6900   75.4080 C   0  0  0  0  0  0  0  0  0  0  0  0
   -7.2730   59.7000   76.2710 C   0  0  0  0  0  0  0  0  0  0  0  0
   -5.9760   59.2230   76.1910 C   0  0  0  0  0  0  0  0  0  0  0  0
   -5.8080   58.2200   77.1730 C   0  0  0  0  0  0  0  0  0  0  0  0
   -4.5190   57.4920   77.2630 C   0  0  0  0  0  0  0  0  0  0  0  0
   -6.9960   58.1080   77.8550 C   0  0  0  0  0  0  0  0  0  0  0  0
   -7.8790   59.0130   77.3010 N   0  0  0  0  0  0  0  0  0  0  0  0
    0.6350   62.1540   74.7350 C   0  0  2  0  0  0  0  0  0  0  0  0
    0.0090   62.9500   73.7300 O   0  0  0  0  0  0  0  0  0  0  0  0
    0.8230   62.9000   72.5590 C   0  0  2  0  0  0  0  0  0  0  0  0
    2.0390   62.2340   72.8860 N   0  0  0  0  0  0  0  0  0  0  0  0
    2.0270   61.7960   74.1890 C   0  0  0  0  0  0  0  0  0  0  0  0
    2.9270   61.2410   74.7980 O   0  0  0  0  0  0  0  0  0  0  0  0
    3.2440   62.3360   72.0420 C   0  0  2  0  0  0  0  0  0  0  0  0
    3.1160   63.3460   70.8470 C   0  0  0  0  0  0  0  0  0  0  0  0
    3.9070   63.3770   69.9070 O   0  0  0  0  0  0  0  0  0  0  0  0
    2.0870   64.2630   70.9360 N   0  0  0  0  0  0  0  0  0  0  0  0
    1.1480   64.3190   72.0510 C   0  0  1  0  0  0  0  0  0  0  0  0
   -0.0210   65.1260   71.4880 C   0  0  0  0  0  0  0  0  0  0  0  0
    0.6810   66.1000   70.5390 C   0  0  0  0  0  0  0  0  0  0  0  0
    1.7880   65.2530   69.9180 C   0  0  0  0  0  0  0  0  0  0  0  0
    3.7430   60.9280   71.6120 C   0  0  0  0  0  0  0  0  0  0  0  0
    5.2650   60.8740   71.4370 C   0  0  0  0  0  0  0  0  0  0  0  0
    3.0440   60.3950   70.3590 C   0  0  0  0  0  0  0  0  0  0  0  0
    0.7980   63.0040   76.0380 C   0  0  0  0  0  0  0  0  0  0  0  0
    1.1480   64.4740   75.7540 C   0  0  0  0  0  0  0  0  0  0  0  0
   -0.4600   62.9940   76.9240 C   0  0  0  0  0  0  0  0  0  0  0  0
    0.1530   62.1330   71.5800 O   0  0  0  0  0  0  0  0  0  0  0  0
   -0.7515   60.9643   75.8786 H   0  0  0  0  0  0  0  0  0  0  0  0
   -1.3251   58.0331   73.7606 H   0  0  0  0  0  0  0  0  0  0  0  0
   -0.0529   57.7869   75.8443 H   0  0  0  0  0  0  0  0  0  0  0  0
   -0.8345   59.2672   76.5369 H   0  0  0  0  0  0  0  0  0  0  0  0
   -1.8214   57.2531   77.4725 H   0  0  0  0  0  0  0  0  0  0  0  0
   -2.3115   55.3986   76.5479 H   0  0  0  0  0  0  0  0  0  0  0  0
   -3.1245   56.2237   75.1749 H   0  0  0  0  0  0  0  0  0  0  0  0
   -1.3389   56.0277   75.1749 H   0  0  0  0  0  0  0  0  0  0  0  0
   -3.2186   59.1705   77.3691 H   0  0  0  0  0  0  0  0  0  0  0  0
   -3.1013   59.8152   73.4401 H   0  0  0  0  0  0  0  0  0  0  0  0
   -4.8420   61.1264   73.6147 H   0  0  0  0  0  0  0  0  0  0  0  0
   -7.1763   61.9587   73.7520 H   0  0  0  0  0  0  0  0  0  0  0  0
   -8.7743   61.0672   75.4725 H   0  0  0  0  0  0  0  0  0  0  0  0
   -4.2904   57.2854   78.3190 H   0  0  0  0  0  0  0  0  0  0  0  0
   -4.5989   56.5466   76.7064 H   0  0  0  0  0  0  0  0  0  0  0  0
   -7.2050   57.4226   78.6896 H   0  0  0  0  0  0  0  0  0  0  0  0
   -8.8506   59.1545   77.6124 H   0  0  0  0  0  0  0  0  0  0  0  0
    4.0259   62.7849   72.6722 H   0  0  0  0  0  0  0  0  0  0  0  0
    1.5246   64.8073   72.9619 H   0  0  0  0  0  0  0  0  0  0  0  0
   -0.7263   64.4796   70.9451 H   0  0  0  0  0  0  0  0  0  0  0  0
   -0.6253   65.6232   72.2610 H   0  0  0  0  0  0  0  0  0  0  0  0
   -0.0126   66.4675   69.7684 H   0  0  0  0  0  0  0  0  0  0  0  0
    1.0617   66.9972   71.0490 H   0  0  0  0  0  0  0  0  0  0  0  0
    1.4385   64.7698   68.9937 H   0  0  0  0  0  0  0  0  0  0  0  0
    2.6686   65.8488   69.6359 H   0  0  0  0  0  0  0  0  0  0  0  0
    3.4697   60.2644   72.4456 H   0  0  0  0  0  0  0  0  0  0  0  0
    5.7474   60.8569   72.4255 H   0  0  0  0  0  0  0  0  0  0  0  0
    5.5380   59.9656   70.8800 H   0  0  0  0  0  0  0  0  0  0  0  0
    5.6017   61.7608   70.8800 H   0  0  0  0  0  0  0  0  0  0  0  0
    2.2014   59.7525   70.6544 H   0  0  0  0  0  0  0  0  0  0  0  0
    2.6695   61.2389   69.7610 H   0  0  0  0  0  0  0  0  0  0  0  0
    3.7587   59.8105   69.7610 H   0  0  0  0  0  0  0  0  0  0  0  0
    1.6301   62.5171   76.5677 H   0  0  0  0  0  0  0  0  0  0  0  0
    1.2758   65.0109   76.7055 H   0  0  0  0  0  0  0  0  0  0  0  0
    2.0830   64.5234   75.1766 H   0  0  0  0  0  0  0  0  0  0  0  0
    0.3356   64.9394   75.1766 H   0  0  0  0  0  0  0  0  0  0  0  0
   -0.1626   62.9964   77.9830 H   0  0  0  0  0  0  0  0  0  0  0  0
   -1.0655   63.8874   76.7112 H   0  0  0  0  0  0  0  0  0  0  0  0
   -1.0512   62.0911   76.7112 H   0  0  0  0  0  0  0  0  0  0  0  0
   -0.4291   61.4667   72.0242 H   0  0  0  0  0  0  0  0  0  0  0  0
  2  1  2  0
  3  2  1  0
  4  2  1  0
  5  4  1  0
  6  5  1  0
  7  6  1  0
  8  6  1  0
  9  8  1  0
 10  9  2  0
 10  4  1  0
 11  9  1  0
 12 11  2  0
 13 12  1  0
 14 13  2  0
 15 14  1  0
 16 11  1  0
 16 15  2  0
 17 16  1  0
 18 17  1  0
 18  8  1  0
 19 17  2  0
 20 19  1  0
 20 15  1  0
 21  3  1  1
 22 21  1  0
 23 22  1  0
 24 23  1  0
 25 24  1  0
 25 21  1  0
 26 25  2  0
 27 24  1  0
 28 27  1  0
 29 28  2  0
 30 28  1  0
 31 30  1  0
 31 23  1  0
 32 31  1  0
 33 32  1  0
 34 33  1  0
 34 30  1  0
 35 27  1  0
 36 35  1  0
 37 35  1  0
 38 21  1  0
 39 38  1  0
 40 38  1  0
 23 41  1  6
  3 42  1  0
  4 43  1  6
  5 44  1  0
  5 45  1  0
  6 46  1  1
  7 47  1  0
  7 48  1  0
  7 49  1  0
  8 50  1  1
 10 51  1  0
 12 52  1  0
 13 53  1  0
 14 54  1  0
 18 55  1  0
 18 56  1  0
 19 57  1  0
 20 58  1  0
 27 59  1  1
 31 60  1  1
 32 61  1  0
 32 62  1  0
 33 63  1  0
 33 64  1  0
 34 65  1  0
 34 66  1  0
 35 67  1  0
 36 68  1  0
 36 69  1  0
 36 70  1  0
 37 71  1  0
 37 72  1  0
 37 73  1  0
 38 74  1  0
 39 75  1  0
 39 76  1  0
 39 77  1  0
 40 78  1  0
 40 79  1  0
 40 80  1  0
 41 81  1  0
M  CHG  1   6   1
M  END
>  <score>  (5) 
-8.843

$$$$
=
     RDKit          3D

 81 87  0  0  0  0  0  0  0  0999 V2000
   -3.0940   60.8420   73.6430 O   0  0  0  0  0  0  0  0  0  0  0  0
   -2.5260   60.1950   74.5170 C   0  0  0  0  0  0  0  0  0  0  0  0
   -3.1450   59.6890   75.6370 N   0  0  0  0  0  0  0  0  0  0  0  0
   -0.9980   60.1080   74.4860 C   0  0  1  0  0  0  0  0  0  0  0  0
   -0.6930   58.6950   73.9680 C   0  0  0  0  0  0  0  0  0  0  0  0
    0.7780   58.5380   73.6090 N   0  0  2  0  0  4  0  0  0  0  0  0
    1.6620   58.5840   74.8270 C   0  0  0  0  0  0  0  0  0  0  0  0
    1.1440   59.5220   72.4810 C   0  0  1  0  0  0  0  0  0  0  0  0
    0.6170   60.9540   72.7560 C   0  0  0  0  0  0  0  0  0  0  0  0
   -0.3180   61.2010   73.6940 C   0  0  0  0  0  0  0  0  0  0  0  0
    1.1680   62.0380   71.9050 C   0  0  0  0  0  0  0  0  0  0  0  0
    0.6610   63.3290   71.7080 C   0  0  0  0  0  0  0  0  0  0  0  0
    1.2870   64.2160   70.8190 C   0  0  0  0  0  0  0  0  0  0  0  0
    2.4280   63.8510   70.0910 C   0  0  0  0  0  0  0  0  0  0  0  0
    2.9230   62.5630   70.2970 C   0  0  0  0  0  0  0  0  0  0  0  0
    2.3170   61.6850   71.1800 C   0  0  0  0  0  0  0  0  0  0  0  0
    3.0570   60.4800   71.1870 C   0  0  0  0  0  0  0  0  0  0  0  0
    2.6590   59.3830   72.1020 C   0  0  0  0  0  0  0  0  0  0  0  0
    4.0920   60.6270   70.2960 C   0  0  0  0  0  0  0  0  0  0  0  0
    4.0010   61.8940   69.7580 N   0  0  0  0  0  0  0  0  0  0  0  0
   -4.6000   59.5640   75.7570 C   0  0  2  0  0  0  0  0  0  0  0  0
   -5.2110   60.2740   74.6810 O   0  0  0  0  0  0  0  0  0  0  0  0
   -5.9090   61.3910   75.2310 C   0  0  2  0  0  0  0  0  0  0  0  0
   -5.8930   61.2750   76.6510 N   0  0  0  0  0  0  0  0  0  0  0  0
   -5.1660   60.1780   77.0480 C   0  0  0  0  0  0  0  0  0  0  0  0
   -5.0010   59.7630   78.1840 O   0  0  0  0  0  0  0  0  0  0  0  0
   -6.8220   62.0290   77.5130 C   0  0  2  0  0  0  0  0  0  0  0  0
   -7.9130   62.8450   76.7340 C   0  0  0  0  0  0  0  0  0  0  0  0
   -8.6020   63.7160   77.2580 O   0  0  0  0  0  0  0  0  0  0  0  0
   -8.1140   62.4840   75.4150 N   0  0  0  0  0  0  0  0  0  0  0  0
   -7.3720   61.4200   74.7460 C   0  0  1  0  0  0  0  0  0  0  0  0
   -7.5930   61.7150   73.2630 C   0  0  0  0  0  0  0  0  0  0  0  0
   -9.0080   62.2990   73.2530 C   0  0  0  0  0  0  0  0  0  0  0  0
   -9.0520   63.1410   74.5250 C   0  0  0  0  0  0  0  0  0  0  0  0
   -6.0480   62.8740   78.5610 C   0  0  0  0  0  0  0  0  0  0  0  0
   -6.8440   63.0770   79.8550 C   0  0  0  0  0  0  0  0  0  0  0  0
   -5.5660   64.2200   78.0160 C   0  0  0  0  0  0  0  0  0  0  0  0
   -5.0130   58.0570   75.6800 C   0  0  0  0  0  0  0  0  0  0  0  0
   -5.9380   57.7500   74.4910 C   0  0  0  0  0  0  0  0  0  0  0  0
   -3.8070   57.1070   75.5820 C   0  0  0  0  0  0  0  0  0  0  0  0
   -5.2160   62.5700   74.8800 O   0  0  0  0  0  0  0  0  0  0  0  0
   -2.5587   59.3842   76.4271 H   0  0  0  0  0  0  0  0  0  0  0  0
   -0.5807   60.2753   75.4899 H   0  0  0  0  0  0  0  0  0  0  0  0
   -0.9502   57.9646   74.7493 H   0  0  0  0  0  0  0  0  0  0  0  0
   -1.2901   58.5238   73.0601 H   0  0  0  0  0  0  0  0  0  0  0  0
    0.9507   57.5968   73.2278 H   0  0  0  0  0  0  0  0  0  0  0  0
    1.0395   58.5516   75.7333 H   0  0  0  0  0  0  0  0  0  0  0  0
    2.3428   57.7201   74.8188 H   0  0  0  0  0  0  0  0  0  0  0  0
    2.2495   59.5139   74.8188 H   0  0  0  0  0  0  0  0  0  0  0  0
    0.6074   59.2510   71.5598 H   0  0  0  0  0  0  0  0  0  0  0  0
   -0.5993   62.2457   73.8925 H   0  0  0  0  0  0  0  0  0  0  0  0
   -0.2370   63.6506   72.2558 H   0  0  0  0  0  0  0  0  0  0  0  0
    0.8708   65.2260   70.6897 H   0  0  0  0  0  0  0  0  0  0  0  0
    2.9106   64.5478   69.3899 H   0  0  0  0  0  0  0  0  0  0  0  0
    2.8224   58.4160   71.6037 H   0  0  0  0  0  0  0  0  0  0  0  0
    3.2662   59.4390   73.0175 H   0  0  0  0  0  0  0  0  0  0  0  0
    4.8547   59.8718   70.0552 H   0  0  0  0  0  0  0  0  0  0  0  0
    4.6453   62.2837   69.0552 H   0  0  0  0  0  0  0  0  0  0  0  0
   -7.4094   61.2795   78.0636 H   0  0  0  0  0  0  0  0  0  0  0  0
   -7.7074   60.3966   74.9698 H   0  0  0  0  0  0  0  0  0  0  0  0
   -6.8589   62.4434   72.8882 H   0  0  0  0  0  0  0  0  0  0  0  0
   -7.4764   60.8326   72.6166 H   0  0  0  0  0  0  0  0  0  0  0  0
   -9.1699   62.9233   72.3619 H   0  0  0  0  0  0  0  0  0  0  0  0
   -9.7910   61.5270   73.2217 H   0  0  0  0  0  0  0  0  0  0  0  0
   -8.7376   64.1750   74.3202 H   0  0  0  0  0  0  0  0  0  0  0  0
  -10.0634   63.2091   74.9522 H   0  0  0  0  0  0  0  0  0  0  0  0
   -5.1541   62.2787   78.7987 H   0  0  0  0  0  0  0  0  0  0  0  0
   -6.1860   62.9092   80.7204 H   0  0  0  0  0  0  0  0  0  0  0  0
   -7.2367   64.1040   79.8866 H   0  0  0  0  0  0  0  0  0  0  0  0
   -7.6806   62.3635   79.8866 H   0  0  0  0  0  0  0  0  0  0  0  0
   -5.3260   64.8903   78.8545 H   0  0  0  0  0  0  0  0  0  0  0  0
   -4.6672   64.0659   77.4009 H   0  0  0  0  0  0  0  0  0  0  0  0
   -6.3583   64.6715   77.4009 H   0  0  0  0  0  0  0  0  0  0  0  0
   -5.5482   57.8819   76.6249 H   0  0  0  0  0  0  0  0  0  0  0  0
   -6.9198   57.4241   74.8649 H   0  0  0  0  0  0  0  0  0  0  0  0
   -6.0609   58.6555   73.8787 H   0  0  0  0  0  0  0  0  0  0  0  0
   -5.4951   56.9507   73.8787 H   0  0  0  0  0  0  0  0  0  0  0  0
   -3.4677   56.8397   76.5936 H   0  0  0  0  0  0  0  0  0  0  0  0
   -4.1013   56.1955   75.0411 H   0  0  0  0  0  0  0  0  0  0  0  0
   -2.9897   57.6065   75.0411 H   0  0  0  0  0  0  0  0  0  0  0  0
   -4.9364   63.0456   75.7020 H   0  0  0  0  0  0  0  0  0  0  0  0
  2  1  2  0
  3  2  1  0
  4  2  1  0
  5  4  1  0
  6  5  1  0
  7  6  1  0
  8  6  1  0
  9  8  1  0
 10  9  2  0
 10  4  1  0
 11  9  1  0
 12 11  2  0
 13 12  1  0
 14 13  2  0
 15 14  1  0
 16 11  1  0
 16 15  2  0
 17 16  1  0
 18 17  1  0
 18  8  1  0
 19 17  2  0
 20 19  1  0
 20 15  1  0
 21  3  1  1
 22 21  1  0
 23 22  1  0
 24 23  1  0
 25 24  1  0
 25 21  1  0
 26 25  2  0
 27 24  1  0
 28 27  1  0
 29 28  2  0
 30 28  1  0
 31 30  1  0
 31 23  1  0
 32 31  1  0
 33 32  1  0
 34 33  1  0
 34 30  1  0
 35 27  1  0
 36 35  1  0
 37 35  1  0
 38 21  1  0
 39 38  1  0
 40 38  1  0
 23 41  1  1
  3 42  1  0
  4 43  1  1
  5 44  1  0
  5 45  1  0
  6 46  1  6
  7 47  1  0
  7 48  1  0
  7 49  1  0
  8 50  1  6
 10 51  1  0
 12 52  1  0
 13 53  1  0
 14 54  1  0
 18 55  1  0
 18 56  1  0
 19 57  1  0
 20 58  1  0
 27 59  1  1
 31 60  1  1
 32 61  1  0
 32 62  1  0
 33 63  1  0
 33 64  1  0
 34 65  1  0
 34 66  1  0
 35 67  1  0
 36 68  1  0
 36 69  1  0
 36 70  1  0
 37 71  1  0
 37 72  1  0
 37 73  1  0
 38 74  1  0
 39 75  1  0
 39 76  1  0
 39 77  1  0
 40 78  1  0
 40 79  1  0
 40 80  1  0
 41 81  1  0
M  CHG  1   6   1
M  END
>  <score>  (6) 
-8.688

$$$$
=
     RDKit          3D

 81 87  0  0  0  0  0  0  0  0999 V2000
   -1.4050   64.9240   75.5320 O   0  0  0  0  0  0  0  0  0  0  0  0
   -1.8230   64.0020   76.2240 C   0  0  0  0  0  0  0  0  0  0  0  0
   -1.2020   62.7810   76.3530 N   0  0  0  0  0  0  0  0  0  0  0  0
   -3.2250   64.1200   76.8300 C   0  0  1  0  0  0  0  0  0  0  0  0
   -3.5850   65.6080   76.7080 C   0  0  0  0  0  0  0  0  0  0  0  0
   -5.0580   65.8520   77.0050 N   0  0  2  0  0  4  0  0  0  0  0  0
   -5.3860   65.6050   78.4540 C   0  0  0  0  0  0  0  0  0  0  0  0
   -5.9260   65.0900   75.9850 C   0  0  1  0  0  0  0  0  0  0  0  0
   -5.4610   63.6230   75.7960 C   0  0  0  0  0  0  0  0  0  0  0  0
   -4.2560   63.1970   76.2230 C   0  0  0  0  0  0  0  0  0  0  0  0
   -6.3970   62.7170   75.0860 C   0  0  0  0  0  0  0  0  0  0  0  0
   -6.1260   61.4730   74.5020 C   0  0  0  0  0  0  0  0  0  0  0  0
   -7.1280   60.7700   73.8170 C   0  0  0  0  0  0  0  0  0  0  0  0
   -8.4270   61.2780   73.6810 C   0  0  0  0  0  0  0  0  0  0  0  0
   -8.6850   62.5180   74.2680 C   0  0  0  0  0  0  0  0  0  0  0  0
   -7.7040   63.2130   74.9540 C   0  0  0  0  0  0  0  0  0  0  0  0
   -8.2710   64.4110   75.4470 C   0  0  0  0  0  0  0  0  0  0  0  0
   -7.4480   65.3210   76.2810 C   0  0  0  0  0  0  0  0  0  0  0  0
   -9.5840   64.4430   75.0430 C   0  0  0  0  0  0  0  0  0  0  0  0
   -9.8250   63.2900   74.3250 N   0  0  0  0  0  0  0  0  0  0  0  0
    0.1900   62.5490   75.9590 C   0  0  2  0  0  0  0  0  0  0  0  0
    0.4030   63.1220   74.6700 O   0  0  0  0  0  0  0  0  0  0  0  0
    0.6420   62.0590   73.7490 C   0  0  2  0  0  0  0  0  0  0  0  0
    0.7650   60.8460   74.4870 N   0  0  0  0  0  0  0  0  0  0  0  0
    0.5540   61.0610   75.8290 C   0  0  0  0  0  0  0  0  0  0  0  0
    0.6380   60.2500   76.7370 O   0  0  0  0  0  0  0  0  0  0  0  0
    1.3800   59.6340   73.9140 C   0  0  2  0  0  0  0  0  0  0  0  0
    2.0110   59.8370   72.4920 C   0  0  0  0  0  0  0  0  0  0  0  0
    2.3360   58.9040   71.7620 O   0  0  0  0  0  0  0  0  0  0  0  0
    2.2510   61.1450   72.1160 N   0  0  0  0  0  0  0  0  0  0  0  0
    1.9430   62.2970   72.9560 C   0  0  1  0  0  0  0  0  0  0  0  0
    1.9350   63.4630   71.9680 C   0  0  0  0  0  0  0  0  0  0  0  0
    3.0040   63.0420   70.9570 C   0  0  0  0  0  0  0  0  0  0  0  0
    2.7980   61.5350   70.8300 C   0  0  0  0  0  0  0  0  0  0  0  0
    0.4060   58.4260   73.9930 C   0  0  0  0  0  0  0  0  0  0  0  0
   -1.0600   58.8610   74.1000 C   0  0  0  0  0  0  0  0  0  0  0  0
    0.7530   57.4410   75.1110 C   0  0  0  0  0  0  0  0  0  0  0  0
    1.1540   63.2250   76.9890 C   0  0  0  0  0  0  0  0  0  0  0  0
    1.6940   64.5810   76.5040 C   0  0  0  0  0  0  0  0  0  0  0  0
    0.5000   63.4560   78.3620 C   0  0  0  0  0  0  0  0  0  0  0  0
   -0.4780   61.9420   72.8980 O   0  0  0  0  0  0  0  0  0  0  0  0
   -1.7400   61.9946   76.7442 H   0  0  0  0  0  0  0  0  0  0  0  0
   -3.2232   63.7842   77.8775 H   0  0  0  0  0  0  0  0  0  0  0  0
   -2.9765   66.1826   77.4218 H   0  0  0  0  0  0  0  0  0  0  0  0
   -3.3836   65.9282   75.6751 H   0  0  0  0  0  0  0  0  0  0  0  0
   -5.2850   66.8485   76.8771 H   0  0  0  0  0  0  0  0  0  0  0  0
   -4.6688   66.1451   79.0895 H   0  0  0  0  0  0  0  0  0  0  0  0
   -6.4047   65.9622   78.6654 H   0  0  0  0  0  0  0  0  0  0  0  0
   -5.3241   64.5273   78.6654 H   0  0  0  0  0  0  0  0  0  0  0  0
   -5.7774   65.5099   74.9792 H   0  0  0  0  0  0  0  0  0  0  0  0
   -4.0118   62.1289   76.1253 H   0  0  0  0  0  0  0  0  0  0  0  0
   -5.1167   61.0428   74.5814 H   0  0  0  0  0  0  0  0  0  0  0  0
   -6.8874   59.7923   73.3740 H   0  0  0  0  0  0  0  0  0  0  0  0
   -9.2071   60.7253   73.1370 H   0  0  0  0  0  0  0  0  0  0  0  0
   -7.7099   66.3640   76.0494 H   0  0  0  0  0  0  0  0  0  0  0  0
   -7.6447   65.1139   77.3433 H   0  0  0  0  0  0  0  0  0  0  0  0
  -10.3102   65.2420   75.2536 H   0  0  0  0  0  0  0  0  0  0  0  0
  -10.7269   63.0420   73.8938 H   0  0  0  0  0  0  0  0  0  0  0  0
    2.2488   59.3989   74.5464 H   0  0  0  0  0  0  0  0  0  0  0  0
    2.6662   62.5025   73.7590 H   0  0  0  0  0  0  0  0  0  0  0  0
    0.9518   63.5703   71.4866 H   0  0  0  0  0  0  0  0  0  0  0  0
    2.1322   64.4385   72.4366 H   0  0  0  0  0  0  0  0  0  0  0  0
    2.8500   63.5431   69.9899 H   0  0  0  0  0  0  0  0  0  0  0  0
    4.0228   63.3107   71.2728 H   0  0  0  0  0  0  0  0  0  0  0  0
    2.0920   61.3040   70.0187 H   0  0  0  0  0  0  0  0  0  0  0  0
    3.7277   61.0001   70.5860 H   0  0  0  0  0  0  0  0  0  0  0  0
    0.5367   57.8947   73.0387 H   0  0  0  0  0  0  0  0  0  0  0  0
   -1.3413   58.9445   75.1602 H   0  0  0  0  0  0  0  0  0  0  0  0
   -1.1899   59.8364   73.6083 H   0  0  0  0  0  0  0  0  0  0  0  0
   -1.7009   58.1143   73.6083 H   0  0  0  0  0  0  0  0  0  0  0  0
    0.5843   57.9197   76.0869 H   0  0  0  0  0  0  0  0  0  0  0  0
    0.1150   56.5491   75.0250 H   0  0  0  0  0  0  0  0  0  0  0  0
    1.8092   57.1459   75.0250 H   0  0  0  0  0  0  0  0  0  0  0  0
    1.9812   62.5064   77.0863 H   0  0  0  0  0  0  0  0  0  0  0  0
    1.9437   65.2081   77.3726 H   0  0  0  0  0  0  0  0  0  0  0  0
    2.5967   64.4201   75.8963 H   0  0  0  0  0  0  0  0  0  0  0  0
    0.9278   65.0846   75.8963 H   0  0  0  0  0  0  0  0  0  0  0  0
    1.2169   63.2028   79.1569 H   0  0  0  0  0  0  0  0  0  0  0  0
    0.2068   64.5121   78.4555 H   0  0  0  0  0  0  0  0  0  0  0  0
   -0.3914   62.8183   78.4555 H   0  0  0  0  0  0  0  0  0  0  0  0
   -1.2995   61.8562   73.4437 H   0  0  0  0  0  0  0  0  0  0  0  0
  2  1  2  0
  3  2  1  0
  4  2  1  0
  5  4  1  0
  6  5  1  0
  7  6  1  0
  8  6  1  0
  9  8  1  0
 10  9  2  0
 10  4  1  0
 11  9  1  0
 12 11  2  0
 13 12  1  0
 14 13  2  0
 15 14  1  0
 16 11  1  0
 16 15  2  0
 17 16  1  0
 18 17  1  0
 18  8  1  0
 19 17  2  0
 20 19  1  0
 20 15  1  0
 21  3  1  1
 22 21  1  0
 23 22  1  0
 24 23  1  0
 25 24  1  0
 25 21  1  0
 26 25  2  0
 27 24  1  0
 28 27  1  0
 29 28  2  0
 30 28  1  0
 31 30  1  0
 31 23  1  0
 32 31  1  0
 33 32  1  0
 34 33  1  0
 34 30  1  0
 35 27  1  0
 36 35  1  0
 37 35  1  0
 38 21  1  0
 39 38  1  0
 40 38  1  0
 23 41  1  6
  3 42  1  0
  4 43  1  1
  5 44  1  0
  5 45  1  0
  6 46  1  6
  7 47  1  0
  7 48  1  0
  7 49  1  0
  8 50  1  6
 10 51  1  0
 12 52  1  0
 13 53  1  0
 14 54  1  0
 18 55  1  0
 18 56  1  0
 19 57  1  0
 20 58  1  0
 27 59  1  1
 31 60  1  1
 32 61  1  0
 32 62  1  0
 33 63  1  0
 33 64  1  0
 34 65  1  0
 34 66  1  0
 35 67  1  0
 36 68  1  0
 36 69  1  0
 36 70  1  0
 37 71  1  0
 37 72  1  0
 37 73  1  0
 38 74  1  0
 39 75  1  0
 39 76  1  0
 39 77  1  0
 40 78  1  0
 40 79  1  0
 40 80  1  0
 41 81  1  0
M  CHG  1   6   1
M  END
>  <score>  (7) 
-8.326

$$$$
=
     RDKit          3D

 81 87  0  0  0  0  0  0  0  0999 V2000
    0.0890   58.5950   76.9670 O   0  0  0  0  0  0  0  0  0  0  0  0
    0.0070   59.1970   75.9020 C   0  0  0  0  0  0  0  0  0  0  0  0
   -1.1670   59.4010   75.2120 N   0  0  0  0  0  0  0  0  0  0  0  0
    1.2990   59.5780   75.1760 C   0  0  1  0  0  0  0  0  0  0  0  0
    1.6570   58.3460   74.3320 C   0  0  0  0  0  0  0  0  0  0  0  0
    2.7610   58.6560   73.3310 N   0  0  2  0  0  4  0  0  0  0  0  0
    4.0790   58.9180   74.0120 C   0  0  0  0  0  0  0  0  0  0  0  0
    2.2850   59.7500   72.3560 C   0  0  1  0  0  0  0  0  0  0  0  0
    1.6190   60.9430   73.0890 C   0  0  0  0  0  0  0  0  0  0  0  0
    1.2210   60.8570   74.3740 C   0  0  0  0  0  0  0  0  0  0  0  0
    1.4070   62.1760   72.2930 C   0  0  0  0  0  0  0  0  0  0  0  0
    0.5670   63.2600   72.5780 C   0  0  0  0  0  0  0  0  0  0  0  0
    0.4470   64.3300   71.6780 C   0  0  0  0  0  0  0  0  0  0  0  0
    1.1480   64.3570   70.4650 C   0  0  0  0  0  0  0  0  0  0  0  0
    1.9830   63.2720   70.1930 C   0  0  0  0  0  0  0  0  0  0  0  0
    2.1140   62.2170   71.0800 C   0  0  0  0  0  0  0  0  0  0  0  0
    3.0370   61.2930   70.5390 C   0  0  0  0  0  0  0  0  0  0  0  0
    3.4130   60.0910   71.3220 C   0  0  0  0  0  0  0  0  0  0  0  0
    3.4440   61.7820   69.3210 C   0  0  0  0  0  0  0  0  0  0  0  0
    2.7970   62.9840   69.1180 N   0  0  0  0  0  0  0  0  0  0  0  0
   -2.4890   59.2250   75.8170 C   0  0  2  0  0  0  0  0  0  0  0  0
   -3.4830   59.5480   74.8470 O   0  0  0  0  0  0  0  0  0  0  0  0
   -4.1540   60.7310   75.2810 C   0  0  2  0  0  0  0  0  0  0  0  0
   -3.7130   61.0380   76.6000 N   0  0  0  0  0  0  0  0  0  0  0  0
   -2.7460   60.1540   77.0160 C   0  0  0  0  0  0  0  0  0  0  0  0
   -2.2000   60.1030   78.1060 O   0  0  0  0  0  0  0  0  0  0  0  0
   -4.4570   61.9510   77.4880 C   0  0  2  0  0  0  0  0  0  0  0  0
   -5.8370   62.4320   76.9130 C   0  0  0  0  0  0  0  0  0  0  0  0
   -6.4690   63.3740   77.3850 O   0  0  0  0  0  0  0  0  0  0  0  0
   -6.3520   61.6880   75.8690 N   0  0  0  0  0  0  0  0  0  0  0  0
   -5.6820   60.5240   75.2990 C   0  0  1  0  0  0  0  0  0  0  0  0
   -6.3630   60.3550   73.9410 C   0  0  0  0  0  0  0  0  0  0  0  0
   -7.7910   60.8210   74.2310 C   0  0  0  0  0  0  0  0  0  0  0  0
   -7.5950   61.9940   75.1870 C   0  0  0  0  0  0  0  0  0  0  0  0
   -3.5510   63.1140   77.9770 C   0  0  0  0  0  0  0  0  0  0  0  0
   -3.9810   63.6580   79.3430 C   0  0  0  0  0  0  0  0  0  0  0  0
   -3.4310   64.2550   76.9630 C   0  0  0  0  0  0  0  0  0  0  0  0
   -2.6740   57.7390   76.2700 C   0  0  0  0  0  0  0  0  0  0  0  0
   -4.1090   57.4260   76.7250 C   0  0  0  0  0  0  0  0  0  0  0  0
   -2.3080   56.7260   75.1720 C   0  0  0  0  0  0  0  0  0  0  0  0
   -3.7790   61.7960   74.4340 O   0  0  0  0  0  0  0  0  0  0  0  0
   -1.1129   59.6907   74.2251 H   0  0  0  0  0  0  0  0  0  0  0  0
    2.0906   59.8230   75.8994 H   0  0  0  0  0  0  0  0  0  0  0  0
    1.9967   57.5413   75.0007 H   0  0  0  0  0  0  0  0  0  0  0  0
    0.7609   58.0390   73.7728 H   0  0  0  0  0  0  0  0  0  0  0  0
    2.9550   57.8277   72.7504 H   0  0  0  0  0  0  0  0  0  0  0  0
    3.9400   58.8904   75.1028 H   0  0  0  0  0  0  0  0  0  0  0  0
    4.8048   58.1466   73.7152 H   0  0  0  0  0  0  0  0  0  0  0  0
    4.4546   59.9084   73.7152 H   0  0  0  0  0  0  0  0  0  0  0  0
    1.4578   59.3675   71.7400 H   0  0  0  0  0  0  0  0  0  0  0  0
    0.8213   61.7586   74.8612 H   0  0  0  0  0  0  0  0  0  0  0  0
   -0.0049   63.2727   73.5176 H   0  0  0  0  0  0  0  0  0  0  0  0
   -0.2156   65.1706   71.9317 H   0  0  0  0  0  0  0  0  0  0  0  0
    1.0450   65.1947   69.7596 H   0  0  0  0  0  0  0  0  0  0  0  0
    3.5505   59.2397   70.6390 H   0  0  0  0  0  0  0  0  0  0  0  0
    4.3499   60.2908   71.8626 H   0  0  0  0  0  0  0  0  0  0  0  0
    4.1559   61.3026   68.6330 H   0  0  0  0  0  0  0  0  0  0  0  0
    2.9063   63.5794   68.2846 H   0  0  0  0  0  0  0  0  0  0  0  0
   -4.7398   61.3609   78.3722 H   0  0  0  0  0  0  0  0  0  0  0  0
   -5.7796   59.5928   75.8764 H   0  0  0  0  0  0  0  0  0  0  0  0
   -5.8864   60.9848   73.1754 H   0  0  0  0  0  0  0  0  0  0  0  0
   -6.3064   59.3304   73.5448 H   0  0  0  0  0  0  0  0  0  0  0  0
   -8.2938   61.1456   73.3081 H   0  0  0  0  0  0  0  0  0  0  0  0
   -8.4242   60.0261   74.6519 H   0  0  0  0  0  0  0  0  0  0  0  0
   -7.5139   62.9407   74.6327 H   0  0  0  0  0  0  0  0  0  0  0  0
   -8.4388   62.1193   75.8815 H   0  0  0  0  0  0  0  0  0  0  0  0
   -2.5518   62.6669   78.0856 H   0  0  0  0  0  0  0  0  0  0  0  0
   -3.5105   63.0627   80.1394 H   0  0  0  0  0  0  0  0  0  0  0  0
   -3.6660   64.7079   79.4352 H   0  0  0  0  0  0  0  0  0  0  0  0
   -5.0753   63.5940   79.4352 H   0  0  0  0  0  0  0  0  0  0  0  0
   -3.3304   65.2113   77.4973 H   0  0  0  0  0  0  0  0  0  0  0  0
   -2.5450   64.0928   76.3316 H   0  0  0  0  0  0  0  0  0  0  0  0
   -4.3314   64.2807   76.3316 H   0  0  0  0  0  0  0  0  0  0  0  0
   -1.9819   57.6339   77.1185 H   0  0  0  0  0  0  0  0  0  0  0  0
   -4.1514   57.4168   77.8241 H   0  0  0  0  0  0  0  0  0  0  0  0
   -4.7925   58.1962   76.3382 H   0  0  0  0  0  0  0  0  0  0  0  0
   -4.4097   56.4411   76.3382 H   0  0  0  0  0  0  0  0  0  0  0  0
   -1.9692   55.7882   75.6365 H   0  0  0  0  0  0  0  0  0  0  0  0
   -3.1912   56.5275   74.5471 H   0  0  0  0  0  0  0  0  0  0  0  0
   -1.5018   57.1379   74.5471 H   0  0  0  0  0  0  0  0  0  0  0  0
   -3.5053   62.5733   74.9826 H   0  0  0  0  0  0  0  0  0  0  0  0
  2  1  2  0
  3  2  1  0
  4  2  1  0
  5  4  1  0
  6  5  1  0
  7  6  1  0
  8  6  1  0
  9  8  1  0
 10  9  2  0
 10  4  1  0
 11  9  1  0
 12 11  2  0
 13 12  1  0
 14 13  2  0
 15 14  1  0
 16 11  1  0
 16 15  2  0
 17 16  1  0
 18 17  1  0
 18  8  1  0
 19 17  2  0
 20 19  1  0
 20 15  1  0
 21  3  1  6
 22 21  1  0
 23 22  1  0
 24 23  1  0
 25 24  1  0
 25 21  1  0
 26 25  2  0
 27 24  1  0
 28 27  1  0
 29 28  2  0
 30 28  1  0
 31 30  1  0
 31 23  1  0
 32 31  1  0
 33 32  1  0
 34 33  1  0
 34 30  1  0
 35 27  1  0
 36 35  1  0
 37 35  1  0
 38 21  1  0
 39 38  1  0
 40 38  1  0
 23 41  1  6
  3 42  1  0
  4 43  1  1
  5 44  1  0
  5 45  1  0
  6 46  1  6
  7 47  1  0
  7 48  1  0
  7 49  1  0
  8 50  1  6
 10 51  1  0
 12 52  1  0
 13 53  1  0
 14 54  1  0
 18 55  1  0
 18 56  1  0
 19 57  1  0
 20 58  1  0
 27 59  1  1
 31 60  1  1
 32 61  1  0
 32 62  1  0
 33 63  1  0
 33 64  1  0
 34 65  1  0
 34 66  1  0
 35 67  1  0
 36 68  1  0
 36 69  1  0
 36 70  1  0
 37 71  1  0
 37 72  1  0
 37 73  1  0
 38 74  1  0
 39 75  1  0
 39 76  1  0
 39 77  1  0
 40 78  1  0
 40 79  1  0
 40 80  1  0
 41 81  1  0
M  CHG  1   6   1
M  END
>  <score>  (8) 
-8.296

$$$$
=
     RDKit          3D

 81 87  0  0  0  0  0  0  0  0999 V2000
   -0.6630   58.2580   76.1350 O   0  0  0  0  0  0  0  0  0  0  0  0
   -0.2490   59.4120   76.1370 C   0  0  0  0  0  0  0  0  0  0  0  0
   -0.9450   60.4880   76.6390 N   0  0  0  0  0  0  0  0  0  0  0  0
    1.0290   59.7320   75.3560 C   0  0  1  0  0  0  0  0  0  0  0  0
    1.2920   58.4840   74.5000 C   0  0  0  0  0  0  0  0  0  0  0  0
    2.3670   58.7430   73.4530 N   0  0  2  0  0  4  0  0  0  0  0  0
    3.7230   58.9420   74.0770 C   0  0  0  0  0  0  0  0  0  0  0  0
    1.9020   59.8590   72.4970 C   0  0  1  0  0  0  0  0  0  0  0  0
    1.3250   61.0810   73.2560 C   0  0  0  0  0  0  0  0  0  0  0  0
    0.9780   61.0140   74.5570 C   0  0  0  0  0  0  0  0  0  0  0  0
    1.1380   62.3240   72.4670 C   0  0  0  0  0  0  0  0  0  0  0  0
    0.3630   63.4460   72.7860 C   0  0  0  0  0  0  0  0  0  0  0  0
    0.2570   64.5210   71.8910 C   0  0  0  0  0  0  0  0  0  0  0  0
    0.9070   64.5160   70.6490 C   0  0  0  0  0  0  0  0  0  0  0  0
    1.6770   63.3920   70.3440 C   0  0  0  0  0  0  0  0  0  0  0  0
    1.7950   62.3320   71.2260 C   0  0  0  0  0  0  0  0  0  0  0  0
    2.6490   61.3660   70.6480 C   0  0  0  0  0  0  0  0  0  0  0  0
    3.0000   60.1460   71.4160 C   0  0  0  0  0  0  0  0  0  0  0  0
    3.0280   61.8350   69.4130 C   0  0  0  0  0  0  0  0  0  0  0  0
    2.4300   63.0660   69.2360 N   0  0  0  0  0  0  0  0  0  0  0  0
   -2.1010   60.3460   77.5270 C   0  0  2  0  0  0  0  0  0  0  0  0
   -2.5510   58.9940   77.4800 O   0  0  0  0  0  0  0  0  0  0  0  0
   -3.8380   58.9790   76.8640 C   0  0  2  0  0  0  0  0  0  0  0  0
   -4.2710   60.3260   76.6980 N   0  0  0  0  0  0  0  0  0  0  0  0
   -3.3040   61.2100   77.1150 C   0  0  0  0  0  0  0  0  0  0  0  0
   -3.3760   62.4280   77.1580 O   0  0  0  0  0  0  0  0  0  0  0  0
   -5.6830   60.6750   76.4500 C   0  0  2  0  0  0  0  0  0  0  0  0
   -6.6750   59.4610   76.5310 C   0  0  0  0  0  0  0  0  0  0  0  0
   -7.8290   59.5080   76.1130 O   0  0  0  0  0  0  0  0  0  0  0  0
   -6.2000   58.3310   77.1690 N   0  0  0  0  0  0  0  0  0  0  0  0
   -4.8610   58.2270   77.7400 C   0  0  1  0  0  0  0  0  0  0  0  0
   -4.6560   56.7200   77.8860 C   0  0  0  0  0  0  0  0  0  0  0  0
   -6.0700   56.2270   78.2000 C   0  0  0  0  0  0  0  0  0  0  0  0
   -6.9540   57.1010   77.3160 C   0  0  0  0  0  0  0  0  0  0  0  0
   -5.8290   61.5080   75.1470 C   0  0  0  0  0  0  0  0  0  0  0  0
   -6.8080   62.6770   75.3060 C   0  0  0  0  0  0  0  0  0  0  0  0
   -6.2030   60.6620   73.9270 C   0  0  0  0  0  0  0  0  0  0  0  0
   -1.6910   60.7030   78.9940 C   0  0  0  0  0  0  0  0  0  0  0  0
   -1.3860   59.4620   79.8490 C   0  0  0  0  0  0  0  0  0  0  0  0
   -0.4620   61.6250   79.0680 C   0  0  0  0  0  0  0  0  0  0  0  0
   -3.7160   58.3970   75.5830 O   0  0  0  0  0  0  0  0  0  0  0  0
   -0.6390   61.4363   76.3783 H   0  0  0  0  0  0  0  0  0  0  0  0
    1.8618   59.9390   76.0442 H   0  0  0  0  0  0  0  0  0  0  0  0
    1.6210   57.6639   75.1551 H   0  0  0  0  0  0  0  0  0  0  0  0
    0.3597   58.2190   73.9798 H   0  0  0  0  0  0  0  0  0  0  0  0
    2.4976   57.9068   72.8660 H   0  0  0  0  0  0  0  0  0  0  0  0
    3.6280   58.9281   75.1728 H   0  0  0  0  0  0  0  0  0  0  0  0
    4.3962   58.1330   73.7570 H   0  0  0  0  0  0  0  0  0  0  0  0
    4.1354   59.9103   73.7570 H   0  0  0  0  0  0  0  0  0  0  0  0
    1.0322   59.5173   71.9168 H   0  0  0  0  0  0  0  0  0  0  0  0
    0.6428   61.9333   75.0595 H   0  0  0  0  0  0  0  0  0  0  0  0
   -0.1682   63.4847   73.7485 H   0  0  0  0  0  0  0  0  0  0  0  0
   -0.3532   65.3922   72.1716 H   0  0  0  0  0  0  0  0  0  0  0  0
    0.8147   65.3583   69.9475 H   0  0  0  0  0  0  0  0  0  0  0  0
    3.0673   59.2897   70.7288 H   0  0  0  0  0  0  0  0  0  0  0  0
    3.9676   60.2999   71.9160 H   0  0  0  0  0  0  0  0  0  0  0  0
    3.6873   61.3229   68.6967 H   0  0  0  0  0  0  0  0  0  0  0  0
    2.5315   63.6558   68.3977 H   0  0  0  0  0  0  0  0  0  0  0  0
   -5.9956   61.3158   77.2877 H   0  0  0  0  0  0  0  0  0  0  0  0
   -4.7249   58.7113   78.7182 H   0  0  0  0  0  0  0  0  0  0  0  0
   -4.2779   56.2772   76.9527 H   0  0  0  0  0  0  0  0  0  0  0  0
   -3.9148   56.4487   78.6522 H   0  0  0  0  0  0  0  0  0  0  0  0
   -6.1828   55.1639   77.9408 H   0  0  0  0  0  0  0  0  0  0  0  0
   -6.3234   56.3015   79.2678 H   0  0  0  0  0  0  0  0  0  0  0  0
   -7.1203   56.6255   76.3381 H   0  0  0  0  0  0  0  0  0  0  0  0
   -7.9519   57.2663   77.7483 H   0  0  0  0  0  0  0  0  0  0  0  0
   -4.8270   61.9224   74.9620 H   0  0  0  0  0  0  0  0  0  0  0  0
   -6.9731   62.8741   76.3755 H   0  0  0  0  0  0  0  0  0  0  0  0
   -6.3881   63.5745   74.8283 H   0  0  0  0  0  0  0  0  0  0  0  0
   -7.7653   62.4212   74.8283 H   0  0  0  0  0  0  0  0  0  0  0  0
   -6.6267   59.7035   74.2614 H   0  0  0  0  0  0  0  0  0  0  0  0
   -6.9470   61.2005   73.3215 H   0  0  0  0  0  0  0  0  0  0  0  0
   -5.3040   60.4742   73.3215 H   0  0  0  0  0  0  0  0  0  0  0  0
   -2.5725   61.2256   79.3938 H   0  0  0  0  0  0  0  0  0  0  0  0
   -1.4509   59.7261   80.9149 H   0  0  0  0  0  0  0  0  0  0  0  0
   -2.1166   58.6717   79.6219 H   0  0  0  0  0  0  0  0  0  0  0  0
   -0.3723   59.1004   79.6219 H   0  0  0  0  0  0  0  0  0  0  0  0
   -0.2089   61.8148   80.1215 H   0  0  0  0  0  0  0  0  0  0  0  0
    0.3899   61.1413   78.5677 H   0  0  0  0  0  0  0  0  0  0  0  0
   -0.6881   62.5782   78.5677 H   0  0  0  0  0  0  0  0  0  0  0  0
   -3.5138   57.4324   75.6767 H   0  0  0  0  0  0  0  0  0  0  0  0
  2  1  2  0
  3  2  1  0
  4  2  1  0
  5  4  1  0
  6  5  1  0
  7  6  1  0
  8  6  1  0
  9  8  1  0
 10  9  2  0
 10  4  1  0
 11  9  1  0
 12 11  2  0
 13 12  1  0
 14 13  2  0
 15 14  1  0
 16 11  1  0
 16 15  2  0
 17 16  1  0
 18 17  1  0
 18  8  1  0
 19 17  2  0
 20 19  1  0
 20 15  1  0
 21  3  1  6
 22 21  1  0
 23 22  1  0
 24 23  1  0
 25 24  1  0
 25 21  1  0
 26 25  2  0
 27 24  1  0
 28 27  1  0
 29 28  2  0
 30 28  1  0
 31 30  1  0
 31 23  1  0
 32 31  1  0
 33 32  1  0
 34 33  1  0
 34 30  1  0
 35 27  1  0
 36 35  1  0
 37 35  1  0
 38 21  1  0
 39 38  1  0
 40 38  1  0
 23 41  1  6
  3 42  1  0
  4 43  1  1
  5 44  1  0
  5 45  1  0
  6 46  1  6
  7 47  1  0
  7 48  1  0
  7 49  1  0
  8 50  1  6
 10 51  1  0
 12 52  1  0
 13 53  1  0
 14 54  1  0
 18 55  1  0
 18 56  1  0
 19 57  1  0
 20 58  1  0
 27 59  1  1
 31 60  1  1
 32 61  1  0
 32 62  1  0
 33 63  1  0
 33 64  1  0
 34 65  1  0
 34 66  1  0
 35 67  1  0
 36 68  1  0
 36 69  1  0
 36 70  1  0
 37 71  1  0
 37 72  1  0
 37 73  1  0
 38 74  1  0
 39 75  1  0
 39 76  1  0
 39 77  1  0
 40 78  1  0
 40 79  1  0
 40 80  1  0
 41 81  1  0
M  CHG  1   6   1
M  END
>  <score>  (9) 
-8.173

$$$$
