=
     RDKit          3D

 33 33  0  0  0  0  0  0  0  0999 V2000
    4.7200   69.9010   66.8410 C   0  0  0  0  0  0  0  0  0  0  0  0
    3.4310   69.3540   66.8030 C   0  0  0  0  0  0  0  0  0  0  0  0
    2.5530   69.4760   67.8950 C   0  0  0  0  0  0  0  0  0  0  0  0
    3.0070   70.1420   69.0400 C   0  0  0  0  0  0  0  0  0  0  0  0
    4.2870   70.7040   69.0830 C   0  0  0  0  0  0  0  0  0  0  0  0
    5.1480   70.5950   67.9880 C   0  0  0  0  0  0  0  0  0  0  0  0
    5.1120   69.4980   64.5210 C   0  0  0  0  0  0  0  0  0  0  0  0
    5.6220   69.8220   65.8080 O   0  0  0  0  0  0  0  0  0  0  0  0
    6.4180   71.1130   67.9430 O   0  0  0  0  0  0  0  0  0  0  0  0
    7.2280   70.9770   69.1030 C   0  0  0  0  0  0  0  0  0  0  0  0
    1.1810   68.8270   67.8130 C   0  0  2  0  0  0  0  0  0  0  0  0
    1.0670   67.5190   68.6030 C   0  0  0  0  0  0  0  0  0  0  0  0
    0.8270   68.5320   66.4090 N   0  0  0  0  0  0  0  0  0  0  0  0
   -0.7830   68.3880   66.0170 S   0  0  0  0  0  6  0  0  0  0  0  0
   -1.2400   67.1440   66.5770 O   0  0  0  0  0  0  0  0  0  0  0  0
   -0.9720   68.7630   64.6420 O   0  0  0  0  0  0  0  0  0  0  0  0
   -1.3590   69.6090   66.9690 N   0  0  0  0  0  0  0  0  0  0  0  0
    3.0989   68.8185   65.9014 H   0  0  0  0  0  0  0  0  0  0  0  0
    2.3483   70.2243   69.9171 H   0  0  0  0  0  0  0  0  0  0  0  0
    4.6187   71.2364   69.9866 H   0  0  0  0  0  0  0  0  0  0  0  0
    4.1881   68.9110   64.6298 H   0  0  0  0  0  0  0  0  0  0  0  0
    4.8951   70.4242   63.9687 H   0  0  0  0  0  0  0  0  0  0  0  0
    5.8583   68.9080   63.9687 H   0  0  0  0  0  0  0  0  0  0  0  0
    6.6022   71.0821   70.0015 H   0  0  0  0  0  0  0  0  0  0  0  0
    7.7056   69.9861   69.1026 H   0  0  0  0  0  0  0  0  0  0  0  0
    8.0030   71.7576   69.1026 H   0  0  0  0  0  0  0  0  0  0  0  0
    0.4921   69.5599   68.2584 H   0  0  0  0  0  0  0  0  0  0  0  0
    1.0861   67.7387   69.6807 H   0  0  0  0  0  0  0  0  0  0  0  0
    0.1218   67.0177   68.3477 H   0  0  0  0  0  0  0  0  0  0  0  0
    1.9113   66.8617   68.3477 H   0  0  0  0  0  0  0  0  0  0  0  0
    1.2153   69.2905   65.8305 H   0  0  0  0  0  0  0  0  0  0  0  0
   -1.2399   69.3566   67.9605 H   0  0  0  0  0  0  0  0  0  0  0  0
   -0.8375   70.4747   66.7700 H   0  0  0  0  0  0  0  0  0  0  0  0
  2  1  2  0
  3  2  1  0
  4  3  2  0
  5  4  1  0
  6  5  2  0
  6  1  1  0
  8  7  1  0
  8  1  1  0
  9  6  1  0
 10  9  1  0
 11  3  1  0
 12 11  1  0
 13 11  1  0
 14 13  1  0
 15 14  2  0
 16 14  2  0
 17 14  1  0
  2 18  1  0
  4 19  1  0
  5 20  1  0
  7 21  1  0
  7 22  1  0
  7 23  1  0
 10 24  1  0
 10 25  1  0
 10 26  1  0
 11 27  1  1
 12 28  1  0
 12 29  1  0
 12 30  1  0
 13 31  1  0
 17 32  1  0
 17 33  1  0
M  END
>  <score>  (1) 
-7.86

$$$$
=
     RDKit          3D

 33 33  0  0  0  0  0  0  0  0999 V2000
    4.1660   69.4840   65.8090 C   0  0  0  0  0  0  0  0  0  0  0  0
    3.0750   69.1960   66.6390 C   0  0  0  0  0  0  0  0  0  0  0  0
    1.8800   68.6670   66.1180 C   0  0  0  0  0  0  0  0  0  0  0  0
    1.7950   68.4550   64.7360 C   0  0  0  0  0  0  0  0  0  0  0  0
    2.8830   68.7270   63.9010 C   0  0  0  0  0  0  0  0  0  0  0  0
    4.0740   69.2350   64.4270 C   0  0  0  0  0  0  0  0  0  0  0  0
    5.5120   70.1670   67.6590 C   0  0  0  0  0  0  0  0  0  0  0  0
    5.3610   69.9950   66.2550 O   0  0  0  0  0  0  0  0  0  0  0  0
    5.1890   69.5310   63.6830 O   0  0  0  0  0  0  0  0  0  0  0  0
    5.4070   68.7850   62.4940 C   0  0  0  0  0  0  0  0  0  0  0  0
    0.7150   68.4120   67.0610 C   0  0  2  0  0  0  0  0  0  0  0  0
    1.0790   67.5520   68.2750 C   0  0  0  0  0  0  0  0  0  0  0  0
   -0.3910   67.7370   66.3500 N   0  0  0  0  0  0  0  0  0  0  0  0
   -1.9060   68.4220   66.4220 S   0  0  0  0  0  6  0  0  0  0  0  0
   -2.6170   67.7570   67.4810 O   0  0  0  0  0  0  0  0  0  0  0  0
   -2.4200   68.5760   65.0880 O   0  0  0  0  0  0  0  0  0  0  0  0
   -1.4550   69.9110   66.9770 N   0  0  0  0  0  0  0  0  0  0  0  0
    3.1541   69.3872   67.7194 H   0  0  0  0  0  0  0  0  0  0  0  0
    0.8605   68.0697   64.3022 H   0  0  0  0  0  0  0  0  0  0  0  0
    2.8008   68.5394   62.8202 H   0  0  0  0  0  0  0  0  0  0  0  0
    4.8756   69.4421   68.1877 H   0  0  0  0  0  0  0  0  0  0  0  0
    6.5635   70.0034   67.9375 H   0  0  0  0  0  0  0  0  0  0  0  0
    5.2136   71.1885   67.9375 H   0  0  0  0  0  0  0  0  0  0  0  0
    5.7068   67.7592   62.7545 H   0  0  0  0  0  0  0  0  0  0  0  0
    4.4794   68.7571   61.9034 H   0  0  0  0  0  0  0  0  0  0  0  0
    6.2036   69.2610   61.9034 H   0  0  0  0  0  0  0  0  0  0  0  0
    0.4160   69.4071   67.4222 H   0  0  0  0  0  0  0  0  0  0  0  0
    0.8457   68.1031   69.1980 H   0  0  0  0  0  0  0  0  0  0  0  0
    0.4992   66.6175   68.2495 H   0  0  0  0  0  0  0  0  0  0  0  0
    2.1535   67.3177   68.2495 H   0  0  0  0  0  0  0  0  0  0  0  0
   -0.1271   67.6831   65.3558 H   0  0  0  0  0  0  0  0  0  0  0  0
   -1.4558   69.9082   68.0070 H   0  0  0  0  0  0  0  0  0  0  0  0
   -0.5091   70.1328   66.6350 H   0  0  0  0  0  0  0  0  0  0  0  0
  2  1  2  0
  3  2  1  0
  4  3  2  0
  5  4  1  0
  6  5  2  0
  6  1  1  0
  8  7  1  0
  8  1  1  0
  9  6  1  0
 10  9  1  0
 11  3  1  0
 12 11  1  0
 13 11  1  0
 14 13  1  0
 15 14  2  0
 16 14  2  0
 17 14  1  0
  2 18  1  0
  4 19  1  0
  5 20  1  0
  7 21  1  0
  7 22  1  0
  7 23  1  0
 10 24  1  0
 10 25  1  0
 10 26  1  0
 11 27  1  1
 12 28  1  0
 12 29  1  0
 12 30  1  0
 13 31  1  0
 17 32  1  0
 17 33  1  0
M  END
>  <score>  (2) 
-7.737

$$$$
=
     RDKit          3D

 33 33  0  0  0  0  0  0  0  0999 V2000
    1.9840   67.3680   65.5620 C   0  0  0  0  0  0  0  0  0  0  0  0
    3.1440   68.1520   65.5240 C   0  0  0  0  0  0  0  0  0  0  0  0
    3.3560   69.1890   66.4510 C   0  0  0  0  0  0  0  0  0  0  0  0
    2.3630   69.4390   67.4060 C   0  0  0  0  0  0  0  0  0  0  0  0
    1.2070   68.6530   67.4600 C   0  0  0  0  0  0  0  0  0  0  0  0
    1.0110   67.6130   66.5480 C   0  0  0  0  0  0  0  0  0  0  0  0
    2.7000   65.3150   64.5770 C   0  0  0  0  0  0  0  0  0  0  0  0
    1.7200   66.3390   64.6910 O   0  0  0  0  0  0  0  0  0  0  0  0
   -0.0910   66.7950   66.5270 O   0  0  0  0  0  0  0  0  0  0  0  0
   -1.2140   67.1790   67.3070 C   0  0  0  0  0  0  0  0  0  0  0  0
    4.6160   70.0330   66.3370 C   0  0  2  0  0  0  0  0  0  0  0  0
    5.4700   69.7060   65.1090 C   0  0  0  0  0  0  0  0  0  0  0  0
    5.4680   69.8620   67.5330 N   0  0  0  0  0  0  0  0  0  0  0  0
    5.5550   71.1150   68.6220 S   0  0  0  0  0  6  0  0  0  0  0  0
    4.4820   70.9300   69.5620 O   0  0  0  0  0  0  0  0  0  0  0  0
    5.7930   72.3440   67.9130 O   0  0  0  0  0  0  0  0  0  0  0  0
    6.9600   70.6700   69.3690 N   0  0  0  0  0  0  0  0  0  0  0  0
    3.9042   67.9531   64.7543 H   0  0  0  0  0  0  0  0  0  0  0  0
    2.4934   70.2634   68.1225 H   0  0  0  0  0  0  0  0  0  0  0  0
    0.4455   68.8557   68.2275 H   0  0  0  0  0  0  0  0  0  0  0  0
    3.0102   64.9909   65.5814 H   0  0  0  0  0  0  0  0  0  0  0  0
    2.2751   64.4600   64.0307 H   0  0  0  0  0  0  0  0  0  0  0  0
    3.5728   65.7020   64.0307 H   0  0  0  0  0  0  0  0  0  0  0  0
   -0.9650   67.0939   68.3751 H   0  0  0  0  0  0  0  0  0  0  0  0
   -1.4828   68.2201   67.0750 H   0  0  0  0  0  0  0  0  0  0  0  0
   -2.0640   66.5205   67.0750 H   0  0  0  0  0  0  0  0  0  0  0  0
    4.2580   71.0687   66.2410 H   0  0  0  0  0  0  0  0  0  0  0  0
    6.4513   69.3303   65.4343 H   0  0  0  0  0  0  0  0  0  0  0  0
    4.9650   68.9376   64.5052 H   0  0  0  0  0  0  0  0  0  0  0  0
    5.6073   70.6152   64.5052 H   0  0  0  0  0  0  0  0  0  0  0  0
    5.1171   69.0385   68.0425 H   0  0  0  0  0  0  0  0  0  0  0  0
    6.8334   70.7101   70.3904 H   0  0  0  0  0  0  0  0  0  0  0  0
    7.2073   69.7095   69.0911 H   0  0  0  0  0  0  0  0  0  0  0  0
  2  1  2  0
  3  2  1  0
  4  3  2  0
  5  4  1  0
  6  5  2  0
  6  1  1  0
  8  7  1  0
  8  1  1  0
  9  6  1  0
 10  9  1  0
 11  3  1  0
 12 11  1  0
 13 11  1  0
 14 13  1  0
 15 14  2  0
 16 14  2  0
 17 14  1  0
  2 18  1  0
  4 19  1  0
  5 20  1  0
  7 21  1  0
  7 22  1  0
  7 23  1  0
 10 24  1  0
 10 25  1  0
 10 26  1  0
 11 27  1  6
 12 28  1  0
 12 29  1  0
 12 30  1  0
 13 31  1  0
 17 32  1  0
 17 33  1  0
M  END
>  <score>  (3) 
-7.647

$$$$
=
     RDKit          3D

 33 33  0  0  0  0  0  0  0  0999 V2000
    2.5460   68.6390   63.7090 C   0  0  0  0  0  0  0  0  0  0  0  0
    1.5600   68.4250   64.6800 C   0  0  0  0  0  0  0  0  0  0  0  0
    1.8150   68.6540   66.0450 C   0  0  0  0  0  0  0  0  0  0  0  0
    3.0960   69.0830   66.4170 C   0  0  0  0  0  0  0  0  0  0  0  0
    4.0830   69.3120   65.4530 C   0  0  0  0  0  0  0  0  0  0  0  0
    3.8170   69.1000   64.0980 C   0  0  0  0  0  0  0  0  0  0  0  0
    1.2450   69.0860   61.7580 C   0  0  0  0  0  0  0  0  0  0  0  0
    2.3580   68.4400   62.3630 O   0  0  0  0  0  0  0  0  0  0  0  0
    4.7250   69.2970   63.0880 O   0  0  0  0  0  0  0  0  0  0  0  0
    5.8350   68.4130   63.0150 C   0  0  0  0  0  0  0  0  0  0  0  0
    0.7190   68.3670   67.0580 C   0  0  2  0  0  0  0  0  0  0  0  0
    1.1910   67.5490   68.2640 C   0  0  0  0  0  0  0  0  0  0  0  0
   -0.3940   67.6280   66.4260 N   0  0  0  0  0  0  0  0  0  0  0  0
   -1.9190   68.2880   66.5010 S   0  0  0  0  0  6  0  0  0  0  0  0
   -2.6110   67.6240   67.5730 O   0  0  0  0  0  0  0  0  0  0  0  0
   -2.4450   68.4180   65.1690 O   0  0  0  0  0  0  0  0  0  0  0  0
   -1.4900   69.7910   67.0350 N   0  0  0  0  0  0  0  0  0  0  0  0
    0.5660   68.0707   64.3696 H   0  0  0  0  0  0  0  0  0  0  0  0
    3.3282   69.2416   67.4804 H   0  0  0  0  0  0  0  0  0  0  0  0
    5.0781   69.6623   65.7646 H   0  0  0  0  0  0  0  0  0  0  0  0
    0.5764   69.4741   62.5405 H   0  0  0  0  0  0  0  0  0  0  0  0
    1.5997   69.9186   61.1327 H   0  0  0  0  0  0  0  0  0  0  0  0
    0.6980   68.3650   61.1327 H   0  0  0  0  0  0  0  0  0  0  0  0
    6.1631   68.1517   64.0319 H   0  0  0  0  0  0  0  0  0  0  0  0
    5.5411   67.4989   62.4783 H   0  0  0  0  0  0  0  0  0  0  0  0
    6.6601   68.9040   62.4783 H   0  0  0  0  0  0  0  0  0  0  0  0
    0.3960   69.3554   67.4168 H   0  0  0  0  0  0  0  0  0  0  0  0
    0.8959   68.0604   69.1921 H   0  0  0  0  0  0  0  0  0  0  0  0
    0.7301   66.5507   68.2330 H   0  0  0  0  0  0  0  0  0  0  0  0
    2.2860   67.4485   68.2330 H   0  0  0  0  0  0  0  0  0  0  0  0
   -0.1588   67.5152   65.4296 H   0  0  0  0  0  0  0  0  0  0  0  0
   -1.4870   69.8015   68.0649 H   0  0  0  0  0  0  0  0  0  0  0  0
   -0.5490   70.0235   66.6865 H   0  0  0  0  0  0  0  0  0  0  0  0
  2  1  2  0
  3  2  1  0
  4  3  2  0
  5  4  1  0
  6  5  2  0
  6  1  1  0
  8  7  1  0
  8  1  1  0
  9  6  1  0
 10  9  1  0
 11  3  1  0
 12 11  1  0
 13 11  1  0
 14 13  1  0
 15 14  2  0
 16 14  2  0
 17 14  1  0
  2 18  1  0
  4 19  1  0
  5 20  1  0
  7 21  1  0
  7 22  1  0
  7 23  1  0
 10 24  1  0
 10 25  1  0
 10 26  1  0
 11 27  1  1
 12 28  1  0
 12 29  1  0
 12 30  1  0
 13 31  1  0
 17 32  1  0
 17 33  1  0
M  END
>  <score>  (4) 
-7.502

$$$$
=
     RDKit          3D

 33 33  0  0  0  0  0  0  0  0999 V2000
    3.2720   66.9610   64.6250 C   0  0  0  0  0  0  0  0  0  0  0  0
    2.1760   66.9990   65.4980 C   0  0  0  0  0  0  0  0  0  0  0  0
    1.9490   68.1030   66.3400 C   0  0  0  0  0  0  0  0  0  0  0  0
    2.8640   69.1640   66.3040 C   0  0  0  0  0  0  0  0  0  0  0  0
    3.9530   69.1410   65.4270 C   0  0  0  0  0  0  0  0  0  0  0  0
    4.1620   68.0500   64.5800 C   0  0  0  0  0  0  0  0  0  0  0  0
    3.7800   64.6440   64.3630 C   0  0  0  0  0  0  0  0  0  0  0  0
    3.5450   65.9180   63.7760 O   0  0  0  0  0  0  0  0  0  0  0  0
    5.2030   67.9440   63.6920 O   0  0  0  0  0  0  0  0  0  0  0  0
    5.3030   68.9260   62.6700 C   0  0  0  0  0  0  0  0  0  0  0  0
    0.7670   68.0710   67.2940 C   0  0  2  0  0  0  0  0  0  0  0  0
    1.0400   67.3040   68.5920 C   0  0  0  0  0  0  0  0  0  0  0  0
   -0.4080   67.4510   66.6470 N   0  0  0  0  0  0  0  0  0  0  0  0
   -1.7970   68.3560   66.5060 S   0  0  0  0  0  6  0  0  0  0  0  0
   -2.7690   67.7740   67.3910 O   0  0  0  0  0  0  0  0  0  0  0  0
   -2.0440   68.6300   65.1160 O   0  0  0  0  0  0  0  0  0  0  0  0
   -1.2380   69.7410   67.2130 N   0  0  0  0  0  0  0  0  0  0  0  0
    1.4792   66.1483   65.5253 H   0  0  0  0  0  0  0  0  0  0  0  0
    2.7238   70.0253   66.9737 H   0  0  0  0  0  0  0  0  0  0  0  0
    4.6518   69.9902   65.4039 H   0  0  0  0  0  0  0  0  0  0  0  0
    3.7629   64.7365   65.4590 H   0  0  0  0  0  0  0  0  0  0  0  0
    2.9962   63.9422   64.0420 H   0  0  0  0  0  0  0  0  0  0  0  0
    4.7627   64.2680   64.0420 H   0  0  0  0  0  0  0  0  0  0  0  0
    5.4044   69.9215   63.1267 H   0  0  0  0  0  0  0  0  0  0  0  0
    6.1845   68.7174   62.0460 H   0  0  0  0  0  0  0  0  0  0  0  0
    4.3975   68.8993   62.0460 H   0  0  0  0  0  0  0  0  0  0  0  0
    0.5784   69.1240   67.5500 H   0  0  0  0  0  0  0  0  0  0  0  0
    0.8107   67.9482   69.4537 H   0  0  0  0  0  0  0  0  0  0  0  0
    0.4065   66.4054   68.6271 H   0  0  0  0  0  0  0  0  0  0  0  0
    2.0988   67.0078   68.6271 H   0  0  0  0  0  0  0  0  0  0  0  0
   -0.1238   67.1776   65.6955 H   0  0  0  0  0  0  0  0  0  0  0  0
   -1.2774   69.6435   68.2376 H   0  0  0  0  0  0  0  0  0  0  0  0
   -0.2642   69.9066   66.9210 H   0  0  0  0  0  0  0  0  0  0  0  0
  2  1  2  0
  3  2  1  0
  4  3  2  0
  5  4  1  0
  6  5  2  0
  6  1  1  0
  8  7  1  0
  8  1  1  0
  9  6  1  0
 10  9  1  0
 11  3  1  0
 12 11  1  0
 13 11  1  0
 14 13  1  0
 15 14  2  0
 16 14  2  0
 17 14  1  0
  2 18  1  0
  4 19  1  0
  5 20  1  0
  7 21  1  0
  7 22  1  0
  7 23  1  0
 10 24  1  0
 10 25  1  0
 10 26  1  0
 11 27  1  1
 12 28  1  0
 12 29  1  0
 12 30  1  0
 13 31  1  0
 17 32  1  0
 17 33  1  0
M  END
>  <score>  (5) 
-7.384

$$$$
=
     RDKit          3D

 33 33  0  0  0  0  0  0  0  0999 V2000
    3.1560   69.2970   66.5810 C   0  0  0  0  0  0  0  0  0  0  0  0
    2.7040   68.7060   65.3940 C   0  0  0  0  0  0  0  0  0  0  0  0
    3.5350   68.6090   64.2630 C   0  0  0  0  0  0  0  0  0  0  0  0
    4.8280   69.1420   64.3420 C   0  0  0  0  0  0  0  0  0  0  0  0
    5.2930   69.7220   65.5270 C   0  0  0  0  0  0  0  0  0  0  0  0
    4.4690   69.7980   66.6530 C   0  0  0  0  0  0  0  0  0  0  0  0
    1.0080   69.1380   67.6090 C   0  0  0  0  0  0  0  0  0  0  0  0
    2.3980   69.4180   67.7200 O   0  0  0  0  0  0  0  0  0  0  0  0
    4.8410   70.3510   67.8530 O   0  0  0  0  0  0  0  0  0  0  0  0
    6.1100   70.9870   67.9220 C   0  0  0  0  0  0  0  0  0  0  0  0
    2.9770   67.9940   62.9900 C   0  0  2  0  0  0  0  0  0  0  0  0
    4.0390   67.3320   62.1070 C   0  0  0  0  0  0  0  0  0  0  0  0
    2.2930   69.0180   62.1730 N   0  0  0  0  0  0  0  0  0  0  0  0
    0.6300   69.0520   62.1870 S   0  0  0  0  0  6  0  0  0  0  0  0
    0.2400   70.1920   62.9730 O   0  0  0  0  0  0  0  0  0  0  0  0
    0.1300   67.7220   62.4060 O   0  0  0  0  0  0  0  0  0  0  0  0
    0.3970   69.4360   60.5970 N   0  0  0  0  0  0  0  0  0  0  0  0
    1.6789   68.3099   65.3453 H   0  0  0  0  0  0  0  0  0  0  0  0
    5.4859   69.1040   63.4613 H   0  0  0  0  0  0  0  0  0  0  0  0
    6.3167   70.1219   65.5729 H   0  0  0  0  0  0  0  0  0  0  0  0
    0.5703   69.0498   68.6143 H   0  0  0  0  0  0  0  0  0  0  0  0
    0.5120   69.9543   67.0634 H   0  0  0  0  0  0  0  0  0  0  0  0
    0.8667   68.1933   67.0634 H   0  0  0  0  0  0  0  0  0  0  0  0
    6.3924   71.1285   68.9757 H   0  0  0  0  0  0  0  0  0  0  0  0
    6.8623   70.3594   67.4219 H   0  0  0  0  0  0  0  0  0  0  0  0
    6.0575   71.9653   67.4219 H   0  0  0  0  0  0  0  0  0  0  0  0
    2.2782   67.2161   63.3312 H   0  0  0  0  0  0  0  0  0  0  0  0
    4.8006   66.8572   62.7430 H   0  0  0  0  0  0  0  0  0  0  0  0
    3.5644   66.5695   61.4719 H   0  0  0  0  0  0  0  0  0  0  0  0
    4.5147   68.0938   61.4719 H   0  0  0  0  0  0  0  0  0  0  0  0
    2.6201   69.9383   62.5000 H   0  0  0  0  0  0  0  0  0  0  0  0
   -0.1362   70.3147   60.5306 H   0  0  0  0  0  0  0  0  0  0  0  0
    1.3100   69.5526   60.1346 H   0  0  0  0  0  0  0  0  0  0  0  0
  2  1  2  0
  3  2  1  0
  4  3  2  0
  5  4  1  0
  6  5  2  0
  6  1  1  0
  8  7  1  0
  8  1  1  0
  9  6  1  0
 10  9  1  0
 11  3  1  0
 12 11  1  0
 13 11  1  0
 14 13  1  0
 15 14  2  0
 16 14  2  0
 17 14  1  0
  2 18  1  0
  4 19  1  0
  5 20  1  0
  7 21  1  0
  7 22  1  0
  7 23  1  0
 10 24  1  0
 10 25  1  0
 10 26  1  0
 11 27  1  1
 12 28  1  0
 12 29  1  0
 12 30  1  0
 13 31  1  0
 17 32  1  0
 17 33  1  0
M  END
>  <score>  (6) 
-7.23

$$$$
=
     RDKit          3D

 33 33  0  0  0  0  0  0  0  0999 V2000
    1.2320   68.1850   67.4740 C   0  0  0  0  0  0  0  0  0  0  0  0
    2.4820   68.8090   67.3610 C   0  0  0  0  0  0  0  0  0  0  0  0
    3.0440   69.0970   66.1050 C   0  0  0  0  0  0  0  0  0  0  0  0
    2.3330   68.7230   64.9580 C   0  0  0  0  0  0  0  0  0  0  0  0
    1.0790   68.1120   65.0600 C   0  0  0  0  0  0  0  0  0  0  0  0
    0.5170   67.8460   66.3110 C   0  0  0  0  0  0  0  0  0  0  0  0
    1.1540   66.7880   69.4080 C   0  0  0  0  0  0  0  0  0  0  0  0
    0.6260   67.8820   68.6690 O   0  0  0  0  0  0  0  0  0  0  0  0
   -0.7040   67.2490   66.5030 O   0  0  0  0  0  0  0  0  0  0  0  0
   -1.8540   68.0830   66.5040 C   0  0  0  0  0  0  0  0  0  0  0  0
    4.4210   69.7380   66.0440 C   0  0  2  0  0  0  0  0  0  0  0  0
    5.3810   69.0510   65.0670 C   0  0  0  0  0  0  0  0  0  0  0  0
    5.0600   69.7300   67.3770 N   0  0  0  0  0  0  0  0  0  0  0  0
    6.0550   71.0000   67.7800 S   0  0  0  0  0  6  0  0  0  0  0  0
    6.3580   71.6980   66.5610 O   0  0  0  0  0  0  0  0  0  0  0  0
    7.0530   70.5430   68.7100 O   0  0  0  0  0  0  0  0  0  0  0  0
    4.9480   71.9000   68.6130 N   0  0  0  0  0  0  0  0  0  0  0  0
    3.0342   69.0787   68.2733 H   0  0  0  0  0  0  0  0  0  0  0  0
    2.7660   68.9121   63.9647 H   0  0  0  0  0  0  0  0  0  0  0  0
    0.5302   67.8384   64.1468 H   0  0  0  0  0  0  0  0  0  0  0  0
    1.0559   66.9913   70.4846 H   0  0  0  0  0  0  0  0  0  0  0  0
    0.5984   65.8728   69.1556 H   0  0  0  0  0  0  0  0  0  0  0  0
    2.2162   66.6536   69.1556 H   0  0  0  0  0  0  0  0  0  0  0  0
   -2.1502   68.2978   67.5413 H   0  0  0  0  0  0  0  0  0  0  0  0
   -1.6238   69.0256   65.9857 H   0  0  0  0  0  0  0  0  0  0  0  0
   -2.6784   67.5714   65.9857 H   0  0  0  0  0  0  0  0  0  0  0  0
    4.2420   70.7632   65.6877 H   0  0  0  0  0  0  0  0  0  0  0  0
    6.1484   68.5018   65.6322 H   0  0  0  0  0  0  0  0  0  0  0  0
    4.8192   68.3486   64.4337 H   0  0  0  0  0  0  0  0  0  0  0  0
    5.8645   69.8094   64.4337 H   0  0  0  0  0  0  0  0  0  0  0  0
    4.3052   69.6995   68.0772 H   0  0  0  0  0  0  0  0  0  0  0  0
    5.0979   71.7782   69.6247 H   0  0  0  0  0  0  0  0  0  0  0  0
    5.0585   72.8940   68.3668 H   0  0  0  0  0  0  0  0  0  0  0  0
  2  1  2  0
  3  2  1  0
  4  3  2  0
  5  4  1  0
  6  5  2  0
  6  1  1  0
  8  7  1  0
  8  1  1  0
  9  6  1  0
 10  9  1  0
 11  3  1  0
 12 11  1  0
 13 11  1  0
 14 13  1  0
 15 14  2  0
 16 14  2  0
 17 14  1  0
  2 18  1  0
  4 19  1  0
  5 20  1  0
  7 21  1  0
  7 22  1  0
  7 23  1  0
 10 24  1  0
 10 25  1  0
 10 26  1  0
 11 27  1  6
 12 28  1  0
 12 29  1  0
 12 30  1  0
 13 31  1  0
 17 32  1  0
 17 33  1  0
M  END
>  <score>  (7) 
-6.987

$$$$
=
     RDKit          3D

 33 33  0  0  0  0  0  0  0  0999 V2000
    0.3520   67.5820   67.0330 C   0  0  0  0  0  0  0  0  0  0  0  0
    1.6550   67.6610   66.5240 C   0  0  0  0  0  0  0  0  0  0  0  0
    1.9250   68.2960   65.2980 C   0  0  0  0  0  0  0  0  0  0  0  0
    0.8500   68.8320   64.5790 C   0  0  0  0  0  0  0  0  0  0  0  0
   -0.4530   68.7700   65.0840 C   0  0  0  0  0  0  0  0  0  0  0  0
   -0.7120   68.1550   66.3110 C   0  0  0  0  0  0  0  0  0  0  0  0
    1.0040   67.0000   69.2540 C   0  0  0  0  0  0  0  0  0  0  0  0
    0.0240   66.9820   68.2240 O   0  0  0  0  0  0  0  0  0  0  0  0
   -1.9560   68.0470   66.8800 O   0  0  0  0  0  0  0  0  0  0  0  0
   -3.0780   68.4140   66.0890 C   0  0  0  0  0  0  0  0  0  0  0  0
    3.3530   68.3150   64.7770 C   0  0  2  0  0  0  0  0  0  0  0  0
    4.2880   69.2340   65.5690 C   0  0  0  0  0  0  0  0  0  0  0  0
    3.3860   68.7530   63.3660 N   0  0  0  0  0  0  0  0  0  0  0  0
    4.3860   67.9400   62.3140 S   0  0  0  0  0  6  0  0  0  0  0  0
    4.0170   66.5520   62.3720 O   0  0  0  0  0  0  0  0  0  0  0  0
    5.7340   68.4160   62.4780 O   0  0  0  0  0  0  0  0  0  0  0  0
    3.7880   68.5610   60.9050 N   0  0  0  0  0  0  0  0  0  0  0  0
    2.4840   67.2173   67.0948 H   0  0  0  0  0  0  0  0  0  0  0  0
    1.0324   69.3081   63.6043 H   0  0  0  0  0  0  0  0  0  0  0  0
   -1.2815   69.2097   64.5094 H   0  0  0  0  0  0  0  0  0  0  0  0
    0.5056   66.9908   70.2346 H   0  0  0  0  0  0  0  0  0  0  0  0
    1.6488   66.1135   69.1622 H   0  0  0  0  0  0  0  0  0  0  0  0
    1.6158   67.9095   69.1622 H   0  0  0  0  0  0  0  0  0  0  0  0
   -3.9162   68.6882   66.7465 H   0  0  0  0  0  0  0  0  0  0  0  0
   -2.8139   69.2726   65.4541 H   0  0  0  0  0  0  0  0  0  0  0  0
   -3.3724   67.5653   65.4541 H   0  0  0  0  0  0  0  0  0  0  0  0
    3.7116   67.2811   64.8881 H   0  0  0  0  0  0  0  0  0  0  0  0
    4.1294   69.0781   66.6463 H   0  0  0  0  0  0  0  0  0  0  0  0
    5.3326   69.0014   65.3148 H   0  0  0  0  0  0  0  0  0  0  0  0
    4.0735   70.2825   65.3148 H   0  0  0  0  0  0  0  0  0  0  0  0
    2.4269   68.6733   62.9989 H   0  0  0  0  0  0  0  0  0  0  0  0
    3.0891   69.2867   61.1190 H   0  0  0  0  0  0  0  0  0  0  0  0
    4.5568   68.9751   60.3587 H   0  0  0  0  0  0  0  0  0  0  0  0
  2  1  2  0
  3  2  1  0
  4  3  2  0
  5  4  1  0
  6  5  2  0
  6  1  1  0
  8  7  1  0
  8  1  1  0
  9  6  1  0
 10  9  1  0
 11  3  1  0
 12 11  1  0
 13 11  1  0
 14 13  1  0
 15 14  2  0
 16 14  2  0
 17 14  1  0
  2 18  1  0
  4 19  1  0
  5 20  1  0
  7 21  1  0
  7 22  1  0
  7 23  1  0
 10 24  1  0
 10 25  1  0
 10 26  1  0
 11 27  1  6
 12 28  1  0
 12 29  1  0
 12 30  1  0
 13 31  1  0
 17 32  1  0
 17 33  1  0
M  END
>  <score>  (8) 
-6.966

$$$$
=
     RDKit          3D

 33 33  0  0  0  0  0  0  0  0999 V2000
    0.8680   64.9580   71.0120 C   0  0  0  0  0  0  0  0  0  0  0  0
    1.8060   64.2040   70.2950 C   0  0  0  0  0  0  0  0  0  0  0  0
    2.4090   63.0630   70.8550 C   0  0  0  0  0  0  0  0  0  0  0  0
    2.0650   62.7070   72.1650 C   0  0  0  0  0  0  0  0  0  0  0  0
    1.1210   63.4450   72.8850 C   0  0  0  0  0  0  0  0  0  0  0  0
    0.5120   64.5670   72.3160 C   0  0  0  0  0  0  0  0  0  0  0  0
    0.9290   66.8270   69.5280 C   0  0  0  0  0  0  0  0  0  0  0  0
    0.2410   66.0770   70.5220 O   0  0  0  0  0  0  0  0  0  0  0  0
   -0.4220   65.3490   72.9490 O   0  0  0  0  0  0  0  0  0  0  0  0
   -0.3520   65.4470   74.3640 C   0  0  0  0  0  0  0  0  0  0  0  0
    3.4490   62.3070   70.0450 C   0  0  2  0  0  0  0  0  0  0  0  0
    3.7520   62.9400   68.6830 C   0  0  0  0  0  0  0  0  0  0  0  0
    3.0130   60.9160   69.8040 N   0  0  0  0  0  0  0  0  0  0  0  0
    3.7290   59.7030   70.6890 S   0  0  0  0  0  6  0  0  0  0  0  0
    2.7740   59.2900   71.6830 O   0  0  0  0  0  0  0  0  0  0  0  0
    5.0860   60.0720   70.9890 O   0  0  0  0  0  0  0  0  0  0  0  0
    3.7570   58.5470   69.5090 N   0  0  0  0  0  0  0  0  0  0  0  0
    2.0765   64.5102   69.2737 H   0  0  0  0  0  0  0  0  0  0  0  0
    2.5441   61.8348   72.6338 H   0  0  0  0  0  0  0  0  0  0  0  0
    0.8552   63.1401   73.9080 H   0  0  0  0  0  0  0  0  0  0  0  0
    1.5962   67.5543   70.0138 H   0  0  0  0  0  0  0  0  0  0  0  0
    1.5233   66.1462   68.9008 H   0  0  0  0  0  0  0  0  0  0  0  0
    0.1996   67.3605   68.9008 H   0  0  0  0  0  0  0  0  0  0  0  0
   -0.9346   64.6314   74.8173 H   0  0  0  0  0  0  0  0  0  0  0  0
    0.6972   65.3707   74.6854 H   0  0  0  0  0  0  0  0  0  0  0  0
   -0.7645   66.4148   74.6854 H   0  0  0  0  0  0  0  0  0  0  0  0
    4.3649   62.3431   70.6531 H   0  0  0  0  0  0  0  0  0  0  0  0
    4.2226   63.9230   68.8321 H   0  0  0  0  0  0  0  0  0  0  0  0
    4.4356   62.2879   68.1195 H   0  0  0  0  0  0  0  0  0  0  0  0
    2.8154   63.0635   68.1195 H   0  0  0  0  0  0  0  0  0  0  0  0
    2.0014   60.8759   69.9935 H   0  0  0  0  0  0  0  0  0  0  0  0
    3.7796   57.6134   69.9435 H   0  0  0  0  0  0  0  0  0  0  0  0
    2.9137   58.6331   68.9239 H   0  0  0  0  0  0  0  0  0  0  0  0
  2  1  2  0
  3  2  1  0
  4  3  2  0
  5  4  1  0
  6  5  2  0
  6  1  1  0
  8  7  1  0
  8  1  1  0
  9  6  1  0
 10  9  1  0
 11  3  1  0
 12 11  1  0
 13 11  1  0
 14 13  1  0
 15 14  2  0
 16 14  2  0
 17 14  1  0
  2 18  1  0
  4 19  1  0
  5 20  1  0
  7 21  1  0
  7 22  1  0
  7 23  1  0
 10 24  1  0
 10 25  1  0
 10 26  1  0
 11 27  1  1
 12 28  1  0
 12 29  1  0
 12 30  1  0
 13 31  1  0
 17 32  1  0
 17 33  1  0
M  END
>  <score>  (9) 
-6.609

$$$$
