=
     RDKit          3D

 62 63  0  0  0  0  0  0  0  0999 V2000
    4.3100   69.0470   64.6040 C   0  0  0  0  0  0  0  0  0  0  0  0
    5.1070   69.0120   63.4590 C   0  0  0  0  0  0  0  0  0  0  0  0
    4.5290   68.8860   62.1930 C   0  0  0  0  0  0  0  0  0  0  0  0
    3.1420   68.8000   62.0610 C   0  0  0  0  0  0  0  0  0  0  0  0
    2.3210   68.8420   63.1970 C   0  0  0  0  0  0  0  0  0  0  0  0
    2.9200   68.9610   64.4640 C   0  0  0  0  0  0  0  0  0  0  0  0
    6.2730   70.9660   65.7770 O   0  0  0  0  0  0  0  0  0  0  0  0
    5.7330   70.0600   66.3880 C   0  0  0  0  0  0  0  0  0  0  0  0
    4.8230   69.1590   65.9070 N   0  0  0  0  0  0  0  0  0  0  0  0
    5.9360   69.7750   67.6990 O   0  0  0  0  0  0  0  0  0  0  0  0
    6.0520   70.8350   68.6850 C   0  0  0  0  0  0  0  0  0  0  0  0
    5.7180   72.2010   68.0770 C   0  0  0  0  0  0  0  0  0  0  0  0
    7.4320   70.8250   69.3540 C   0  0  0  0  0  0  0  0  0  0  0  0
    4.9920   70.4970   69.7450 C   0  0  0  0  0  0  0  0  0  0  0  0
    0.8290   68.7670   63.1560 C   0  0  0  0  0  0  0  0  0  0  0  0
    0.2120   68.8460   62.0930 O   0  0  0  0  0  0  0  0  0  0  0  0
    0.1590   68.5740   64.3410 N   0  0  0  0  0  0  0  0  0  0  0  0
   -1.2720   68.7290   64.4560 C   0  0  0  0  0  0  0  0  0  0  0  0
   -1.7690   68.7270   65.8960 C   0  0  0  0  0  0  0  0  0  0  0  0
   -0.9460   69.4770   66.9450 C   0  0  0  0  0  0  0  0  0  0  0  0
   -0.3010   68.6430   68.0360 N   0  0  1  0  0  4  0  0  0  0  0  0
   -0.9600   67.2620   68.0420 C   0  0  0  0  0  0  0  0  0  0  0  0
   -0.4880   66.4400   69.2310 C   0  0  0  0  0  0  0  0  0  0  0  0
    1.0240   66.3170   69.2640 C   0  0  0  0  0  0  0  0  0  0  0  0
    1.6740   67.6910   69.2160 C   0  0  0  0  0  0  0  0  0  0  0  0
    1.2150   68.5030   67.9960 C   0  0  2  0  0  0  0  0  0  0  0  0
    1.9300   69.8490   67.9950 C   0  0  0  0  0  0  0  0  0  0  0  0
    2.6070   68.6740   60.8060 O   0  0  0  0  0  0  0  0  0  0  0  0
    6.2005   69.0843   63.5539 H   0  0  0  0  0  0  0  0  0  0  0  0
    5.1684   68.8545   61.2985 H   0  0  0  0  0  0  0  0  0  0  0  0
    2.2844   68.9870   65.3614 H   0  0  0  0  0  0  0  0  0  0  0  0
    4.4677   68.4736   66.5888 H   0  0  0  0  0  0  0  0  0  0  0  0
    5.5403   72.9277   68.8834 H   0  0  0  0  0  0  0  0  0  0  0  0
    6.5594   72.5414   67.4555 H   0  0  0  0  0  0  0  0  0  0  0  0
    4.8145   72.1147   67.4555 H   0  0  0  0  0  0  0  0  0  0  0  0
    7.3095   70.8259   70.4472 H   0  0  0  0  0  0  0  0  0  0  0  0
    7.9816   69.9228   69.0473 H   0  0  0  0  0  0  0  0  0  0  0  0
    7.9946   71.7191   69.0473 H   0  0  0  0  0  0  0  0  0  0  0  0
    5.4206   70.6337   70.7488 H   0  0  0  0  0  0  0  0  0  0  0  0
    4.1254   71.1634   69.6225 H   0  0  0  0  0  0  0  0  0  0  0  0
    4.6711   69.4520   69.6225 H   0  0  0  0  0  0  0  0  0  0  0  0
    0.6979   68.3090   65.1778 H   0  0  0  0  0  0  0  0  0  0  0  0
   -1.5574   69.6838   63.9904 H   0  0  0  0  0  0  0  0  0  0  0  0
   -1.7327   67.8659   63.9532 H   0  0  0  0  0  0  0  0  0  0  0  0
   -2.7762   69.1692   65.8942 H   0  0  0  0  0  0  0  0  0  0  0  0
   -1.7084   67.6728   66.2042 H   0  0  0  0  0  0  0  0  0  0  0  0
   -0.1429   70.0120   66.4170 H   0  0  0  0  0  0  0  0  0  0  0  0
   -1.6670   70.1236   67.4666 H   0  0  0  0  0  0  0  0  0  0  0  0
   -0.4652   69.1660   68.9080 H   0  0  0  0  0  0  0  0  0  0  0  0
   -2.0517   67.3843   68.0995 H   0  0  0  0  0  0  0  0  0  0  0  0
   -0.6802   66.7353   67.1177 H   0  0  0  0  0  0  0  0  0  0  0  0
   -0.8263   66.9268   70.1576 H   0  0  0  0  0  0  0  0  0  0  0  0
   -0.9121   65.4292   69.1389 H   0  0  0  0  0  0  0  0  0  0  0  0
    1.3251   65.8068   70.1909 H   0  0  0  0  0  0  0  0  0  0  0  0
    1.3520   65.7387   68.3876 H   0  0  0  0  0  0  0  0  0  0  0  0
    1.4073   68.2420   70.1299 H   0  0  0  0  0  0  0  0  0  0  0  0
    2.7622   67.5493   69.1396 H   0  0  0  0  0  0  0  0  0  0  0  0
    1.4753   67.9921   67.0573 H   0  0  0  0  0  0  0  0  0  0  0  0
    2.1023   70.1734   69.0319 H   0  0  0  0  0  0  0  0  0  0  0  0
    2.8950   69.7512   67.4762 H   0  0  0  0  0  0  0  0  0  0  0  0
    1.3087   70.5939   67.4762 H   0  0  0  0  0  0  0  0  0  0  0  0
    1.6258   68.6114   60.6902 H   0  0  0  0  0  0  0  0  0  0  0  0
  2  1  2  0
  3  2  1  0
  4  3  2  0
  5  4  1  0
  6  5  2  0
  6  1  1  0
  8  7  2  0
  9  1  1  0
  9  8  1  0
 10  8  1  0
 11 10  1  0
 12 11  1  0
 13 11  1  0
 14 11  1  0
 15  5  1  0
 16 15  2  0
 17 15  1  0
 18 17  1  0
 19 18  1  0
 20 19  1  0
 21 20  1  0
 22 21  1  0
 23 22  1  0
 24 23  1  0
 25 24  1  0
 26 25  1  0
 26 21  1  0
 27 26  1  0
 28  4  1  0
  2 29  1  0
  3 30  1  0
  6 31  1  0
  9 32  1  0
 12 33  1  0
 12 34  1  0
 12 35  1  0
 13 36  1  0
 13 37  1  0
 13 38  1  0
 14 39  1  0
 14 40  1  0
 14 41  1  0
 17 42  1  0
 18 43  1  0
 18 44  1  0
 19 45  1  0
 19 46  1  0
 20 47  1  0
 20 48  1  0
 21 49  1  1
 22 50  1  0
 22 51  1  0
 23 52  1  0
 23 53  1  0
 24 54  1  0
 24 55  1  0
 25 56  1  0
 25 57  1  0
 26 58  1  6
 27 59  1  0
 27 60  1  0
 27 61  1  0
 28 62  1  0
M  CHG  1  21   1
M  END
>  <score>  (1) 
-9.357

$$$$
=
     RDKit          3D

 62 63  0  0  0  0  0  0  0  0999 V2000
   -0.8440   66.9970   68.0520 C   0  0  0  0  0  0  0  0  0  0  0  0
   -2.1230   67.4190   67.6860 C   0  0  0  0  0  0  0  0  0  0  0  0
   -2.3310   68.1000   66.4830 C   0  0  0  0  0  0  0  0  0  0  0  0
   -1.2570   68.3600   65.6310 C   0  0  0  0  0  0  0  0  0  0  0  0
    0.0350   67.9380   65.9740 C   0  0  0  0  0  0  0  0  0  0  0  0
    0.2280   67.2600   67.1910 C   0  0  0  0  0  0  0  0  0  0  0  0
    1.5290   67.1240   69.8580 O   0  0  0  0  0  0  0  0  0  0  0  0
    0.5550   66.4130   70.0350 C   0  0  0  0  0  0  0  0  0  0  0  0
   -0.5610   66.3200   69.2490 N   0  0  0  0  0  0  0  0  0  0  0  0
    0.3910   65.5620   71.0800 O   0  0  0  0  0  0  0  0  0  0  0  0
    0.9680   64.2300   71.0550 C   0  0  0  0  0  0  0  0  0  0  0  0
    2.4030   64.2530   70.5150 C   0  0  0  0  0  0  0  0  0  0  0  0
    0.0790   63.2500   70.2800 C   0  0  0  0  0  0  0  0  0  0  0  0
    1.0060   63.7960   72.5290 C   0  0  0  0  0  0  0  0  0  0  0  0
    1.2430   68.1600   65.1230 C   0  0  0  0  0  0  0  0  0  0  0  0
    1.1970   68.8680   64.1150 O   0  0  0  0  0  0  0  0  0  0  0  0
    2.4250   67.5770   65.5130 N   0  0  0  0  0  0  0  0  0  0  0  0
    3.5830   67.5190   64.6530 C   0  0  0  0  0  0  0  0  0  0  0  0
    4.5680   68.6590   64.8820 C   0  0  0  0  0  0  0  0  0  0  0  0
    4.1870   69.7510   65.8840 C   0  0  0  0  0  0  0  0  0  0  0  0
    5.0450   69.8680   67.1300 N   0  0  1  0  0  4  0  0  0  0  0  0
    6.3900   70.4810   66.7350 C   0  0  0  0  0  0  0  0  0  0  0  0
    7.3640   70.4550   67.9020 C   0  0  0  0  0  0  0  0  0  0  0  0
    6.7920   71.1480   69.1250 C   0  0  0  0  0  0  0  0  0  0  0  0
    5.4370   70.5620   69.4880 C   0  0  0  0  0  0  0  0  0  0  0  0
    4.4500   70.6200   68.3130 C   0  0  2  0  0  0  0  0  0  0  0  0
    3.1090   70.0500   68.7580 C   0  0  0  0  0  0  0  0  0  0  0  0
   -1.4940   69.0330   64.4600 O   0  0  0  0  0  0  0  0  0  0  0  0
   -2.9754   67.2138   68.3504 H   0  0  0  0  0  0  0  0  0  0  0  0
   -3.3431   68.4315   66.2076 H   0  0  0  0  0  0  0  0  0  0  0  0
    1.2394   66.9305   67.4713 H   0  0  0  0  0  0  0  0  0  0  0  0
   -1.2879   65.6688   69.5782 H   0  0  0  0  0  0  0  0  0  0  0  0
    3.1113   64.2644   71.3565 H   0  0  0  0  0  0  0  0  0  0  0  0
    2.5779   63.3575   69.9005 H   0  0  0  0  0  0  0  0  0  0  0  0
    2.5492   65.1536   69.9005 H   0  0  0  0  0  0  0  0  0  0  0  0
   -0.4857   62.6274   70.9896 H   0  0  0  0  0  0  0  0  0  0  0  0
   -0.6227   63.8132   69.6472 H   0  0  0  0  0  0  0  0  0  0  0  0
    0.7077   62.6063   69.6472 H   0  0  0  0  0  0  0  0  0  0  0  0
    0.9283   64.6832   73.1746 H   0  0  0  0  0  0  0  0  0  0  0  0
    0.1637   63.1187   72.7337 H   0  0  0  0  0  0  0  0  0  0  0  0
    1.9532   63.2754   72.7337 H   0  0  0  0  0  0  0  0  0  0  0  0
    2.4869   67.1656   66.4552 H   0  0  0  0  0  0  0  0  0  0  0  0
    4.1038   66.5672   64.8341 H   0  0  0  0  0  0  0  0  0  0  0  0
    3.2218   67.6066   63.6177 H   0  0  0  0  0  0  0  0  0  0  0  0
    5.5106   68.2112   65.2298 H   0  0  0  0  0  0  0  0  0  0  0  0
    4.6133   69.1798   63.9141 H   0  0  0  0  0  0  0  0  0  0  0  0
    4.2321   70.7157   65.3575 H   0  0  0  0  0  0  0  0  0  0  0  0
    3.1880   69.4701   66.2487 H   0  0  0  0  0  0  0  0  0  0  0  0
    5.1357   68.9058   67.4861 H   0  0  0  0  0  0  0  0  0  0  0  0
    6.8153   69.9069   65.8986 H   0  0  0  0  0  0  0  0  0  0  0  0
    6.2250   71.5276   66.4394 H   0  0  0  0  0  0  0  0  0  0  0  0
    7.5873   69.4085   68.1569 H   0  0  0  0  0  0  0  0  0  0  0  0
    8.2764   70.9900   67.5996 H   0  0  0  0  0  0  0  0  0  0  0  0
    7.4818   71.0150   69.9715 H   0  0  0  0  0  0  0  0  0  0  0  0
    6.6669   72.2175   68.9002 H   0  0  0  0  0  0  0  0  0  0  0  0
    5.5728   69.5118   69.7858 H   0  0  0  0  0  0  0  0  0  0  0  0
    5.0190   71.1592   70.3118 H   0  0  0  0  0  0  0  0  0  0  0  0
    4.2745   71.6573   67.9919 H   0  0  0  0  0  0  0  0  0  0  0  0
    3.0650   70.0313   69.8570 H   0  0  0  0  0  0  0  0  0  0  0  0
    2.2955   70.6801   68.3692 H   0  0  0  0  0  0  0  0  0  0  0  0
    2.9982   69.0270   68.3692 H   0  0  0  0  0  0  0  0  0  0  0  0
   -0.7463   69.2279   63.8410 H   0  0  0  0  0  0  0  0  0  0  0  0
  2  1  2  0
  3  2  1  0
  4  3  2  0
  5  4  1  0
  6  5  2  0
  6  1  1  0
  8  7  2  0
  9  1  1  0
  9  8  1  0
 10  8  1  0
 11 10  1  0
 12 11  1  0
 13 11  1  0
 14 11  1  0
 15  5  1  0
 16 15  2  0
 17 15  1  0
 18 17  1  0
 19 18  1  0
 20 19  1  0
 21 20  1  0
 22 21  1  0
 23 22  1  0
 24 23  1  0
 25 24  1  0
 26 25  1  0
 26 21  1  0
 27 26  1  0
 28  4  1  0
  2 29  1  0
  3 30  1  0
  6 31  1  0
  9 32  1  0
 12 33  1  0
 12 34  1  0
 12 35  1  0
 13 36  1  0
 13 37  1  0
 13 38  1  0
 14 39  1  0
 14 40  1  0
 14 41  1  0
 17 42  1  0
 18 43  1  0
 18 44  1  0
 19 45  1  0
 19 46  1  0
 20 47  1  0
 20 48  1  0
 21 49  1  1
 22 50  1  0
 22 51  1  0
 23 52  1  0
 23 53  1  0
 24 54  1  0
 24 55  1  0
 25 56  1  0
 25 57  1  0
 26 58  1  6
 27 59  1  0
 27 60  1  0
 27 61  1  0
 28 62  1  0
M  CHG  1  21   1
M  END
>  <score>  (2) 
-9.339

$$$$
=
     RDKit          3D

 62 63  0  0  0  0  0  0  0  0999 V2000
    0.8620   68.4940   65.8220 C   0  0  0  0  0  0  0  0  0  0  0  0
   -0.4780   68.6350   65.4560 C   0  0  0  0  0  0  0  0  0  0  0  0
   -1.4970   68.1920   66.3030 C   0  0  0  0  0  0  0  0  0  0  0  0
   -1.1840   67.6070   67.5300 C   0  0  0  0  0  0  0  0  0  0  0  0
    0.1540   67.4620   67.9230 C   0  0  0  0  0  0  0  0  0  0  0  0
    1.1680   67.9070   67.0560 C   0  0  0  0  0  0  0  0  0  0  0  0
    1.5860   67.7900   63.0130 O   0  0  0  0  0  0  0  0  0  0  0  0
    2.2240   68.5410   63.7310 C   0  0  0  0  0  0  0  0  0  0  0  0
    1.9370   68.9060   65.0180 N   0  0  0  0  0  0  0  0  0  0  0  0
    3.3670   69.1780   63.3710 O   0  0  0  0  0  0  0  0  0  0  0  0
    4.6670   68.6320   63.7200 C   0  0  0  0  0  0  0  0  0  0  0  0
    4.6120   67.1070   63.8610 C   0  0  0  0  0  0  0  0  0  0  0  0
    5.2370   69.3050   64.9750 C   0  0  0  0  0  0  0  0  0  0  0  0
    5.5680   68.9820   62.5250 C   0  0  0  0  0  0  0  0  0  0  0  0
    0.5870   66.8590   69.2200 C   0  0  0  0  0  0  0  0  0  0  0  0
    1.5900   67.2610   69.8110 O   0  0  0  0  0  0  0  0  0  0  0  0
   -0.1870   65.8580   69.7570 N   0  0  0  0  0  0  0  0  0  0  0  0
    0.2570   65.0440   70.8630 C   0  0  0  0  0  0  0  0  0  0  0  0
    1.0890   63.8400   70.4370 C   0  0  0  0  0  0  0  0  0  0  0  0
    2.5540   63.7840   70.8760 C   0  0  0  0  0  0  0  0  0  0  0  0
    3.2650   62.4520   70.7250 N   0  0  1  0  0  4  0  0  0  0  0  0
    2.6870   61.4760   71.7510 C   0  0  0  0  0  0  0  0  0  0  0  0
    3.4820   60.1800   71.7770 C   0  0  0  0  0  0  0  0  0  0  0  0
    3.5560   59.5400   70.4030 C   0  0  0  0  0  0  0  0  0  0  0  0
    4.0930   60.5280   69.3800 C   0  0  0  0  0  0  0  0  0  0  0  0
    3.2660   61.8220   69.3380 C   0  0  2  0  0  0  0  0  0  0  0  0
    3.8390   62.7460   68.2720 C   0  0  0  0  0  0  0  0  0  0  0  0
   -2.2080   67.1790   68.3360 O   0  0  0  0  0  0  0  0  0  0  0  0
   -0.7337   69.0991   64.4920 H   0  0  0  0  0  0  0  0  0  0  0  0
   -2.5488   68.3048   66.0015 H   0  0  0  0  0  0  0  0  0  0  0  0
    2.2209   67.7918   67.3527 H   0  0  0  0  0  0  0  0  0  0  0  0
    2.5944   69.5686   65.4534 H   0  0  0  0  0  0  0  0  0  0  0  0
    4.6023   66.8375   64.9274 H   0  0  0  0  0  0  0  0  0  0  0  0
    3.6996   66.7268   63.3784 H   0  0  0  0  0  0  0  0  0  0  0  0
    5.4947   66.6621   63.3784 H   0  0  0  0  0  0  0  0  0  0  0  0
    4.8249   68.8184   65.8713 H   0  0  0  0  0  0  0  0  0  0  0  0
    6.3328   69.2092   64.9769 H   0  0  0  0  0  0  0  0  0  0  0  0
    4.9621   70.3701   64.9769 H   0  0  0  0  0  0  0  0  0  0  0  0
    6.5346   69.3575   62.8921 H   0  0  0  0  0  0  0  0  0  0  0  0
    5.7324   68.0823   61.9138 H   0  0  0  0  0  0  0  0  0  0  0  0
    5.0819   69.7567   61.9138 H   0  0  0  0  0  0  0  0  0  0  0  0
   -1.1189   65.6822   69.3550 H   0  0  0  0  0  0  0  0  0  0  0  0
    0.8664   65.6689   71.5325 H   0  0  0  0  0  0  0  0  0  0  0  0
   -0.6438   64.6549   71.3601 H   0  0  0  0  0  0  0  0  0  0  0  0
    0.5938   62.9429   70.8369 H   0  0  0  0  0  0  0  0  0  0  0  0
    1.1347   63.9134   69.3404 H   0  0  0  0  0  0  0  0  0  0  0  0
    3.1077   64.5256   70.2815 H   0  0  0  0  0  0  0  0  0  0  0  0
    2.5369   63.9791   71.9584 H   0  0  0  0  0  0  0  0  0  0  0  0
    4.2609   62.6567   70.8900 H   0  0  0  0  0  0  0  0  0  0  0  0
    2.7217   61.9395   72.7480 H   0  0  0  0  0  0  0  0  0  0  0  0
    1.6489   61.2452   71.4697 H   0  0  0  0  0  0  0  0  0  0  0  0
    4.5029   60.3948   72.1258 H   0  0  0  0  0  0  0  0  0  0  0  0
    2.9734   59.4790   72.4552 H   0  0  0  0  0  0  0  0  0  0  0  0
    4.2232   58.6665   70.4467 H   0  0  0  0  0  0  0  0  0  0  0  0
    2.5443   59.2317   70.1007 H   0  0  0  0  0  0  0  0  0  0  0  0
    5.1318   60.7791   69.6405 H   0  0  0  0  0  0  0  0  0  0  0  0
    4.0337   60.0553   68.3885 H   0  0  0  0  0  0  0  0  0  0  0  0
    2.2199   61.6182   69.0659 H   0  0  0  0  0  0  0  0  0  0  0  0
    4.3596   63.5856   68.7558 H   0  0  0  0  0  0  0  0  0  0  0  0
    4.5490   62.1866   67.6450 H   0  0  0  0  0  0  0  0  0  0  0  0
    3.0224   63.1333   67.6450 H   0  0  0  0  0  0  0  0  0  0  0  0
   -2.0078   66.7611   69.2108 H   0  0  0  0  0  0  0  0  0  0  0  0
  2  1  2  0
  3  2  1  0
  4  3  2  0
  5  4  1  0
  6  5  2  0
  6  1  1  0
  8  7  2  0
  9  1  1  0
  9  8  1  0
 10  8  1  0
 11 10  1  0
 12 11  1  0
 13 11  1  0
 14 11  1  0
 15  5  1  0
 16 15  2  0
 17 15  1  0
 18 17  1  0
 19 18  1  0
 20 19  1  0
 21 20  1  0
 22 21  1  0
 23 22  1  0
 24 23  1  0
 25 24  1  0
 26 25  1  0
 26 21  1  0
 27 26  1  0
 28  4  1  0
  2 29  1  0
  3 30  1  0
  6 31  1  0
  9 32  1  0
 12 33  1  0
 12 34  1  0
 12 35  1  0
 13 36  1  0
 13 37  1  0
 13 38  1  0
 14 39  1  0
 14 40  1  0
 14 41  1  0
 17 42  1  0
 18 43  1  0
 18 44  1  0
 19 45  1  0
 19 46  1  0
 20 47  1  0
 20 48  1  0
 21 49  1  1
 22 50  1  0
 22 51  1  0
 23 52  1  0
 23 53  1  0
 24 54  1  0
 24 55  1  0
 25 56  1  0
 25 57  1  0
 26 58  1  6
 27 59  1  0
 27 60  1  0
 27 61  1  0
 28 62  1  0
M  CHG  1  21   1
M  END
>  <score>  (3) 
-8.977

$$$$
=
     RDKit          3D

 62 63  0  0  0  0  0  0  0  0999 V2000
    0.2370   68.5710   65.1470 C   0  0  0  0  0  0  0  0  0  0  0  0
   -1.0410   69.0370   64.8360 C   0  0  0  0  0  0  0  0  0  0  0  0
   -2.1240   68.7600   65.6750 C   0  0  0  0  0  0  0  0  0  0  0  0
   -1.9360   68.0170   66.8400 C   0  0  0  0  0  0  0  0  0  0  0  0
   -0.6600   67.5460   67.1780 C   0  0  0  0  0  0  0  0  0  0  0  0
    0.4180   67.8260   66.3200 C   0  0  0  0  0  0  0  0  0  0  0  0
    2.1990   66.6720   63.9410 O   0  0  0  0  0  0  0  0  0  0  0  0
    2.2390   67.8850   63.8250 C   0  0  0  0  0  0  0  0  0  0  0  0
    1.3670   68.8000   64.3460 N   0  0  0  0  0  0  0  0  0  0  0  0
    3.1830   68.5700   63.1310 O   0  0  0  0  0  0  0  0  0  0  0  0
    4.5600   68.6200   63.5920 C   0  0  0  0  0  0  0  0  0  0  0  0
    5.1150   67.2140   63.8450 C   0  0  0  0  0  0  0  0  0  0  0  0
    4.7030   69.5250   64.8220 C   0  0  0  0  0  0  0  0  0  0  0  0
    5.3370   69.2520   62.4260 C   0  0  0  0  0  0  0  0  0  0  0  0
   -0.3580   66.7520   68.4080 C   0  0  0  0  0  0  0  0  0  0  0  0
   -1.1750   65.9580   68.8760 O   0  0  0  0  0  0  0  0  0  0  0  0
    0.8770   66.9080   68.9910 N   0  0  0  0  0  0  0  0  0  0  0  0
    1.1870   66.3870   70.3010 C   0  0  0  0  0  0  0  0  0  0  0  0
    1.9610   65.0750   70.2660 C   0  0  0  0  0  0  0  0  0  0  0  0
    1.2020   63.7820   70.5680 C   0  0  0  0  0  0  0  0  0  0  0  0
    1.9330   62.4790   70.3040 N   0  0  1  0  0  4  0  0  0  0  0  0
    3.2230   62.7940   69.5440 C   0  0  0  0  0  0  0  0  0  0  0  0
    3.9100   61.5170   69.0860 C   0  0  0  0  0  0  0  0  0  0  0  0
    4.1830   60.5800   70.2470 C   0  0  0  0  0  0  0  0  0  0  0  0
    2.9050   60.3030   71.0230 C   0  0  0  0  0  0  0  0  0  0  0  0
    2.2330   61.5960   71.5080 C   0  0  2  0  0  0  0  0  0  0  0  0
    0.9830   61.2420   72.3030 C   0  0  0  0  0  0  0  0  0  0  0  0
   -3.0200   67.7600   67.6390 O   0  0  0  0  0  0  0  0  0  0  0  0
   -1.1976   69.6281   63.9216 H   0  0  0  0  0  0  0  0  0  0  0  0
   -3.1273   69.1291   65.4157 H   0  0  0  0  0  0  0  0  0  0  0  0
    1.4214   67.4536   66.5740 H   0  0  0  0  0  0  0  0  0  0  0  0
    1.5648   69.7856   64.1217 H   0  0  0  0  0  0  0  0  0  0  0  0
    5.1849   67.0369   64.9284 H   0  0  0  0  0  0  0  0  0  0  0  0
    4.4438   66.4682   63.3941 H   0  0  0  0  0  0  0  0  0  0  0  0
    6.1146   67.1278   63.3941 H   0  0  0  0  0  0  0  0  0  0  0  0
    4.6074   68.9198   65.7356 H   0  0  0  0  0  0  0  0  0  0  0  0
    5.6892   70.0119   64.8063 H   0  0  0  0  0  0  0  0  0  0  0  0
    3.9150   70.2923   64.8063 H   0  0  0  0  0  0  0  0  0  0  0  0
    6.1327   69.8992   62.8236 H   0  0  0  0  0  0  0  0  0  0  0  0
    5.7839   68.4578   61.8100 H   0  0  0  0  0  0  0  0  0  0  0  0
    4.6505   69.8513   61.8100 H   0  0  0  0  0  0  0  0  0  0  0  0
    1.6087   67.4158   68.4736 H   0  0  0  0  0  0  0  0  0  0  0  0
    1.7907   67.1331   70.8385 H   0  0  0  0  0  0  0  0  0  0  0  0
    0.2296   66.1845   70.8034 H   0  0  0  0  0  0  0  0  0  0  0  0
    2.3883   64.9748   69.2574 H   0  0  0  0  0  0  0  0  0  0  0  0
    2.6872   65.1640   71.0874 H   0  0  0  0  0  0  0  0  0  0  0  0
    0.9273   63.7990   71.6330 H   0  0  0  0  0  0  0  0  0  0  0  0
    0.3511   63.7796   69.8709 H   0  0  0  0  0  0  0  0  0  0  0  0
    1.2758   61.9082   69.7533 H   0  0  0  0  0  0  0  0  0  0  0  0
    2.9815   63.4083   68.6640 H   0  0  0  0  0  0  0  0  0  0  0  0
    3.9033   63.3365   70.2170 H   0  0  0  0  0  0  0  0  0  0  0  0
    3.2625   61.0048   68.3591 H   0  0  0  0  0  0  0  0  0  0  0  0
    4.8738   61.7899   68.6314 H   0  0  0  0  0  0  0  0  0  0  0  0
    4.5835   59.6316   69.8597 H   0  0  0  0  0  0  0  0  0  0  0  0
    4.9117   61.0537   70.9212 H   0  0  0  0  0  0  0  0  0  0  0  0
    2.2039   59.7618   70.3706 H   0  0  0  0  0  0  0  0  0  0  0  0
    3.1684   59.7051   71.9080 H   0  0  0  0  0  0  0  0  0  0  0  0
    2.8973   62.1623   72.1773 H   0  0  0  0  0  0  0  0  0  0  0  0
    1.2029   61.3043   73.3790 H   0  0  0  0  0  0  0  0  0  0  0  0
    0.1769   61.9472   72.0521 H   0  0  0  0  0  0  0  0  0  0  0  0
    0.6664   60.2189   72.0521 H   0  0  0  0  0  0  0  0  0  0  0  0
   -2.9085   67.2344   68.4705 H   0  0  0  0  0  0  0  0  0  0  0  0
  2  1  2  0
  3  2  1  0
  4  3  2  0
  5  4  1  0
  6  5  2  0
  6  1  1  0
  8  7  2  0
  9  1  1  0
  9  8  1  0
 10  8  1  0
 11 10  1  0
 12 11  1  0
 13 11  1  0
 14 11  1  0
 15  5  1  0
 16 15  2  0
 17 15  1  0
 18 17  1  0
 19 18  1  0
 20 19  1  0
 21 20  1  0
 22 21  1  0
 23 22  1  0
 24 23  1  0
 25 24  1  0
 26 25  1  0
 26 21  1  0
 27 26  1  0
 28  4  1  0
  2 29  1  0
  3 30  1  0
  6 31  1  0
  9 32  1  0
 12 33  1  0
 12 34  1  0
 12 35  1  0
 13 36  1  0
 13 37  1  0
 13 38  1  0
 14 39  1  0
 14 40  1  0
 14 41  1  0
 17 42  1  0
 18 43  1  0
 18 44  1  0
 19 45  1  0
 19 46  1  0
 20 47  1  0
 20 48  1  0
 21 49  1  6
 22 50  1  0
 22 51  1  0
 23 52  1  0
 23 53  1  0
 24 54  1  0
 24 55  1  0
 25 56  1  0
 25 57  1  0
 26 58  1  1
 27 59  1  0
 27 60  1  0
 27 61  1  0
 28 62  1  0
M  CHG  1  21   1
M  END
>  <score>  (4) 
-8.804

$$$$
=
     RDKit          3D

 62 63  0  0  0  0  0  0  0  0999 V2000
    3.0390   60.3190   71.4750 C   0  0  0  0  0  0  0  0  0  0  0  0
    3.9710   60.2350   70.4400 C   0  0  0  0  0  0  0  0  0  0  0  0
    3.9920   61.1910   69.4210 C   0  0  0  0  0  0  0  0  0  0  0  0
    3.0800   62.2470   69.4320 C   0  0  0  0  0  0  0  0  0  0  0  0
    2.1400   62.3570   70.4660 C   0  0  0  0  0  0  0  0  0  0  0  0
    2.1270   61.3820   71.4800 C   0  0  0  0  0  0  0  0  0  0  0  0
    2.3600   57.4120   71.4620 O   0  0  0  0  0  0  0  0  0  0  0  0
    2.6270   58.0620   72.4580 C   0  0  0  0  0  0  0  0  0  0  0  0
    2.9520   59.3890   72.5230 N   0  0  0  0  0  0  0  0  0  0  0  0
    2.6570   57.5720   73.7230 O   0  0  0  0  0  0  0  0  0  0  0  0
    1.4440   57.1130   74.3760 C   0  0  0  0  0  0  0  0  0  0  0  0
    0.2010   57.7770   73.7730 C   0  0  0  0  0  0  0  0  0  0  0  0
    1.5200   57.3090   75.8960 C   0  0  0  0  0  0  0  0  0  0  0  0
    1.3890   55.6070   74.0790 C   0  0  0  0  0  0  0  0  0  0  0  0
    1.1320   63.4550   70.5690 C   0  0  0  0  0  0  0  0  0  0  0  0
    0.0060   63.2520   71.0270 O   0  0  0  0  0  0  0  0  0  0  0  0
    1.5060   64.7160   70.1680 N   0  0  0  0  0  0  0  0  0  0  0  0
    0.5550   65.7880   69.9940 C   0  0  0  0  0  0  0  0  0  0  0  0
    1.1930   67.1020   69.5580 C   0  0  0  0  0  0  0  0  0  0  0  0
    0.7680   67.6990   68.2150 C   0  0  0  0  0  0  0  0  0  0  0  0
    1.8620   67.9310   67.1900 N   0  0  1  0  0  4  0  0  0  0  0  0
    1.3500   67.4680   65.8240 C   0  0  0  0  0  0  0  0  0  0  0  0
    2.4620   67.5010   64.7870 C   0  0  0  0  0  0  0  0  0  0  0  0
    3.0980   68.8750   64.6890 C   0  0  0  0  0  0  0  0  0  0  0  0
    3.5670   69.3460   66.0570 C   0  0  0  0  0  0  0  0  0  0  0  0
    2.4310   69.3400   67.0900 C   0  0  2  0  0  0  0  0  0  0  0  0
    2.9640   69.8540   68.4210 C   0  0  0  0  0  0  0  0  0  0  0  0
    3.1240   63.1660   68.4150 O   0  0  0  0  0  0  0  0  0  0  0  0
    4.6963   59.4081   70.4260 H   0  0  0  0  0  0  0  0  0  0  0  0
    4.7291   61.1109   68.6084 H   0  0  0  0  0  0  0  0  0  0  0  0
    1.3876   61.4558   72.2911 H   0  0  0  0  0  0  0  0  0  0  0  0
    3.1601   59.7535   73.4636 H   0  0  0  0  0  0  0  0  0  0  0  0
   -0.4562   58.1281   74.5822 H   0  0  0  0  0  0  0  0  0  0  0  0
    0.5068   58.6319   73.1520 H   0  0  0  0  0  0  0  0  0  0  0  0
   -0.3396   57.0475   73.1520 H   0  0  0  0  0  0  0  0  0  0  0  0
    1.1668   56.3980   76.4013 H   0  0  0  0  0  0  0  0  0  0  0  0
    2.5613   57.5100   76.1882 H   0  0  0  0  0  0  0  0  0  0  0  0
    0.8865   58.1595   76.1882 H   0  0  0  0  0  0  0  0  0  0  0  0
    1.3686   55.0471   75.0256 H   0  0  0  0  0  0  0  0  0  0  0  0
    0.4820   55.3805   73.4993 H   0  0  0  0  0  0  0  0  0  0  0  0
    2.2771   55.3149   73.4993 H   0  0  0  0  0  0  0  0  0  0  0  0
    2.5022   64.9027   69.9849 H   0  0  0  0  0  0  0  0  0  0  0  0
   -0.1753   65.4849   69.2292 H   0  0  0  0  0  0  0  0  0  0  0  0
    0.0850   65.9655   70.9725 H   0  0  0  0  0  0  0  0  0  0  0  0
    0.9662   67.8483   70.3336 H   0  0  0  0  0  0  0  0  0  0  0  0
    2.2573   66.8582   69.4244 H   0  0  0  0  0  0  0  0  0  0  0  0
    0.0314   67.0164   67.7661 H   0  0  0  0  0  0  0  0  0  0  0  0
    0.3833   68.7011   68.4556 H   0  0  0  0  0  0  0  0  0  0  0  0
    2.6648   67.3780   67.5225 H   0  0  0  0  0  0  0  0  0  0  0  0
    0.9700   66.4395   65.9117 H   0  0  0  0  0  0  0  0  0  0  0  0
    0.5481   68.1481   65.5007 H   0  0  0  0  0  0  0  0  0  0  0  0
    3.2342   66.7701   65.0691 H   0  0  0  0  0  0  0  0  0  0  0  0
    2.0250   67.2550   63.8080 H   0  0  0  0  0  0  0  0  0  0  0  0
    3.9605   68.8265   64.0080 H   0  0  0  0  0  0  0  0  0  0  0  0
    2.3506   69.5855   64.3061 H   0  0  0  0  0  0  0  0  0  0  0  0
    4.3681   68.6782   66.4067 H   0  0  0  0  0  0  0  0  0  0  0  0
    3.9265   70.3805   65.9545 H   0  0  0  0  0  0  0  0  0  0  0  0
    1.6119   70.0078   66.7849 H   0  0  0  0  0  0  0  0  0  0  0  0
    2.4399   69.3486   69.2456 H   0  0  0  0  0  0  0  0  0  0  0  0
    4.0420   69.6458   68.4893 H   0  0  0  0  0  0  0  0  0  0  0  0
    2.7950   70.9388   68.4893 H   0  0  0  0  0  0  0  0  0  0  0  0
    2.4859   63.9229   68.4038 H   0  0  0  0  0  0  0  0  0  0  0  0
  2  1  2  0
  3  2  1  0
  4  3  2  0
  5  4  1  0
  6  5  2  0
  6  1  1  0
  8  7  2  0
  9  1  1  0
  9  8  1  0
 10  8  1  0
 11 10  1  0
 12 11  1  0
 13 11  1  0
 14 11  1  0
 15  5  1  0
 16 15  2  0
 17 15  1  0
 18 17  1  0
 19 18  1  0
 20 19  1  0
 21 20  1  0
 22 21  1  0
 23 22  1  0
 24 23  1  0
 25 24  1  0
 26 25  1  0
 26 21  1  0
 27 26  1  0
 28  4  1  0
  2 29  1  0
  3 30  1  0
  6 31  1  0
  9 32  1  0
 12 33  1  0
 12 34  1  0
 12 35  1  0
 13 36  1  0
 13 37  1  0
 13 38  1  0
 14 39  1  0
 14 40  1  0
 14 41  1  0
 17 42  1  0
 18 43  1  0
 18 44  1  0
 19 45  1  0
 19 46  1  0
 20 47  1  0
 20 48  1  0
 21 49  1  1
 22 50  1  0
 22 51  1  0
 23 52  1  0
 23 53  1  0
 24 54  1  0
 24 55  1  0
 25 56  1  0
 25 57  1  0
 26 58  1  6
 27 59  1  0
 27 60  1  0
 27 61  1  0
 28 62  1  0
M  CHG  1  21   1
M  END
>  <score>  (5) 
-8.461

$$$$
=
     RDKit          3D

 62 63  0  0  0  0  0  0  0  0999 V2000
    2.4220   61.1920   71.7870 C   0  0  0  0  0  0  0  0  0  0  0  0
    3.2380   60.7730   70.7360 C   0  0  0  0  0  0  0  0  0  0  0  0
    3.4480   61.5950   69.6260 C   0  0  0  0  0  0  0  0  0  0  0  0
    2.8450   62.8520   69.5600 C   0  0  0  0  0  0  0  0  0  0  0  0
    2.0270   63.2980   70.6080 C   0  0  0  0  0  0  0  0  0  0  0  0
    1.8200   62.4550   71.7140 C   0  0  0  0  0  0  0  0  0  0  0  0
   -0.1440   60.1190   72.8720 O   0  0  0  0  0  0  0  0  0  0  0  0
    0.9520   59.9560   73.3810 C   0  0  0  0  0  0  0  0  0  0  0  0
    2.1570   60.4150   72.9260 N   0  0  0  0  0  0  0  0  0  0  0  0
    1.1840   59.2620   74.5240 O   0  0  0  0  0  0  0  0  0  0  0  0
    1.4900   57.8430   74.4880 C   0  0  0  0  0  0  0  0  0  0  0  0
    2.8210   57.5410   75.1840 C   0  0  0  0  0  0  0  0  0  0  0  0
    1.4550   57.3020   73.0530 C   0  0  0  0  0  0  0  0  0  0  0  0
    0.3570   57.1810   75.2880 C   0  0  0  0  0  0  0  0  0  0  0  0
    1.3480   64.6280   70.6320 C   0  0  0  0  0  0  0  0  0  0  0  0
    0.4470   64.8740   71.4370 O   0  0  0  0  0  0  0  0  0  0  0  0
    1.7780   65.5900   69.7500 N   0  0  0  0  0  0  0  0  0  0  0  0
    1.0450   66.8120   69.5170 C   0  0  0  0  0  0  0  0  0  0  0  0
    1.2110   67.3620   68.1060 C   0  0  0  0  0  0  0  0  0  0  0  0
    1.1320   68.8770   67.9070 C   0  0  0  0  0  0  0  0  0  0  0  0
    2.4250   69.5930   67.5630 N   0  0  1  0  0  4  0  0  0  0  0  0
    3.2160   69.8090   68.8540 C   0  0  0  0  0  0  0  0  0  0  0  0
    4.4350   70.6840   68.6060 C   0  0  0  0  0  0  0  0  0  0  0  0
    5.3230   70.1120   67.5160 C   0  0  0  0  0  0  0  0  0  0  0  0
    4.5210   69.8610   66.2490 C   0  0  0  0  0  0  0  0  0  0  0  0
    3.3100   68.9520   66.5030 C   0  0  2  0  0  0  0  0  0  0  0  0
    2.5770   68.7180   65.1880 C   0  0  0  0  0  0  0  0  0  0  0  0
    3.0680   63.6320   68.4550 O   0  0  0  0  0  0  0  0  0  0  0  0
    3.7208   59.7857   70.7817 H   0  0  0  0  0  0  0  0  0  0  0  0
    4.0902   61.2507   68.8020 H   0  0  0  0  0  0  0  0  0  0  0  0
    1.1735   62.7933   72.5372 H   0  0  0  0  0  0  0  0  0  0  0  0
    2.9774   60.1571   73.4929 H   0  0  0  0  0  0  0  0  0  0  0  0
    2.6801   57.5730   76.2745 H   0  0  0  0  0  0  0  0  0  0  0  0
    3.1705   56.5407   74.8886 H   0  0  0  0  0  0  0  0  0  0  0  0
    3.5680   58.2925   74.8886 H   0  0  0  0  0  0  0  0  0  0  0  0
    1.3840   56.2045   73.0765 H   0  0  0  0  0  0  0  0  0  0  0  0
    0.5817   57.7147   72.5267 H   0  0  0  0  0  0  0  0  0  0  0  0
    2.3742   57.5988   72.5267 H   0  0  0  0  0  0  0  0  0  0  0  0
    0.5528   57.2954   76.3644 H   0  0  0  0  0  0  0  0  0  0  0  0
   -0.5995   57.6624   75.0361 H   0  0  0  0  0  0  0  0  0  0  0  0
    0.3067   56.1114   75.0361 H   0  0  0  0  0  0  0  0  0  0  0  0
    2.6565   65.4334   69.2356 H   0  0  0  0  0  0  0  0  0  0  0  0
   -0.0233   66.6154   69.6904 H   0  0  0  0  0  0  0  0  0  0  0  0
    1.4483   67.5673   70.2076 H   0  0  0  0  0  0  0  0  0  0  0  0
    2.1969   67.0362   67.7428 H   0  0  0  0  0  0  0  0  0  0  0  0
    0.3430   66.9691   67.5563 H   0  0  0  0  0  0  0  0  0  0  0  0
    0.4192   69.0682   67.0913 H   0  0  0  0  0  0  0  0  0  0  0  0
    0.8333   69.2795   68.8862 H   0  0  0  0  0  0  0  0  0  0  0  0
    2.1349   70.4776   67.1222 H   0  0  0  0  0  0  0  0  0  0  0  0
    2.5673   70.2976   69.5959 H   0  0  0  0  0  0  0  0  0  0  0  0
    3.5562   68.8308   69.2246 H   0  0  0  0  0  0  0  0  0  0  0  0
    4.0987   71.6864   68.3027 H   0  0  0  0  0  0  0  0  0  0  0  0
    5.0198   70.7298   69.5365 H   0  0  0  0  0  0  0  0  0  0  0  0
    6.1313   70.8252   67.2968 H   0  0  0  0  0  0  0  0  0  0  0  0
    5.7424   69.1569   67.8652 H   0  0  0  0  0  0  0  0  0  0  0  0
    4.1648   70.8254   65.8577 H   0  0  0  0  0  0  0  0  0  0  0  0
    5.1785   69.3556   65.5263 H   0  0  0  0  0  0  0  0  0  0  0  0
    3.6232   67.9685   66.8832 H   0  0  0  0  0  0  0  0  0  0  0  0
    1.5479   68.3895   65.3953 H   0  0  0  0  0  0  0  0  0  0  0  0
    2.5538   69.6534   64.6096 H   0  0  0  0  0  0  0  0  0  0  0  0
    3.1001   67.9422   64.6096 H   0  0  0  0  0  0  0  0  0  0  0  0
    2.6498   64.5269   68.3882 H   0  0  0  0  0  0  0  0  0  0  0  0
  2  1  2  0
  3  2  1  0
  4  3  2  0
  5  4  1  0
  6  5  2  0
  6  1  1  0
  8  7  2  0
  9  1  1  0
  9  8  1  0
 10  8  1  0
 11 10  1  0
 12 11  1  0
 13 11  1  0
 14 11  1  0
 15  5  1  0
 16 15  2  0
 17 15  1  0
 18 17  1  0
 19 18  1  0
 20 19  1  0
 21 20  1  0
 22 21  1  0
 23 22  1  0
 24 23  1  0
 25 24  1  0
 26 25  1  0
 26 21  1  0
 27 26  1  0
 28  4  1  0
  2 29  1  0
  3 30  1  0
  6 31  1  0
  9 32  1  0
 12 33  1  0
 12 34  1  0
 12 35  1  0
 13 36  1  0
 13 37  1  0
 13 38  1  0
 14 39  1  0
 14 40  1  0
 14 41  1  0
 17 42  1  0
 18 43  1  0
 18 44  1  0
 19 45  1  0
 19 46  1  0
 20 47  1  0
 20 48  1  0
 21 49  1  6
 22 50  1  0
 22 51  1  0
 23 52  1  0
 23 53  1  0
 24 54  1  0
 24 55  1  0
 25 56  1  0
 25 57  1  0
 26 58  1  1
 27 59  1  0
 27 60  1  0
 27 61  1  0
 28 62  1  0
M  CHG  1  21   1
M  END
>  <score>  (6) 
-8.109

$$$$
=
     RDKit          3D

 62 63  0  0  0  0  0  0  0  0999 V2000
    3.7400   69.5100   65.7980 C   0  0  0  0  0  0  0  0  0  0  0  0
    4.5880   70.1510   66.7010 C   0  0  0  0  0  0  0  0  0  0  0  0
    4.2850   70.1800   68.0650 C   0  0  0  0  0  0  0  0  0  0  0  0
    3.1290   69.5590   68.5400 C   0  0  0  0  0  0  0  0  0  0  0  0
    2.2670   68.9010   67.6520 C   0  0  0  0  0  0  0  0  0  0  0  0
    2.5820   68.8870   66.2810 C   0  0  0  0  0  0  0  0  0  0  0  0
    6.0080   68.3450   64.2450 O   0  0  0  0  0  0  0  0  0  0  0  0
    5.0430   68.9090   63.7560 C   0  0  0  0  0  0  0  0  0  0  0  0
    3.9750   69.4520   64.4150 N   0  0  0  0  0  0  0  0  0  0  0  0
    4.8440   69.1000   62.4270 O   0  0  0  0  0  0  0  0  0  0  0  0
    3.7880   68.3960   61.7210 C   0  0  0  0  0  0  0  0  0  0  0  0
    3.7460   68.7940   60.2410 C   0  0  0  0  0  0  0  0  0  0  0  0
    2.4310   68.5920   62.4080 C   0  0  0  0  0  0  0  0  0  0  0  0
    4.1770   66.9130   61.8200 C   0  0  0  0  0  0  0  0  0  0  0  0
    1.0130   68.1990   68.0660 C   0  0  0  0  0  0  0  0  0  0  0  0
   -0.0970   68.6290   67.7480 O   0  0  0  0  0  0  0  0  0  0  0  0
    1.1320   67.0360   68.7880 N   0  0  0  0  0  0  0  0  0  0  0  0
    0.0070   66.4120   69.4430 C   0  0  0  0  0  0  0  0  0  0  0  0
    0.4090   65.3970   70.5060 C   0  0  0  0  0  0  0  0  0  0  0  0
    1.8590   64.9080   70.5250 C   0  0  0  0  0  0  0  0  0  0  0  0
    2.0790   63.4090   70.4560 N   0  0  1  0  0  4  0  0  0  0  0  0
    3.1170   63.1210   69.3700 C   0  0  0  0  0  0  0  0  0  0  0  0
    3.2460   61.6260   69.1230 C   0  0  0  0  0  0  0  0  0  0  0  0
    3.5770   60.8740   70.3980 C   0  0  0  0  0  0  0  0  0  0  0  0
    2.5650   61.1950   71.4870 C   0  0  0  0  0  0  0  0  0  0  0  0
    2.4620   62.7050   71.7510 C   0  0  2  0  0  0  0  0  0  0  0  0
    1.4600   62.9490   72.8720 C   0  0  0  0  0  0  0  0  0  0  0  0
    2.8590   69.6080   69.8830 O   0  0  0  0  0  0  0  0  0  0  0  0
    5.5041   70.6384   66.3360 H   0  0  0  0  0  0  0  0  0  0  0  0
    4.9594   70.6936   68.7660 H   0  0  0  0  0  0  0  0  0  0  0  0
    1.9077   68.3783   65.5764 H   0  0  0  0  0  0  0  0  0  0  0  0
    3.2482   69.8734   63.8191 H   0  0  0  0  0  0  0  0  0  0  0  0
    3.6309   69.8848   60.1578 H   0  0  0  0  0  0  0  0  0  0  0  0
    4.6817   68.4856   59.7517 H   0  0  0  0  0  0  0  0  0  0  0  0
    2.8953   68.2971   59.7517 H   0  0  0  0  0  0  0  0  0  0  0  0
    2.5664   68.5724   63.4995 H   0  0  0  0  0  0  0  0  0  0  0  0
    2.0050   69.5610   62.1087 H   0  0  0  0  0  0  0  0  0  0  0  0
    1.7482   67.7831   62.1087 H   0  0  0  0  0  0  0  0  0  0  0  0
    4.2529   66.6237   62.8786 H   0  0  0  0  0  0  0  0  0  0  0  0
    3.4096   66.2989   61.3262 H   0  0  0  0  0  0  0  0  0  0  0  0
    5.1471   66.7546   61.3262 H   0  0  0  0  0  0  0  0  0  0  0  0
    2.0586   66.5928   68.8648 H   0  0  0  0  0  0  0  0  0  0  0  0
   -0.5965   67.1972   69.9218 H   0  0  0  0  0  0  0  0  0  0  0  0
   -0.5552   65.8664   68.6708 H   0  0  0  0  0  0  0  0  0  0  0  0
    0.2053   65.8528   71.4862 H   0  0  0  0  0  0  0  0  0  0  0  0
   -0.1789   64.4996   70.2632 H   0  0  0  0  0  0  0  0  0  0  0  0
    2.3731   65.3592   69.6636 H   0  0  0  0  0  0  0  0  0  0  0  0
    2.2505   65.2102   71.5076 H   0  0  0  0  0  0  0  0  0  0  0  0
    1.1545   63.0111   70.2371 H   0  0  0  0  0  0  0  0  0  0  0  0
    2.8078   63.6145   68.4368 H   0  0  0  0  0  0  0  0  0  0  0  0
    4.0913   63.5065   69.7050 H   0  0  0  0  0  0  0  0  0  0  0  0
    2.2941   61.2473   68.7225 H   0  0  0  0  0  0  0  0  0  0  0  0
    4.0659   61.4658   68.4074 H   0  0  0  0  0  0  0  0  0  0  0  0
    3.5591   59.7930   70.1951 H   0  0  0  0  0  0  0  0  0  0  0  0
    4.5762   61.1803   70.7411 H   0  0  0  0  0  0  0  0  0  0  0  0
    1.5784   60.8208   71.1762 H   0  0  0  0  0  0  0  0  0  0  0  0
    2.9004   60.7101   72.4157 H   0  0  0  0  0  0  0  0  0  0  0  0
    3.4273   63.1180   72.0790 H   0  0  0  0  0  0  0  0  0  0  0  0
    1.9604   62.8272   73.8440 H   0  0  0  0  0  0  0  0  0  0  0  0
    1.0605   63.9707   72.7908 H   0  0  0  0  0  0  0  0  0  0  0  0
    0.6355   62.2254   72.7908 H   0  0  0  0  0  0  0  0  0  0  0  0
    2.0442   69.1738   70.2403 H   0  0  0  0  0  0  0  0  0  0  0  0
  2  1  2  0
  3  2  1  0
  4  3  2  0
  5  4  1  0
  6  5  2  0
  6  1  1  0
  8  7  2  0
  9  1  1  0
  9  8  1  0
 10  8  1  0
 11 10  1  0
 12 11  1  0
 13 11  1  0
 14 11  1  0
 15  5  1  0
 16 15  2  0
 17 15  1  0
 18 17  1  0
 19 18  1  0
 20 19  1  0
 21 20  1  0
 22 21  1  0
 23 22  1  0
 24 23  1  0
 25 24  1  0
 26 25  1  0
 26 21  1  0
 27 26  1  0
 28  4  1  0
  2 29  1  0
  3 30  1  0
  6 31  1  0
  9 32  1  0
 12 33  1  0
 12 34  1  0
 12 35  1  0
 13 36  1  0
 13 37  1  0
 13 38  1  0
 14 39  1  0
 14 40  1  0
 14 41  1  0
 17 42  1  0
 18 43  1  0
 18 44  1  0
 19 45  1  0
 19 46  1  0
 20 47  1  0
 20 48  1  0
 21 49  1  6
 22 50  1  0
 22 51  1  0
 23 52  1  0
 23 53  1  0
 24 54  1  0
 24 55  1  0
 25 56  1  0
 25 57  1  0
 26 58  1  1
 27 59  1  0
 27 60  1  0
 27 61  1  0
 28 62  1  0
M  CHG  1  21   1
M  END
>  <score>  (7) 
-8.053

$$$$
=
     RDKit          3D

 62 63  0  0  0  0  0  0  0  0999 V2000
    2.9220   60.2570   71.6410 C   0  0  0  0  0  0  0  0  0  0  0  0
    3.9390   60.1880   70.6880 C   0  0  0  0  0  0  0  0  0  0  0  0
    4.0200   61.1360   69.6640 C   0  0  0  0  0  0  0  0  0  0  0  0
    3.0840   62.1670   69.5870 C   0  0  0  0  0  0  0  0  0  0  0  0
    2.0580   62.2610   70.5380 C   0  0  0  0  0  0  0  0  0  0  0  0
    1.9860   61.2960   71.5580 C   0  0  0  0  0  0  0  0  0  0  0  0
    2.2870   57.3400   71.6060 O   0  0  0  0  0  0  0  0  0  0  0  0
    2.4710   58.0020   72.6120 C   0  0  0  0  0  0  0  0  0  0  0  0
    2.7720   59.3340   72.6890 N   0  0  0  0  0  0  0  0  0  0  0  0
    2.4160   57.5230   73.8810 O   0  0  0  0  0  0  0  0  0  0  0  0
    1.1870   56.9630   74.4150 C   0  0  0  0  0  0  0  0  0  0  0  0
    1.0610   55.4730   74.0790 C   0  0  0  0  0  0  0  0  0  0  0  0
   -0.0370   57.7620   73.9520 C   0  0  0  0  0  0  0  0  0  0  0  0
    1.3220   57.1130   75.9380 C   0  0  0  0  0  0  0  0  0  0  0  0
    1.0170   63.3330   70.5450 C   0  0  0  0  0  0  0  0  0  0  0  0
   -0.0200   63.2250   69.8890 O   0  0  0  0  0  0  0  0  0  0  0  0
    1.2330   64.4390   71.3330 N   0  0  0  0  0  0  0  0  0  0  0  0
    0.4260   65.6310   71.2330 C   0  0  0  0  0  0  0  0  0  0  0  0
    0.7140   66.4570   69.9850 C   0  0  0  0  0  0  0  0  0  0  0  0
   -0.4000   66.6050   68.9460 C   0  0  0  0  0  0  0  0  0  0  0  0
   -0.1790   67.6240   67.8430 N   0  0  1  0  0  4  0  0  0  0  0  0
    1.2720   67.5160   67.3690 C   0  0  0  0  0  0  0  0  0  0  0  0
    1.6100   68.6330   66.3950 C   0  0  0  0  0  0  0  0  0  0  0  0
    0.6570   68.6570   65.2150 C   0  0  0  0  0  0  0  0  0  0  0  0
   -0.7850   68.7230   65.6940 C   0  0  0  0  0  0  0  0  0  0  0  0
   -1.1280   67.5740   66.6530 C   0  0  2  0  0  0  0  0  0  0  0  0
   -2.5910   67.6840   67.0630 C   0  0  0  0  0  0  0  0  0  0  0  0
    3.1890   63.0780   68.5680 O   0  0  0  0  0  0  0  0  0  0  0  0
    4.6837   59.3803   70.7431 H   0  0  0  0  0  0  0  0  0  0  0  0
    4.8244   61.0686   68.9167 H   0  0  0  0  0  0  0  0  0  0  0  0
    1.1802   61.3580   72.3043 H   0  0  0  0  0  0  0  0  0  0  0  0
    2.9061   59.7089   73.6389 H   0  0  0  0  0  0  0  0  0  0  0  0
    1.0117   54.8900   75.0105 H   0  0  0  0  0  0  0  0  0  0  0  0
    0.1455   55.3055   73.4927 H   0  0  0  0  0  0  0  0  0  0  0  0
    1.9354   55.1541   73.4927 H   0  0  0  0  0  0  0  0  0  0  0  0
   -0.5919   58.1243   74.8300 H   0  0  0  0  0  0  0  0  0  0  0  0
    0.2924   58.6196   73.3469 H   0  0  0  0  0  0  0  0  0  0  0  0
   -0.6895   57.1154   73.3469 H   0  0  0  0  0  0  0  0  0  0  0  0
    0.6665   56.3846   76.4377 H   0  0  0  0  0  0  0  0  0  0  0  0
    2.3657   56.9301   76.2334 H   0  0  0  0  0  0  0  0  0  0  0  0
    1.0305   58.1317   76.2334 H   0  0  0  0  0  0  0  0  0  0  0  0
    1.9996   64.4157   72.0205 H   0  0  0  0  0  0  0  0  0  0  0  0
   -0.6331   65.3342   71.2174 H   0  0  0  0  0  0  0  0  0  0  0  0
    0.6699   66.2607   72.1013 H   0  0  0  0  0  0  0  0  0  0  0  0
    0.9860   67.4692   70.3188 H   0  0  0  0  0  0  0  0  0  0  0  0
    1.5034   65.8971   69.4622 H   0  0  0  0  0  0  0  0  0  0  0  0
   -0.5418   65.6241   68.4688 H   0  0  0  0  0  0  0  0  0  0  0  0
   -1.2697   66.9753   69.5086 H   0  0  0  0  0  0  0  0  0  0  0  0
   -0.3903   68.5362   68.2721 H   0  0  0  0  0  0  0  0  0  0  0  0
    1.9410   67.5828   68.2396 H   0  0  0  0  0  0  0  0  0  0  0  0
    1.4030   66.5516   66.8563 H   0  0  0  0  0  0  0  0  0  0  0  0
    1.5485   69.5964   66.9224 H   0  0  0  0  0  0  0  0  0  0  0  0
    2.6259   68.4573   66.0114 H   0  0  0  0  0  0  0  0  0  0  0  0
    0.8725   69.5389   64.5939 H   0  0  0  0  0  0  0  0  0  0  0  0
    0.7946   67.7365   64.6287 H   0  0  0  0  0  0  0  0  0  0  0  0
   -0.9423   69.6789   66.2151 H   0  0  0  0  0  0  0  0  0  0  0  0
   -1.4388   68.6362   64.8136 H   0  0  0  0  0  0  0  0  0  0  0  0
   -0.9976   66.5967   66.1652 H   0  0  0  0  0  0  0  0  0  0  0  0
   -2.6648   67.6895   68.1605 H   0  0  0  0  0  0  0  0  0  0  0  0
   -3.0150   68.6166   66.6623 H   0  0  0  0  0  0  0  0  0  0  0  0
   -3.1497   66.8253   66.6623 H   0  0  0  0  0  0  0  0  0  0  0  0
    2.5346   63.8173   68.4956 H   0  0  0  0  0  0  0  0  0  0  0  0
  2  1  2  0
  3  2  1  0
  4  3  2  0
  5  4  1  0
  6  5  2  0
  6  1  1  0
  8  7  2  0
  9  1  1  0
  9  8  1  0
 10  8  1  0
 11 10  1  0
 12 11  1  0
 13 11  1  0
 14 11  1  0
 15  5  1  0
 16 15  2  0
 17 15  1  0
 18 17  1  0
 19 18  1  0
 20 19  1  0
 21 20  1  0
 22 21  1  0
 23 22  1  0
 24 23  1  0
 25 24  1  0
 26 25  1  0
 26 21  1  0
 27 26  1  0
 28  4  1  0
  2 29  1  0
  3 30  1  0
  6 31  1  0
  9 32  1  0
 12 33  1  0
 12 34  1  0
 12 35  1  0
 13 36  1  0
 13 37  1  0
 13 38  1  0
 14 39  1  0
 14 40  1  0
 14 41  1  0
 17 42  1  0
 18 43  1  0
 18 44  1  0
 19 45  1  0
 19 46  1  0
 20 47  1  0
 20 48  1  0
 21 49  1  1
 22 50  1  0
 22 51  1  0
 23 52  1  0
 23 53  1  0
 24 54  1  0
 24 55  1  0
 25 56  1  0
 25 57  1  0
 26 58  1  6
 27 59  1  0
 27 60  1  0
 27 61  1  0
 28 62  1  0
M  CHG  1  21   1
M  END
>  <score>  (8) 
-8.024

$$$$
=
     RDKit          3D

 62 63  0  0  0  0  0  0  0  0999 V2000
    2.2780   69.0500   68.2030 C   0  0  0  0  0  0  0  0  0  0  0  0
    2.1330   68.1420   69.2520 C   0  0  0  0  0  0  0  0  0  0  0  0
    1.0410   67.2700   69.2940 C   0  0  0  0  0  0  0  0  0  0  0  0
    0.0850   67.2960   68.2780 C   0  0  0  0  0  0  0  0  0  0  0  0
    0.2150   68.1940   67.2090 C   0  0  0  0  0  0  0  0  0  0  0  0
    1.3150   69.0690   67.1860 C   0  0  0  0  0  0  0  0  0  0  0  0
    3.3840   70.9930   70.1810 O   0  0  0  0  0  0  0  0  0  0  0  0
    3.8020   70.8380   69.0460 C   0  0  0  0  0  0  0  0  0  0  0  0
    3.3420   69.9610   68.1020 N   0  0  0  0  0  0  0  0  0  0  0  0
    4.8350   71.5250   68.4960 O   0  0  0  0  0  0  0  0  0  0  0  0
    6.1650   70.9460   68.4270 C   0  0  0  0  0  0  0  0  0  0  0  0
    6.2550   69.8860   67.3230 C   0  0  0  0  0  0  0  0  0  0  0  0
    6.6050   70.3950   69.7890 C   0  0  0  0  0  0  0  0  0  0  0  0
    7.0820   72.1210   68.0540 C   0  0  0  0  0  0  0  0  0  0  0  0
   -0.7500   68.2880   66.0720 C   0  0  0  0  0  0  0  0  0  0  0  0
   -1.8420   67.7180   66.1080 O   0  0  0  0  0  0  0  0  0  0  0  0
   -0.4000   69.0590   64.9890 N   0  0  0  0  0  0  0  0  0  0  0  0
   -1.1330   69.0280   63.7460 C   0  0  0  0  0  0  0  0  0  0  0  0
   -0.2400   69.0830   62.5120 C   0  0  0  0  0  0  0  0  0  0  0  0
    0.9330   68.1040   62.4260 C   0  0  0  0  0  0  0  0  0  0  0  0
    2.2960   68.6270   62.8380 N   0  0  1  0  0  4  0  0  0  0  0  0
    2.6660   68.0040   64.1850 C   0  0  0  0  0  0  0  0  0  0  0  0
    3.9350   68.6280   64.7430 C   0  0  0  0  0  0  0  0  0  0  0  0
    5.0890   68.5230   63.7630 C   0  0  0  0  0  0  0  0  0  0  0  0
    4.7010   69.1080   62.4140 C   0  0  0  0  0  0  0  0  0  0  0  0
    3.4360   68.4510   61.8440 C   0  0  2  0  0  0  0  0  0  0  0  0
    3.1280   69.0590   60.4820 C   0  0  0  0  0  0  0  0  0  0  0  0
   -0.9760   66.4310   68.3500 O   0  0  0  0  0  0  0  0  0  0  0  0
    2.8852   68.1118   70.0540 H   0  0  0  0  0  0  0  0  0  0  0  0
    0.9353   66.5622   70.1294 H   0  0  0  0  0  0  0  0  0  0  0  0
    1.4214   69.7813   66.3545 H   0  0  0  0  0  0  0  0  0  0  0  0
    3.8405   69.9701   67.2007 H   0  0  0  0  0  0  0  0  0  0  0  0
    6.3397   68.8884   67.7786 H   0  0  0  0  0  0  0  0  0  0  0  0
    5.3500   69.9286   66.6992 H   0  0  0  0  0  0  0  0  0  0  0  0
    7.1399   70.0805   66.6992 H   0  0  0  0  0  0  0  0  0  0  0  0
    6.1355   70.9830   70.5914 H   0  0  0  0  0  0  0  0  0  0  0  0
    6.2957   69.3430   69.8762 H   0  0  0  0  0  0  0  0  0  0  0  0
    7.6994   70.4639   69.8762 H   0  0  0  0  0  0  0  0  0  0  0  0
    7.4557   72.5999   68.9711 H   0  0  0  0  0  0  0  0  0  0  0  0
    7.9314   71.7496   67.4620 H   0  0  0  0  0  0  0  0  0  0  0  0
    6.5153   72.8547   67.4620 H   0  0  0  0  0  0  0  0  0  0  0  0
    0.4162   69.6824   65.0676 H   0  0  0  0  0  0  0  0  0  0  0  0
   -1.7190   68.0978   63.7105 H   0  0  0  0  0  0  0  0  0  0  0  0
   -1.7708   69.9240   63.7240 H   0  0  0  0  0  0  0  0  0  0  0  0
   -0.8812   68.9020   61.6367 H   0  0  0  0  0  0  0  0  0  0  0  0
    0.2344   70.0742   62.5619 H   0  0  0  0  0  0  0  0  0  0  0  0
    0.6973   67.2457   63.0723 H   0  0  0  0  0  0  0  0  0  0  0  0
    1.0291   67.8654   61.3565 H   0  0  0  0  0  0  0  0  0  0  0  0
    2.1875   69.6500   62.8895 H   0  0  0  0  0  0  0  0  0  0  0  0
    1.8422   68.1674   64.8954 H   0  0  0  0  0  0  0  0  0  0  0  0
    2.8398   66.9278   64.0377 H   0  0  0  0  0  0  0  0  0  0  0  0
    3.7454   69.6899   64.9582 H   0  0  0  0  0  0  0  0  0  0  0  0
    4.2113   68.0839   65.6582 H   0  0  0  0  0  0  0  0  0  0  0  0
    5.9529   69.0752   64.1614 H   0  0  0  0  0  0  0  0  0  0  0  0
    5.3446   67.4616   63.6288 H   0  0  0  0  0  0  0  0  0  0  0  0
    4.5179   70.1860   62.5339 H   0  0  0  0  0  0  0  0  0  0  0  0
    5.5269   68.9200   61.7122 H   0  0  0  0  0  0  0  0  0  0  0  0
    3.5814   67.3708   61.6953 H   0  0  0  0  0  0  0  0  0  0  0  0
    2.6347   70.0327   60.6182 H   0  0  0  0  0  0  0  0  0  0  0  0
    4.0646   69.1976   59.9220 H   0  0  0  0  0  0  0  0  0  0  0  0
    2.4622   68.3858   59.9220 H   0  0  0  0  0  0  0  0  0  0  0  0
   -1.6655   66.4331   67.6396 H   0  0  0  0  0  0  0  0  0  0  0  0
  2  1  2  0
  3  2  1  0
  4  3  2  0
  5  4  1  0
  6  5  2  0
  6  1  1  0
  8  7  2  0
  9  1  1  0
  9  8  1  0
 10  8  1  0
 11 10  1  0
 12 11  1  0
 13 11  1  0
 14 11  1  0
 15  5  1  0
 16 15  2  0
 17 15  1  0
 18 17  1  0
 19 18  1  0
 20 19  1  0
 21 20  1  0
 22 21  1  0
 23 22  1  0
 24 23  1  0
 25 24  1  0
 26 25  1  0
 26 21  1  0
 27 26  1  0
 28  4  1  0
  2 29  1  0
  3 30  1  0
  6 31  1  0
  9 32  1  0
 12 33  1  0
 12 34  1  0
 12 35  1  0
 13 36  1  0
 13 37  1  0
 13 38  1  0
 14 39  1  0
 14 40  1  0
 14 41  1  0
 17 42  1  0
 18 43  1  0
 18 44  1  0
 19 45  1  0
 19 46  1  0
 20 47  1  0
 20 48  1  0
 21 49  1  1
 22 50  1  0
 22 51  1  0
 23 52  1  0
 23 53  1  0
 24 54  1  0
 24 55  1  0
 25 56  1  0
 25 57  1  0
 26 58  1  6
 27 59  1  0
 27 60  1  0
 27 61  1  0
 28 62  1  0
M  CHG  1  21   1
M  END
>  <score>  (9) 
-7.961

$$$$
