=
     RDKit          3D

 65 69  0  0  0  0  0  0  0  0999 V2000
   -0.3600   55.7510   73.8090 C   0  0  1  0  0  0  0  0  0  0  0  0
   -1.4150   56.2770   74.6150 O   0  0  0  0  0  0  0  0  0  0  0  0
   -0.8630   57.4100   75.2820 C   0  0  1  0  0  0  0  0  0  0  0  0
    0.6360   57.0860   75.4120 C   0  0  1  0  0  0  0  0  0  0  0  0
    0.9020   56.1220   74.3760 O   0  0  0  0  0  0  0  0  0  0  0  0
    1.3130   58.4570   75.1020 C   0  0  2  0  0  0  0  0  0  0  0  0
    0.4330   58.9020   73.9070 C   0  0  1  0  0  0  0  0  0  0  0  0
   -0.9870   58.6970   74.4220 C   0  0  0  0  0  0  0  0  0  0  0  0
    0.9330   60.2200   73.3350 C   0  0  2  0  0  0  0  0  0  0  0  0
   -0.0900   60.9730   72.4880 C   0  0  0  0  0  0  0  0  0  0  0  0
    0.5140   62.2900   72.0060 C   0  0  0  0  0  0  0  0  0  0  0  0
    1.7940   62.0410   71.2420 C   0  0  0  0  0  0  0  0  0  0  0  0
    1.8850   62.4780   69.9730 C   0  0  0  0  0  0  0  0  0  0  0  0
    3.0540   62.1890   69.1220 C   0  0  0  0  0  0  0  0  0  0  0  0
    3.1310   62.6160   67.9770 O   0  0  0  0  0  0  0  0  0  0  0  0
    4.1120   61.3510   69.7040 C   0  0  0  0  0  0  0  0  0  0  0  0
    4.0310   60.9150   70.9680 C   0  0  0  0  0  0  0  0  0  0  0  0
    2.9010   61.2160   71.9520 C   0  0  2  0  0  0  0  0  0  0  0  0
    2.2280   59.9020   72.5060 C   0  0  1  0  0  0  0  0  0  0  0  0
    3.0890   58.7740   73.1960 C   0  0  2  0  0  0  0  0  0  0  0  0
    2.7940   58.4510   74.6770 C   0  0  0  0  0  0  0  0  0  0  0  0
    3.5160   62.0620   73.0870 C   0  0  0  0  0  0  0  0  0  0  0  0
    1.1800   59.4070   76.3370 C   0  0  0  0  0  0  0  0  0  0  0  0
    1.0380   56.4360   76.7470 C   0  0  0  0  0  0  0  0  0  0  0  0
    0.2330   56.2590   77.6690 O   0  0  0  0  0  0  0  0  0  0  0  0
    2.5090   56.1020   76.9760 C   0  0  0  0  0  0  0  0  0  0  0  0
    3.0120   55.2860   75.9240 O   0  0  0  0  0  0  0  0  0  0  0  0
    4.4910   58.9850   73.0810 O   0  0  0  0  0  0  0  0  0  0  0  0
   -0.4980   54.2370   73.6950 C   0  0  0  0  0  0  0  0  0  0  0  0
    0.5930   52.7080   75.3750 C   0  0  0  0  0  0  0  0  0  0  0  0
    0.7830   53.5040   74.0930 C   0  0  0  0  0  0  0  0  0  0  0  0
   -0.4193   56.1703   72.7938 H   0  0  0  0  0  0  0  0  0  0  0  0
   -1.3794   57.5896   76.2365 H   0  0  0  0  0  0  0  0  0  0  0  0
    0.4777   58.3320   72.9673 H   0  0  0  0  0  0  0  0  0  0  0  0
   -1.3132   59.5513   75.0333 H   0  0  0  0  0  0  0  0  0  0  0  0
   -1.7322   58.6112   73.6175 H   0  0  0  0  0  0  0  0  0  0  0  0
    1.1392   60.9024   74.1727 H   0  0  0  0  0  0  0  0  0  0  0  0
   -0.3693   60.3587   71.6193 H   0  0  0  0  0  0  0  0  0  0  0  0
   -0.9839   61.1813   73.0943 H   0  0  0  0  0  0  0  0  0  0  0  0
   -0.2063   62.7986   71.3483 H   0  0  0  0  0  0  0  0  0  0  0  0
    0.7399   62.9174   72.8809 H   0  0  0  0  0  0  0  0  0  0  0  0
    1.0584   63.0717   69.5556 H   0  0  0  0  0  0  0  0  0  0  0  0
    4.9841   61.0776   69.0919 H   0  0  0  0  0  0  0  0  0  0  0  0
    4.8538   60.2818   71.3313 H   0  0  0  0  0  0  0  0  0  0  0  0
    1.9986   59.4036   71.5526 H   0  0  0  0  0  0  0  0  0  0  0  0
    2.7579   57.9042   72.6096 H   0  0  0  0  0  0  0  0  0  0  0  0
    3.1975   57.4495   74.8871 H   0  0  0  0  0  0  0  0  0  0  0  0
    3.2639   59.2636   75.2505 H   0  0  0  0  0  0  0  0  0  0  0  0
    3.2137   61.6461   74.0594 H   0  0  0  0  0  0  0  0  0  0  0  0
    4.6128   62.0433   73.0052 H   0  0  0  0  0  0  0  0  0  0  0  0
    3.1599   63.0995   73.0052 H   0  0  0  0  0  0  0  0  0  0  0  0
    1.2624   58.8186   77.2628 H   0  0  0  0  0  0  0  0  0  0  0  0
    1.9815   60.1598   76.3085 H   0  0  0  0  0  0  0  0  0  0  0  0
    0.2026   59.9108   76.3085 H   0  0  0  0  0  0  0  0  0  0  0  0
    3.0887   57.0360   77.0166 H   0  0  0  0  0  0  0  0  0  0  0  0
    2.6021   55.5519   77.9240 H   0  0  0  0  0  0  0  0  0  0  0  0
    3.4907   54.5095   76.3087 H   0  0  0  0  0  0  0  0  0  0  0  0
    4.8909   59.0452   73.9846 H   0  0  0  0  0  0  0  0  0  0  0  0
   -1.3139   53.9059   74.3543 H   0  0  0  0  0  0  0  0  0  0  0  0
   -0.7084   53.9975   72.6422 H   0  0  0  0  0  0  0  0  0  0  0  0
    0.7502   53.3664   76.2421 H   0  0  0  0  0  0  0  0  0  0  0  0
   -0.4279   52.2995   75.4051 H   0  0  0  0  0  0  0  0  0  0  0  0
    1.3193   51.8824   75.4051 H   0  0  0  0  0  0  0  0  0  0  0  0
    1.5845   54.2418   74.2456 H   0  0  0  0  0  0  0  0  0  0  0  0
    1.0449   52.8032   73.2866 H   0  0  0  0  0  0  0  0  0  0  0  0
  2  1  1  0
  3  2  1  0
  4  3  1  0
  5  4  1  0
  5  1  1  0
  6  4  1  0
  7  6  1  0
  8  7  1  0
  8  3  1  0
  9  7  1  0
 10  9  1  0
 11 10  1  0
 12 11  1  0
 13 12  2  0
 14 13  1  0
 15 14  2  0
 16 14  1  0
 17 16  2  0
 18 17  1  0
 18 12  1  0
 19 18  1  0
 19  9  1  0
 20 19  1  0
 21 20  1  0
 21  6  1  0
 18 22  1  1
  6 23  1  1
  4 24  1  1
 25 24  2  0
 26 24  1  0
 27 26  1  0
 28 20  1  0
 29  1  1  0
 31 30  1  0
 31 29  1  0
  1 32  1  6
  3 33  1  1
  7 34  1  6
  8 35  1  0
  8 36  1  0
  9 37  1  1
 10 38  1  0
 10 39  1  0
 11 40  1  0
 11 41  1  0
 13 42  1  0
 16 43  1  0
 17 44  1  0
 19 45  1  6
 20 46  1  6
 21 47  1  0
 21 48  1  0
 22 49  1  0
 22 50  1  0
 22 51  1  0
 23 52  1  0
 23 53  1  0
 23 54  1  0
 26 55  1  0
 26 56  1  0
 27 57  1  0
 28 58  1  0
 29 59  1  0
 29 60  1  0
 30 61  1  0
 30 62  1  0
 30 63  1  0
 31 64  1  0
 31 65  1  0
M  END
>  <score>  (1) 
-8.211

$$$$
=
     RDKit          3D

 65 69  0  0  0  0  0  0  0  0999 V2000
   -1.4620   56.9710   75.3350 C   0  0  1  0  0  0  0  0  0  0  0  0
   -1.3540   57.3010   76.7200 O   0  0  0  0  0  0  0  0  0  0  0  0
   -0.0230   57.7740   76.9020 C   0  0  1  0  0  0  0  0  0  0  0  0
    0.7960   57.0400   75.8240 C   0  0  1  0  0  0  0  0  0  0  0  0
   -0.1620   56.6670   74.8160 O   0  0  0  0  0  0  0  0  0  0  0  0
    1.7630   58.1500   75.3090 C   0  0  2  0  0  0  0  0  0  0  0  0
    0.7670   59.3350   75.2480 C   0  0  1  0  0  0  0  0  0  0  0  0
    0.0900   59.2960   76.6130 C   0  0  0  0  0  0  0  0  0  0  0  0
    1.4440   60.5770   74.6860 C   0  0  2  0  0  0  0  0  0  0  0  0
    0.7280   61.8880   75.0010 C   0  0  0  0  0  0  0  0  0  0  0  0
    1.5210   63.0560   74.4200 C   0  0  0  0  0  0  0  0  0  0  0  0
    1.7240   62.8760   72.9330 C   0  0  0  0  0  0  0  0  0  0  0  0
    1.2740   63.8300   72.0980 C   0  0  0  0  0  0  0  0  0  0  0  0
    1.3370   63.6890   70.6320 C   0  0  0  0  0  0  0  0  0  0  0  0
    0.9450   64.5770   69.8880 O   0  0  0  0  0  0  0  0  0  0  0  0
    1.8740   62.4250   70.1070 C   0  0  0  0  0  0  0  0  0  0  0  0
    2.3280   61.4720   70.9310 C   0  0  0  0  0  0  0  0  0  0  0  0
    2.3730   61.5490   72.4570 C   0  0  2  0  0  0  0  0  0  0  0  0
    1.5820   60.3660   73.1360 C   0  0  1  0  0  0  0  0  0  0  0  0
    1.9060   58.8620   72.7870 C   0  0  2  0  0  0  0  0  0  0  0  0
    2.4160   57.9550   73.9280 C   0  0  0  0  0  0  0  0  0  0  0  0
    3.8630   61.5390   72.8570 C   0  0  0  0  0  0  0  0  0  0  0  0
    2.9100   58.3800   76.3460 C   0  0  0  0  0  0  0  0  0  0  0  0
    1.4720   55.7450   76.3050 C   0  0  0  0  0  0  0  0  0  0  0  0
    1.6830   55.5100   77.5000 O   0  0  0  0  0  0  0  0  0  0  0  0
    1.9990   54.7710   75.2560 C   0  0  0  0  0  0  0  0  0  0  0  0
    3.4130   54.8710   75.1370 O   0  0  0  0  0  0  0  0  0  0  0  0
    2.8070   58.7180   71.6970 O   0  0  0  0  0  0  0  0  0  0  0  0
   -2.4240   55.8020   75.1520 C   0  0  0  0  0  0  0  0  0  0  0  0
   -1.5570   53.4450   75.3590 C   0  0  0  0  0  0  0  0  0  0  0  0
   -2.1200   54.6440   76.1040 C   0  0  0  0  0  0  0  0  0  0  0  0
   -1.8659   57.8280   74.7761 H   0  0  0  0  0  0  0  0  0  0  0  0
    0.3131   57.5997   77.9348 H   0  0  0  0  0  0  0  0  0  0  0  0
   -0.0588   59.3023   74.5221 H   0  0  0  0  0  0  0  0  0  0  0  0
    0.7050   59.7986   77.3741 H   0  0  0  0  0  0  0  0  0  0  0  0
   -0.8800   59.8145   76.6314 H   0  0  0  0  0  0  0  0  0  0  0  0
    2.4238   60.6857   75.1741 H   0  0  0  0  0  0  0  0  0  0  0  0
   -0.2783   61.8716   74.5570 H   0  0  0  0  0  0  0  0  0  0  0  0
    0.6469   62.0075   76.0915 H   0  0  0  0  0  0  0  0  0  0  0  0
    0.9700   63.9911   74.5988 H   0  0  0  0  0  0  0  0  0  0  0  0
    2.5053   63.0938   74.9096 H   0  0  0  0  0  0  0  0  0  0  0  0
    0.8436   64.7481   72.5245 H   0  0  0  0  0  0  0  0  0  0  0  0
    1.9033   62.2595   69.0199 H   0  0  0  0  0  0  0  0  0  0  0  0
    2.7033   60.5481   70.4667 H   0  0  0  0  0  0  0  0  0  0  0  0
    0.6192   60.4729   72.6148 H   0  0  0  0  0  0  0  0  0  0  0  0
    0.8962   58.5097   72.5297 H   0  0  0  0  0  0  0  0  0  0  0  0
    2.2488   56.9110   73.6244 H   0  0  0  0  0  0  0  0  0  0  0  0
    3.4724   58.2290   74.0657 H   0  0  0  0  0  0  0  0  0  0  0  0
    3.9482   61.5384   73.9537 H   0  0  0  0  0  0  0  0  0  0  0  0
    4.3455   60.6376   72.4513 H   0  0  0  0  0  0  0  0  0  0  0  0
    4.3576   62.4338   72.4513 H   0  0  0  0  0  0  0  0  0  0  0  0
    2.5045   58.2987   77.3653 H   0  0  0  0  0  0  0  0  0  0  0  0
    3.6929   57.6210   76.2012 H   0  0  0  0  0  0  0  0  0  0  0  0
    3.3397   59.3822   76.2012 H   0  0  0  0  0  0  0  0  0  0  0  0
    1.7339   53.7451   75.5513 H   0  0  0  0  0  0  0  0  0  0  0  0
    1.5456   55.0200   74.2852 H   0  0  0  0  0  0  0  0  0  0  0  0
    3.8189   54.8997   76.0395 H   0  0  0  0  0  0  0  0  0  0  0  0
    3.7229   58.5716   72.0431 H   0  0  0  0  0  0  0  0  0  0  0  0
   -3.4488   56.1547   75.3402 H   0  0  0  0  0  0  0  0  0  0  0  0
   -2.3091   55.4302   74.1231 H   0  0  0  0  0  0  0  0  0  0  0  0
   -1.2051   52.6955   76.0832 H   0  0  0  0  0  0  0  0  0  0  0  0
   -2.3422   53.0041   74.7273 H   0  0  0  0  0  0  0  0  0  0  0  0
   -0.7162   53.7676   74.7273 H   0  0  0  0  0  0  0  0  0  0  0  0
   -3.0488   54.3455   76.6121 H   0  0  0  0  0  0  0  0  0  0  0  0
   -1.3679   54.9831   76.8316 H   0  0  0  0  0  0  0  0  0  0  0  0
  2  1  1  0
  3  2  1  0
  4  3  1  0
  5  4  1  0
  5  1  1  0
  6  4  1  0
  7  6  1  0
  8  7  1  0
  8  3  1  0
  9  7  1  0
 10  9  1  0
 11 10  1  0
 12 11  1  0
 13 12  2  0
 14 13  1  0
 15 14  2  0
 16 14  1  0
 17 16  2  0
 18 17  1  0
 18 12  1  0
 19 18  1  0
 19  9  1  0
 20 19  1  0
 21 20  1  0
 21  6  1  0
 18 22  1  1
  6 23  1  1
  4 24  1  1
 25 24  2  0
 26 24  1  0
 27 26  1  0
 28 20  1  0
 29  1  1  0
 31 30  1  0
 31 29  1  0
  1 32  1  6
  3 33  1  1
  7 34  1  6
  8 35  1  0
  8 36  1  0
  9 37  1  1
 10 38  1  0
 10 39  1  0
 11 40  1  0
 11 41  1  0
 13 42  1  0
 16 43  1  0
 17 44  1  0
 19 45  1  6
 20 46  1  6
 21 47  1  0
 21 48  1  0
 22 49  1  0
 22 50  1  0
 22 51  1  0
 23 52  1  0
 23 53  1  0
 23 54  1  0
 26 55  1  0
 26 56  1  0
 27 57  1  0
 28 58  1  0
 29 59  1  0
 29 60  1  0
 30 61  1  0
 30 62  1  0
 30 63  1  0
 31 64  1  0
 31 65  1  0
M  END
>  <score>  (2) 
-7.488

$$$$
=
     RDKit          3D

 65 69  0  0  0  0  0  0  0  0999 V2000
    1.3190   62.3240   74.5510 C   0  0  1  0  0  0  0  0  0  0  0  0
    0.7590   62.4250   73.2410 O   0  0  0  0  0  0  0  0  0  0  0  0
    1.2330   61.2850   72.5290 C   0  0  1  0  0  0  0  0  0  0  0  0
    2.5890   60.9620   73.1810 C   0  0  1  0  0  0  0  0  0  0  0  0
    2.5230   61.5490   74.4940 O   0  0  0  0  0  0  0  0  0  0  0  0
    2.5750   59.4040   73.2520 C   0  0  2  0  0  0  0  0  0  0  0  0
    1.1110   59.1900   73.7100 C   0  0  1  0  0  0  0  0  0  0  0  0
    0.3110   60.0530   72.7410 C   0  0  0  0  0  0  0  0  0  0  0  0
    0.8300   57.7130   73.9400 C   0  0  2  0  0  0  0  0  0  0  0  0
   -0.6510   57.3400   73.9400 C   0  0  0  0  0  0  0  0  0  0  0  0
   -0.7990   55.8340   74.1410 C   0  0  0  0  0  0  0  0  0  0  0  0
   -0.1150   55.3960   75.4160 C   0  0  0  0  0  0  0  0  0  0  0  0
   -0.8430   54.7690   76.3580 C   0  0  0  0  0  0  0  0  0  0  0  0
   -0.2830   54.4000   77.6710 C   0  0  0  0  0  0  0  0  0  0  0  0
   -0.9520   53.8080   78.5060 O   0  0  0  0  0  0  0  0  0  0  0  0
    1.1090   54.7930   77.9360 C   0  0  0  0  0  0  0  0  0  0  0  0
    1.8410   55.4150   77.0030 C   0  0  0  0  0  0  0  0  0  0  0  0
    1.3790   55.7760   75.5910 C   0  0  2  0  0  0  0  0  0  0  0  0
    1.5110   57.3200   75.3000 C   0  0  1  0  0  0  0  0  0  0  0  0
    2.8850   58.0720   75.4920 C   0  0  2  0  0  0  0  0  0  0  0  0
    3.5300   58.7170   74.2460 C   0  0  0  0  0  0  0  0  0  0  0  0
    2.2350   54.9390   74.6170 C   0  0  0  0  0  0  0  0  0  0  0  0
    2.8580   58.8040   71.8350 C   0  0  0  0  0  0  0  0  0  0  0  0
    3.8050   61.5810   72.4720 C   0  0  0  0  0  0  0  0  0  0  0  0
    4.9450   61.5420   72.9510 O   0  0  0  0  0  0  0  0  0  0  0  0
    3.5700   62.3680   71.1860 C   0  0  0  0  0  0  0  0  0  0  0  0
    4.8000   62.8500   70.6560 O   0  0  0  0  0  0  0  0  0  0  0  0
    3.8810   57.2750   76.1200 O   0  0  0  0  0  0  0  0  0  0  0  0
    1.5780   63.7160   75.1150 C   0  0  0  0  0  0  0  0  0  0  0  0
   -0.2830   65.3800   74.7750 C   0  0  0  0  0  0  0  0  0  0  0  0
    0.3190   64.3460   75.7120 C   0  0  0  0  0  0  0  0  0  0  0  0
    0.6113   61.8165   75.2230 H   0  0  0  0  0  0  0  0  0  0  0  0
    1.2788   61.4919   71.4496 H   0  0  0  0  0  0  0  0  0  0  0  0
    0.8087   59.5322   74.7107 H   0  0  0  0  0  0  0  0  0  0  0  0
    0.1342   59.5235   71.7932 H   0  0  0  0  0  0  0  0  0  0  0  0
   -0.6874   60.3182   73.1189 H   0  0  0  0  0  0  0  0  0  0  0  0
    1.2466   57.1480   73.0931 H   0  0  0  0  0  0  0  0  0  0  0  0
   -1.1623   57.8705   74.7568 H   0  0  0  0  0  0  0  0  0  0  0  0
   -1.1001   57.6263   72.9776 H   0  0  0  0  0  0  0  0  0  0  0  0
   -1.8678   55.5807   74.1991 H   0  0  0  0  0  0  0  0  0  0  0  0
   -0.3299   55.3158   73.2917 H   0  0  0  0  0  0  0  0  0  0  0  0
   -1.8929   54.5231   76.1408 H   0  0  0  0  0  0  0  0  0  0  0  0
    1.5562   54.5725   78.9165 H   0  0  0  0  0  0  0  0  0  0  0  0
    2.8695   55.6917   77.2778 H   0  0  0  0  0  0  0  0  0  0  0  0
    0.9621   57.7122   76.1688 H   0  0  0  0  0  0  0  0  0  0  0  0
    2.5553   58.8971   76.1405 H   0  0  0  0  0  0  0  0  0  0  0  0
    4.2481   59.4733   74.5958 H   0  0  0  0  0  0  0  0  0  0  0  0
    3.9787   57.8825   73.6872 H   0  0  0  0  0  0  0  0  0  0  0  0
    2.9063   54.2826   75.1901 H   0  0  0  0  0  0  0  0  0  0  0  0
    1.5765   54.3268   73.9834 H   0  0  0  0  0  0  0  0  0  0  0  0
    2.8323   55.6111   73.9834 H   0  0  0  0  0  0  0  0  0  0  0  0
    3.3250   57.8139   71.9427 H   0  0  0  0  0  0  0  0  0  0  0  0
    1.9117   58.7050   71.2831 H   0  0  0  0  0  0  0  0  0  0  0  0
    3.5363   59.4713   71.2831 H   0  0  0  0  0  0  0  0  0  0  0  0
    3.0902   61.7122   70.4445 H   0  0  0  0  0  0  0  0  0  0  0  0
    2.9227   63.2281   71.4125 H   0  0  0  0  0  0  0  0  0  0  0  0
    5.4087   63.0885   71.3994 H   0  0  0  0  0  0  0  0  0  0  0  0
    3.7903   57.3476   77.1032 H   0  0  0  0  0  0  0  0  0  0  0  0
    2.3431   63.6417   75.9018 H   0  0  0  0  0  0  0  0  0  0  0  0
    1.9134   64.3569   74.2863 H   0  0  0  0  0  0  0  0  0  0  0  0
   -0.7500   66.1821   75.3654 H   0  0  0  0  0  0  0  0  0  0  0  0
    0.5088   65.8051   74.1407 H   0  0  0  0  0  0  0  0  0  0  0  0
   -1.0436   64.9013   74.1407 H   0  0  0  0  0  0  0  0  0  0  0  0
    0.5796   64.8338   76.6629 H   0  0  0  0  0  0  0  0  0  0  0  0
   -0.4235   63.5502   75.8713 H   0  0  0  0  0  0  0  0  0  0  0  0
  2  1  1  0
  3  2  1  0
  4  3  1  0
  5  4  1  0
  5  1  1  0
  6  4  1  0
  7  6  1  0
  8  7  1  0
  8  3  1  0
  9  7  1  0
 10  9  1  0
 11 10  1  0
 12 11  1  0
 13 12  2  0
 14 13  1  0
 15 14  2  0
 16 14  1  0
 17 16  2  0
 18 17  1  0
 18 12  1  0
 19 18  1  0
 19  9  1  0
 20 19  1  0
 21 20  1  0
 21  6  1  0
 18 22  1  6
  6 23  1  6
  4 24  1  6
 25 24  2  0
 26 24  1  0
 27 26  1  0
 28 20  1  0
 29  1  1  0
 31 30  1  0
 31 29  1  0
  1 32  1  1
  3 33  1  6
  7 34  1  1
  8 35  1  0
  8 36  1  0
  9 37  1  6
 10 38  1  0
 10 39  1  0
 11 40  1  0
 11 41  1  0
 13 42  1  0
 16 43  1  0
 17 44  1  0
 19 45  1  1
 20 46  1  1
 21 47  1  0
 21 48  1  0
 22 49  1  0
 22 50  1  0
 22 51  1  0
 23 52  1  0
 23 53  1  0
 23 54  1  0
 26 55  1  0
 26 56  1  0
 27 57  1  0
 28 58  1  0
 29 59  1  0
 29 60  1  0
 30 61  1  0
 30 62  1  0
 30 63  1  0
 31 64  1  0
 31 65  1  0
M  END
>  <score>  (3) 
-7.136

$$$$
=
     RDKit          3D

 65 69  0  0  0  0  0  0  0  0999 V2000
    3.3500   59.4880   71.1880 C   0  0  1  0  0  0  0  0  0  0  0  0
    4.3770   60.1700   71.9080 O   0  0  0  0  0  0  0  0  0  0  0  0
    3.8080   60.5050   73.1700 C   0  0  1  0  0  0  0  0  0  0  0  0
    2.3040   60.6600   72.8840 C   0  0  1  0  0  0  0  0  0  0  0  0
    2.0700   59.8960   71.6860 O   0  0  0  0  0  0  0  0  0  0  0  0
    1.6450   59.9870   74.1270 C   0  0  2  0  0  0  0  0  0  0  0  0
    2.5690   58.7500   74.2570 C   0  0  1  0  0  0  0  0  0  0  0  0
    3.9690   59.3500   74.1960 C   0  0  0  0  0  0  0  0  0  0  0  0
    2.0960   57.8430   75.3830 C   0  0  2  0  0  0  0  0  0  0  0  0
    3.1530   56.8690   75.8990 C   0  0  0  0  0  0  0  0  0  0  0  0
    2.5720   56.0460   77.0470 C   0  0  0  0  0  0  0  0  0  0  0  0
    1.3190   55.3250   76.6050 C   0  0  0  0  0  0  0  0  0  0  0  0
    1.2750   53.9840   76.7040 C   0  0  0  0  0  0  0  0  0  0  0  0
    0.1360   53.1940   76.2030 C   0  0  0  0  0  0  0  0  0  0  0  0
    0.1020   51.9770   76.3220 O   0  0  0  0  0  0  0  0  0  0  0  0
   -0.9460   53.9330   75.5360 C   0  0  0  0  0  0  0  0  0  0  0  0
   -0.9120   55.2680   75.4370 C   0  0  0  0  0  0  0  0  0  0  0  0
    0.1840   56.1820   75.9840 C   0  0  2  0  0  0  0  0  0  0  0  0
    0.8300   57.0770   74.8580 C   0  0  1  0  0  0  0  0  0  0  0  0
   -0.0610   58.0010   73.9400 C   0  0  2  0  0  0  0  0  0  0  0  0
    0.1800   59.5240   74.0070 C   0  0  0  0  0  0  0  0  0  0  0  0
   -0.4670   57.0420   77.0890 C   0  0  0  0  0  0  0  0  0  0  0  0
    1.7380   60.9420   75.3620 C   0  0  0  0  0  0  0  0  0  0  0  0
    1.8520   62.1010   72.5940 C   0  0  0  0  0  0  0  0  0  0  0  0
    2.4700   63.0880   73.0100 O   0  0  0  0  0  0  0  0  0  0  0  0
    0.5300   62.3120   71.8620 C   0  0  0  0  0  0  0  0  0  0  0  0
   -0.3170   63.1950   72.5900 O   0  0  0  0  0  0  0  0  0  0  0  0
   -1.4560   57.7860   74.1080 O   0  0  0  0  0  0  0  0  0  0  0  0
    3.4840   59.7690   69.6960 C   0  0  0  0  0  0  0  0  0  0  0  0
    3.0160   62.1470   69.0060 C   0  0  0  0  0  0  0  0  0  0  0  0
    4.0860   61.1470   69.4150 C   0  0  0  0  0  0  0  0  0  0  0  0
    3.4487   58.4022   71.3337 H   0  0  0  0  0  0  0  0  0  0  0  0
    4.2913   61.3998   73.5892 H   0  0  0  0  0  0  0  0  0  0  0  0
    2.5547   57.9855   73.4662 H   0  0  0  0  0  0  0  0  0  0  0  0
    4.2778   59.7345   75.1793 H   0  0  0  0  0  0  0  0  0  0  0  0
    4.7417   58.6208   73.9111 H   0  0  0  0  0  0  0  0  0  0  0  0
    1.8629   58.4704   76.2559 H   0  0  0  0  0  0  0  0  0  0  0  0
    3.4600   56.1963   75.0846 H   0  0  0  0  0  0  0  0  0  0  0  0
    4.0262   57.4332   76.2584 H   0  0  0  0  0  0  0  0  0  0  0  0
    3.3176   55.3068   77.3751 H   0  0  0  0  0  0  0  0  0  0  0  0
    2.3173   56.7236   77.8752 H   0  0  0  0  0  0  0  0  0  0  0  0
    2.1187   53.4587   77.1754 H   0  0  0  0  0  0  0  0  0  0  0  0
   -1.7971   53.3804   75.1115 H   0  0  0  0  0  0  0  0  0  0  0  0
   -1.7502   55.7514   74.9137 H   0  0  0  0  0  0  0  0  0  0  0  0
    1.0908   56.2917   74.1332 H   0  0  0  0  0  0  0  0  0  0  0  0
    0.2859   57.6682   72.9506 H   0  0  0  0  0  0  0  0  0  0  0  0
   -0.2362   59.9682   73.0908 H   0  0  0  0  0  0  0  0  0  0  0  0
   -0.3050   59.8533   74.9378 H   0  0  0  0  0  0  0  0  0  0  0  0
   -0.1737   56.6545   78.0758 H   0  0  0  0  0  0  0  0  0  0  0  0
   -0.1294   58.0842   76.9892 H   0  0  0  0  0  0  0  0  0  0  0  0
   -1.5617   57.0000   76.9892 H   0  0  0  0  0  0  0  0  0  0  0  0
    1.6804   60.3508   76.2878 H   0  0  0  0  0  0  0  0  0  0  0  0
    2.6934   61.4864   75.3334 H   0  0  0  0  0  0  0  0  0  0  0  0
    0.9056   61.6605   75.3334 H   0  0  0  0  0  0  0  0  0  0  0  0
    0.7320   62.7424   70.8701 H   0  0  0  0  0  0  0  0  0  0  0  0
    0.0236   61.3405   71.7626 H   0  0  0  0  0  0  0  0  0  0  0  0
   -0.1829   63.0552   73.5609 H   0  0  0  0  0  0  0  0  0  0  0  0
   -1.6708   57.7529   75.0738 H   0  0  0  0  0  0  0  0  0  0  0  0
    4.1331   59.0018   69.2487 H   0  0  0  0  0  0  0  0  0  0  0  0
    2.4751   59.7476   69.2583 H   0  0  0  0  0  0  0  0  0  0  0  0
    2.5542   62.5786   69.9062 H   0  0  0  0  0  0  0  0  0  0  0  0
    3.4731   62.9491   68.4079 H   0  0  0  0  0  0  0  0  0  0  0  0
    2.2466   61.6367   68.4079 H   0  0  0  0  0  0  0  0  0  0  0  0
    4.8215   61.0572   68.6020 H   0  0  0  0  0  0  0  0  0  0  0  0
    4.5650   61.5099   70.3363 H   0  0  0  0  0  0  0  0  0  0  0  0
  2  1  1  0
  3  2  1  0
  4  3  1  0
  5  4  1  0
  5  1  1  0
  6  4  1  0
  7  6  1  0
  8  7  1  0
  8  3  1  0
  9  7  1  0
 10  9  1  0
 11 10  1  0
 12 11  1  0
 13 12  2  0
 14 13  1  0
 15 14  2  0
 16 14  1  0
 17 16  2  0
 18 17  1  0
 18 12  1  0
 19 18  1  0
 19  9  1  0
 20 19  1  0
 21 20  1  0
 21  6  1  0
 18 22  1  1
  6 23  1  1
  4 24  1  6
 25 24  2  0
 26 24  1  0
 27 26  1  0
 28 20  1  0
 29  1  1  0
 31 30  1  0
 31 29  1  0
  1 32  1  6
  3 33  1  1
  7 34  1  6
  8 35  1  0
  8 36  1  0
  9 37  1  1
 10 38  1  0
 10 39  1  0
 11 40  1  0
 11 41  1  0
 13 42  1  0
 16 43  1  0
 17 44  1  0
 19 45  1  6
 20 46  1  6
 21 47  1  0
 21 48  1  0
 22 49  1  0
 22 50  1  0
 22 51  1  0
 23 52  1  0
 23 53  1  0
 23 54  1  0
 26 55  1  0
 26 56  1  0
 27 57  1  0
 28 58  1  0
 29 59  1  0
 29 60  1  0
 30 61  1  0
 30 62  1  0
 30 63  1  0
 31 64  1  0
 31 65  1  0
M  END
>  <score>  (4) 
-7.131

$$$$
=
     RDKit          3D

 65 69  0  0  0  0  0  0  0  0999 V2000
   -2.3560   60.0000   74.6950 C   0  0  1  0  0  0  0  0  0  0  0  0
   -2.8970   58.6800   74.7560 O   0  0  0  0  0  0  0  0  0  0  0  0
   -4.0900   58.7860   75.5270 C   0  0  1  0  0  0  0  0  0  0  0  0
   -3.8290   59.9700   76.4760 C   0  0  1  0  0  0  0  0  0  0  0  0
   -2.8090   60.7520   75.8270 O   0  0  0  0  0  0  0  0  0  0  0  0
   -5.2000   60.7150   76.4820 C   0  0  2  0  0  0  0  0  0  0  0  0
   -5.5330   60.6310   74.9720 C   0  0  1  0  0  0  0  0  0  0  0  0
   -5.3120   59.1590   74.6450 C   0  0  0  0  0  0  0  0  0  0  0  0
   -6.8280   61.3690   74.6660 C   0  0  2  0  0  0  0  0  0  0  0  0
   -7.4860   60.9780   73.3450 C   0  0  0  0  0  0  0  0  0  0  0  0
   -8.7890   61.7550   73.1720 C   0  0  0  0  0  0  0  0  0  0  0  0
   -8.5360   63.2430   73.2480 C   0  0  0  0  0  0  0  0  0  0  0  0
   -8.8910   64.0140   72.2040 C   0  0  0  0  0  0  0  0  0  0  0  0
   -8.5890   65.4560   72.1500 C   0  0  0  0  0  0  0  0  0  0  0  0
   -8.9400   66.1470   71.2030 O   0  0  0  0  0  0  0  0  0  0  0  0
   -7.8290   66.0210   73.2750 C   0  0  0  0  0  0  0  0  0  0  0  0
   -7.4750   65.2610   74.3200 C   0  0  0  0  0  0  0  0  0  0  0  0
   -7.8000   63.7790   74.5050 C   0  0  2  0  0  0  0  0  0  0  0  0
   -6.5020   62.9060   74.7010 C   0  0  1  0  0  0  0  0  0  0  0  0
   -5.4540   63.2450   75.8310 C   0  0  2  0  0  0  0  0  0  0  0  0
   -5.2200   62.1880   76.9320 C   0  0  0  0  0  0  0  0  0  0  0  0
   -8.7400   63.6820   75.7250 C   0  0  0  0  0  0  0  0  0  0  0  0
   -6.2250   59.9360   77.3700 C   0  0  0  0  0  0  0  0  0  0  0  0
   -3.2840   59.5760   77.8590 C   0  0  0  0  0  0  0  0  0  0  0  0
   -2.8720   60.4100   78.6730 O   0  0  0  0  0  0  0  0  0  0  0  0
   -3.1460   58.0920   78.1860 C   0  0  0  0  0  0  0  0  0  0  0  0
   -4.0800   57.7050   79.1870 O   0  0  0  0  0  0  0  0  0  0  0  0
   -5.7060   64.4840   76.4810 O   0  0  0  0  0  0  0  0  0  0  0  0
   -0.8340   59.9380   74.6380 C   0  0  0  0  0  0  0  0  0  0  0  0
   -0.9720   61.6220   72.7690 C   0  0  0  0  0  0  0  0  0  0  0  0
   -0.2830   60.3650   73.2770 C   0  0  0  0  0  0  0  0  0  0  0  0
   -2.7042   60.5052   73.7820 H   0  0  0  0  0  0  0  0  0  0  0  0
   -4.3141   57.8334   76.0294 H   0  0  0  0  0  0  0  0  0  0  0  0
   -4.9034   61.1780   74.2547 H   0  0  0  0  0  0  0  0  0  0  0  0
   -6.1926   58.5574   74.9145 H   0  0  0  0  0  0  0  0  0  0  0  0
   -5.1468   58.9726   73.5736 H   0  0  0  0  0  0  0  0  0  0  0  0
   -7.5715   61.0883   75.4265 H   0  0  0  0  0  0  0  0  0  0  0  0
   -6.8059   61.2140   72.5133 H   0  0  0  0  0  0  0  0  0  0  0  0
   -7.7018   59.8994   73.3496 H   0  0  0  0  0  0  0  0  0  0  0  0
   -9.2270   61.5125   72.1926 H   0  0  0  0  0  0  0  0  0  0  0  0
   -9.4804   61.4715   73.9792 H   0  0  0  0  0  0  0  0  0  0  0  0
   -9.4255   63.5520   71.3609 H   0  0  0  0  0  0  0  0  0  0  0  0
   -7.5468   67.0841   73.2583 H   0  0  0  0  0  0  0  0  0  0  0  0
   -6.8970   65.7487   75.1188 H   0  0  0  0  0  0  0  0  0  0  0  0
   -5.9331   63.2309   73.8174 H   0  0  0  0  0  0  0  0  0  0  0  0
   -4.5358   63.2821   75.2265 H   0  0  0  0  0  0  0  0  0  0  0  0
   -4.2502   62.4061   77.4030 H   0  0  0  0  0  0  0  0  0  0  0  0
   -6.0862   62.2737   77.6046 H   0  0  0  0  0  0  0  0  0  0  0  0
   -8.1478   63.7431   76.6500 H   0  0  0  0  0  0  0  0  0  0  0  0
   -9.4633   64.5103   75.6973 H   0  0  0  0  0  0  0  0  0  0  0  0
   -9.2789   62.7235   75.6973 H   0  0  0  0  0  0  0  0  0  0  0  0
   -5.9965   60.1097   78.4319 H   0  0  0  0  0  0  0  0  0  0  0  0
   -7.2432   60.2903   77.1513 H   0  0  0  0  0  0  0  0  0  0  0  0
   -6.1563   58.8601   77.1513 H   0  0  0  0  0  0  0  0  0  0  0  0
   -3.3297   57.5036   77.2749 H   0  0  0  0  0  0  0  0  0  0  0  0
   -2.1292   57.9077   78.5631 H   0  0  0  0  0  0  0  0  0  0  0  0
   -3.6899   57.8666   80.0825 H   0  0  0  0  0  0  0  0  0  0  0  0
   -5.6794   64.3534   77.4620 H   0  0  0  0  0  0  0  0  0  0  0  0
   -0.4242   60.6058   75.4101 H   0  0  0  0  0  0  0  0  0  0  0  0
   -0.5346   58.8932   74.8079 H   0  0  0  0  0  0  0  0  0  0  0  0
   -1.3046   62.2288   73.6240 H   0  0  0  0  0  0  0  0  0  0  0  0
   -0.2673   62.2049   72.1578 H   0  0  0  0  0  0  0  0  0  0  0  0
   -1.8425   61.3415   72.1578 H   0  0  0  0  0  0  0  0  0  0  0  0
   -0.4443   59.5515   72.5544 H   0  0  0  0  0  0  0  0  0  0  0  0
    0.7899   60.5798   73.3898 H   0  0  0  0  0  0  0  0  0  0  0  0
  2  1  1  0
  3  2  1  0
  4  3  1  0
  5  4  1  0
  5  1  1  0
  6  4  1  0
  7  6  1  0
  8  7  1  0
  8  3  1  0
  9  7  1  0
 10  9  1  0
 11 10  1  0
 12 11  1  0
 13 12  2  0
 14 13  1  0
 15 14  2  0
 16 14  1  0
 17 16  2  0
 18 17  1  0
 18 12  1  0
 19 18  1  0
 19  9  1  0
 20 19  1  0
 21 20  1  0
 21  6  1  0
 18 22  1  1
  6 23  1  1
  4 24  1  1
 25 24  2  0
 26 24  1  0
 27 26  1  0
 28 20  1  0
 29  1  1  0
 31 30  1  0
 31 29  1  0
  1 32  1  6
  3 33  1  1
  7 34  1  6
  8 35  1  0
  8 36  1  0
  9 37  1  1
 10 38  1  0
 10 39  1  0
 11 40  1  0
 11 41  1  0
 13 42  1  0
 16 43  1  0
 17 44  1  0
 19 45  1  6
 20 46  1  6
 21 47  1  0
 21 48  1  0
 22 49  1  0
 22 50  1  0
 22 51  1  0
 23 52  1  0
 23 53  1  0
 23 54  1  0
 26 55  1  0
 26 56  1  0
 27 57  1  0
 28 58  1  0
 29 59  1  0
 29 60  1  0
 30 61  1  0
 30 62  1  0
 30 63  1  0
 31 64  1  0
 31 65  1  0
M  END
>  <score>  (5) 
-6.277

$$$$
=
     RDKit          3D

 65 69  0  0  0  0  0  0  0  0999 V2000
    2.6380   59.9610   76.5860 C   0  0  1  0  0  0  0  0  0  0  0  0
    3.8010   59.1830   76.3040 O   0  0  0  0  0  0  0  0  0  0  0  0
    3.6570   58.7470   74.9550 C   0  0  1  0  0  0  0  0  0  0  0  0
    2.1350   58.6650   74.7390 C   0  0  1  0  0  0  0  0  0  0  0  0
    1.5690   59.5460   75.7280 O   0  0  0  0  0  0  0  0  0  0  0  0
    1.9590   59.2370   73.2990 C   0  0  2  0  0  0  0  0  0  0  0  0
    2.9470   60.4280   73.3840 C   0  0  1  0  0  0  0  0  0  0  0  0
    4.2120   59.7950   73.9520 C   0  0  0  0  0  0  0  0  0  0  0  0
    2.9230   61.2380   72.0970 C   0  0  2  0  0  0  0  0  0  0  0  0
    4.1460   62.1280   71.8830 C   0  0  0  0  0  0  0  0  0  0  0  0
    4.0220   62.8560   70.5470 C   0  0  0  0  0  0  0  0  0  0  0  0
    2.7390   63.6520   70.4900 C   0  0  0  0  0  0  0  0  0  0  0  0
    2.8090   64.9790   70.2770 C   0  0  0  0  0  0  0  0  0  0  0  0
    1.6180   65.8460   70.3090 C   0  0  0  0  0  0  0  0  0  0  0  0
    1.6970   67.0470   70.0890 O   0  0  0  0  0  0  0  0  0  0  0  0
    0.3350   65.2070   70.6370 C   0  0  0  0  0  0  0  0  0  0  0  0
    0.2560   63.8860   70.8470 C   0  0  0  0  0  0  0  0  0  0  0  0
    1.4140   62.8920   70.7670 C   0  0  2  0  0  0  0  0  0  0  0  0
    1.6020   62.0880   72.1110 C   0  0  1  0  0  0  0  0  0  0  0  0
    0.4070   61.2830   72.7530 C   0  0  2  0  0  0  0  0  0  0  0  0
    0.5660   59.7530   72.8910 C   0  0  0  0  0  0  0  0  0  0  0  0
    1.1090   61.9520   69.5810 C   0  0  0  0  0  0  0  0  0  0  0  0
    2.3940   58.1680   72.2440 C   0  0  0  0  0  0  0  0  0  0  0  0
    1.5280   57.2720   74.9760 C   0  0  0  0  0  0  0  0  0  0  0  0
    0.3150   57.0510   74.8850 O   0  0  0  0  0  0  0  0  0  0  0  0
    2.4490   56.1520   75.4500 C   0  0  0  0  0  0  0  0  0  0  0  0
    2.8130   55.3030   74.3670 O   0  0  0  0  0  0  0  0  0  0  0  0
   -0.8410   61.5230   72.1170 O   0  0  0  0  0  0  0  0  0  0  0  0
    2.2600   59.8170   78.0560 C   0  0  0  0  0  0  0  0  0  0  0  0
    0.9170   57.7860   78.7040 C   0  0  0  0  0  0  0  0  0  0  0  0
    2.3120   58.3650   78.5320 C   0  0  0  0  0  0  0  0  0  0  0  0
    2.8435   61.0245   76.3943 H   0  0  0  0  0  0  0  0  0  0  0  0
    4.1969   57.8027   74.7915 H   0  0  0  0  0  0  0  0  0  0  0  0
    2.7203   61.2638   74.0623 H   0  0  0  0  0  0  0  0  0  0  0  0
    4.8019   59.3107   73.1599 H   0  0  0  0  0  0  0  0  0  0  0  0
    4.8907   60.5246   74.4180 H   0  0  0  0  0  0  0  0  0  0  0  0
    2.9521   60.5374   71.2495 H   0  0  0  0  0  0  0  0  0  0  0  0
    4.2093   62.8651   72.6971 H   0  0  0  0  0  0  0  0  0  0  0  0
    5.0536   61.5065   71.8775 H   0  0  0  0  0  0  0  0  0  0  0  0
    4.8762   63.5386   70.4270 H   0  0  0  0  0  0  0  0  0  0  0  0
    4.0124   62.1111   69.7377 H   0  0  0  0  0  0  0  0  0  0  0  0
    3.7900   65.4324   70.0718 H   0  0  0  0  0  0  0  0  0  0  0  0
   -0.5736   65.8226   70.7111 H   0  0  0  0  0  0  0  0  0  0  0  0
   -0.7341   63.4793   71.1005 H   0  0  0  0  0  0  0  0  0  0  0  0
    1.6577   62.9300   72.8166 H   0  0  0  0  0  0  0  0  0  0  0  0
    0.4305   61.6976   73.7716 H   0  0  0  0  0  0  0  0  0  0  0  0
   -0.1522   59.4103   73.6504 H   0  0  0  0  0  0  0  0  0  0  0  0
    0.3930   59.3518   71.8815 H   0  0  0  0  0  0  0  0  0  0  0  0
    0.7907   60.9709   69.9632 H   0  0  0  0  0  0  0  0  0  0  0  0
    0.3052   62.3849   68.9674 H   0  0  0  0  0  0  0  0  0  0  0  0
    2.0138   61.8305   68.9674 H   0  0  0  0  0  0  0  0  0  0  0  0
    2.7597   57.2692   72.7621 H   0  0  0  0  0  0  0  0  0  0  0  0
    1.5322   57.9029   71.6139 H   0  0  0  0  0  0  0  0  0  0  0  0
    3.1960   58.5799   71.6139 H   0  0  0  0  0  0  0  0  0  0  0  0
    3.3586   56.5927   75.8839 H   0  0  0  0  0  0  0  0  0  0  0  0
    1.9162   55.5530   76.2032 H   0  0  0  0  0  0  0  0  0  0  0  0
    3.1772   54.4535   74.7216 H   0  0  0  0  0  0  0  0  0  0  0  0
   -1.5410   61.6576   72.8040 H   0  0  0  0  0  0  0  0  0  0  0  0
    2.9601   60.4122   78.6606 H   0  0  0  0  0  0  0  0  0  0  0  0
    1.2250   60.1710   78.1722 H   0  0  0  0  0  0  0  0  0  0  0  0
    0.6889   57.6913   79.7759 H   0  0  0  0  0  0  0  0  0  0  0  0
    0.1820   58.4534   78.2303 H   0  0  0  0  0  0  0  0  0  0  0  0
    0.8706   56.7943   78.2303 H   0  0  0  0  0  0  0  0  0  0  0  0
    2.8379   58.3237   79.4973 H   0  0  0  0  0  0  0  0  0  0  0  0
    2.8415   57.7711   77.7725 H   0  0  0  0  0  0  0  0  0  0  0  0
  2  1  1  0
  3  2  1  0
  4  3  1  0
  5  4  1  0
  5  1  1  0
  6  4  1  0
  7  6  1  0
  8  7  1  0
  8  3  1  0
  9  7  1  0
 10  9  1  0
 11 10  1  0
 12 11  1  0
 13 12  2  0
 14 13  1  0
 15 14  2  0
 16 14  1  0
 17 16  2  0
 18 17  1  0
 18 12  1  0
 19 18  1  0
 19  9  1  0
 20 19  1  0
 21 20  1  0
 21  6  1  0
 18 22  1  6
  6 23  1  6
  4 24  1  6
 25 24  2  0
 26 24  1  0
 27 26  1  0
 28 20  1  0
 29  1  1  0
 31 30  1  0
 31 29  1  0
  1 32  1  6
  3 33  1  1
  7 34  1  1
  8 35  1  0
  8 36  1  0
  9 37  1  6
 10 38  1  0
 10 39  1  0
 11 40  1  0
 11 41  1  0
 13 42  1  0
 16 43  1  0
 17 44  1  0
 19 45  1  1
 20 46  1  1
 21 47  1  0
 21 48  1  0
 22 49  1  0
 22 50  1  0
 22 51  1  0
 23 52  1  0
 23 53  1  0
 23 54  1  0
 26 55  1  0
 26 56  1  0
 27 57  1  0
 28 58  1  0
 29 59  1  0
 29 60  1  0
 30 61  1  0
 30 62  1  0
 30 63  1  0
 31 64  1  0
 31 65  1  0
M  END
>  <score>  (6) 
-6.182

$$$$
=
     RDKit          3D

 65 69  0  0  0  0  0  0  0  0999 V2000
    3.1130   57.7850   75.6780 C   0  0  1  0  0  0  0  0  0  0  0  0
    3.3890   57.7950   74.2770 O   0  0  0  0  0  0  0  0  0  0  0  0
    2.1970   57.3360   73.6450 C   0  0  1  0  0  0  0  0  0  0  0  0
    1.5440   56.4080   74.6850 C   0  0  1  0  0  0  0  0  0  0  0  0
    2.0820   56.8290   75.9520 O   0  0  0  0  0  0  0  0  0  0  0  0
    0.0300   56.7640   74.5610 C   0  0  2  0  0  0  0  0  0  0  0  0
    0.1470   58.3050   74.4530 C   0  0  1  0  0  0  0  0  0  0  0  0
    1.2070   58.5010   73.3760 C   0  0  0  0  0  0  0  0  0  0  0  0
   -1.2330   58.9440   74.3950 C   0  0  2  0  0  0  0  0  0  0  0  0
   -1.2510   60.3650   73.8360 C   0  0  0  0  0  0  0  0  0  0  0  0
   -2.6880   60.8800   73.7940 C   0  0  0  0  0  0  0  0  0  0  0  0
   -3.3180   60.8140   75.1660 C   0  0  0  0  0  0  0  0  0  0  0  0
   -3.7930   61.9470   75.7150 C   0  0  0  0  0  0  0  0  0  0  0  0
   -4.3300   61.9930   77.0870 C   0  0  0  0  0  0  0  0  0  0  0  0
   -4.7800   63.0270   77.5620 O   0  0  0  0  0  0  0  0  0  0  0  0
   -4.2810   60.7460   77.8640 C   0  0  0  0  0  0  0  0  0  0  0  0
   -3.8130   59.6130   77.3240 C   0  0  0  0  0  0  0  0  0  0  0  0
   -3.3030   59.4430   75.8940 C   0  0  2  0  0  0  0  0  0  0  0  0
   -1.8220   58.9030   75.8500 C   0  0  1  0  0  0  0  0  0  0  0  0
   -1.4180   57.5720   76.5960 C   0  0  2  0  0  0  0  0  0  0  0  0
   -0.8960   56.4000   75.7380 C   0  0  0  0  0  0  0  0  0  0  0  0
   -4.2800   58.4800   75.1860 C   0  0  0  0  0  0  0  0  0  0  0  0
   -0.5670   56.1120   73.2710 C   0  0  0  0  0  0  0  0  0  0  0  0
    1.8890   54.9190   74.5210 C   0  0  0  0  0  0  0  0  0  0  0  0
    2.4240   54.4680   73.5010 O   0  0  0  0  0  0  0  0  0  0  0  0
    1.4520   53.9490   75.6150 C   0  0  0  0  0  0  0  0  0  0  0  0
    1.2010   52.6570   75.0760 O   0  0  0  0  0  0  0  0  0  0  0  0
   -2.4470   57.0590   77.4320 O   0  0  0  0  0  0  0  0  0  0  0  0
    4.3850   57.4730   76.4570 C   0  0  0  0  0  0  0  0  0  0  0  0
    5.2840   56.7000   78.6810 C   0  0  0  0  0  0  0  0  0  0  0  0
    4.1430   57.4050   77.9650 C   0  0  0  0  0  0  0  0  0  0  0  0
    2.7597   58.7766   75.9974 H   0  0  0  0  0  0  0  0  0  0  0  0
    2.4268   56.8576   72.6815 H   0  0  0  0  0  0  0  0  0  0  0  0
    0.5143   58.8767   75.3180 H   0  0  0  0  0  0  0  0  0  0  0  0
    0.7682   58.4228   72.3704 H   0  0  0  0  0  0  0  0  0  0  0  0
    1.6834   59.4919   73.4116 H   0  0  0  0  0  0  0  0  0  0  0  0
   -1.8484   58.3704   73.6863 H   0  0  0  0  0  0  0  0  0  0  0  0
   -0.6460   61.0197   74.4804 H   0  0  0  0  0  0  0  0  0  0  0  0
   -0.8335   60.3629   72.8183 H   0  0  0  0  0  0  0  0  0  0  0  0
   -2.6878   61.9236   73.4463 H   0  0  0  0  0  0  0  0  0  0  0  0
   -3.2703   60.2493   73.1061 H   0  0  0  0  0  0  0  0  0  0  0  0
   -3.7801   62.8714   75.1190 H   0  0  0  0  0  0  0  0  0  0  0  0
   -4.6344   60.7433   78.9057 H   0  0  0  0  0  0  0  0  0  0  0  0
   -3.7942   58.7228   77.9699 H   0  0  0  0  0  0  0  0  0  0  0  0
   -1.3436   59.6402   76.5116 H   0  0  0  0  0  0  0  0  0  0  0  0
   -0.5636   57.9408   77.1825 H   0  0  0  0  0  0  0  0  0  0  0  0
   -0.3402   55.7220   76.4023 H   0  0  0  0  0  0  0  0  0  0  0  0
   -1.7912   55.9580   75.2762 H   0  0  0  0  0  0  0  0  0  0  0  0
   -4.8508   57.9174   75.9394 H   0  0  0  0  0  0  0  0  0  0  0  0
   -4.9732   59.0579   74.5570 H   0  0  0  0  0  0  0  0  0  0  0  0
   -3.7122   57.7786   74.5570 H   0  0  0  0  0  0  0  0  0  0  0  0
   -1.2847   55.3282   73.5548 H   0  0  0  0  0  0  0  0  0  0  0  0
   -1.0805   56.8811   72.6754 H   0  0  0  0  0  0  0  0  0  0  0  0
    0.2443   55.6681   72.6754 H   0  0  0  0  0  0  0  0  0  0  0  0
    2.2480   53.8757   76.3706 H   0  0  0  0  0  0  0  0  0  0  0  0
    0.5245   54.3266   76.0701 H   0  0  0  0  0  0  0  0  0  0  0  0
    1.0753   52.0100   75.8147 H   0  0  0  0  0  0  0  0  0  0  0  0
   -2.1946   57.1848   78.3810 H   0  0  0  0  0  0  0  0  0  0  0  0
    4.7778   56.5030   76.1182 H   0  0  0  0  0  0  0  0  0  0  0  0
    5.1016   58.2861   76.2686 H   0  0  0  0  0  0  0  0  0  0  0  0
    5.1437   56.7867   79.7686 H   0  0  0  0  0  0  0  0  0  0  0  0
    5.2948   55.6376   78.3962 H   0  0  0  0  0  0  0  0  0  0  0  0
    6.2390   57.1657   78.3962 H   0  0  0  0  0  0  0  0  0  0  0  0
    3.2090   56.8550   78.1527 H   0  0  0  0  0  0  0  0  0  0  0  0
    4.0762   58.4330   78.3506 H   0  0  0  0  0  0  0  0  0  0  0  0
  2  1  1  0
  3  2  1  0
  4  3  1  0
  5  4  1  0
  5  1  1  0
  6  4  1  0
  7  6  1  0
  8  7  1  0
  8  3  1  0
  9  7  1  0
 10  9  1  0
 11 10  1  0
 12 11  1  0
 13 12  2  0
 14 13  1  0
 15 14  2  0
 16 14  1  0
 17 16  2  0
 18 17  1  0
 18 12  1  0
 19 18  1  0
 19  9  1  0
 20 19  1  0
 21 20  1  0
 21  6  1  0
 18 22  1  6
  6 23  1  6
  4 24  1  6
 25 24  2  0
 26 24  1  0
 27 26  1  0
 28 20  1  0
 29  1  1  0
 31 30  1  0
 31 29  1  0
  1 32  1  1
  3 33  1  6
  7 34  1  1
  8 35  1  0
  8 36  1  0
  9 37  1  6
 10 38  1  0
 10 39  1  0
 11 40  1  0
 11 41  1  0
 13 42  1  0
 16 43  1  0
 17 44  1  0
 19 45  1  1
 20 46  1  1
 21 47  1  0
 21 48  1  0
 22 49  1  0
 22 50  1  0
 22 51  1  0
 23 52  1  0
 23 53  1  0
 23 54  1  0
 26 55  1  0
 26 56  1  0
 27 57  1  0
 28 58  1  0
 29 59  1  0
 29 60  1  0
 30 61  1  0
 30 62  1  0
 30 63  1  0
 31 64  1  0
 31 65  1  0
M  END
>  <score>  (7) 
-5.91

$$$$
=
     RDKit          3D

 65 69  0  0  0  0  0  0  0  0999 V2000
   -1.6970   62.3970   75.1990 C   0  0  1  0  0  0  0  0  0  0  0  0
   -1.9000   61.1160   75.7950 O   0  0  0  0  0  0  0  0  0  0  0  0
   -3.0380   61.2580   76.6400 C   0  0  1  0  0  0  0  0  0  0  0  0
   -3.0170   62.7380   77.0660 C   0  0  1  0  0  0  0  0  0  0  0  0
   -2.2520   63.4090   76.0470 O   0  0  0  0  0  0  0  0  0  0  0  0
   -4.5240   63.1360   77.0030 C   0  0  2  0  0  0  0  0  0  0  0  0
   -4.9110   62.4270   75.6810 C   0  0  1  0  0  0  0  0  0  0  0  0
   -4.3610   61.0180   75.8640 C   0  0  0  0  0  0  0  0  0  0  0  0
   -6.3610   62.7190   75.3210 C   0  0  2  0  0  0  0  0  0  0  0  0
   -6.9780   61.7370   74.3280 C   0  0  0  0  0  0  0  0  0  0  0  0
   -8.4370   62.1120   74.0780 C   0  0  0  0  0  0  0  0  0  0  0  0
   -8.5450   63.5380   73.5900 C   0  0  0  0  0  0  0  0  0  0  0  0
   -9.1330   63.7730   72.4030 C   0  0  0  0  0  0  0  0  0  0  0  0
   -9.1900   65.1190   71.8040 C   0  0  0  0  0  0  0  0  0  0  0  0
   -9.7500   65.3190   70.7350 O   0  0  0  0  0  0  0  0  0  0  0  0
   -8.5260   66.2050   72.5410 C   0  0  0  0  0  0  0  0  0  0  0  0
   -7.9420   65.9810   73.7250 C   0  0  0  0  0  0  0  0  0  0  0  0
   -7.8910   64.6430   74.4620 C   0  0  2  0  0  0  0  0  0  0  0  0
   -6.4120   64.1880   74.7680 C   0  0  1  0  0  0  0  0  0  0  0  0
   -5.4140   65.1300   75.5480 C   0  0  2  0  0  0  0  0  0  0  0  0
   -4.8710   64.6340   76.9050 C   0  0  0  0  0  0  0  0  0  0  0  0
   -8.7100   64.8200   75.7580 C   0  0  0  0  0  0  0  0  0  0  0  0
   -5.2800   62.5560   78.2430 C   0  0  0  0  0  0  0  0  0  0  0  0
   -2.3160   63.0080   78.4080 C   0  0  0  0  0  0  0  0  0  0  0  0
   -2.1240   64.1510   78.8380 O   0  0  0  0  0  0  0  0  0  0  0  0
   -1.7400   61.8230   79.1760 C   0  0  0  0  0  0  0  0  0  0  0  0
   -0.3620   61.6420   78.8700 O   0  0  0  0  0  0  0  0  0  0  0  0
   -5.9200   66.4440   75.7490 O   0  0  0  0  0  0  0  0  0  0  0  0
   -0.2090   62.6270   74.9550 C   0  0  0  0  0  0  0  0  0  0  0  0
   -0.4650   62.0900   72.5070 C   0  0  0  0  0  0  0  0  0  0  0  0
    0.0830   63.0790   73.5240 C   0  0  0  0  0  0  0  0  0  0  0  0
   -2.2076   62.4429   74.2258 H   0  0  0  0  0  0  0  0  0  0  0  0
   -2.9976   60.5386   77.4712 H   0  0  0  0  0  0  0  0  0  0  0  0
   -4.4728   62.7801   74.7359 H   0  0  0  0  0  0  0  0  0  0  0  0
   -5.0547   60.3955   76.4482 H   0  0  0  0  0  0  0  0  0  0  0  0
   -4.2156   60.4825   74.9142 H   0  0  0  0  0  0  0  0  0  0  0  0
   -6.9719   62.6001   76.2280 H   0  0  0  0  0  0  0  0  0  0  0  0
   -6.4219   61.7769   73.3798 H   0  0  0  0  0  0  0  0  0  0  0  0
   -6.9276   60.7188   74.7412 H   0  0  0  0  0  0  0  0  0  0  0  0
   -8.8583   61.4373   73.3182 H   0  0  0  0  0  0  0  0  0  0  0  0
   -8.9935   62.0178   75.0222 H   0  0  0  0  0  0  0  0  0  0  0  0
   -9.5874   62.9311   71.8601 H   0  0  0  0  0  0  0  0  0  0  0  0
   -8.5089   67.2179   72.1125 H   0  0  0  0  0  0  0  0  0  0  0  0
   -7.4543   66.8385   74.2118 H   0  0  0  0  0  0  0  0  0  0  0  0
   -5.9885   64.2659   73.7558 H   0  0  0  0  0  0  0  0  0  0  0  0
   -4.5665   65.1224   74.8468 H   0  0  0  0  0  0  0  0  0  0  0  0
   -3.9565   65.2037   77.1269 H   0  0  0  0  0  0  0  0  0  0  0  0
   -5.6922   64.7890   77.6203 H   0  0  0  0  0  0  0  0  0  0  0  0
   -8.0533   64.6781   76.6290 H   0  0  0  0  0  0  0  0  0  0  0  0
   -9.1405   65.8319   75.7844 H   0  0  0  0  0  0  0  0  0  0  0  0
   -9.5199   64.0762   75.7844 H   0  0  0  0  0  0  0  0  0  0  0  0
   -4.8048   62.9206   79.1657 H   0  0  0  0  0  0  0  0  0  0  0  0
   -6.3302   62.8823   78.2178 H   0  0  0  0  0  0  0  0  0  0  0  0
   -5.2368   61.4571   78.2178 H   0  0  0  0  0  0  0  0  0  0  0  0
   -1.8484   62.0060   80.2552 H   0  0  0  0  0  0  0  0  0  0  0  0
   -2.2875   60.9148   78.8839 H   0  0  0  0  0  0  0  0  0  0  0  0
    0.1565   61.5739   79.7106 H   0  0  0  0  0  0  0  0  0  0  0  0
   -5.9900   66.6258   76.7196 H   0  0  0  0  0  0  0  0  0  0  0  0
    0.1475   63.4015   75.6500 H   0  0  0  0  0  0  0  0  0  0  0  0
    0.3097   61.6707   75.1175 H   0  0  0  0  0  0  0  0  0  0  0  0
   -0.9333   61.2449   73.0329 H   0  0  0  0  0  0  0  0  0  0  0  0
   -1.2147   62.5902   71.8763 H   0  0  0  0  0  0  0  0  0  0  0  0
    0.3565   61.7196   71.8763 H   0  0  0  0  0  0  0  0  0  0  0  0
    1.1716   63.1635   73.3905 H   0  0  0  0  0  0  0  0  0  0  0  0
   -0.4068   64.0504   73.3610 H   0  0  0  0  0  0  0  0  0  0  0  0
  2  1  1  0
  3  2  1  0
  4  3  1  0
  5  4  1  0
  5  1  1  0
  6  4  1  0
  7  6  1  0
  8  7  1  0
  8  3  1  0
  9  7  1  0
 10  9  1  0
 11 10  1  0
 12 11  1  0
 13 12  2  0
 14 13  1  0
 15 14  2  0
 16 14  1  0
 17 16  2  0
 18 17  1  0
 18 12  1  0
 19 18  1  0
 19  9  1  0
 20 19  1  0
 21 20  1  0
 21  6  1  0
 18 22  1  1
  6 23  1  1
  4 24  1  1
 25 24  2  0
 26 24  1  0
 27 26  1  0
 28 20  1  0
 29  1  1  0
 31 30  1  0
 31 29  1  0
  1 32  1  6
  3 33  1  1
  7 34  1  6
  8 35  1  0
  8 36  1  0
  9 37  1  1
 10 38  1  0
 10 39  1  0
 11 40  1  0
 11 41  1  0
 13 42  1  0
 16 43  1  0
 17 44  1  0
 19 45  1  6
 20 46  1  6
 21 47  1  0
 21 48  1  0
 22 49  1  0
 22 50  1  0
 22 51  1  0
 23 52  1  0
 23 53  1  0
 23 54  1  0
 26 55  1  0
 26 56  1  0
 27 57  1  0
 28 58  1  0
 29 59  1  0
 29 60  1  0
 30 61  1  0
 30 62  1  0
 30 63  1  0
 31 64  1  0
 31 65  1  0
M  END
>  <score>  (8) 
-5.685

$$$$
