=
     RDKit          3D

 54 59  0  0  0  0  0  0  0  0999 V2000
    1.2470   69.2890   67.2740 C   0  0  2  0  0  0  0  0  0  0  0  0
    1.3290   69.0920   65.7760 C   0  0  0  0  0  0  0  0  0  0  0  0
    2.5860   69.0190   65.1790 C   0  0  0  0  0  0  0  0  0  0  0  0
    2.7770   68.8470   63.8560 N   0  0  0  0  0  0  0  0  0  0  0  0
    1.6850   68.8190   63.0710 C   0  0  0  0  0  0  0  0  0  0  0  0
    0.3780   68.9180   63.5590 C   0  0  0  0  0  0  0  0  0  0  0  0
    0.1920   68.9650   64.9480 C   0  0  0  0  0  0  0  0  0  0  0  0
   -0.7330   68.8930   62.5390 C   0  0  0  0  0  0  0  0  0  0  0  0
   -0.4020   69.7580   61.3170 C   0  0  0  0  0  0  0  0  0  0  0  0
    1.0370   69.6260   60.8010 C   0  0  0  0  0  0  0  0  0  0  0  0
    1.8930   68.6410   61.5900 C   0  0  0  0  0  0  0  0  0  0  0  0
    3.7600   69.0940   65.8880 O   0  0  0  0  0  0  0  0  0  0  0  0
    3.7420   69.6470   67.1500 C   0  0  0  0  0  0  0  0  0  0  0  0
    2.5480   69.7890   67.8680 C   0  0  0  0  0  0  0  0  0  0  0  0
    2.5840   70.3680   69.1410 C   0  0  0  0  0  0  0  0  0  0  0  0
    3.7960   70.7840   69.6850 C   0  0  0  0  0  0  0  0  0  0  0  0
    4.9900   70.6240   68.9650 C   0  0  0  0  0  0  0  0  0  0  0  0
    4.9810   70.0460   67.6750 C   0  0  0  0  0  0  0  0  0  0  0  0
    6.1310   69.8910   66.9770 N   0  0  0  0  0  0  0  0  0  0  0  0
    7.2930   70.2960   67.5310 C   0  0  0  0  0  0  0  0  0  0  0  0
    7.3870   70.8680   68.7820 C   0  0  0  0  0  0  0  0  0  0  0  0
    6.2160   71.0330   69.5080 C   0  0  0  0  0  0  0  0  0  0  0  0
    1.0860   66.2150   69.5910 C   0  0  0  0  0  0  0  0  0  0  0  0
   -0.2350   65.8090   69.4070 C   0  0  0  0  0  0  0  0  0  0  0  0
   -1.0740   66.5200   68.5460 C   0  0  0  0  0  0  0  0  0  0  0  0
   -0.5950   67.6370   67.8610 C   0  0  0  0  0  0  0  0  0  0  0  0
    0.7360   68.0560   68.0230 C   0  0  0  0  0  0  0  0  0  0  0  0
    1.5620   67.3360   68.9020 C   0  0  0  0  0  0  0  0  0  0  0  0
    1.8170   64.2320   70.6810 C   0  0  0  0  0  0  0  0  0  0  0  0
    2.0060   65.6130   70.4050 O   0  0  0  0  0  0  0  0  0  0  0  0
   -1.1070   69.0950   65.4840 N   0  0  0  0  0  0  0  0  0  0  0  0
    0.4933   70.0776   67.4153 H   0  0  0  0  0  0  0  0  0  0  0  0
   -0.8904   67.8555   62.2090 H   0  0  0  0  0  0  0  0  0  0  0  0
   -1.6400   69.2992   63.0105 H   0  0  0  0  0  0  0  0  0  0  0  0
   -1.0843   69.4735   60.5024 H   0  0  0  0  0  0  0  0  0  0  0  0
   -0.5190   70.8033   61.6389 H   0  0  0  0  0  0  0  0  0  0  0  0
    0.9993   69.2897   59.7543 H   0  0  0  0  0  0  0  0  0  0  0  0
    1.5062   70.6146   60.9127 H   0  0  0  0  0  0  0  0  0  0  0  0
    1.6151   67.6148   61.3075 H   0  0  0  0  0  0  0  0  0  0  0  0
    2.9516   68.8287   61.3574 H   0  0  0  0  0  0  0  0  0  0  0  0
    1.6531   70.4948   69.7131 H   0  0  0  0  0  0  0  0  0  0  0  0
    3.8180   71.2409   70.6854 H   0  0  0  0  0  0  0  0  0  0  0  0
    8.2182   70.1621   66.9513 H   0  0  0  0  0  0  0  0  0  0  0  0
    8.3583   71.1832   69.1911 H   0  0  0  0  0  0  0  0  0  0  0  0
    6.2498   71.4850   70.5103 H   0  0  0  0  0  0  0  0  0  0  0  0
   -0.6174   64.9267   69.9411 H   0  0  0  0  0  0  0  0  0  0  0  0
   -2.1166   66.1980   68.4074 H   0  0  0  0  0  0  0  0  0  0  0  0
   -1.2646   68.1938   67.1890 H   0  0  0  0  0  0  0  0  0  0  0  0
    2.6027   67.6596   69.0515 H   0  0  0  0  0  0  0  0  0  0  0  0
    1.7955   64.0752   71.7696 H   0  0  0  0  0  0  0  0  0  0  0  0
    0.8647   63.8976   70.2436 H   0  0  0  0  0  0  0  0  0  0  0  0
    2.6444   63.6541   70.2436 H   0  0  0  0  0  0  0  0  0  0  0  0
   -1.2420   69.1294   66.5045 H   0  0  0  0  0  0  0  0  0  0  0  0
   -1.9201   69.1555   64.8547 H   0  0  0  0  0  0  0  0  0  0  0  0
  2  1  1  0
  3  2  1  0
  4  3  2  0
  5  4  1  0
  6  5  2  0
  7  6  1  0
  7  2  2  0
  8  6  1  0
  9  8  1  0
 10  9  1  0
 11 10  1  0
 11  5  1  0
 12  3  1  0
 13 12  1  0
 14 13  2  0
 14  1  1  0
 15 14  1  0
 16 15  2  0
 17 16  1  0
 18 17  2  0
 18 13  1  0
 19 18  1  0
 20 19  2  0
 21 20  1  0
 22 17  1  0
 22 21  2  0
 24 23  2  0
 25 24  1  0
 26 25  2  0
 27 26  1  0
 27  1  1  0
 28 27  2  0
 28 23  1  0
 30 29  1  0
 30 23  1  0
 31  7  1  0
  1 32  1  6
  8 33  1  0
  8 34  1  0
  9 35  1  0
  9 36  1  0
 10 37  1  0
 10 38  1  0
 11 39  1  0
 11 40  1  0
 15 41  1  0
 16 42  1  0
 20 43  1  0
 21 44  1  0
 22 45  1  0
 24 46  1  0
 25 47  1  0
 26 48  1  0
 28 49  1  0
 29 50  1  0
 29 51  1  0
 29 52  1  0
 31 53  1  0
 31 54  1  0
M  END
>  <score>  (1) 
-11.865

$$$$
=
     RDKit          3D

 54 59  0  0  0  0  0  0  0  0999 V2000
    2.9210   68.6970   64.3490 C   0  0  2  0  0  0  0  0  0  0  0  0
    3.5230   69.1530   65.6600 C   0  0  0  0  0  0  0  0  0  0  0  0
    2.7010   69.2260   66.7830 C   0  0  0  0  0  0  0  0  0  0  0  0
    3.1300   69.6190   67.9990 N   0  0  0  0  0  0  0  0  0  0  0  0
    4.4060   70.0310   68.1030 C   0  0  0  0  0  0  0  0  0  0  0  0
    5.3080   70.0320   67.0350 C   0  0  0  0  0  0  0  0  0  0  0  0
    4.8850   69.4970   65.8090 C   0  0  0  0  0  0  0  0  0  0  0  0
    6.6970   70.5480   67.3180 C   0  0  0  0  0  0  0  0  0  0  0  0
    6.6660   71.8180   68.1770 C   0  0  0  0  0  0  0  0  0  0  0  0
    5.6700   71.7870   69.3440 C   0  0  0  0  0  0  0  0  0  0  0  0
    4.8850   70.4850   69.4560 C   0  0  0  0  0  0  0  0  0  0  0  0
    1.3720   68.8820   66.7650 O   0  0  0  0  0  0  0  0  0  0  0  0
    0.7100   68.8410   65.5560 C   0  0  0  0  0  0  0  0  0  0  0  0
    1.4090   68.7720   64.3450 C   0  0  0  0  0  0  0  0  0  0  0  0
    0.6890   68.7450   63.1450 C   0  0  0  0  0  0  0  0  0  0  0  0
   -0.7030   68.7740   63.1650 C   0  0  0  0  0  0  0  0  0  0  0  0
   -1.3950   68.8270   64.3850 C   0  0  0  0  0  0  0  0  0  0  0  0
   -0.6920   68.8610   65.6100 C   0  0  0  0  0  0  0  0  0  0  0  0
   -1.3560   68.9130   66.7890 N   0  0  0  0  0  0  0  0  0  0  0  0
   -2.7050   68.9330   66.7800 C   0  0  0  0  0  0  0  0  0  0  0  0
   -3.4650   68.9040   65.6290 C   0  0  0  0  0  0  0  0  0  0  0  0
   -2.7960   68.8500   64.4140 C   0  0  0  0  0  0  0  0  0  0  0  0
    3.5230   64.8930   64.2110 C   0  0  0  0  0  0  0  0  0  0  0  0
    4.2910   64.7850   63.0530 C   0  0  0  0  0  0  0  0  0  0  0  0
    4.6120   65.9260   62.3150 C   0  0  0  0  0  0  0  0  0  0  0  0
    4.1710   67.1820   62.7330 C   0  0  0  0  0  0  0  0  0  0  0  0
    3.4080   67.3150   63.9040 C   0  0  0  0  0  0  0  0  0  0  0  0
    3.0850   66.1550   64.6280 C   0  0  0  0  0  0  0  0  0  0  0  0
    3.9960   63.5340   66.1040 C   0  0  0  0  0  0  0  0  0  0  0  0
    3.1370   63.8600   65.0200 O   0  0  0  0  0  0  0  0  0  0  0  0
    5.7520   69.5060   64.6960 N   0  0  0  0  0  0  0  0  0  0  0  0
    3.2895   69.4156   63.6021 H   0  0  0  0  0  0  0  0  0  0  0  0
    7.2643   69.7708   67.8510 H   0  0  0  0  0  0  0  0  0  0  0  0
    7.1734   70.7950   66.3578 H   0  0  0  0  0  0  0  0  0  0  0  0
    7.6728   71.9743   68.5916 H   0  0  0  0  0  0  0  0  0  0  0  0
    6.3364   72.6306   67.5129 H   0  0  0  0  0  0  0  0  0  0  0  0
    6.2291   71.9352   70.2797 H   0  0  0  0  0  0  0  0  0  0  0  0
    4.9366   72.5853   69.1572 H   0  0  0  0  0  0  0  0  0  0  0  0
    5.5338   69.7088   69.8879 H   0  0  0  0  0  0  0  0  0  0  0  0
    4.0101   70.6553   70.1007 H   0  0  0  0  0  0  0  0  0  0  0  0
    1.2236   68.7008   62.1847 H   0  0  0  0  0  0  0  0  0  0  0  0
   -1.2638   68.7553   62.2189 H   0  0  0  0  0  0  0  0  0  0  0  0
   -3.2291   68.9748   67.7462 H   0  0  0  0  0  0  0  0  0  0  0  0
   -4.5640   68.9230   65.6726 H   0  0  0  0  0  0  0  0  0  0  0  0
   -3.3658   68.8252   63.4734 H   0  0  0  0  0  0  0  0  0  0  0  0
    4.6452   63.7984   62.7196 H   0  0  0  0  0  0  0  0  0  0  0  0
    5.2154   65.8343   61.3998 H   0  0  0  0  0  0  0  0  0  0  0  0
    4.4229   68.0742   62.1410 H   0  0  0  0  0  0  0  0  0  0  0  0
    2.4761   66.2405   65.5401 H   0  0  0  0  0  0  0  0  0  0  0  0
    3.4780   63.7306   67.0543 H   0  0  0  0  0  0  0  0  0  0  0  0
    4.2688   62.4698   66.0484 H   0  0  0  0  0  0  0  0  0  0  0  0
    4.9062   64.1492   66.0484 H   0  0  0  0  0  0  0  0  0  0  0  0
    5.4397   69.1128   63.7967 H   0  0  0  0  0  0  0  0  0  0  0  0
    6.6973   69.9058   64.7827 H   0  0  0  0  0  0  0  0  0  0  0  0
  2  1  1  0
  3  2  1  0
  4  3  2  0
  5  4  1  0
  6  5  2  0
  7  6  1  0
  7  2  2  0
  8  6  1  0
  9  8  1  0
 10  9  1  0
 11 10  1  0
 11  5  1  0
 12  3  1  0
 13 12  1  0
 14 13  2  0
 14  1  1  0
 15 14  1  0
 16 15  2  0
 17 16  1  0
 18 17  2  0
 18 13  1  0
 19 18  1  0
 20 19  2  0
 21 20  1  0
 22 17  1  0
 22 21  2  0
 24 23  2  0
 25 24  1  0
 26 25  2  0
 27 26  1  0
 27  1  1  0
 28 27  2  0
 28 23  1  0
 30 29  1  0
 30 23  1  0
 31  7  1  0
  1 32  1  6
  8 33  1  0
  8 34  1  0
  9 35  1  0
  9 36  1  0
 10 37  1  0
 10 38  1  0
 11 39  1  0
 11 40  1  0
 15 41  1  0
 16 42  1  0
 20 43  1  0
 21 44  1  0
 22 45  1  0
 24 46  1  0
 25 47  1  0
 26 48  1  0
 28 49  1  0
 29 50  1  0
 29 51  1  0
 29 52  1  0
 31 53  1  0
 31 54  1  0
M  END
>  <score>  (2) 
-11.504

$$$$
=
     RDKit          3D

 54 59  0  0  0  0  0  0  0  0999 V2000
   -0.1670   60.3040   73.4940 C   0  0  2  0  0  0  0  0  0  0  0  0
    0.3920   58.9430   73.8500 C   0  0  0  0  0  0  0  0  0  0  0  0
    1.7630   58.7320   73.7310 C   0  0  0  0  0  0  0  0  0  0  0  0
    2.3680   57.5620   74.0190 N   0  0  0  0  0  0  0  0  0  0  0  0
    1.5820   56.5280   74.3690 C   0  0  0  0  0  0  0  0  0  0  0  0
    0.1920   56.6190   74.4870 C   0  0  0  0  0  0  0  0  0  0  0  0
   -0.4080   57.8740   74.3120 C   0  0  0  0  0  0  0  0  0  0  0  0
   -0.5420   55.3570   74.8680 C   0  0  0  0  0  0  0  0  0  0  0  0
   -0.0070   54.1380   74.1070 C   0  0  0  0  0  0  0  0  0  0  0  0
    1.5210   54.0630   73.9970 C   0  0  0  0  0  0  0  0  0  0  0  0
    2.2520   55.2150   74.6780 C   0  0  0  0  0  0  0  0  0  0  0  0
    2.6420   59.7070   73.3260 O   0  0  0  0  0  0  0  0  0  0  0  0
    2.1560   60.7990   72.6400 C   0  0  0  0  0  0  0  0  0  0  0  0
    0.7950   61.1290   72.6650 C   0  0  0  0  0  0  0  0  0  0  0  0
    0.3510   62.2420   71.9410 C   0  0  0  0  0  0  0  0  0  0  0  0
    1.2590   63.0110   71.2180 C   0  0  0  0  0  0  0  0  0  0  0  0
    2.6230   62.6820   71.2110 C   0  0  0  0  0  0  0  0  0  0  0  0
    3.0970   61.5610   71.9290 C   0  0  0  0  0  0  0  0  0  0  0  0
    4.4110   61.2390   71.9250 N   0  0  0  0  0  0  0  0  0  0  0  0
    5.2700   62.0070   71.2210 C   0  0  0  0  0  0  0  0  0  0  0  0
    4.8900   63.1150   70.4940 C   0  0  0  0  0  0  0  0  0  0  0  0
    3.5440   63.4550   70.4910 C   0  0  0  0  0  0  0  0  0  0  0  0
   -2.4210   62.3440   75.8600 C   0  0  0  0  0  0  0  0  0  0  0  0
   -1.5770   62.5130   76.9560 C   0  0  0  0  0  0  0  0  0  0  0  0
   -0.2900   61.9720   76.9400 C   0  0  0  0  0  0  0  0  0  0  0  0
    0.1610   61.2630   75.8270 C   0  0  0  0  0  0  0  0  0  0  0  0
   -0.6680   61.0920   74.7070 C   0  0  0  0  0  0  0  0  0  0  0  0
   -1.9640   61.6340   74.7450 C   0  0  0  0  0  0  0  0  0  0  0  0
   -4.7240   61.8590   75.5150 C   0  0  0  0  0  0  0  0  0  0  0  0
   -3.7000   62.8170   75.7490 O   0  0  0  0  0  0  0  0  0  0  0  0
   -1.8100   58.0060   74.3920 N   0  0  0  0  0  0  0  0  0  0  0  0
   -1.0480   60.0952   72.8694 H   0  0  0  0  0  0  0  0  0  0  0  0
   -0.4193   55.1853   75.9476 H   0  0  0  0  0  0  0  0  0  0  0  0
   -1.6029   55.4854   74.6074 H   0  0  0  0  0  0  0  0  0  0  0  0
   -0.3569   53.2323   74.6239 H   0  0  0  0  0  0  0  0  0  0  0  0
   -0.3857   54.2269   73.0781 H   0  0  0  0  0  0  0  0  0  0  0  0
    1.8546   53.1216   74.4580 H   0  0  0  0  0  0  0  0  0  0  0  0
    1.7650   54.1217   72.9260 H   0  0  0  0  0  0  0  0  0  0  0  0
    2.2456   55.0537   75.7661 H   0  0  0  0  0  0  0  0  0  0  0  0
    3.2856   55.2487   74.3030 H   0  0  0  0  0  0  0  0  0  0  0  0
   -0.7161   62.5091   71.9434 H   0  0  0  0  0  0  0  0  0  0  0  0
    0.9045   63.8826   70.6483 H   0  0  0  0  0  0  0  0  0  0  0  0
    6.3352   61.7325   71.2280 H   0  0  0  0  0  0  0  0  0  0  0  0
    5.6281   63.7093   69.9354 H   0  0  0  0  0  0  0  0  0  0  0  0
    3.2000   64.3319   69.9230 H   0  0  0  0  0  0  0  0  0  0  0  0
   -1.9256   63.0739   77.8357 H   0  0  0  0  0  0  0  0  0  0  0  0
    0.3711   62.1056   77.8090 H   0  0  0  0  0  0  0  0  0  0  0  0
    1.1741   60.8345   75.8267 H   0  0  0  0  0  0  0  0  0  0  0  0
   -2.6316   61.4973   73.8815 H   0  0  0  0  0  0  0  0  0  0  0  0
   -5.1128   61.4953   76.4776 H   0  0  0  0  0  0  0  0  0  0  0  0
   -5.5394   62.3261   74.9432 H   0  0  0  0  0  0  0  0  0  0  0  0
   -4.3122   61.0144   74.9432 H   0  0  0  0  0  0  0  0  0  0  0  0
   -2.2486   58.9290   74.2631 H   0  0  0  0  0  0  0  0  0  0  0  0
   -2.3952   57.1794   74.5793 H   0  0  0  0  0  0  0  0  0  0  0  0
  2  1  1  0
  3  2  1  0
  4  3  2  0
  5  4  1  0
  6  5  2  0
  7  6  1  0
  7  2  2  0
  8  6  1  0
  9  8  1  0
 10  9  1  0
 11 10  1  0
 11  5  1  0
 12  3  1  0
 13 12  1  0
 14 13  2  0
 14  1  1  0
 15 14  1  0
 16 15  2  0
 17 16  1  0
 18 17  2  0
 18 13  1  0
 19 18  1  0
 20 19  2  0
 21 20  1  0
 22 17  1  0
 22 21  2  0
 24 23  2  0
 25 24  1  0
 26 25  2  0
 27 26  1  0
 27  1  1  0
 28 27  2  0
 28 23  1  0
 30 29  1  0
 30 23  1  0
 31  7  1  0
  1 32  1  6
  8 33  1  0
  8 34  1  0
  9 35  1  0
  9 36  1  0
 10 37  1  0
 10 38  1  0
 11 39  1  0
 11 40  1  0
 15 41  1  0
 16 42  1  0
 20 43  1  0
 21 44  1  0
 22 45  1  0
 24 46  1  0
 25 47  1  0
 26 48  1  0
 28 49  1  0
 29 50  1  0
 29 51  1  0
 29 52  1  0
 31 53  1  0
 31 54  1  0
M  END
>  <score>  (3) 
-10.146

$$$$
=
     RDKit          3D

 54 59  0  0  0  0  0  0  0  0999 V2000
    0.8690   60.4820   74.7330 C   0  0  2  0  0  0  0  0  0  0  0  0
    1.4660   60.7800   73.3740 C   0  0  0  0  0  0  0  0  0  0  0  0
    1.7830   59.7140   72.5360 C   0  0  0  0  0  0  0  0  0  0  0  0
    2.3190   59.8620   71.3070 N   0  0  0  0  0  0  0  0  0  0  0  0
    2.6270   61.1100   70.9120 C   0  0  0  0  0  0  0  0  0  0  0  0
    2.3830   62.2490   71.6860 C   0  0  0  0  0  0  0  0  0  0  0  0
    1.7070   62.0900   72.9050 C   0  0  0  0  0  0  0  0  0  0  0  0
    2.8120   63.5720   71.1030 C   0  0  0  0  0  0  0  0  0  0  0  0
    4.1960   63.4840   70.4500 C   0  0  0  0  0  0  0  0  0  0  0  0
    4.4330   62.2260   69.6040 C   0  0  0  0  0  0  0  0  0  0  0  0
    3.2390   61.2790   69.5470 C   0  0  0  0  0  0  0  0  0  0  0  0
    1.5600   58.4010   72.8720 O   0  0  0  0  0  0  0  0  0  0  0  0
    1.3940   58.0720   74.2000 C   0  0  0  0  0  0  0  0  0  0  0  0
    1.0760   59.0440   75.1570 C   0  0  0  0  0  0  0  0  0  0  0  0
    0.9300   58.6580   76.4950 C   0  0  0  0  0  0  0  0  0  0  0  0
    1.0850   57.3230   76.8580 C   0  0  0  0  0  0  0  0  0  0  0  0
    1.3870   56.3540   75.8890 C   0  0  0  0  0  0  0  0  0  0  0  0
    1.5460   56.7170   74.5320 C   0  0  0  0  0  0  0  0  0  0  0  0
    1.8380   55.7850   73.5950 N   0  0  0  0  0  0  0  0  0  0  0  0
    1.9760   54.4970   73.9730 C   0  0  0  0  0  0  0  0  0  0  0  0
    1.8380   54.0610   75.2740 C   0  0  0  0  0  0  0  0  0  0  0  0
    1.5390   55.0060   76.2450 C   0  0  0  0  0  0  0  0  0  0  0  0
   -2.3980   62.0920   75.9920 C   0  0  0  0  0  0  0  0  0  0  0  0
   -3.3060   61.6380   75.0370 C   0  0  0  0  0  0  0  0  0  0  0  0
   -2.8740   60.8210   73.9900 C   0  0  0  0  0  0  0  0  0  0  0  0
   -1.5320   60.4510   73.8940 C   0  0  0  0  0  0  0  0  0  0  0  0
   -0.6030   60.8870   74.8520 C   0  0  0  0  0  0  0  0  0  0  0  0
   -1.0540   61.7170   75.8930 C   0  0  0  0  0  0  0  0  0  0  0  0
   -2.4100   64.2820   76.9170 C   0  0  0  0  0  0  0  0  0  0  0  0
   -2.6880   62.8950   77.0600 O   0  0  0  0  0  0  0  0  0  0  0  0
    1.4660   63.2070   73.7320 N   0  0  0  0  0  0  0  0  0  0  0  0
    1.4284   61.1178   75.4350 H   0  0  0  0  0  0  0  0  0  0  0  0
    2.0788   63.8809   70.3434 H   0  0  0  0  0  0  0  0  0  0  0  0
    2.8659   64.3050   71.9214 H   0  0  0  0  0  0  0  0  0  0  0  0
    4.3233   64.3620   69.7997 H   0  0  0  0  0  0  0  0  0  0  0  0
    4.9236   63.4429   71.2740 H   0  0  0  0  0  0  0  0  0  0  0  0
    4.6737   62.5403   68.5777 H   0  0  0  0  0  0  0  0  0  0  0  0
    5.2541   61.6722   70.0828 H   0  0  0  0  0  0  0  0  0  0  0  0
    2.4839   61.6911   68.8614 H   0  0  0  0  0  0  0  0  0  0  0  0
    3.5836   60.2971   69.1904 H   0  0  0  0  0  0  0  0  0  0  0  0
    0.6924   59.4111   77.2608 H   0  0  0  0  0  0  0  0  0  0  0  0
    0.9700   57.0259   77.9109 H   0  0  0  0  0  0  0  0  0  0  0  0
    2.2121   53.7520   73.1989 H   0  0  0  0  0  0  0  0  0  0  0  0
    1.9609   52.9991   75.5334 H   0  0  0  0  0  0  0  0  0  0  0  0
    1.4211   54.6978   77.2943 H   0  0  0  0  0  0  0  0  0  0  0  0
   -4.3658   61.9240   75.1082 H   0  0  0  0  0  0  0  0  0  0  0  0
   -3.5947   60.4677   73.2378 H   0  0  0  0  0  0  0  0  0  0  0  0
   -1.1996   59.8131   73.0617 H   0  0  0  0  0  0  0  0  0  0  0  0
   -0.3363   62.0785   76.6441 H   0  0  0  0  0  0  0  0  0  0  0  0
   -2.3178   64.7420   77.9120 H   0  0  0  0  0  0  0  0  0  0  0  0
   -1.4679   64.4121   76.3642 H   0  0  0  0  0  0  0  0  0  0  0  0
   -3.2292   64.7651   76.3642 H   0  0  0  0  0  0  0  0  0  0  0  0
    0.9695   63.0879   74.6265 H   0  0  0  0  0  0  0  0  0  0  0  0
    1.7865   64.1417   73.4413 H   0  0  0  0  0  0  0  0  0  0  0  0
  2  1  1  0
  3  2  1  0
  4  3  2  0
  5  4  1  0
  6  5  2  0
  7  6  1  0
  7  2  2  0
  8  6  1  0
  9  8  1  0
 10  9  1  0
 11 10  1  0
 11  5  1  0
 12  3  1  0
 13 12  1  0
 14 13  2  0
 14  1  1  0
 15 14  1  0
 16 15  2  0
 17 16  1  0
 18 17  2  0
 18 13  1  0
 19 18  1  0
 20 19  2  0
 21 20  1  0
 22 17  1  0
 22 21  2  0
 24 23  2  0
 25 24  1  0
 26 25  2  0
 27 26  1  0
 27  1  1  0
 28 27  2  0
 28 23  1  0
 30 29  1  0
 30 23  1  0
 31  7  1  0
  1 32  1  1
  8 33  1  0
  8 34  1  0
  9 35  1  0
  9 36  1  0
 10 37  1  0
 10 38  1  0
 11 39  1  0
 11 40  1  0
 15 41  1  0
 16 42  1  0
 20 43  1  0
 21 44  1  0
 22 45  1  0
 24 46  1  0
 25 47  1  0
 26 48  1  0
 28 49  1  0
 29 50  1  0
 29 51  1  0
 29 52  1  0
 31 53  1  0
 31 54  1  0
M  END
>  <score>  (4) 
-9.54

$$$$
=
     RDKit          3D

 54 59  0  0  0  0  0  0  0  0999 V2000
    0.0570   59.8030   74.1450 C   0  0  2  0  0  0  0  0  0  0  0  0
    0.4530   58.3450   74.2230 C   0  0  0  0  0  0  0  0  0  0  0  0
    1.5850   57.9220   73.5310 C   0  0  0  0  0  0  0  0  0  0  0  0
    2.0300   56.6490   73.5290 N   0  0  0  0  0  0  0  0  0  0  0  0
    1.2870   55.7330   74.1760 C   0  0  0  0  0  0  0  0  0  0  0  0
    0.1160   56.0400   74.8750 C   0  0  0  0  0  0  0  0  0  0  0  0
   -0.2610   57.3880   74.9770 C   0  0  0  0  0  0  0  0  0  0  0  0
   -0.6090   54.8890   75.5270 C   0  0  0  0  0  0  0  0  0  0  0  0
   -0.6750   53.6650   74.6060 C   0  0  0  0  0  0  0  0  0  0  0  0
    0.6260   53.3500   73.8550 C   0  0  0  0  0  0  0  0  0  0  0  0
    1.7710   54.3080   74.1650 C   0  0  0  0  0  0  0  0  0  0  0  0
    2.3770   58.7700   72.7950 O   0  0  0  0  0  0  0  0  0  0  0  0
    1.8570   59.9790   72.3850 C   0  0  0  0  0  0  0  0  0  0  0  0
    0.7180   60.5250   72.9890 C   0  0  0  0  0  0  0  0  0  0  0  0
    0.2240   61.7500   72.5280 C   0  0  0  0  0  0  0  0  0  0  0  0
    0.8700   62.4170   71.4900 C   0  0  0  0  0  0  0  0  0  0  0  0
    2.0210   61.8700   70.9020 C   0  0  0  0  0  0  0  0  0  0  0  0
    2.5370   60.6320   71.3450 C   0  0  0  0  0  0  0  0  0  0  0  0
    3.6460   60.1010   70.7800 N   0  0  0  0  0  0  0  0  0  0  0  0
    4.2570   60.7720   69.7810 C   0  0  0  0  0  0  0  0  0  0  0  0
    3.8180   61.9830   69.2900 C   0  0  0  0  0  0  0  0  0  0  0  0
    2.6810   62.5380   69.8610 C   0  0  0  0  0  0  0  0  0  0  0  0
    1.6500   61.1740   77.3750 C   0  0  0  0  0  0  0  0  0  0  0  0
    0.6230   61.9830   77.8580 C   0  0  0  0  0  0  0  0  0  0  0  0
   -0.5760   62.0930   77.1510 C   0  0  0  0  0  0  0  0  0  0  0  0
   -0.7550   61.3910   75.9580 C   0  0  0  0  0  0  0  0  0  0  0  0
    0.2620   60.5610   75.4590 C   0  0  0  0  0  0  0  0  0  0  0  0
    1.4650   60.4710   76.1790 C   0  0  0  0  0  0  0  0  0  0  0  0
    2.8930   60.9010   79.3840 C   0  0  0  0  0  0  0  0  0  0  0  0
    2.8690   60.9820   77.9650 O   0  0  0  0  0  0  0  0  0  0  0  0
   -1.4510   57.7410   75.6480 N   0  0  0  0  0  0  0  0  0  0  0  0
   -1.0262   59.7925   73.9539 H   0  0  0  0  0  0  0  0  0  0  0  0
   -0.0799   54.6119   76.4507 H   0  0  0  0  0  0  0  0  0  0  0  0
   -1.6383   55.2109   75.7435 H   0  0  0  0  0  0  0  0  0  0  0  0
   -0.9360   52.7898   75.2191 H   0  0  0  0  0  0  0  0  0  0  0  0
   -1.4263   53.8979   73.8370 H   0  0  0  0  0  0  0  0  0  0  0  0
    0.9438   52.3325   74.1263 H   0  0  0  0  0  0  0  0  0  0  0  0
    0.4064   53.4545   72.7822 H   0  0  0  0  0  0  0  0  0  0  0  0
    2.1901   54.0618   75.1518 H   0  0  0  0  0  0  0  0  0  0  0  0
    2.5399   54.2027   73.3855 H   0  0  0  0  0  0  0  0  0  0  0  0
   -0.6757   62.1869   72.9859 H   0  0  0  0  0  0  0  0  0  0  0  0
    0.4757   63.3783   71.1288 H   0  0  0  0  0  0  0  0  0  0  0  0
    5.1574   60.3268   69.3326 H   0  0  0  0  0  0  0  0  0  0  0  0
    4.3507   62.4923   68.4734 H   0  0  0  0  0  0  0  0  0  0  0  0
    2.2976   63.5025   69.4965 H   0  0  0  0  0  0  0  0  0  0  0  0
    0.7574   62.5365   78.7990 H   0  0  0  0  0  0  0  0  0  0  0  0
   -1.3822   62.7350   77.5355 H   0  0  0  0  0  0  0  0  0  0  0  0
   -1.7004   61.4887   75.4041 H   0  0  0  0  0  0  0  0  0  0  0  0
    2.2771   59.8359   75.7954 H   0  0  0  0  0  0  0  0  0  0  0  0
    2.6051   61.8727   79.8116 H   0  0  0  0  0  0  0  0  0  0  0  0
    2.1851   60.1287   79.7192 H   0  0  0  0  0  0  0  0  0  0  0  0
    3.9074   60.6390   79.7192 H   0  0  0  0  0  0  0  0  0  0  0  0
   -1.7263   58.7308   75.7220 H   0  0  0  0  0  0  0  0  0  0  0  0
   -2.0444   57.0089   76.0638 H   0  0  0  0  0  0  0  0  0  0  0  0
  2  1  1  0
  3  2  1  0
  4  3  2  0
  5  4  1  0
  6  5  2  0
  7  6  1  0
  7  2  2  0
  8  6  1  0
  9  8  1  0
 10  9  1  0
 11 10  1  0
 11  5  1  0
 12  3  1  0
 13 12  1  0
 14 13  2  0
 14  1  1  0
 15 14  1  0
 16 15  2  0
 17 16  1  0
 18 17  2  0
 18 13  1  0
 19 18  1  0
 20 19  2  0
 21 20  1  0
 22 17  1  0
 22 21  2  0
 24 23  2  0
 25 24  1  0
 26 25  2  0
 27 26  1  0
 27  1  1  0
 28 27  2  0
 28 23  1  0
 30 29  1  0
 30 23  1  0
 31  7  1  0
  1 32  1  6
  8 33  1  0
  8 34  1  0
  9 35  1  0
  9 36  1  0
 10 37  1  0
 10 38  1  0
 11 39  1  0
 11 40  1  0
 15 41  1  0
 16 42  1  0
 20 43  1  0
 21 44  1  0
 22 45  1  0
 24 46  1  0
 25 47  1  0
 26 48  1  0
 28 49  1  0
 29 50  1  0
 29 51  1  0
 29 52  1  0
 31 53  1  0
 31 54  1  0
M  END
>  <score>  (5) 
-9.482

$$$$
=
     RDKit          3D

 54 59  0  0  0  0  0  0  0  0999 V2000
    1.2640   61.3370   74.7410 C   0  0  2  0  0  0  0  0  0  0  0  0
    1.8210   61.0420   73.3650 C   0  0  0  0  0  0  0  0  0  0  0  0
    2.6130   59.9100   73.1930 C   0  0  0  0  0  0  0  0  0  0  0  0
    3.1600   59.5510   72.0140 N   0  0  0  0  0  0  0  0  0  0  0  0
    2.9840   60.3820   70.9710 C   0  0  0  0  0  0  0  0  0  0  0  0
    2.2360   61.5610   71.0390 C   0  0  0  0  0  0  0  0  0  0  0  0
    1.5660   61.8530   72.2360 C   0  0  0  0  0  0  0  0  0  0  0  0
    2.1580   62.3910   69.7820 C   0  0  0  0  0  0  0  0  0  0  0  0
    3.5190   62.4940   69.0840 C   0  0  0  0  0  0  0  0  0  0  0  0
    4.3150   61.1830   69.0200 C   0  0  0  0  0  0  0  0  0  0  0  0
    3.6050   59.9930   69.6560 C   0  0  0  0  0  0  0  0  0  0  0  0
    2.8980   59.0310   74.2090 O   0  0  0  0  0  0  0  0  0  0  0  0
    2.7500   59.4500   75.5140 C   0  0  0  0  0  0  0  0  0  0  0  0
    1.9840   60.5770   75.8350 C   0  0  0  0  0  0  0  0  0  0  0  0
    1.8760   60.9670   77.1750 C   0  0  0  0  0  0  0  0  0  0  0  0
    2.5130   60.2300   78.1690 C   0  0  0  0  0  0  0  0  0  0  0  0
    3.2650   59.0920   77.8400 C   0  0  0  0  0  0  0  0  0  0  0  0
    3.3950   58.6800   76.4940 C   0  0  0  0  0  0  0  0  0  0  0  0
    4.1200   57.5830   76.1720 N   0  0  0  0  0  0  0  0  0  0  0  0
    4.7210   56.8840   77.1570 C   0  0  0  0  0  0  0  0  0  0  0  0
    4.6450   57.2180   78.4930 C   0  0  0  0  0  0  0  0  0  0  0  0
    3.9040   58.3410   78.8360 C   0  0  0  0  0  0  0  0  0  0  0  0
   -2.4730   61.9720   75.4300 C   0  0  0  0  0  0  0  0  0  0  0  0
   -3.0350   60.7770   74.9850 C   0  0  0  0  0  0  0  0  0  0  0  0
   -2.2200   59.7710   74.4620 C   0  0  0  0  0  0  0  0  0  0  0  0
   -0.8390   59.9530   74.3840 C   0  0  0  0  0  0  0  0  0  0  0  0
   -0.2510   61.1440   74.8390 C   0  0  0  0  0  0  0  0  0  0  0  0
   -1.0870   62.1500   75.3520 C   0  0  0  0  0  0  0  0  0  0  0  0
   -2.3970   63.9820   76.6990 C   0  0  0  0  0  0  0  0  0  0  0  0
   -3.1540   63.0340   75.9580 O   0  0  0  0  0  0  0  0  0  0  0  0
    0.8240   63.0470   72.3600 N   0  0  0  0  0  0  0  0  0  0  0  0
    1.4547   62.4085   74.9007 H   0  0  0  0  0  0  0  0  0  0  0  0
    1.4381   61.9262   69.0923 H   0  0  0  0  0  0  0  0  0  0  0  0
    1.8385   63.4059   70.0610 H   0  0  0  0  0  0  0  0  0  0  0  0
    3.3491   62.8409   68.0541 H   0  0  0  0  0  0  0  0  0  0  0  0
    4.1214   63.1909   69.6852 H   0  0  0  0  0  0  0  0  0  0  0  0
    4.5069   60.9464   67.9630 H   0  0  0  0  0  0  0  0  0  0  0  0
    5.2397   61.3446   69.5934 H   0  0  0  0  0  0  0  0  0  0  0  0
    2.8168   59.6376   68.9760 H   0  0  0  0  0  0  0  0  0  0  0  0
    4.3426   59.1971   69.8359 H   0  0  0  0  0  0  0  0  0  0  0  0
    1.2872   61.8567   77.4426 H   0  0  0  0  0  0  0  0  0  0  0  0
    2.4263   60.5419   79.2203 H   0  0  0  0  0  0  0  0  0  0  0  0
    5.3062   55.9953   76.8782 H   0  0  0  0  0  0  0  0  0  0  0  0
    5.1537   56.6157   79.2601 H   0  0  0  0  0  0  0  0  0  0  0  0
    3.8184   58.6416   79.8907 H   0  0  0  0  0  0  0  0  0  0  0  0
   -4.1229   60.6259   75.0459 H   0  0  0  0  0  0  0  0  0  0  0  0
   -2.6690   58.8306   74.1098 H   0  0  0  0  0  0  0  0  0  0  0  0
   -0.2063   59.1577   73.9630 H   0  0  0  0  0  0  0  0  0  0  0  0
   -0.6439   63.0952   75.6988 H   0  0  0  0  0  0  0  0  0  0  0  0
   -2.5391   63.8041   77.7752 H   0  0  0  0  0  0  0  0  0  0  0  0
   -1.3312   63.8773   76.4476 H   0  0  0  0  0  0  0  0  0  0  0  0
   -2.7349   64.9982   76.4476 H   0  0  0  0  0  0  0  0  0  0  0  0
    0.3329   63.2591   73.2402 H   0  0  0  0  0  0  0  0  0  0  0  0
    0.7736   63.7064   71.5703 H   0  0  0  0  0  0  0  0  0  0  0  0
  2  1  1  0
  3  2  1  0
  4  3  2  0
  5  4  1  0
  6  5  2  0
  7  6  1  0
  7  2  2  0
  8  6  1  0
  9  8  1  0
 10  9  1  0
 11 10  1  0
 11  5  1  0
 12  3  1  0
 13 12  1  0
 14 13  2  0
 14  1  1  0
 15 14  1  0
 16 15  2  0
 17 16  1  0
 18 17  2  0
 18 13  1  0
 19 18  1  0
 20 19  2  0
 21 20  1  0
 22 17  1  0
 22 21  2  0
 24 23  2  0
 25 24  1  0
 26 25  2  0
 27 26  1  0
 27  1  1  0
 28 27  2  0
 28 23  1  0
 30 29  1  0
 30 23  1  0
 31  7  1  0
  1 32  1  1
  8 33  1  0
  8 34  1  0
  9 35  1  0
  9 36  1  0
 10 37  1  0
 10 38  1  0
 11 39  1  0
 11 40  1  0
 15 41  1  0
 16 42  1  0
 20 43  1  0
 21 44  1  0
 22 45  1  0
 24 46  1  0
 25 47  1  0
 26 48  1  0
 28 49  1  0
 29 50  1  0
 29 51  1  0
 29 52  1  0
 31 53  1  0
 31 54  1  0
M  END
>  <score>  (6) 
-9.215

$$$$
=
     RDKit          3D

 54 59  0  0  0  0  0  0  0  0999 V2000
    1.8900   59.9820   75.0040 C   0  0  2  0  0  0  0  0  0  0  0  0
    0.7300   60.8490   75.4440 C   0  0  0  0  0  0  0  0  0  0  0  0
    0.3470   61.9150   74.6330 C   0  0  0  0  0  0  0  0  0  0  0  0
   -0.6690   62.7510   74.9270 N   0  0  0  0  0  0  0  0  0  0  0  0
   -1.2920   62.5790   76.1070 C   0  0  0  0  0  0  0  0  0  0  0  0
   -0.9680   61.5630   77.0110 C   0  0  0  0  0  0  0  0  0  0  0  0
    0.0030   60.6230   76.6330 C   0  0  0  0  0  0  0  0  0  0  0  0
   -1.7500   61.5260   78.3000 C   0  0  0  0  0  0  0  0  0  0  0  0
   -1.9320   62.9270   78.8960 C   0  0  0  0  0  0  0  0  0  0  0  0
   -2.2910   64.0200   77.8800 C   0  0  0  0  0  0  0  0  0  0  0  0
   -2.4180   63.5190   76.4450 C   0  0  0  0  0  0  0  0  0  0  0  0
    0.9580   62.2080   73.4380 O   0  0  0  0  0  0  0  0  0  0  0  0
    2.2210   61.7120   73.1960 C   0  0  0  0  0  0  0  0  0  0  0  0
    2.7390   60.6430   73.9380 C   0  0  0  0  0  0  0  0  0  0  0  0
    4.0320   60.1860   73.6600 C   0  0  0  0  0  0  0  0  0  0  0  0
    4.7810   60.7810   72.6490 C   0  0  0  0  0  0  0  0  0  0  0  0
    4.2470   61.8410   71.8990 C   0  0  0  0  0  0  0  0  0  0  0  0
    2.9460   62.3260   72.1630 C   0  0  0  0  0  0  0  0  0  0  0  0
    2.4280   63.3480   71.4430 N   0  0  0  0  0  0  0  0  0  0  0  0
    3.1730   63.9030   70.4640 C   0  0  0  0  0  0  0  0  0  0  0  0
    4.4490   63.4900   70.1430 C   0  0  0  0  0  0  0  0  0  0  0  0
    4.9910   62.4420   70.8740 C   0  0  0  0  0  0  0  0  0  0  0  0
    1.6670   56.1440   74.7610 C   0  0  0  0  0  0  0  0  0  0  0  0
    0.6640   55.9930   73.8050 C   0  0  0  0  0  0  0  0  0  0  0  0
    0.0570   57.1170   73.2420 C   0  0  0  0  0  0  0  0  0  0  0  0
    0.4520   58.3980   73.6280 C   0  0  0  0  0  0  0  0  0  0  0  0
    1.4700   58.5730   74.5800 C   0  0  0  0  0  0  0  0  0  0  0  0
    2.0620   57.4300   75.1440 C   0  0  0  0  0  0  0  0  0  0  0  0
    1.9080   53.8040   75.1130 C   0  0  0  0  0  0  0  0  0  0  0  0
    2.3370   55.1310   75.3900 O   0  0  0  0  0  0  0  0  0  0  0  0
    0.3830   59.6000   77.5270 N   0  0  0  0  0  0  0  0  0  0  0  0
    2.5149   59.8670   75.9019 H   0  0  0  0  0  0  0  0  0  0  0  0
   -2.7411   61.0914   78.1028 H   0  0  0  0  0  0  0  0  0  0  0  0
   -1.1881   60.9170   79.0235 H   0  0  0  0  0  0  0  0  0  0  0  0
   -2.7370   62.8781   79.6441 H   0  0  0  0  0  0  0  0  0  0  0  0
   -0.9581   63.2098   79.3221 H   0  0  0  0  0  0  0  0  0  0  0  0
   -3.2521   64.4652   78.1768 H   0  0  0  0  0  0  0  0  0  0  0  0
   -1.4650   64.7463   77.8904 H   0  0  0  0  0  0  0  0  0  0  0  0
   -3.3759   62.9905   76.3307 H   0  0  0  0  0  0  0  0  0  0  0  0
   -2.3741   64.3820   75.7644 H   0  0  0  0  0  0  0  0  0  0  0  0
    4.4573   59.3549   74.2416 H   0  0  0  0  0  0  0  0  0  0  0  0
    5.7976   60.4186   72.4363 H   0  0  0  0  0  0  0  0  0  0  0  0
    2.7371   64.7330   69.8887 H   0  0  0  0  0  0  0  0  0  0  0  0
    5.0176   63.9744   69.3355 H   0  0  0  0  0  0  0  0  0  0  0  0
    6.0059   62.0824   70.6487 H   0  0  0  0  0  0  0  0  0  0  0  0
    0.3500   54.9859   73.4934 H   0  0  0  0  0  0  0  0  0  0  0  0
   -0.7365   56.9920   72.4905 H   0  0  0  0  0  0  0  0  0  0  0  0
   -0.0372   59.2774   73.1837 H   0  0  0  0  0  0  0  0  0  0  0  0
    2.8511   57.5489   75.9011 H   0  0  0  0  0  0  0  0  0  0  0  0
    1.7352   53.2696   76.0588 H   0  0  0  0  0  0  0  0  0  0  0  0
    0.9738   53.8342   74.5330 H   0  0  0  0  0  0  0  0  0  0  0  0
    2.6830   53.2816   74.5330 H   0  0  0  0  0  0  0  0  0  0  0  0
    1.0958   58.9108   77.2481 H   0  0  0  0  0  0  0  0  0  0  0  0
   -0.0524   59.5423   78.4587 H   0  0  0  0  0  0  0  0  0  0  0  0
  2  1  1  0
  3  2  1  0
  4  3  2  0
  5  4  1  0
  6  5  2  0
  7  6  1  0
  7  2  2  0
  8  6  1  0
  9  8  1  0
 10  9  1  0
 11 10  1  0
 11  5  1  0
 12  3  1  0
 13 12  1  0
 14 13  2  0
 14  1  1  0
 15 14  1  0
 16 15  2  0
 17 16  1  0
 18 17  2  0
 18 13  1  0
 19 18  1  0
 20 19  2  0
 21 20  1  0
 22 17  1  0
 22 21  2  0
 24 23  2  0
 25 24  1  0
 26 25  2  0
 27 26  1  0
 27  1  1  0
 28 27  2  0
 28 23  1  0
 30 29  1  0
 30 23  1  0
 31  7  1  0
  1 32  1  1
  8 33  1  0
  8 34  1  0
  9 35  1  0
  9 36  1  0
 10 37  1  0
 10 38  1  0
 11 39  1  0
 11 40  1  0
 15 41  1  0
 16 42  1  0
 20 43  1  0
 21 44  1  0
 22 45  1  0
 24 46  1  0
 25 47  1  0
 26 48  1  0
 28 49  1  0
 29 50  1  0
 29 51  1  0
 29 52  1  0
 31 53  1  0
 31 54  1  0
M  END
>  <score>  (7) 
-9.025

$$$$
