=
     RDKit          3D

 50 52  0  0  0  0  0  0  0  0999 V2000
   -0.3650   66.0040   69.1540 C   0  0  0  0  0  0  0  0  0  0  0  0
   -0.3280   67.3230   68.3640 C   0  0  0  0  0  0  0  0  0  0  0  0
   -1.2550   67.2520   67.1350 C   0  0  0  0  0  0  0  0  0  0  0  0
   -0.7930   68.1940   66.0400 C   0  0  0  0  0  0  0  0  0  0  0  0
    0.5660   67.7630   65.5360 N   0  0  0  0  0  4  0  0  0  0  0  0
    1.4840   67.1840   66.5960 C   0  0  0  0  0  0  0  0  0  0  0  0
    1.1090   67.7050   67.9750 C   0  0  0  0  0  0  0  0  0  0  0  0
    1.2110   68.8500   64.6990 C   0  0  0  0  0  0  0  0  0  0  0  0
    2.7110   68.7400   64.6520 C   0  0  0  0  0  0  0  0  0  0  0  0
    3.5080   69.4000   65.5990 C   0  0  0  0  0  0  0  0  0  0  0  0
    4.8980   69.2750   65.5650 C   0  0  0  0  0  0  0  0  0  0  0  0
    5.5050   68.4940   64.5840 C   0  0  0  0  0  0  0  0  0  0  0  0
    4.7260   67.8400   63.6330 C   0  0  0  0  0  0  0  0  0  0  0  0
    3.3350   67.9620   63.6630 C   0  0  0  0  0  0  0  0  0  0  0  0
    0.4180   66.1630   70.3380 O   0  0  0  0  0  0  0  0  0  0  0  0
    2.4830   62.7370   71.3390 C   0  0  0  0  0  0  0  0  0  0  0  0
    1.3450   63.1000   72.0600 C   0  0  0  0  0  0  0  0  0  0  0  0
    0.6560   64.2630   71.7100 C   0  0  0  0  0  0  0  0  0  0  0  0
    1.1370   65.0270   70.6580 C   0  0  0  0  0  0  0  0  0  0  0  0
    2.2340   64.7090   69.9410 N   0  0  0  0  0  0  0  0  0  0  0  0
    2.8850   63.5720   70.3010 C   0  0  0  0  0  0  0  0  0  0  0  0
    3.2920   61.5350   71.6260 C   0  0  0  0  0  0  0  0  0  0  0  0
    4.0650   61.5010   72.5740 O   0  0  0  0  0  0  0  0  0  0  0  0
    4.1610   59.9240   70.0370 N   0  0  0  0  0  0  0  0  0  0  0  0
    3.1790   60.2990   70.7890 C   0  0  0  0  0  0  0  0  0  0  0  0
    3.7890   58.7490   69.3730 O   0  0  0  0  0  0  0  0  0  0  0  0
   -1.4034   65.7630   69.4254 H   0  0  0  0  0  0  0  0  0  0  0  0
    0.0406   65.1858   68.5408 H   0  0  0  0  0  0  0  0  0  0  0  0
   -0.7054   68.1222   69.0189 H   0  0  0  0  0  0  0  0  0  0  0  0
   -1.2555   66.2232   66.7457 H   0  0  0  0  0  0  0  0  0  0  0  0
   -2.2667   67.5514   67.4460 H   0  0  0  0  0  0  0  0  0  0  0  0
   -1.5146   68.1717   65.2101 H   0  0  0  0  0  0  0  0  0  0  0  0
   -0.7247   69.2152   66.4431 H   0  0  0  0  0  0  0  0  0  0  0  0
    0.3952   66.9596   64.9145 H   0  0  0  0  0  0  0  0  0  0  0  0
    1.3977   66.0874   66.5886 H   0  0  0  0  0  0  0  0  0  0  0  0
    2.5175   67.4870   66.3725 H   0  0  0  0  0  0  0  0  0  0  0  0
    1.8023   67.2800   68.7158 H   0  0  0  0  0  0  0  0  0  0  0  0
    1.1743   68.8028   67.9526 H   0  0  0  0  0  0  0  0  0  0  0  0
    0.8216   68.7803   63.6726 H   0  0  0  0  0  0  0  0  0  0  0  0
    0.9651   69.8155   65.1653 H   0  0  0  0  0  0  0  0  0  0  0  0
    3.0343   70.0205   66.3740 H   0  0  0  0  0  0  0  0  0  0  0  0
    5.5147   69.7938   66.3137 H   0  0  0  0  0  0  0  0  0  0  0  0
    6.6002   68.3939   64.5607 H   0  0  0  0  0  0  0  0  0  0  0  0
    5.2069   67.2264   62.8570 H   0  0  0  0  0  0  0  0  0  0  0  0
    2.7245   67.4457   62.9075 H   0  0  0  0  0  0  0  0  0  0  0  0
    0.9942   62.4765   72.8955 H   0  0  0  0  0  0  0  0  0  0  0  0
   -0.2488   64.5664   72.2571 H   0  0  0  0  0  0  0  0  0  0  0  0
    3.7870   63.2940   69.7361 H   0  0  0  0  0  0  0  0  0  0  0  0
    2.2532   59.7055   70.8142 H   0  0  0  0  0  0  0  0  0  0  0  0
    4.4208   58.3122   68.7483 H   0  0  0  0  0  0  0  0  0  0  0  0
  2  1  1  0
  3  2  1  0
  4  3  1  0
  5  4  1  0
  6  5  1  0
  7  6  1  0
  7  2  1  0
  8  5  1  0
  9  8  1  0
 10  9  2  0
 11 10  1  0
 12 11  2  0
 13 12  1  0
 14 13  2  0
 14  9  1  0
 15  1  1  0
 17 16  2  0
 18 17  1  0
 19 18  2  0
 19 15  1  0
 20 19  1  0
 21 20  2  0
 21 16  1  0
 22 16  1  0
 23 22  2  0
 25 24  2  0
 25 22  1  0
 26 24  1  0
  1 27  1  0
  1 28  1  0
  2 29  1  0
  3 30  1  0
  3 31  1  0
  4 32  1  0
  4 33  1  0
  5 34  1  0
  6 35  1  0
  6 36  1  0
  7 37  1  0
  7 38  1  0
  8 39  1  0
  8 40  1  0
 10 41  1  0
 11 42  1  0
 12 43  1  0
 13 44  1  0
 14 45  1  0
 17 46  1  0
 18 47  1  0
 21 48  1  0
 25 49  1  0
 26 50  1  0
M  CHG  1   5   1
M  END
>  <score>  (1) 
-9.388

$$$$
=
     RDKit          3D

 50 52  0  0  0  0  0  0  0  0999 V2000
    1.5140   66.0340   69.9060 C   0  0  0  0  0  0  0  0  0  0  0  0
    0.5820   67.0980   69.3020 C   0  0  0  0  0  0  0  0  0  0  0  0
   -0.5980   66.4360   68.5640 C   0  0  0  0  0  0  0  0  0  0  0  0
   -1.1420   67.3380   67.4720 C   0  0  0  0  0  0  0  0  0  0  0  0
   -0.0830   67.5510   66.4130 N   0  0  0  0  0  4  0  0  0  0  0  0
    1.3380   67.6220   66.9390 C   0  0  0  0  0  0  0  0  0  0  0  0
    1.3520   68.0690   68.3930 C   0  0  0  0  0  0  0  0  0  0  0  0
   -0.4510   68.6980   65.4940 C   0  0  0  0  0  0  0  0  0  0  0  0
    0.4190   68.7670   64.2670 C   0  0  0  0  0  0  0  0  0  0  0  0
    1.7980   68.5240   64.3520 C   0  0  0  0  0  0  0  0  0  0  0  0
    2.5950   68.5660   63.2070 C   0  0  0  0  0  0  0  0  0  0  0  0
    2.0260   68.8530   61.9690 C   0  0  0  0  0  0  0  0  0  0  0  0
    0.6590   69.1050   61.8720 C   0  0  0  0  0  0  0  0  0  0  0  0
   -0.1430   69.0650   63.0150 C   0  0  0  0  0  0  0  0  0  0  0  0
    0.7920   64.8050   70.0100 O   0  0  0  0  0  0  0  0  0  0  0  0
    3.1890   61.5020   70.5970 C   0  0  0  0  0  0  0  0  0  0  0  0
    2.0870   61.7200   71.4250 C   0  0  0  0  0  0  0  0  0  0  0  0
    1.2850   62.8430   71.2150 C   0  0  0  0  0  0  0  0  0  0  0  0
    1.6200   63.7130   70.1900 C   0  0  0  0  0  0  0  0  0  0  0  0
    2.6780   63.5370   69.3720 N   0  0  0  0  0  0  0  0  0  0  0  0
    3.4410   62.4360   69.5980 C   0  0  0  0  0  0  0  0  0  0  0  0
    4.1080   60.3550   70.7340 C   0  0  0  0  0  0  0  0  0  0  0  0
    5.3190   60.4910   70.6070 O   0  0  0  0  0  0  0  0  0  0  0  0
    3.8720   57.9840   70.2880 N   0  0  0  0  0  0  0  0  0  0  0  0
    3.6040   58.9830   71.0610 C   0  0  0  0  0  0  0  0  0  0  0  0
    3.2840   56.8340   70.8280 O   0  0  0  0  0  0  0  0  0  0  0  0
    2.3901   65.8957   69.2554 H   0  0  0  0  0  0  0  0  0  0  0  0
    1.8574   66.3547   70.9006 H   0  0  0  0  0  0  0  0  0  0  0  0
    0.1662   67.6944   70.1275 H   0  0  0  0  0  0  0  0  0  0  0  0
   -0.2546   65.4937   68.1122 H   0  0  0  0  0  0  0  0  0  0  0  0
   -1.4014   66.2491   69.2918 H   0  0  0  0  0  0  0  0  0  0  0  0
   -2.0259   66.8682   67.0160 H   0  0  0  0  0  0  0  0  0  0  0  0
   -1.4230   68.3085   67.9070 H   0  0  0  0  0  0  0  0  0  0  0  0
   -0.0750   66.6930   65.8432 H   0  0  0  0  0  0  0  0  0  0  0  0
    1.8013   66.6273   66.8627 H   0  0  0  0  0  0  0  0  0  0  0  0
    1.9008   68.3525   66.3393 H   0  0  0  0  0  0  0  0  0  0  0  0
    2.3953   68.1256   68.7370 H   0  0  0  0  0  0  0  0  0  0  0  0
    0.8597   69.0510   68.4510 H   0  0  0  0  0  0  0  0  0  0  0  0
   -1.4966   68.5719   65.1764 H   0  0  0  0  0  0  0  0  0  0  0  0
   -0.3041   69.6320   66.0562 H   0  0  0  0  0  0  0  0  0  0  0  0
    2.2541   68.2989   65.3273 H   0  0  0  0  0  0  0  0  0  0  0  0
    3.6751   68.3719   63.2828 H   0  0  0  0  0  0  0  0  0  0  0  0
    2.6557   68.8808   61.0675 H   0  0  0  0  0  0  0  0  0  0  0  0
    0.2109   69.3357   60.8943 H   0  0  0  0  0  0  0  0  0  0  0  0
   -1.2210   69.2681   62.9339 H   0  0  0  0  0  0  0  0  0  0  0  0
    1.8527   61.0138   72.2352 H   0  0  0  0  0  0  0  0  0  0  0  0
    0.4065   63.0331   71.8492 H   0  0  0  0  0  0  0  0  0  0  0  0
    4.3142   62.2728   68.9492 H   0  0  0  0  0  0  0  0  0  0  0  0
    3.0006   58.8251   71.9671 H   0  0  0  0  0  0  0  0  0  0  0  0
    3.3843   55.9637   70.3670 H   0  0  0  0  0  0  0  0  0  0  0  0
  2  1  1  0
  3  2  1  0
  4  3  1  0
  5  4  1  0
  6  5  1  0
  7  6  1  0
  7  2  1  0
  8  5  1  0
  9  8  1  0
 10  9  2  0
 11 10  1  0
 12 11  2  0
 13 12  1  0
 14 13  2  0
 14  9  1  0
 15  1  1  0
 17 16  2  0
 18 17  1  0
 19 18  2  0
 19 15  1  0
 20 19  1  0
 21 20  2  0
 21 16  1  0
 22 16  1  0
 23 22  2  0
 25 24  2  0
 25 22  1  0
 26 24  1  0
  1 27  1  0
  1 28  1  0
  2 29  1  0
  3 30  1  0
  3 31  1  0
  4 32  1  0
  4 33  1  0
  5 34  1  0
  6 35  1  0
  6 36  1  0
  7 37  1  0
  7 38  1  0
  8 39  1  0
  8 40  1  0
 10 41  1  0
 11 42  1  0
 12 43  1  0
 13 44  1  0
 14 45  1  0
 17 46  1  0
 18 47  1  0
 21 48  1  0
 25 49  1  0
 26 50  1  0
M  CHG  1   5   1
M  END
>  <score>  (2) 
-9.216

$$$$
=
     RDKit          3D

 50 52  0  0  0  0  0  0  0  0999 V2000
    0.4720   65.0350   70.1570 C   0  0  0  0  0  0  0  0  0  0  0  0
    0.1420   66.4560   69.6680 C   0  0  0  0  0  0  0  0  0  0  0  0
   -0.7920   66.4090   68.4430 C   0  0  0  0  0  0  0  0  0  0  0  0
   -0.6320   67.6450   67.5790 C   0  0  0  0  0  0  0  0  0  0  0  0
    0.7670   67.6890   67.0070 N   0  0  0  0  0  4  0  0  0  0  0  0
    1.8490   67.1550   67.9280 C   0  0  0  0  0  0  0  0  0  0  0  0
    1.4180   67.2630   69.3830 C   0  0  0  0  0  0  0  0  0  0  0  0
    1.0810   69.0540   66.4280 C   0  0  0  0  0  0  0  0  0  0  0  0
    2.4640   69.1390   65.8420 C   0  0  0  0  0  0  0  0  0  0  0  0
    3.5500   69.5540   66.6260 C   0  0  0  0  0  0  0  0  0  0  0  0
    4.8350   69.6070   66.0840 C   0  0  0  0  0  0  0  0  0  0  0  0
    5.0480   69.2500   64.7540 C   0  0  0  0  0  0  0  0  0  0  0  0
    3.9770   68.8440   63.9620 C   0  0  0  0  0  0  0  0  0  0  0  0
    2.6900   68.7890   64.5010 C   0  0  0  0  0  0  0  0  0  0  0  0
    1.8930   64.8810   70.1730 O   0  0  0  0  0  0  0  0  0  0  0  0
    3.1420   60.9560   70.3580 C   0  0  0  0  0  0  0  0  0  0  0  0
    3.6280   61.7960   69.3550 C   0  0  0  0  0  0  0  0  0  0  0  0
    3.1950   63.1220   69.3050 C   0  0  0  0  0  0  0  0  0  0  0  0
    2.2840   63.5580   70.2530 C   0  0  0  0  0  0  0  0  0  0  0  0
    1.7920   62.7750   71.2350 N   0  0  0  0  0  0  0  0  0  0  0  0
    2.2290   61.4900   71.2620 C   0  0  0  0  0  0  0  0  0  0  0  0
    3.5250   59.5370   70.5020 C   0  0  0  0  0  0  0  0  0  0  0  0
    4.0470   58.9230   69.5810 O   0  0  0  0  0  0  0  0  0  0  0  0
    4.0990   59.0020   72.7950 N   0  0  0  0  0  0  0  0  0  0  0  0
    3.3170   58.7980   71.7870 C   0  0  0  0  0  0  0  0  0  0  0  0
    3.6800   58.1890   73.8550 O   0  0  0  0  0  0  0  0  0  0  0  0
    0.0712   64.8888   71.1709 H   0  0  0  0  0  0  0  0  0  0  0  0
    0.0191   64.2902   69.4861 H   0  0  0  0  0  0  0  0  0  0  0  0
   -0.3927   66.9784   70.4750 H   0  0  0  0  0  0  0  0  0  0  0  0
   -0.5512   65.5190   67.8430 H   0  0  0  0  0  0  0  0  0  0  0  0
   -1.8314   66.3683   68.8008 H   0  0  0  0  0  0  0  0  0  0  0  0
   -1.3623   67.6137   66.7570 H   0  0  0  0  0  0  0  0  0  0  0  0
   -0.8037   68.5425   68.1915 H   0  0  0  0  0  0  0  0  0  0  0  0
    0.7738   67.0166   66.2268 H   0  0  0  0  0  0  0  0  0  0  0  0
    2.0409   66.0993   67.6856 H   0  0  0  0  0  0  0  0  0  0  0  0
    2.7619   67.7516   67.7843 H   0  0  0  0  0  0  0  0  0  0  0  0
    2.2285   66.8830   70.0224 H   0  0  0  0  0  0  0  0  0  0  0  0
    1.2050   68.3209   69.5961 H   0  0  0  0  0  0  0  0  0  0  0  0
    0.3504   69.2756   65.6361 H   0  0  0  0  0  0  0  0  0  0  0  0
    1.0268   69.7815   67.2513 H   0  0  0  0  0  0  0  0  0  0  0  0
    3.3880   69.8398   67.6758 H   0  0  0  0  0  0  0  0  0  0  0  0
    5.6811   69.9311   66.7078 H   0  0  0  0  0  0  0  0  0  0  0  0
    6.0621   69.2889   64.3297 H   0  0  0  0  0  0  0  0  0  0  0  0
    4.1449   68.5664   62.9109 H   0  0  0  0  0  0  0  0  0  0  0  0
    1.8472   68.4692   63.8706 H   0  0  0  0  0  0  0  0  0  0  0  0
    4.3448   61.4170   68.6116 H   0  0  0  0  0  0  0  0  0  0  0  0
    3.5693   63.8062   68.5293 H   0  0  0  0  0  0  0  0  0  0  0  0
    1.8363   60.8289   72.0486 H   0  0  0  0  0  0  0  0  0  0  0  0
    2.4920   58.0757   71.8738 H   0  0  0  0  0  0  0  0  0  0  0  0
    4.1652   58.2113   74.7177 H   0  0  0  0  0  0  0  0  0  0  0  0
  2  1  1  0
  3  2  1  0
  4  3  1  0
  5  4  1  0
  6  5  1  0
  7  6  1  0
  7  2  1  0
  8  5  1  0
  9  8  1  0
 10  9  2  0
 11 10  1  0
 12 11  2  0
 13 12  1  0
 14 13  2  0
 14  9  1  0
 15  1  1  0
 17 16  2  0
 18 17  1  0
 19 18  2  0
 19 15  1  0
 20 19  1  0
 21 20  2  0
 21 16  1  0
 22 16  1  0
 23 22  2  0
 25 24  2  0
 25 22  1  0
 26 24  1  0
  1 27  1  0
  1 28  1  0
  2 29  1  0
  3 30  1  0
  3 31  1  0
  4 32  1  0
  4 33  1  0
  5 34  1  0
  6 35  1  0
  6 36  1  0
  7 37  1  0
  7 38  1  0
  8 39  1  0
  8 40  1  0
 10 41  1  0
 11 42  1  0
 12 43  1  0
 13 44  1  0
 14 45  1  0
 17 46  1  0
 18 47  1  0
 21 48  1  0
 25 49  1  0
 26 50  1  0
M  CHG  1   5   1
M  END
>  <score>  (3) 
-9.055

$$$$
=
     RDKit          3D

 50 52  0  0  0  0  0  0  0  0999 V2000
    0.1640   66.5610   69.0920 C   0  0  0  0  0  0  0  0  0  0  0  0
    0.9160   65.9350   70.2790 C   0  0  0  0  0  0  0  0  0  0  0  0
    2.2000   65.2300   69.8020 C   0  0  0  0  0  0  0  0  0  0  0  0
    2.6050   64.1170   70.7500 C   0  0  0  0  0  0  0  0  0  0  0  0
    1.5420   63.0410   70.7550 N   0  0  0  0  0  4  0  0  0  0  0  0
    0.1200   63.5500   70.6040 C   0  0  0  0  0  0  0  0  0  0  0  0
    0.0100   64.9890   71.0830 C   0  0  0  0  0  0  0  0  0  0  0  0
    1.7280   62.0920   71.9220 C   0  0  0  0  0  0  0  0  0  0  0  0
    2.3230   60.7710   71.5130 C   0  0  0  0  0  0  0  0  0  0  0  0
    3.0410   60.6500   70.3130 C   0  0  0  0  0  0  0  0  0  0  0  0
    3.6110   59.4280   69.9510 C   0  0  0  0  0  0  0  0  0  0  0  0
    3.4690   58.3170   70.7790 C   0  0  0  0  0  0  0  0  0  0  0  0
    2.7520   58.4230   71.9680 C   0  0  0  0  0  0  0  0  0  0  0  0
    2.1790   59.6420   72.3350 C   0  0  0  0  0  0  0  0  0  0  0  0
    0.7790   67.8110   68.7740 O   0  0  0  0  0  0  0  0  0  0  0  0
    2.0420   68.0870   64.8580 C   0  0  0  0  0  0  0  0  0  0  0  0
    2.5990   68.9190   65.8310 C   0  0  0  0  0  0  0  0  0  0  0  0
    2.1610   68.8140   67.1520 C   0  0  0  0  0  0  0  0  0  0  0  0
    1.1740   67.8890   67.4520 C   0  0  0  0  0  0  0  0  0  0  0  0
    0.6110   67.0720   66.5390 N   0  0  0  0  0  0  0  0  0  0  0  0
    1.0560   67.1930   65.2610 C   0  0  0  0  0  0  0  0  0  0  0  0
    2.4230   68.1170   63.4320 C   0  0  0  0  0  0  0  0  0  0  0  0
    1.5950   68.3370   62.5570 O   0  0  0  0  0  0  0  0  0  0  0  0
    4.1270   67.0330   62.0920 N   0  0  0  0  0  0  0  0  0  0  0  0
    3.8410   67.9100   62.9970 C   0  0  0  0  0  0  0  0  0  0  0  0
    5.5110   67.0490   61.8800 O   0  0  0  0  0  0  0  0  0  0  0  0
    0.2179   65.8892   68.2227 H   0  0  0  0  0  0  0  0  0  0  0  0
   -0.8926   66.7170   69.3552 H   0  0  0  0  0  0  0  0  0  0  0  0
    1.2143   66.7466   70.9590 H   0  0  0  0  0  0  0  0  0  0  0  0
    2.0242   64.8034   68.8035 H   0  0  0  0  0  0  0  0  0  0  0  0
    3.0116   65.9718   69.7721 H   0  0  0  0  0  0  0  0  0  0  0  0
    3.5612   63.6850   70.4198 H   0  0  0  0  0  0  0  0  0  0  0  0
    2.7157   64.5251   71.7655 H   0  0  0  0  0  0  0  0  0  0  0  0
    1.6859   62.4971   69.8922 H   0  0  0  0  0  0  0  0  0  0  0  0
   -0.1711   63.4990   69.5444 H   0  0  0  0  0  0  0  0  0  0  0  0
   -0.5466   62.9225   71.2138 H   0  0  0  0  0  0  0  0  0  0  0  0
   -1.0334   65.3202   70.9755 H   0  0  0  0  0  0  0  0  0  0  0  0
    0.3321   65.0224   72.1342 H   0  0  0  0  0  0  0  0  0  0  0  0
    2.3959   62.5655   72.6566 H   0  0  0  0  0  0  0  0  0  0  0  0
    0.7329   61.8894   72.3449 H   0  0  0  0  0  0  0  0  0  0  0  0
    3.1553   61.5232   69.6538 H   0  0  0  0  0  0  0  0  0  0  0  0
    4.1736   59.3424   69.0096 H   0  0  0  0  0  0  0  0  0  0  0  0
    3.9230   57.3565   70.4938 H   0  0  0  0  0  0  0  0  0  0  0  0
    2.6368   57.5442   72.6196 H   0  0  0  0  0  0  0  0  0  0  0  0
    1.6112   59.7184   73.2740 H   0  0  0  0  0  0  0  0  0  0  0  0
    3.3750   69.6497   65.5593 H   0  0  0  0  0  0  0  0  0  0  0  0
    2.5903   69.4522   67.9384 H   0  0  0  0  0  0  0  0  0  0  0  0
    0.6076   66.5421   64.4960 H   0  0  0  0  0  0  0  0  0  0  0  0
    4.6446   68.5085   63.4509 H   0  0  0  0  0  0  0  0  0  0  0  0
    5.9171   66.4379   61.2154 H   0  0  0  0  0  0  0  0  0  0  0  0
  2  1  1  0
  3  2  1  0
  4  3  1  0
  5  4  1  0
  6  5  1  0
  7  6  1  0
  7  2  1  0
  8  5  1  0
  9  8  1  0
 10  9  2  0
 11 10  1  0
 12 11  2  0
 13 12  1  0
 14 13  2  0
 14  9  1  0
 15  1  1  0
 17 16  2  0
 18 17  1  0
 19 18  2  0
 19 15  1  0
 20 19  1  0
 21 20  2  0
 21 16  1  0
 22 16  1  0
 23 22  2  0
 25 24  2  0
 25 22  1  0
 26 24  1  0
  1 27  1  0
  1 28  1  0
  2 29  1  0
  3 30  1  0
  3 31  1  0
  4 32  1  0
  4 33  1  0
  5 34  1  0
  6 35  1  0
  6 36  1  0
  7 37  1  0
  7 38  1  0
  8 39  1  0
  8 40  1  0
 10 41  1  0
 11 42  1  0
 12 43  1  0
 13 44  1  0
 14 45  1  0
 17 46  1  0
 18 47  1  0
 21 48  1  0
 25 49  1  0
 26 50  1  0
M  CHG  1   5   1
M  END
>  <score>  (4) 
-8.814

$$$$
=
     RDKit          3D

 50 52  0  0  0  0  0  0  0  0999 V2000
    0.5180   64.4220   70.6460 C   0  0  0  0  0  0  0  0  0  0  0  0
    1.8830   63.9930   71.2110 C   0  0  0  0  0  0  0  0  0  0  0  0
    2.8660   63.6610   70.0720 C   0  0  0  0  0  0  0  0  0  0  0  0
    3.9260   62.6750   70.5260 C   0  0  0  0  0  0  0  0  0  0  0  0
    3.2750   61.3570   70.8830 N   0  0  0  0  0  4  0  0  0  0  0  0
    1.9020   61.4760   71.5180 C   0  0  0  0  0  0  0  0  0  0  0  0
    1.7400   62.8250   72.2000 C   0  0  0  0  0  0  0  0  0  0  0  0
    4.2280   60.4660   71.6550 C   0  0  0  0  0  0  0  0  0  0  0  0
    3.5200   59.4110   72.4610 C   0  0  0  0  0  0  0  0  0  0  0  0
    2.7420   58.4300   71.8290 C   0  0  0  0  0  0  0  0  0  0  0  0
    2.1070   57.4390   72.5810 C   0  0  0  0  0  0  0  0  0  0  0  0
    2.2410   57.4190   73.9670 C   0  0  0  0  0  0  0  0  0  0  0  0
    3.0040   58.3930   74.6070 C   0  0  0  0  0  0  0  0  0  0  0  0
    3.6410   59.3860   73.8600 C   0  0  0  0  0  0  0  0  0  0  0  0
    0.3930   65.8380   70.7930 O   0  0  0  0  0  0  0  0  0  0  0  0
    0.3130   67.8150   67.1760 C   0  0  0  0  0  0  0  0  0  0  0  0
    1.3960   67.9850   68.0390 C   0  0  0  0  0  0  0  0  0  0  0  0
    1.4090   67.3090   69.2610 C   0  0  0  0  0  0  0  0  0  0  0  0
    0.3330   66.4970   69.5800 C   0  0  0  0  0  0  0  0  0  0  0  0
   -0.7310   66.3110   68.7720 N   0  0  0  0  0  0  0  0  0  0  0  0
   -0.7180   66.9790   67.5890 C   0  0  0  0  0  0  0  0  0  0  0  0
    0.1920   68.4840   65.8650 C   0  0  0  0  0  0  0  0  0  0  0  0
    1.1820   68.8090   65.2220 O   0  0  0  0  0  0  0  0  0  0  0  0
   -1.2990   68.7380   63.9710 N   0  0  0  0  0  0  0  0  0  0  0  0
   -1.1450   68.7680   65.2540 C   0  0  0  0  0  0  0  0  0  0  0  0
   -2.6350   69.0360   63.6770 O   0  0  0  0  0  0  0  0  0  0  0  0
    0.4553   64.1522   69.5814 H   0  0  0  0  0  0  0  0  0  0  0  0
   -0.2922   63.9130   71.1887 H   0  0  0  0  0  0  0  0  0  0  0  0
    2.2997   64.8407   71.7747 H   0  0  0  0  0  0  0  0  0  0  0  0
    2.3063   63.2234   69.2322 H   0  0  0  0  0  0  0  0  0  0  0  0
    3.3668   64.5909   69.7646 H   0  0  0  0  0  0  0  0  0  0  0  0
    4.6506   62.5170   69.7136 H   0  0  0  0  0  0  0  0  0  0  0  0
    4.4440   63.0771   71.4092 H   0  0  0  0  0  0  0  0  0  0  0  0
    3.0755   60.8885   69.9877 H   0  0  0  0  0  0  0  0  0  0  0  0
    1.1333   61.3711   70.7382 H   0  0  0  0  0  0  0  0  0  0  0  0
    1.7915   60.6830   72.2723 H   0  0  0  0  0  0  0  0  0  0  0  0
    0.7429   62.8715   72.6622 H   0  0  0  0  0  0  0  0  0  0  0  0
    2.5343   62.9208   72.9549 H   0  0  0  0  0  0  0  0  0  0  0  0
    4.9007   59.9692   70.9404 H   0  0  0  0  0  0  0  0  0  0  0  0
    4.7797   61.1052   72.3600 H   0  0  0  0  0  0  0  0  0  0  0  0
    2.6313   58.4411   70.7346 H   0  0  0  0  0  0  0  0  0  0  0  0
    1.4997   56.6726   72.0773 H   0  0  0  0  0  0  0  0  0  0  0  0
    1.7444   56.6341   74.5564 H   0  0  0  0  0  0  0  0  0  0  0  0
    3.1048   58.3799   75.7023 H   0  0  0  0  0  0  0  0  0  0  0  0
    4.2413   60.1535   74.3705 H   0  0  0  0  0  0  0  0  0  0  0  0
    2.2309   68.6446   67.7598 H   0  0  0  0  0  0  0  0  0  0  0  0
    2.2553   67.4190   69.9551 H   0  0  0  0  0  0  0  0  0  0  0  0
   -1.5779   66.8501   66.9152 H   0  0  0  0  0  0  0  0  0  0  0  0
   -2.0023   69.0039   65.9016 H   0  0  0  0  0  0  0  0  0  0  0  0
   -2.9414   69.0593   62.7359 H   0  0  0  0  0  0  0  0  0  0  0  0
  2  1  1  0
  3  2  1  0
  4  3  1  0
  5  4  1  0
  6  5  1  0
  7  6  1  0
  7  2  1  0
  8  5  1  0
  9  8  1  0
 10  9  2  0
 11 10  1  0
 12 11  2  0
 13 12  1  0
 14 13  2  0
 14  9  1  0
 15  1  1  0
 17 16  2  0
 18 17  1  0
 19 18  2  0
 19 15  1  0
 20 19  1  0
 21 20  2  0
 21 16  1  0
 22 16  1  0
 23 22  2  0
 25 24  2  0
 25 22  1  0
 26 24  1  0
  1 27  1  0
  1 28  1  0
  2 29  1  0
  3 30  1  0
  3 31  1  0
  4 32  1  0
  4 33  1  0
  5 34  1  0
  6 35  1  0
  6 36  1  0
  7 37  1  0
  7 38  1  0
  8 39  1  0
  8 40  1  0
 10 41  1  0
 11 42  1  0
 12 43  1  0
 13 44  1  0
 14 45  1  0
 17 46  1  0
 18 47  1  0
 21 48  1  0
 25 49  1  0
 26 50  1  0
M  CHG  1   5   1
M  END
>  <score>  (5) 
-8.798

$$$$
=
     RDKit          3D

 50 52  0  0  0  0  0  0  0  0999 V2000
    1.8840   64.6740   70.6870 C   0  0  0  0  0  0  0  0  0  0  0  0
    1.5010   63.1860   70.6120 C   0  0  0  0  0  0  0  0  0  0  0  0
    1.2280   62.6190   72.0180 C   0  0  0  0  0  0  0  0  0  0  0  0
    1.4760   61.1240   72.0690 C   0  0  0  0  0  0  0  0  0  0  0  0
    2.9390   60.8420   71.8070 N   0  0  0  0  0  4  0  0  0  0  0  0
    3.5990   61.7760   70.8100 C   0  0  0  0  0  0  0  0  0  0  0  0
    2.5670   62.3690   69.8630 C   0  0  0  0  0  0  0  0  0  0  0  0
    3.1700   59.3730   71.5110 C   0  0  0  0  0  0  0  0  0  0  0  0
    2.7630   58.4750   72.6480 C   0  0  0  0  0  0  0  0  0  0  0  0
    3.2760   58.6760   73.9380 C   0  0  0  0  0  0  0  0  0  0  0  0
    2.8760   57.8550   74.9940 C   0  0  0  0  0  0  0  0  0  0  0  0
    1.9640   56.8260   74.7720 C   0  0  0  0  0  0  0  0  0  0  0  0
    1.4540   56.6110   73.4940 C   0  0  0  0  0  0  0  0  0  0  0  0
    1.8500   57.4290   72.4350 C   0  0  0  0  0  0  0  0  0  0  0  0
    0.6860   65.4440   70.8030 O   0  0  0  0  0  0  0  0  0  0  0  0
    0.0390   67.7540   67.4490 C   0  0  0  0  0  0  0  0  0  0  0  0
    1.2250   67.8900   68.1710 C   0  0  0  0  0  0  0  0  0  0  0  0
    1.4300   67.1020   69.3050 C   0  0  0  0  0  0  0  0  0  0  0  0
    0.4370   66.2130   69.6820 C   0  0  0  0  0  0  0  0  0  0  0  0
   -0.7220   66.0560   69.0100 N   0  0  0  0  0  0  0  0  0  0  0  0
   -0.8960   66.8340   67.9110 C   0  0  0  0  0  0  0  0  0  0  0  0
   -0.2860   68.5390   66.2420 C   0  0  0  0  0  0  0  0  0  0  0  0
    0.5680   68.8010   65.4040 O   0  0  0  0  0  0  0  0  0  0  0  0
   -2.2820   68.7100   64.8770 N   0  0  0  0  0  0  0  0  0  0  0  0
   -1.6770   69.0240   65.9750 C   0  0  0  0  0  0  0  0  0  0  0  0
   -3.5560   69.2900   64.8910 O   0  0  0  0  0  0  0  0  0  0  0  0
    2.5241   64.8488   71.5643 H   0  0  0  0  0  0  0  0  0  0  0  0
    2.4354   64.9679   69.7817 H   0  0  0  0  0  0  0  0  0  0  0  0
    0.5689   63.1032   70.0339 H   0  0  0  0  0  0  0  0  0  0  0  0
    1.8921   63.1168   72.7399 H   0  0  0  0  0  0  0  0  0  0  0  0
    0.1726   62.8037   72.2670 H   0  0  0  0  0  0  0  0  0  0  0  0
    1.2019   60.7413   73.0632 H   0  0  0  0  0  0  0  0  0  0  0  0
    0.8653   60.6264   71.3012 H   0  0  0  0  0  0  0  0  0  0  0  0
    3.4305   61.0579   72.6860 H   0  0  0  0  0  0  0  0  0  0  0  0
    4.0991   62.5904   71.3547 H   0  0  0  0  0  0  0  0  0  0  0  0
    4.3313   61.2040   70.2213 H   0  0  0  0  0  0  0  0  0  0  0  0
    3.0796   63.0268   69.1457 H   0  0  0  0  0  0  0  0  0  0  0  0
    2.0603   61.5388   69.3492 H   0  0  0  0  0  0  0  0  0  0  0  0
    2.5856   59.0984   70.6205 H   0  0  0  0  0  0  0  0  0  0  0  0
    4.2495   59.2344   71.3513 H   0  0  0  0  0  0  0  0  0  0  0  0
    3.9982   59.4858   74.1188 H   0  0  0  0  0  0  0  0  0  0  0  0
    3.2817   58.0211   76.0029 H   0  0  0  0  0  0  0  0  0  0  0  0
    1.6465   56.1831   75.6062 H   0  0  0  0  0  0  0  0  0  0  0  0
    0.7376   55.7948   73.3190 H   0  0  0  0  0  0  0  0  0  0  0  0
    1.4448   57.2536   71.4275 H   0  0  0  0  0  0  0  0  0  0  0  0
    1.9911   68.6111   67.8499 H   0  0  0  0  0  0  0  0  0  0  0  0
    2.3600   67.1853   69.8865 H   0  0  0  0  0  0  0  0  0  0  0  0
   -1.8366   66.7300   67.3502 H   0  0  0  0  0  0  0  0  0  0  0  0
   -2.1881   69.6525   66.7192 H   0  0  0  0  0  0  0  0  0  0  0  0
   -4.1690   69.1568   64.1251 H   0  0  0  0  0  0  0  0  0  0  0  0
  2  1  1  0
  3  2  1  0
  4  3  1  0
  5  4  1  0
  6  5  1  0
  7  6  1  0
  7  2  1  0
  8  5  1  0
  9  8  1  0
 10  9  2  0
 11 10  1  0
 12 11  2  0
 13 12  1  0
 14 13  2  0
 14  9  1  0
 15  1  1  0
 17 16  2  0
 18 17  1  0
 19 18  2  0
 19 15  1  0
 20 19  1  0
 21 20  2  0
 21 16  1  0
 22 16  1  0
 23 22  2  0
 25 24  2  0
 25 22  1  0
 26 24  1  0
  1 27  1  0
  1 28  1  0
  2 29  1  0
  3 30  1  0
  3 31  1  0
  4 32  1  0
  4 33  1  0
  5 34  1  0
  6 35  1  0
  6 36  1  0
  7 37  1  0
  7 38  1  0
  8 39  1  0
  8 40  1  0
 10 41  1  0
 11 42  1  0
 12 43  1  0
 13 44  1  0
 14 45  1  0
 17 46  1  0
 18 47  1  0
 21 48  1  0
 25 49  1  0
 26 50  1  0
M  CHG  1   5   1
M  END
>  <score>  (6) 
-8.48

$$$$
=
     RDKit          3D

 50 52  0  0  0  0  0  0  0  0999 V2000
    3.6460   67.0900   62.5670 C   0  0  0  0  0  0  0  0  0  0  0  0
    4.8530   67.9520   62.9740 C   0  0  0  0  0  0  0  0  0  0  0  0
    5.5930   67.3270   64.1710 C   0  0  0  0  0  0  0  0  0  0  0  0
    6.3310   68.3800   64.9760 C   0  0  0  0  0  0  0  0  0  0  0  0
    5.3370   69.3430   65.5860 N   0  0  0  0  0  4  0  0  0  0  0  0
    4.1210   69.6330   64.7260 C   0  0  0  0  0  0  0  0  0  0  0  0
    4.4360   69.4050   63.2560 C   0  0  0  0  0  0  0  0  0  0  0  0
    6.0270   70.5890   66.1040 C   0  0  0  0  0  0  0  0  0  0  0  0
    6.1320   70.6200   67.6050 C   0  0  0  0  0  0  0  0  0  0  0  0
    4.9790   70.5900   68.4040 C   0  0  0  0  0  0  0  0  0  0  0  0
    5.0820   70.5940   69.7960 C   0  0  0  0  0  0  0  0  0  0  0  0
    6.3350   70.6320   70.4040 C   0  0  0  0  0  0  0  0  0  0  0  0
    7.4870   70.6710   69.6220 C   0  0  0  0  0  0  0  0  0  0  0  0
    7.3890   70.6660   68.2290 C   0  0  0  0  0  0  0  0  0  0  0  0
    3.2340   66.3240   63.7010 O   0  0  0  0  0  0  0  0  0  0  0  0
    0.2690   68.1390   65.9180 C   0  0  0  0  0  0  0  0  0  0  0  0
    1.2560   67.3860   66.5570 C   0  0  0  0  0  0  0  0  0  0  0  0
    2.2520   66.7770   65.7930 C   0  0  0  0  0  0  0  0  0  0  0  0
    2.2210   66.9330   64.4170 C   0  0  0  0  0  0  0  0  0  0  0  0
    1.2830   67.6500   63.7650 N   0  0  0  0  0  0  0  0  0  0  0  0
    0.3250   68.2330   64.5320 C   0  0  0  0  0  0  0  0  0  0  0  0
   -0.8350   68.8180   66.6240 C   0  0  0  0  0  0  0  0  0  0  0  0
   -0.6330   69.8020   67.3250 O   0  0  0  0  0  0  0  0  0  0  0  0
   -3.0590   68.9370   65.6680 N   0  0  0  0  0  0  0  0  0  0  0  0
   -2.2520   68.3530   66.4910 C   0  0  0  0  0  0  0  0  0  0  0  0
   -4.3060   68.3050   65.7440 O   0  0  0  0  0  0  0  0  0  0  0  0
    2.8209   67.7386   62.2375 H   0  0  0  0  0  0  0  0  0  0  0  0
    3.9227   66.4201   61.7395 H   0  0  0  0  0  0  0  0  0  0  0  0
    5.5536   67.9781   62.1264 H   0  0  0  0  0  0  0  0  0  0  0  0
    4.8615   66.8261   64.8222 H   0  0  0  0  0  0  0  0  0  0  0  0
    6.3295   66.6067   63.7852 H   0  0  0  0  0  0  0  0  0  0  0  0
    6.9062   67.8919   65.7766 H   0  0  0  0  0  0  0  0  0  0  0  0
    7.0149   68.9320   64.3145 H   0  0  0  0  0  0  0  0  0  0  0  0
    4.9344   68.8557   66.3992 H   0  0  0  0  0  0  0  0  0  0  0  0
    3.2988   68.9669   65.0267 H   0  0  0  0  0  0  0  0  0  0  0  0
    3.8309   70.6847   64.8667 H   0  0  0  0  0  0  0  0  0  0  0  0
    3.5412   69.6394   62.6607 H   0  0  0  0  0  0  0  0  0  0  0  0
    5.2779   70.0586   62.9839 H   0  0  0  0  0  0  0  0  0  0  0  0
    7.0413   70.6302   65.6804 H   0  0  0  0  0  0  0  0  0  0  0  0
    5.4198   71.4537   65.7979 H   0  0  0  0  0  0  0  0  0  0  0  0
    3.9867   70.5631   67.9300 H   0  0  0  0  0  0  0  0  0  0  0  0
    4.1724   70.5671   70.4140 H   0  0  0  0  0  0  0  0  0  0  0  0
    6.4145   70.6312   71.5011 H   0  0  0  0  0  0  0  0  0  0  0  0
    8.4758   70.7058   70.1026 H   0  0  0  0  0  0  0  0  0  0  0  0
    8.3023   70.6983   67.6167 H   0  0  0  0  0  0  0  0  0  0  0  0
    1.2484   67.2741   67.6513 H   0  0  0  0  0  0  0  0  0  0  0  0
    3.0453   66.1854   66.2733 H   0  0  0  0  0  0  0  0  0  0  0  0
   -0.4565   68.8169   64.0237 H   0  0  0  0  0  0  0  0  0  0  0  0
   -2.6086   67.5080   67.0983 H   0  0  0  0  0  0  0  0  0  0  0  0
   -5.0558   68.6199   65.1794 H   0  0  0  0  0  0  0  0  0  0  0  0
  2  1  1  0
  3  2  1  0
  4  3  1  0
  5  4  1  0
  6  5  1  0
  7  6  1  0
  7  2  1  0
  8  5  1  0
  9  8  1  0
 10  9  2  0
 11 10  1  0
 12 11  2  0
 13 12  1  0
 14 13  2  0
 14  9  1  0
 15  1  1  0
 17 16  2  0
 18 17  1  0
 19 18  2  0
 19 15  1  0
 20 19  1  0
 21 20  2  0
 21 16  1  0
 22 16  1  0
 23 22  2  0
 25 24  2  0
 25 22  1  0
 26 24  1  0
  1 27  1  0
  1 28  1  0
  2 29  1  0
  3 30  1  0
  3 31  1  0
  4 32  1  0
  4 33  1  0
  5 34  1  0
  6 35  1  0
  6 36  1  0
  7 37  1  0
  7 38  1  0
  8 39  1  0
  8 40  1  0
 10 41  1  0
 11 42  1  0
 12 43  1  0
 13 44  1  0
 14 45  1  0
 17 46  1  0
 18 47  1  0
 21 48  1  0
 25 49  1  0
 26 50  1  0
M  CHG  1   5   1
M  END
>  <score>  (7) 
-8.28

$$$$
=
     RDKit          3D

 50 52  0  0  0  0  0  0  0  0999 V2000
    0.7910   64.8120   70.2020 C   0  0  0  0  0  0  0  0  0  0  0  0
    1.5710   64.2260   71.3920 C   0  0  0  0  0  0  0  0  0  0  0  0
    2.5900   63.1750   70.9140 C   0  0  0  0  0  0  0  0  0  0  0  0
    2.8950   62.1650   72.0050 C   0  0  0  0  0  0  0  0  0  0  0  0
    1.6450   61.3810   72.3370 N   0  0  0  0  0  4  0  0  0  0  0  0
    0.3550   62.1760   72.2560 C   0  0  0  0  0  0  0  0  0  0  0  0
    0.6220   63.6590   72.4610 C   0  0  0  0  0  0  0  0  0  0  0  0
    1.8070   60.6140   73.6340 C   0  0  0  0  0  0  0  0  0  0  0  0
    1.2160   59.2320   73.5750 C   0  0  0  0  0  0  0  0  0  0  0  0
   -0.0660   58.9790   74.0860 C   0  0  0  0  0  0  0  0  0  0  0  0
   -0.6200   57.7000   74.0060 C   0  0  0  0  0  0  0  0  0  0  0  0
    0.1010   56.6610   73.4200 C   0  0  0  0  0  0  0  0  0  0  0  0
    1.3780   56.8980   72.9170 C   0  0  0  0  0  0  0  0  0  0  0  0
    1.9360   58.1750   72.9940 C   0  0  0  0  0  0  0  0  0  0  0  0
    0.9520   66.2310   70.2090 O   0  0  0  0  0  0  0  0  0  0  0  0
   -0.7600   68.0110   66.9080 C   0  0  0  0  0  0  0  0  0  0  0  0
   -1.4830   67.0760   67.6490 C   0  0  0  0  0  0  0  0  0  0  0  0
   -0.8900   66.4810   68.7640 C   0  0  0  0  0  0  0  0  0  0  0  0
    0.4090   66.8350   69.0910 C   0  0  0  0  0  0  0  0  0  0  0  0
    1.1390   67.7320   68.3970 N   0  0  0  0  0  0  0  0  0  0  0  0
    0.5380   68.2960   67.3170 C   0  0  0  0  0  0  0  0  0  0  0  0
   -1.2840   68.6950   65.7090 C   0  0  0  0  0  0  0  0  0  0  0  0
   -2.4220   69.1460   65.6790 O   0  0  0  0  0  0  0  0  0  0  0  0
   -0.9130   68.6430   63.3140 N   0  0  0  0  0  0  0  0  0  0  0  0
   -0.4380   68.8920   64.4890 C   0  0  0  0  0  0  0  0  0  0  0  0
    0.0810   68.9130   62.3660 O   0  0  0  0  0  0  0  0  0  0  0  0
    1.1837   64.3987   69.2613 H   0  0  0  0  0  0  0  0  0  0  0  0
   -0.2748   64.5533   70.2860 H   0  0  0  0  0  0  0  0  0  0  0  0
    2.1346   65.0433   71.8657 H   0  0  0  0  0  0  0  0  0  0  0  0
    2.1772   62.6466   70.0420 H   0  0  0  0  0  0  0  0  0  0  0  0
    3.5239   63.6926   70.6498 H   0  0  0  0  0  0  0  0  0  0  0  0
    3.6776   61.4751   71.6563 H   0  0  0  0  0  0  0  0  0  0  0  0
    3.2432   62.6940   72.9044 H   0  0  0  0  0  0  0  0  0  0  0  0
    1.5373   60.6875   71.5831 H   0  0  0  0  0  0  0  0  0  0  0  0
   -0.1004   62.0248   71.2662 H   0  0  0  0  0  0  0  0  0  0  0  0
   -0.3250   61.8271   73.0471 H   0  0  0  0  0  0  0  0  0  0  0  0
   -0.3333   64.2021   72.4120 H   0  0  0  0  0  0  0  0  0  0  0  0
    1.1014   63.7856   73.4429 H   0  0  0  0  0  0  0  0  0  0  0  0
    2.8803   60.5274   73.8587 H   0  0  0  0  0  0  0  0  0  0  0  0
    1.2685   61.1700   74.4156 H   0  0  0  0  0  0  0  0  0  0  0  0
   -0.6385   59.7940   74.5529 H   0  0  0  0  0  0  0  0  0  0  0  0
   -1.6272   57.5119   74.4061 H   0  0  0  0  0  0  0  0  0  0  0  0
   -0.3382   55.6546   73.3548 H   0  0  0  0  0  0  0  0  0  0  0  0
    1.9481   56.0768   72.4580 H   0  0  0  0  0  0  0  0  0  0  0  0
    2.9460   58.3549   72.5972 H   0  0  0  0  0  0  0  0  0  0  0  0
   -2.5099   66.8103   67.3577 H   0  0  0  0  0  0  0  0  0  0  0  0
   -1.4420   65.7472   69.3697 H   0  0  0  0  0  0  0  0  0  0  0  0
    1.1150   69.0246   66.7286 H   0  0  0  0  0  0  0  0  0  0  0  0
    0.5962   69.2516   64.5945 H   0  0  0  0  0  0  0  0  0  0  0  0
   -0.1041   68.7787   61.4028 H   0  0  0  0  0  0  0  0  0  0  0  0
  2  1  1  0
  3  2  1  0
  4  3  1  0
  5  4  1  0
  6  5  1  0
  7  6  1  0
  7  2  1  0
  8  5  1  0
  9  8  1  0
 10  9  2  0
 11 10  1  0
 12 11  2  0
 13 12  1  0
 14 13  2  0
 14  9  1  0
 15  1  1  0
 17 16  2  0
 18 17  1  0
 19 18  2  0
 19 15  1  0
 20 19  1  0
 21 20  2  0
 21 16  1  0
 22 16  1  0
 23 22  2  0
 25 24  2  0
 25 22  1  0
 26 24  1  0
  1 27  1  0
  1 28  1  0
  2 29  1  0
  3 30  1  0
  3 31  1  0
  4 32  1  0
  4 33  1  0
  5 34  1  0
  6 35  1  0
  6 36  1  0
  7 37  1  0
  7 38  1  0
  8 39  1  0
  8 40  1  0
 10 41  1  0
 11 42  1  0
 12 43  1  0
 13 44  1  0
 14 45  1  0
 17 46  1  0
 18 47  1  0
 21 48  1  0
 25 49  1  0
 26 50  1  0
M  CHG  1   5   1
M  END
>  <score>  (8) 
-8.209

$$$$
=
     RDKit          3D

 50 52  0  0  0  0  0  0  0  0999 V2000
    2.2500   61.4250   71.3940 C   0  0  0  0  0  0  0  0  0  0  0  0
    2.0200   62.8980   71.7740 C   0  0  0  0  0  0  0  0  0  0  0  0
    0.5290   63.2670   71.6570 C   0  0  0  0  0  0  0  0  0  0  0  0
    0.3460   64.7490   71.3940 C   0  0  0  0  0  0  0  0  0  0  0  0
    0.9480   65.1070   70.0530 N   0  0  0  0  0  4  0  0  0  0  0  0
    2.2010   64.3320   69.6910 C   0  0  0  0  0  0  0  0  0  0  0  0
    2.9090   63.8380   70.9430 C   0  0  0  0  0  0  0  0  0  0  0  0
    1.0940   66.6080   69.9010 C   0  0  0  0  0  0  0  0  0  0  0  0
    0.3060   67.1590   68.7440 C   0  0  0  0  0  0  0  0  0  0  0  0
    0.8610   68.1300   67.8970 C   0  0  0  0  0  0  0  0  0  0  0  0
    0.1340   68.6200   66.8110 C   0  0  0  0  0  0  0  0  0  0  0  0
   -1.1540   68.1490   66.5620 C   0  0  0  0  0  0  0  0  0  0  0  0
   -1.7190   67.1920   67.4010 C   0  0  0  0  0  0  0  0  0  0  0  0
   -0.9960   66.6990   68.4880 C   0  0  0  0  0  0  0  0  0  0  0  0
    3.4230   60.9620   72.0660 O   0  0  0  0  0  0  0  0  0  0  0  0
    2.6020   57.7660   74.5380 C   0  0  0  0  0  0  0  0  0  0  0  0
    1.7360   58.0760   73.4880 C   0  0  0  0  0  0  0  0  0  0  0  0
    2.0270   59.1610   72.6600 C   0  0  0  0  0  0  0  0  0  0  0  0
    3.1680   59.9040   72.9170 C   0  0  0  0  0  0  0  0  0  0  0  0
    4.0250   59.6360   73.9230 N   0  0  0  0  0  0  0  0  0  0  0  0
    3.7200   58.5740   74.7140 C   0  0  0  0  0  0  0  0  0  0  0  0
    2.3890   56.6480   75.4780 C   0  0  0  0  0  0  0  0  0  0  0  0
    2.6090   56.7740   76.6770 O   0  0  0  0  0  0  0  0  0  0  0  0
    2.6490   54.4820   74.4210 N   0  0  0  0  0  0  0  0  0  0  0  0
    1.8680   55.3230   75.0140 C   0  0  0  0  0  0  0  0  0  0  0  0
    1.9090   53.3390   74.0990 O   0  0  0  0  0  0  0  0  0  0  0  0
    1.3831   60.8223   71.7026 H   0  0  0  0  0  0  0  0  0  0  0  0
    2.3773   61.3317   70.3054 H   0  0  0  0  0  0  0  0  0  0  0  0
    2.3129   63.0279   72.8263 H   0  0  0  0  0  0  0  0  0  0  0  0
    0.0834   62.6984   70.8275 H   0  0  0  0  0  0  0  0  0  0  0  0
    0.0351   63.0202   72.6084 H   0  0  0  0  0  0  0  0  0  0  0  0
   -0.7273   64.9897   71.3889 H   0  0  0  0  0  0  0  0  0  0  0  0
    0.8498   65.3243   72.1847 H   0  0  0  0  0  0  0  0  0  0  0  0
    0.2696   64.7928   69.3446 H   0  0  0  0  0  0  0  0  0  0  0  0
    1.9240   63.4684   69.0685 H   0  0  0  0  0  0  0  0  0  0  0  0
    2.8814   64.9978   69.1398 H   0  0  0  0  0  0  0  0  0  0  0  0
    3.8190   63.2960   70.6460 H   0  0  0  0  0  0  0  0  0  0  0  0
    3.1521   64.7130   71.5637 H   0  0  0  0  0  0  0  0  0  0  0  0
    0.7435   67.0901   70.8255 H   0  0  0  0  0  0  0  0  0  0  0  0
    2.1561   66.8182   69.7067 H   0  0  0  0  0  0  0  0  0  0  0  0
    1.8759   68.5077   68.0901 H   0  0  0  0  0  0  0  0  0  0  0  0
    0.5783   69.3792   66.1505 H   0  0  0  0  0  0  0  0  0  0  0  0
   -1.7239   68.5331   65.7031 H   0  0  0  0  0  0  0  0  0  0  0  0
   -2.7372   66.8239   67.2066 H   0  0  0  0  0  0  0  0  0  0  0  0
   -1.4489   65.9451   69.1487 H   0  0  0  0  0  0  0  0  0  0  0  0
    0.8335   57.4713   73.3150 H   0  0  0  0  0  0  0  0  0  0  0  0
    1.3646   59.4209   71.8211 H   0  0  0  0  0  0  0  0  0  0  0  0
    4.4002   58.3387   75.5458 H   0  0  0  0  0  0  0  0  0  0  0  0
    0.8119   55.0637   75.1794 H   0  0  0  0  0  0  0  0  0  0  0  0
    2.3458   52.5807   73.6361 H   0  0  0  0  0  0  0  0  0  0  0  0
  2  1  1  0
  3  2  1  0
  4  3  1  0
  5  4  1  0
  6  5  1  0
  7  6  1  0
  7  2  1  0
  8  5  1  0
  9  8  1  0
 10  9  2  0
 11 10  1  0
 12 11  2  0
 13 12  1  0
 14 13  2  0
 14  9  1  0
 15  1  1  0
 17 16  2  0
 18 17  1  0
 19 18  2  0
 19 15  1  0
 20 19  1  0
 21 20  2  0
 21 16  1  0
 22 16  1  0
 23 22  2  0
 25 24  2  0
 25 22  1  0
 26 24  1  0
  1 27  1  0
  1 28  1  0
  2 29  1  0
  3 30  1  0
  3 31  1  0
  4 32  1  0
  4 33  1  0
  5 34  1  0
  6 35  1  0
  6 36  1  0
  7 37  1  0
  7 38  1  0
  8 39  1  0
  8 40  1  0
 10 41  1  0
 11 42  1  0
 12 43  1  0
 13 44  1  0
 14 45  1  0
 17 46  1  0
 18 47  1  0
 21 48  1  0
 25 49  1  0
 26 50  1  0
M  CHG  1   5   1
M  END
>  <score>  (9) 
-7.949

$$$$
