=
     RDKit          3D

 23 24  0  0  0  0  0  0  0  0999 V2000
    1.0700   67.9830   66.8670 N   0  0  0  0  0  0  0  0  0  0  0  0
    1.5170   69.1310   67.2640 C   0  0  0  0  0  0  0  0  0  0  0  0
   -0.3340   66.2720   68.8640 O   0  0  0  0  0  0  0  0  0  0  0  0
   -0.8710   66.9840   68.0290 C   0  0  0  0  0  0  0  0  0  0  0  0
   -2.2290   67.1840   67.9880 O   0  0  0  0  0  0  0  0  0  0  0  0
   -2.5230   67.9750   66.8300 C   0  0  0  0  0  0  0  0  0  0  0  0
   -1.2190   68.6380   66.4750 C   0  0  0  0  0  0  0  0  0  0  0  0
   -0.2670   67.7180   67.0090 N   0  0  0  0  0  0  0  0  0  0  0  0
    2.9050   69.4790   67.1030 C   0  0  0  0  0  0  0  0  0  0  0  0
    3.8020   69.1870   66.0880 C   0  0  0  0  0  0  0  0  0  0  0  0
    5.0400   69.7810   66.4460 C   0  0  0  0  0  0  0  0  0  0  0  0
    4.8120   70.3940   67.6550 C   0  0  0  0  0  0  0  0  0  0  0  0
    3.5300   70.2250   68.0690 O   0  0  0  0  0  0  0  0  0  0  0  0
    5.6700   71.1510   68.5130 N   0  0  0  0  0  4  0  0  0  0  0  0
    6.0910   70.6070   69.5410 O   0  0  0  0  0  0  0  0  0  0  0  0
    5.9210   72.3070   68.1490 O   0  0  0  0  0  1  0  0  0  0  0  0
    0.8276   69.8502   67.7305 H   0  0  0  0  0  0  0  0  0  0  0  0
   -2.8711   67.3377   66.0037 H   0  0  0  0  0  0  0  0  0  0  0  0
   -3.3224   68.7066   67.0193 H   0  0  0  0  0  0  0  0  0  0  0  0
   -1.1068   68.7429   65.3858 H   0  0  0  0  0  0  0  0  0  0  0  0
   -1.1184   69.6605   66.8680 H   0  0  0  0  0  0  0  0  0  0  0  0
    3.5940   68.6054   65.1778 H   0  0  0  0  0  0  0  0  0  0  0  0
    5.9813   69.7562   65.8773 H   0  0  0  0  0  0  0  0  0  0  0  0
  2  1  2  0
  4  3  2  0
  5  4  1  0
  6  5  1  0
  7  6  1  0
  8  7  1  0
  8  4  1  0
  8  1  1  0
  9  2  1  0
 10  9  2  0
 11 10  1  0
 12 11  2  0
 13 12  1  0
 13  9  1  0
 14 12  1  0
 15 14  2  0
 16 14  1  0
  2 17  1  0
  6 18  1  0
  6 19  1  0
  7 20  1  0
  7 21  1  0
 10 22  1  0
 11 23  1  0
M  CHG  2  14   1  16  -1
M  END
>  <score>  (1) 
-7.935

$$$$
=
     RDKit          3D

 23 24  0  0  0  0  0  0  0  0999 V2000
    1.3900   68.3390   66.4870 N   0  0  0  0  0  0  0  0  0  0  0  0
    2.0070   69.2420   67.1800 C   0  0  0  0  0  0  0  0  0  0  0  0
   -0.9880   68.7680   64.7420 O   0  0  0  0  0  0  0  0  0  0  0  0
   -0.9960   68.2430   65.8450 C   0  0  0  0  0  0  0  0  0  0  0  0
   -2.1180   67.6580   66.3800 O   0  0  0  0  0  0  0  0  0  0  0  0
   -1.8040   67.2460   67.7150 C   0  0  0  0  0  0  0  0  0  0  0  0
   -0.3010   67.1760   67.7550 C   0  0  0  0  0  0  0  0  0  0  0  0
    0.0630   68.1140   66.7430 N   0  0  0  0  0  0  0  0  0  0  0  0
    3.3910   69.5500   66.9270 C   0  0  0  0  0  0  0  0  0  0  0  0
    4.2240   69.1910   65.8800 C   0  0  0  0  0  0  0  0  0  0  0  0
    5.4920   69.7710   66.1410 C   0  0  0  0  0  0  0  0  0  0  0  0
    5.3440   70.4450   67.3300 C   0  0  0  0  0  0  0  0  0  0  0  0
    4.0840   70.3250   67.8210 O   0  0  0  0  0  0  0  0  0  0  0  0
    6.2630   71.2200   68.1030 N   0  0  0  0  0  4  0  0  0  0  0  0
    7.1870   70.6280   68.6760 O   0  0  0  0  0  0  0  0  0  0  0  0
    6.0520   72.4400   68.1370 O   0  0  0  0  0  1  0  0  0  0  0  0
    1.4671   69.7810   67.9724 H   0  0  0  0  0  0  0  0  0  0  0  0
   -2.1768   67.9801   68.4444 H   0  0  0  0  0  0  0  0  0  0  0  0
   -2.2705   66.2835   67.9720 H   0  0  0  0  0  0  0  0  0  0  0  0
    0.0878   67.4775   68.7388 H   0  0  0  0  0  0  0  0  0  0  0  0
    0.1020   66.1657   67.5911 H   0  0  0  0  0  0  0  0  0  0  0  0
    3.9535   68.5733   65.0110 H   0  0  0  0  0  0  0  0  0  0  0  0
    6.3996   69.6972   65.5239 H   0  0  0  0  0  0  0  0  0  0  0  0
  2  1  2  0
  4  3  2  0
  5  4  1  0
  6  5  1  0
  7  6  1  0
  8  7  1  0
  8  4  1  0
  8  1  1  0
  9  2  1  0
 10  9  2  0
 11 10  1  0
 12 11  2  0
 13 12  1  0
 13  9  1  0
 14 12  1  0
 15 14  2  0
 16 14  1  0
  2 17  1  0
  6 18  1  0
  6 19  1  0
  7 20  1  0
  7 21  1  0
 10 22  1  0
 11 23  1  0
M  CHG  2  14   1  16  -1
M  END
>  <score>  (2) 
-7.709

$$$$
=
     RDKit          3D

 23 24  0  0  0  0  0  0  0  0999 V2000
    4.1340   70.2490   66.9550 N   0  0  0  0  0  0  0  0  0  0  0  0
    4.4830   69.4380   66.0090 C   0  0  0  0  0  0  0  0  0  0  0  0
    3.8210   70.5650   69.9030 O   0  0  0  0  0  0  0  0  0  0  0  0
    4.8750   70.6160   69.2860 C   0  0  0  0  0  0  0  0  0  0  0  0
    6.0950   70.7060   69.9100 O   0  0  0  0  0  0  0  0  0  0  0  0
    7.0960   70.8560   68.8960 C   0  0  0  0  0  0  0  0  0  0  0  0
    6.4470   70.3540   67.6340 C   0  0  0  0  0  0  0  0  0  0  0  0
    5.0640   70.5810   67.9050 N   0  0  0  0  0  0  0  0  0  0  0  0
    3.5590   69.0850   64.9610 C   0  0  0  0  0  0  0  0  0  0  0  0
    2.1920   68.8620   64.9930 C   0  0  0  0  0  0  0  0  0  0  0  0
    1.7930   68.5440   63.6700 C   0  0  0  0  0  0  0  0  0  0  0  0
    2.9440   68.5960   62.9210 C   0  0  0  0  0  0  0  0  0  0  0  0
    4.0220   68.9210   63.6810 O   0  0  0  0  0  0  0  0  0  0  0  0
    3.1840   68.3720   61.5300 N   0  0  0  0  0  4  0  0  0  0  0  0
    2.6840   69.1610   60.7190 O   0  0  0  0  0  0  0  0  0  0  0  0
    3.8810   67.3880   61.2490 O   0  0  0  0  0  1  0  0  0  0  0  0
    5.4975   69.0128   66.0047 H   0  0  0  0  0  0  0  0  0  0  0  0
    7.3838   71.9123   68.7895 H   0  0  0  0  0  0  0  0  0  0  0  0
    8.0158   70.3029   69.1370 H   0  0  0  0  0  0  0  0  0  0  0  0
    6.7822   70.9264   66.7565 H   0  0  0  0  0  0  0  0  0  0  0  0
    6.6878   69.3074   67.3958 H   0  0  0  0  0  0  0  0  0  0  0  0
    1.5399   68.9205   65.8770 H   0  0  0  0  0  0  0  0  0  0  0  0
    0.7783   68.3063   63.3181 H   0  0  0  0  0  0  0  0  0  0  0  0
  2  1  2  0
  4  3  2  0
  5  4  1  0
  6  5  1  0
  7  6  1  0
  8  7  1  0
  8  4  1  0
  8  1  1  0
  9  2  1  0
 10  9  2  0
 11 10  1  0
 12 11  2  0
 13 12  1  0
 13  9  1  0
 14 12  1  0
 15 14  2  0
 16 14  1  0
  2 17  1  0
  6 18  1  0
  6 19  1  0
  7 20  1  0
  7 21  1  0
 10 22  1  0
 11 23  1  0
M  CHG  2  14   1  16  -1
M  END
>  <score>  (3) 
-7.647

$$$$
=
     RDKit          3D

 23 24  0  0  0  0  0  0  0  0999 V2000
    4.0540   70.0370   66.7010 N   0  0  0  0  0  0  0  0  0  0  0  0
    4.5070   69.4810   65.6240 C   0  0  0  0  0  0  0  0  0  0  0  0
    3.6580   70.5520   69.6100 O   0  0  0  0  0  0  0  0  0  0  0  0
    4.7270   70.5800   69.0180 C   0  0  0  0  0  0  0  0  0  0  0  0
    5.9290   70.7340   69.6650 O   0  0  0  0  0  0  0  0  0  0  0  0
    6.9540   70.8320   68.6690 C   0  0  0  0  0  0  0  0  0  0  0  0
    6.3460   70.2310   67.4290 C   0  0  0  0  0  0  0  0  0  0  0  0
    4.9530   70.4510   67.6480 N   0  0  0  0  0  0  0  0  0  0  0  0
    3.6110   69.0630   64.5770 C   0  0  0  0  0  0  0  0  0  0  0  0
    3.8580   68.6880   63.2650 C   0  0  0  0  0  0  0  0  0  0  0  0
    2.6040   68.3740   62.6810 C   0  0  0  0  0  0  0  0  0  0  0  0
    1.6790   68.5780   63.6760 C   0  0  0  0  0  0  0  0  0  0  0  0
    2.2640   68.9930   64.8280 O   0  0  0  0  0  0  0  0  0  0  0  0
    0.2570   68.4310   63.6950 N   0  0  0  0  0  4  0  0  0  0  0  0
   -0.3310   68.3090   62.6130 O   0  0  0  0  0  0  0  0  0  0  0  0
   -0.2760   68.4410   64.8130 O   0  0  0  0  0  1  0  0  0  0  0  0
    5.5897   69.3257   65.5068 H   0  0  0  0  0  0  0  0  0  0  0  0
    7.2267   71.8835   68.4960 H   0  0  0  0  0  0  0  0  0  0  0  0
    7.8766   70.3147   68.9711 H   0  0  0  0  0  0  0  0  0  0  0  0
    6.6948   70.7466   66.5221 H   0  0  0  0  0  0  0  0  0  0  0  0
    6.6099   69.1748   67.2716 H   0  0  0  0  0  0  0  0  0  0  0  0
    4.8398   68.6426   62.7710 H   0  0  0  0  0  0  0  0  0  0  0  0
    2.4129   68.0386   61.6509 H   0  0  0  0  0  0  0  0  0  0  0  0
  2  1  2  0
  4  3  2  0
  5  4  1  0
  6  5  1  0
  7  6  1  0
  8  7  1  0
  8  4  1  0
  8  1  1  0
  9  2  1  0
 10  9  2  0
 11 10  1  0
 12 11  2  0
 13 12  1  0
 13  9  1  0
 14 12  1  0
 15 14  2  0
 16 14  1  0
  2 17  1  0
  6 18  1  0
  6 19  1  0
  7 20  1  0
  7 21  1  0
 10 22  1  0
 11 23  1  0
M  CHG  2  14   1  16  -1
M  END
>  <score>  (4) 
-7.606

$$$$
=
     RDKit          3D

 23 24  0  0  0  0  0  0  0  0999 V2000
    2.0710   65.8700   64.8250 N   0  0  0  0  0  0  0  0  0  0  0  0
    2.3790   66.8510   65.6120 C   0  0  0  0  0  0  0  0  0  0  0  0
    3.8530   66.5970   62.5490 O   0  0  0  0  0  0  0  0  0  0  0  0
    3.9500   65.5950   63.2410 C   0  0  0  0  0  0  0  0  0  0  0  0
    5.0000   64.7160   63.1300 O   0  0  0  0  0  0  0  0  0  0  0  0
    4.7410   63.6110   64.0040 C   0  0  0  0  0  0  0  0  0  0  0  0
    3.7320   64.1290   64.9940 C   0  0  0  0  0  0  0  0  0  0  0  0
    3.0860   65.1570   64.2440 N   0  0  0  0  0  0  0  0  0  0  0  0
    1.3550   67.6100   66.2820 C   0  0  0  0  0  0  0  0  0  0  0  0
    1.4400   68.7250   67.1010 C   0  0  0  0  0  0  0  0  0  0  0  0
    0.1160   69.0570   67.4860 C   0  0  0  0  0  0  0  0  0  0  0  0
   -0.6860   68.1220   66.8760 C   0  0  0  0  0  0  0  0  0  0  0  0
    0.0420   67.2400   66.1430 O   0  0  0  0  0  0  0  0  0  0  0  0
   -2.1030   67.9340   66.8850 N   0  0  0  0  0  4  0  0  0  0  0  0
   -2.5980   67.2850   67.8140 O   0  0  0  0  0  0  0  0  0  0  0  0
   -2.7260   68.4450   65.9440 O   0  0  0  0  0  1  0  0  0  0  0  0
    3.4367   67.1079   65.7708 H   0  0  0  0  0  0  0  0  0  0  0  0
    4.3294   62.7603   63.4410 H   0  0  0  0  0  0  0  0  0  0  0  0
    5.6557   63.2486   64.4959 H   0  0  0  0  0  0  0  0  0  0  0  0
    3.0217   63.3430   65.2900 H   0  0  0  0  0  0  0  0  0  0  0  0
    4.1744   64.4786   65.9385 H   0  0  0  0  0  0  0  0  0  0  0  0
    2.3593   69.2520   67.3962 H   0  0  0  0  0  0  0  0  0  0  0  0
   -0.2016   69.8865   68.1349 H   0  0  0  0  0  0  0  0  0  0  0  0
  2  1  2  0
  4  3  2  0
  5  4  1  0
  6  5  1  0
  7  6  1  0
  8  7  1  0
  8  4  1  0
  8  1  1  0
  9  2  1  0
 10  9  2  0
 11 10  1  0
 12 11  2  0
 13 12  1  0
 13  9  1  0
 14 12  1  0
 15 14  2  0
 16 14  1  0
  2 17  1  0
  6 18  1  0
  6 19  1  0
  7 20  1  0
  7 21  1  0
 10 22  1  0
 11 23  1  0
M  CHG  2  14   1  16  -1
M  END
>  <score>  (5) 
-7.584

$$$$
=
     RDKit          3D

 23 24  0  0  0  0  0  0  0  0999 V2000
    3.2980   69.1000   65.4350 N   0  0  0  0  0  0  0  0  0  0  0  0
    4.4680   69.4820   65.8350 C   0  0  0  0  0  0  0  0  0  0  0  0
    0.8710   68.9280   63.7120 O   0  0  0  0  0  0  0  0  0  0  0  0
    2.0150   68.6800   63.3620 C   0  0  0  0  0  0  0  0  0  0  0  0
    2.3490   68.4030   62.0590 O   0  0  0  0  0  0  0  0  0  0  0  0
    3.7380   68.0550   62.0250 C   0  0  0  0  0  0  0  0  0  0  0  0
    4.3090   68.6240   63.2970 C   0  0  0  0  0  0  0  0  0  0  0  0
    3.1650   68.6430   64.1500 N   0  0  0  0  0  0  0  0  0  0  0  0
    4.6740   69.9330   67.1870 C   0  0  0  0  0  0  0  0  0  0  0  0
    3.7730   70.1750   68.2110 C   0  0  0  0  0  0  0  0  0  0  0  0
    4.5260   70.6070   69.3330 C   0  0  0  0  0  0  0  0  0  0  0  0
    5.8360   70.5970   68.9160 C   0  0  0  0  0  0  0  0  0  0  0  0
    5.9480   70.1940   67.6250 O   0  0  0  0  0  0  0  0  0  0  0  0
    7.0500   70.9300   69.5930 N   0  0  0  0  0  4  0  0  0  0  0  0
    7.8290   71.7160   69.0390 O   0  0  0  0  0  0  0  0  0  0  0  0
    7.2260   70.3910   70.6940 O   0  0  0  0  0  1  0  0  0  0  0  0
    5.3153   69.4619   65.1338 H   0  0  0  0  0  0  0  0  0  0  0  0
    3.8631   66.9624   61.9989 H   0  0  0  0  0  0  0  0  0  0  0  0
    4.2428   68.4493   61.1307 H   0  0  0  0  0  0  0  0  0  0  0  0
    5.1010   67.9783   63.7041 H   0  0  0  0  0  0  0  0  0  0  0  0
    4.7852   69.6074   63.1698 H   0  0  0  0  0  0  0  0  0  0  0  0
    2.6806   70.0549   68.1632 H   0  0  0  0  0  0  0  0  0  0  0  0
    4.1434   70.8896   70.3248 H   0  0  0  0  0  0  0  0  0  0  0  0
  2  1  2  0
  4  3  2  0
  5  4  1  0
  6  5  1  0
  7  6  1  0
  8  7  1  0
  8  4  1  0
  8  1  1  0
  9  2  1  0
 10  9  2  0
 11 10  1  0
 12 11  2  0
 13 12  1  0
 13  9  1  0
 14 12  1  0
 15 14  2  0
 16 14  1  0
  2 17  1  0
  6 18  1  0
  6 19  1  0
  7 20  1  0
  7 21  1  0
 10 22  1  0
 11 23  1  0
M  CHG  2  14   1  16  -1
M  END
>  <score>  (6) 
-7.369

$$$$
=
     RDKit          3D

 23 24  0  0  0  0  0  0  0  0999 V2000
    2.9720   66.9260   64.8710 N   0  0  0  0  0  0  0  0  0  0  0  0
    2.1740   67.9190   65.1000 C   0  0  0  0  0  0  0  0  0  0  0  0
    4.1920   64.9320   63.0210 O   0  0  0  0  0  0  0  0  0  0  0  0
    4.4220   66.1320   63.0320 C   0  0  0  0  0  0  0  0  0  0  0  0
    5.2020   66.7460   62.0830 O   0  0  0  0  0  0  0  0  0  0  0  0
    5.3510   68.1200   62.4580 C   0  0  0  0  0  0  0  0  0  0  0  0
    4.2120   68.3870   63.4060 C   0  0  0  0  0  0  0  0  0  0  0  0
    3.9620   67.0870   63.9380 N   0  0  0  0  0  0  0  0  0  0  0  0
    1.1400   67.8200   66.0980 C   0  0  0  0  0  0  0  0  0  0  0  0
    1.2080   67.5180   67.4490 C   0  0  0  0  0  0  0  0  0  0  0  0
   -0.1180   67.5600   67.9500 C   0  0  0  0  0  0  0  0  0  0  0  0
   -0.9040   67.8840   66.8700 C   0  0  0  0  0  0  0  0  0  0  0  0
   -0.1650   68.0460   65.7430 O   0  0  0  0  0  0  0  0  0  0  0  0
   -2.3160   68.0720   66.7450 N   0  0  0  0  0  4  0  0  0  0  0  0
   -2.7380   68.6590   65.7410 O   0  0  0  0  0  0  0  0  0  0  0  0
   -3.0090   67.6250   67.6690 O   0  0  0  0  0  1  0  0  0  0  0  0
    2.2868   68.8501   64.5253 H   0  0  0  0  0  0  0  0  0  0  0  0
    6.3172   68.2824   62.9580 H   0  0  0  0  0  0  0  0  0  0  0  0
    5.3320   68.7919   61.5873 H   0  0  0  0  0  0  0  0  0  0  0  0
    4.5063   69.0931   64.1964 H   0  0  0  0  0  0  0  0  0  0  0  0
    3.3349   68.8485   62.9287 H   0  0  0  0  0  0  0  0  0  0  0  0
    2.1177   67.2892   68.0235 H   0  0  0  0  0  0  0  0  0  0  0  0
   -0.4473   67.3731   68.9828 H   0  0  0  0  0  0  0  0  0  0  0  0
  2  1  2  0
  4  3  2  0
  5  4  1  0
  6  5  1  0
  7  6  1  0
  8  7  1  0
  8  4  1  0
  8  1  1  0
  9  2  1  0
 10  9  2  0
 11 10  1  0
 12 11  2  0
 13 12  1  0
 13  9  1  0
 14 12  1  0
 15 14  2  0
 16 14  1  0
  2 17  1  0
  6 18  1  0
  6 19  1  0
  7 20  1  0
  7 21  1  0
 10 22  1  0
 11 23  1  0
M  CHG  2  14   1  16  -1
M  END
>  <score>  (7) 
-7.106

$$$$
=
     RDKit          3D

 23 24  0  0  0  0  0  0  0  0999 V2000
    2.0750   69.4840   67.4680 N   0  0  0  0  0  0  0  0  0  0  0  0
    1.5080   68.4440   67.9890 C   0  0  0  0  0  0  0  0  0  0  0  0
    4.5640   69.5100   65.8280 O   0  0  0  0  0  0  0  0  0  0  0  0
    4.4720   69.8670   66.9930 C   0  0  0  0  0  0  0  0  0  0  0  0
    5.5090   70.4580   67.6720 O   0  0  0  0  0  0  0  0  0  0  0  0
    5.0950   70.6430   69.0310 C   0  0  0  0  0  0  0  0  0  0  0  0
    3.5920   70.5830   68.9890 C   0  0  0  0  0  0  0  0  0  0  0  0
    3.3630   69.7770   67.8340 N   0  0  0  0  0  0  0  0  0  0  0  0
    0.1710   68.0640   67.6120 C   0  0  0  0  0  0  0  0  0  0  0  0
   -0.6730   67.0880   68.1170 C   0  0  0  0  0  0  0  0  0  0  0  0
   -1.8750   67.1510   67.3670 C   0  0  0  0  0  0  0  0  0  0  0  0
   -1.6820   68.1620   66.4560 C   0  0  0  0  0  0  0  0  0  0  0  0
   -0.4540   68.7270   66.5870 O   0  0  0  0  0  0  0  0  0  0  0  0
   -2.5280   68.6950   65.4350 N   0  0  0  0  0  4  0  0  0  0  0  0
   -3.6690   69.0530   65.7520 O   0  0  0  0  0  0  0  0  0  0  0  0
   -2.0400   68.7520   64.2980 O   0  0  0  0  0  1  0  0  0  0  0  0
    2.0546   67.8420   68.7299 H   0  0  0  0  0  0  0  0  0  0  0  0
    5.4966   69.8430   69.6703 H   0  0  0  0  0  0  0  0  0  0  0  0
    5.4602   71.5924   69.4497 H   0  0  0  0  0  0  0  0  0  0  0  0
    3.1848   70.1096   69.8946 H   0  0  0  0  0  0  0  0  0  0  0  0
    3.1083   71.5700   68.9459 H   0  0  0  0  0  0  0  0  0  0  0  0
   -0.4525   66.3957   68.9429 H   0  0  0  0  0  0  0  0  0  0  0  0
   -2.7708   66.5243   67.4884 H   0  0  0  0  0  0  0  0  0  0  0  0
  2  1  2  0
  4  3  2  0
  5  4  1  0
  6  5  1  0
  7  6  1  0
  8  7  1  0
  8  4  1  0
  8  1  1  0
  9  2  1  0
 10  9  2  0
 11 10  1  0
 12 11  2  0
 13 12  1  0
 13  9  1  0
 14 12  1  0
 15 14  2  0
 16 14  1  0
  2 17  1  0
  6 18  1  0
  6 19  1  0
  7 20  1  0
  7 21  1  0
 10 22  1  0
 11 23  1  0
M  CHG  2  14   1  16  -1
M  END
>  <score>  (8) 
-7.073

$$$$
=
     RDKit          3D

 23 24  0  0  0  0  0  0  0  0999 V2000
    0.4650   68.5590   66.1630 N   0  0  0  0  0  0  0  0  0  0  0  0
    1.1430   67.9310   65.2570 C   0  0  0  0  0  0  0  0  0  0  0  0
   -0.4770   66.5690   68.1720 O   0  0  0  0  0  0  0  0  0  0  0  0
   -1.1920   67.2650   67.4660 C   0  0  0  0  0  0  0  0  0  0  0  0
   -2.5570   67.3060   67.6030 O   0  0  0  0  0  0  0  0  0  0  0  0
   -3.0800   68.1290   66.5540 C   0  0  0  0  0  0  0  0  0  0  0  0
   -1.9120   68.9640   66.0990 C   0  0  0  0  0  0  0  0  0  0  0  0
   -0.8060   68.1300   66.4420 N   0  0  0  0  0  0  0  0  0  0  0  0
    2.4970   68.3120   64.9500 C   0  0  0  0  0  0  0  0  0  0  0  0
    3.3750   69.1560   65.6120 C   0  0  0  0  0  0  0  0  0  0  0  0
    4.5800   69.1680   64.8650 C   0  0  0  0  0  0  0  0  0  0  0  0
    4.3560   68.3300   63.7990 C   0  0  0  0  0  0  0  0  0  0  0  0
    3.1050   67.8020   63.8320 O   0  0  0  0  0  0  0  0  0  0  0  0
    5.1900   67.9380   62.7060 N   0  0  0  0  0  4  0  0  0  0  0  0
    4.9490   66.8610   62.1470 O   0  0  0  0  0  0  0  0  0  0  0  0
    6.1010   68.7220   62.4080 O   0  0  0  0  0  1  0  0  0  0  0  0
    0.6784   67.0947   64.7141 H   0  0  0  0  0  0  0  0  0  0  0  0
   -3.4581   67.5092   65.7276 H   0  0  0  0  0  0  0  0  0  0  0  0
   -3.9240   68.7472   66.8939 H   0  0  0  0  0  0  0  0  0  0  0  0
   -1.9515   69.1515   65.0158 H   0  0  0  0  0  0  0  0  0  0  0  0
   -1.8744   69.9640   66.5557 H   0  0  0  0  0  0  0  0  0  0  0  0
    3.1749   69.7110   66.5404 H   0  0  0  0  0  0  0  0  0  0  0  0
    5.4990   69.7289   65.0907 H   0  0  0  0  0  0  0  0  0  0  0  0
  2  1  2  0
  4  3  2  0
  5  4  1  0
  6  5  1  0
  7  6  1  0
  8  7  1  0
  8  4  1  0
  8  1  1  0
  9  2  1  0
 10  9  2  0
 11 10  1  0
 12 11  2  0
 13 12  1  0
 13  9  1  0
 14 12  1  0
 15 14  2  0
 16 14  1  0
  2 17  1  0
  6 18  1  0
  6 19  1  0
  7 20  1  0
  7 21  1  0
 10 22  1  0
 11 23  1  0
M  CHG  2  14   1  16  -1
M  END
>  <score>  (9) 
-7.009

$$$$
