=
     RDKit          3D

 69 73  0  0  0  0  0  0  0  0999 V2000
   -0.3000   66.9660   68.7580 C   0  0  0  0  0  0  0  0  0  0  0  0
   -1.5220   66.7760   67.8530 C   0  0  0  0  0  0  0  0  0  0  0  0
   -2.0250   68.0940   67.2530 C   0  0  0  0  0  0  0  0  0  0  0  0
   -1.4240   68.3940   65.8790 C   0  0  0  0  0  0  0  0  0  0  0  0
    0.8710   66.8610   65.2590 O   0  0  0  0  0  0  0  0  0  0  0  0
    1.0150   68.0160   65.6530 C   0  0  0  0  0  0  0  0  0  0  0  0
   -0.0460   68.8280   65.9600 N   0  0  0  0  0  0  0  0  0  0  0  0
    2.3770   68.6170   65.8300 C   0  0  0  0  0  0  0  0  0  0  0  0
    2.6400   69.1580   67.0310 C   0  0  0  0  0  0  0  0  0  0  0  0
    3.9300   69.7670   67.3090 C   0  0  0  0  0  0  0  0  0  0  0  0
    4.2330   70.3370   68.5470 C   0  0  0  0  0  0  0  0  0  0  0  0
    5.4910   70.9110   68.7630 C   0  0  0  0  0  0  0  0  0  0  0  0
    6.4460   70.9180   67.7440 C   0  0  0  0  0  0  0  0  0  0  0  0
    6.1500   70.3500   66.5060 C   0  0  0  0  0  0  0  0  0  0  0  0
    4.8940   69.7830   66.3080 C   0  0  0  0  0  0  0  0  0  0  0  0
    4.6260   69.2190   65.0480 O   0  0  0  0  0  0  0  0  0  0  0  0
    3.3980   68.6320   64.7580 C   0  0  0  0  0  0  0  0  0  0  0  0
    3.1850   68.1480   63.6490 O   0  0  0  0  0  0  0  0  0  0  0  0
    0.0810   65.7280   69.5780 C   0  0  0  0  0  0  0  0  0  0  0  0
    0.2640   65.9970   71.0700 C   0  0  0  0  0  0  0  0  0  0  0  0
    0.2710   64.6950   71.8730 C   0  0  0  0  0  0  0  0  0  0  0  0
    0.1820   63.5610   70.9430 N   0  0  0  0  0  0  0  0  0  0  0  0
    0.9120   62.4350   71.4190 C   0  0  0  0  0  0  0  0  0  0  0  0
    2.2180   62.2320   70.9550 C   0  0  0  0  0  0  0  0  0  0  0  0
    2.9400   63.1680   70.0230 C   0  0  0  0  0  0  0  0  0  0  0  0
    4.3980   63.3740   70.4470 C   0  0  0  0  0  0  0  0  0  0  0  0
    5.1200   62.1040   70.9180 C   0  0  0  0  0  0  0  0  0  0  0  0
    4.2770   60.8350   70.8290 C   0  0  0  0  0  0  0  0  0  0  0  0
    2.8890   61.0800   71.3590 C   0  0  0  0  0  0  0  0  0  0  0  0
    2.3540   60.1490   72.1770 N   0  0  0  0  0  0  0  0  0  0  0  0
    1.1050   60.3420   72.6260 C   0  0  0  0  0  0  0  0  0  0  0  0
    0.3200   61.4630   72.2770 C   0  0  0  0  0  0  0  0  0  0  0  0
   -1.0000   61.5460   72.7940 C   0  0  0  0  0  0  0  0  0  0  0  0
   -1.5160   60.5600   73.6340 C   0  0  0  0  0  0  0  0  0  0  0  0
   -0.7280   59.4720   73.9740 C   0  0  0  0  0  0  0  0  0  0  0  0
    0.5680   59.3740   73.4660 C   0  0  0  0  0  0  0  0  0  0  0  0
    0.5579   67.2364   68.1249 H   0  0  0  0  0  0  0  0  0  0  0  0
   -0.5647   67.7515   69.4811 H   0  0  0  0  0  0  0  0  0  0  0  0
   -1.2494   66.0969   67.0317 H   0  0  0  0  0  0  0  0  0  0  0  0
   -2.3321   66.3621   68.4714 H   0  0  0  0  0  0  0  0  0  0  0  0
   -3.1190   68.0382   67.1523 H   0  0  0  0  0  0  0  0  0  0  0  0
   -1.7153   68.9030   67.9309 H   0  0  0  0  0  0  0  0  0  0  0  0
   -1.4711   67.4815   65.2665 H   0  0  0  0  0  0  0  0  0  0  0  0
   -2.0065   69.2124   65.4307 H   0  0  0  0  0  0  0  0  0  0  0  0
    0.1470   69.7934   66.2629 H   0  0  0  0  0  0  0  0  0  0  0  0
    1.8685   69.1399   67.8148 H   0  0  0  0  0  0  0  0  0  0  0  0
    3.4834   70.3349   69.3521 H   0  0  0  0  0  0  0  0  0  0  0  0
    5.7285   71.3585   69.7394 H   0  0  0  0  0  0  0  0  0  0  0  0
    7.4326   71.3721   67.9185 H   0  0  0  0  0  0  0  0  0  0  0  0
    6.8968   70.3498   65.6984 H   0  0  0  0  0  0  0  0  0  0  0  0
   -0.7135   64.9768   69.4579 H   0  0  0  0  0  0  0  0  0  0  0  0
    1.0540   65.3841   69.1973 H   0  0  0  0  0  0  0  0  0  0  0  0
    1.2198   66.5189   71.2254 H   0  0  0  0  0  0  0  0  0  0  0  0
   -0.5776   66.6144   71.4172 H   0  0  0  0  0  0  0  0  0  0  0  0
    1.2028   64.6242   72.4533 H   0  0  0  0  0  0  0  0  0  0  0  0
   -0.5853   64.6786   72.5633 H   0  0  0  0  0  0  0  0  0  0  0  0
   -0.3431   63.5784   70.0571 H   0  0  0  0  0  0  0  0  0  0  0  0
    2.9200   62.7460   69.0074 H   0  0  0  0  0  0  0  0  0  0  0  0
    2.4320   64.1432   70.0538 H   0  0  0  0  0  0  0  0  0  0  0  0
    4.9496   63.7815   69.5870 H   0  0  0  0  0  0  0  0  0  0  0  0
    4.3746   64.0540   71.3113 H   0  0  0  0  0  0  0  0  0  0  0  0
    6.0169   61.9665   70.2962 H   0  0  0  0  0  0  0  0  0  0  0  0
    5.3571   62.2517   71.9819 H   0  0  0  0  0  0  0  0  0  0  0  0
    4.2114   60.5180   69.7777 H   0  0  0  0  0  0  0  0  0  0  0  0
    4.7537   60.0505   71.4350 H   0  0  0  0  0  0  0  0  0  0  0  0
   -1.6294   62.4073   72.5258 H   0  0  0  0  0  0  0  0  0  0  0  0
   -2.5410   60.6451   74.0239 H   0  0  0  0  0  0  0  0  0  0  0  0
   -1.1217   58.6903   74.6403 H   0  0  0  0  0  0  0  0  0  0  0  0
    1.1833   58.5039   73.7388 H   0  0  0  0  0  0  0  0  0  0  0  0
  2  1  1  0
  3  2  1  0
  4  3  1  0
  6  5  2  0
  7  6  1  0
  7  4  1  0
  8  6  1  0
  9  8  2  0
 10  9  1  0
 11 10  2  0
 12 11  1  0
 13 12  2  0
 14 13  1  0
 15 10  1  0
 15 14  2  0
 16 15  1  0
 17 16  1  0
 17  8  1  0
 18 17  2  0
 19  1  1  0
 20 19  1  0
 21 20  1  0
 22 21  1  0
 23 22  1  0
 24 23  1  0
 25 24  1  0
 26 25  1  0
 27 26  1  0
 28 27  1  0
 29 28  1  0
 29 24  2  0
 30 29  1  0
 31 30  2  0
 32 31  1  0
 32 23  2  0
 33 32  1  0
 34 33  2  0
 35 34  1  0
 36 35  2  0
 36 31  1  0
  1 37  1  0
  1 38  1  0
  2 39  1  0
  2 40  1  0
  3 41  1  0
  3 42  1  0
  4 43  1  0
  4 44  1  0
  7 45  1  0
  9 46  1  0
 11 47  1  0
 12 48  1  0
 13 49  1  0
 14 50  1  0
 19 51  1  0
 19 52  1  0
 20 53  1  0
 20 54  1  0
 21 55  1  0
 21 56  1  0
 22 57  1  0
 25 58  1  0
 25 59  1  0
 26 60  1  0
 26 61  1  0
 27 62  1  0
 27 63  1  0
 28 64  1  0
 28 65  1  0
 33 66  1  0
 34 67  1  0
 35 68  1  0
 36 69  1  0
M  END
>  <score>  (1) 
-12.362

$$$$
=
     RDKit          3D

 69 73  0  0  0  0  0  0  0  0999 V2000
    0.4080   65.7220   70.2310 C   0  0  0  0  0  0  0  0  0  0  0  0
    1.1420   64.4420   70.6500 C   0  0  0  0  0  0  0  0  0  0  0  0
    2.6260   64.4570   70.2630 C   0  0  0  0  0  0  0  0  0  0  0  0
    3.0610   63.1950   69.5170 C   0  0  0  0  0  0  0  0  0  0  0  0
    4.6020   61.4890   71.1650 O   0  0  0  0  0  0  0  0  0  0  0  0
    3.4280   61.2020   70.9440 C   0  0  0  0  0  0  0  0  0  0  0  0
    2.6110   61.9830   70.1690 N   0  0  0  0  0  0  0  0  0  0  0  0
    2.8070   59.9610   71.5120 C   0  0  0  0  0  0  0  0  0  0  0  0
    1.8620   60.1410   72.4490 C   0  0  0  0  0  0  0  0  0  0  0  0
    1.1960   59.0050   73.0650 C   0  0  0  0  0  0  0  0  0  0  0  0
    0.2100   59.1600   74.0410 C   0  0  0  0  0  0  0  0  0  0  0  0
   -0.4010   58.0330   74.6030 C   0  0  0  0  0  0  0  0  0  0  0  0
   -0.0270   56.7520   74.1910 C   0  0  0  0  0  0  0  0  0  0  0  0
    0.9560   56.5910   73.2180 C   0  0  0  0  0  0  0  0  0  0  0  0
    1.5540   57.7220   72.6690 C   0  0  0  0  0  0  0  0  0  0  0  0
    2.5420   57.5260   71.6890 O   0  0  0  0  0  0  0  0  0  0  0  0
    3.1950   58.5970   71.0860 C   0  0  0  0  0  0  0  0  0  0  0  0
    4.0600   58.4020   70.2350 O   0  0  0  0  0  0  0  0  0  0  0  0
    1.2920   66.7580   69.5280 C   0  0  0  0  0  0  0  0  0  0  0  0
    0.5900   67.5230   68.4090 C   0  0  0  0  0  0  0  0  0  0  0  0
    1.3580   67.4080   67.0900 C   0  0  0  0  0  0  0  0  0  0  0  0
    1.4420   68.7380   66.4710 N   0  0  0  0  0  0  0  0  0  0  0  0
    2.7780   69.0550   66.0940 C   0  0  0  0  0  0  0  0  0  0  0  0
    3.2240   68.6860   64.8170 C   0  0  0  0  0  0  0  0  0  0  0  0
    2.3600   68.0230   63.7780 C   0  0  0  0  0  0  0  0  0  0  0  0
    2.5990   68.6150   62.3850 C   0  0  0  0  0  0  0  0  0  0  0  0
    4.0690   68.8990   62.0470 C   0  0  0  0  0  0  0  0  0  0  0  0
    5.0540   68.4890   63.1390 C   0  0  0  0  0  0  0  0  0  0  0  0
    4.5580   68.9230   64.4920 C   0  0  0  0  0  0  0  0  0  0  0  0
    5.4450   69.4930   65.3340 N   0  0  0  0  0  0  0  0  0  0  0  0
    5.0210   69.8510   66.5550 C   0  0  0  0  0  0  0  0  0  0  0  0
    3.6960   69.6500   67.0060 C   0  0  0  0  0  0  0  0  0  0  0  0
    3.3700   70.0470   68.3290 C   0  0  0  0  0  0  0  0  0  0  0  0
    4.3180   70.6300   69.1700 C   0  0  0  0  0  0  0  0  0  0  0  0
    5.6100   70.8280   68.7080 C   0  0  0  0  0  0  0  0  0  0  0  0
    5.9450   70.4350   67.4110 C   0  0  0  0  0  0  0  0  0  0  0  0
   -0.4062   65.4430   69.5460 H   0  0  0  0  0  0  0  0  0  0  0  0
    0.0471   66.1940   71.1567 H   0  0  0  0  0  0  0  0  0  0  0  0
    1.0641   64.3331   71.7418 H   0  0  0  0  0  0  0  0  0  0  0  0
    0.6696   63.6003   70.1225 H   0  0  0  0  0  0  0  0  0  0  0  0
    2.8111   65.3277   69.6168 H   0  0  0  0  0  0  0  0  0  0  0  0
    3.2088   64.5063   71.1946 H   0  0  0  0  0  0  0  0  0  0  0  0
    2.6430   63.2246   68.5000 H   0  0  0  0  0  0  0  0  0  0  0  0
    4.1608   63.1779   69.5017 H   0  0  0  0  0  0  0  0  0  0  0  0
    1.6302   61.6941   70.0444 H   0  0  0  0  0  0  0  0  0  0  0  0
    1.5882   61.1616   72.7545 H   0  0  0  0  0  0  0  0  0  0  0  0
   -0.0867   60.1674   74.3683 H   0  0  0  0  0  0  0  0  0  0  0  0
   -1.1782   58.1567   75.3716 H   0  0  0  0  0  0  0  0  0  0  0  0
   -0.5096   55.8692   74.6357 H   0  0  0  0  0  0  0  0  0  0  0  0
    1.2555   55.5853   72.8881 H   0  0  0  0  0  0  0  0  0  0  0  0
    1.6364   67.4842   70.2790 H   0  0  0  0  0  0  0  0  0  0  0  0
    2.1192   66.2032   69.0611 H   0  0  0  0  0  0  0  0  0  0  0  0
   -0.4206   67.1107   68.2723 H   0  0  0  0  0  0  0  0  0  0  0  0
    0.5421   68.5850   68.6914 H   0  0  0  0  0  0  0  0  0  0  0  0
    2.3712   67.0266   67.2847 H   0  0  0  0  0  0  0  0  0  0  0  0
    0.8363   66.7145   66.4141 H   0  0  0  0  0  0  0  0  0  0  0  0
    0.6356   69.3626   66.3278 H   0  0  0  0  0  0  0  0  0  0  0  0
    2.5920   66.9480   63.7537 H   0  0  0  0  0  0  0  0  0  0  0  0
    1.3069   68.1914   64.0476 H   0  0  0  0  0  0  0  0  0  0  0  0
    2.2081   67.9057   61.6406 H   0  0  0  0  0  0  0  0  0  0  0  0
    2.0857   69.5878   62.3710 H   0  0  0  0  0  0  0  0  0  0  0  0
    4.3240   68.3496   61.1288 H   0  0  0  0  0  0  0  0  0  0  0  0
    4.1614   69.9890   61.9318 H   0  0  0  0  0  0  0  0  0  0  0  0
    5.1684   67.3950   63.1301 H   0  0  0  0  0  0  0  0  0  0  0  0
    6.0213   68.9751   62.9439 H   0  0  0  0  0  0  0  0  0  0  0  0
    2.3461   69.8914   68.6998 H   0  0  0  0  0  0  0  0  0  0  0  0
    4.0426   70.9303   70.1917 H   0  0  0  0  0  0  0  0  0  0  0  0
    6.3660   71.2916   69.3589 H   0  0  0  0  0  0  0  0  0  0  0  0
    6.9740   70.5931   67.0559 H   0  0  0  0  0  0  0  0  0  0  0  0
  2  1  1  0
  3  2  1  0
  4  3  1  0
  6  5  2  0
  7  6  1  0
  7  4  1  0
  8  6  1  0
  9  8  2  0
 10  9  1  0
 11 10  2  0
 12 11  1  0
 13 12  2  0
 14 13  1  0
 15 10  1  0
 15 14  2  0
 16 15  1  0
 17 16  1  0
 17  8  1  0
 18 17  2  0
 19  1  1  0
 20 19  1  0
 21 20  1  0
 22 21  1  0
 23 22  1  0
 24 23  1  0
 25 24  1  0
 26 25  1  0
 27 26  1  0
 28 27  1  0
 29 28  1  0
 29 24  2  0
 30 29  1  0
 31 30  2  0
 32 31  1  0
 32 23  2  0
 33 32  1  0
 34 33  2  0
 35 34  1  0
 36 35  2  0
 36 31  1  0
  1 37  1  0
  1 38  1  0
  2 39  1  0
  2 40  1  0
  3 41  1  0
  3 42  1  0
  4 43  1  0
  4 44  1  0
  7 45  1  0
  9 46  1  0
 11 47  1  0
 12 48  1  0
 13 49  1  0
 14 50  1  0
 19 51  1  0
 19 52  1  0
 20 53  1  0
 20 54  1  0
 21 55  1  0
 21 56  1  0
 22 57  1  0
 25 58  1  0
 25 59  1  0
 26 60  1  0
 26 61  1  0
 27 62  1  0
 27 63  1  0
 28 64  1  0
 28 65  1  0
 33 66  1  0
 34 67  1  0
 35 68  1  0
 36 69  1  0
M  END
>  <score>  (2) 
-12.181

$$$$
=
     RDKit          3D

 69 73  0  0  0  0  0  0  0  0999 V2000
    1.1360   66.4450   70.1640 C   0  0  0  0  0  0  0  0  0  0  0  0
    0.5240   67.0980   68.9200 C   0  0  0  0  0  0  0  0  0  0  0  0
   -0.9470   66.7150   68.7130 C   0  0  0  0  0  0  0  0  0  0  0  0
   -1.4540   67.0280   67.3050 C   0  0  0  0  0  0  0  0  0  0  0  0
   -1.3760   69.1300   65.4150 O   0  0  0  0  0  0  0  0  0  0  0  0
   -0.4240   68.3560   65.4830 C   0  0  0  0  0  0  0  0  0  0  0  0
   -0.3780   67.3210   66.3820 N   0  0  0  0  0  0  0  0  0  0  0  0
    0.7600   68.4920   64.5750 C   0  0  0  0  0  0  0  0  0  0  0  0
    1.9370   68.7640   65.1640 C   0  0  0  0  0  0  0  0  0  0  0  0
    3.1480   68.9160   64.3760 C   0  0  0  0  0  0  0  0  0  0  0  0
    4.3850   69.1970   64.9590 C   0  0  0  0  0  0  0  0  0  0  0  0
    5.5230   69.3340   64.1550 C   0  0  0  0  0  0  0  0  0  0  0  0
    5.4260   69.1900   62.7690 C   0  0  0  0  0  0  0  0  0  0  0  0
    4.1940   68.9090   62.1810 C   0  0  0  0  0  0  0  0  0  0  0  0
    3.0720   68.7760   62.9960 C   0  0  0  0  0  0  0  0  0  0  0  0
    1.8450   68.4920   62.3720 O   0  0  0  0  0  0  0  0  0  0  0  0
    0.6720   68.3440   63.1050 C   0  0  0  0  0  0  0  0  0  0  0  0
   -0.3910   68.1000   62.5380 O   0  0  0  0  0  0  0  0  0  0  0  0
    0.4530   65.1430   70.5980 C   0  0  0  0  0  0  0  0  0  0  0  0
    0.1060   65.0830   72.0840 C   0  0  0  0  0  0  0  0  0  0  0  0
    0.4200   63.7070   72.6740 C   0  0  0  0  0  0  0  0  0  0  0  0
    0.3710   62.7070   71.6000 N   0  0  0  0  0  0  0  0  0  0  0  0
    1.1600   61.5640   71.9130 C   0  0  0  0  0  0  0  0  0  0  0  0
    2.4510   61.4670   71.3770 C   0  0  0  0  0  0  0  0  0  0  0  0
    3.0980   62.5310   70.5300 C   0  0  0  0  0  0  0  0  0  0  0  0
    4.5650   62.7450   70.9170 C   0  0  0  0  0  0  0  0  0  0  0  0
    5.3500   61.4590   71.2090 C   0  0  0  0  0  0  0  0  0  0  0  0
    4.5490   60.1760   71.0080 C   0  0  0  0  0  0  0  0  0  0  0  0
    3.1790   60.3030   71.6180 C   0  0  0  0  0  0  0  0  0  0  0  0
    2.7140   59.2650   72.3440 N   0  0  0  0  0  0  0  0  0  0  0  0
    1.4800   59.3560   72.8620 C   0  0  0  0  0  0  0  0  0  0  0  0
    0.6410   60.4780   72.6760 C   0  0  0  0  0  0  0  0  0  0  0  0
   -0.6560   60.4490   73.2510 C   0  0  0  0  0  0  0  0  0  0  0  0
   -1.1000   59.3540   73.9930 C   0  0  0  0  0  0  0  0  0  0  0  0
   -0.2600   58.2660   74.1730 C   0  0  0  0  0  0  0  0  0  0  0  0
    1.0150   58.2790   73.6050 C   0  0  0  0  0  0  0  0  0  0  0  0
    2.1927   66.2249   69.9521 H   0  0  0  0  0  0  0  0  0  0  0  0
    1.0034   67.1590   70.9902 H   0  0  0  0  0  0  0  0  0  0  0  0
    0.5914   68.1907   69.0270 H   0  0  0  0  0  0  0  0  0  0  0  0
    1.0868   66.7392   68.0456 H   0  0  0  0  0  0  0  0  0  0  0  0
   -1.0567   65.6354   68.8930 H   0  0  0  0  0  0  0  0  0  0  0  0
   -1.5445   67.3119   69.4178 H   0  0  0  0  0  0  0  0  0  0  0  0
   -2.0138   66.1585   66.9300 H   0  0  0  0  0  0  0  0  0  0  0  0
   -2.0921   67.9217   67.3699 H   0  0  0  0  0  0  0  0  0  0  0  0
    0.4614   66.7244   66.4012 H   0  0  0  0  0  0  0  0  0  0  0  0
    1.9841   68.8730   66.2576 H   0  0  0  0  0  0  0  0  0  0  0  0
    4.4656   69.3108   66.0501 H   0  0  0  0  0  0  0  0  0  0  0  0
    6.4967   69.5558   64.6163 H   0  0  0  0  0  0  0  0  0  0  0  0
    6.3227   69.2985   62.1411 H   0  0  0  0  0  0  0  0  0  0  0  0
    4.1089   68.7940   61.0903 H   0  0  0  0  0  0  0  0  0  0  0  0
   -0.4775   65.0330   70.0218 H   0  0  0  0  0  0  0  0  0  0  0  0
    1.1706   64.3312   70.4081 H   0  0  0  0  0  0  0  0  0  0  0  0
    0.6919   65.8445   72.6196 H   0  0  0  0  0  0  0  0  0  0  0  0
   -0.9721   65.2706   72.1962 H   0  0  0  0  0  0  0  0  0  0  0  0
    1.4242   63.7180   73.1228 H   0  0  0  0  0  0  0  0  0  0  0  0
   -0.3181   63.4569   73.4503 H   0  0  0  0  0  0  0  0  0  0  0  0
   -0.1671   62.8185   70.7288 H   0  0  0  0  0  0  0  0  0  0  0  0
    3.0481   62.2263   69.4742 H   0  0  0  0  0  0  0  0  0  0  0  0
    2.5580   63.4755   70.6921 H   0  0  0  0  0  0  0  0  0  0  0  0
    5.0640   63.2694   70.0887 H   0  0  0  0  0  0  0  0  0  0  0  0
    4.5562   63.3208   71.8542 H   0  0  0  0  0  0  0  0  0  0  0  0
    6.2229   61.4287   70.5403 H   0  0  0  0  0  0  0  0  0  0  0  0
    5.6279   61.4939   72.2727 H   0  0  0  0  0  0  0  0  0  0  0  0
    4.4477   59.9787   69.9306 H   0  0  0  0  0  0  0  0  0  0  0  0
    5.0795   59.3472   71.4996 H   0  0  0  0  0  0  0  0  0  0  0  0
   -1.3265   61.3093   73.1085 H   0  0  0  0  0  0  0  0  0  0  0  0
   -2.1087   59.3540   74.4317 H   0  0  0  0  0  0  0  0  0  0  0  0
   -0.5960   57.3982   74.7595 H   0  0  0  0  0  0  0  0  0  0  0  0
    1.6720   57.4088   73.7505 H   0  0  0  0  0  0  0  0  0  0  0  0
  2  1  1  0
  3  2  1  0
  4  3  1  0
  6  5  2  0
  7  6  1  0
  7  4  1  0
  8  6  1  0
  9  8  2  0
 10  9  1  0
 11 10  2  0
 12 11  1  0
 13 12  2  0
 14 13  1  0
 15 10  1  0
 15 14  2  0
 16 15  1  0
 17 16  1  0
 17  8  1  0
 18 17  2  0
 19  1  1  0
 20 19  1  0
 21 20  1  0
 22 21  1  0
 23 22  1  0
 24 23  1  0
 25 24  1  0
 26 25  1  0
 27 26  1  0
 28 27  1  0
 29 28  1  0
 29 24  2  0
 30 29  1  0
 31 30  2  0
 32 31  1  0
 32 23  2  0
 33 32  1  0
 34 33  2  0
 35 34  1  0
 36 35  2  0
 36 31  1  0
  1 37  1  0
  1 38  1  0
  2 39  1  0
  2 40  1  0
  3 41  1  0
  3 42  1  0
  4 43  1  0
  4 44  1  0
  7 45  1  0
  9 46  1  0
 11 47  1  0
 12 48  1  0
 13 49  1  0
 14 50  1  0
 19 51  1  0
 19 52  1  0
 20 53  1  0
 20 54  1  0
 21 55  1  0
 21 56  1  0
 22 57  1  0
 25 58  1  0
 25 59  1  0
 26 60  1  0
 26 61  1  0
 27 62  1  0
 27 63  1  0
 28 64  1  0
 28 65  1  0
 33 66  1  0
 34 67  1  0
 35 68  1  0
 36 69  1  0
M  END
>  <score>  (3) 
-12.166

$$$$
=
     RDKit          3D

 69 73  0  0  0  0  0  0  0  0999 V2000
    4.8920   64.7420   64.0140 C   0  0  0  0  0  0  0  0  0  0  0  0
    4.1860   63.5450   64.6640 C   0  0  0  0  0  0  0  0  0  0  0  0
    3.5240   63.9020   66.0000 C   0  0  0  0  0  0  0  0  0  0  0  0
    4.1250   63.1450   67.1850 C   0  0  0  0  0  0  0  0  0  0  0  0
    4.5020   63.2440   69.9870 O   0  0  0  0  0  0  0  0  0  0  0  0
    3.4090   62.8990   69.5450 C   0  0  0  0  0  0  0  0  0  0  0  0
    3.1410   62.8380   68.2020 N   0  0  0  0  0  0  0  0  0  0  0  0
    2.2850   62.5110   70.4590 C   0  0  0  0  0  0  0  0  0  0  0  0
    2.4360   61.3620   71.1390 C   0  0  0  0  0  0  0  0  0  0  0  0
    1.4060   60.8950   72.0510 C   0  0  0  0  0  0  0  0  0  0  0  0
    1.5330   59.7060   72.7710 C   0  0  0  0  0  0  0  0  0  0  0  0
    0.5120   59.2990   73.6370 C   0  0  0  0  0  0  0  0  0  0  0  0
   -0.6370   60.0790   73.7840 C   0  0  0  0  0  0  0  0  0  0  0  0
   -0.7710   61.2670   73.0680 C   0  0  0  0  0  0  0  0  0  0  0  0
    0.2550   61.6570   72.2100 C   0  0  0  0  0  0  0  0  0  0  0  0
    0.0890   62.8600   71.5020 O   0  0  0  0  0  0  0  0  0  0  0  0
    1.0610   63.3270   70.6230 C   0  0  0  0  0  0  0  0  0  0  0  0
    0.8930   64.3800   70.0110 O   0  0  0  0  0  0  0  0  0  0  0  0
    3.9610   65.9040   63.6510 C   0  0  0  0  0  0  0  0  0  0  0  0
    4.6840   67.1450   63.1290 C   0  0  0  0  0  0  0  0  0  0  0  0
    5.2500   67.9830   64.2780 C   0  0  0  0  0  0  0  0  0  0  0  0
    4.4400   69.1990   64.4220 N   0  0  0  0  0  0  0  0  0  0  0  0
    3.9650   69.3560   65.7550 C   0  0  0  0  0  0  0  0  0  0  0  0
    2.6310   69.0310   66.0390 C   0  0  0  0  0  0  0  0  0  0  0  0
    1.6670   68.4600   65.0330 C   0  0  0  0  0  0  0  0  0  0  0  0
    0.8210   67.3360   65.6390 C   0  0  0  0  0  0  0  0  0  0  0  0
    0.3230   67.5990   67.0670 C   0  0  0  0  0  0  0  0  0  0  0  0
    0.7100   68.9670   67.6230 C   0  0  0  0  0  0  0  0  0  0  0  0
    2.1540   69.2730   67.3250 C   0  0  0  0  0  0  0  0  0  0  0  0
    2.9040   69.7970   68.3170 N   0  0  0  0  0  0  0  0  0  0  0  0
    4.1810   70.1060   68.0500 C   0  0  0  0  0  0  0  0  0  0  0  0
    4.7760   69.9200   66.7820 C   0  0  0  0  0  0  0  0  0  0  0  0
    6.1310   70.3090   66.6120 C   0  0  0  0  0  0  0  0  0  0  0  0
    6.8700   70.8510   67.6630 C   0  0  0  0  0  0  0  0  0  0  0  0
    6.2730   71.0170   68.9030 C   0  0  0  0  0  0  0  0  0  0  0  0
    4.9400   70.6460   69.0800 C   0  0  0  0  0  0  0  0  0  0  0  0
    5.6520   65.1161   64.7158 H   0  0  0  0  0  0  0  0  0  0  0  0
    5.3233   64.3779   63.0698 H   0  0  0  0  0  0  0  0  0  0  0  0
    3.4117   63.1766   63.9750 H   0  0  0  0  0  0  0  0  0  0  0  0
    4.9491   62.7789   64.8658 H   0  0  0  0  0  0  0  0  0  0  0  0
    3.6465   64.9811   66.1747 H   0  0  0  0  0  0  0  0  0  0  0  0
    2.4643   63.6155   65.9294 H   0  0  0  0  0  0  0  0  0  0  0  0
    4.5595   62.2032   66.8185 H   0  0  0  0  0  0  0  0  0  0  0  0
    4.8888   63.7911   67.6424 H   0  0  0  0  0  0  0  0  0  0  0  0
    2.1954   62.5608   67.9023 H   0  0  0  0  0  0  0  0  0  0  0  0
    3.3513   60.7672   71.0034 H   0  0  0  0  0  0  0  0  0  0  0  0
    2.4363   59.0885   72.6576 H   0  0  0  0  0  0  0  0  0  0  0  0
    0.6147   58.3618   74.2037 H   0  0  0  0  0  0  0  0  0  0  0  0
   -1.4372   59.7553   74.4658 H   0  0  0  0  0  0  0  0  0  0  0  0
   -1.6728   61.8871   73.1785 H   0  0  0  0  0  0  0  0  0  0  0  0
    3.2641   65.5580   62.8735 H   0  0  0  0  0  0  0  0  0  0  0  0
    3.4501   66.2019   64.5785 H   0  0  0  0  0  0  0  0  0  0  0  0
    5.5101   66.8298   62.4746 H   0  0  0  0  0  0  0  0  0  0  0  0
    3.9609   67.7604   62.5737 H   0  0  0  0  0  0  0  0  0  0  0  0
    5.2139   67.4023   65.2115 H   0  0  0  0  0  0  0  0  0  0  0  0
    6.2944   68.2535   64.0634 H   0  0  0  0  0  0  0  0  0  0  0  0
    4.2403   69.8564   63.6546 H   0  0  0  0  0  0  0  0  0  0  0  0
    0.9990   69.2612   64.6838 H   0  0  0  0  0  0  0  0  0  0  0  0
    2.2482   68.0418   64.1979 H   0  0  0  0  0  0  0  0  0  0  0  0
   -0.0568   67.1833   64.9938 H   0  0  0  0  0  0  0  0  0  0  0  0
    1.4766   66.4547   65.6986 H   0  0  0  0  0  0  0  0  0  0  0  0
   -0.7744   67.5238   67.0689 H   0  0  0  0  0  0  0  0  0  0  0  0
    0.8029   66.8484   67.7122 H   0  0  0  0  0  0  0  0  0  0  0  0
    0.0748   69.7374   67.1614 H   0  0  0  0  0  0  0  0  0  0  0  0
    0.5678   68.9588   68.7137 H   0  0  0  0  0  0  0  0  0  0  0  0
    6.6083   70.1799   65.6294 H   0  0  0  0  0  0  0  0  0  0  0  0
    7.9189   71.1446   67.5092 H   0  0  0  0  0  0  0  0  0  0  0  0
    6.8465   71.4384   69.7417 H   0  0  0  0  0  0  0  0  0  0  0  0
    4.4751   70.7857   70.0671 H   0  0  0  0  0  0  0  0  0  0  0  0
  2  1  1  0
  3  2  1  0
  4  3  1  0
  6  5  2  0
  7  6  1  0
  7  4  1  0
  8  6  1  0
  9  8  2  0
 10  9  1  0
 11 10  2  0
 12 11  1  0
 13 12  2  0
 14 13  1  0
 15 10  1  0
 15 14  2  0
 16 15  1  0
 17 16  1  0
 17  8  1  0
 18 17  2  0
 19  1  1  0
 20 19  1  0
 21 20  1  0
 22 21  1  0
 23 22  1  0
 24 23  1  0
 25 24  1  0
 26 25  1  0
 27 26  1  0
 28 27  1  0
 29 28  1  0
 29 24  2  0
 30 29  1  0
 31 30  2  0
 32 31  1  0
 32 23  2  0
 33 32  1  0
 34 33  2  0
 35 34  1  0
 36 35  2  0
 36 31  1  0
  1 37  1  0
  1 38  1  0
  2 39  1  0
  2 40  1  0
  3 41  1  0
  3 42  1  0
  4 43  1  0
  4 44  1  0
  7 45  1  0
  9 46  1  0
 11 47  1  0
 12 48  1  0
 13 49  1  0
 14 50  1  0
 19 51  1  0
 19 52  1  0
 20 53  1  0
 20 54  1  0
 21 55  1  0
 21 56  1  0
 22 57  1  0
 25 58  1  0
 25 59  1  0
 26 60  1  0
 26 61  1  0
 27 62  1  0
 27 63  1  0
 28 64  1  0
 28 65  1  0
 33 66  1  0
 34 67  1  0
 35 68  1  0
 36 69  1  0
M  END
>  <score>  (4) 
-12.109

$$$$
=
     RDKit          3D

 69 73  0  0  0  0  0  0  0  0999 V2000
    0.9500   66.4250   70.2430 C   0  0  0  0  0  0  0  0  0  0  0  0
    0.4220   66.9030   68.8850 C   0  0  0  0  0  0  0  0  0  0  0  0
   -1.0530   66.5450   68.6650 C   0  0  0  0  0  0  0  0  0  0  0  0
   -1.5560   66.9150   67.2690 C   0  0  0  0  0  0  0  0  0  0  0  0
   -1.2450   69.2660   65.7270 O   0  0  0  0  0  0  0  0  0  0  0  0
   -0.4050   68.3750   65.6290 C   0  0  0  0  0  0  0  0  0  0  0  0
   -0.4750   67.2120   66.3520 N   0  0  0  0  0  0  0  0  0  0  0  0
    0.7620   68.5010   64.6980 C   0  0  0  0  0  0  0  0  0  0  0  0
    1.9500   68.7790   65.2610 C   0  0  0  0  0  0  0  0  0  0  0  0
    3.1460   68.9220   64.4490 C   0  0  0  0  0  0  0  0  0  0  0  0
    4.3940   69.2110   65.0050 C   0  0  0  0  0  0  0  0  0  0  0  0
    5.5160   69.3380   64.1780 C   0  0  0  0  0  0  0  0  0  0  0  0
    5.3930   69.1790   62.7960 C   0  0  0  0  0  0  0  0  0  0  0  0
    4.1500   68.8910   62.2350 C   0  0  0  0  0  0  0  0  0  0  0  0
    3.0440   68.7670   63.0720 C   0  0  0  0  0  0  0  0  0  0  0  0
    1.8060   68.4760   62.4740 O   0  0  0  0  0  0  0  0  0  0  0  0
    0.6460   68.3360   63.2310 C   0  0  0  0  0  0  0  0  0  0  0  0
   -0.4270   68.0860   62.6870 O   0  0  0  0  0  0  0  0  0  0  0  0
    0.2950   65.1400   70.7610 C   0  0  0  0  0  0  0  0  0  0  0  0
    0.0750   65.1140   72.2720 C   0  0  0  0  0  0  0  0  0  0  0  0
    0.4510   63.7560   72.8660 C   0  0  0  0  0  0  0  0  0  0  0  0
   -0.0860   62.6940   72.0050 N   0  0  0  0  0  0  0  0  0  0  0  0
    0.7890   61.5730   71.9490 C   0  0  0  0  0  0  0  0  0  0  0  0
    0.6120   60.5310   72.8700 C   0  0  0  0  0  0  0  0  0  0  0  0
   -0.4930   60.4830   73.8910 C   0  0  0  0  0  0  0  0  0  0  0  0
   -1.1020   59.0810   73.9980 C   0  0  0  0  0  0  0  0  0  0  0  0
   -0.0860   57.9310   73.9580 C   0  0  0  0  0  0  0  0  0  0  0  0
    1.3690   58.3830   73.8770 C   0  0  0  0  0  0  0  0  0  0  0  0
    1.5290   59.4820   72.8610 C   0  0  0  0  0  0  0  0  0  0  0  0
    2.5750   59.4080   72.0120 N   0  0  0  0  0  0  0  0  0  0  0  0
    2.7460   60.4010   71.1270 C   0  0  0  0  0  0  0  0  0  0  0  0
    1.8920   61.5240   71.0470 C   0  0  0  0  0  0  0  0  0  0  0  0
    2.1870   62.5250   70.0860 C   0  0  0  0  0  0  0  0  0  0  0  0
    3.2820   62.4120   69.2290 C   0  0  0  0  0  0  0  0  0  0  0  0
    4.1040   61.2990   69.3150 C   0  0  0  0  0  0  0  0  0  0  0  0
    3.8280   60.3110   70.2620 C   0  0  0  0  0  0  0  0  0  0  0  0
    2.0311   66.2457   70.1479 H   0  0  0  0  0  0  0  0  0  0  0  0
    0.7082   67.2150   70.9692 H   0  0  0  0  0  0  0  0  0  0  0  0
    0.5309   67.9962   68.8299 H   0  0  0  0  0  0  0  0  0  0  0  0
    1.0073   66.3964   68.1035 H   0  0  0  0  0  0  0  0  0  0  0  0
   -1.1753   65.4609   68.8057 H   0  0  0  0  0  0  0  0  0  0  0  0
   -1.6436   67.1226   69.3913 H   0  0  0  0  0  0  0  0  0  0  0  0
   -2.1372   66.0715   66.8682 H   0  0  0  0  0  0  0  0  0  0  0  0
   -2.1725   67.8210   67.3645 H   0  0  0  0  0  0  0  0  0  0  0  0
    0.2765   66.5170   66.2376 H   0  0  0  0  0  0  0  0  0  0  0  0
    2.0178   68.9000   66.3522 H   0  0  0  0  0  0  0  0  0  0  0  0
    4.4952   69.3388   66.0928 H   0  0  0  0  0  0  0  0  0  0  0  0
    6.4984   69.5639   64.6183 H   0  0  0  0  0  0  0  0  0  0  0  0
    6.2774   69.2811   62.1500 H   0  0  0  0  0  0  0  0  0  0  0  0
    4.0443   68.7636   61.1475 H   0  0  0  0  0  0  0  0  0  0  0  0
   -0.6821   65.0281   70.2683 H   0  0  0  0  0  0  0  0  0  0  0  0
    0.9867   64.3170   70.5283 H   0  0  0  0  0  0  0  0  0  0  0  0
    0.6963   65.8931   72.7378 H   0  0  0  0  0  0  0  0  0  0  0  0
   -0.9916   65.2959   72.4703 H   0  0  0  0  0  0  0  0  0  0  0  0
    1.5461   63.6678   72.9214 H   0  0  0  0  0  0  0  0  0  0  0  0
    0.0304   63.6630   73.8782 H   0  0  0  0  0  0  0  0  0  0  0  0
   -0.9841   62.7532   71.5041 H   0  0  0  0  0  0  0  0  0  0  0  0
   -0.0858   60.7710   74.8714 H   0  0  0  0  0  0  0  0  0  0  0  0
   -1.2843   61.1784   73.5744 H   0  0  0  0  0  0  0  0  0  0  0  0
   -1.6516   59.0187   74.9488 H   0  0  0  0  0  0  0  0  0  0  0  0
   -1.7454   58.9555   73.1146 H   0  0  0  0  0  0  0  0  0  0  0  0
   -0.2099   57.3296   74.8707 H   0  0  0  0  0  0  0  0  0  0  0  0
   -0.2909   57.3607   73.0400 H   0  0  0  0  0  0  0  0  0  0  0  0
    1.6875   58.7533   74.8626 H   0  0  0  0  0  0  0  0  0  0  0  0
    1.9888   57.5268   73.5724 H   0  0  0  0  0  0  0  0  0  0  0  0
    1.5378   63.4101   70.0150 H   0  0  0  0  0  0  0  0  0  0  0  0
    3.4916   63.2000   68.4907 H   0  0  0  0  0  0  0  0  0  0  0  0
    4.9677   61.1950   68.6418 H   0  0  0  0  0  0  0  0  0  0  0  0
    4.4886   59.4337   70.3247 H   0  0  0  0  0  0  0  0  0  0  0  0
  2  1  1  0
  3  2  1  0
  4  3  1  0
  6  5  2  0
  7  6  1  0
  7  4  1  0
  8  6  1  0
  9  8  2  0
 10  9  1  0
 11 10  2  0
 12 11  1  0
 13 12  2  0
 14 13  1  0
 15 10  1  0
 15 14  2  0
 16 15  1  0
 17 16  1  0
 17  8  1  0
 18 17  2  0
 19  1  1  0
 20 19  1  0
 21 20  1  0
 22 21  1  0
 23 22  1  0
 24 23  1  0
 25 24  1  0
 26 25  1  0
 27 26  1  0
 28 27  1  0
 29 28  1  0
 29 24  2  0
 30 29  1  0
 31 30  2  0
 32 31  1  0
 32 23  2  0
 33 32  1  0
 34 33  2  0
 35 34  1  0
 36 35  2  0
 36 31  1  0
  1 37  1  0
  1 38  1  0
  2 39  1  0
  2 40  1  0
  3 41  1  0
  3 42  1  0
  4 43  1  0
  4 44  1  0
  7 45  1  0
  9 46  1  0
 11 47  1  0
 12 48  1  0
 13 49  1  0
 14 50  1  0
 19 51  1  0
 19 52  1  0
 20 53  1  0
 20 54  1  0
 21 55  1  0
 21 56  1  0
 22 57  1  0
 25 58  1  0
 25 59  1  0
 26 60  1  0
 26 61  1  0
 27 62  1  0
 27 63  1  0
 28 64  1  0
 28 65  1  0
 33 66  1  0
 34 67  1  0
 35 68  1  0
 36 69  1  0
M  END
>  <score>  (5) 
-11.799

$$$$
=
     RDKit          3D

 69 73  0  0  0  0  0  0  0  0999 V2000
    1.1900   65.9950   70.2530 C   0  0  0  0  0  0  0  0  0  0  0  0
    1.3500   64.4700   70.2890 C   0  0  0  0  0  0  0  0  0  0  0  0
    2.8160   64.0270   70.2100 C   0  0  0  0  0  0  0  0  0  0  0  0
    3.2270   63.1120   71.3640 C   0  0  0  0  0  0  0  0  0  0  0  0
    2.3870   60.4140   71.2350 O   0  0  0  0  0  0  0  0  0  0  0  0
    1.7390   61.2070   71.9140 C   0  0  0  0  0  0  0  0  0  0  0  0
    2.0880   62.5270   72.0400 N   0  0  0  0  0  0  0  0  0  0  0  0
    0.5080   60.7790   72.6530 C   0  0  0  0  0  0  0  0  0  0  0  0
    0.5420   59.5590   73.2150 C   0  0  0  0  0  0  0  0  0  0  0  0
   -0.5990   59.0460   73.9540 C   0  0  0  0  0  0  0  0  0  0  0  0
   -0.5940   57.7830   74.5490 C   0  0  0  0  0  0  0  0  0  0  0  0
   -1.7190   57.3360   75.2510 C   0  0  0  0  0  0  0  0  0  0  0  0
   -2.8500   58.1480   75.3600 C   0  0  0  0  0  0  0  0  0  0  0  0
   -2.8610   59.4100   74.7680 C   0  0  0  0  0  0  0  0  0  0  0  0
   -1.7330   59.8400   74.0740 C   0  0  0  0  0  0  0  0  0  0  0  0
   -1.7770   61.1180   73.4890 O   0  0  0  0  0  0  0  0  0  0  0  0
   -0.6980   61.6290   72.7750 C   0  0  0  0  0  0  0  0  0  0  0  0
   -0.7590   62.7480   72.2680 O   0  0  0  0  0  0  0  0  0  0  0  0
   -0.1000   66.4800   69.5820 C   0  0  0  0  0  0  0  0  0  0  0  0
    0.1230   67.2500   68.2810 C   0  0  0  0  0  0  0  0  0  0  0  0
    1.5390   67.8240   68.2100 C   0  0  0  0  0  0  0  0  0  0  0  0
    1.5080   69.0710   67.4340 N   0  0  0  0  0  0  0  0  0  0  0  0
    2.7010   69.2450   66.6760 C   0  0  0  0  0  0  0  0  0  0  0  0
    2.7300   68.7930   65.3500 C   0  0  0  0  0  0  0  0  0  0  0  0
    1.5520   68.1820   64.6380 C   0  0  0  0  0  0  0  0  0  0  0  0
    1.4300   68.7020   63.2020 C   0  0  0  0  0  0  0  0  0  0  0  0
    2.7600   68.8320   62.4460 C   0  0  0  0  0  0  0  0  0  0  0  0
    3.9780   68.3640   63.2370 C   0  0  0  0  0  0  0  0  0  0  0  0
    3.9300   68.8880   64.6480 C   0  0  0  0  0  0  0  0  0  0  0  0
    5.0650   69.3980   65.1700 N   0  0  0  0  0  0  0  0  0  0  0  0
    5.0400   69.8350   66.4370 C   0  0  0  0  0  0  0  0  0  0  0  0
    3.8890   69.7780   67.2550 C   0  0  0  0  0  0  0  0  0  0  0  0
    3.9900   70.2480   68.5910 C   0  0  0  0  0  0  0  0  0  0  0  0
    5.1840   70.7640   69.0930 C   0  0  0  0  0  0  0  0  0  0  0  0
    6.3020   70.8200   68.2740 C   0  0  0  0  0  0  0  0  0  0  0  0
    6.2170   70.3540   66.9610 C   0  0  0  0  0  0  0  0  0  0  0  0
    1.2002   66.3667   71.2883 H   0  0  0  0  0  0  0  0  0  0  0  0
    2.0235   66.3842   69.6498 H   0  0  0  0  0  0  0  0  0  0  0  0
    0.9185   64.0929   71.2279 H   0  0  0  0  0  0  0  0  0  0  0  0
    0.8312   64.0605   69.4097 H   0  0  0  0  0  0  0  0  0  0  0  0
    2.9686   63.4875   69.2636 H   0  0  0  0  0  0  0  0  0  0  0  0
    3.4371   64.9328   70.2713 H   0  0  0  0  0  0  0  0  0  0  0  0
    3.8551   62.3017   70.9653 H   0  0  0  0  0  0  0  0  0  0  0  0
    3.7733   63.7234   72.0973 H   0  0  0  0  0  0  0  0  0  0  0  0
    1.5127   63.1311   72.6442 H   0  0  0  0  0  0  0  0  0  0  0  0
    1.4459   58.9402   73.1143 H   0  0  0  0  0  0  0  0  0  0  0  0
    0.2942   57.1394   74.4660 H   0  0  0  0  0  0  0  0  0  0  0  0
   -1.7125   56.3406   75.7191 H   0  0  0  0  0  0  0  0  0  0  0  0
   -3.7318   57.7919   75.9128 H   0  0  0  0  0  0  0  0  0  0  0  0
   -3.7474   60.0564   74.8479 H   0  0  0  0  0  0  0  0  0  0  0  0
   -0.7250   65.6023   69.3608 H   0  0  0  0  0  0  0  0  0  0  0  0
   -0.5792   67.1777   70.2846 H   0  0  0  0  0  0  0  0  0  0  0  0
   -0.0305   66.5690   67.4309 H   0  0  0  0  0  0  0  0  0  0  0  0
   -0.5921   68.0851   68.2451 H   0  0  0  0  0  0  0  0  0  0  0  0
    1.9052   68.0305   69.2265 H   0  0  0  0  0  0  0  0  0  0  0  0
    2.2110   67.1001   67.7259 H   0  0  0  0  0  0  0  0  0  0  0  0
    0.7217   69.7363   67.4377 H   0  0  0  0  0  0  0  0  0  0  0  0
    1.6774   67.0895   64.6127 H   0  0  0  0  0  0  0  0  0  0  0  0
    0.6381   68.4597   65.1836 H   0  0  0  0  0  0  0  0  0  0  0  0
    0.7847   68.0095   62.6416 H   0  0  0  0  0  0  0  0  0  0  0  0
    1.0169   69.7188   63.2763 H   0  0  0  0  0  0  0  0  0  0  0  0
    2.6943   68.2315   61.5267 H   0  0  0  0  0  0  0  0  0  0  0  0
    2.9061   69.9037   62.2458 H   0  0  0  0  0  0  0  0  0  0  0  0
    3.9925   67.2643   63.2605 H   0  0  0  0  0  0  0  0  0  0  0  0
    4.8858   68.7474   62.7481 H   0  0  0  0  0  0  0  0  0  0  0  0
    3.1064   70.2040   69.2447 H   0  0  0  0  0  0  0  0  0  0  0  0
    5.2390   71.1240   70.1310 H   0  0  0  0  0  0  0  0  0  0  0  0
    7.2489   71.2287   68.6565 H   0  0  0  0  0  0  0  0  0  0  0  0
    7.1105   70.3992   66.3210 H   0  0  0  0  0  0  0  0  0  0  0  0
  2  1  1  0
  3  2  1  0
  4  3  1  0
  6  5  2  0
  7  6  1  0
  7  4  1  0
  8  6  1  0
  9  8  2  0
 10  9  1  0
 11 10  2  0
 12 11  1  0
 13 12  2  0
 14 13  1  0
 15 10  1  0
 15 14  2  0
 16 15  1  0
 17 16  1  0
 17  8  1  0
 18 17  2  0
 19  1  1  0
 20 19  1  0
 21 20  1  0
 22 21  1  0
 23 22  1  0
 24 23  1  0
 25 24  1  0
 26 25  1  0
 27 26  1  0
 28 27  1  0
 29 28  1  0
 29 24  2  0
 30 29  1  0
 31 30  2  0
 32 31  1  0
 32 23  2  0
 33 32  1  0
 34 33  2  0
 35 34  1  0
 36 35  2  0
 36 31  1  0
  1 37  1  0
  1 38  1  0
  2 39  1  0
  2 40  1  0
  3 41  1  0
  3 42  1  0
  4 43  1  0
  4 44  1  0
  7 45  1  0
  9 46  1  0
 11 47  1  0
 12 48  1  0
 13 49  1  0
 14 50  1  0
 19 51  1  0
 19 52  1  0
 20 53  1  0
 20 54  1  0
 21 55  1  0
 21 56  1  0
 22 57  1  0
 25 58  1  0
 25 59  1  0
 26 60  1  0
 26 61  1  0
 27 62  1  0
 27 63  1  0
 28 64  1  0
 28 65  1  0
 33 66  1  0
 34 67  1  0
 35 68  1  0
 36 69  1  0
M  END
>  <score>  (6) 
-11.455

$$$$
=
     RDKit          3D

 69 73  0  0  0  0  0  0  0  0999 V2000
    4.7250   69.7840   66.1000 C   0  0  0  0  0  0  0  0  0  0  0  0
    3.4130   69.1250   66.5420 C   0  0  0  0  0  0  0  0  0  0  0  0
    2.8870   69.6850   67.8690 C   0  0  0  0  0  0  0  0  0  0  0  0
    1.5470   69.0780   68.2860 C   0  0  0  0  0  0  0  0  0  0  0  0
   -0.0770   66.7630   68.3230 O   0  0  0  0  0  0  0  0  0  0  0  0
    0.8640   66.8430   69.1090 C   0  0  0  0  0  0  0  0  0  0  0  0
    1.7060   67.9240   69.1450 N   0  0  0  0  0  0  0  0  0  0  0  0
    1.1520   65.7520   70.0960 C   0  0  0  0  0  0  0  0  0  0  0  0
    2.2570   65.0210   69.8740 C   0  0  0  0  0  0  0  0  0  0  0  0
    2.6280   63.9390   70.7690 C   0  0  0  0  0  0  0  0  0  0  0  0
    3.7710   63.1620   70.5660 C   0  0  0  0  0  0  0  0  0  0  0  0
    4.0840   62.1310   71.4580 C   0  0  0  0  0  0  0  0  0  0  0  0
    3.2570   61.8730   72.5540 C   0  0  0  0  0  0  0  0  0  0  0  0
    2.1160   62.6450   72.7630 C   0  0  0  0  0  0  0  0  0  0  0  0
    1.8190   63.6670   71.8660 C   0  0  0  0  0  0  0  0  0  0  0  0
    0.6600   64.4270   72.1050 O   0  0  0  0  0  0  0  0  0  0  0  0
    0.2830   65.4670   71.2610 C   0  0  0  0  0  0  0  0  0  0  0  0
   -0.7360   66.1150   71.4870 O   0  0  0  0  0  0  0  0  0  0  0  0
    5.5000   69.0000   65.0350 C   0  0  0  0  0  0  0  0  0  0  0  0
    5.2770   69.4950   63.6070 C   0  0  0  0  0  0  0  0  0  0  0  0
    5.4550   68.3650   62.5920 C   0  0  0  0  0  0  0  0  0  0  0  0
    4.1490   68.0430   62.0040 N   0  0  0  0  0  0  0  0  0  0  0  0
    3.2730   67.4610   62.9630 C   0  0  0  0  0  0  0  0  0  0  0  0
    2.1150   68.1580   63.3320 C   0  0  0  0  0  0  0  0  0  0  0  0
    1.6910   69.4730   62.7310 C   0  0  0  0  0  0  0  0  0  0  0  0
    0.1850   69.5060   62.4540 C   0  0  0  0  0  0  0  0  0  0  0  0
   -0.6890   68.8850   63.5520 C   0  0  0  0  0  0  0  0  0  0  0  0
    0.0910   68.3870   64.7660 C   0  0  0  0  0  0  0  0  0  0  0  0
    1.3130   67.6200   64.3360 C   0  0  0  0  0  0  0  0  0  0  0  0
    1.5830   66.4600   64.9700 N   0  0  0  0  0  0  0  0  0  0  0  0
    2.6890   65.7880   64.6180 C   0  0  0  0  0  0  0  0  0  0  0  0
    3.5870   66.2380   63.6250 C   0  0  0  0  0  0  0  0  0  0  0  0
    4.7390   65.4530   63.3550 C   0  0  0  0  0  0  0  0  0  0  0  0
    4.9840   64.2610   64.0370 C   0  0  0  0  0  0  0  0  0  0  0  0
    4.0870   63.8300   65.0020 C   0  0  0  0  0  0  0  0  0  0  0  0
    2.9550   64.5970   65.2820 C   0  0  0  0  0  0  0  0  0  0  0  0
    4.4903   70.7784   65.6924 H   0  0  0  0  0  0  0  0  0  0  0  0
    5.3702   69.8267   66.9899 H   0  0  0  0  0  0  0  0  0  0  0  0
    2.6546   69.2941   65.7634 H   0  0  0  0  0  0  0  0  0  0  0  0
    3.6128   68.0534   66.6896 H   0  0  0  0  0  0  0  0  0  0  0  0
    3.6267   69.4748   68.6556 H   0  0  0  0  0  0  0  0  0  0  0  0
    2.7295   70.7648   67.7304 H   0  0  0  0  0  0  0  0  0  0  0  0
    0.9659   69.8413   68.8242 H   0  0  0  0  0  0  0  0  0  0  0  0
    1.0307   68.7470   67.3728 H   0  0  0  0  0  0  0  0  0  0  0  0
    2.4885   67.9146   69.8147 H   0  0  0  0  0  0  0  0  0  0  0  0
    2.8895   65.2450   69.0024 H   0  0  0  0  0  0  0  0  0  0  0  0
    4.4252   63.3610   69.7043 H   0  0  0  0  0  0  0  0  0  0  0  0
    4.9849   61.5210   71.2959 H   0  0  0  0  0  0  0  0  0  0  0  0
    3.5066   61.0603   73.2520 H   0  0  0  0  0  0  0  0  0  0  0  0
    1.4598   62.4497   73.6240 H   0  0  0  0  0  0  0  0  0  0  0  0
    6.5734   69.0768   65.2631 H   0  0  0  0  0  0  0  0  0  0  0  0
    5.1294   67.9650   65.0723 H   0  0  0  0  0  0  0  0  0  0  0  0
    4.2559   69.8952   63.5220 H   0  0  0  0  0  0  0  0  0  0  0  0
    6.0208   70.2759   63.3905 H   0  0  0  0  0  0  0  0  0  0  0  0
    6.1474   68.6860   61.7999 H   0  0  0  0  0  0  0  0  0  0  0  0
    5.8674   67.4765   63.0924 H   0  0  0  0  0  0  0  0  0  0  0  0
    3.8980   68.2166   61.0203 H   0  0  0  0  0  0  0  0  0  0  0  0
    1.9432   70.2833   63.4308 H   0  0  0  0  0  0  0  0  0  0  0  0
    2.2199   69.6012   61.7750 H   0  0  0  0  0  0  0  0  0  0  0  0
   -0.1166   70.5567   62.3309 H   0  0  0  0  0  0  0  0  0  0  0  0
    0.0245   68.8976   61.5517 H   0  0  0  0  0  0  0  0  0  0  0  0
   -1.4078   69.6452   63.8919 H   0  0  0  0  0  0  0  0  0  0  0  0
   -1.1773   68.0052   63.1075 H   0  0  0  0  0  0  0  0  0  0  0  0
    0.4015   69.2494   65.3742 H   0  0  0  0  0  0  0  0  0  0  0  0
   -0.5570   67.7194   65.3528 H   0  0  0  0  0  0  0  0  0  0  0  0
    5.4541   65.7923   62.5911 H   0  0  0  0  0  0  0  0  0  0  0  0
    5.8822   63.6676   63.8107 H   0  0  0  0  0  0  0  0  0  0  0  0
    4.2662   62.8895   65.5436 H   0  0  0  0  0  0  0  0  0  0  0  0
    2.2517   64.2477   66.0523 H   0  0  0  0  0  0  0  0  0  0  0  0
  2  1  1  0
  3  2  1  0
  4  3  1  0
  6  5  2  0
  7  6  1  0
  7  4  1  0
  8  6  1  0
  9  8  2  0
 10  9  1  0
 11 10  2  0
 12 11  1  0
 13 12  2  0
 14 13  1  0
 15 10  1  0
 15 14  2  0
 16 15  1  0
 17 16  1  0
 17  8  1  0
 18 17  2  0
 19  1  1  0
 20 19  1  0
 21 20  1  0
 22 21  1  0
 23 22  1  0
 24 23  1  0
 25 24  1  0
 26 25  1  0
 27 26  1  0
 28 27  1  0
 29 28  1  0
 29 24  2  0
 30 29  1  0
 31 30  2  0
 32 31  1  0
 32 23  2  0
 33 32  1  0
 34 33  2  0
 35 34  1  0
 36 35  2  0
 36 31  1  0
  1 37  1  0
  1 38  1  0
  2 39  1  0
  2 40  1  0
  3 41  1  0
  3 42  1  0
  4 43  1  0
  4 44  1  0
  7 45  1  0
  9 46  1  0
 11 47  1  0
 12 48  1  0
 13 49  1  0
 14 50  1  0
 19 51  1  0
 19 52  1  0
 20 53  1  0
 20 54  1  0
 21 55  1  0
 21 56  1  0
 22 57  1  0
 25 58  1  0
 25 59  1  0
 26 60  1  0
 26 61  1  0
 27 62  1  0
 27 63  1  0
 28 64  1  0
 28 65  1  0
 33 66  1  0
 34 67  1  0
 35 68  1  0
 36 69  1  0
M  END
>  <score>  (7) 
-11.327

$$$$
=
     RDKit          3D

 69 73  0  0  0  0  0  0  0  0999 V2000
    0.4150   64.9340   70.3020 C   0  0  0  0  0  0  0  0  0  0  0  0
    0.1040   66.3160   69.7150 C   0  0  0  0  0  0  0  0  0  0  0  0
   -1.0850   66.2940   68.7480 C   0  0  0  0  0  0  0  0  0  0  0  0
   -0.9460   67.3020   67.6060 C   0  0  0  0  0  0  0  0  0  0  0  0
   -0.0190   69.9670   67.7940 O   0  0  0  0  0  0  0  0  0  0  0  0
    0.7830   69.0760   67.5280 C   0  0  0  0  0  0  0  0  0  0  0  0
    0.4170   67.7580   67.4330 N   0  0  0  0  0  0  0  0  0  0  0  0
    2.2310   69.3760   67.2820 C   0  0  0  0  0  0  0  0  0  0  0  0
    2.9290   69.8530   68.3270 C   0  0  0  0  0  0  0  0  0  0  0  0
    4.3390   70.1760   68.1970 C   0  0  0  0  0  0  0  0  0  0  0  0
    5.0910   70.6740   69.2630 C   0  0  0  0  0  0  0  0  0  0  0  0
    6.4470   70.9690   69.0860 C   0  0  0  0  0  0  0  0  0  0  0  0
    7.0540   70.7700   67.8440 C   0  0  0  0  0  0  0  0  0  0  0  0
    6.3090   70.2740   66.7760 C   0  0  0  0  0  0  0  0  0  0  0  0
    4.9610   69.9850   66.9690 C   0  0  0  0  0  0  0  0  0  0  0  0
    4.2380   69.4860   65.8710 O   0  0  0  0  0  0  0  0  0  0  0  0
    2.8870   69.1710   65.9710 C   0  0  0  0  0  0  0  0  0  0  0  0
    2.2740   68.7400   64.9970 O   0  0  0  0  0  0  0  0  0  0  0  0
    0.1470   64.8100   71.8060 C   0  0  0  0  0  0  0  0  0  0  0  0
    0.4320   63.4240   72.3810 C   0  0  0  0  0  0  0  0  0  0  0  0
    0.9570   63.5130   73.8150 C   0  0  0  0  0  0  0  0  0  0  0  0
    2.2610   62.8410   73.8860 N   0  0  0  0  0  0  0  0  0  0  0  0
    2.3450   61.7610   72.9620 C   0  0  0  0  0  0  0  0  0  0  0  0
    1.9200   60.4890   73.3690 C   0  0  0  0  0  0  0  0  0  0  0  0
    1.3140   60.1900   74.7150 C   0  0  0  0  0  0  0  0  0  0  0  0
    0.1160   59.2420   74.5950 C   0  0  0  0  0  0  0  0  0  0  0  0
    0.3000   58.0890   73.5990 C   0  0  0  0  0  0  0  0  0  0  0  0
    1.6740   58.0480   72.9360 C   0  0  0  0  0  0  0  0  0  0  0  0
    2.0890   59.4240   72.4870 C   0  0  0  0  0  0  0  0  0  0  0  0
    2.6340   59.5480   71.2580 N   0  0  0  0  0  0  0  0  0  0  0  0
    3.0380   60.7640   70.8640 C   0  0  0  0  0  0  0  0  0  0  0  0
    2.9320   61.9170   71.6730 C   0  0  0  0  0  0  0  0  0  0  0  0
    3.4190   63.1470   71.1570 C   0  0  0  0  0  0  0  0  0  0  0  0
    3.9790   63.2310   69.8820 C   0  0  0  0  0  0  0  0  0  0  0  0
    4.0660   62.0910   69.0990 C   0  0  0  0  0  0  0  0  0  0  0  0
    3.5990   60.8750   69.5980 C   0  0  0  0  0  0  0  0  0  0  0  0
   -0.2053   64.1908   69.7796 H   0  0  0  0  0  0  0  0  0  0  0  0
    1.4932   64.7682   70.1605 H   0  0  0  0  0  0  0  0  0  0  0  0
   -0.1266   67.0053   70.5407 H   0  0  0  0  0  0  0  0  0  0  0  0
    0.9879   66.6425   69.1474 H   0  0  0  0  0  0  0  0  0  0  0  0
   -1.1675   65.2853   68.3170 H   0  0  0  0  0  0  0  0  0  0  0  0
   -1.9814   66.5699   69.3228 H   0  0  0  0  0  0  0  0  0  0  0  0
   -1.2800   66.8258   66.6724 H   0  0  0  0  0  0  0  0  0  0  0  0
   -1.5627   68.1779   67.8559 H   0  0  0  0  0  0  0  0  0  0  0  0
    1.1461   67.0596   67.2290 H   0  0  0  0  0  0  0  0  0  0  0  0
    2.4255   70.0007   69.2938 H   0  0  0  0  0  0  0  0  0  0  0  0
    4.6169   70.8344   70.2425 H   0  0  0  0  0  0  0  0  0  0  0  0
    7.0374   71.3592   69.9282 H   0  0  0  0  0  0  0  0  0  0  0  0
    8.1201   71.0048   67.7089 H   0  0  0  0  0  0  0  0  0  0  0  0
    6.7792   70.1132   65.7947 H   0  0  0  0  0  0  0  0  0  0  0  0
    0.7826   65.5385   72.3308 H   0  0  0  0  0  0  0  0  0  0  0  0
   -0.9270   64.9979   71.9520 H   0  0  0  0  0  0  0  0  0  0  0  0
   -0.4977   62.8361   72.3759 H   0  0  0  0  0  0  0  0  0  0  0  0
    1.2012   62.9423   71.7595 H   0  0  0  0  0  0  0  0  0  0  0  0
    1.0694   64.5688   74.1023 H   0  0  0  0  0  0  0  0  0  0  0  0
    0.2490   63.0269   74.5023 H   0  0  0  0  0  0  0  0  0  0  0  0
    3.0204   63.1168   74.5249 H   0  0  0  0  0  0  0  0  0  0  0  0
    2.0771   59.7221   75.3543 H   0  0  0  0  0  0  0  0  0  0  0  0
    0.9623   61.1361   75.1523 H   0  0  0  0  0  0  0  0  0  0  0  0
   -0.0771   58.8085   75.5873 H   0  0  0  0  0  0  0  0  0  0  0  0
   -0.7192   59.8479   74.2138 H   0  0  0  0  0  0  0  0  0  0  0  0
    0.1479   57.1414   74.1365 H   0  0  0  0  0  0  0  0  0  0  0  0
   -0.4342   58.2457   72.7950 H   0  0  0  0  0  0  0  0  0  0  0  0
    2.4116   57.6655   73.6569 H   0  0  0  0  0  0  0  0  0  0  0  0
    1.6230   57.3892   72.0566 H   0  0  0  0  0  0  0  0  0  0  0  0
    3.3533   64.0537   71.7763 H   0  0  0  0  0  0  0  0  0  0  0  0
    4.3486   64.1946   69.5012 H   0  0  0  0  0  0  0  0  0  0  0  0
    4.5007   62.1447   68.0900 H   0  0  0  0  0  0  0  0  0  0  0  0
    3.6774   59.9758   68.9693 H   0  0  0  0  0  0  0  0  0  0  0  0
  2  1  1  0
  3  2  1  0
  4  3  1  0
  6  5  2  0
  7  6  1  0
  7  4  1  0
  8  6  1  0
  9  8  2  0
 10  9  1  0
 11 10  2  0
 12 11  1  0
 13 12  2  0
 14 13  1  0
 15 10  1  0
 15 14  2  0
 16 15  1  0
 17 16  1  0
 17  8  1  0
 18 17  2  0
 19  1  1  0
 20 19  1  0
 21 20  1  0
 22 21  1  0
 23 22  1  0
 24 23  1  0
 25 24  1  0
 26 25  1  0
 27 26  1  0
 28 27  1  0
 29 28  1  0
 29 24  2  0
 30 29  1  0
 31 30  2  0
 32 31  1  0
 32 23  2  0
 33 32  1  0
 34 33  2  0
 35 34  1  0
 36 35  2  0
 36 31  1  0
  1 37  1  0
  1 38  1  0
  2 39  1  0
  2 40  1  0
  3 41  1  0
  3 42  1  0
  4 43  1  0
  4 44  1  0
  7 45  1  0
  9 46  1  0
 11 47  1  0
 12 48  1  0
 13 49  1  0
 14 50  1  0
 19 51  1  0
 19 52  1  0
 20 53  1  0
 20 54  1  0
 21 55  1  0
 21 56  1  0
 22 57  1  0
 25 58  1  0
 25 59  1  0
 26 60  1  0
 26 61  1  0
 27 62  1  0
 27 63  1  0
 28 64  1  0
 28 65  1  0
 33 66  1  0
 34 67  1  0
 35 68  1  0
 36 69  1  0
M  END
>  <score>  (8) 
-11.289

$$$$
=
     RDKit          3D

 69 73  0  0  0  0  0  0  0  0999 V2000
   -0.0760   63.4710   71.4750 C   0  0  0  0  0  0  0  0  0  0  0  0
    0.6240   64.4150   70.4900 C   0  0  0  0  0  0  0  0  0  0  0  0
    0.1640   65.8700   70.6380 C   0  0  0  0  0  0  0  0  0  0  0  0
   -0.2880   66.4920   69.3160 C   0  0  0  0  0  0  0  0  0  0  0  0
   -0.4110   68.7410   67.6050 O   0  0  0  0  0  0  0  0  0  0  0  0
    0.6640   68.1640   67.7530 C   0  0  0  0  0  0  0  0  0  0  0  0
    0.8100   67.0770   68.5750 N   0  0  0  0  0  0  0  0  0  0  0  0
    1.8990   68.6150   67.0330 C   0  0  0  0  0  0  0  0  0  0  0  0
    2.0030   68.2560   65.7420 C   0  0  0  0  0  0  0  0  0  0  0  0
    3.1590   68.6410   64.9520 C   0  0  0  0  0  0  0  0  0  0  0  0
    3.2960   68.2840   63.6090 C   0  0  0  0  0  0  0  0  0  0  0  0
    4.4310   68.6800   62.8910 C   0  0  0  0  0  0  0  0  0  0  0  0
    5.4290   69.4330   63.5130 C   0  0  0  0  0  0  0  0  0  0  0  0
    5.2990   69.7930   64.8530 C   0  0  0  0  0  0  0  0  0  0  0  0
    4.1640   69.3910   65.5530 C   0  0  0  0  0  0  0  0  0  0  0  0
    4.0620   69.7700   66.9020 O   0  0  0  0  0  0  0  0  0  0  0  0
    2.9650   69.4120   67.6800 C   0  0  0  0  0  0  0  0  0  0  0  0
    2.9000   69.7510   68.8600 O   0  0  0  0  0  0  0  0  0  0  0  0
    0.6500   63.3000   72.8130 C   0  0  0  0  0  0  0  0  0  0  0  0
    0.9630   61.8500   73.1760 C   0  0  0  0  0  0  0  0  0  0  0  0
    2.0120   61.7680   74.2860 C   0  0  0  0  0  0  0  0  0  0  0  0
    3.3440   61.6610   73.6760 N   0  0  0  0  0  0  0  0  0  0  0  0
    3.3000   60.9450   72.4460 C   0  0  0  0  0  0  0  0  0  0  0  0
    3.1390   59.5530   72.4800 C   0  0  0  0  0  0  0  0  0  0  0  0
    2.9430   58.7550   73.7420 C   0  0  0  0  0  0  0  0  0  0  0  0
    1.8670   57.6780   73.5670 C   0  0  0  0  0  0  0  0  0  0  0  0
    1.9100   56.9340   72.2250 C   0  0  0  0  0  0  0  0  0  0  0  0
    3.0580   57.3550   71.3120 C   0  0  0  0  0  0  0  0  0  0  0  0
    3.1860   58.8540   71.2760 C   0  0  0  0  0  0  0  0  0  0  0  0
    3.3730   59.4420   70.0760 N   0  0  0  0  0  0  0  0  0  0  0  0
    3.5240   60.7740   70.0380 C   0  0  0  0  0  0  0  0  0  0  0  0
    3.5090   61.5890   71.1920 C   0  0  0  0  0  0  0  0  0  0  0  0
    3.7050   62.9860   71.0310 C   0  0  0  0  0  0  0  0  0  0  0  0
    3.8990   63.5530   69.7710 C   0  0  0  0  0  0  0  0  0  0  0  0
    3.9020   62.7390   68.6490 C   0  0  0  0  0  0  0  0  0  0  0  0
    3.7180   61.3640   68.7960 C   0  0  0  0  0  0  0  0  0  0  0  0
   -1.0812   63.8691   71.6776 H   0  0  0  0  0  0  0  0  0  0  0  0
   -0.0950   62.4793   70.9994 H   0  0  0  0  0  0  0  0  0  0  0  0
    1.7085   64.3687   70.6682 H   0  0  0  0  0  0  0  0  0  0  0  0
    0.3650   64.0860   69.4728 H   0  0  0  0  0  0  0  0  0  0  0  0
   -0.6775   65.9012   71.3457 H   0  0  0  0  0  0  0  0  0  0  0  0
    1.0253   66.4521   70.9976 H   0  0  0  0  0  0  0  0  0  0  0  0
   -0.7531   65.7094   68.6986 H   0  0  0  0  0  0  0  0  0  0  0  0
   -0.9995   67.2973   69.5512 H   0  0  0  0  0  0  0  0  0  0  0  0
    1.7453   66.6562   68.6702 H   0  0  0  0  0  0  0  0  0  0  0  0
    1.2017   67.6626   65.2776 H   0  0  0  0  0  0  0  0  0  0  0  0
    2.5119   67.6914   63.1149 H   0  0  0  0  0  0  0  0  0  0  0  0
    4.5368   68.3970   61.8333 H   0  0  0  0  0  0  0  0  0  0  0  0
    6.3186   69.7423   62.9447 H   0  0  0  0  0  0  0  0  0  0  0  0
    6.0809   70.3857   65.3503 H   0  0  0  0  0  0  0  0  0  0  0  0
    1.5982   63.8555   72.7642 H   0  0  0  0  0  0  0  0  0  0  0  0
   -0.0282   63.6807   73.5909 H   0  0  0  0  0  0  0  0  0  0  0  0
    0.0400   61.3593   73.5185 H   0  0  0  0  0  0  0  0  0  0  0  0
    1.3631   61.3476   72.2830 H   0  0  0  0  0  0  0  0  0  0  0  0
    1.9626   62.6738   74.9081 H   0  0  0  0  0  0  0  0  0  0  0  0
    1.8192   60.8873   74.9162 H   0  0  0  0  0  0  0  0  0  0  0  0
    4.2026   62.0547   74.0867 H   0  0  0  0  0  0  0  0  0  0  0  0
    3.8935   58.2699   74.0089 H   0  0  0  0  0  0  0  0  0  0  0  0
    2.6160   59.4422   74.5363 H   0  0  0  0  0  0  0  0  0  0  0  0
    1.9897   56.9384   74.3719 H   0  0  0  0  0  0  0  0  0  0  0  0
    0.8994   58.2002   73.5995 H   0  0  0  0  0  0  0  0  0  0  0  0
    2.0096   55.8579   72.4303 H   0  0  0  0  0  0  0  0  0  0  0  0
    0.9783   57.1829   71.6960 H   0  0  0  0  0  0  0  0  0  0  0  0
    3.9963   56.9213   71.6881 H   0  0  0  0  0  0  0  0  0  0  0  0
    2.8516   56.9929   70.2940 H   0  0  0  0  0  0  0  0  0  0  0  0
    3.7039   63.6354   71.9189 H   0  0  0  0  0  0  0  0  0  0  0  0
    4.0485   64.6380   69.6687 H   0  0  0  0  0  0  0  0  0  0  0  0
    4.0485   63.1743   67.6495 H   0  0  0  0  0  0  0  0  0  0  0  0
    3.7269   60.7268   67.8994 H   0  0  0  0  0  0  0  0  0  0  0  0
  2  1  1  0
  3  2  1  0
  4  3  1  0
  6  5  2  0
  7  6  1  0
  7  4  1  0
  8  6  1  0
  9  8  2  0
 10  9  1  0
 11 10  2  0
 12 11  1  0
 13 12  2  0
 14 13  1  0
 15 10  1  0
 15 14  2  0
 16 15  1  0
 17 16  1  0
 17  8  1  0
 18 17  2  0
 19  1  1  0
 20 19  1  0
 21 20  1  0
 22 21  1  0
 23 22  1  0
 24 23  1  0
 25 24  1  0
 26 25  1  0
 27 26  1  0
 28 27  1  0
 29 28  1  0
 29 24  2  0
 30 29  1  0
 31 30  2  0
 32 31  1  0
 32 23  2  0
 33 32  1  0
 34 33  2  0
 35 34  1  0
 36 35  2  0
 36 31  1  0
  1 37  1  0
  1 38  1  0
  2 39  1  0
  2 40  1  0
  3 41  1  0
  3 42  1  0
  4 43  1  0
  4 44  1  0
  7 45  1  0
  9 46  1  0
 11 47  1  0
 12 48  1  0
 13 49  1  0
 14 50  1  0
 19 51  1  0
 19 52  1  0
 20 53  1  0
 20 54  1  0
 21 55  1  0
 21 56  1  0
 22 57  1  0
 25 58  1  0
 25 59  1  0
 26 60  1  0
 26 61  1  0
 27 62  1  0
 27 63  1  0
 28 64  1  0
 28 65  1  0
 33 66  1  0
 34 67  1  0
 35 68  1  0
 36 69  1  0
M  END
>  <score>  (9) 
-11.029

$$$$
