=
     RDKit          3D

 19 19  0  0  0  0  0  0  0  0999 V2000
    4.5060   69.9420   67.0500 C   0  0  0  0  0  0  0  0  0  0  0  0
    5.4770   69.9300   66.0370 C   0  0  0  0  0  0  0  0  0  0  0  0
    5.1800   69.4030   64.7790 C   0  0  0  0  0  0  0  0  0  0  0  0
    3.9100   68.8880   64.5220 C   0  0  0  0  0  0  0  0  0  0  0  0
    2.9380   68.9010   65.5210 C   0  0  0  0  0  0  0  0  0  0  0  0
    3.2310   69.4280   66.7820 C   0  0  0  0  0  0  0  0  0  0  0  0
    4.2590   70.2460   69.3870 O   0  0  0  0  0  0  0  0  0  0  0  0
    4.8730   70.5320   68.3640 C   0  0  0  0  0  0  0  0  0  0  0  0
    6.0530   71.4730   68.4980 C   0  0  0  0  0  0  0  0  0  0  0  0
    5.9940   72.6120   68.0540 O   0  0  0  0  0  0  0  0  0  0  0  0
    7.2460   70.9230   69.2250 C   0  0  0  0  0  0  0  0  0  0  0  0
    6.4788   70.3386   66.2356 H   0  0  0  0  0  0  0  0  0  0  0  0
    5.9474   69.3940   63.9909 H   0  0  0  0  0  0  0  0  0  0  0  0
    3.6752   68.4716   63.5313 H   0  0  0  0  0  0  0  0  0  0  0  0
    1.9364   68.4949   65.3162 H   0  0  0  0  0  0  0  0  0  0  0  0
    2.4588   69.4391   67.5653 H   0  0  0  0  0  0  0  0  0  0  0  0
    7.0813   70.9989   70.3099 H   0  0  0  0  0  0  0  0  0  0  0  0
    7.3893   69.8679   68.9488 H   0  0  0  0  0  0  0  0  0  0  0  0
    8.1414   71.4992   68.9488 H   0  0  0  0  0  0  0  0  0  0  0  0
  2  1  2  0
  3  2  1  0
  4  3  2  0
  5  4  1  0
  6  5  2  0
  6  1  1  0
  8  7  2  0
  8  1  1  0
  9  8  1  0
 10  9  2  0
 11  9  1  0
  2 12  1  0
  3 13  1  0
  4 14  1  0
  5 15  1  0
  6 16  1  0
 11 17  1  0
 11 18  1  0
 11 19  1  0
M  END
>  <score>  (1) 
-7.667

$$$$
=
     RDKit          3D

 19 19  0  0  0  0  0  0  0  0999 V2000
    3.3520   69.0600   65.8000 C   0  0  0  0  0  0  0  0  0  0  0  0
    3.0330   69.4300   67.1160 C   0  0  0  0  0  0  0  0  0  0  0  0
    3.9870   70.0430   67.9300 C   0  0  0  0  0  0  0  0  0  0  0  0
    5.2660   70.2930   67.4350 C   0  0  0  0  0  0  0  0  0  0  0  0
    5.5900   69.9320   66.1280 C   0  0  0  0  0  0  0  0  0  0  0  0
    4.6370   69.3200   65.3090 C   0  0  0  0  0  0  0  0  0  0  0  0
    1.7550   69.0310   64.0500 O   0  0  0  0  0  0  0  0  0  0  0  0
    2.2900   68.4270   64.9750 C   0  0  0  0  0  0  0  0  0  0  0  0
    1.8590   66.9940   65.2150 C   0  0  0  0  0  0  0  0  0  0  0  0
    0.7760   66.7480   65.7280 O   0  0  0  0  0  0  0  0  0  0  0  0
    2.8240   65.9400   64.7570 C   0  0  0  0  0  0  0  0  0  0  0  0
    2.0240   69.2355   67.5086 H   0  0  0  0  0  0  0  0  0  0  0  0
    3.7299   70.3284   68.9607 H   0  0  0  0  0  0  0  0  0  0  0  0
    6.0193   70.7750   68.0755 H   0  0  0  0  0  0  0  0  0  0  0  0
    6.6000   70.1297   65.7396 H   0  0  0  0  0  0  0  0  0  0  0  0
    4.8971   69.0422   64.2769 H   0  0  0  0  0  0  0  0  0  0  0  0
    3.2735   65.4490   65.6327 H   0  0  0  0  0  0  0  0  0  0  0  0
    2.2905   65.1927   64.1513 H   0  0  0  0  0  0  0  0  0  0  0  0
    3.6154   66.4057   64.1513 H   0  0  0  0  0  0  0  0  0  0  0  0
  2  1  2  0
  3  2  1  0
  4  3  2  0
  5  4  1  0
  6  5  2  0
  6  1  1  0
  8  7  2  0
  8  1  1  0
  9  8  1  0
 10  9  2  0
 11  9  1  0
  2 12  1  0
  3 13  1  0
  4 14  1  0
  5 15  1  0
  6 16  1  0
 11 17  1  0
 11 18  1  0
 11 19  1  0
M  END
>  <score>  (2) 
-6.982

$$$$
=
     RDKit          3D

 19 19  0  0  0  0  0  0  0  0999 V2000
    4.5050   69.6170   66.2460 C   0  0  0  0  0  0  0  0  0  0  0  0
    3.6550   69.8390   67.3400 C   0  0  0  0  0  0  0  0  0  0  0  0
    4.1560   70.3800   68.5270 C   0  0  0  0  0  0  0  0  0  0  0  0
    5.5070   70.7050   68.6270 C   0  0  0  0  0  0  0  0  0  0  0  0
    6.3570   70.4910   67.5420 C   0  0  0  0  0  0  0  0  0  0  0  0
    5.8600   69.9520   66.3530 C   0  0  0  0  0  0  0  0  0  0  0  0
    2.7200   69.1880   64.7480 O   0  0  0  0  0  0  0  0  0  0  0  0
    3.9120   69.0560   65.0030 C   0  0  0  0  0  0  0  0  0  0  0  0
    4.7700   68.3390   63.9800 C   0  0  0  0  0  0  0  0  0  0  0  0
    4.9590   67.1330   64.0620 O   0  0  0  0  0  0  0  0  0  0  0  0
    5.3220   69.1960   62.8780 C   0  0  0  0  0  0  0  0  0  0  0  0
    2.5874   69.5856   67.2628 H   0  0  0  0  0  0  0  0  0  0  0  0
    3.4843   70.5491   69.3816 H   0  0  0  0  0  0  0  0  0  0  0  0
    5.9031   71.1301   69.5610 H   0  0  0  0  0  0  0  0  0  0  0  0
    7.4235   70.7478   67.6230 H   0  0  0  0  0  0  0  0  0  0  0  0
    6.5346   69.7905   65.4992 H   0  0  0  0  0  0  0  0  0  0  0  0
    5.8691   70.0454   63.3131 H   0  0  0  0  0  0  0  0  0  0  0  0
    6.0058   68.5990   62.2567 H   0  0  0  0  0  0  0  0  0  0  0  0
    4.4956   69.5717   62.2567 H   0  0  0  0  0  0  0  0  0  0  0  0
  2  1  2  0
  3  2  1  0
  4  3  2  0
  5  4  1  0
  6  5  2  0
  6  1  1  0
  8  7  2  0
  8  1  1  0
  9  8  1  0
 10  9  2  0
 11  9  1  0
  2 12  1  0
  3 13  1  0
  4 14  1  0
  5 15  1  0
  6 16  1  0
 11 17  1  0
 11 18  1  0
 11 19  1  0
M  END
>  <score>  (3) 
-6.828

$$$$
=
     RDKit          3D

 19 19  0  0  0  0  0  0  0  0999 V2000
    3.7830   69.4540   66.4550 C   0  0  0  0  0  0  0  0  0  0  0  0
    5.1220   69.6310   66.0760 C   0  0  0  0  0  0  0  0  0  0  0  0
    6.0390   70.2000   66.9620 C   0  0  0  0  0  0  0  0  0  0  0  0
    5.6260   70.5930   68.2340 C   0  0  0  0  0  0  0  0  0  0  0  0
    4.2970   70.4160   68.6200 C   0  0  0  0  0  0  0  0  0  0  0  0
    3.3770   69.8460   67.7370 C   0  0  0  0  0  0  0  0  0  0  0  0
    2.9160   69.0910   64.2800 O   0  0  0  0  0  0  0  0  0  0  0  0
    2.8560   68.8260   65.4770 C   0  0  0  0  0  0  0  0  0  0  0  0
    1.8310   67.7990   65.9150 C   0  0  0  0  0  0  0  0  0  0  0  0
    2.1600   66.6360   66.1070 O   0  0  0  0  0  0  0  0  0  0  0  0
    0.4370   68.3160   66.1170 C   0  0  0  0  0  0  0  0  0  0  0  0
    5.4518   69.3194   65.0739 H   0  0  0  0  0  0  0  0  0  0  0  0
    7.0866   70.3380   66.6564 H   0  0  0  0  0  0  0  0  0  0  0  0
    6.3471   71.0422   68.9327 H   0  0  0  0  0  0  0  0  0  0  0  0
    3.9723   70.7267   69.6240 H   0  0  0  0  0  0  0  0  0  0  0  0
    2.3317   69.7047   68.0490 H   0  0  0  0  0  0  0  0  0  0  0  0
    0.2273   68.3938   67.1940 H   0  0  0  0  0  0  0  0  0  0  0  0
    0.3432   69.3087   65.6525 H   0  0  0  0  0  0  0  0  0  0  0  0
   -0.2814   67.6245   65.6525 H   0  0  0  0  0  0  0  0  0  0  0  0
  2  1  2  0
  3  2  1  0
  4  3  2  0
  5  4  1  0
  6  5  2  0
  6  1  1  0
  8  7  2  0
  8  1  1  0
  9  8  1  0
 10  9  2  0
 11  9  1  0
  2 12  1  0
  3 13  1  0
  4 14  1  0
  5 15  1  0
  6 16  1  0
 11 17  1  0
 11 18  1  0
 11 19  1  0
M  END
>  <score>  (4) 
-6.78

$$$$
=
     RDKit          3D

 19 19  0  0  0  0  0  0  0  0999 V2000
    3.7100   68.8770   64.7690 C   0  0  0  0  0  0  0  0  0  0  0  0
    2.8920   68.9450   65.9070 C   0  0  0  0  0  0  0  0  0  0  0  0
    3.3750   69.4950   67.0950 C   0  0  0  0  0  0  0  0  0  0  0  0
    4.6790   69.9850   67.1550 C   0  0  0  0  0  0  0  0  0  0  0  0
    5.4970   69.9250   66.0280 C   0  0  0  0  0  0  0  0  0  0  0  0
    5.0160   69.3770   64.8360 C   0  0  0  0  0  0  0  0  0  0  0  0
    2.1260   68.7660   63.0100 O   0  0  0  0  0  0  0  0  0  0  0  0
    3.1350   68.2970   63.5270 C   0  0  0  0  0  0  0  0  0  0  0  0
    3.8010   67.1300   62.8250 C   0  0  0  0  0  0  0  0  0  0  0  0
    4.0040   67.1640   61.6190 O   0  0  0  0  0  0  0  0  0  0  0  0
    4.2080   65.9860   63.7070 C   0  0  0  0  0  0  0  0  0  0  0  0
    1.8619   68.5617   65.8623 H   0  0  0  0  0  0  0  0  0  0  0  0
    2.7277   69.5419   67.9832 H   0  0  0  0  0  0  0  0  0  0  0  0
    5.0618   70.4185   68.0907 H   0  0  0  0  0  0  0  0  0  0  0  0
    6.5259   70.3108   66.0772 H   0  0  0  0  0  0  0  0  0  0  0  0
    5.6647   69.3384   63.9485 H   0  0  0  0  0  0  0  0  0  0  0  0
    4.1031   66.2807   64.7616 H   0  0  0  0  0  0  0  0  0  0  0  0
    3.5634   65.1183   63.5029 H   0  0  0  0  0  0  0  0  0  0  0  0
    5.2558   65.7204   63.5029 H   0  0  0  0  0  0  0  0  0  0  0  0
  2  1  2  0
  3  2  1  0
  4  3  2  0
  5  4  1  0
  6  5  2  0
  6  1  1  0
  8  7  2  0
  8  1  1  0
  9  8  1  0
 10  9  2  0
 11  9  1  0
  2 12  1  0
  3 13  1  0
  4 14  1  0
  5 15  1  0
  6 16  1  0
 11 17  1  0
 11 18  1  0
 11 19  1  0
M  END
>  <score>  (5) 
-6.704

$$$$
=
     RDKit          3D

 19 19  0  0  0  0  0  0  0  0999 V2000
    3.4250   69.5160   66.8780 C   0  0  0  0  0  0  0  0  0  0  0  0
    4.7450   69.9450   67.0850 C   0  0  0  0  0  0  0  0  0  0  0  0
    5.6650   69.9360   66.0350 C   0  0  0  0  0  0  0  0  0  0  0  0
    5.2730   69.5010   64.7700 C   0  0  0  0  0  0  0  0  0  0  0  0
    3.9620   69.0770   64.5550 C   0  0  0  0  0  0  0  0  0  0  0  0
    3.0380   69.0860   65.6030 C   0  0  0  0  0  0  0  0  0  0  0  0
    2.7560   70.1880   69.0490 O   0  0  0  0  0  0  0  0  0  0  0  0
    2.4850   69.5640   68.0290 C   0  0  0  0  0  0  0  0  0  0  0  0
    1.1320   68.8830   67.9650 C   0  0  0  0  0  0  0  0  0  0  0  0
    0.1380   69.5070   67.6200 O   0  0  0  0  0  0  0  0  0  0  0  0
    1.1210   67.4240   68.3170 C   0  0  0  0  0  0  0  0  0  0  0  0
    5.0570   70.2908   68.0815 H   0  0  0  0  0  0  0  0  0  0  0  0
    6.6984   70.2719   66.2058 H   0  0  0  0  0  0  0  0  0  0  0  0
    5.9972   69.4922   63.9420 H   0  0  0  0  0  0  0  0  0  0  0  0
    3.6541   68.7341   63.5562 H   0  0  0  0  0  0  0  0  0  0  0  0
    2.0042   68.7545   65.4260 H   0  0  0  0  0  0  0  0  0  0  0  0
    1.1201   67.3108   69.4112 H   0  0  0  0  0  0  0  0  0  0  0  0
    0.2193   66.9527   67.8989 H   0  0  0  0  0  0  0  0  0  0  0  0
    2.0155   66.9392   67.8989 H   0  0  0  0  0  0  0  0  0  0  0  0
  2  1  2  0
  3  2  1  0
  4  3  2  0
  5  4  1  0
  6  5  2  0
  6  1  1  0
  8  7  2  0
  8  1  1  0
  9  8  1  0
 10  9  2  0
 11  9  1  0
  2 12  1  0
  3 13  1  0
  4 14  1  0
  5 15  1  0
  6 16  1  0
 11 17  1  0
 11 18  1  0
 11 19  1  0
M  END
>  <score>  (6) 
-6.579

$$$$
=
     RDKit          3D

 19 19  0  0  0  0  0  0  0  0999 V2000
    2.3490   68.5900   66.0220 C   0  0  0  0  0  0  0  0  0  0  0  0
    3.0660   68.5590   64.8160 C   0  0  0  0  0  0  0  0  0  0  0  0
    4.3240   69.1560   64.7250 C   0  0  0  0  0  0  0  0  0  0  0  0
    4.8780   69.7850   65.8380 C   0  0  0  0  0  0  0  0  0  0  0  0
    4.1750   69.8160   67.0420 C   0  0  0  0  0  0  0  0  0  0  0  0
    2.9160   69.2190   67.1380 C   0  0  0  0  0  0  0  0  0  0  0  0
    0.8750   66.8250   66.5940 O   0  0  0  0  0  0  0  0  0  0  0  0
    1.0220   67.9220   66.0640 C   0  0  0  0  0  0  0  0  0  0  0  0
   -0.2120   68.5930   65.4950 C   0  0  0  0  0  0  0  0  0  0  0  0
   -0.4040   68.6200   64.2870 O   0  0  0  0  0  0  0  0  0  0  0  0
   -1.1610   69.1730   66.5030 C   0  0  0  0  0  0  0  0  0  0  0  0
    2.6332   68.0605   63.9361 H   0  0  0  0  0  0  0  0  0  0  0  0
    4.8780   69.1300   63.7751 H   0  0  0  0  0  0  0  0  0  0  0  0
    5.8692   70.2568   65.7671 H   0  0  0  0  0  0  0  0  0  0  0  0
    4.6139   70.3128   67.9198 H   0  0  0  0  0  0  0  0  0  0  0  0
    2.3685   69.2427   68.0918 H   0  0  0  0  0  0  0  0  0  0  0  0
   -0.7986   68.9515   67.5177 H   0  0  0  0  0  0  0  0  0  0  0  0
   -1.2216   70.2626   66.3650 H   0  0  0  0  0  0  0  0  0  0  0  0
   -2.1583   68.7299   66.3650 H   0  0  0  0  0  0  0  0  0  0  0  0
  2  1  2  0
  3  2  1  0
  4  3  2  0
  5  4  1  0
  6  5  2  0
  6  1  1  0
  8  7  2  0
  8  1  1  0
  9  8  1  0
 10  9  2  0
 11  9  1  0
  2 12  1  0
  3 13  1  0
  4 14  1  0
  5 15  1  0
  6 16  1  0
 11 17  1  0
 11 18  1  0
 11 19  1  0
M  END
>  <score>  (7) 
-6.551

$$$$
=
     RDKit          3D

 19 19  0  0  0  0  0  0  0  0999 V2000
    2.6560   67.9760   65.0920 C   0  0  0  0  0  0  0  0  0  0  0  0
    3.1640   68.7250   66.1640 C   0  0  0  0  0  0  0  0  0  0  0  0
    4.2680   69.5610   65.9830 C   0  0  0  0  0  0  0  0  0  0  0  0
    4.8690   69.6570   64.7290 C   0  0  0  0  0  0  0  0  0  0  0  0
    4.3670   68.9190   63.6580 C   0  0  0  0  0  0  0  0  0  0  0  0
    3.2620   68.0830   63.8350 C   0  0  0  0  0  0  0  0  0  0  0  0
    1.3440   66.0250   64.7940 O   0  0  0  0  0  0  0  0  0  0  0  0
    1.4680   67.1170   65.3400 C   0  0  0  0  0  0  0  0  0  0  0  0
    0.3870   67.5370   66.3160 C   0  0  0  0  0  0  0  0  0  0  0  0
    0.3160   67.0230   67.4240 O   0  0  0  0  0  0  0  0  0  0  0  0
   -0.5340   68.6210   65.8390 C   0  0  0  0  0  0  0  0  0  0  0  0
    2.6895   68.6533   67.1538 H   0  0  0  0  0  0  0  0  0  0  0  0
    4.6627   70.1429   66.8289 H   0  0  0  0  0  0  0  0  0  0  0  0
    5.7388   70.3146   64.5845 H   0  0  0  0  0  0  0  0  0  0  0  0
    4.8431   68.9954   62.6693 H   0  0  0  0  0  0  0  0  0  0  0  0
    2.8673   67.5076   62.9846 H   0  0  0  0  0  0  0  0  0  0  0  0
   -0.9726   69.1372   66.7057 H   0  0  0  0  0  0  0  0  0  0  0  0
    0.0321   69.3418   65.2308 H   0  0  0  0  0  0  0  0  0  0  0  0
   -1.3368   68.1788   65.2308 H   0  0  0  0  0  0  0  0  0  0  0  0
  2  1  2  0
  3  2  1  0
  4  3  2  0
  5  4  1  0
  6  5  2  0
  6  1  1  0
  8  7  2  0
  8  1  1  0
  9  8  1  0
 10  9  2  0
 11  9  1  0
  2 12  1  0
  3 13  1  0
  4 14  1  0
  5 15  1  0
  6 16  1  0
 11 17  1  0
 11 18  1  0
 11 19  1  0
M  END
>  <score>  (8) 
-6.31

$$$$
=
     RDKit          3D

 19 19  0  0  0  0  0  0  0  0999 V2000
    1.6070   68.2990   66.8930 C   0  0  0  0  0  0  0  0  0  0  0  0
    2.4030   69.1170   67.7090 C   0  0  0  0  0  0  0  0  0  0  0  0
    3.5680   69.6990   67.2050 C   0  0  0  0  0  0  0  0  0  0  0  0
    3.9440   69.4700   65.8820 C   0  0  0  0  0  0  0  0  0  0  0  0
    3.1560   68.6610   65.0650 C   0  0  0  0  0  0  0  0  0  0  0  0
    1.9880   68.0780   65.5650 C   0  0  0  0  0  0  0  0  0  0  0  0
    0.4150   66.8260   68.3160 O   0  0  0  0  0  0  0  0  0  0  0  0
    0.3680   67.7220   67.4790 C   0  0  0  0  0  0  0  0  0  0  0  0
   -1.0000   68.2520   67.0990 C   0  0  0  0  0  0  0  0  0  0  0  0
   -1.1300   69.3940   66.6800 O   0  0  0  0  0  0  0  0  0  0  0  0
   -2.1360   67.2820   67.2420 C   0  0  0  0  0  0  0  0  0  0  0  0
    2.1075   69.3010   68.7524 H   0  0  0  0  0  0  0  0  0  0  0  0
    4.1885   70.3375   67.8511 H   0  0  0  0  0  0  0  0  0  0  0  0
    4.8616   69.9273   65.4834 H   0  0  0  0  0  0  0  0  0  0  0  0
    3.4547   68.4805   64.0218 H   0  0  0  0  0  0  0  0  0  0  0  0
    1.3677   67.4448   64.9136 H   0  0  0  0  0  0  0  0  0  0  0  0
   -2.3384   67.1092   68.3093 H   0  0  0  0  0  0  0  0  0  0  0  0
   -3.0344   67.6959   66.7608 H   0  0  0  0  0  0  0  0  0  0  0  0
   -1.8679   66.3299   66.7608 H   0  0  0  0  0  0  0  0  0  0  0  0
  2  1  2  0
  3  2  1  0
  4  3  2  0
  5  4  1  0
  6  5  2  0
  6  1  1  0
  8  7  2  0
  8  1  1  0
  9  8  1  0
 10  9  2  0
 11  9  1  0
  2 12  1  0
  3 13  1  0
  4 14  1  0
  5 15  1  0
  6 16  1  0
 11 17  1  0
 11 18  1  0
 11 19  1  0
M  END
>  <score>  (9) 
-6.113

$$$$
