=
     RDKit          3D

 80 82  0  0  0  0  0  0  0  0999 V2000
    1.0440   66.8920   70.3860 O   0  0  0  0  0  0  0  0  0  0  0  0
    0.5540   65.8290   70.0250 C   0  0  0  0  0  0  0  0  0  0  0  0
   -0.4660   65.7190   69.1100 N   0  0  0  0  0  0  0  0  0  0  0  0
    1.0210   64.5550   70.6210 C   0  0  0  0  0  0  0  0  0  0  0  0
    0.2020   63.6050   71.0980 C   0  0  0  0  0  0  0  0  0  0  0  0
    0.6890   62.3290   71.6420 C   0  0  0  0  0  0  0  0  0  0  0  0
   -0.0730   61.6730   72.6160 C   0  0  0  0  0  0  0  0  0  0  0  0
    0.3060   60.4280   73.1570 C   0  0  0  0  0  0  0  0  0  0  0  0
    1.5300   59.8890   72.6870 C   0  0  0  0  0  0  0  0  0  0  0  0
    2.3150   60.4960   71.6730 C   0  0  0  0  0  0  0  0  0  0  0  0
    1.8560   61.7240   71.1670 C   0  0  0  0  0  0  0  0  0  0  0  0
    3.6250   59.8590   71.1390 C   0  0  0  0  0  0  0  0  0  0  0  0
    4.1070   60.4610   69.7930 C   0  0  0  0  0  0  0  0  0  0  0  0
    4.7790   60.0770   72.1410 C   0  0  0  0  0  0  0  0  0  0  0  0
    3.4280   58.3480   70.8800 C   0  0  0  0  0  0  0  0  0  0  0  0
   -0.6070   59.7320   74.2000 C   0  0  0  0  0  0  0  0  0  0  0  0
   -0.7130   58.1960   73.9880 C   0  0  0  0  0  0  0  0  0  0  0  0
   -2.0370   60.2960   74.0840 C   0  0  0  0  0  0  0  0  0  0  0  0
   -0.0910   59.9020   75.6490 C   0  0  0  0  0  0  0  0  0  0  0  0
    2.0160   58.7280   73.2210 O   0  0  0  0  0  0  0  0  0  0  0  0
   -1.1470   66.8890   68.5960 C   0  0  0  0  0  0  0  0  0  0  0  0
   -1.0530   67.0510   67.0710 C   0  0  0  0  0  0  0  0  0  0  0  0
   -0.5610   68.4380   66.6020 C   0  0  0  0  0  0  0  0  0  0  0  0
    0.1560   68.3470   65.2500 C   0  0  0  0  0  0  0  0  0  0  0  0
    1.5080   67.6590   65.3300 C   0  0  0  0  0  0  0  0  0  0  0  0
    2.3980   68.2610   66.3860 N   0  0  0  0  0  4  0  0  0  0  0  0
    1.7390   68.4810   67.7250 C   0  0  0  0  0  0  0  0  0  0  0  0
    0.3640   69.1270   67.6120 C   0  0  0  0  0  0  0  0  0  0  0  0
    3.3350   69.3630   65.9210 C   0  0  0  0  0  0  0  0  0  0  0  0
    4.4230   69.8130   66.8430 C   0  0  0  0  0  0  0  0  0  0  0  0
    4.1440   70.3080   68.1260 C   0  0  0  0  0  0  0  0  0  0  0  0
    5.1810   70.7430   68.9560 C   0  0  0  0  0  0  0  0  0  0  0  0
    6.5030   70.6980   68.5130 C   0  0  0  0  0  0  0  0  0  0  0  0
    6.7920   70.2220   67.2370 C   0  0  0  0  0  0  0  0  0  0  0  0
    5.7550   69.7920   66.4170 C   0  0  0  0  0  0  0  0  0  0  0  0
    6.0430   69.3290   65.1920 F   0  0  0  0  0  0  0  0  0  0  0  0
   -0.7518   64.7850   68.7832 H   0  0  0  0  0  0  0  0  0  0  0  0
    2.1052   64.3773   70.6757 H   0  0  0  0  0  0  0  0  0  0  0  0
   -0.8823   63.7893   71.0812 H   0  0  0  0  0  0  0  0  0  0  0  0
   -1.0003   62.1459   72.9717 H   0  0  0  0  0  0  0  0  0  0  0  0
    2.4319   62.2236   70.3741 H   0  0  0  0  0  0  0  0  0  0  0  0
    4.7833   61.3057   69.9904 H   0  0  0  0  0  0  0  0  0  0  0  0
    4.6408   59.6907   69.2171 H   0  0  0  0  0  0  0  0  0  0  0  0
    3.2386   60.8134   69.2171 H   0  0  0  0  0  0  0  0  0  0  0  0
    4.3917   60.0038   73.1679 H   0  0  0  0  0  0  0  0  0  0  0  0
    5.5505   59.3087   71.9845 H   0  0  0  0  0  0  0  0  0  0  0  0
    5.2171   61.0738   71.9845 H   0  0  0  0  0  0  0  0  0  0  0  0
    3.3588   57.8172   71.8410 H   0  0  0  0  0  0  0  0  0  0  0  0
    2.5019   58.1918   70.3073 H   0  0  0  0  0  0  0  0  0  0  0  0
    4.2831   57.9596   70.3073 H   0  0  0  0  0  0  0  0  0  0  0  0
   -0.7477   57.6925   74.9654 H   0  0  0  0  0  0  0  0  0  0  0  0
   -1.6292   57.9660   73.4243 H   0  0  0  0  0  0  0  0  0  0  0  0
    0.1629   57.8424   73.4243 H   0  0  0  0  0  0  0  0  0  0  0  0
   -2.4497   60.4588   75.0906 H   0  0  0  0  0  0  0  0  0  0  0  0
   -2.0113   61.2513   73.5393 H   0  0  0  0  0  0  0  0  0  0  0  0
   -2.6704   59.5803   73.5393 H   0  0  0  0  0  0  0  0  0  0  0  0
   -0.8911   59.6384   76.3564 H   0  0  0  0  0  0  0  0  0  0  0  0
    0.7735   59.2412   75.8103 H   0  0  0  0  0  0  0  0  0  0  0  0
    0.2114   60.9473   75.8103 H   0  0  0  0  0  0  0  0  0  0  0  0
    2.8708   58.3518   72.8925 H   0  0  0  0  0  0  0  0  0  0  0  0
   -2.2098   66.8186   68.8709 H   0  0  0  0  0  0  0  0  0  0  0  0
   -0.6503   67.7649   69.0389 H   0  0  0  0  0  0  0  0  0  0  0  0
   -0.3557   66.2916   66.6874 H   0  0  0  0  0  0  0  0  0  0  0  0
   -2.0748   66.9338   66.6810 H   0  0  0  0  0  0  0  0  0  0  0  0
   -1.4692   69.0510   66.5048 H   0  0  0  0  0  0  0  0  0  0  0  0
   -0.4820   67.7825   64.5541 H   0  0  0  0  0  0  0  0  0  0  0  0
    0.3351   69.3767   64.9071 H   0  0  0  0  0  0  0  0  0  0  0  0
    1.3500   66.5962   65.5653 H   0  0  0  0  0  0  0  0  0  0  0  0
    2.0072   67.7872   64.3582 H   0  0  0  0  0  0  0  0  0  0  0  0
    3.0627   67.4983   66.5791 H   0  0  0  0  0  0  0  0  0  0  0  0
    1.6291   67.5078   68.2259 H   0  0  0  0  0  0  0  0  0  0  0  0
    2.3793   69.1675   68.2983 H   0  0  0  0  0  0  0  0  0  0  0  0
   -0.1168   69.0950   68.6009 H   0  0  0  0  0  0  0  0  0  0  0  0
    0.5210   70.1552   67.2539 H   0  0  0  0  0  0  0  0  0  0  0  0
    3.8176   69.0103   64.9976 H   0  0  0  0  0  0  0  0  0  0  0  0
    2.6846   70.2447   65.8227 H   0  0  0  0  0  0  0  0  0  0  0  0
    3.1037   70.3539   68.4804 H   0  0  0  0  0  0  0  0  0  0  0  0
    4.9537   71.1226   69.9631 H   0  0  0  0  0  0  0  0  0  0  0  0
    7.3161   71.0382   69.1711 H   0  0  0  0  0  0  0  0  0  0  0  0
    7.8321   70.1864   66.8807 H   0  0  0  0  0  0  0  0  0  0  0  0
  2  1  2  0
  3  2  1  0
  4  2  1  0
  5  4  2  0
  6  5  1  0
  7  6  2  0
  8  7  1  0
  9  8  2  0
 10  9  1  0
 11 10  2  0
 11  6  1  0
 12 10  1  0
 13 12  1  0
 14 12  1  0
 15 12  1  0
 16  8  1  0
 17 16  1  0
 18 16  1  0
 19 16  1  0
 20  9  1  0
 21  3  1  0
 22 21  1  0
 23 22  1  0
 24 23  1  0
 25 24  1  0
 26 25  1  0
 27 26  1  0
 28 27  1  0
 28 23  1  0
 29 26  1  0
 30 29  1  0
 31 30  2  0
 32 31  1  0
 33 32  2  0
 34 33  1  0
 35 30  1  0
 35 34  2  0
 36 35  1  0
  3 37  1  0
  4 38  1  0
  5 39  1  0
  7 40  1  0
 11 41  1  0
 13 42  1  0
 13 43  1  0
 13 44  1  0
 14 45  1  0
 14 46  1  0
 14 47  1  0
 15 48  1  0
 15 49  1  0
 15 50  1  0
 17 51  1  0
 17 52  1  0
 17 53  1  0
 18 54  1  0
 18 55  1  0
 18 56  1  0
 19 57  1  0
 19 58  1  0
 19 59  1  0
 20 60  1  0
 21 61  1  0
 21 62  1  0
 22 63  1  0
 22 64  1  0
 23 65  1  0
 24 66  1  0
 24 67  1  0
 25 68  1  0
 25 69  1  0
 26 70  1  0
 27 71  1  0
 27 72  1  0
 28 73  1  0
 28 74  1  0
 29 75  1  0
 29 76  1  0
 31 77  1  0
 32 78  1  0
 33 79  1  0
 34 80  1  0
M  CHG  1  26   1
M  END
>  <score>  (1) 
-11.887

$$$$
=
     RDKit          3D

 80 82  0  0  0  0  0  0  0  0999 V2000
    1.0680   66.8250   70.4050 O   0  0  0  0  0  0  0  0  0  0  0  0
    0.5410   65.7870   70.0230 C   0  0  0  0  0  0  0  0  0  0  0  0
   -0.4760   65.7300   69.1000 N   0  0  0  0  0  0  0  0  0  0  0  0
    0.9570   64.4870   70.6000 C   0  0  0  0  0  0  0  0  0  0  0  0
    0.1050   63.5940   71.1290 C   0  0  0  0  0  0  0  0  0  0  0  0
    0.5370   62.2910   71.6540 C   0  0  0  0  0  0  0  0  0  0  0  0
    1.7490   61.7500   71.2100 C   0  0  0  0  0  0  0  0  0  0  0  0
    2.2500   60.5250   71.6950 C   0  0  0  0  0  0  0  0  0  0  0  0
    1.4370   59.8460   72.6360 C   0  0  0  0  0  0  0  0  0  0  0  0
    0.2230   60.3730   73.1470 C   0  0  0  0  0  0  0  0  0  0  0  0
   -0.1970   61.6110   72.6300 C   0  0  0  0  0  0  0  0  0  0  0  0
   -0.6230   59.6330   74.2160 C   0  0  0  0  0  0  0  0  0  0  0  0
   -0.7320   58.1030   73.9750 C   0  0  0  0  0  0  0  0  0  0  0  0
    0.0080   59.7990   75.6150 C   0  0  0  0  0  0  0  0  0  0  0  0
   -2.0750   60.1630   74.2230 C   0  0  0  0  0  0  0  0  0  0  0  0
    3.6230   60.0040   71.1960 C   0  0  0  0  0  0  0  0  0  0  0  0
    3.5820   58.5180   70.7420 C   0  0  0  0  0  0  0  0  0  0  0  0
    4.6510   60.0900   72.3410 C   0  0  0  0  0  0  0  0  0  0  0  0
    4.1420   60.7830   69.9640 C   0  0  0  0  0  0  0  0  0  0  0  0
    1.8060   58.6110   73.0940 O   0  0  0  0  0  0  0  0  0  0  0  0
   -1.1100   66.9330   68.6010 C   0  0  0  0  0  0  0  0  0  0  0  0
   -1.0520   67.0850   67.0740 C   0  0  0  0  0  0  0  0  0  0  0  0
   -0.5560   68.4650   66.5840 C   0  0  0  0  0  0  0  0  0  0  0  0
    0.1880   68.3470   65.2480 C   0  0  0  0  0  0  0  0  0  0  0  0
    1.5410   67.6670   65.3700 C   0  0  0  0  0  0  0  0  0  0  0  0
    2.4070   68.2950   66.4310 N   0  0  0  0  0  4  0  0  0  0  0  0
    1.7210   68.5410   67.7510 C   0  0  0  0  0  0  0  0  0  0  0  0
    0.3460   69.1790   67.5970 C   0  0  0  0  0  0  0  0  0  0  0  0
    3.3490   69.3910   65.9600 C   0  0  0  0  0  0  0  0  0  0  0  0
    4.4390   69.8400   66.8800 C   0  0  0  0  0  0  0  0  0  0  0  0
    4.1630   70.3320   68.1650 C   0  0  0  0  0  0  0  0  0  0  0  0
    5.2020   70.7670   68.9930 C   0  0  0  0  0  0  0  0  0  0  0  0
    6.5230   70.7240   68.5460 C   0  0  0  0  0  0  0  0  0  0  0  0
    6.8090   70.2520   67.2680 C   0  0  0  0  0  0  0  0  0  0  0  0
    5.7700   69.8220   66.4500 C   0  0  0  0  0  0  0  0  0  0  0  0
    6.0550   69.3620   65.2240 F   0  0  0  0  0  0  0  0  0  0  0  0
   -0.7939   64.8127   68.7560 H   0  0  0  0  0  0  0  0  0  0  0  0
    2.0285   64.2385   70.5946 H   0  0  0  0  0  0  0  0  0  0  0  0
   -0.9642   63.8491   71.1713 H   0  0  0  0  0  0  0  0  0  0  0  0
    2.3311   62.3001   70.4560 H   0  0  0  0  0  0  0  0  0  0  0  0
   -1.1301   62.0574   73.0043 H   0  0  0  0  0  0  0  0  0  0  0  0
   -0.7692   57.5811   74.9426 H   0  0  0  0  0  0  0  0  0  0  0  0
   -1.6479   57.8858   73.4058 H   0  0  0  0  0  0  0  0  0  0  0  0
    0.1439   57.7581   73.4058 H   0  0  0  0  0  0  0  0  0  0  0  0
   -0.7511   59.5993   76.3857 H   0  0  0  0  0  0  0  0  0  0  0  0
    0.8409   59.0894   75.7281 H   0  0  0  0  0  0  0  0  0  0  0  0
    0.3839   60.8266   75.7281 H   0  0  0  0  0  0  0  0  0  0  0  0
   -2.4150   60.2871   75.2617 H   0  0  0  0  0  0  0  0  0  0  0  0
   -2.1137   61.1332   73.7061 H   0  0  0  0  0  0  0  0  0  0  0  0
   -2.7296   59.4458   73.7061 H   0  0  0  0  0  0  0  0  0  0  0  0
    3.5640   57.8647   71.6268 H   0  0  0  0  0  0  0  0  0  0  0  0
    2.6787   58.3436   70.1390 H   0  0  0  0  0  0  0  0  0  0  0  0
    4.4743   58.2941   70.1390 H   0  0  0  0  0  0  0  0  0  0  0  0
    4.1278   60.0462   73.3076 H   0  0  0  0  0  0  0  0  0  0  0  0
    5.3544   59.2476   72.2663 H   0  0  0  0  0  0  0  0  0  0  0  0
    5.2046   61.0376   72.2663 H   0  0  0  0  0  0  0  0  0  0  0  0
    4.7228   61.6548   70.2995 H   0  0  0  0  0  0  0  0  0  0  0  0
    4.7835   60.1260   69.3583 H   0  0  0  0  0  0  0  0  0  0  0  0
    3.2886   61.1220   69.3583 H   0  0  0  0  0  0  0  0  0  0  0  0
    1.2377   58.1368   73.7515 H   0  0  0  0  0  0  0  0  0  0  0  0
   -2.1665   66.9190   68.9069 H   0  0  0  0  0  0  0  0  0  0  0  0
   -0.5560   67.7831   69.0257 H   0  0  0  0  0  0  0  0  0  0  0  0
   -0.3728   66.3156   66.6780 H   0  0  0  0  0  0  0  0  0  0  0  0
   -2.0844   66.9770   66.7101 H   0  0  0  0  0  0  0  0  0  0  0  0
   -1.4639   69.0725   66.4553 H   0  0  0  0  0  0  0  0  0  0  0  0
   -0.4339   67.7642   64.5526 H   0  0  0  0  0  0  0  0  0  0  0  0
    0.3695   69.3696   64.8855 H   0  0  0  0  0  0  0  0  0  0  0  0
    1.3826   66.6086   65.6244 H   0  0  0  0  0  0  0  0  0  0  0  0
    2.0594   67.7772   64.4061 H   0  0  0  0  0  0  0  0  0  0  0  0
    3.0700   67.5393   66.6552 H   0  0  0  0  0  0  0  0  0  0  0  0
    1.6047   67.5784   68.2705 H   0  0  0  0  0  0  0  0  0  0  0  0
    2.3473   69.2423   68.3219 H   0  0  0  0  0  0  0  0  0  0  0  0
   -0.1542   69.1661   68.5766 H   0  0  0  0  0  0  0  0  0  0  0  0
    0.5063   70.1999   67.2202 H   0  0  0  0  0  0  0  0  0  0  0  0
    3.8298   69.0318   65.0381 H   0  0  0  0  0  0  0  0  0  0  0  0
    2.7028   70.2752   65.8570 H   0  0  0  0  0  0  0  0  0  0  0  0
    3.1237   70.3756   68.5226 H   0  0  0  0  0  0  0  0  0  0  0  0
    4.9771   71.1448   70.0013 H   0  0  0  0  0  0  0  0  0  0  0  0
    7.3377   71.0628   69.2029 H   0  0  0  0  0  0  0  0  0  0  0  0
    7.8480   70.2195   66.9083 H   0  0  0  0  0  0  0  0  0  0  0  0
  2  1  2  0
  3  2  1  0
  4  2  1  0
  5  4  2  0
  6  5  1  0
  7  6  2  0
  8  7  1  0
  9  8  2  0
 10  9  1  0
 11 10  2  0
 11  6  1  0
 12 10  1  0
 13 12  1  0
 14 12  1  0
 15 12  1  0
 16  8  1  0
 17 16  1  0
 18 16  1  0
 19 16  1  0
 20  9  1  0
 21  3  1  0
 22 21  1  0
 23 22  1  0
 24 23  1  0
 25 24  1  0
 26 25  1  0
 27 26  1  0
 28 27  1  0
 28 23  1  0
 29 26  1  0
 30 29  1  0
 31 30  2  0
 32 31  1  0
 33 32  2  0
 34 33  1  0
 35 30  1  0
 35 34  2  0
 36 35  1  0
  3 37  1  0
  4 38  1  0
  5 39  1  0
  7 40  1  0
 11 41  1  0
 13 42  1  0
 13 43  1  0
 13 44  1  0
 14 45  1  0
 14 46  1  0
 14 47  1  0
 15 48  1  0
 15 49  1  0
 15 50  1  0
 17 51  1  0
 17 52  1  0
 17 53  1  0
 18 54  1  0
 18 55  1  0
 18 56  1  0
 19 57  1  0
 19 58  1  0
 19 59  1  0
 20 60  1  0
 21 61  1  0
 21 62  1  0
 22 63  1  0
 22 64  1  0
 23 65  1  0
 24 66  1  0
 24 67  1  0
 25 68  1  0
 25 69  1  0
 26 70  1  0
 27 71  1  0
 27 72  1  0
 28 73  1  0
 28 74  1  0
 29 75  1  0
 29 76  1  0
 31 77  1  0
 32 78  1  0
 33 79  1  0
 34 80  1  0
M  CHG  1  26   1
M  END
>  <score>  (2) 
-11.845

$$$$
=
     RDKit          3D

 80 82  0  0  0  0  0  0  0  0999 V2000
   -0.2010   66.4040   71.3810 O   0  0  0  0  0  0  0  0  0  0  0  0
    0.0240   65.5580   70.5250 C   0  0  0  0  0  0  0  0  0  0  0  0
   -0.2800   65.7050   69.1920 N   0  0  0  0  0  0  0  0  0  0  0  0
    0.6160   64.2530   70.9070 C   0  0  0  0  0  0  0  0  0  0  0  0
    0.0180   63.3680   71.7210 C   0  0  0  0  0  0  0  0  0  0  0  0
    0.6050   62.0610   72.0480 C   0  0  0  0  0  0  0  0  0  0  0  0
   -0.0540   61.2330   72.9630 C   0  0  0  0  0  0  0  0  0  0  0  0
    0.4230   59.9500   73.2980 C   0  0  0  0  0  0  0  0  0  0  0  0
    1.6370   59.5540   72.6840 C   0  0  0  0  0  0  0  0  0  0  0  0
    2.3190   60.3410   71.7200 C   0  0  0  0  0  0  0  0  0  0  0  0
    1.7660   61.5980   71.4220 C   0  0  0  0  0  0  0  0  0  0  0  0
    3.6200   59.8630   71.0230 C   0  0  0  0  0  0  0  0  0  0  0  0
    4.9030   60.1070   71.8610 C   0  0  0  0  0  0  0  0  0  0  0  0
    3.5660   58.3410   70.7620 C   0  0  0  0  0  0  0  0  0  0  0  0
    3.8340   60.6200   69.6930 C   0  0  0  0  0  0  0  0  0  0  0  0
   -0.3810   59.0630   74.2860 C   0  0  0  0  0  0  0  0  0  0  0  0
   -0.4390   57.5710   73.8560 C   0  0  0  0  0  0  0  0  0  0  0  0
   -1.8370   59.5630   74.3520 C   0  0  0  0  0  0  0  0  0  0  0  0
    0.2350   59.0460   75.7050 C   0  0  0  0  0  0  0  0  0  0  0  0
    2.2160   58.3620   73.0170 O   0  0  0  0  0  0  0  0  0  0  0  0
   -1.0350   66.8440   68.7130 C   0  0  0  0  0  0  0  0  0  0  0  0
   -0.8420   67.1400   67.2180 C   0  0  0  0  0  0  0  0  0  0  0  0
    0.3150   68.1140   66.9000 C   0  0  0  0  0  0  0  0  0  0  0  0
   -0.1270   69.2030   65.9160 C   0  0  0  0  0  0  0  0  0  0  0  0
   -0.3600   68.6850   64.5070 C   0  0  0  0  0  0  0  0  0  0  0  0
    0.8180   67.9090   63.9780 N   0  0  0  0  0  4  0  0  0  0  0  0
    1.3840   66.8830   64.9270 C   0  0  0  0  0  0  0  0  0  0  0  0
    1.5600   67.4140   66.3440 C   0  0  0  0  0  0  0  0  0  0  0  0
    1.8380   68.7060   63.1820 C   0  0  0  0  0  0  0  0  0  0  0  0
    3.2520   68.7470   63.6690 C   0  0  0  0  0  0  0  0  0  0  0  0
    3.5970   69.3700   64.8780 C   0  0  0  0  0  0  0  0  0  0  0  0
    4.9300   69.4120   65.2940 C   0  0  0  0  0  0  0  0  0  0  0  0
    5.9320   68.8440   64.5080 C   0  0  0  0  0  0  0  0  0  0  0  0
    5.6040   68.2360   63.2990 C   0  0  0  0  0  0  0  0  0  0  0  0
    4.2760   68.1980   62.8910 C   0  0  0  0  0  0  0  0  0  0  0  0
    3.9690   67.6040   61.7290 F   0  0  0  0  0  0  0  0  0  0  0  0
    0.0357   64.9905   68.5207 H   0  0  0  0  0  0  0  0  0  0  0  0
    1.6043   63.9944   70.4991 H   0  0  0  0  0  0  0  0  0  0  0  0
   -0.9540   63.6331   72.1625 H   0  0  0  0  0  0  0  0  0  0  0  0
   -0.9773   61.5963   73.4378 H   0  0  0  0  0  0  0  0  0  0  0  0
    2.2608   62.2359   70.6748 H   0  0  0  0  0  0  0  0  0  0  0  0
    4.6560   60.0600   72.9319 H   0  0  0  0  0  0  0  0  0  0  0  0
    5.6491   59.3346   71.6226 H   0  0  0  0  0  0  0  0  0  0  0  0
    5.3135   61.0993   71.6226 H   0  0  0  0  0  0  0  0  0  0  0  0
    3.5470   57.8048   71.7223 H   0  0  0  0  0  0  0  0  0  0  0  0
    2.6587   58.0992   70.1890 H   0  0  0  0  0  0  0  0  0  0  0  0
    4.4539   58.0355   70.1890 H   0  0  0  0  0  0  0  0  0  0  0  0
    4.1276   61.6586   69.9054 H   0  0  0  0  0  0  0  0  0  0  0  0
    4.6276   60.1258   69.1134 H   0  0  0  0  0  0  0  0  0  0  0  0
    2.8991   60.6145   69.1134 H   0  0  0  0  0  0  0  0  0  0  0  0
   -0.4638   56.9321   74.7511 H   0  0  0  0  0  0  0  0  0  0  0  0
   -1.3446   57.3972   73.2562 H   0  0  0  0  0  0  0  0  0  0  0  0
    0.4504   57.3274   73.2562 H   0  0  0  0  0  0  0  0  0  0  0  0
   -2.1415   59.6676   75.4038 H   0  0  0  0  0  0  0  0  0  0  0  0
   -1.9128   60.5386   73.8496 H   0  0  0  0  0  0  0  0  0  0  0  0
   -2.4962   58.8397   73.8496 H   0  0  0  0  0  0  0  0  0  0  0  0
   -0.5699   59.0682   76.4544 H   0  0  0  0  0  0  0  0  0  0  0  0
    0.8317   58.1310   75.8348 H   0  0  0  0  0  0  0  0  0  0  0  0
    0.8812   59.9267   75.8348 H   0  0  0  0  0  0  0  0  0  0  0  0
    3.0642   58.0865   72.5872 H   0  0  0  0  0  0  0  0  0  0  0  0
   -2.1030   66.6506   68.8919 H   0  0  0  0  0  0  0  0  0  0  0  0
   -0.6651   67.7232   69.2610 H   0  0  0  0  0  0  0  0  0  0  0  0
   -0.6415   66.1890   66.7029 H   0  0  0  0  0  0  0  0  0  0  0  0
   -1.7654   67.6296   66.8750 H   0  0  0  0  0  0  0  0  0  0  0  0
    0.5862   68.5684   67.8643 H   0  0  0  0  0  0  0  0  0  0  0  0
   -1.0642   69.6458   66.2841 H   0  0  0  0  0  0  0  0  0  0  0  0
    0.6876   69.9401   65.8603 H   0  0  0  0  0  0  0  0  0  0  0  0
   -1.2418   68.0275   64.5137 H   0  0  0  0  0  0  0  0  0  0  0  0
   -0.5106   69.5548   63.8506 H   0  0  0  0  0  0  0  0  0  0  0  0
    0.3910   67.3296   63.2412 H   0  0  0  0  0  0  0  0  0  0  0  0
    0.7017   66.0207   64.9583 H   0  0  0  0  0  0  0  0  0  0  0  0
    2.3809   66.6053   64.5541 H   0  0  0  0  0  0  0  0  0  0  0  0
    1.8064   66.5686   67.0033 H   0  0  0  0  0  0  0  0  0  0  0  0
    2.3618   68.1662   66.3076 H   0  0  0  0  0  0  0  0  0  0  0  0
    1.8570   68.2853   62.1658 H   0  0  0  0  0  0  0  0  0  0  0  0
    1.4934   69.7469   63.2701 H   0  0  0  0  0  0  0  0  0  0  0  0
    2.8143   69.8274   65.5011 H   0  0  0  0  0  0  0  0  0  0  0  0
    5.1906   69.8958   66.2469 H   0  0  0  0  0  0  0  0  0  0  0  0
    6.9795   68.8762   64.8424 H   0  0  0  0  0  0  0  0  0  0  0  0
    6.3897   67.7894   62.6719 H   0  0  0  0  0  0  0  0  0  0  0  0
  2  1  2  0
  3  2  1  0
  4  2  1  0
  5  4  2  0
  6  5  1  0
  7  6  2  0
  8  7  1  0
  9  8  2  0
 10  9  1  0
 11 10  2  0
 11  6  1  0
 12 10  1  0
 13 12  1  0
 14 12  1  0
 15 12  1  0
 16  8  1  0
 17 16  1  0
 18 16  1  0
 19 16  1  0
 20  9  1  0
 21  3  1  0
 22 21  1  0
 23 22  1  0
 24 23  1  0
 25 24  1  0
 26 25  1  0
 27 26  1  0
 28 27  1  0
 28 23  1  0
 29 26  1  0
 30 29  1  0
 31 30  2  0
 32 31  1  0
 33 32  2  0
 34 33  1  0
 35 30  1  0
 35 34  2  0
 36 35  1  0
  3 37  1  0
  4 38  1  0
  5 39  1  0
  7 40  1  0
 11 41  1  0
 13 42  1  0
 13 43  1  0
 13 44  1  0
 14 45  1  0
 14 46  1  0
 14 47  1  0
 15 48  1  0
 15 49  1  0
 15 50  1  0
 17 51  1  0
 17 52  1  0
 17 53  1  0
 18 54  1  0
 18 55  1  0
 18 56  1  0
 19 57  1  0
 19 58  1  0
 19 59  1  0
 20 60  1  0
 21 61  1  0
 21 62  1  0
 22 63  1  0
 22 64  1  0
 23 65  1  0
 24 66  1  0
 24 67  1  0
 25 68  1  0
 25 69  1  0
 26 70  1  0
 27 71  1  0
 27 72  1  0
 28 73  1  0
 28 74  1  0
 29 75  1  0
 29 76  1  0
 31 77  1  0
 32 78  1  0
 33 79  1  0
 34 80  1  0
M  CHG  1  26   1
M  END
>  <score>  (3) 
-10.727

$$$$
=
     RDKit          3D

 80 82  0  0  0  0  0  0  0  0999 V2000
    2.4290   64.0670   69.5040 O   0  0  0  0  0  0  0  0  0  0  0  0
    1.5310   64.1150   70.3350 C   0  0  0  0  0  0  0  0  0  0  0  0
    0.7660   65.2290   70.5830 N   0  0  0  0  0  0  0  0  0  0  0  0
    1.2470   62.9380   71.1900 C   0  0  0  0  0  0  0  0  0  0  0  0
    0.0650   62.7110   71.7860 C   0  0  0  0  0  0  0  0  0  0  0  0
   -0.2070   61.5120   72.5910 C   0  0  0  0  0  0  0  0  0  0  0  0
    0.7450   60.4870   72.6230 C   0  0  0  0  0  0  0  0  0  0  0  0
    0.5750   59.3250   73.4020 C   0  0  0  0  0  0  0  0  0  0  0  0
   -0.6390   59.2310   74.1280 C   0  0  0  0  0  0  0  0  0  0  0  0
   -1.6140   60.2600   74.1590 C   0  0  0  0  0  0  0  0  0  0  0  0
   -1.3600   61.3980   73.3740 C   0  0  0  0  0  0  0  0  0  0  0  0
   -2.9120   60.1540   75.0030 C   0  0  0  0  0  0  0  0  0  0  0  0
   -3.4950   58.7180   75.0710 C   0  0  0  0  0  0  0  0  0  0  0  0
   -2.6420   60.5730   76.4650 C   0  0  0  0  0  0  0  0  0  0  0  0
   -4.0280   61.0350   74.3970 C   0  0  0  0  0  0  0  0  0  0  0  0
    1.6910   58.2470   73.4290 C   0  0  0  0  0  0  0  0  0  0  0  0
    2.2900   58.0270   74.8470 C   0  0  0  0  0  0  0  0  0  0  0  0
    2.8530   58.6920   72.5200 C   0  0  0  0  0  0  0  0  0  0  0  0
    1.1820   56.8540   72.9900 C   0  0  0  0  0  0  0  0  0  0  0  0
   -0.9230   58.0990   74.8410 O   0  0  0  0  0  0  0  0  0  0  0  0
    1.0640   66.5020   69.9610 C   0  0  0  0  0  0  0  0  0  0  0  0
    0.0860   66.8990   68.8450 C   0  0  0  0  0  0  0  0  0  0  0  0
    0.3720   68.2750   68.2000 C   0  0  0  0  0  0  0  0  0  0  0  0
   -0.5940   68.5590   67.0430 C   0  0  0  0  0  0  0  0  0  0  0  0
   -0.3390   67.6960   65.8200 C   0  0  0  0  0  0  0  0  0  0  0  0
    1.0960   67.7500   65.3660 N   0  0  0  0  0  4  0  0  0  0  0  0
    2.1180   67.5810   66.4620 C   0  0  0  0  0  0  0  0  0  0  0  0
    1.8120   68.4210   67.6960 C   0  0  0  0  0  0  0  0  0  0  0  0
    1.4230   68.7940   64.3120 C   0  0  0  0  0  0  0  0  0  0  0  0
    2.8300   68.8900   63.8130 C   0  0  0  0  0  0  0  0  0  0  0  0
    3.8850   69.2740   64.6540 C   0  0  0  0  0  0  0  0  0  0  0  0
    5.1860   69.3780   64.1520 C   0  0  0  0  0  0  0  0  0  0  0  0
    5.4460   69.1090   62.8090 C   0  0  0  0  0  0  0  0  0  0  0  0
    4.4050   68.7410   61.9600 C   0  0  0  0  0  0  0  0  0  0  0  0
    3.1140   68.6410   62.4660 C   0  0  0  0  0  0  0  0  0  0  0  0
    2.1190   68.2790   61.6440 F   0  0  0  0  0  0  0  0  0  0  0  0
   -0.0363   65.1570   71.2249 H   0  0  0  0  0  0  0  0  0  0  0  0
    2.0532   62.2060   71.3458 H   0  0  0  0  0  0  0  0  0  0  0  0
   -0.7354   63.4560   71.6662 H   0  0  0  0  0  0  0  0  0  0  0  0
    1.6582   60.5919   72.0188 H   0  0  0  0  0  0  0  0  0  0  0  0
   -2.0887   62.2220   73.3757 H   0  0  0  0  0  0  0  0  0  0  0  0
   -3.6157   58.4207   76.1232 H   0  0  0  0  0  0  0  0  0  0  0  0
   -4.4735   58.6954   74.5690 H   0  0  0  0  0  0  0  0  0  0  0  0
   -2.8092   58.0197   74.5690 H   0  0  0  0  0  0  0  0  0  0  0  0
   -3.1096   59.8473   77.1467 H   0  0  0  0  0  0  0  0  0  0  0  0
   -1.5571   60.5985   76.6447 H   0  0  0  0  0  0  0  0  0  0  0  0
   -3.0670   61.5715   76.6447 H   0  0  0  0  0  0  0  0  0  0  0  0
   -4.6119   61.4960   75.2073 H   0  0  0  0  0  0  0  0  0  0  0  0
   -3.5767   61.8230   73.7762 H   0  0  0  0  0  0  0  0  0  0  0  0
   -4.6897   60.4131   73.7762 H   0  0  0  0  0  0  0  0  0  0  0  0
    1.5435   58.3012   75.6070 H   0  0  0  0  0  0  0  0  0  0  0  0
    2.5655   56.9690   74.9686 H   0  0  0  0  0  0  0  0  0  0  0  0
    3.1848   58.6552   74.9686 H   0  0  0  0  0  0  0  0  0  0  0  0
    3.7008   59.0167   73.1411 H   0  0  0  0  0  0  0  0  0  0  0  0
    3.1650   57.8497   71.8850 H   0  0  0  0  0  0  0  0  0  0  0  0
    2.5226   59.5272   71.8850 H   0  0  0  0  0  0  0  0  0  0  0  0
    0.9603   56.2473   73.8804 H   0  0  0  0  0  0  0  0  0  0  0  0
    0.2683   56.9703   72.3887 H   0  0  0  0  0  0  0  0  0  0  0  0
    1.9554   56.3538   72.3887 H   0  0  0  0  0  0  0  0  0  0  0  0
   -1.7707   58.0330   75.3481 H   0  0  0  0  0  0  0  0  0  0  0  0
    1.0366   67.2807   70.7375 H   0  0  0  0  0  0  0  0  0  0  0  0
    2.0549   66.4025   69.4938 H   0  0  0  0  0  0  0  0  0  0  0  0
    0.1353   66.1333   68.0567 H   0  0  0  0  0  0  0  0  0  0  0  0
   -0.9073   66.9731   69.3118 H   0  0  0  0  0  0  0  0  0  0  0  0
    0.2214   69.0105   69.0039 H   0  0  0  0  0  0  0  0  0  0  0  0
   -1.6206   68.3744   67.3923 H   0  0  0  0  0  0  0  0  0  0  0  0
   -0.4401   69.6053   66.7404 H   0  0  0  0  0  0  0  0  0  0  0  0
   -0.5929   66.6539   66.0642 H   0  0  0  0  0  0  0  0  0  0  0  0
   -0.9637   68.0828   65.0014 H   0  0  0  0  0  0  0  0  0  0  0  0
    1.1927   66.8785   64.8256 H   0  0  0  0  0  0  0  0  0  0  0  0
    2.1440   66.5215   66.7568 H   0  0  0  0  0  0  0  0  0  0  0  0
    3.0859   67.9205   66.0646 H   0  0  0  0  0  0  0  0  0  0  0  0
    2.4947   68.1149   68.5023 H   0  0  0  0  0  0  0  0  0  0  0  0
    1.9465   69.4743   67.4089 H   0  0  0  0  0  0  0  0  0  0  0  0
    0.7833   68.5874   63.4413 H   0  0  0  0  0  0  0  0  0  0  0  0
    1.2529   69.7535   64.8224 H   0  0  0  0  0  0  0  0  0  0  0  0
    3.6879   69.4944   65.7135 H   0  0  0  0  0  0  0  0  0  0  0  0
    6.0084   69.6735   64.8201 H   0  0  0  0  0  0  0  0  0  0  0  0
    6.4721   69.1873   62.4203 H   0  0  0  0  0  0  0  0  0  0  0  0
    4.6026   68.5313   60.8984 H   0  0  0  0  0  0  0  0  0  0  0  0
  2  1  2  0
  3  2  1  0
  4  2  1  0
  5  4  2  0
  6  5  1  0
  7  6  2  0
  8  7  1  0
  9  8  2  0
 10  9  1  0
 11 10  2  0
 11  6  1  0
 12 10  1  0
 13 12  1  0
 14 12  1  0
 15 12  1  0
 16  8  1  0
 17 16  1  0
 18 16  1  0
 19 16  1  0
 20  9  1  0
 21  3  1  0
 22 21  1  0
 23 22  1  0
 24 23  1  0
 25 24  1  0
 26 25  1  0
 27 26  1  0
 28 27  1  0
 28 23  1  0
 29 26  1  0
 30 29  1  0
 31 30  2  0
 32 31  1  0
 33 32  2  0
 34 33  1  0
 35 30  1  0
 35 34  2  0
 36 35  1  0
  3 37  1  0
  4 38  1  0
  5 39  1  0
  7 40  1  0
 11 41  1  0
 13 42  1  0
 13 43  1  0
 13 44  1  0
 14 45  1  0
 14 46  1  0
 14 47  1  0
 15 48  1  0
 15 49  1  0
 15 50  1  0
 17 51  1  0
 17 52  1  0
 17 53  1  0
 18 54  1  0
 18 55  1  0
 18 56  1  0
 19 57  1  0
 19 58  1  0
 19 59  1  0
 20 60  1  0
 21 61  1  0
 21 62  1  0
 22 63  1  0
 22 64  1  0
 23 65  1  0
 24 66  1  0
 24 67  1  0
 25 68  1  0
 25 69  1  0
 26 70  1  0
 27 71  1  0
 27 72  1  0
 28 73  1  0
 28 74  1  0
 29 75  1  0
 29 76  1  0
 31 77  1  0
 32 78  1  0
 33 79  1  0
 34 80  1  0
M  CHG  1  26   1
M  END
>  <score>  (4) 
-10.289

$$$$
=
     RDKit          3D

 80 82  0  0  0  0  0  0  0  0999 V2000
    2.5790   64.1610   70.5490 O   0  0  0  0  0  0  0  0  0  0  0  0
    1.4230   63.9830   70.9120 C   0  0  0  0  0  0  0  0  0  0  0  0
    0.3920   64.8590   70.6670 N   0  0  0  0  0  0  0  0  0  0  0  0
    1.0730   62.7880   71.7150 C   0  0  0  0  0  0  0  0  0  0  0  0
   -0.1630   62.5240   72.1690 C   0  0  0  0  0  0  0  0  0  0  0  0
   -0.4950   61.3070   72.9240 C   0  0  0  0  0  0  0  0  0  0  0  0
   -1.7020   61.2550   73.6270 C   0  0  0  0  0  0  0  0  0  0  0  0
   -2.1100   60.1100   74.3420 C   0  0  0  0  0  0  0  0  0  0  0  0
   -1.2060   59.0190   74.3420 C   0  0  0  0  0  0  0  0  0  0  0  0
    0.0100   59.0090   73.6110 C   0  0  0  0  0  0  0  0  0  0  0  0
    0.3330   60.1810   72.9040 C   0  0  0  0  0  0  0  0  0  0  0  0
    0.9580   57.7820   73.5850 C   0  0  0  0  0  0  0  0  0  0  0  0
    1.7210   57.5560   74.9180 C   0  0  0  0  0  0  0  0  0  0  0  0
    0.1580   56.4860   73.3270 C   0  0  0  0  0  0  0  0  0  0  0  0
    2.0450   57.9570   72.5010 C   0  0  0  0  0  0  0  0  0  0  0  0
   -3.4840   60.1020   75.0630 C   0  0  0  0  0  0  0  0  0  0  0  0
   -4.4670   61.1720   74.5110 C   0  0  0  0  0  0  0  0  0  0  0  0
   -3.2790   60.4150   76.5580 C   0  0  0  0  0  0  0  0  0  0  0  0
   -4.2290   58.7550   74.9050 C   0  0  0  0  0  0  0  0  0  0  0  0
   -1.4820   57.9020   75.0790 O   0  0  0  0  0  0  0  0  0  0  0  0
    0.6300   66.1550   70.0670 C   0  0  0  0  0  0  0  0  0  0  0  0
   -0.2800   66.4670   68.8700 C   0  0  0  0  0  0  0  0  0  0  0  0
   -0.1260   67.8970   68.3020 C   0  0  0  0  0  0  0  0  0  0  0  0
   -0.9050   68.0630   66.9910 C   0  0  0  0  0  0  0  0  0  0  0  0
   -0.2920   67.3060   65.8260 C   0  0  0  0  0  0  0  0  0  0  0  0
    1.1700   67.6170   65.6420 N   0  0  0  0  0  4  0  0  0  0  0  0
    1.9940   67.5770   66.9040 C   0  0  0  0  0  0  0  0  0  0  0  0
    1.3340   68.3020   68.0700 C   0  0  0  0  0  0  0  0  0  0  0  0
    1.4950   68.7440   64.6760 C   0  0  0  0  0  0  0  0  0  0  0  0
    2.9070   68.8980   64.2040 C   0  0  0  0  0  0  0  0  0  0  0  0
    3.9240   69.3470   65.0600 C   0  0  0  0  0  0  0  0  0  0  0  0
    5.2290   69.5020   64.5840 C   0  0  0  0  0  0  0  0  0  0  0  0
    5.5300   69.2220   63.2520 C   0  0  0  0  0  0  0  0  0  0  0  0
    4.5270   68.7900   62.3890 C   0  0  0  0  0  0  0  0  0  0  0  0
    3.2310   68.6380   62.8690 C   0  0  0  0  0  0  0  0  0  0  0  0
    2.2730   68.2150   62.0330 F   0  0  0  0  0  0  0  0  0  0  0  0
   -0.5700   64.5875   70.9155 H   0  0  0  0  0  0  0  0  0  0  0  0
    1.8745   62.0735   71.9539 H   0  0  0  0  0  0  0  0  0  0  0  0
   -0.9632   63.2512   71.9668 H   0  0  0  0  0  0  0  0  0  0  0  0
   -2.3570   62.1387   73.6224 H   0  0  0  0  0  0  0  0  0  0  0  0
    1.2638   60.2125   72.3186 H   0  0  0  0  0  0  0  0  0  0  0  0
    1.0474   57.7555   75.7644 H   0  0  0  0  0  0  0  0  0  0  0  0
    2.0730   56.5150   74.9670 H   0  0  0  0  0  0  0  0  0  0  0  0
    2.5832   58.2373   74.9670 H   0  0  0  0  0  0  0  0  0  0  0  0
   -0.1229   56.0310   74.2883 H   0  0  0  0  0  0  0  0  0  0  0  0
   -0.7507   56.7238   72.7545 H   0  0  0  0  0  0  0  0  0  0  0  0
    0.7779   55.7803   72.7545 H   0  0  0  0  0  0  0  0  0  0  0  0
    3.0213   58.1142   72.9828 H   0  0  0  0  0  0  0  0  0  0  0  0
    2.0865   57.0540   71.8742 H   0  0  0  0  0  0  0  0  0  0  0  0
    1.8010   58.8274   71.8742 H   0  0  0  0  0  0  0  0  0  0  0  0
   -4.9481   61.6956   75.3503 H   0  0  0  0  0  0  0  0  0  0  0  0
   -3.9129   61.8964   73.8960 H   0  0  0  0  0  0  0  0  0  0  0  0
   -5.2357   60.6812   73.8960 H   0  0  0  0  0  0  0  0  0  0  0  0
   -3.7814   59.6479   77.1655 H   0  0  0  0  0  0  0  0  0  0  0  0
   -2.2033   60.4182   76.7878 H   0  0  0  0  0  0  0  0  0  0  0  0
   -3.7060   61.4024   76.7878 H   0  0  0  0  0  0  0  0  0  0  0  0
   -4.4568   58.3432   75.8992 H   0  0  0  0  0  0  0  0  0  0  0  0
   -5.1659   58.9168   74.3517 H   0  0  0  0  0  0  0  0  0  0  0  0
   -3.5940   58.0475   74.3517 H   0  0  0  0  0  0  0  0  0  0  0  0
   -0.8499   57.1400   75.0786 H   0  0  0  0  0  0  0  0  0  0  0  0
    0.4682   66.9262   70.8345 H   0  0  0  0  0  0  0  0  0  0  0  0
    1.6623   66.1445   69.6871 H   0  0  0  0  0  0  0  0  0  0  0  0
   -0.0485   65.7517   68.0670 H   0  0  0  0  0  0  0  0  0  0  0  0
   -1.3147   66.3852   69.2344 H   0  0  0  0  0  0  0  0  0  0  0  0
   -0.5422   68.5630   69.0722 H   0  0  0  0  0  0  0  0  0  0  0  0
   -1.9301   67.6950   67.1454 H   0  0  0  0  0  0  0  0  0  0  0  0
   -0.8818   69.1319   66.7323 H   0  0  0  0  0  0  0  0  0  0  0  0
   -0.4029   66.2270   66.0088 H   0  0  0  0  0  0  0  0  0  0  0  0
   -0.8178   67.6171   64.9113 H   0  0  0  0  0  0  0  0  0  0  0  0
    1.5094   66.7964   65.1201 H   0  0  0  0  0  0  0  0  0  0  0  0
    2.1493   66.5257   67.1879 H   0  0  0  0  0  0  0  0  0  0  0  0
    2.9437   68.0904   66.6929 H   0  0  0  0  0  0  0  0  0  0  0  0
    1.9049   68.0811   68.9839 H   0  0  0  0  0  0  0  0  0  0  0  0
    1.3343   69.3739   67.8230 H   0  0  0  0  0  0  0  0  0  0  0  0
    0.8690   68.5968   63.7836 H   0  0  0  0  0  0  0  0  0  0  0  0
    1.3051   69.6585   65.2571 H   0  0  0  0  0  0  0  0  0  0  0  0
    3.6933   69.5781   66.1104 H   0  0  0  0  0  0  0  0  0  0  0  0
    6.0223   69.8466   65.2637 H   0  0  0  0  0  0  0  0  0  0  0  0
    6.5593   69.3424   62.8832 H   0  0  0  0  0  0  0  0  0  0  0  0
    4.7577   68.5707   61.3361 H   0  0  0  0  0  0  0  0  0  0  0  0
  2  1  2  0
  3  2  1  0
  4  2  1  0
  5  4  2  0
  6  5  1  0
  7  6  2  0
  8  7  1  0
  9  8  2  0
 10  9  1  0
 11 10  2  0
 11  6  1  0
 12 10  1  0
 13 12  1  0
 14 12  1  0
 15 12  1  0
 16  8  1  0
 17 16  1  0
 18 16  1  0
 19 16  1  0
 20  9  1  0
 21  3  1  0
 22 21  1  0
 23 22  1  0
 24 23  1  0
 25 24  1  0
 26 25  1  0
 27 26  1  0
 28 27  1  0
 28 23  1  0
 29 26  1  0
 30 29  1  0
 31 30  2  0
 32 31  1  0
 33 32  2  0
 34 33  1  0
 35 30  1  0
 35 34  2  0
 36 35  1  0
  3 37  1  0
  4 38  1  0
  5 39  1  0
  7 40  1  0
 11 41  1  0
 13 42  1  0
 13 43  1  0
 13 44  1  0
 14 45  1  0
 14 46  1  0
 14 47  1  0
 15 48  1  0
 15 49  1  0
 15 50  1  0
 17 51  1  0
 17 52  1  0
 17 53  1  0
 18 54  1  0
 18 55  1  0
 18 56  1  0
 19 57  1  0
 19 58  1  0
 19 59  1  0
 20 60  1  0
 21 61  1  0
 21 62  1  0
 22 63  1  0
 22 64  1  0
 23 65  1  0
 24 66  1  0
 24 67  1  0
 25 68  1  0
 25 69  1  0
 26 70  1  0
 27 71  1  0
 27 72  1  0
 28 73  1  0
 28 74  1  0
 29 75  1  0
 29 76  1  0
 31 77  1  0
 32 78  1  0
 33 79  1  0
 34 80  1  0
M  CHG  1  26   1
M  END
>  <score>  (5) 
-10.071

$$$$
=
     RDKit          3D

 80 82  0  0  0  0  0  0  0  0999 V2000
   -2.5220   66.7340   67.6970 O   0  0  0  0  0  0  0  0  0  0  0  0
   -1.4020   66.9390   68.1460 C   0  0  0  0  0  0  0  0  0  0  0  0
   -0.6760   68.0840   67.9190 N   0  0  0  0  0  0  0  0  0  0  0  0
   -0.7210   65.8970   68.9500 C   0  0  0  0  0  0  0  0  0  0  0  0
    0.2480   66.1510   69.8440 C   0  0  0  0  0  0  0  0  0  0  0  0
    0.8760   65.1040   70.6630 C   0  0  0  0  0  0  0  0  0  0  0  0
    0.4220   64.9050   71.9710 C   0  0  0  0  0  0  0  0  0  0  0  0
    0.9450   63.8960   72.8040 C   0  0  0  0  0  0  0  0  0  0  0  0
    1.9920   63.1130   72.2560 C   0  0  0  0  0  0  0  0  0  0  0  0
    2.4570   63.2500   70.9230 C   0  0  0  0  0  0  0  0  0  0  0  0
    1.8670   64.2640   70.1480 C   0  0  0  0  0  0  0  0  0  0  0  0
    3.5690   62.3450   70.3310 C   0  0  0  0  0  0  0  0  0  0  0  0
    3.2780   60.8270   70.4720 C   0  0  0  0  0  0  0  0  0  0  0  0
    3.7300   62.6080   68.8170 C   0  0  0  0  0  0  0  0  0  0  0  0
    4.9120   62.5880   71.0560 C   0  0  0  0  0  0  0  0  0  0  0  0
    0.3650   63.6970   74.2300 C   0  0  0  0  0  0  0  0  0  0  0  0
   -0.3880   64.9500   74.7600 C   0  0  0  0  0  0  0  0  0  0  0  0
    1.5160   63.4200   75.2160 C   0  0  0  0  0  0  0  0  0  0  0  0
   -0.6720   62.5510   74.2940 C   0  0  0  0  0  0  0  0  0  0  0  0
    2.6150   62.1690   73.0250 O   0  0  0  0  0  0  0  0  0  0  0  0
   -1.1370   69.0980   66.9950 C   0  0  0  0  0  0  0  0  0  0  0  0
   -0.7910   68.8120   65.5260 C   0  0  0  0  0  0  0  0  0  0  0  0
    0.6760   69.1120   65.1420 C   0  0  0  0  0  0  0  0  0  0  0  0
    1.0560   68.4330   63.8200 C   0  0  0  0  0  0  0  0  0  0  0  0
    1.1710   66.9230   63.9290 C   0  0  0  0  0  0  0  0  0  0  0  0
    2.0810   66.4950   65.0510 N   0  0  0  0  0  4  0  0  0  0  0  0
    1.8420   67.1910   66.3670 C   0  0  0  0  0  0  0  0  0  0  0  0
    1.6820   68.6990   66.2220 C   0  0  0  0  0  0  0  0  0  0  0  0
    3.5360   66.2660   64.6780 C   0  0  0  0  0  0  0  0  0  0  0  0
    4.3100   67.4020   64.0860 C   0  0  0  0  0  0  0  0  0  0  0  0
    4.7300   68.4920   64.8640 C   0  0  0  0  0  0  0  0  0  0  0  0
    5.4310   69.5490   64.2770 C   0  0  0  0  0  0  0  0  0  0  0  0
    5.7110   69.5360   62.9110 C   0  0  0  0  0  0  0  0  0  0  0  0
    5.2870   68.4680   62.1250 C   0  0  0  0  0  0  0  0  0  0  0  0
    4.5890   67.4200   62.7160 C   0  0  0  0  0  0  0  0  0  0  0  0
    4.1910   66.3920   61.9530 F   0  0  0  0  0  0  0  0  0  0  0  0
    0.2148   68.2232   68.4170 H   0  0  0  0  0  0  0  0  0  0  0  0
   -1.0284   64.8508   68.8054 H   0  0  0  0  0  0  0  0  0  0  0  0
    0.5874   67.1898   69.9693 H   0  0  0  0  0  0  0  0  0  0  0  0
   -0.3709   65.5590   72.3630 H   0  0  0  0  0  0  0  0  0  0  0  0
    2.1948   64.4000   69.1068 H   0  0  0  0  0  0  0  0  0  0  0  0
    3.2270   60.5609   71.5381 H   0  0  0  0  0  0  0  0  0  0  0  0
    2.3183   60.5912   69.9889 H   0  0  0  0  0  0  0  0  0  0  0  0
    4.0825   60.2530   69.9889 H   0  0  0  0  0  0  0  0  0  0  0  0
    4.2988   63.5371   68.6647 H   0  0  0  0  0  0  0  0  0  0  0  0
    4.2689   61.7681   68.3542 H   0  0  0  0  0  0  0  0  0  0  0  0
    2.7369   62.7060   68.3542 H   0  0  0  0  0  0  0  0  0  0  0  0
    4.7519   62.5590   72.1439 H   0  0  0  0  0  0  0  0  0  0  0  0
    5.6299   61.8052   70.7701 H   0  0  0  0  0  0  0  0  0  0  0  0
    5.3101   63.5728   70.7701 H   0  0  0  0  0  0  0  0  0  0  0  0
   -0.3835   64.9425   75.8600 H   0  0  0  0  0  0  0  0  0  0  0  0
    0.1132   65.8596   74.3975 H   0  0  0  0  0  0  0  0  0  0  0  0
   -1.4264   64.9343   74.3975 H   0  0  0  0  0  0  0  0  0  0  0  0
    1.1446   63.5094   76.2476 H   0  0  0  0  0  0  0  0  0  0  0  0
    1.9024   62.4032   75.0522 H   0  0  0  0  0  0  0  0  0  0  0  0
    2.3227   64.1496   75.0522 H   0  0  0  0  0  0  0  0  0  0  0  0
   -0.8890   62.3112   75.3454 H   0  0  0  0  0  0  0  0  0  0  0  0
   -1.5982   62.8661   73.7911 H   0  0  0  0  0  0  0  0  0  0  0  0
   -0.2662   61.6608   73.7911 H   0  0  0  0  0  0  0  0  0  0  0  0
    3.3461   61.6223   72.6420 H   0  0  0  0  0  0  0  0  0  0  0  0
   -2.2307   69.1745   67.0837 H   0  0  0  0  0  0  0  0  0  0  0  0
   -0.6223   70.0316   67.2661 H   0  0  0  0  0  0  0  0  0  0  0  0
   -0.9871   67.7479   65.3279 H   0  0  0  0  0  0  0  0  0  0  0  0
   -1.4163   69.4850   64.9209 H   0  0  0  0  0  0  0  0  0  0  0  0
    0.7302   70.2051   65.0319 H   0  0  0  0  0  0  0  0  0  0  0  0
    0.2856   68.6709   63.0718 H   0  0  0  0  0  0  0  0  0  0  0  0
    2.0469   68.8142   63.5322 H   0  0  0  0  0  0  0  0  0  0  0  0
    0.1695   66.5046   64.1075 H   0  0  0  0  0  0  0  0  0  0  0  0
    1.6018   66.5510   62.9877 H   0  0  0  0  0  0  0  0  0  0  0  0
    1.7655   65.5330   65.2407 H   0  0  0  0  0  0  0  0  0  0  0  0
    0.9254   66.7830   66.8180 H   0  0  0  0  0  0  0  0  0  0  0  0
    2.7248   67.0129   66.9987 H   0  0  0  0  0  0  0  0  0  0  0  0
    1.3431   69.1063   67.1860 H   0  0  0  0  0  0  0  0  0  0  0  0
    2.6610   69.0979   65.9180 H   0  0  0  0  0  0  0  0  0  0  0  0
    4.0612   65.9581   65.5941 H   0  0  0  0  0  0  0  0  0  0  0  0
    3.4922   65.5208   63.8701 H   0  0  0  0  0  0  0  0  0  0  0  0
    4.5064   68.5145   65.9408 H   0  0  0  0  0  0  0  0  0  0  0  0
    5.7636   70.3955   64.8957 H   0  0  0  0  0  0  0  0  0  0  0  0
    6.2664   70.3688   62.4549 H   0  0  0  0  0  0  0  0  0  0  0  0
    5.5020   68.4531   61.0463 H   0  0  0  0  0  0  0  0  0  0  0  0
  2  1  2  0
  3  2  1  0
  4  2  1  0
  5  4  2  0
  6  5  1  0
  7  6  2  0
  8  7  1  0
  9  8  2  0
 10  9  1  0
 11 10  2  0
 11  6  1  0
 12 10  1  0
 13 12  1  0
 14 12  1  0
 15 12  1  0
 16  8  1  0
 17 16  1  0
 18 16  1  0
 19 16  1  0
 20  9  1  0
 21  3  1  0
 22 21  1  0
 23 22  1  0
 24 23  1  0
 25 24  1  0
 26 25  1  0
 27 26  1  0
 28 27  1  0
 28 23  1  0
 29 26  1  0
 30 29  1  0
 31 30  2  0
 32 31  1  0
 33 32  2  0
 34 33  1  0
 35 30  1  0
 35 34  2  0
 36 35  1  0
  3 37  1  0
  4 38  1  0
  5 39  1  0
  7 40  1  0
 11 41  1  0
 13 42  1  0
 13 43  1  0
 13 44  1  0
 14 45  1  0
 14 46  1  0
 14 47  1  0
 15 48  1  0
 15 49  1  0
 15 50  1  0
 17 51  1  0
 17 52  1  0
 17 53  1  0
 18 54  1  0
 18 55  1  0
 18 56  1  0
 19 57  1  0
 19 58  1  0
 19 59  1  0
 20 60  1  0
 21 61  1  0
 21 62  1  0
 22 63  1  0
 22 64  1  0
 23 65  1  0
 24 66  1  0
 24 67  1  0
 25 68  1  0
 25 69  1  0
 26 70  1  0
 27 71  1  0
 27 72  1  0
 28 73  1  0
 28 74  1  0
 29 75  1  0
 29 76  1  0
 31 77  1  0
 32 78  1  0
 33 79  1  0
 34 80  1  0
M  CHG  1  26   1
M  END
>  <score>  (6) 
-9.878

$$$$
=
     RDKit          3D

 80 82  0  0  0  0  0  0  0  0999 V2000
   -1.1590   66.8410   68.8430 O   0  0  0  0  0  0  0  0  0  0  0  0
    0.0370   66.8740   69.1090 C   0  0  0  0  0  0  0  0  0  0  0  0
    0.8870   67.8830   68.7220 N   0  0  0  0  0  0  0  0  0  0  0  0
    0.6650   65.7540   69.8490 C   0  0  0  0  0  0  0  0  0  0  0  0
    0.0420   64.5990   70.1320 C   0  0  0  0  0  0  0  0  0  0  0  0
    0.7020   63.4840   70.8270 C   0  0  0  0  0  0  0  0  0  0  0  0
    2.0500   63.2240   70.5610 C   0  0  0  0  0  0  0  0  0  0  0  0
    2.7640   62.2000   71.2150 C   0  0  0  0  0  0  0  0  0  0  0  0
    2.0260   61.4150   72.1370 C   0  0  0  0  0  0  0  0  0  0  0  0
    0.6700   61.6660   72.4690 C   0  0  0  0  0  0  0  0  0  0  0  0
    0.0360   62.7210   71.7910 C   0  0  0  0  0  0  0  0  0  0  0  0
   -0.1000   60.8240   73.5200 C   0  0  0  0  0  0  0  0  0  0  0  0
   -1.6370   61.0370   73.4830 C   0  0  0  0  0  0  0  0  0  0  0  0
    0.1270   59.3160   73.2760 C   0  0  0  0  0  0  0  0  0  0  0  0
    0.3440   61.2020   74.9510 C   0  0  0  0  0  0  0  0  0  0  0  0
    4.2700   61.9940   70.9080 C   0  0  0  0  0  0  0  0  0  0  0  0
    4.9480   63.2580   70.3080 C   0  0  0  0  0  0  0  0  0  0  0  0
    4.4310   60.8680   69.8680 C   0  0  0  0  0  0  0  0  0  0  0  0
    5.0950   61.6620   72.1750 C   0  0  0  0  0  0  0  0  0  0  0  0
    2.6170   60.3460   72.7520 O   0  0  0  0  0  0  0  0  0  0  0  0
    0.4490   68.9370   67.8310 C   0  0  0  0  0  0  0  0  0  0  0  0
   -0.0450   68.4390   66.4650 C   0  0  0  0  0  0  0  0  0  0  0  0
    0.9060   68.7470   65.2860 C   0  0  0  0  0  0  0  0  0  0  0  0
    0.8010   67.6790   64.1910 C   0  0  0  0  0  0  0  0  0  0  0  0
    1.3950   66.3410   64.5960 C   0  0  0  0  0  0  0  0  0  0  0  0
    2.8050   66.4680   65.1090 N   0  0  0  0  0  4  0  0  0  0  0  0
    3.0190   67.5680   66.1190 C   0  0  0  0  0  0  0  0  0  0  0  0
    2.3720   68.8850   65.7100 C   0  0  0  0  0  0  0  0  0  0  0  0
    3.9080   66.2930   64.0790 C   0  0  0  0  0  0  0  0  0  0  0  0
    4.2660   67.4570   63.2090 C   0  0  0  0  0  0  0  0  0  0  0  0
    3.5610   67.7380   62.0290 C   0  0  0  0  0  0  0  0  0  0  0  0
    3.9340   68.8190   61.2250 C   0  0  0  0  0  0  0  0  0  0  0  0
    5.0170   69.6220   61.5840 C   0  0  0  0  0  0  0  0  0  0  0  0
    5.7330   69.3440   62.7450 C   0  0  0  0  0  0  0  0  0  0  0  0
    5.3560   68.2670   63.5390 C   0  0  0  0  0  0  0  0  0  0  0  0
    6.0480   68.0110   64.6580 F   0  0  0  0  0  0  0  0  0  0  0  0
    1.8553   67.8893   69.0731 H   0  0  0  0  0  0  0  0  0  0  0  0
    1.7046   65.8765   70.1869 H   0  0  0  0  0  0  0  0  0  0  0  0
   -1.0093   64.4815   69.8304 H   0  0  0  0  0  0  0  0  0  0  0  0
    2.5718   63.8409   69.8145 H   0  0  0  0  0  0  0  0  0  0  0  0
   -1.0134   62.9530   72.0252 H   0  0  0  0  0  0  0  0  0  0  0  0
   -2.0246   61.0907   74.5111 H   0  0  0  0  0  0  0  0  0  0  0  0
   -1.8646   61.9753   72.9559 H   0  0  0  0  0  0  0  0  0  0  0  0
   -2.1111   60.1960   72.9559 H   0  0  0  0  0  0  0  0  0  0  0  0
    0.2053   58.7959   74.2421 H   0  0  0  0  0  0  0  0  0  0  0  0
   -0.7194   58.9053   72.7060 H   0  0  0  0  0  0  0  0  0  0  0  0
    1.0568   59.1727   72.7060 H   0  0  0  0  0  0  0  0  0  0  0  0
   -0.2819   60.6691   75.6819 H   0  0  0  0  0  0  0  0  0  0  0  0
    1.3972   60.9191   75.0949 H   0  0  0  0  0  0  0  0  0  0  0  0
    0.2328   62.2869   75.0949 H   0  0  0  0  0  0  0  0  0  0  0  0
    5.2971   63.9088   71.1233 H   0  0  0  0  0  0  0  0  0  0  0  0
    5.8048   62.9552   69.6881 H   0  0  0  0  0  0  0  0  0  0  0  0
    4.2218   63.8043   69.6881 H   0  0  0  0  0  0  0  0  0  0  0  0
    4.5684   59.9074   70.3860 H   0  0  0  0  0  0  0  0  0  0  0  0
    3.5307   60.8194   69.2379 H   0  0  0  0  0  0  0  0  0  0  0  0
    5.3089   61.0736   69.2379 H   0  0  0  0  0  0  0  0  0  0  0  0
    4.5029   61.9003   73.0709 H   0  0  0  0  0  0  0  0  0  0  0  0
    5.3489   60.5917   72.1772 H   0  0  0  0  0  0  0  0  0  0  0  0
    6.0195   62.2581   72.1772 H   0  0  0  0  0  0  0  0  0  0  0  0
    2.1016   59.7981   73.3956 H   0  0  0  0  0  0  0  0  0  0  0  0
   -0.3734   69.4815   68.3181 H   0  0  0  0  0  0  0  0  0  0  0  0
    1.3251   69.5737   67.6384 H   0  0  0  0  0  0  0  0  0  0  0  0
   -0.1762   67.3485   66.5242 H   0  0  0  0  0  0  0  0  0  0  0  0
   -0.9827   68.9755   66.2578 H   0  0  0  0  0  0  0  0  0  0  0  0
    0.5763   69.7201   64.8932 H   0  0  0  0  0  0  0  0  0  0  0  0
   -0.2618   67.5302   63.9496 H   0  0  0  0  0  0  0  0  0  0  0  0
    1.3763   68.0419   63.3265 H   0  0  0  0  0  0  0  0  0  0  0  0
    0.7697   65.9025   65.3876 H   0  0  0  0  0  0  0  0  0  0  0  0
    1.4211   65.7021   63.7010 H   0  0  0  0  0  0  0  0  0  0  0  0
    2.9156   65.6130   65.6726 H   0  0  0  0  0  0  0  0  0  0  0  0
    2.5892   67.2498   67.0803 H   0  0  0  0  0  0  0  0  0  0  0  0
    4.1027   67.7421   66.1916 H   0  0  0  0  0  0  0  0  0  0  0  0
    2.4227   69.5765   66.5640 H   0  0  0  0  0  0  0  0  0  0  0  0
    2.9255   69.2564   64.8350 H   0  0  0  0  0  0  0  0  0  0  0  0
    4.8183   66.0036   64.6245 H   0  0  0  0  0  0  0  0  0  0  0  0
    3.5048   65.5476   63.3777 H   0  0  0  0  0  0  0  0  0  0  0  0
    2.7109   67.1048   61.7352 H   0  0  0  0  0  0  0  0  0  0  0  0
    3.3713   69.0375   60.3054 H   0  0  0  0  0  0  0  0  0  0  0  0
    5.3048   70.4738   60.9503 H   0  0  0  0  0  0  0  0  0  0  0  0
    6.5899   69.9713   63.0317 H   0  0  0  0  0  0  0  0  0  0  0  0
  2  1  2  0
  3  2  1  0
  4  2  1  0
  5  4  2  0
  6  5  1  0
  7  6  2  0
  8  7  1  0
  9  8  2  0
 10  9  1  0
 11 10  2  0
 11  6  1  0
 12 10  1  0
 13 12  1  0
 14 12  1  0
 15 12  1  0
 16  8  1  0
 17 16  1  0
 18 16  1  0
 19 16  1  0
 20  9  1  0
 21  3  1  0
 22 21  1  0
 23 22  1  0
 24 23  1  0
 25 24  1  0
 26 25  1  0
 27 26  1  0
 28 27  1  0
 28 23  1  0
 29 26  1  0
 30 29  1  0
 31 30  2  0
 32 31  1  0
 33 32  2  0
 34 33  1  0
 35 30  1  0
 35 34  2  0
 36 35  1  0
  3 37  1  0
  4 38  1  0
  5 39  1  0
  7 40  1  0
 11 41  1  0
 13 42  1  0
 13 43  1  0
 13 44  1  0
 14 45  1  0
 14 46  1  0
 14 47  1  0
 15 48  1  0
 15 49  1  0
 15 50  1  0
 17 51  1  0
 17 52  1  0
 17 53  1  0
 18 54  1  0
 18 55  1  0
 18 56  1  0
 19 57  1  0
 19 58  1  0
 19 59  1  0
 20 60  1  0
 21 61  1  0
 21 62  1  0
 22 63  1  0
 22 64  1  0
 23 65  1  0
 24 66  1  0
 24 67  1  0
 25 68  1  0
 25 69  1  0
 26 70  1  0
 27 71  1  0
 27 72  1  0
 28 73  1  0
 28 74  1  0
 29 75  1  0
 29 76  1  0
 31 77  1  0
 32 78  1  0
 33 79  1  0
 34 80  1  0
M  CHG  1  26   1
M  END
>  <score>  (7) 
-9.841

$$$$
=
     RDKit          3D

 80 82  0  0  0  0  0  0  0  0999 V2000
    4.8890   63.2580   64.3310 O   0  0  0  0  0  0  0  0  0  0  0  0
    4.1700   64.0750   64.8940 C   0  0  0  0  0  0  0  0  0  0  0  0
    3.9060   65.3340   64.4120 N   0  0  0  0  0  0  0  0  0  0  0  0
    3.5650   63.7500   66.2070 C   0  0  0  0  0  0  0  0  0  0  0  0
    4.1540   62.9800   67.1360 C   0  0  0  0  0  0  0  0  0  0  0  0
    3.5530   62.7110   68.4500 C   0  0  0  0  0  0  0  0  0  0  0  0
    2.6310   63.6240   68.9730 C   0  0  0  0  0  0  0  0  0  0  0  0
    1.9820   63.4170   70.2070 C   0  0  0  0  0  0  0  0  0  0  0  0
    2.3450   62.2440   70.9150 C   0  0  0  0  0  0  0  0  0  0  0  0
    3.2420   61.2700   70.4080 C   0  0  0  0  0  0  0  0  0  0  0  0
    3.8290   61.5380   69.1590 C   0  0  0  0  0  0  0  0  0  0  0  0
    3.5830   59.9680   71.1800 C   0  0  0  0  0  0  0  0  0  0  0  0
    3.8480   58.7480   70.2580 C   0  0  0  0  0  0  0  0  0  0  0  0
    4.8680   60.1570   72.0160 C   0  0  0  0  0  0  0  0  0  0  0  0
    2.4100   59.5570   72.0980 C   0  0  0  0  0  0  0  0  0  0  0  0
    0.9350   64.4470   70.7080 C   0  0  0  0  0  0  0  0  0  0  0  0
    0.7970   64.4710   72.2560 C   0  0  0  0  0  0  0  0  0  0  0  0
   -0.4520   64.0800   70.1450 C   0  0  0  0  0  0  0  0  0  0  0  0
    1.2960   65.9000   70.3160 C   0  0  0  0  0  0  0  0  0  0  0  0
    1.8290   62.0090   72.1590 O   0  0  0  0  0  0  0  0  0  0  0  0
    4.5850   65.8520   63.2430 C   0  0  0  0  0  0  0  0  0  0  0  0
    3.7170   66.7690   62.3680 C   0  0  0  0  0  0  0  0  0  0  0  0
    4.1340   68.2580   62.3870 C   0  0  0  0  0  0  0  0  0  0  0  0
    5.5860   68.4240   62.8500 C   0  0  0  0  0  0  0  0  0  0  0  0
    5.7860   68.1300   64.3270 C   0  0  0  0  0  0  0  0  0  0  0  0
    4.8360   68.9060   65.2010 N   0  0  0  0  0  4  0  0  0  0  0  0
    3.3950   68.8800   64.7570 C   0  0  0  0  0  0  0  0  0  0  0  0
    3.2280   69.1290   63.2630 C   0  0  0  0  0  0  0  0  0  0  0  0
    5.3450   70.2410   65.7170 C   0  0  0  0  0  0  0  0  0  0  0  0
    5.5770   70.3990   67.1870 C   0  0  0  0  0  0  0  0  0  0  0  0
    6.8620   70.5960   67.7130 C   0  0  0  0  0  0  0  0  0  0  0  0
    7.0490   70.7170   69.0930 C   0  0  0  0  0  0  0  0  0  0  0  0
    5.9610   70.6320   69.9610 C   0  0  0  0  0  0  0  0  0  0  0  0
    4.6820   70.4220   69.4520 C   0  0  0  0  0  0  0  0  0  0  0  0
    4.5040   70.3020   68.0790 C   0  0  0  0  0  0  0  0  0  0  0  0
    3.2680   70.1060   67.5980 F   0  0  0  0  0  0  0  0  0  0  0  0
    3.2101   65.9220   64.8925 H   0  0  0  0  0  0  0  0  0  0  0  0
    2.5721   64.1651   66.4347 H   0  0  0  0  0  0  0  0  0  0  0  0
    5.1304   62.5302   66.9031 H   0  0  0  0  0  0  0  0  0  0  0  0
    2.4045   64.5358   68.4009 H   0  0  0  0  0  0  0  0  0  0  0  0
    4.5252   60.8039   68.7273 H   0  0  0  0  0  0  0  0  0  0  0  0
    4.0414   57.8577   70.8744 H   0  0  0  0  0  0  0  0  0  0  0  0
    2.9675   58.5702   69.6230 H   0  0  0  0  0  0  0  0  0  0  0  0
    4.7229   58.9514   69.6230 H   0  0  0  0  0  0  0  0  0  0  0  0
    4.6177   60.1202   73.0865 H   0  0  0  0  0  0  0  0  0  0  0  0
    5.5814   59.3541   71.7784 H   0  0  0  0  0  0  0  0  0  0  0  0
    5.3200   61.1313   71.7784 H   0  0  0  0  0  0  0  0  0  0  0  0
    2.7131   59.6632   73.1501 H   0  0  0  0  0  0  0  0  0  0  0  0
    1.5439   60.2052   71.8987 H   0  0  0  0  0  0  0  0  0  0  0  0
    2.1379   58.5100   71.8987 H   0  0  0  0  0  0  0  0  0  0  0  0
    1.7820   64.2997   72.7146 H   0  0  0  0  0  0  0  0  0  0  0  0
    0.4095   65.4500   72.5744 H   0  0  0  0  0  0  0  0  0  0  0  0
    0.1018   63.6803   72.5744 H   0  0  0  0  0  0  0  0  0  0  0  0
   -1.1482   63.8958   70.9765 H   0  0  0  0  0  0  0  0  0  0  0  0
   -0.8286   64.9094   69.5283 H   0  0  0  0  0  0  0  0  0  0  0  0
   -0.3691   63.1729   69.5283 H   0  0  0  0  0  0  0  0  0  0  0  0
    1.4449   66.4992   71.2264 H   0  0  0  0  0  0  0  0  0  0  0  0
    2.2215   65.9002   69.7215 H   0  0  0  0  0  0  0  0  0  0  0  0
    0.4782   66.3333   69.7215 H   0  0  0  0  0  0  0  0  0  0  0  0
    2.0826   61.1897   72.6534 H   0  0  0  0  0  0  0  0  0  0  0  0
    5.4625   66.4242   63.5785 H   0  0  0  0  0  0  0  0  0  0  0  0
    4.8549   64.9846   62.6228 H   0  0  0  0  0  0  0  0  0  0  0  0
    3.7755   66.4093   61.3301 H   0  0  0  0  0  0  0  0  0  0  0  0
    2.6991   66.7244   62.7826 H   0  0  0  0  0  0  0  0  0  0  0  0
    4.0302   68.6031   61.3477 H   0  0  0  0  0  0  0  0  0  0  0  0
    6.2180   67.7363   62.2690 H   0  0  0  0  0  0  0  0  0  0  0  0
    5.8597   69.4771   62.6887 H   0  0  0  0  0  0  0  0  0  0  0  0
    5.6255   67.0553   64.4981 H   0  0  0  0  0  0  0  0  0  0  0  0
    6.8095   68.4323   64.5934 H   0  0  0  0  0  0  0  0  0  0  0  0
    4.8194   68.3463   66.0655 H   0  0  0  0  0  0  0  0  0  0  0  0
    2.9718   67.8935   64.9975 H   0  0  0  0  0  0  0  0  0  0  0  0
    2.8729   69.6907   65.2862 H   0  0  0  0  0  0  0  0  0  0  0  0
    2.1819   68.9239   62.9918 H   0  0  0  0  0  0  0  0  0  0  0  0
    3.5128   70.1753   63.0783 H   0  0  0  0  0  0  0  0  0  0  0  0
    6.3032   70.4390   65.2143 H   0  0  0  0  0  0  0  0  0  0  0  0
    4.5272   70.9431   65.4974 H   0  0  0  0  0  0  0  0  0  0  0  0
    7.7271   70.6556   67.0362 H   0  0  0  0  0  0  0  0  0  0  0  0
    8.0594   70.8801   69.4962 H   0  0  0  0  0  0  0  0  0  0  0  0
    6.1128   70.7307   71.0460 H   0  0  0  0  0  0  0  0  0  0  0  0
    3.8196   70.3517   70.1312 H   0  0  0  0  0  0  0  0  0  0  0  0
  2  1  2  0
  3  2  1  0
  4  2  1  0
  5  4  2  0
  6  5  1  0
  7  6  2  0
  8  7  1  0
  9  8  2  0
 10  9  1  0
 11 10  2  0
 11  6  1  0
 12 10  1  0
 13 12  1  0
 14 12  1  0
 15 12  1  0
 16  8  1  0
 17 16  1  0
 18 16  1  0
 19 16  1  0
 20  9  1  0
 21  3  1  0
 22 21  1  0
 23 22  1  0
 24 23  1  0
 25 24  1  0
 26 25  1  0
 27 26  1  0
 28 27  1  0
 28 23  1  0
 29 26  1  0
 30 29  1  0
 31 30  2  0
 32 31  1  0
 33 32  2  0
 34 33  1  0
 35 30  1  0
 35 34  2  0
 36 35  1  0
  3 37  1  0
  4 38  1  0
  5 39  1  0
  7 40  1  0
 11 41  1  0
 13 42  1  0
 13 43  1  0
 13 44  1  0
 14 45  1  0
 14 46  1  0
 14 47  1  0
 15 48  1  0
 15 49  1  0
 15 50  1  0
 17 51  1  0
 17 52  1  0
 17 53  1  0
 18 54  1  0
 18 55  1  0
 18 56  1  0
 19 57  1  0
 19 58  1  0
 19 59  1  0
 20 60  1  0
 21 61  1  0
 21 62  1  0
 22 63  1  0
 22 64  1  0
 23 65  1  0
 24 66  1  0
 24 67  1  0
 25 68  1  0
 25 69  1  0
 26 70  1  0
 27 71  1  0
 27 72  1  0
 28 73  1  0
 28 74  1  0
 29 75  1  0
 29 76  1  0
 31 77  1  0
 32 78  1  0
 33 79  1  0
 34 80  1  0
M  CHG  1  26   1
M  END
>  <score>  (8) 
-9.586

$$$$
=
     RDKit          3D

 80 82  0  0  0  0  0  0  0  0999 V2000
   -2.4320   67.0140   68.3550 O   0  0  0  0  0  0  0  0  0  0  0  0
   -1.2290   66.8410   68.5070 C   0  0  0  0  0  0  0  0  0  0  0  0
   -0.2630   67.3510   67.6730 N   0  0  0  0  0  0  0  0  0  0  0  0
   -0.7350   65.9940   69.6190 C   0  0  0  0  0  0  0  0  0  0  0  0
    0.3560   65.2150   69.5410 C   0  0  0  0  0  0  0  0  0  0  0  0
    0.8520   64.4190   70.6730 C   0  0  0  0  0  0  0  0  0  0  0  0
    1.8740   63.4900   70.4510 C   0  0  0  0  0  0  0  0  0  0  0  0
    2.4300   62.7180   71.4910 C   0  0  0  0  0  0  0  0  0  0  0  0
    1.8680   62.9070   72.7780 C   0  0  0  0  0  0  0  0  0  0  0  0
    0.8610   63.8650   73.0600 C   0  0  0  0  0  0  0  0  0  0  0  0
    0.3760   64.6130   71.9730 C   0  0  0  0  0  0  0  0  0  0  0  0
    0.2990   64.0890   74.4880 C   0  0  0  0  0  0  0  0  0  0  0  0
    1.3920   64.1170   75.5910 C   0  0  0  0  0  0  0  0  0  0  0  0
   -0.4280   65.4490   74.5760 C   0  0  0  0  0  0  0  0  0  0  0  0
   -0.6660   62.9470   74.8780 C   0  0  0  0  0  0  0  0  0  0  0  0
    3.5930   61.7380   71.1840 C   0  0  0  0  0  0  0  0  0  0  0  0
    4.2520   61.9890   69.7990 C   0  0  0  0  0  0  0  0  0  0  0  0
    3.0530   60.2940   71.1630 C   0  0  0  0  0  0  0  0  0  0  0  0
    4.7510   61.8520   72.2040 C   0  0  0  0  0  0  0  0  0  0  0  0
    2.2880   62.1380   73.8270 O   0  0  0  0  0  0  0  0  0  0  0  0
   -0.6110   68.0310   66.4430 C   0  0  0  0  0  0  0  0  0  0  0  0
    0.3300   67.7230   65.2680 C   0  0  0  0  0  0  0  0  0  0  0  0
    1.7240   67.2010   65.6830 C   0  0  0  0  0  0  0  0  0  0  0  0
    2.2240   67.8930   66.9560 C   0  0  0  0  0  0  0  0  0  0  0  0
    2.5990   69.3490   66.7430 C   0  0  0  0  0  0  0  0  0  0  0  0
    3.5640   69.5330   65.6010 N   0  0  0  0  0  4  0  0  0  0  0  0
    3.2010   68.7980   64.3350 C   0  0  0  0  0  0  0  0  0  0  0  0
    2.7810   67.3550   64.5840 C   0  0  0  0  0  0  0  0  0  0  0  0
    5.0390   69.5300   65.9670 C   0  0  0  0  0  0  0  0  0  0  0  0
    5.4390   70.0040   67.3290 C   0  0  0  0  0  0  0  0  0  0  0  0
    4.4900   70.2380   68.3350 C   0  0  0  0  0  0  0  0  0  0  0  0
    4.8920   70.7030   69.5900 C   0  0  0  0  0  0  0  0  0  0  0  0
    6.2390   70.9480   69.8510 C   0  0  0  0  0  0  0  0  0  0  0  0
    7.1900   70.7340   68.8560 C   0  0  0  0  0  0  0  0  0  0  0  0
    6.7820   70.2720   67.6100 C   0  0  0  0  0  0  0  0  0  0  0  0
    7.7040   70.0620   66.6610 F   0  0  0  0  0  0  0  0  0  0  0  0
    0.7294   67.2473   67.9283 H   0  0  0  0  0  0  0  0  0  0  0  0
   -1.2961   66.0043   70.5651 H   0  0  0  0  0  0  0  0  0  0  0  0
    0.9029   65.1705   68.5876 H   0  0  0  0  0  0  0  0  0  0  0  0
    2.2573   63.3572   69.4285 H   0  0  0  0  0  0  0  0  0  0  0  0
   -0.3999   65.3723   72.1504 H   0  0  0  0  0  0  0  0  0  0  0  0
    0.9137   64.1047   76.5815 H   0  0  0  0  0  0  0  0  0  0  0  0
    2.0412   63.2352   75.4864 H   0  0  0  0  0  0  0  0  0  0  0  0
    1.9952   65.0309   75.4864 H   0  0  0  0  0  0  0  0  0  0  0  0
   -0.5727   65.7197   75.6323 H   0  0  0  0  0  0  0  0  0  0  0  0
    0.1776   66.2213   74.0792 H   0  0  0  0  0  0  0  0  0  0  0  0
   -1.4066   65.3745   74.0792 H   0  0  0  0  0  0  0  0  0  0  0  0
   -0.7260   62.8759   75.9741 H   0  0  0  0  0  0  0  0  0  0  0  0
   -1.6655   63.1557   74.4688 H   0  0  0  0  0  0  0  0  0  0  0  0
   -0.2935   61.9963   74.4688 H   0  0  0  0  0  0  0  0  0  0  0  0
    5.2711   62.3772   69.9428 H   0  0  0  0  0  0  0  0  0  0  0  0
    4.2953   61.0444   69.2370 H   0  0  0  0  0  0  0  0  0  0  0  0
    3.6560   62.7231   69.2370 H   0  0  0  0  0  0  0  0  0  0  0  0
    2.9196   59.9374   72.1950 H   0  0  0  0  0  0  0  0  0  0  0  0
    2.0858   60.2718   70.6395 H   0  0  0  0  0  0  0  0  0  0  0  0
    3.7683   59.6426   70.6395 H   0  0  0  0  0  0  0  0  0  0  0  0
    4.3451   61.8120   73.2256 H   0  0  0  0  0  0  0  0  0  0  0  0
    5.4536   61.0187   72.0558 H   0  0  0  0  0  0  0  0  0  0  0  0
    5.2776   62.8063   72.0558 H   0  0  0  0  0  0  0  0  0  0  0  0
    1.8953   62.2702   74.7261 H   0  0  0  0  0  0  0  0  0  0  0  0
   -1.6297   67.7295   66.1579 H   0  0  0  0  0  0  0  0  0  0  0  0
   -0.5272   69.1096   66.6422 H   0  0  0  0  0  0  0  0  0  0  0  0
   -0.1482   66.9604   64.6357 H   0  0  0  0  0  0  0  0  0  0  0  0
    0.4962   68.6750   64.7426 H   0  0  0  0  0  0  0  0  0  0  0  0
    1.5865   66.1258   65.8705 H   0  0  0  0  0  0  0  0  0  0  0  0
    1.4286   67.8451   67.7144 H   0  0  0  0  0  0  0  0  0  0  0  0
    3.1353   67.3662   67.2756 H   0  0  0  0  0  0  0  0  0  0  0  0
    1.6845   69.9214   66.5283 H   0  0  0  0  0  0  0  0  0  0  0  0
    3.0923   69.7055   67.6593 H   0  0  0  0  0  0  0  0  0  0  0  0
    3.4199   70.5198   65.3435 H   0  0  0  0  0  0  0  0  0  0  0  0
    2.3676   69.3268   63.8494 H   0  0  0  0  0  0  0  0  0  0  0  0
    4.0985   68.7744   63.6994 H   0  0  0  0  0  0  0  0  0  0  0  0
    2.3712   66.9464   63.6485 H   0  0  0  0  0  0  0  0  0  0  0  0
    3.6769   66.8136   64.9220 H   0  0  0  0  0  0  0  0  0  0  0  0
    5.3963   68.4946   65.8659 H   0  0  0  0  0  0  0  0  0  0  0  0
    5.4868   70.2667   65.2839 H   0  0  0  0  0  0  0  0  0  0  0  0
    3.4240   70.0546   68.1351 H   0  0  0  0  0  0  0  0  0  0  0  0
    4.1418   70.8765   70.3756 H   0  0  0  0  0  0  0  0  0  0  0  0
    6.5508   71.3100   70.8418 H   0  0  0  0  0  0  0  0  0  0  0  0
    8.2543   70.9288   69.0544 H   0  0  0  0  0  0  0  0  0  0  0  0
  2  1  2  0
  3  2  1  0
  4  2  1  0
  5  4  2  0
  6  5  1  0
  7  6  2  0
  8  7  1  0
  9  8  2  0
 10  9  1  0
 11 10  2  0
 11  6  1  0
 12 10  1  0
 13 12  1  0
 14 12  1  0
 15 12  1  0
 16  8  1  0
 17 16  1  0
 18 16  1  0
 19 16  1  0
 20  9  1  0
 21  3  1  0
 22 21  1  0
 23 22  1  0
 24 23  1  0
 25 24  1  0
 26 25  1  0
 27 26  1  0
 28 27  1  0
 28 23  1  0
 29 26  1  0
 30 29  1  0
 31 30  2  0
 32 31  1  0
 33 32  2  0
 34 33  1  0
 35 30  1  0
 35 34  2  0
 36 35  1  0
  3 37  1  0
  4 38  1  0
  5 39  1  0
  7 40  1  0
 11 41  1  0
 13 42  1  0
 13 43  1  0
 13 44  1  0
 14 45  1  0
 14 46  1  0
 14 47  1  0
 15 48  1  0
 15 49  1  0
 15 50  1  0
 17 51  1  0
 17 52  1  0
 17 53  1  0
 18 54  1  0
 18 55  1  0
 18 56  1  0
 19 57  1  0
 19 58  1  0
 19 59  1  0
 20 60  1  0
 21 61  1  0
 21 62  1  0
 22 63  1  0
 22 64  1  0
 23 65  1  0
 24 66  1  0
 24 67  1  0
 25 68  1  0
 25 69  1  0
 26 70  1  0
 27 71  1  0
 27 72  1  0
 28 73  1  0
 28 74  1  0
 29 75  1  0
 29 76  1  0
 31 77  1  0
 32 78  1  0
 33 79  1  0
 34 80  1  0
M  CHG  1  26   1
M  END
>  <score>  (9) 
-9.228

$$$$
