=
     RDKit          3D

 20 20  0  0  0  0  0  0  0  0999 V2000
    5.1140   69.7870   66.7860 C   0  0  0  0  0  0  0  0  0  0  0  0
    5.4900   69.6780   65.4400 C   0  0  0  0  0  0  0  0  0  0  0  0
    4.5460   69.3630   64.4600 C   0  0  0  0  0  0  0  0  0  0  0  0
    3.2230   69.1560   64.8220 C   0  0  0  0  0  0  0  0  0  0  0  0
    2.8300   69.2590   66.1500 C   0  0  0  0  0  0  0  0  0  0  0  0
    3.7770   69.5740   67.1310 C   0  0  0  0  0  0  0  0  0  0  0  0
    7.5670   71.2970   69.2230 C   0  0  0  0  0  0  0  0  0  0  0  0
    6.3980   71.3450   68.2690 C   0  0  0  0  0  0  0  0  0  0  0  0
    5.8200   72.4020   68.0410 O   0  0  0  0  0  0  0  0  0  0  0  0
    6.1260   70.1080   67.7130 N   0  0  0  0  0  0  0  0  0  0  0  0
    2.3330   68.8500   63.8370 O   0  0  0  0  0  0  0  0  0  0  0  0
    6.5390   69.8422   65.1527 H   0  0  0  0  0  0  0  0  0  0  0  0
    4.8502   69.2795   63.4062 H   0  0  0  0  0  0  0  0  0  0  0  0
    1.7790   69.0937   66.4295 H   0  0  0  0  0  0  0  0  0  0  0  0
    3.4660   69.6546   68.1830 H   0  0  0  0  0  0  0  0  0  0  0  0
    7.1961   71.3122   70.2585 H   0  0  0  0  0  0  0  0  0  0  0  0
    8.1415   70.3745   69.0528 H   0  0  0  0  0  0  0  0  0  0  0  0
    8.2152   72.1693   69.0528 H   0  0  0  0  0  0  0  0  0  0  0  0
    6.7335   69.3314   68.0110 H   0  0  0  0  0  0  0  0  0  0  0  0
    1.3809   68.6960   64.0605 H   0  0  0  0  0  0  0  0  0  0  0  0
  2  1  2  0
  3  2  1  0
  4  3  2  0
  5  4  1  0
  6  5  2  0
  6  1  1  0
  8  7  1  0
  9  8  2  0
 10  1  1  0
 10  8  1  0
 11  4  1  0
  2 12  1  0
  3 13  1  0
  5 14  1  0
  6 15  1  0
  7 16  1  0
  7 17  1  0
  7 18  1  0
 10 19  1  0
 11 20  1  0
M  END
>  <score>  (1) 
-7.104

$$$$
=
     RDKit          3D

 20 20  0  0  0  0  0  0  0  0999 V2000
    5.0600   69.7720   66.0730 C   0  0  0  0  0  0  0  0  0  0  0  0
    5.9170   70.4290   66.9660 C   0  0  0  0  0  0  0  0  0  0  0  0
    5.4790   70.7840   68.2450 C   0  0  0  0  0  0  0  0  0  0  0  0
    4.1820   70.4810   68.6340 C   0  0  0  0  0  0  0  0  0  0  0  0
    3.3160   69.8300   67.7640 C   0  0  0  0  0  0  0  0  0  0  0  0
    3.7570   69.4760   66.4840 C   0  0  0  0  0  0  0  0  0  0  0  0
    5.7770   68.8660   62.4820 C   0  0  0  0  0  0  0  0  0  0  0  0
    4.8700   69.1700   63.6490 C   0  0  0  0  0  0  0  0  0  0  0  0
    3.6520   69.1280   63.5210 O   0  0  0  0  0  0  0  0  0  0  0  0
    5.5790   69.4490   64.8030 N   0  0  0  0  0  0  0  0  0  0  0  0
    3.7920   70.8430   69.8880 O   0  0  0  0  0  0  0  0  0  0  0  0
    6.9454   70.6679   66.6572 H   0  0  0  0  0  0  0  0  0  0  0  0
    6.1584   71.3005   68.9390 H   0  0  0  0  0  0  0  0  0  0  0  0
    2.2891   69.5941   68.0798 H   0  0  0  0  0  0  0  0  0  0  0  0
    3.0721   68.9601   65.7949 H   0  0  0  0  0  0  0  0  0  0  0  0
    6.7579   68.5372   62.8559 H   0  0  0  0  0  0  0  0  0  0  0  0
    5.3317   68.0680   61.8697 H   0  0  0  0  0  0  0  0  0  0  0  0
    5.9026   69.7712   61.8697 H   0  0  0  0  0  0  0  0  0  0  0  0
    6.6056   69.4171   64.7255 H   0  0  0  0  0  0  0  0  0  0  0  0
    2.8735   70.6422   70.1980 H   0  0  0  0  0  0  0  0  0  0  0  0
  2  1  2  0
  3  2  1  0
  4  3  2  0
  5  4  1  0
  6  5  2  0
  6  1  1  0
  8  7  1  0
  9  8  2  0
 10  1  1  0
 10  8  1  0
 11  4  1  0
  2 12  1  0
  3 13  1  0
  5 14  1  0
  6 15  1  0
  7 16  1  0
  7 17  1  0
  7 18  1  0
 10 19  1  0
 11 20  1  0
M  END
>  <score>  (2) 
-6.579

$$$$
=
     RDKit          3D

 20 20  0  0  0  0  0  0  0  0999 V2000
    2.8510   69.2720   66.5050 C   0  0  0  0  0  0  0  0  0  0  0  0
    3.3870   69.7650   67.7030 C   0  0  0  0  0  0  0  0  0  0  0  0
    4.7320   70.1350   67.7830 C   0  0  0  0  0  0  0  0  0  0  0  0
    5.5450   70.0160   66.6650 C   0  0  0  0  0  0  0  0  0  0  0  0
    5.0330   69.5290   65.4680 C   0  0  0  0  0  0  0  0  0  0  0  0
    3.6860   69.1580   65.3900 C   0  0  0  0  0  0  0  0  0  0  0  0
   -0.5770   67.7220   66.7790 C   0  0  0  0  0  0  0  0  0  0  0  0
    0.9240   67.7290   66.9330 C   0  0  0  0  0  0  0  0  0  0  0  0
    1.5140   66.7470   67.3670 O   0  0  0  0  0  0  0  0  0  0  0  0
    1.4870   68.9200   66.5080 N   0  0  0  0  0  0  0  0  0  0  0  0
    6.8500   70.3870   66.7830 O   0  0  0  0  0  0  0  0  0  0  0  0
    2.7422   69.8615   68.5889 H   0  0  0  0  0  0  0  0  0  0  0  0
    5.1443   70.5188   68.7278 H   0  0  0  0  0  0  0  0  0  0  0  0
    5.6837   69.4357   64.5861 H   0  0  0  0  0  0  0  0  0  0  0  0
    3.2806   68.7732   64.4426 H   0  0  0  0  0  0  0  0  0  0  0  0
   -1.0476   67.7198   67.7733 H   0  0  0  0  0  0  0  0  0  0  0  0
   -0.8930   68.6187   66.2257 H   0  0  0  0  0  0  0  0  0  0  0  0
   -0.8846   66.8224   66.2257 H   0  0  0  0  0  0  0  0  0  0  0  0
    0.8325   69.6316   66.1526 H   0  0  0  0  0  0  0  0  0  0  0  0
    7.4575   70.3148   66.0046 H   0  0  0  0  0  0  0  0  0  0  0  0
  2  1  2  0
  3  2  1  0
  4  3  2  0
  5  4  1  0
  6  5  2  0
  6  1  1  0
  8  7  1  0
  9  8  2  0
 10  1  1  0
 10  8  1  0
 11  4  1  0
  2 12  1  0
  3 13  1  0
  5 14  1  0
  6 15  1  0
  7 16  1  0
  7 17  1  0
  7 18  1  0
 10 19  1  0
 11 20  1  0
M  END
>  <score>  (3) 
-6.447

$$$$
=
     RDKit          3D

 20 20  0  0  0  0  0  0  0  0999 V2000
    2.7950   68.8630   65.0400 C   0  0  0  0  0  0  0  0  0  0  0  0
    2.4490   68.6310   63.7010 C   0  0  0  0  0  0  0  0  0  0  0  0
    3.4030   68.7530   62.6870 C   0  0  0  0  0  0  0  0  0  0  0  0
    4.7050   69.1060   63.0090 C   0  0  0  0  0  0  0  0  0  0  0  0
    5.0680   69.3400   64.3300 C   0  0  0  0  0  0  0  0  0  0  0  0
    4.1110   69.2180   65.3430 C   0  0  0  0  0  0  0  0  0  0  0  0
   -0.0210   67.8420   67.3330 C   0  0  0  0  0  0  0  0  0  0  0  0
    0.9610   67.6190   66.2090 C   0  0  0  0  0  0  0  0  0  0  0  0
    0.9620   66.5690   65.5790 O   0  0  0  0  0  0  0  0  0  0  0  0
    1.7740   68.7190   66.0010 N   0  0  0  0  0  0  0  0  0  0  0  0
    5.6060   69.2140   61.9930 O   0  0  0  0  0  0  0  0  0  0  0  0
    1.4164   68.3502   63.4462 H   0  0  0  0  0  0  0  0  0  0  0  0
    3.1227   68.5700   61.6392 H   0  0  0  0  0  0  0  0  0  0  0  0
    6.1026   69.6197   64.5777 H   0  0  0  0  0  0  0  0  0  0  0  0
    4.3980   69.4036   66.3886 H   0  0  0  0  0  0  0  0  0  0  0  0
    0.4937   67.7251   68.2981 H   0  0  0  0  0  0  0  0  0  0  0  0
   -0.4373   68.8576   67.2601 H   0  0  0  0  0  0  0  0  0  0  0  0
   -0.8351   67.1059   67.2601 H   0  0  0  0  0  0  0  0  0  0  0  0
    1.6146   69.5264   66.6203 H   0  0  0  0  0  0  0  0  0  0  0  0
    6.5439   69.4642   62.1876 H   0  0  0  0  0  0  0  0  0  0  0  0
  2  1  2  0
  3  2  1  0
  4  3  2  0
  5  4  1  0
  6  5  2  0
  6  1  1  0
  8  7  1  0
  9  8  2  0
 10  1  1  0
 10  8  1  0
 11  4  1  0
  2 12  1  0
  3 13  1  0
  5 14  1  0
  6 15  1  0
  7 16  1  0
  7 17  1  0
  7 18  1  0
 10 19  1  0
 11 20  1  0
M  END
>  <score>  (4) 
-5.962

$$$$
=
     RDKit          3D

 20 20  0  0  0  0  0  0  0  0999 V2000
    2.7950   63.4310   70.0050 C   0  0  0  0  0  0  0  0  0  0  0  0
    4.0050   63.6460   70.6800 C   0  0  0  0  0  0  0  0  0  0  0  0
    4.8970   62.5920   70.8960 C   0  0  0  0  0  0  0  0  0  0  0  0
    4.5830   61.3210   70.4380 C   0  0  0  0  0  0  0  0  0  0  0  0
    3.3890   61.0870   69.7670 C   0  0  0  0  0  0  0  0  0  0  0  0
    2.4960   62.1430   69.5520 C   0  0  0  0  0  0  0  0  0  0  0  0
    0.2220   66.1870   70.1160 C   0  0  0  0  0  0  0  0  0  0  0  0
    0.8940   64.9380   70.6310 C   0  0  0  0  0  0  0  0  0  0  0  0
    0.4790   64.3730   71.6360 O   0  0  0  0  0  0  0  0  0  0  0  0
    1.9510   64.5460   69.8290 N   0  0  0  0  0  0  0  0  0  0  0  0
    5.4780   60.3210   70.6680 O   0  0  0  0  0  0  0  0  0  0  0  0
    4.2546   64.6539   71.0430 H   0  0  0  0  0  0  0  0  0  0  0  0
    5.8439   62.7696   71.4269 H   0  0  0  0  0  0  0  0  0  0  0  0
    3.1467   60.0764   69.4064 H   0  0  0  0  0  0  0  0  0  0  0  0
    1.5503   61.9576   69.0217 H   0  0  0  0  0  0  0  0  0  0  0  0
   -0.1090   66.8022   70.9657 H   0  0  0  0  0  0  0  0  0  0  0  0
    0.9335   66.7602   69.5034 H   0  0  0  0  0  0  0  0  0  0  0  0
   -0.6484   65.9091   69.5034 H   0  0  0  0  0  0  0  0  0  0  0  0
    2.1435   65.1376   69.0081 H   0  0  0  0  0  0  0  0  0  0  0  0
    5.2849   59.4021   70.3544 H   0  0  0  0  0  0  0  0  0  0  0  0
  2  1  2  0
  3  2  1  0
  4  3  2  0
  5  4  1  0
  6  5  2  0
  6  1  1  0
  8  7  1  0
  9  8  2  0
 10  1  1  0
 10  8  1  0
 11  4  1  0
  2 12  1  0
  3 13  1  0
  5 14  1  0
  6 15  1  0
  7 16  1  0
  7 17  1  0
  7 18  1  0
 10 19  1  0
 11 20  1  0
M  END
>  <score>  (5) 
-5.878

$$$$
=
     RDKit          3D

 20 20  0  0  0  0  0  0  0  0999 V2000
    4.0160   69.0870   65.1120 C   0  0  0  0  0  0  0  0  0  0  0  0
    2.8900   68.7590   65.8800 C   0  0  0  0  0  0  0  0  0  0  0  0
    1.6840   68.4120   65.2650 C   0  0  0  0  0  0  0  0  0  0  0  0
    1.6020   68.3900   63.8800 C   0  0  0  0  0  0  0  0  0  0  0  0
    2.7060   68.7120   63.1010 C   0  0  0  0  0  0  0  0  0  0  0  0
    3.9120   69.0600   63.7190 C   0  0  0  0  0  0  0  0  0  0  0  0
    6.7290   70.2980   67.4360 C   0  0  0  0  0  0  0  0  0  0  0  0
    5.2960   70.1250   66.9990 C   0  0  0  0  0  0  0  0  0  0  0  0
    4.3790   70.6000   67.6590 O   0  0  0  0  0  0  0  0  0  0  0  0
    5.1930   69.4260   65.8090 N   0  0  0  0  0  0  0  0  0  0  0  0
    0.4090   68.0460   63.3180 O   0  0  0  0  0  0  0  0  0  0  0  0
    2.9564   68.7749   66.9779 H   0  0  0  0  0  0  0  0  0  0  0  0
    0.8049   68.1578   65.8753 H   0  0  0  0  0  0  0  0  0  0  0  0
    2.6325   68.6935   62.0036 H   0  0  0  0  0  0  0  0  0  0  0  0
    4.7865   69.3147   63.1023 H   0  0  0  0  0  0  0  0  0  0  0  0
    6.7791   70.3040   68.5348 H   0  0  0  0  0  0  0  0  0  0  0  0
    7.3342   69.4664   67.0459 H   0  0  0  0  0  0  0  0  0  0  0  0
    7.1189   71.2497   67.0459 H   0  0  0  0  0  0  0  0  0  0  0  0
    6.0790   69.1179   65.3836 H   0  0  0  0  0  0  0  0  0  0  0  0
    0.3151   68.0201   62.3328 H   0  0  0  0  0  0  0  0  0  0  0  0
  2  1  2  0
  3  2  1  0
  4  3  2  0
  5  4  1  0
  6  5  2  0
  6  1  1  0
  8  7  1  0
  9  8  2  0
 10  1  1  0
 10  8  1  0
 11  4  1  0
  2 12  1  0
  3 13  1  0
  5 14  1  0
  6 15  1  0
  7 16  1  0
  7 17  1  0
  7 18  1  0
 10 19  1  0
 11 20  1  0
M  END
>  <score>  (6) 
-5.735

$$$$
=
     RDKit          3D

 20 20  0  0  0  0  0  0  0  0999 V2000
    1.5950   67.9870   66.4430 C   0  0  0  0  0  0  0  0  0  0  0  0
    2.1150   67.6390   65.1880 C   0  0  0  0  0  0  0  0  0  0  0  0
    3.2920   68.2270   64.7160 C   0  0  0  0  0  0  0  0  0  0  0  0
    3.9520   69.1640   65.4980 C   0  0  0  0  0  0  0  0  0  0  0  0
    3.4530   69.5230   66.7440 C   0  0  0  0  0  0  0  0  0  0  0  0
    2.2740   68.9330   67.2140 C   0  0  0  0  0  0  0  0  0  0  0  0
   -1.8980   66.8830   67.3440 C   0  0  0  0  0  0  0  0  0  0  0  0
   -0.8760   67.8710   66.8360 C   0  0  0  0  0  0  0  0  0  0  0  0
   -1.2120   68.9990   66.4970 O   0  0  0  0  0  0  0  0  0  0  0  0
    0.4050   67.3480   66.8440 N   0  0  0  0  0  0  0  0  0  0  0  0
    5.0950   69.7150   65.0030 O   0  0  0  0  0  0  0  0  0  0  0  0
    1.5914   66.8958   64.5688 H   0  0  0  0  0  0  0  0  0  0  0  0
    3.6927   67.9484   63.7302 H   0  0  0  0  0  0  0  0  0  0  0  0
    3.9818   70.2670   67.3579 H   0  0  0  0  0  0  0  0  0  0  0  0
    1.8784   69.2172   68.2003 H   0  0  0  0  0  0  0  0  0  0  0  0
   -1.8953   66.8856   68.4440 H   0  0  0  0  0  0  0  0  0  0  0  0
   -2.8960   67.1675   66.9791 H   0  0  0  0  0  0  0  0  0  0  0  0
   -1.6475   65.8760   66.9791 H   0  0  0  0  0  0  0  0  0  0  0  0
    0.4996   66.3797   67.1822 H   0  0  0  0  0  0  0  0  0  0  0  0
    5.5912   70.3868   65.5346 H   0  0  0  0  0  0  0  0  0  0  0  0
  2  1  2  0
  3  2  1  0
  4  3  2  0
  5  4  1  0
  6  5  2  0
  6  1  1  0
  8  7  1  0
  9  8  2  0
 10  1  1  0
 10  8  1  0
 11  4  1  0
  2 12  1  0
  3 13  1  0
  5 14  1  0
  6 15  1  0
  7 16  1  0
  7 17  1  0
  7 18  1  0
 10 19  1  0
 11 20  1  0
M  END
>  <score>  (7) 
-5.672

$$$$
=
     RDKit          3D

 20 20  0  0  0  0  0  0  0  0999 V2000
    0.7840   68.6220   66.8210 C   0  0  0  0  0  0  0  0  0  0  0  0
    0.5820   67.6290   67.7890 C   0  0  0  0  0  0  0  0  0  0  0  0
   -0.7020   67.1470   68.0580 C   0  0  0  0  0  0  0  0  0  0  0  0
   -1.7860   67.6560   67.3590 C   0  0  0  0  0  0  0  0  0  0  0  0
   -1.6080   68.6410   66.3960 C   0  0  0  0  0  0  0  0  0  0  0  0
   -0.3210   69.1230   66.1280 C   0  0  0  0  0  0  0  0  0  0  0  0
    4.2720   69.4440   65.6430 C   0  0  0  0  0  0  0  0  0  0  0  0
    2.9050   68.8230   65.5020 C   0  0  0  0  0  0  0  0  0  0  0  0
    2.6110   68.1780   64.5020 O   0  0  0  0  0  0  0  0  0  0  0  0
    2.1090   69.0540   66.6100 N   0  0  0  0  0  0  0  0  0  0  0  0
   -3.0210   67.1610   67.6500 O   0  0  0  0  0  0  0  0  0  0  0  0
    1.4424   67.2250   68.3425 H   0  0  0  0  0  0  0  0  0  0  0  0
   -0.8518   66.3681   68.8201 H   0  0  0  0  0  0  0  0  0  0  0  0
   -2.4735   69.0403   65.8469 H   0  0  0  0  0  0  0  0  0  0  0  0
   -0.1786   69.9028   65.3653 H   0  0  0  0  0  0  0  0  0  0  0  0
    4.5161   69.5549   66.7098 H   0  0  0  0  0  0  0  0  0  0  0  0
    5.0200   68.7973   65.1610 H   0  0  0  0  0  0  0  0  0  0  0  0
    4.2770   70.4328   65.1610 H   0  0  0  0  0  0  0  0  0  0  0  0
    2.5341   69.6058   67.3688 H   0  0  0  0  0  0  0  0  0  0  0  0
   -3.8167   67.5021   67.1698 H   0  0  0  0  0  0  0  0  0  0  0  0
  2  1  2  0
  3  2  1  0
  4  3  2  0
  5  4  1  0
  6  5  2  0
  6  1  1  0
  8  7  1  0
  9  8  2  0
 10  1  1  0
 10  8  1  0
 11  4  1  0
  2 12  1  0
  3 13  1  0
  5 14  1  0
  6 15  1  0
  7 16  1  0
  7 17  1  0
  7 18  1  0
 10 19  1  0
 11 20  1  0
M  END
>  <score>  (8) 
-5.623

$$$$
=
     RDKit          3D

 20 20  0  0  0  0  0  0  0  0999 V2000
    4.0790   69.3370   64.9420 C   0  0  0  0  0  0  0  0  0  0  0  0
    2.8820   68.8640   64.3860 C   0  0  0  0  0  0  0  0  0  0  0  0
    2.8130   68.5170   63.0340 C   0  0  0  0  0  0  0  0  0  0  0  0
    3.9400   68.6390   62.2360 C   0  0  0  0  0  0  0  0  0  0  0  0
    5.1360   69.1050   62.7680 C   0  0  0  0  0  0  0  0  0  0  0  0
    5.2040   69.4530   64.1210 C   0  0  0  0  0  0  0  0  0  0  0  0
    3.3770   69.9960   68.5900 C   0  0  0  0  0  0  0  0  0  0  0  0
    3.0120   69.5330   67.2000 C   0  0  0  0  0  0  0  0  0  0  0  0
    1.8840   69.1240   66.9540 O   0  0  0  0  0  0  0  0  0  0  0  0
    4.0650   69.6660   66.3130 N   0  0  0  0  0  0  0  0  0  0  0  0
    3.8330   68.2910   60.9230 O   0  0  0  0  0  0  0  0  0  0  0  0
    1.9886   68.7651   65.0200 H   0  0  0  0  0  0  0  0  0  0  0  0
    1.8692   68.1489   62.6052 H   0  0  0  0  0  0  0  0  0  0  0  0
    6.0255   69.1998   62.1279 H   0  0  0  0  0  0  0  0  0  0  0  0
    6.1510   69.8211   64.5425 H   0  0  0  0  0  0  0  0  0  0  0  0
    2.8746   69.3586   69.3325 H   0  0  0  0  0  0  0  0  0  0  0  0
    4.4665   69.9273   68.7251 H   0  0  0  0  0  0  0  0  0  0  0  0
    3.0559   71.0394   68.7251 H   0  0  0  0  0  0  0  0  0  0  0  0
    4.9397   70.0496   66.6985 H   0  0  0  0  0  0  0  0  0  0  0  0
    4.6187   68.3661   60.3254 H   0  0  0  0  0  0  0  0  0  0  0  0
  2  1  2  0
  3  2  1  0
  4  3  2  0
  5  4  1  0
  6  5  2  0
  6  1  1  0
  8  7  1  0
  9  8  2  0
 10  1  1  0
 10  8  1  0
 11  4  1  0
  2 12  1  0
  3 13  1  0
  5 14  1  0
  6 15  1  0
  7 16  1  0
  7 17  1  0
  7 18  1  0
 10 19  1  0
 11 20  1  0
M  END
>  <score>  (9) 
-5.621

$$$$
