=
     RDKit          3D

 56 59  0  0  0  0  0  0  0  0999 V2000
    1.1070   68.8380   65.0630 C   0  0  0  0  0  0  0  0  0  0  0  0
    0.5080   68.9780   66.2650 C   0  0  0  0  0  0  0  0  0  0  0  0
   -0.9820   68.9400   66.4930 C   0  0  0  0  0  0  0  0  0  0  0  0
    1.2750   69.2180   67.3820 N   0  0  0  0  0  0  0  0  0  0  0  0
    2.6340   69.5290   67.3520 C   0  0  0  0  0  0  0  0  0  0  0  0
    3.3460   69.4460   66.1520 C   0  0  0  0  0  0  0  0  0  0  0  0
    2.6150   68.9500   64.9020 C   0  0  1  0  0  0  0  0  0  0  0  0
    4.7010   69.8270   66.1640 C   0  0  0  0  0  0  0  0  0  0  0  0
    5.3020   70.1820   67.3860 C   0  0  0  0  0  0  0  0  0  0  0  0
    4.5060   70.1990   68.5340 C   0  0  0  0  0  0  0  0  0  0  0  0
    3.1870   69.8970   68.5210 N   0  0  0  0  0  0  0  0  0  0  0  0
    5.0590   70.6100   69.8740 C   0  0  0  0  0  0  0  0  0  0  0  0
    6.5780   70.5100   69.9560 C   0  0  0  0  0  0  0  0  0  0  0  0
    7.2070   71.1890   68.7480 C   0  0  0  0  0  0  0  0  0  0  0  0
    6.7800   70.4890   67.4580 C   0  0  0  0  0  0  0  0  0  0  0  0
    3.1920   67.6290   64.3760 C   0  0  0  0  0  0  0  0  0  0  0  0
    2.9550   66.4130   65.0350 C   0  0  0  0  0  0  0  0  0  0  0  0
    3.4830   65.2210   64.5320 C   0  0  0  0  0  0  0  0  0  0  0  0
    4.2440   65.2140   63.3630 C   0  0  0  0  0  0  0  0  0  0  0  0
    4.4730   66.4150   62.6920 C   0  0  0  0  0  0  0  0  0  0  0  0
    3.9480   67.6120   63.1930 C   0  0  0  0  0  0  0  0  0  0  0  0
    4.6990   63.9810   62.9830 O   0  0  0  0  0  0  0  0  0  0  0  0
    4.8180   62.9980   64.0040 C   0  0  0  0  0  0  0  0  0  0  0  0
    5.5320   69.6540   65.0320 N   0  0  0  0  0  0  0  0  0  0  0  0
    0.3700   68.6020   63.8020 C   0  0  0  0  0  0  0  0  0  0  0  0
   -0.0050   67.4970   63.4400 O   0  0  0  0  0  0  0  0  0  0  0  0
    0.1140   69.7790   63.1780 O   0  0  0  0  0  0  0  0  0  0  0  0
    1.4670   69.3780   61.2530 C   0  0  0  0  0  0  0  0  0  0  0  0
    0.0690   69.6880   61.7500 C   0  0  0  0  0  0  0  0  0  0  0  0
   -1.1876   68.9348   67.5736 H   0  0  0  0  0  0  0  0  0  0  0  0
   -1.4456   69.8266   66.0359 H   0  0  0  0  0  0  0  0  0  0  0  0
   -1.3998   68.0309   66.0359 H   0  0  0  0  0  0  0  0  0  0  0  0
    0.8145   69.1643   68.3018 H   0  0  0  0  0  0  0  0  0  0  0  0
    2.7930   69.7371   64.1545 H   0  0  0  0  0  0  0  0  0  0  0  0
    4.7668   71.6527   70.0673 H   0  0  0  0  0  0  0  0  0  0  0  0
    4.6461   69.9181   70.6229 H   0  0  0  0  0  0  0  0  0  0  0  0
    6.9271   71.0037   70.8749 H   0  0  0  0  0  0  0  0  0  0  0  0
    6.8713   69.4499   69.9695 H   0  0  0  0  0  0  0  0  0  0  0  0
    6.8833   72.2397   68.7140 H   0  0  0  0  0  0  0  0  0  0  0  0
    8.3018   71.1323   68.8380 H   0  0  0  0  0  0  0  0  0  0  0  0
    7.3343   69.5422   67.3783 H   0  0  0  0  0  0  0  0  0  0  0  0
    7.0022   71.1805   66.6319 H   0  0  0  0  0  0  0  0  0  0  0  0
    2.3497   66.3980   65.9534 H   0  0  0  0  0  0  0  0  0  0  0  0
    3.2962   64.2767   65.0644 H   0  0  0  0  0  0  0  0  0  0  0  0
    5.0677   66.4216   61.7667 H   0  0  0  0  0  0  0  0  0  0  0  0
    4.1303   68.5524   62.6523 H   0  0  0  0  0  0  0  0  0  0  0  0
    4.7592   63.4837   64.9892 H   0  0  0  0  0  0  0  0  0  0  0  0
    4.0018   62.2671   63.9062 H   0  0  0  0  0  0  0  0  0  0  0  0
    5.7851   62.4830   63.9062 H   0  0  0  0  0  0  0  0  0  0  0  0
    6.5202   69.9422   65.0697 H   0  0  0  0  0  0  0  0  0  0  0  0
    5.1488   69.2399   64.1703 H   0  0  0  0  0  0  0  0  0  0  0  0
    2.1372   69.2294   62.1125 H   0  0  0  0  0  0  0  0  0  0  0  0
    1.4448   68.4630   60.6429 H   0  0  0  0  0  0  0  0  0  0  0  0
    1.8336   70.2167   60.6429 H   0  0  0  0  0  0  0  0  0  0  0  0
   -0.2739   70.6434   61.3262 H   0  0  0  0  0  0  0  0  0  0  0  0
   -0.6294   68.8965   61.4407 H   0  0  0  0  0  0  0  0  0  0  0  0
  2  1  2  0
  3  2  1  0
  4  2  1  0
  5  4  1  0
  6  5  2  0
  7  1  1  0
  7  6  1  0
  8  6  1  0
  9  8  2  0
 10  9  1  0
 11 10  2  0
 11  5  1  0
 12 10  1  0
 13 12  1  0
 14 13  1  0
 15  9  1  0
 15 14  1  0
 16  7  1  0
 17 16  2  0
 18 17  1  0
 19 18  2  0
 20 19  1  0
 21 20  2  0
 21 16  1  0
 22 19  1  0
 23 22  1  0
 24  8  1  0
 25  1  1  0
 26 25  2  0
 27 25  1  0
 29 28  1  0
 29 27  1  0
  3 30  1  0
  3 31  1  0
  3 32  1  0
  4 33  1  0
  7 34  1  6
 12 35  1  0
 12 36  1  0
 13 37  1  0
 13 38  1  0
 14 39  1  0
 14 40  1  0
 15 41  1  0
 15 42  1  0
 17 43  1  0
 18 44  1  0
 20 45  1  0
 21 46  1  0
 23 47  1  0
 23 48  1  0
 23 49  1  0
 24 50  1  0
 24 51  1  0
 28 52  1  0
 28 53  1  0
 28 54  1  0
 29 55  1  0
 29 56  1  0
M  END
>  <score>  (1) 
-11.406

$$$$
