=
     RDKit          3D

 36 38  0  0  0  0  0  0  0  0999 V2000
    2.2130   69.2070   66.4810 N   0  0  0  0  0  0  0  0  0  0  0  0
    1.5590   68.7800   65.3380 C   0  0  0  0  0  0  0  0  0  0  0  0
    2.1090   68.6810   64.1200 C   0  0  0  0  0  0  0  0  0  0  0  0
    3.5340   69.0230   63.9740 C   0  0  0  0  0  0  0  0  0  0  0  0
    4.1760   68.9030   62.9360 O   0  0  0  0  0  0  0  0  0  0  0  0
    4.2220   69.4960   65.1860 C   0  0  0  0  0  0  0  0  0  0  0  0
    3.5780   69.5700   66.4070 C   0  0  0  0  0  0  0  0  0  0  0  0
    4.2370   69.9800   67.5170 N   0  0  0  0  0  0  0  0  0  0  0  0
    5.5350   70.3150   67.4170 C   0  0  0  0  0  0  0  0  0  0  0  0
    6.2170   70.2730   66.2600 N   0  0  0  0  0  0  0  0  0  0  0  0
    5.5450   69.8600   65.1650 C   0  0  0  0  0  0  0  0  0  0  0  0
    6.1920   70.7370   68.5470 N   0  0  0  0  0  0  0  0  0  0  0  0
    7.6390   70.8160   68.5480 C   0  0  0  0  0  0  0  0  0  0  0  0
    7.9540   71.0950   70.0160 C   0  0  0  0  0  0  0  0  0  0  0  0
    6.8950   70.2800   70.7440 C   0  0  0  0  0  0  0  0  0  0  0  0
    5.6530   70.4200   69.8590 C   0  0  0  0  0  0  0  0  0  0  0  0
    1.2430   68.2360   62.9630 C   0  0  0  0  0  0  0  0  0  0  0  0
    0.0490   67.9460   63.2710 O   0  0  0  0  0  0  0  0  0  0  0  0
    1.7780   68.3010   61.8210 O   0  0  0  0  0  1  0  0  0  0  0  0
    1.1720   67.8650   68.2590 C   0  0  0  0  0  0  0  0  0  0  0  0
    1.5750   69.2560   67.7950 C   0  0  0  0  0  0  0  0  0  0  0  0
    0.5003   68.4987   65.4378 H   0  0  0  0  0  0  0  0  0  0  0  0
    6.0847   69.8128   64.2077 H   0  0  0  0  0  0  0  0  0  0  0  0
    8.0891   69.8680   68.2181 H   0  0  0  0  0  0  0  0  0  0  0  0
    8.0369   71.5780   67.8617 H   0  0  0  0  0  0  0  0  0  0  0  0
    8.9666   70.7533   70.2766 H   0  0  0  0  0  0  0  0  0  0  0  0
    7.9349   72.1647   70.2717 H   0  0  0  0  0  0  0  0  0  0  0  0
    7.2001   69.2264   70.8272 H   0  0  0  0  0  0  0  0  0  0  0  0
    6.7246   70.6274   71.7737 H   0  0  0  0  0  0  0  0  0  0  0  0
    5.0841   69.4789   69.8314 H   0  0  0  0  0  0  0  0  0  0  0  0
    4.9544   71.1860   70.2268 H   0  0  0  0  0  0  0  0  0  0  0  0
    1.1629   67.8336   69.3585 H   0  0  0  0  0  0  0  0  0  0  0  0
    0.1681   67.6276   67.8771 H   0  0  0  0  0  0  0  0  0  0  0  0
    1.8935   67.1277   67.8771 H   0  0  0  0  0  0  0  0  0  0  0  0
    0.6774   69.8891   67.7354 H   0  0  0  0  0  0  0  0  0  0  0  0
    2.2932   69.6713   68.5173 H   0  0  0  0  0  0  0  0  0  0  0  0
  2  1  1  0
  3  2  2  0
  4  3  1  0
  5  4  2  0
  6  4  1  0
  7  6  2  0
  7  1  1  0
  8  7  1  0
  9  8  2  0
 10  9  1  0
 11  6  1  0
 11 10  2  0
 12  9  1  0
 13 12  1  0
 14 13  1  0
 15 14  1  0
 16 15  1  0
 16 12  1  0
 17  3  1  0
 18 17  2  0
 19 17  1  0
 21 20  1  0
 21  1  1  0
  2 22  1  0
 11 23  1  0
 13 24  1  0
 13 25  1  0
 14 26  1  0
 14 27  1  0
 15 28  1  0
 15 29  1  0
 16 30  1  0
 16 31  1  0
 20 32  1  0
 20 33  1  0
 20 34  1  0
 21 35  1  0
 21 36  1  0
M  CHG  1  19  -1
M  END
>  <score>  (1) 
-8.684

$$$$
=
     RDKit          3D

 36 38  0  0  0  0  0  0  0  0999 V2000
    3.1500   69.0790   64.3140 N   0  0  0  0  0  0  0  0  0  0  0  0
    1.9500   68.8160   63.6760 C   0  0  0  0  0  0  0  0  0  0  0  0
    0.7540   68.7350   64.2740 C   0  0  0  0  0  0  0  0  0  0  0  0
    0.6880   68.9690   65.7260 C   0  0  0  0  0  0  0  0  0  0  0  0
   -0.3480   68.9990   66.3800 O   0  0  0  0  0  0  0  0  0  0  0  0
    1.9680   69.2280   66.4070 C   0  0  0  0  0  0  0  0  0  0  0  0
    3.1610   69.2940   65.7120 C   0  0  0  0  0  0  0  0  0  0  0  0
    4.3240   69.5630   66.3530 N   0  0  0  0  0  0  0  0  0  0  0  0
    4.3040   69.7670   67.6820 C   0  0  0  0  0  0  0  0  0  0  0  0
    3.1800   69.7100   68.4160 N   0  0  0  0  0  0  0  0  0  0  0  0
    2.0310   69.4430   67.7600 C   0  0  0  0  0  0  0  0  0  0  0  0
    5.4890   70.0320   68.3220 N   0  0  0  0  0  0  0  0  0  0  0  0
    5.4730   70.5480   69.6760 C   0  0  0  0  0  0  0  0  0  0  0  0
    6.9390   70.9040   69.9120 C   0  0  0  0  0  0  0  0  0  0  0  0
    7.3820   71.4080   68.5460 C   0  0  0  0  0  0  0  0  0  0  0  0
    6.6340   70.5050   67.5620 C   0  0  0  0  0  0  0  0  0  0  0  0
   -0.4580   68.3970   63.4360 C   0  0  0  0  0  0  0  0  0  0  0  0
   -1.5710   68.7080   63.9560 O   0  0  0  0  0  0  0  0  0  0  0  0
   -0.2190   67.9400   62.2830 O   0  0  0  0  0  1  0  0  0  0  0  0
    4.2870   68.7530   62.1580 C   0  0  0  0  0  0  0  0  0  0  0  0
    4.4230   69.1990   63.6060 C   0  0  0  0  0  0  0  0  0  0  0  0
    1.9811   68.6606   62.5875 H   0  0  0  0  0  0  0  0  0  0  0  0
    1.0976   69.3954   68.3401 H   0  0  0  0  0  0  0  0  0  0  0  0
    4.8304   71.4373   69.7548 H   0  0  0  0  0  0  0  0  0  0  0  0
    5.0710   69.8358   70.4117 H   0  0  0  0  0  0  0  0  0  0  0  0
    7.0390   71.6886   70.6764 H   0  0  0  0  0  0  0  0  0  0  0  0
    7.5398   70.0607   70.2833 H   0  0  0  0  0  0  0  0  0  0  0  0
    7.0968   72.4611   68.4057 H   0  0  0  0  0  0  0  0  0  0  0  0
    8.4732   71.3699   68.4124 H   0  0  0  0  0  0  0  0  0  0  0  0
    6.3091   71.0738   66.6783 H   0  0  0  0  0  0  0  0  0  0  0  0
    7.2588   69.6836   67.1812 H   0  0  0  0  0  0  0  0  0  0  0  0
    3.9663   67.7013   62.1269 H   0  0  0  0  0  0  0  0  0  0  0  0
    3.5391   69.3796   61.6500 H   0  0  0  0  0  0  0  0  0  0  0  0
    5.2573   68.8557   61.6500 H   0  0  0  0  0  0  0  0  0  0  0  0
    5.1736   68.5700   64.1069 H   0  0  0  0  0  0  0  0  0  0  0  0
    4.7328   70.2544   63.6195 H   0  0  0  0  0  0  0  0  0  0  0  0
  2  1  1  0
  3  2  2  0
  4  3  1  0
  5  4  2  0
  6  4  1  0
  7  6  2  0
  7  1  1  0
  8  7  1  0
  9  8  2  0
 10  9  1  0
 11  6  1  0
 11 10  2  0
 12  9  1  0
 13 12  1  0
 14 13  1  0
 15 14  1  0
 16 15  1  0
 16 12  1  0
 17  3  1  0
 18 17  2  0
 19 17  1  0
 21 20  1  0
 21  1  1  0
  2 22  1  0
 11 23  1  0
 13 24  1  0
 13 25  1  0
 14 26  1  0
 14 27  1  0
 15 28  1  0
 15 29  1  0
 16 30  1  0
 16 31  1  0
 20 32  1  0
 20 33  1  0
 20 34  1  0
 21 35  1  0
 21 36  1  0
M  CHG  1  19  -1
M  END
>  <score>  (2) 
-8.569

$$$$
=
     RDKit          3D

 36 38  0  0  0  0  0  0  0  0999 V2000
    3.6780   70.0860   68.2460 N   0  0  0  0  0  0  0  0  0  0  0  0
    4.7590   70.4750   69.0170 C   0  0  0  0  0  0  0  0  0  0  0  0
    6.0260   70.5630   68.5890 C   0  0  0  0  0  0  0  0  0  0  0  0
    6.3030   70.2510   67.1770 C   0  0  0  0  0  0  0  0  0  0  0  0
    7.3990   70.3650   66.6400 O   0  0  0  0  0  0  0  0  0  0  0  0
    5.1540   69.8180   66.3630 C   0  0  0  0  0  0  0  0  0  0  0  0
    3.8760   69.7530   66.8860 C   0  0  0  0  0  0  0  0  0  0  0  0
    2.8280   69.3810   66.1130 N   0  0  0  0  0  0  0  0  0  0  0  0
    3.0460   69.0740   64.8220 C   0  0  0  0  0  0  0  0  0  0  0  0
    4.2640   69.1090   64.2560 N   0  0  0  0  0  0  0  0  0  0  0  0
    5.2960   69.4850   65.0400 C   0  0  0  0  0  0  0  0  0  0  0  0
    1.9780   68.6910   64.0500 N   0  0  0  0  0  0  0  0  0  0  0  0
    2.1140   68.6450   62.6080 C   0  0  0  0  0  0  0  0  0  0  0  0
    0.6800   68.4020   62.1470 C   0  0  0  0  0  0  0  0  0  0  0  0
   -0.1330   69.2070   63.1510 C   0  0  0  0  0  0  0  0  0  0  0  0
    0.6260   69.0210   64.4680 C   0  0  0  0  0  0  0  0  0  0  0  0
    7.1020   70.9640   69.5720 C   0  0  0  0  0  0  0  0  0  0  0  0
    7.8650   71.8960   69.1790 O   0  0  0  0  0  0  0  0  0  0  0  0
    7.0530   70.3980   70.7000 O   0  0  0  0  0  1  0  0  0  0  0  0
    1.8710   68.6200   69.0420 C   0  0  0  0  0  0  0  0  0  0  0  0
    2.3070   70.0490   68.7530 C   0  0  0  0  0  0  0  0  0  0  0  0
    4.5623   70.7334   70.0680 H   0  0  0  0  0  0  0  0  0  0  0  0
    6.3015   69.5265   64.5958 H   0  0  0  0  0  0  0  0  0  0  0  0
    2.5018   69.5964   62.2150 H   0  0  0  0  0  0  0  0  0  0  0  0
    2.8219   67.8787   62.2592 H   0  0  0  0  0  0  0  0  0  0  0  0
    0.5243   68.7715   61.1227 H   0  0  0  0  0  0  0  0  0  0  0  0
    0.4053   67.3373   62.1152 H   0  0  0  0  0  0  0  0  0  0  0  0
   -0.1682   70.2687   62.8655 H   0  0  0  0  0  0  0  0  0  0  0  0
   -1.1803   68.8765   63.2131 H   0  0  0  0  0  0  0  0  0  0  0  0
    0.6149   69.9480   65.0601 H   0  0  0  0  0  0  0  0  0  0  0  0
    0.1795   68.2462   65.1086 H   0  0  0  0  0  0  0  0  0  0  0  0
    1.8234   68.4641   70.1299 H   0  0  0  0  0  0  0  0  0  0  0  0
    0.8782   68.4436   68.6025 H   0  0  0  0  0  0  0  0  0  0  0  0
    2.5963   67.9194   68.6025 H   0  0  0  0  0  0  0  0  0  0  0  0
    1.6334   70.4855   68.0009 H   0  0  0  0  0  0  0  0  0  0  0  0
    2.2639   70.6248   69.6893 H   0  0  0  0  0  0  0  0  0  0  0  0
  2  1  1  0
  3  2  2  0
  4  3  1  0
  5  4  2  0
  6  4  1  0
  7  6  2  0
  7  1  1  0
  8  7  1  0
  9  8  2  0
 10  9  1  0
 11  6  1  0
 11 10  2  0
 12  9  1  0
 13 12  1  0
 14 13  1  0
 15 14  1  0
 16 15  1  0
 16 12  1  0
 17  3  1  0
 18 17  2  0
 19 17  1  0
 21 20  1  0
 21  1  1  0
  2 22  1  0
 11 23  1  0
 13 24  1  0
 13 25  1  0
 14 26  1  0
 14 27  1  0
 15 28  1  0
 15 29  1  0
 16 30  1  0
 16 31  1  0
 20 32  1  0
 20 33  1  0
 20 34  1  0
 21 35  1  0
 21 36  1  0
M  CHG  1  19  -1
M  END
>  <score>  (3) 
-8.527

$$$$
=
     RDKit          3D

 36 38  0  0  0  0  0  0  0  0999 V2000
    1.6600   61.3820   72.2450 N   0  0  0  0  0  0  0  0  0  0  0  0
    2.3160   62.2280   71.3690 C   0  0  0  0  0  0  0  0  0  0  0  0
    3.2250   61.8500   70.4590 C   0  0  0  0  0  0  0  0  0  0  0  0
    3.5410   60.4160   70.3510 C   0  0  0  0  0  0  0  0  0  0  0  0
    4.2940   59.9300   69.5140 O   0  0  0  0  0  0  0  0  0  0  0  0
    2.8570   59.5200   71.2980 C   0  0  0  0  0  0  0  0  0  0  0  0
    1.9320   59.9940   72.2090 C   0  0  0  0  0  0  0  0  0  0  0  0
    1.2910   59.1490   73.0520 N   0  0  0  0  0  0  0  0  0  0  0  0
    1.5680   57.8350   72.9920 C   0  0  0  0  0  0  0  0  0  0  0  0
    2.4610   57.3120   72.1360 N   0  0  0  0  0  0  0  0  0  0  0  0
    3.0880   58.1680   71.3020 C   0  0  0  0  0  0  0  0  0  0  0  0
    0.9180   56.9890   73.8560 N   0  0  0  0  0  0  0  0  0  0  0  0
    0.9580   55.5580   73.6260 C   0  0  0  0  0  0  0  0  0  0  0  0
   -0.0440   55.0300   74.6490 C   0  0  0  0  0  0  0  0  0  0  0  0
   -1.1120   56.1140   74.6580 C   0  0  0  0  0  0  0  0  0  0  0  0
   -0.3170   57.4120   74.4940 C   0  0  0  0  0  0  0  0  0  0  0  0
    3.8820   62.9080   69.6030 C   0  0  0  0  0  0  0  0  0  0  0  0
    4.9020   63.4560   70.1190 O   0  0  0  0  0  0  0  0  0  0  0  0
    3.4040   63.0520   68.4430 O   0  0  0  0  0  1  0  0  0  0  0  0
   -0.7140   61.9660   72.5160 C   0  0  0  0  0  0  0  0  0  0  0  0
    0.6440   61.8420   73.1910 C   0  0  0  0  0  0  0  0  0  0  0  0
    2.0717   63.2991   71.4236 H   0  0  0  0  0  0  0  0  0  0  0  0
    3.8210   57.7611   70.5898 H   0  0  0  0  0  0  0  0  0  0  0  0
    0.6460   55.3115   72.6004 H   0  0  0  0  0  0  0  0  0  0  0  0
    1.9634   55.1249   73.7335 H   0  0  0  0  0  0  0  0  0  0  0  0
   -0.4623   54.0631   74.3326 H   0  0  0  0  0  0  0  0  0  0  0  0
    0.3984   54.8436   75.6387 H   0  0  0  0  0  0  0  0  0  0  0  0
   -1.8158   55.9775   73.8237 H   0  0  0  0  0  0  0  0  0  0  0  0
   -1.7224   56.1020   75.5730 H   0  0  0  0  0  0  0  0  0  0  0  0
   -0.8610   58.1261   73.8583 H   0  0  0  0  0  0  0  0  0  0  0  0
   -0.1448   57.9269   75.4506 H   0  0  0  0  0  0  0  0  0  0  0  0
   -1.4994   62.0377   73.2828 H   0  0  0  0  0  0  0  0  0  0  0  0
   -0.7305   62.8694   71.8886 H   0  0  0  0  0  0  0  0  0  0  0  0
   -0.8938   61.0805   71.8886 H   0  0  0  0  0  0  0  0  0  0  0  0
    0.9399   62.8247   73.5869 H   0  0  0  0  0  0  0  0  0  0  0  0
    0.5647   61.1063   74.0049 H   0  0  0  0  0  0  0  0  0  0  0  0
  2  1  1  0
  3  2  2  0
  4  3  1  0
  5  4  2  0
  6  4  1  0
  7  6  2  0
  7  1  1  0
  8  7  1  0
  9  8  2  0
 10  9  1  0
 11  6  1  0
 11 10  2  0
 12  9  1  0
 13 12  1  0
 14 13  1  0
 15 14  1  0
 16 15  1  0
 16 12  1  0
 17  3  1  0
 18 17  2  0
 19 17  1  0
 21 20  1  0
 21  1  1  0
  2 22  1  0
 11 23  1  0
 13 24  1  0
 13 25  1  0
 14 26  1  0
 14 27  1  0
 15 28  1  0
 15 29  1  0
 16 30  1  0
 16 31  1  0
 20 32  1  0
 20 33  1  0
 20 34  1  0
 21 35  1  0
 21 36  1  0
M  CHG  1  19  -1
M  END
>  <score>  (4) 
-7.892

$$$$
=
     RDKit          3D

 36 38  0  0  0  0  0  0  0  0999 V2000
    2.4480   60.3740   71.7350 N   0  0  0  0  0  0  0  0  0  0  0  0
    3.3350   61.1480   71.0070 C   0  0  0  0  0  0  0  0  0  0  0  0
    3.1200   62.4100   70.6110 C   0  0  0  0  0  0  0  0  0  0  0  0
    1.8510   63.0490   70.9960 C   0  0  0  0  0  0  0  0  0  0  0  0
    1.5610   64.2180   70.7640 O   0  0  0  0  0  0  0  0  0  0  0  0
    0.9000   62.2170   71.7520 C   0  0  0  0  0  0  0  0  0  0  0  0
    1.2020   60.9200   72.1210 C   0  0  0  0  0  0  0  0  0  0  0  0
    0.3260   60.1810   72.8420 N   0  0  0  0  0  0  0  0  0  0  0  0
   -0.8500   60.7280   73.1980 C   0  0  0  0  0  0  0  0  0  0  0  0
   -1.2070   61.9790   72.8650 N   0  0  0  0  0  0  0  0  0  0  0  0
   -0.3210   62.7020   72.1490 C   0  0  0  0  0  0  0  0  0  0  0  0
   -1.7340   59.9670   73.9220 N   0  0  0  0  0  0  0  0  0  0  0  0
   -2.8610   60.6030   74.5750 C   0  0  0  0  0  0  0  0  0  0  0  0
   -3.4330   59.4720   75.4260 C   0  0  0  0  0  0  0  0  0  0  0  0
   -2.1830   58.7240   75.8680 C   0  0  0  0  0  0  0  0  0  0  0  0
   -1.2610   58.8000   74.6470 C   0  0  0  0  0  0  0  0  0  0  0  0
    4.1770   63.1040   69.7840 C   0  0  0  0  0  0  0  0  0  0  0  0
    5.1520   63.5700   70.4450 O   0  0  0  0  0  0  0  0  0  0  0  0
    4.0170   63.0520   68.5320 O   0  0  0  0  0  1  0  0  0  0  0  0
    3.3480   58.1900   71.0490 C   0  0  0  0  0  0  0  0  0  0  0  0
    2.7520   59.0150   72.1800 C   0  0  0  0  0  0  0  0  0  0  0  0
    4.2958   60.6892   70.7307 H   0  0  0  0  0  0  0  0  0  0  0  0
   -0.5906   63.7312   71.8696 H   0  0  0  0  0  0  0  0  0  0  0  0
   -2.5333   61.4453   75.2020 H   0  0  0  0  0  0  0  0  0  0  0  0
   -3.5891   61.0331   73.8716 H   0  0  0  0  0  0  0  0  0  0  0  0
   -3.9862   59.8667   76.2910 H   0  0  0  0  0  0  0  0  0  0  0  0
   -4.1533   58.8397   74.8862 H   0  0  0  0  0  0  0  0  0  0  0  0
   -1.7213   59.2125   76.7387 H   0  0  0  0  0  0  0  0  0  0  0  0
   -2.3934   57.6899   76.1785 H   0  0  0  0  0  0  0  0  0  0  0  0
   -0.2132   58.9295   74.9556 H   0  0  0  0  0  0  0  0  0  0  0  0
   -1.2875   57.8839   74.0386 H   0  0  0  0  0  0  0  0  0  0  0  0
    3.9431   57.3663   71.4702 H   0  0  0  0  0  0  0  0  0  0  0  0
    2.5379   57.7777   70.4296 H   0  0  0  0  0  0  0  0  0  0  0  0
    3.9939   58.8296   70.4296 H   0  0  0  0  0  0  0  0  0  0  0  0
    1.8251   58.5342   72.5259 H   0  0  0  0  0  0  0  0  0  0  0  0
    3.4863   59.0704   72.9972 H   0  0  0  0  0  0  0  0  0  0  0  0
  2  1  1  0
  3  2  2  0
  4  3  1  0
  5  4  2  0
  6  4  1  0
  7  6  2  0
  7  1  1  0
  8  7  1  0
  9  8  2  0
 10  9  1  0
 11  6  1  0
 11 10  2  0
 12  9  1  0
 13 12  1  0
 14 13  1  0
 15 14  1  0
 16 15  1  0
 16 12  1  0
 17  3  1  0
 18 17  2  0
 19 17  1  0
 21 20  1  0
 21  1  1  0
  2 22  1  0
 11 23  1  0
 13 24  1  0
 13 25  1  0
 14 26  1  0
 14 27  1  0
 15 28  1  0
 15 29  1  0
 16 30  1  0
 16 31  1  0
 20 32  1  0
 20 33  1  0
 20 34  1  0
 21 35  1  0
 21 36  1  0
M  CHG  1  19  -1
M  END
>  <score>  (5) 
-7.527

$$$$
=
     RDKit          3D

 36 38  0  0  0  0  0  0  0  0999 V2000
    0.5820   68.4490   66.7970 N   0  0  0  0  0  0  0  0  0  0  0  0
   -0.7700   68.3290   67.0690 C   0  0  0  0  0  0  0  0  0  0  0  0
   -1.7550   68.4140   66.1650 C   0  0  0  0  0  0  0  0  0  0  0  0
   -1.3830   68.6250   64.7560 C   0  0  0  0  0  0  0  0  0  0  0  0
   -2.1780   68.6460   63.8220 O   0  0  0  0  0  0  0  0  0  0  0  0
    0.0540   68.7740   64.4710 C   0  0  0  0  0  0  0  0  0  0  0  0
    1.0070   68.6730   65.4670 C   0  0  0  0  0  0  0  0  0  0  0  0
    2.3260   68.7830   65.1800 N   0  0  0  0  0  0  0  0  0  0  0  0
    2.7000   68.9920   63.9060 C   0  0  0  0  0  0  0  0  0  0  0  0
    1.8250   69.1070   62.8940 N   0  0  0  0  0  0  0  0  0  0  0  0
    0.5150   68.9920   63.1980 C   0  0  0  0  0  0  0  0  0  0  0  0
    4.0390   69.1100   63.6280 N   0  0  0  0  0  0  0  0  0  0  0  0
    4.4960   69.0330   62.2540 C   0  0  0  0  0  0  0  0  0  0  0  0
    6.0140   68.9820   62.4120 C   0  0  0  0  0  0  0  0  0  0  0  0
    6.1880   68.1560   63.6780 C   0  0  0  0  0  0  0  0  0  0  0  0
    5.0230   68.5990   64.5680 C   0  0  0  0  0  0  0  0  0  0  0  0
   -3.1870   68.3010   66.6330 C   0  0  0  0  0  0  0  0  0  0  0  0
   -3.3520   67.6190   67.6880 O   0  0  0  0  0  0  0  0  0  0  0  0
   -4.0330   68.9760   65.9820 O   0  0  0  0  0  1  0  0  0  0  0  0
    1.1840   67.3330   68.9040 C   0  0  0  0  0  0  0  0  0  0  0  0
    1.6180   68.3050   67.8180 C   0  0  0  0  0  0  0  0  0  0  0  0
   -1.0597   68.1488   68.1147 H   0  0  0  0  0  0  0  0  0  0  0  0
   -0.2197   69.0774   62.3838 H   0  0  0  0  0  0  0  0  0  0  0  0
    4.1173   68.1263   61.7595 H   0  0  0  0  0  0  0  0  0  0  0  0
    4.1484   69.8689   61.6291 H   0  0  0  0  0  0  0  0  0  0  0  0
    6.4868   68.4905   61.5490 H   0  0  0  0  0  0  0  0  0  0  0  0
    6.4816   69.9760   62.4702 H   0  0  0  0  0  0  0  0  0  0  0  0
    6.1242   67.0806   63.4558 H   0  0  0  0  0  0  0  0  0  0  0  0
    7.1680   68.3089   64.1537 H   0  0  0  0  0  0  0  0  0  0  0  0
    4.6177   67.7477   65.1345 H   0  0  0  0  0  0  0  0  0  0  0  0
    5.3222   69.3469   65.3171 H   0  0  0  0  0  0  0  0  0  0  0  0
    1.3813   67.7749   69.8918 H   0  0  0  0  0  0  0  0  0  0  0  0
    0.1083   67.1267   68.8029 H   0  0  0  0  0  0  0  0  0  0  0  0
    1.7485   66.3943   68.8029 H   0  0  0  0  0  0  0  0  0  0  0  0
    1.8138   69.2875   68.2723 H   0  0  0  0  0  0  0  0  0  0  0  0
    2.5276   67.9121   67.3402 H   0  0  0  0  0  0  0  0  0  0  0  0
  2  1  1  0
  3  2  2  0
  4  3  1  0
  5  4  2  0
  6  4  1  0
  7  6  2  0
  7  1  1  0
  8  7  1  0
  9  8  2  0
 10  9  1  0
 11  6  1  0
 11 10  2  0
 12  9  1  0
 13 12  1  0
 14 13  1  0
 15 14  1  0
 16 15  1  0
 16 12  1  0
 17  3  1  0
 18 17  2  0
 19 17  1  0
 21 20  1  0
 21  1  1  0
  2 22  1  0
 11 23  1  0
 13 24  1  0
 13 25  1  0
 14 26  1  0
 14 27  1  0
 15 28  1  0
 15 29  1  0
 16 30  1  0
 16 31  1  0
 20 32  1  0
 20 33  1  0
 20 34  1  0
 21 35  1  0
 21 36  1  0
M  CHG  1  19  -1
M  END
>  <score>  (6) 
-7.38

$$$$
=
     RDKit          3D

 36 38  0  0  0  0  0  0  0  0999 V2000
    0.9560   61.6650   72.0170 N   0  0  0  0  0  0  0  0  0  0  0  0
    2.1740   61.5230   71.3750 C   0  0  0  0  0  0  0  0  0  0  0  0
    2.9450   60.4280   71.4050 C   0  0  0  0  0  0  0  0  0  0  0  0
    2.4570   59.2590   72.1560 C   0  0  0  0  0  0  0  0  0  0  0  0
    3.0260   58.1740   72.2020 O   0  0  0  0  0  0  0  0  0  0  0  0
    1.1720   59.4180   72.8560 C   0  0  0  0  0  0  0  0  0  0  0  0
    0.4380   60.5870   72.7730 C   0  0  0  0  0  0  0  0  0  0  0  0
   -0.7570   60.7030   73.4000 N   0  0  0  0  0  0  0  0  0  0  0  0
   -1.2260   59.6600   74.1080 C   0  0  0  0  0  0  0  0  0  0  0  0
   -0.5590   58.5010   74.2340 N   0  0  0  0  0  0  0  0  0  0  0  0
    0.6290   58.4020   73.6010 C   0  0  0  0  0  0  0  0  0  0  0  0
   -2.4340   59.7920   74.7450 N   0  0  0  0  0  0  0  0  0  0  0  0
   -3.1070   58.6140   75.2570 C   0  0  0  0  0  0  0  0  0  0  0  0
   -4.4710   59.1640   75.6680 C   0  0  0  0  0  0  0  0  0  0  0  0
   -4.7440   60.2090   74.5960 C   0  0  0  0  0  0  0  0  0  0  0  0
   -3.3680   60.8230   74.3240 C   0  0  0  0  0  0  0  0  0  0  0  0
    4.2720   60.4510   70.6820 C   0  0  0  0  0  0  0  0  0  0  0  0
    4.2480   59.9750   69.5080 O   0  0  0  0  0  0  0  0  0  0  0  0
    5.2180   61.0260   71.2890 O   0  0  0  0  0  1  0  0  0  0  0  0
    0.3930   63.5990   70.6070 C   0  0  0  0  0  0  0  0  0  0  0  0
    0.1330   62.8690   71.9160 C   0  0  0  0  0  0  0  0  0  0  0  0
    2.5393   62.3809   70.7915 H   0  0  0  0  0  0  0  0  0  0  0  0
    1.1898   57.4596   73.6868 H   0  0  0  0  0  0  0  0  0  0  0  0
   -3.2074   57.8437   74.4782 H   0  0  0  0  0  0  0  0  0  0  0  0
   -2.5664   58.1234   76.0798 H   0  0  0  0  0  0  0  0  0  0  0  0
   -5.2371   58.3747   75.6574 H   0  0  0  0  0  0  0  0  0  0  0  0
   -4.4891   59.5704   76.6900 H   0  0  0  0  0  0  0  0  0  0  0  0
   -5.1506   59.7410   73.6873 H   0  0  0  0  0  0  0  0  0  0  0  0
   -5.4880   60.9558   74.9103 H   0  0  0  0  0  0  0  0  0  0  0  0
   -3.2451   61.0490   73.2545 H   0  0  0  0  0  0  0  0  0  0  0  0
   -3.2163   61.7744   74.8549 H   0  0  0  0  0  0  0  0  0  0  0  0
    0.7551   64.6157   70.8198 H   0  0  0  0  0  0  0  0  0  0  0  0
    1.1520   63.0533   70.0273 H   0  0  0  0  0  0  0  0  0  0  0  0
   -0.5401   63.6560   70.0273 H   0  0  0  0  0  0  0  0  0  0  0  0
    0.3715   63.5391   72.7551 H   0  0  0  0  0  0  0  0  0  0  0  0
   -0.9260   62.5732   71.9479 H   0  0  0  0  0  0  0  0  0  0  0  0
  2  1  1  0
  3  2  2  0
  4  3  1  0
  5  4  2  0
  6  4  1  0
  7  6  2  0
  7  1  1  0
  8  7  1  0
  9  8  2  0
 10  9  1  0
 11  6  1  0
 11 10  2  0
 12  9  1  0
 13 12  1  0
 14 13  1  0
 15 14  1  0
 16 15  1  0
 16 12  1  0
 17  3  1  0
 18 17  2  0
 19 17  1  0
 21 20  1  0
 21  1  1  0
  2 22  1  0
 11 23  1  0
 13 24  1  0
 13 25  1  0
 14 26  1  0
 14 27  1  0
 15 28  1  0
 15 29  1  0
 16 30  1  0
 16 31  1  0
 20 32  1  0
 20 33  1  0
 20 34  1  0
 21 35  1  0
 21 36  1  0
M  CHG  1  19  -1
M  END
>  <score>  (7) 
-7.273

$$$$
=
     RDKit          3D

 36 38  0  0  0  0  0  0  0  0999 V2000
   -0.0600   58.6880   73.7920 N   0  0  0  0  0  0  0  0  0  0  0  0
   -1.2210   58.4510   74.5070 C   0  0  0  0  0  0  0  0  0  0  0  0
   -2.2270   59.3230   74.6640 C   0  0  0  0  0  0  0  0  0  0  0  0
   -2.1150   60.6350   74.0050 C   0  0  0  0  0  0  0  0  0  0  0  0
   -2.9920   61.4920   74.0060 O   0  0  0  0  0  0  0  0  0  0  0  0
   -0.8690   60.8920   73.2630 C   0  0  0  0  0  0  0  0  0  0  0  0
    0.1220   59.9350   73.1510 C   0  0  0  0  0  0  0  0  0  0  0  0
    1.2470   60.1810   72.4380 N   0  0  0  0  0  0  0  0  0  0  0  0
    1.3900   61.3740   71.8370 C   0  0  0  0  0  0  0  0  0  0  0  0
    0.4690   62.3490   71.9130 N   0  0  0  0  0  0  0  0  0  0  0  0
   -0.6470   62.0860   72.6250 C   0  0  0  0  0  0  0  0  0  0  0  0
    2.5380   61.6150   71.1240 N   0  0  0  0  0  0  0  0  0  0  0  0
    2.6000   62.7510   70.2250 C   0  0  0  0  0  0  0  0  0  0  0  0
    3.9190   62.5210   69.4910 C   0  0  0  0  0  0  0  0  0  0  0  0
    3.9640   61.0060   69.3560 C   0  0  0  0  0  0  0  0  0  0  0  0
    3.3550   60.5030   70.6680 C   0  0  0  0  0  0  0  0  0  0  0  0
   -3.4120   58.9230   75.5130 C   0  0  0  0  0  0  0  0  0  0  0  0
   -3.2190   58.9850   76.7630 O   0  0  0  0  0  0  0  0  0  0  0  0
   -4.4780   58.6720   74.8840 O   0  0  0  0  0  1  0  0  0  0  0  0
    0.4070   56.2790   73.6230 C   0  0  0  0  0  0  0  0  0  0  0  0
    0.9890   57.6840   73.6160 C   0  0  0  0  0  0  0  0  0  0  0  0
   -1.3270   57.4663   74.9857 H   0  0  0  0  0  0  0  0  0  0  0  0
   -1.4171   62.8682   72.6973 H   0  0  0  0  0  0  0  0  0  0  0  0
    1.7509   62.7512   69.5257 H   0  0  0  0  0  0  0  0  0  0  0  0
    2.5489   63.7213   70.7407 H   0  0  0  0  0  0  0  0  0  0  0  0
    3.9145   63.0076   68.5045 H   0  0  0  0  0  0  0  0  0  0  0  0
    4.7905   62.9395   70.0158 H   0  0  0  0  0  0  0  0  0  0  0  0
    3.3680   60.6717   68.4940 H   0  0  0  0  0  0  0  0  0  0  0  0
    4.9816   60.6245   69.1861 H   0  0  0  0  0  0  0  0  0  0  0  0
    2.7378   59.6090   70.4954 H   0  0  0  0  0  0  0  0  0  0  0  0
    4.1177   60.2077   71.4036 H   0  0  0  0  0  0  0  0  0  0  0  0
    0.2685   55.9447   74.6618 H   0  0  0  0  0  0  0  0  0  0  0  0
   -0.5640   56.2818   73.1061 H   0  0  0  0  0  0  0  0  0  0  0  0
    1.0955   55.5943   73.1061 H   0  0  0  0  0  0  0  0  0  0  0  0
    1.7160   57.7761   74.4363 H   0  0  0  0  0  0  0  0  0  0  0  0
    1.4781   57.8553   72.6457 H   0  0  0  0  0  0  0  0  0  0  0  0
  2  1  1  0
  3  2  2  0
  4  3  1  0
  5  4  2  0
  6  4  1  0
  7  6  2  0
  7  1  1  0
  8  7  1  0
  9  8  2  0
 10  9  1  0
 11  6  1  0
 11 10  2  0
 12  9  1  0
 13 12  1  0
 14 13  1  0
 15 14  1  0
 16 15  1  0
 16 12  1  0
 17  3  1  0
 18 17  2  0
 19 17  1  0
 21 20  1  0
 21  1  1  0
  2 22  1  0
 11 23  1  0
 13 24  1  0
 13 25  1  0
 14 26  1  0
 14 27  1  0
 15 28  1  0
 15 29  1  0
 16 30  1  0
 16 31  1  0
 20 32  1  0
 20 33  1  0
 20 34  1  0
 21 35  1  0
 21 36  1  0
M  CHG  1  19  -1
M  END
>  <score>  (8) 
-7.156

$$$$
=
     RDKit          3D

 36 38  0  0  0  0  0  0  0  0999 V2000
   -0.0530   59.4560   73.7090 N   0  0  0  0  0  0  0  0  0  0  0  0
   -0.4270   58.3260   74.4150 C   0  0  0  0  0  0  0  0  0  0  0  0
    0.1910   57.1380   74.3620 C   0  0  0  0  0  0  0  0  0  0  0  0
    1.3840   57.0160   73.5090 C   0  0  0  0  0  0  0  0  0  0  0  0
    2.0840   56.0110   73.4290 O   0  0  0  0  0  0  0  0  0  0  0  0
    1.7680   58.2130   72.7420 C   0  0  0  0  0  0  0  0  0  0  0  0
    1.0730   59.4020   72.8550 C   0  0  0  0  0  0  0  0  0  0  0  0
    1.4600   60.5010   72.1640 N   0  0  0  0  0  0  0  0  0  0  0  0
    2.5370   60.4210   71.3620 C   0  0  0  0  0  0  0  0  0  0  0  0
    3.2500   59.2940   71.2030 N   0  0  0  0  0  0  0  0  0  0  0  0
    2.8520   58.2100   71.9010 C   0  0  0  0  0  0  0  0  0  0  0  0
    2.9150   61.5390   70.6610 N   0  0  0  0  0  0  0  0  0  0  0  0
    4.2210   61.5840   70.0330 C   0  0  0  0  0  0  0  0  0  0  0  0
    4.3190   63.0370   69.5750 C   0  0  0  0  0  0  0  0  0  0  0  0
    3.6090   63.7860   70.6930 C   0  0  0  0  0  0  0  0  0  0  0  0
    2.4610   62.8520   71.0890 C   0  0  0  0  0  0  0  0  0  0  0  0
   -0.3710   55.9880   75.1670 C   0  0  0  0  0  0  0  0  0  0  0  0
   -0.1120   56.0270   76.4060 O   0  0  0  0  0  0  0  0  0  0  0  0
   -1.1090   55.1830   74.5320 O   0  0  0  0  0  1  0  0  0  0  0  0
   -2.2330   60.5460   74.0350 C   0  0  0  0  0  0  0  0  0  0  0  0
   -0.7380   60.7410   73.8370 C   0  0  0  0  0  0  0  0  0  0  0  0
   -1.3038   58.4098   75.0740 H   0  0  0  0  0  0  0  0  0  0  0  0
    3.4251   57.2776   71.7903 H   0  0  0  0  0  0  0  0  0  0  0  0
    5.0164   61.3397   70.7525 H   0  0  0  0  0  0  0  0  0  0  0  0
    4.3389   60.8580   69.2150 H   0  0  0  0  0  0  0  0  0  0  0  0
    5.3681   63.3558   69.4873 H   0  0  0  0  0  0  0  0  0  0  0  0
    3.8794   63.2134   68.5822 H   0  0  0  0  0  0  0  0  0  0  0  0
    4.2867   63.9557   71.5427 H   0  0  0  0  0  0  0  0  0  0  0  0
    3.2589   64.7813   70.3820 H   0  0  0  0  0  0  0  0  0  0  0  0
    2.2960   62.8738   72.1763 H   0  0  0  0  0  0  0  0  0  0  0  0
    1.5030   63.1396   70.6313 H   0  0  0  0  0  0  0  0  0  0  0  0
   -2.4596   60.5164   75.1110 H   0  0  0  0  0  0  0  0  0  0  0  0
   -2.7766   61.3808   73.5686 H   0  0  0  0  0  0  0  0  0  0  0  0
   -2.5443   59.5996   73.5686 H   0  0  0  0  0  0  0  0  0  0  0  0
   -0.5703   61.3303   72.9234 H   0  0  0  0  0  0  0  0  0  0  0  0
   -0.3345   61.2666   74.7150 H   0  0  0  0  0  0  0  0  0  0  0  0
  2  1  1  0
  3  2  2  0
  4  3  1  0
  5  4  2  0
  6  4  1  0
  7  6  2  0
  7  1  1  0
  8  7  1  0
  9  8  2  0
 10  9  1  0
 11  6  1  0
 11 10  2  0
 12  9  1  0
 13 12  1  0
 14 13  1  0
 15 14  1  0
 16 15  1  0
 16 12  1  0
 17  3  1  0
 18 17  2  0
 19 17  1  0
 21 20  1  0
 21  1  1  0
  2 22  1  0
 11 23  1  0
 13 24  1  0
 13 25  1  0
 14 26  1  0
 14 27  1  0
 15 28  1  0
 15 29  1  0
 16 30  1  0
 16 31  1  0
 20 32  1  0
 20 33  1  0
 20 34  1  0
 21 35  1  0
 21 36  1  0
M  CHG  1  19  -1
M  END
>  <score>  (9) 
-7.029

$$$$
