=
     RDKit          3D

 32 33  0  0  0  0  0  0  0  0999 V2000
    0.1730   69.4400   67.6640 O   0  0  0  0  0  0  0  0  0  0  0  0
    1.2410   69.0560   67.2000 C   0  0  0  0  0  0  0  0  0  0  0  0
    2.5390   69.6310   67.6460 C   0  0  0  0  0  0  0  0  0  0  0  0
    2.5840   70.2820   68.8850 C   0  0  0  0  0  0  0  0  0  0  0  0
    3.7750   70.8450   69.3440 C   0  0  0  0  0  0  0  0  0  0  0  0
    4.9290   70.7660   68.5670 C   0  0  0  0  0  0  0  0  0  0  0  0
    4.9050   70.1270   67.3180 C   0  0  0  0  0  0  0  0  0  0  0  0
    3.7010   69.5530   66.8670 C   0  0  0  0  0  0  0  0  0  0  0  0
    6.1610   70.0180   66.4860 C   0  0  0  0  0  0  0  0  0  0  0  0
    7.2670   69.7550   67.2350 F   0  0  0  0  0  0  0  0  0  0  0  0
    6.4310   71.1630   65.8020 F   0  0  0  0  0  0  0  0  0  0  0  0
    6.1010   69.0270   65.5530 F   0  0  0  0  0  0  0  0  0  0  0  0
    1.2150   67.9920   66.1270 C   0  0  0  0  0  0  0  0  0  0  0  0
    1.2990   66.8180   66.4700 O   0  0  0  0  0  0  0  0  0  0  0  0
    1.1270   68.3800   64.6950 C   0  0  0  0  0  0  0  0  0  0  0  0
   -0.0410   68.9070   64.1330 C   0  0  0  0  0  0  0  0  0  0  0  0
   -0.0670   69.2760   62.7870 C   0  0  0  0  0  0  0  0  0  0  0  0
    1.0710   69.1210   61.9930 C   0  0  0  0  0  0  0  0  0  0  0  0
    2.2490   68.5850   62.5340 C   0  0  0  0  0  0  0  0  0  0  0  0
    2.2680   68.2250   63.8920 C   0  0  0  0  0  0  0  0  0  0  0  0
    3.4900   68.4330   61.6870 C   0  0  0  0  0  0  0  0  0  0  0  0
    3.2680   68.7640   60.3860 F   0  0  0  0  0  0  0  0  0  0  0  0
    4.5170   69.2230   62.1060 F   0  0  0  0  0  0  0  0  0  0  0  0
    3.9780   67.1620   61.6730 F   0  0  0  0  0  0  0  0  0  0  0  0
    1.6746   70.3499   69.5001 H   0  0  0  0  0  0  0  0  0  0  0  0
    3.8032   71.3516   70.3200 H   0  0  0  0  0  0  0  0  0  0  0  0
    5.8663   71.2081   68.9357 H   0  0  0  0  0  0  0  0  0  0  0  0
    3.6724   69.0390   65.8949 H   0  0  0  0  0  0  0  0  0  0  0  0
   -0.9409   69.0308   64.7533 H   0  0  0  0  0  0  0  0  0  0  0  0
   -0.9875   69.6905   62.3502 H   0  0  0  0  0  0  0  0  0  0  0  0
    1.0436   69.4215   60.9352 H   0  0  0  0  0  0  0  0  0  0  0  0
    3.1895   67.8161   64.3320 H   0  0  0  0  0  0  0  0  0  0  0  0
  2  1  2  0
  3  2  1  0
  4  3  2  0
  5  4  1  0
  6  5  2  0
  7  6  1  0
  8  7  2  0
  8  3  1  0
  9  7  1  0
 10  9  1  0
 11  9  1  0
 12  9  1  0
 13  2  1  0
 14 13  2  0
 15 13  1  0
 16 15  2  0
 17 16  1  0
 18 17  2  0
 19 18  1  0
 20 19  2  0
 20 15  1  0
 21 19  1  0
 22 21  1  0
 23 21  1  0
 24 21  1  0
  4 25  1  0
  5 26  1  0
  6 27  1  0
  8 28  1  0
 16 29  1  0
 17 30  1  0
 18 31  1  0
 20 32  1  0
M  END
>  <score>  (1) 
-11.437

$$$$
=
     RDKit          3D

 32 33  0  0  0  0  0  0  0  0999 V2000
    1.4530   66.8260   66.5250 O   0  0  0  0  0  0  0  0  0  0  0  0
    1.3460   67.9940   66.1700 C   0  0  0  0  0  0  0  0  0  0  0  0
    1.3050   68.3740   64.7320 C   0  0  0  0  0  0  0  0  0  0  0  0
    0.1040   68.8760   64.2140 C   0  0  0  0  0  0  0  0  0  0  0  0
    0.0110   69.2390   62.8700 C   0  0  0  0  0  0  0  0  0  0  0  0
    1.1170   69.0990   62.0320 C   0  0  0  0  0  0  0  0  0  0  0  0
    2.3270   68.5900   62.5280 C   0  0  0  0  0  0  0  0  0  0  0  0
    2.4140   68.2350   63.8870 C   0  0  0  0  0  0  0  0  0  0  0  0
    3.5320   68.4610   61.6260 C   0  0  0  0  0  0  0  0  0  0  0  0
    3.2560   68.7760   60.3300 F   0  0  0  0  0  0  0  0  0  0  0  0
    4.0350   67.1980   61.6090 F   0  0  0  0  0  0  0  0  0  0  0  0
    4.5630   69.2730   61.9930 F   0  0  0  0  0  0  0  0  0  0  0  0
    1.2870   69.0650   67.2360 C   0  0  0  0  0  0  0  0  0  0  0  0
    0.1870   69.4200   67.6420 O   0  0  0  0  0  0  0  0  0  0  0  0
    2.5410   69.6850   67.7390 C   0  0  0  0  0  0  0  0  0  0  0  0
    2.6090   70.3420   68.9720 C   0  0  0  0  0  0  0  0  0  0  0  0
    3.8160   70.8910   69.4090 C   0  0  0  0  0  0  0  0  0  0  0  0
    4.9620   70.7880   68.6190 C   0  0  0  0  0  0  0  0  0  0  0  0
    4.9140   70.1430   67.3750 C   0  0  0  0  0  0  0  0  0  0  0  0
    3.6970   69.5860   66.9480 C   0  0  0  0  0  0  0  0  0  0  0  0
    6.1540   70.0100   66.5240 C   0  0  0  0  0  0  0  0  0  0  0  0
    7.2630   69.7520   67.2680 F   0  0  0  0  0  0  0  0  0  0  0  0
    6.0670   69.0000   65.6150 F   0  0  0  0  0  0  0  0  0  0  0  0
    6.4350   71.1330   65.8070 F   0  0  0  0  0  0  0  0  0  0  0  0
   -0.7714   68.9847   64.8712 H   0  0  0  0  0  0  0  0  0  0  0  0
   -0.9345   69.6355   62.4714 H   0  0  0  0  0  0  0  0  0  0  0  0
    1.0402   69.3899   60.9739 H   0  0  0  0  0  0  0  0  0  0  0  0
    3.3607   67.8451   64.2893 H   0  0  0  0  0  0  0  0  0  0  0  0
    1.7091   70.4263   69.5990 H   0  0  0  0  0  0  0  0  0  0  0  0
    3.8640   71.4066   70.3795 H   0  0  0  0  0  0  0  0  0  0  0  0
    5.9105   71.2163   68.9752 H   0  0  0  0  0  0  0  0  0  0  0  0
    3.6490   69.0650   65.9804 H   0  0  0  0  0  0  0  0  0  0  0  0
  2  1  2  0
  3  2  1  0
  4  3  2  0
  5  4  1  0
  6  5  2  0
  7  6  1  0
  8  7  2  0
  8  3  1  0
  9  7  1  0
 10  9  1  0
 11  9  1  0
 12  9  1  0
 13  2  1  0
 14 13  2  0
 15 13  1  0
 16 15  2  0
 17 16  1  0
 18 17  2  0
 19 18  1  0
 20 19  2  0
 20 15  1  0
 21 19  1  0
 22 21  1  0
 23 21  1  0
 24 21  1  0
  4 25  1  0
  5 26  1  0
  6 27  1  0
  8 28  1  0
 16 29  1  0
 17 30  1  0
 18 31  1  0
 20 32  1  0
M  END
>  <score>  (2) 
-11.391

$$$$
=
     RDKit          3D

 32 33  0  0  0  0  0  0  0  0999 V2000
    3.8340   66.8090   64.2170 O   0  0  0  0  0  0  0  0  0  0  0  0
    3.4910   67.9830   64.1440 C   0  0  0  0  0  0  0  0  0  0  0  0
    2.0770   68.3700   63.8860 C   0  0  0  0  0  0  0  0  0  0  0  0
    1.7210   68.7500   62.5860 C   0  0  0  0  0  0  0  0  0  0  0  0
    0.4110   69.1300   62.2950 C   0  0  0  0  0  0  0  0  0  0  0  0
   -0.5540   69.1360   63.3020 C   0  0  0  0  0  0  0  0  0  0  0  0
   -0.2170   68.7680   64.6130 C   0  0  0  0  0  0  0  0  0  0  0  0
    1.1050   68.3780   64.8960 C   0  0  0  0  0  0  0  0  0  0  0  0
   -1.2670   68.7500   65.7000 C   0  0  0  0  0  0  0  0  0  0  0  0
   -1.2210   67.6200   66.4580 F   0  0  0  0  0  0  0  0  0  0  0  0
   -2.5310   68.8190   65.2010 F   0  0  0  0  0  0  0  0  0  0  0  0
   -1.1500   69.7890   66.5730 F   0  0  0  0  0  0  0  0  0  0  0  0
    4.5500   69.0510   64.2900 C   0  0  0  0  0  0  0  0  0  0  0  0
    5.1040   69.4640   63.2780 O   0  0  0  0  0  0  0  0  0  0  0  0
    4.9230   69.5490   65.6410 C   0  0  0  0  0  0  0  0  0  0  0  0
    6.2320   69.9220   65.9650 C   0  0  0  0  0  0  0  0  0  0  0  0
    6.5280   70.4030   67.2420 C   0  0  0  0  0  0  0  0  0  0  0  0
    5.5210   70.5150   68.2020 C   0  0  0  0  0  0  0  0  0  0  0  0
    4.2050   70.1380   67.9010 C   0  0  0  0  0  0  0  0  0  0  0  0
    3.9150   69.6630   66.6110 C   0  0  0  0  0  0  0  0  0  0  0  0
    3.1060   70.2750   68.9270 C   0  0  0  0  0  0  0  0  0  0  0  0
    2.8190   69.0900   69.5340 F   0  0  0  0  0  0  0  0  0  0  0  0
    3.4220   71.1430   69.9280 F   0  0  0  0  0  0  0  0  0  0  0  0
    1.9320   70.7220   68.4020 F   0  0  0  0  0  0  0  0  0  0  0  0
    2.4794   68.7488   61.7893 H   0  0  0  0  0  0  0  0  0  0  0  0
    0.1388   69.4251   61.2709 H   0  0  0  0  0  0  0  0  0  0  0  0
   -1.5870   69.4315   63.0664 H   0  0  0  0  0  0  0  0  0  0  0  0
    1.3780   68.0769   65.9182 H   0  0  0  0  0  0  0  0  0  0  0  0
    7.0295   69.8362   65.2123 H   0  0  0  0  0  0  0  0  0  0  0  0
    7.5586   70.6947   67.4924 H   0  0  0  0  0  0  0  0  0  0  0  0
    5.7621   70.9023   69.2029 H   0  0  0  0  0  0  0  0  0  0  0  0
    2.8836   69.3765   66.3577 H   0  0  0  0  0  0  0  0  0  0  0  0
  2  1  2  0
  3  2  1  0
  4  3  2  0
  5  4  1  0
  6  5  2  0
  7  6  1  0
  8  7  2  0
  8  3  1  0
  9  7  1  0
 10  9  1  0
 11  9  1  0
 12  9  1  0
 13  2  1  0
 14 13  2  0
 15 13  1  0
 16 15  2  0
 17 16  1  0
 18 17  2  0
 19 18  1  0
 20 19  2  0
 20 15  1  0
 21 19  1  0
 22 21  1  0
 23 21  1  0
 24 21  1  0
  4 25  1  0
  5 26  1  0
  6 27  1  0
  8 28  1  0
 16 29  1  0
 17 30  1  0
 18 31  1  0
 20 32  1  0
M  END
>  <score>  (3) 
-11.096

$$$$
=
     RDKit          3D

 32 33  0  0  0  0  0  0  0  0999 V2000
    3.6870   66.8570   63.9700 O   0  0  0  0  0  0  0  0  0  0  0  0
    3.2610   67.9910   64.1560 C   0  0  0  0  0  0  0  0  0  0  0  0
    1.8470   68.3510   63.8670 C   0  0  0  0  0  0  0  0  0  0  0  0
    1.5030   68.6830   62.5500 C   0  0  0  0  0  0  0  0  0  0  0  0
    0.1930   69.0370   62.2290 C   0  0  0  0  0  0  0  0  0  0  0  0
   -0.7850   69.0660   63.2220 C   0  0  0  0  0  0  0  0  0  0  0  0
   -0.4620   68.7470   64.5500 C   0  0  0  0  0  0  0  0  0  0  0  0
    0.8610   68.3820   64.8630 C   0  0  0  0  0  0  0  0  0  0  0  0
   -1.5260   68.7540   65.6230 C   0  0  0  0  0  0  0  0  0  0  0  0
   -1.3870   69.7900   66.4950 F   0  0  0  0  0  0  0  0  0  0  0  0
   -1.5120   67.6210   66.3750 F   0  0  0  0  0  0  0  0  0  0  0  0
   -2.7890   68.8580   65.1210 F   0  0  0  0  0  0  0  0  0  0  0  0
    4.2190   69.0440   64.6630 C   0  0  0  0  0  0  0  0  0  0  0  0
    5.0480   69.4990   63.8850 O   0  0  0  0  0  0  0  0  0  0  0  0
    4.1670   69.4760   66.0850 C   0  0  0  0  0  0  0  0  0  0  0  0
    3.0010   69.3830   66.8530 C   0  0  0  0  0  0  0  0  0  0  0  0
    3.0080   69.7830   68.1900 C   0  0  0  0  0  0  0  0  0  0  0  0
    4.1780   70.2780   68.7690 C   0  0  0  0  0  0  0  0  0  0  0  0
    5.3540   70.3890   68.0150 C   0  0  0  0  0  0  0  0  0  0  0  0
    5.3400   69.9750   66.6730 C   0  0  0  0  0  0  0  0  0  0  0  0
    6.6280   70.9050   68.6400 C   0  0  0  0  0  0  0  0  0  0  0  0
    6.7830   72.2450   68.4600 F   0  0  0  0  0  0  0  0  0  0  0  0
    6.6800   70.6980   69.9850 F   0  0  0  0  0  0  0  0  0  0  0  0
    7.7500   70.3250   68.1310 F   0  0  0  0  0  0  0  0  0  0  0  0
    2.2719   68.6643   61.7636 H   0  0  0  0  0  0  0  0  0  0  0  0
   -0.0688   69.2935   61.1918 H   0  0  0  0  0  0  0  0  0  0  0  0
   -1.8180   69.3411   62.9626 H   0  0  0  0  0  0  0  0  0  0  0  0
    1.1235   68.1188   65.8983 H   0  0  0  0  0  0  0  0  0  0  0  0
    2.0765   68.9936   66.4017 H   0  0  0  0  0  0  0  0  0  0  0  0
    2.0888   69.7080   68.7895 H   0  0  0  0  0  0  0  0  0  0  0  0
    4.1767   70.5834   69.8258 H   0  0  0  0  0  0  0  0  0  0  0  0
    6.2605   70.0427   66.0746 H   0  0  0  0  0  0  0  0  0  0  0  0
  2  1  2  0
  3  2  1  0
  4  3  2  0
  5  4  1  0
  6  5  2  0
  7  6  1  0
  8  7  2  0
  8  3  1  0
  9  7  1  0
 10  9  1  0
 11  9  1  0
 12  9  1  0
 13  2  1  0
 14 13  2  0
 15 13  1  0
 16 15  2  0
 17 16  1  0
 18 17  2  0
 19 18  1  0
 20 19  2  0
 20 15  1  0
 21 19  1  0
 22 21  1  0
 23 21  1  0
 24 21  1  0
  4 25  1  0
  5 26  1  0
  6 27  1  0
  8 28  1  0
 16 29  1  0
 17 30  1  0
 18 31  1  0
 20 32  1  0
M  END
>  <score>  (4) 
-10.79

$$$$
=
     RDKit          3D

 32 33  0  0  0  0  0  0  0  0999 V2000
    0.5230   68.3520   67.9850 O   0  0  0  0  0  0  0  0  0  0  0  0
    1.4010   68.7260   67.2170 C   0  0  0  0  0  0  0  0  0  0  0  0
    2.5970   69.4680   67.6980 C   0  0  0  0  0  0  0  0  0  0  0  0
    2.4780   70.2290   68.8680 C   0  0  0  0  0  0  0  0  0  0  0  0
    3.5680   70.9500   69.3560 C   0  0  0  0  0  0  0  0  0  0  0  0
    4.7850   70.9210   68.6760 C   0  0  0  0  0  0  0  0  0  0  0  0
    4.9240   70.1730   67.4970 C   0  0  0  0  0  0  0  0  0  0  0  0
    3.8220   69.4420   67.0170 C   0  0  0  0  0  0  0  0  0  0  0  0
    6.2500   70.1200   66.7730 C   0  0  0  0  0  0  0  0  0  0  0  0
    6.3490   69.0530   65.9340 F   0  0  0  0  0  0  0  0  0  0  0  0
    7.3030   70.0290   67.6270 F   0  0  0  0  0  0  0  0  0  0  0  0
    6.4820   71.2200   66.0030 F   0  0  0  0  0  0  0  0  0  0  0  0
    1.2310   68.4430   65.7420 C   0  0  0  0  0  0  0  0  0  0  0  0
    0.1660   68.7360   65.2120 O   0  0  0  0  0  0  0  0  0  0  0  0
    2.3270   67.7910   64.9780 C   0  0  0  0  0  0  0  0  0  0  0  0
    2.4990   66.4030   64.9530 C   0  0  0  0  0  0  0  0  0  0  0  0
    3.5320   65.8370   64.2030 C   0  0  0  0  0  0  0  0  0  0  0  0
    4.3990   66.6520   63.4750 C   0  0  0  0  0  0  0  0  0  0  0  0
    4.2510   68.0460   63.4930 C   0  0  0  0  0  0  0  0  0  0  0  0
    3.2030   68.6060   64.2440 C   0  0  0  0  0  0  0  0  0  0  0  0
    5.1730   68.9330   62.6920 C   0  0  0  0  0  0  0  0  0  0  0  0
    5.5560   70.0380   63.3870 F   0  0  0  0  0  0  0  0  0  0  0  0
    6.3230   68.3050   62.3210 F   0  0  0  0  0  0  0  0  0  0  0  0
    4.6100   69.3910   61.5390 F   0  0  0  0  0  0  0  0  0  0  0  0
    1.5187   70.2583   69.4055 H   0  0  0  0  0  0  0  0  0  0  0  0
    3.4674   71.5418   70.2778 H   0  0  0  0  0  0  0  0  0  0  0  0
    5.6424   71.4887   69.0667 H   0  0  0  0  0  0  0  0  0  0  0  0
    3.9225   68.8445   66.0989 H   0  0  0  0  0  0  0  0  0  0  0  0
    1.8187   65.7556   65.5257 H   0  0  0  0  0  0  0  0  0  0  0  0
    3.6625   64.7449   64.1862 H   0  0  0  0  0  0  0  0  0  0  0  0
    5.2058   66.1970   62.8817 H   0  0  0  0  0  0  0  0  0  0  0  0
    3.0675   69.6976   64.2567 H   0  0  0  0  0  0  0  0  0  0  0  0
  2  1  2  0
  3  2  1  0
  4  3  2  0
  5  4  1  0
  6  5  2  0
  7  6  1  0
  8  7  2  0
  8  3  1  0
  9  7  1  0
 10  9  1  0
 11  9  1  0
 12  9  1  0
 13  2  1  0
 14 13  2  0
 15 13  1  0
 16 15  2  0
 17 16  1  0
 18 17  2  0
 19 18  1  0
 20 19  2  0
 20 15  1  0
 21 19  1  0
 22 21  1  0
 23 21  1  0
 24 21  1  0
  4 25  1  0
  5 26  1  0
  6 27  1  0
  8 28  1  0
 16 29  1  0
 17 30  1  0
 18 31  1  0
 20 32  1  0
M  END
>  <score>  (5) 
-10.578

$$$$
=
     RDKit          3D

 32 33  0  0  0  0  0  0  0  0999 V2000
    1.5430   66.8930   66.8800 O   0  0  0  0  0  0  0  0  0  0  0  0
    1.6970   67.9830   66.3410 C   0  0  0  0  0  0  0  0  0  0  0  0
    2.9780   68.7320   66.4430 C   0  0  0  0  0  0  0  0  0  0  0  0
    3.9180   68.5780   65.4150 C   0  0  0  0  0  0  0  0  0  0  0  0
    5.1390   69.2520   65.4670 C   0  0  0  0  0  0  0  0  0  0  0  0
    5.4320   70.0810   66.5490 C   0  0  0  0  0  0  0  0  0  0  0  0
    4.5090   70.2420   67.5940 C   0  0  0  0  0  0  0  0  0  0  0  0
    3.2770   69.5660   67.5280 C   0  0  0  0  0  0  0  0  0  0  0  0
    4.8160   71.1610   68.7540 C   0  0  0  0  0  0  0  0  0  0  0  0
    5.4420   70.5210   69.7800 F   0  0  0  0  0  0  0  0  0  0  0  0
    3.6950   71.7180   69.2850 F   0  0  0  0  0  0  0  0  0  0  0  0
    5.6290   72.1990   68.4130 F   0  0  0  0  0  0  0  0  0  0  0  0
    0.5330   68.5790   65.5840 C   0  0  0  0  0  0  0  0  0  0  0  0
   -0.5020   68.8130   66.1970 O   0  0  0  0  0  0  0  0  0  0  0  0
    0.6460   68.8330   64.1230 C   0  0  0  0  0  0  0  0  0  0  0  0
   -0.4160   69.3410   63.3670 C   0  0  0  0  0  0  0  0  0  0  0  0
   -0.2530   69.5810   62.0020 C   0  0  0  0  0  0  0  0  0  0  0  0
    0.9690   69.3160   61.3820 C   0  0  0  0  0  0  0  0  0  0  0  0
    2.0430   68.7970   62.1190 C   0  0  0  0  0  0  0  0  0  0  0  0
    1.8720   68.5660   63.4940 C   0  0  0  0  0  0  0  0  0  0  0  0
    3.3740   68.5260   61.4600 C   0  0  0  0  0  0  0  0  0  0  0  0
    3.7810   67.2390   61.6330 F   0  0  0  0  0  0  0  0  0  0  0  0
    3.3520   68.7350   60.1150 F   0  0  0  0  0  0  0  0  0  0  0  0
    4.3810   69.3060   61.9420 F   0  0  0  0  0  0  0  0  0  0  0  0
    3.6920   67.9217   64.5617 H   0  0  0  0  0  0  0  0  0  0  0  0
    5.8701   69.1292   64.6544 H   0  0  0  0  0  0  0  0  0  0  0  0
    6.3941   70.6131   66.5839 H   0  0  0  0  0  0  0  0  0  0  0  0
    2.5416   69.6936   68.3360 H   0  0  0  0  0  0  0  0  0  0  0  0
   -1.3817   69.5517   63.8497 H   0  0  0  0  0  0  0  0  0  0  0  0
   -1.0911   69.9807   61.4122 H   0  0  0  0  0  0  0  0  0  0  0  0
    1.0905   69.5158   60.3071 H   0  0  0  0  0  0  0  0  0  0  0  0
    2.7105   68.1704   64.0859 H   0  0  0  0  0  0  0  0  0  0  0  0
  2  1  2  0
  3  2  1  0
  4  3  2  0
  5  4  1  0
  6  5  2  0
  7  6  1  0
  8  7  2  0
  8  3  1  0
  9  7  1  0
 10  9  1  0
 11  9  1  0
 12  9  1  0
 13  2  1  0
 14 13  2  0
 15 13  1  0
 16 15  2  0
 17 16  1  0
 18 17  2  0
 19 18  1  0
 20 19  2  0
 20 15  1  0
 21 19  1  0
 22 21  1  0
 23 21  1  0
 24 21  1  0
  4 25  1  0
  5 26  1  0
  6 27  1  0
  8 28  1  0
 16 29  1  0
 17 30  1  0
 18 31  1  0
 20 32  1  0
M  END
>  <score>  (6) 
-10.368

$$$$
=
     RDKit          3D

 32 33  0  0  0  0  0  0  0  0999 V2000
    1.4140   67.4890   68.2540 O   0  0  0  0  0  0  0  0  0  0  0  0
    1.2520   68.5380   67.6420 C   0  0  0  0  0  0  0  0  0  0  0  0
    0.2470   68.6600   66.5510 C   0  0  0  0  0  0  0  0  0  0  0  0
   -1.1100   68.6450   66.8980 C   0  0  0  0  0  0  0  0  0  0  0  0
   -2.0930   68.7470   65.9120 C   0  0  0  0  0  0  0  0  0  0  0  0
   -1.7260   68.8610   64.5720 C   0  0  0  0  0  0  0  0  0  0  0  0
   -0.3730   68.8680   64.2010 C   0  0  0  0  0  0  0  0  0  0  0  0
    0.6110   68.7740   65.2030 C   0  0  0  0  0  0  0  0  0  0  0  0
    0.0260   69.0160   62.7510 C   0  0  0  0  0  0  0  0  0  0  0  0
   -0.6520   70.0140   62.1190 F   0  0  0  0  0  0  0  0  0  0  0  0
   -0.2070   67.8860   62.0310 F   0  0  0  0  0  0  0  0  0  0  0  0
    1.3470   69.3030   62.5870 F   0  0  0  0  0  0  0  0  0  0  0  0
    2.1260   69.7190   67.9970 C   0  0  0  0  0  0  0  0  0  0  0  0
    1.6620   70.5870   68.7270 O   0  0  0  0  0  0  0  0  0  0  0  0
    3.4980   69.8260   67.4350 C   0  0  0  0  0  0  0  0  0  0  0  0
    4.5890   70.2530   68.2000 C   0  0  0  0  0  0  0  0  0  0  0  0
    5.8630   70.3170   67.6310 C   0  0  0  0  0  0  0  0  0  0  0  0
    6.0550   69.9560   66.2960 C   0  0  0  0  0  0  0  0  0  0  0  0
    4.9740   69.5350   65.5090 C   0  0  0  0  0  0  0  0  0  0  0  0
    3.6980   69.4660   66.0930 C   0  0  0  0  0  0  0  0  0  0  0  0
    5.1780   69.1240   64.0710 C   0  0  0  0  0  0  0  0  0  0  0  0
    4.0150   69.1330   63.3640 F   0  0  0  0  0  0  0  0  0  0  0  0
    6.0310   69.9470   63.4010 F   0  0  0  0  0  0  0  0  0  0  0  0
    5.6890   67.8690   63.9380 F   0  0  0  0  0  0  0  0  0  0  0  0
   -1.4030   68.5523   67.9542 H   0  0  0  0  0  0  0  0  0  0  0  0
   -3.1566   68.7374   66.1923 H   0  0  0  0  0  0  0  0  0  0  0  0
   -2.5039   68.9462   63.7989 H   0  0  0  0  0  0  0  0  0  0  0  0
    1.6752   68.7902   64.9252 H   0  0  0  0  0  0  0  0  0  0  0  0
    4.4430   70.5390   69.2521 H   0  0  0  0  0  0  0  0  0  0  0  0
    6.7177   70.6529   68.2365 H   0  0  0  0  0  0  0  0  0  0  0  0
    7.0630   70.0023   65.8581 H   0  0  0  0  0  0  0  0  0  0  0  0
    2.8435   69.1250   65.4900 H   0  0  0  0  0  0  0  0  0  0  0  0
  2  1  2  0
  3  2  1  0
  4  3  2  0
  5  4  1  0
  6  5  2  0
  7  6  1  0
  8  7  2  0
  8  3  1  0
  9  7  1  0
 10  9  1  0
 11  9  1  0
 12  9  1  0
 13  2  1  0
 14 13  2  0
 15 13  1  0
 16 15  2  0
 17 16  1  0
 18 17  2  0
 19 18  1  0
 20 19  2  0
 20 15  1  0
 21 19  1  0
 22 21  1  0
 23 21  1  0
 24 21  1  0
  4 25  1  0
  5 26  1  0
  6 27  1  0
  8 28  1  0
 16 29  1  0
 17 30  1  0
 18 31  1  0
 20 32  1  0
M  END
>  <score>  (7) 
-10.087

$$$$
=
     RDKit          3D

 32 33  0  0  0  0  0  0  0  0999 V2000
    1.1320   67.2370   67.8150 O   0  0  0  0  0  0  0  0  0  0  0  0
    0.9960   68.3350   67.2880 C   0  0  0  0  0  0  0  0  0  0  0  0
    0.0270   68.5570   66.1820 C   0  0  0  0  0  0  0  0  0  0  0  0
   -1.3390   68.5790   66.4930 C   0  0  0  0  0  0  0  0  0  0  0  0
   -2.2900   68.7750   65.4910 C   0  0  0  0  0  0  0  0  0  0  0  0
   -1.8830   68.9460   64.1680 C   0  0  0  0  0  0  0  0  0  0  0  0
   -0.5210   68.9180   63.8320 C   0  0  0  0  0  0  0  0  0  0  0  0
    0.4310   68.7280   64.8510 C   0  0  0  0  0  0  0  0  0  0  0  0
   -0.0780   69.1280   62.4030 C   0  0  0  0  0  0  0  0  0  0  0  0
   -0.8140   70.0750   61.7580 F   0  0  0  0  0  0  0  0  0  0  0  0
   -0.1810   67.9960   61.6560 F   0  0  0  0  0  0  0  0  0  0  0  0
    1.2190   69.5320   62.2990 F   0  0  0  0  0  0  0  0  0  0  0  0
    1.8670   69.4730   67.7680 C   0  0  0  0  0  0  0  0  0  0  0  0
    1.3810   70.2930   68.5370 O   0  0  0  0  0  0  0  0  0  0  0  0
    3.2650   69.5990   67.2780 C   0  0  0  0  0  0  0  0  0  0  0  0
    3.6410   69.2260   65.9830 C   0  0  0  0  0  0  0  0  0  0  0  0
    4.9630   69.3830   65.5640 C   0  0  0  0  0  0  0  0  0  0  0  0
    5.9180   69.9120   66.4330 C   0  0  0  0  0  0  0  0  0  0  0  0
    5.5650   70.2830   67.7390 C   0  0  0  0  0  0  0  0  0  0  0  0
    4.2300   70.1300   68.1480 C   0  0  0  0  0  0  0  0  0  0  0  0
    6.5880   70.8750   68.6780 C   0  0  0  0  0  0  0  0  0  0  0  0
    6.2640   70.6720   69.9840 F   0  0  0  0  0  0  0  0  0  0  0  0
    7.8310   70.3430   68.5120 F   0  0  0  0  0  0  0  0  0  0  0  0
    6.7360   72.2210   68.5330 F   0  0  0  0  0  0  0  0  0  0  0  0
   -1.6641   68.4407   67.5347 H   0  0  0  0  0  0  0  0  0  0  0  0
   -3.3602   68.7946   65.7444 H   0  0  0  0  0  0  0  0  0  0  0  0
   -2.6358   69.1041   63.3817 H   0  0  0  0  0  0  0  0  0  0  0  0
    1.5020   68.7136   64.6004 H   0  0  0  0  0  0  0  0  0  0  0  0
    2.8929   68.8080   65.2934 H   0  0  0  0  0  0  0  0  0  0  0  0
    5.2532   69.0885   64.5447 H   0  0  0  0  0  0  0  0  0  0  0  0
    6.9558   70.0391   66.0913 H   0  0  0  0  0  0  0  0  0  0  0  0
    3.9366   70.4306   69.1646 H   0  0  0  0  0  0  0  0  0  0  0  0
  2  1  2  0
  3  2  1  0
  4  3  2  0
  5  4  1  0
  6  5  2  0
  7  6  1  0
  8  7  2  0
  8  3  1  0
  9  7  1  0
 10  9  1  0
 11  9  1  0
 12  9  1  0
 13  2  1  0
 14 13  2  0
 15 13  1  0
 16 15  2  0
 17 16  1  0
 18 17  2  0
 19 18  1  0
 20 19  2  0
 20 15  1  0
 21 19  1  0
 22 21  1  0
 23 21  1  0
 24 21  1  0
  4 25  1  0
  5 26  1  0
  6 27  1  0
  8 28  1  0
 16 29  1  0
 17 30  1  0
 18 31  1  0
 20 32  1  0
M  END
>  <score>  (8) 
-10.006

$$$$
=
     RDKit          3D

 32 33  0  0  0  0  0  0  0  0999 V2000
    2.7200   66.5740   65.1740 O   0  0  0  0  0  0  0  0  0  0  0  0
    2.2630   67.4660   65.8800 C   0  0  0  0  0  0  0  0  0  0  0  0
    1.1310   67.2210   66.8140 C   0  0  0  0  0  0  0  0  0  0  0  0
   -0.1530   67.6150   66.4160 C   0  0  0  0  0  0  0  0  0  0  0  0
   -1.2470   67.4160   67.2590 C   0  0  0  0  0  0  0  0  0  0  0  0
   -1.0650   66.8250   68.5090 C   0  0  0  0  0  0  0  0  0  0  0  0
    0.2130   66.4310   68.9310 C   0  0  0  0  0  0  0  0  0  0  0  0
    1.3090   66.6280   68.0710 C   0  0  0  0  0  0  0  0  0  0  0  0
    0.4070   65.7670   70.2750 C   0  0  0  0  0  0  0  0  0  0  0  0
   -0.0690   64.4920   70.3060 F   0  0  0  0  0  0  0  0  0  0  0  0
   -0.2270   66.4320   71.2780 F   0  0  0  0  0  0  0  0  0  0  0  0
    1.7150   65.6840   70.6460 F   0  0  0  0  0  0  0  0  0  0  0  0
    2.8580   68.8500   65.7620 C   0  0  0  0  0  0  0  0  0  0  0  0
    2.9540   69.3490   64.6470 O   0  0  0  0  0  0  0  0  0  0  0  0
    3.3440   69.5580   66.9760 C   0  0  0  0  0  0  0  0  0  0  0  0
    2.4860   69.9460   68.0100 C   0  0  0  0  0  0  0  0  0  0  0  0
    2.9940   70.5900   69.1390 C   0  0  0  0  0  0  0  0  0  0  0  0
    4.3610   70.8510   69.2430 C   0  0  0  0  0  0  0  0  0  0  0  0
    5.2380   70.4790   68.2140 C   0  0  0  0  0  0  0  0  0  0  0  0
    4.7180   69.8230   67.0860 C   0  0  0  0  0  0  0  0  0  0  0  0
    6.7210   70.7390   68.3290 C   0  0  0  0  0  0  0  0  0  0  0  0
    7.4290   70.1180   67.3470 F   0  0  0  0  0  0  0  0  0  0  0  0
    7.0350   72.0610   68.2410 F   0  0  0  0  0  0  0  0  0  0  0  0
    7.2530   70.3070   69.5060 F   0  0  0  0  0  0  0  0  0  0  0  0
   -0.2999   68.0845   65.4321 H   0  0  0  0  0  0  0  0  0  0  0  0
   -2.2526   67.7252   66.9377 H   0  0  0  0  0  0  0  0  0  0  0  0
   -1.9306   66.6667   69.1690 H   0  0  0  0  0  0  0  0  0  0  0  0
    2.3143   66.3138   68.3882 H   0  0  0  0  0  0  0  0  0  0  0  0
    1.4076   69.7430   67.9331 H   0  0  0  0  0  0  0  0  0  0  0  0
    2.3148   70.8929   69.9495 H   0  0  0  0  0  0  0  0  0  0  0  0
    4.7538   71.3527   70.1397 H   0  0  0  0  0  0  0  0  0  0  0  0
    5.3968   69.5128   66.2779 H   0  0  0  0  0  0  0  0  0  0  0  0
  2  1  2  0
  3  2  1  0
  4  3  2  0
  5  4  1  0
  6  5  2  0
  7  6  1  0
  8  7  2  0
  8  3  1  0
  9  7  1  0
 10  9  1  0
 11  9  1  0
 12  9  1  0
 13  2  1  0
 14 13  2  0
 15 13  1  0
 16 15  2  0
 17 16  1  0
 18 17  2  0
 19 18  1  0
 20 19  2  0
 20 15  1  0
 21 19  1  0
 22 21  1  0
 23 21  1  0
 24 21  1  0
  4 25  1  0
  5 26  1  0
  6 27  1  0
  8 28  1  0
 16 29  1  0
 17 30  1  0
 18 31  1  0
 20 32  1  0
M  END
>  <score>  (9) 
-10.004

$$$$
