=
     RDKit          3D

 31 32  0  0  0  0  0  0  0  0999 V2000
    2.3150   68.7490   66.4660 C   0  0  0  0  0  0  0  0  0  0  0  0
    2.8570   69.4760   67.5450 C   0  0  0  0  0  0  0  0  0  0  0  0
    4.1480   70.0210   67.4930 C   0  0  0  0  0  0  0  0  0  0  0  0
    4.8970   69.9000   66.3260 C   0  0  0  0  0  0  0  0  0  0  0  0
    4.3640   69.1970   65.2380 C   0  0  0  0  0  0  0  0  0  0  0  0
    3.0850   68.6190   65.2940 C   0  0  0  0  0  0  0  0  0  0  0  0
    6.4510   70.6180   66.0960 Cl  0  0  0  0  0  0  0  0  0  0  0  0
    0.8150   66.8940   66.3530 O   0  0  0  0  0  1  0  0  0  0  0  0
    0.9370   68.1300   66.6320 C   0  0  0  0  0  0  0  0  0  0  0  0
    0.0180   68.8950   67.0610 O   0  0  0  0  0  0  0  0  0  0  0  0
    4.7940   70.8370   68.9190 S   0  0  0  0  0  6  0  0  0  0  0  0
    6.0800   70.2520   69.2290 O   0  0  0  0  0  0  0  0  0  0  0  0
    3.7450   70.9850   69.9010 O   0  0  0  0  0  0  0  0  0  0  0  0
    5.1250   72.4130   68.4080 N   0  0  0  0  0  0  0  0  0  0  0  0
    2.6170   67.8920   64.1680 N   0  0  0  0  0  0  0  0  0  0  0  0
    3.7130   67.2190   63.4550 C   0  0  0  0  0  0  0  0  0  0  0  0
    3.8960   65.7880   63.8430 C   0  0  0  0  0  0  0  0  0  0  0  0
    3.2130   64.9600   64.7120 C   0  0  0  0  0  0  0  0  0  0  0  0
    3.8670   63.7070   64.6680 C   0  0  0  0  0  0  0  0  0  0  0  0
    4.9090   63.8500   63.7830 C   0  0  0  0  0  0  0  0  0  0  0  0
    4.9410   65.1110   63.2780 O   0  0  0  0  0  0  0  0  0  0  0  0
    2.2513   69.6197   68.4519 H   0  0  0  0  0  0  0  0  0  0  0  0
    4.9603   69.0953   64.3193 H   0  0  0  0  0  0  0  0  0  0  0  0
    5.2526   73.0207   69.2298 H   0  0  0  0  0  0  0  0  0  0  0  0
    5.9851   72.4167   67.8414 H   0  0  0  0  0  0  0  0  0  0  0  0
    1.6281   67.8419   63.8844 H   0  0  0  0  0  0  0  0  0  0  0  0
    3.5026   67.2616   62.3762 H   0  0  0  0  0  0  0  0  0  0  0  0
    4.6408   67.7450   63.7242 H   0  0  0  0  0  0  0  0  0  0  0  0
    2.3339   65.2232   65.3186 H   0  0  0  0  0  0  0  0  0  0  0  0
    3.5964   62.8004   65.2291 H   0  0  0  0  0  0  0  0  0  0  0  0
    5.6196   63.0527   63.5197 H   0  0  0  0  0  0  0  0  0  0  0  0
  2  1  2  0
  3  2  1  0
  4  3  2  0
  5  4  1  0
  6  5  2  0
  6  1  1  0
  7  4  1  0
  9  8  1  0
  9  1  1  0
 10  9  2  0
 11  3  1  0
 12 11  2  0
 13 11  2  0
 14 11  1  0
 15  6  1  0
 16 15  1  0
 17 16  1  0
 18 17  2  0
 19 18  1  0
 20 19  2  0
 21 20  1  0
 21 17  1  0
  2 22  1  0
  5 23  1  0
 14 24  1  0
 14 25  1  0
 15 26  1  0
 16 27  1  0
 16 28  1  0
 18 29  1  0
 19 30  1  0
 20 31  1  0
M  CHG  1   8  -1
M  END
>  <score>  (1) 
-9.128

$$$$
=
     RDKit          3D

 31 32  0  0  0  0  0  0  0  0999 V2000
    4.4510   69.1990   64.8680 C   0  0  0  0  0  0  0  0  0  0  0  0
    5.3120   69.7670   65.8290 C   0  0  0  0  0  0  0  0  0  0  0  0
    4.8780   70.0520   67.1310 C   0  0  0  0  0  0  0  0  0  0  0  0
    3.5820   69.7130   67.5120 C   0  0  0  0  0  0  0  0  0  0  0  0
    2.7210   69.1310   66.5730 C   0  0  0  0  0  0  0  0  0  0  0  0
    3.1370   68.8720   65.2570 C   0  0  0  0  0  0  0  0  0  0  0  0
    2.9620   69.9120   69.1110 Cl  0  0  0  0  0  0  0  0  0  0  0  0
    4.1560   69.1250   62.4990 O   0  0  0  0  0  1  0  0  0  0  0  0
    4.9810   68.9880   63.4590 C   0  0  0  0  0  0  0  0  0  0  0  0
    6.2160   68.7140   63.3510 O   0  0  0  0  0  0  0  0  0  0  0  0
    5.9850   70.8500   68.2510 S   0  0  0  0  0  6  0  0  0  0  0  0
    7.3350   70.6320   67.7820 O   0  0  0  0  0  0  0  0  0  0  0  0
    5.5740   70.5730   69.6080 O   0  0  0  0  0  0  0  0  0  0  0  0
    5.6970   72.5020   68.0470 N   0  0  0  0  0  0  0  0  0  0  0  0
    2.2060   68.3090   64.3460 N   0  0  0  0  0  0  0  0  0  0  0  0
    1.7880   66.9590   64.7520 C   0  0  0  0  0  0  0  0  0  0  0  0
    2.8350   65.9150   64.5400 C   0  0  0  0  0  0  0  0  0  0  0  0
    3.7650   65.7130   63.5390 C   0  0  0  0  0  0  0  0  0  0  0  0
    4.4760   64.5400   63.8840 C   0  0  0  0  0  0  0  0  0  0  0  0
    3.9330   64.0970   65.0670 C   0  0  0  0  0  0  0  0  0  0  0  0
    2.9310   64.9200   65.4730 O   0  0  0  0  0  0  0  0  0  0  0  0
    6.3518   69.9925   65.5497 H   0  0  0  0  0  0  0  0  0  0  0  0
    1.6953   68.8708   66.8733 H   0  0  0  0  0  0  0  0  0  0  0  0
    5.6183   72.9533   68.9695 H   0  0  0  0  0  0  0  0  0  0  0  0
    6.4770   72.9244   67.5235 H   0  0  0  0  0  0  0  0  0  0  0  0
    1.8639   68.7887   63.5012 H   0  0  0  0  0  0  0  0  0  0  0  0
    1.5326   66.9819   65.8217 H   0  0  0  0  0  0  0  0  0  0  0  0
    0.9300   66.6855   64.1203 H   0  0  0  0  0  0  0  0  0  0  0  0
    3.9217   66.3405   62.6492 H   0  0  0  0  0  0  0  0  0  0  0  0
    5.2980   64.0756   63.3195 H   0  0  0  0  0  0  0  0  0  0  0  0
    4.2643   63.1996   65.6101 H   0  0  0  0  0  0  0  0  0  0  0  0
  2  1  2  0
  3  2  1  0
  4  3  2  0
  5  4  1  0
  6  5  2  0
  6  1  1  0
  7  4  1  0
  9  8  1  0
  9  1  1  0
 10  9  2  0
 11  3  1  0
 12 11  2  0
 13 11  2  0
 14 11  1  0
 15  6  1  0
 16 15  1  0
 17 16  1  0
 18 17  2  0
 19 18  1  0
 20 19  2  0
 21 20  1  0
 21 17  1  0
  2 22  1  0
  5 23  1  0
 14 24  1  0
 14 25  1  0
 15 26  1  0
 16 27  1  0
 16 28  1  0
 18 29  1  0
 19 30  1  0
 20 31  1  0
M  CHG  1   8  -1
M  END
>  <score>  (2) 
-8.872

$$$$
=
     RDKit          3D

 31 32  0  0  0  0  0  0  0  0999 V2000
    4.1800   69.0540   65.2020 C   0  0  0  0  0  0  0  0  0  0  0  0
    5.1760   69.6290   66.0170 C   0  0  0  0  0  0  0  0  0  0  0  0
    4.8880   70.1250   67.2960 C   0  0  0  0  0  0  0  0  0  0  0  0
    3.5990   69.9940   67.8080 C   0  0  0  0  0  0  0  0  0  0  0  0
    2.6030   69.4070   67.0170 C   0  0  0  0  0  0  0  0  0  0  0  0
    2.8760   68.9380   65.7220 C   0  0  0  0  0  0  0  0  0  0  0  0
    3.1420   70.4630   69.4060 Cl  0  0  0  0  0  0  0  0  0  0  0  0
    5.1690   69.4500   63.0650 O   0  0  0  0  0  1  0  0  0  0  0  0
    4.5630   68.6080   63.8010 C   0  0  0  0  0  0  0  0  0  0  0  0
    4.2640   67.4140   63.4830 O   0  0  0  0  0  0  0  0  0  0  0  0
    6.1670   70.9170   68.2200 S   0  0  0  0  0  6  0  0  0  0  0  0
    7.4140   70.7350   67.5110 O   0  0  0  0  0  0  0  0  0  0  0  0
    6.0090   70.6010   69.6210 O   0  0  0  0  0  0  0  0  0  0  0  0
    5.8230   72.5680   68.1140 N   0  0  0  0  0  0  0  0  0  0  0  0
    1.8140   68.3820   64.9610 N   0  0  0  0  0  0  0  0  0  0  0  0
    1.1520   67.2760   65.6690 C   0  0  0  0  0  0  0  0  0  0  0  0
   -0.2270   67.6010   66.1400 C   0  0  0  0  0  0  0  0  0  0  0  0
   -0.9810   67.1530   67.2070 C   0  0  0  0  0  0  0  0  0  0  0  0
   -2.2260   67.8180   67.1260 C   0  0  0  0  0  0  0  0  0  0  0  0
   -2.1580   68.6230   66.0130 C   0  0  0  0  0  0  0  0  0  0  0  0
   -0.9510   68.4960   65.4020 O   0  0  0  0  0  0  0  0  0  0  0  0
    6.2072   69.6901   65.6391 H   0  0  0  0  0  0  0  0  0  0  0  0
    1.5838   69.3113   67.4196 H   0  0  0  0  0  0  0  0  0  0  0  0
    5.7407   72.9631   69.0616 H   0  0  0  0  0  0  0  0  0  0  0  0
    6.5826   73.0452   67.6079 H   0  0  0  0  0  0  0  0  0  0  0  0
    1.5401   68.7136   64.0251 H   0  0  0  0  0  0  0  0  0  0  0  0
    1.0916   66.4148   64.9873 H   0  0  0  0  0  0  0  0  0  0  0  0
    1.7543   67.0631   66.5645 H   0  0  0  0  0  0  0  0  0  0  0  0
   -0.6734   66.4225   67.9697 H   0  0  0  0  0  0  0  0  0  0  0  0
   -3.0775   67.7128   67.8144 H   0  0  0  0  0  0  0  0  0  0  0  0
   -2.9692   69.2795   65.6652 H   0  0  0  0  0  0  0  0  0  0  0  0
  2  1  2  0
  3  2  1  0
  4  3  2  0
  5  4  1  0
  6  5  2  0
  6  1  1  0
  7  4  1  0
  9  8  1  0
  9  1  1  0
 10  9  2  0
 11  3  1  0
 12 11  2  0
 13 11  2  0
 14 11  1  0
 15  6  1  0
 16 15  1  0
 17 16  1  0
 18 17  2  0
 19 18  1  0
 20 19  2  0
 21 20  1  0
 21 17  1  0
  2 22  1  0
  5 23  1  0
 14 24  1  0
 14 25  1  0
 15 26  1  0
 16 27  1  0
 16 28  1  0
 18 29  1  0
 19 30  1  0
 20 31  1  0
M  CHG  1   8  -1
M  END
>  <score>  (3) 
-8.835

$$$$
=
     RDKit          3D

 31 32  0  0  0  0  0  0  0  0999 V2000
    3.7920   69.3730   65.8790 C   0  0  0  0  0  0  0  0  0  0  0  0
    4.2260   69.1730   64.5520 C   0  0  0  0  0  0  0  0  0  0  0  0
    3.3550   68.7160   63.5530 C   0  0  0  0  0  0  0  0  0  0  0  0
    2.0120   68.5090   63.8560 C   0  0  0  0  0  0  0  0  0  0  0  0
    1.5630   68.7210   65.1650 C   0  0  0  0  0  0  0  0  0  0  0  0
    2.4350   69.1470   66.1800 C   0  0  0  0  0  0  0  0  0  0  0  0
    0.8200   68.0520   62.6930 Cl  0  0  0  0  0  0  0  0  0  0  0  0
    4.3760   70.1930   68.0440 O   0  0  0  0  0  1  0  0  0  0  0  0
    4.8170   69.8010   66.9170 C   0  0  0  0  0  0  0  0  0  0  0  0
    6.0390   69.7100   66.5810 O   0  0  0  0  0  0  0  0  0  0  0  0
    3.9930   68.4000   61.9370 S   0  0  0  0  0  6  0  0  0  0  0  0
    3.3470   69.3040   61.0130 O   0  0  0  0  0  0  0  0  0  0  0  0
    4.0560   66.9730   61.7200 O   0  0  0  0  0  0  0  0  0  0  0  0
    5.6070   68.8940   62.0010 N   0  0  0  0  0  0  0  0  0  0  0  0
    1.9220   69.3120   67.4930 N   0  0  0  0  0  0  0  0  0  0  0  0
    0.6150   68.6590   67.6580 C   0  0  0  0  0  0  0  0  0  0  0  0
    0.6240   67.5300   68.6360 C   0  0  0  0  0  0  0  0  0  0  0  0
    1.5320   67.1330   69.5970 C   0  0  0  0  0  0  0  0  0  0  0  0
    0.9930   65.9740   70.2040 C   0  0  0  0  0  0  0  0  0  0  0  0
   -0.2040   65.7340   69.5710 C   0  0  0  0  0  0  0  0  0  0  0  0
   -0.4370   66.6680   68.6130 O   0  0  0  0  0  0  0  0  0  0  0  0
    5.2750   69.3810   64.2942 H   0  0  0  0  0  0  0  0  0  0  0  0
    0.5030   68.5500   65.4039 H   0  0  0  0  0  0  0  0  0  0  0  0
    5.8999   68.9836   62.9844 H   0  0  0  0  0  0  0  0  0  0  0  0
    6.1988   68.1956   61.5288 H   0  0  0  0  0  0  0  0  0  0  0  0
    2.4073   69.8276   68.2410 H   0  0  0  0  0  0  0  0  0  0  0  0
   -0.1077   69.4123   68.0047 H   0  0  0  0  0  0  0  0  0  0  0  0
    0.3438   68.2337   66.6805 H   0  0  0  0  0  0  0  0  0  0  0  0
    2.4865   67.6214   69.8425 H   0  0  0  0  0  0  0  0  0  0  0  0
    1.4408   65.3844   71.0175 H   0  0  0  0  0  0  0  0  0  0  0  0
   -0.8803   64.8995   69.8082 H   0  0  0  0  0  0  0  0  0  0  0  0
  2  1  2  0
  3  2  1  0
  4  3  2  0
  5  4  1  0
  6  5  2  0
  6  1  1  0
  7  4  1  0
  9  8  1  0
  9  1  1  0
 10  9  2  0
 11  3  1  0
 12 11  2  0
 13 11  2  0
 14 11  1  0
 15  6  1  0
 16 15  1  0
 17 16  1  0
 18 17  2  0
 19 18  1  0
 20 19  2  0
 21 20  1  0
 21 17  1  0
  2 22  1  0
  5 23  1  0
 14 24  1  0
 14 25  1  0
 15 26  1  0
 16 27  1  0
 16 28  1  0
 18 29  1  0
 19 30  1  0
 20 31  1  0
M  CHG  1   8  -1
M  END
>  <score>  (4) 
-8.487

$$$$
=
     RDKit          3D

 31 32  0  0  0  0  0  0  0  0999 V2000
    3.8730   69.3830   65.8530 C   0  0  0  0  0  0  0  0  0  0  0  0
    4.3080   69.1680   64.5290 C   0  0  0  0  0  0  0  0  0  0  0  0
    3.4310   68.7280   63.5280 C   0  0  0  0  0  0  0  0  0  0  0  0
    2.0820   68.5540   63.8250 C   0  0  0  0  0  0  0  0  0  0  0  0
    1.6320   68.7810   65.1310 C   0  0  0  0  0  0  0  0  0  0  0  0
    2.5090   69.1910   66.1490 C   0  0  0  0  0  0  0  0  0  0  0  0
    0.8840   68.1220   62.6580 Cl  0  0  0  0  0  0  0  0  0  0  0  0
    4.4670   70.2330   68.0040 O   0  0  0  0  0  1  0  0  0  0  0  0
    4.9030   69.7900   66.8940 C   0  0  0  0  0  0  0  0  0  0  0  0
    6.1230   69.6320   66.5780 O   0  0  0  0  0  0  0  0  0  0  0  0
    4.0680   68.3910   61.9160 S   0  0  0  0  0  6  0  0  0  0  0  0
    3.4470   69.3070   60.9850 O   0  0  0  0  0  0  0  0  0  0  0  0
    4.0990   66.9620   61.7050 O   0  0  0  0  0  0  0  0  0  0  0  0
    5.6930   68.8480   61.9840 N   0  0  0  0  0  0  0  0  0  0  0  0
    1.9950   69.3730   67.4590 N   0  0  0  0  0  0  0  0  0  0  0  0
    1.4300   68.1300   68.0040 C   0  0  0  0  0  0  0  0  0  0  0  0
   -0.0180   67.9370   67.6910 C   0  0  0  0  0  0  0  0  0  0  0  0
   -0.9910   68.7880   67.2030 C   0  0  0  0  0  0  0  0  0  0  0  0
   -2.1840   68.0320   67.1290 C   0  0  0  0  0  0  0  0  0  0  0  0
   -1.8670   66.7730   67.5810 C   0  0  0  0  0  0  0  0  0  0  0  0
   -0.5560   66.7030   67.9310 O   0  0  0  0  0  0  0  0  0  0  0  0
    5.3627   69.3503   64.2752 H   0  0  0  0  0  0  0  0  0  0  0  0
    0.5673   68.6350   65.3655 H   0  0  0  0  0  0  0  0  0  0  0  0
    5.9856   68.9303   62.9681 H   0  0  0  0  0  0  0  0  0  0  0  0
    6.2697   68.1366   61.5127 H   0  0  0  0  0  0  0  0  0  0  0  0
    2.0153   70.2687   67.9672 H   0  0  0  0  0  0  0  0  0  0  0  0
    1.9912   67.2815   67.5857 H   0  0  0  0  0  0  0  0  0  0  0  0
    1.5152   68.1928   69.0989 H   0  0  0  0  0  0  0  0  0  0  0  0
   -0.8630   69.8450   66.9266 H   0  0  0  0  0  0  0  0  0  0  0  0
   -3.1671   68.3810   66.7802 H   0  0  0  0  0  0  0  0  0  0  0  0
   -2.5778   65.9363   67.6499 H   0  0  0  0  0  0  0  0  0  0  0  0
  2  1  2  0
  3  2  1  0
  4  3  2  0
  5  4  1  0
  6  5  2  0
  6  1  1  0
  7  4  1  0
  9  8  1  0
  9  1  1  0
 10  9  2  0
 11  3  1  0
 12 11  2  0
 13 11  2  0
 14 11  1  0
 15  6  1  0
 16 15  1  0
 17 16  1  0
 18 17  2  0
 19 18  1  0
 20 19  2  0
 21 20  1  0
 21 17  1  0
  2 22  1  0
  5 23  1  0
 14 24  1  0
 14 25  1  0
 15 26  1  0
 16 27  1  0
 16 28  1  0
 18 29  1  0
 19 30  1  0
 20 31  1  0
M  CHG  1   8  -1
M  END
>  <score>  (5) 
-8.421

$$$$
=
     RDKit          3D

 31 32  0  0  0  0  0  0  0  0999 V2000
    0.8760   68.6690   64.4520 C   0  0  0  0  0  0  0  0  0  0  0  0
    1.6460   68.5030   63.2830 C   0  0  0  0  0  0  0  0  0  0  0  0
    3.0470   68.5420   63.3110 C   0  0  0  0  0  0  0  0  0  0  0  0
    3.7050   68.6860   64.5300 C   0  0  0  0  0  0  0  0  0  0  0  0
    2.9540   68.8330   65.7030 C   0  0  0  0  0  0  0  0  0  0  0  0
    1.5490   68.8280   65.6800 C   0  0  0  0  0  0  0  0  0  0  0  0
    5.4220   68.6400   64.7120 Cl  0  0  0  0  0  0  0  0  0  0  0  0
   -1.3160   68.6780   65.4010 O   0  0  0  0  0  1  0  0  0  0  0  0
   -0.6380   68.6860   64.3240 C   0  0  0  0  0  0  0  0  0  0  0  0
   -1.1080   68.7320   63.1440 O   0  0  0  0  0  0  0  0  0  0  0  0
    3.9400   68.4210   61.7930 S   0  0  0  0  0  6  0  0  0  0  0  0
    4.1520   67.0210   61.5050 O   0  0  0  0  0  0  0  0  0  0  0  0
    5.0110   69.3920   61.7910 O   0  0  0  0  0  0  0  0  0  0  0  0
    2.8660   68.9690   60.6100 N   0  0  0  0  0  0  0  0  0  0  0  0
    0.8470   69.0140   66.8990 N   0  0  0  0  0  0  0  0  0  0  0  0
    1.6440   68.5890   68.0610 C   0  0  0  0  0  0  0  0  0  0  0  0
    1.0270   67.4740   68.8400 C   0  0  0  0  0  0  0  0  0  0  0  0
    1.4440   66.7680   69.9520 C   0  0  0  0  0  0  0  0  0  0  0  0
    0.4350   65.8160   70.2230 C   0  0  0  0  0  0  0  0  0  0  0  0
   -0.5290   65.9940   69.2590 C   0  0  0  0  0  0  0  0  0  0  0  0
   -0.1780   66.9950   68.4090 O   0  0  0  0  0  0  0  0  0  0  0  0
    1.1340   68.3385   62.3234 H   0  0  0  0  0  0  0  0  0  0  0  0
    3.4756   68.9551   66.6637 H   0  0  0  0  0  0  0  0  0  0  0  0
    2.0419   69.3895   61.0627 H   0  0  0  0  0  0  0  0  0  0  0  0
    3.3328   69.6749   60.0230 H   0  0  0  0  0  0  0  0  0  0  0  0
   -0.1058   69.4000   66.9630 H   0  0  0  0  0  0  0  0  0  0  0  0
    2.6299   68.2578   67.7029 H   0  0  0  0  0  0  0  0  0  0  0  0
    1.7105   69.4539   68.7374 H   0  0  0  0  0  0  0  0  0  0  0  0
    2.3770   66.9173   70.5152 H   0  0  0  0  0  0  0  0  0  0  0  0
    0.4234   65.0805   71.0409 H   0  0  0  0  0  0  0  0  0  0  0  0
   -1.4565   65.4072   69.1857 H   0  0  0  0  0  0  0  0  0  0  0  0
  2  1  2  0
  3  2  1  0
  4  3  2  0
  5  4  1  0
  6  5  2  0
  6  1  1  0
  7  4  1  0
  9  8  1  0
  9  1  1  0
 10  9  2  0
 11  3  1  0
 12 11  2  0
 13 11  2  0
 14 11  1  0
 15  6  1  0
 16 15  1  0
 17 16  1  0
 18 17  2  0
 19 18  1  0
 20 19  2  0
 21 20  1  0
 21 17  1  0
  2 22  1  0
  5 23  1  0
 14 24  1  0
 14 25  1  0
 15 26  1  0
 16 27  1  0
 16 28  1  0
 18 29  1  0
 19 30  1  0
 20 31  1  0
M  CHG  1   8  -1
M  END
>  <score>  (6) 
-8.115

$$$$
=
     RDKit          3D

 31 32  0  0  0  0  0  0  0  0999 V2000
    4.0840   69.0880   64.3950 C   0  0  0  0  0  0  0  0  0  0  0  0
    2.7040   68.8180   64.2920 C   0  0  0  0  0  0  0  0  0  0  0  0
    1.8670   68.8180   65.4170 C   0  0  0  0  0  0  0  0  0  0  0  0
    2.3910   69.1530   66.6620 C   0  0  0  0  0  0  0  0  0  0  0  0
    3.7560   69.4420   66.7770 C   0  0  0  0  0  0  0  0  0  0  0  0
    4.6090   69.4130   65.6610 C   0  0  0  0  0  0  0  0  0  0  0  0
    1.4470   69.2950   68.1010 Cl  0  0  0  0  0  0  0  0  0  0  0  0
    6.1610   68.6970   63.2840 O   0  0  0  0  0  1  0  0  0  0  0  0
    4.9330   68.9970   63.1380 C   0  0  0  0  0  0  0  0  0  0  0  0
    4.3400   69.2060   62.0350 O   0  0  0  0  0  0  0  0  0  0  0  0
    0.1680   68.3770   65.2230 S   0  0  0  0  0  6  0  0  0  0  0  0
   -0.0710   68.1100   63.8230 O   0  0  0  0  0  0  0  0  0  0  0  0
   -0.6500   69.2800   65.9990 O   0  0  0  0  0  0  0  0  0  0  0  0
    0.0130   66.8860   66.0010 N   0  0  0  0  0  0  0  0  0  0  0  0
    5.9890   69.6850   65.8510 N   0  0  0  0  0  0  0  0  0  0  0  0
    6.2060   70.9680   66.5360 C   0  0  0  0  0  0  0  0  0  0  0  0
    6.4950   70.8330   67.9950 C   0  0  0  0  0  0  0  0  0  0  0  0
    5.6840   70.6200   69.0930 C   0  0  0  0  0  0  0  0  0  0  0  0
    6.5350   70.5980   70.2210 C   0  0  0  0  0  0  0  0  0  0  0  0
    7.8080   70.8040   69.7450 C   0  0  0  0  0  0  0  0  0  0  0  0
    7.7970   70.9540   68.3940 O   0  0  0  0  0  0  0  0  0  0  0  0
    2.2728   68.6017   63.3034 H   0  0  0  0  0  0  0  0  0  0  0  0
    4.1701   69.6976   67.7635 H   0  0  0  0  0  0  0  0  0  0  0  0
    0.0277   67.0278   67.0211 H   0  0  0  0  0  0  0  0  0  0  0  0
   -0.8781   66.4474   65.7282 H   0  0  0  0  0  0  0  0  0  0  0  0
    6.7476   69.0587   65.5457 H   0  0  0  0  0  0  0  0  0  0  0  0
    7.0578   71.4754   66.0596 H   0  0  0  0  0  0  0  0  0  0  0  0
    5.2706   71.5400   66.4471 H   0  0  0  0  0  0  0  0  0  0  0  0
    4.5914   70.4927   69.0898 H   0  0  0  0  0  0  0  0  0  0  0  0
    6.2383   70.4465   71.2693 H   0  0  0  0  0  0  0  0  0  0  0  0
    8.7115   70.8422   70.3713 H   0  0  0  0  0  0  0  0  0  0  0  0
  2  1  2  0
  3  2  1  0
  4  3  2  0
  5  4  1  0
  6  5  2  0
  6  1  1  0
  7  4  1  0
  9  8  1  0
  9  1  1  0
 10  9  2  0
 11  3  1  0
 12 11  2  0
 13 11  2  0
 14 11  1  0
 15  6  1  0
 16 15  1  0
 17 16  1  0
 18 17  2  0
 19 18  1  0
 20 19  2  0
 21 20  1  0
 21 17  1  0
  2 22  1  0
  5 23  1  0
 14 24  1  0
 14 25  1  0
 15 26  1  0
 16 27  1  0
 16 28  1  0
 18 29  1  0
 19 30  1  0
 20 31  1  0
M  CHG  1   8  -1
M  END
>  <score>  (7) 
-7.765

$$$$
=
     RDKit          3D

 31 32  0  0  0  0  0  0  0  0999 V2000
    0.7870   62.3080   71.7830 C   0  0  0  0  0  0  0  0  0  0  0  0
    1.7160   61.2510   71.8570 C   0  0  0  0  0  0  0  0  0  0  0  0
    2.7170   61.0800   70.8900 C   0  0  0  0  0  0  0  0  0  0  0  0
    2.8430   62.0090   69.8610 C   0  0  0  0  0  0  0  0  0  0  0  0
    1.9390   63.0760   69.7850 C   0  0  0  0  0  0  0  0  0  0  0  0
    0.9120   63.2360   70.7300 C   0  0  0  0  0  0  0  0  0  0  0  0
    4.0970   61.9720   68.6740 Cl  0  0  0  0  0  0  0  0  0  0  0  0
   -0.3450   63.4140   73.5720 O   0  0  0  0  0  1  0  0  0  0  0  0
   -0.3110   62.3790   72.8310 C   0  0  0  0  0  0  0  0  0  0  0  0
   -1.1250   61.4040   72.8690 O   0  0  0  0  0  0  0  0  0  0  0  0
    3.7850   59.6780   70.9980 S   0  0  0  0  0  6  0  0  0  0  0  0
    3.2120   58.7460   71.9430 O   0  0  0  0  0  0  0  0  0  0  0  0
    5.1560   60.1270   71.0750 O   0  0  0  0  0  0  0  0  0  0  0  0
    3.6670   58.9230   69.4910 N   0  0  0  0  0  0  0  0  0  0  0  0
    0.0090   64.3210   70.5780 N   0  0  0  0  0  0  0  0  0  0  0  0
    0.7020   65.6180   70.5970 C   0  0  0  0  0  0  0  0  0  0  0  0
    0.4220   66.4700   69.4030 C   0  0  0  0  0  0  0  0  0  0  0  0
    1.1270   67.4910   68.7960 C   0  0  0  0  0  0  0  0  0  0  0  0
    0.3430   67.9250   67.7020 C   0  0  0  0  0  0  0  0  0  0  0  0
   -0.7920   67.1480   67.7130 C   0  0  0  0  0  0  0  0  0  0  0  0
   -0.7590   66.2640   68.7440 O   0  0  0  0  0  0  0  0  0  0  0  0
    1.6543   60.5415   72.6953 H   0  0  0  0  0  0  0  0  0  0  0  0
    2.0353   63.8051   68.9670 H   0  0  0  0  0  0  0  0  0  0  0  0
    3.5093   57.9139   69.6240 H   0  0  0  0  0  0  0  0  0  0  0  0
    2.8790   59.3273   68.9652 H   0  0  0  0  0  0  0  0  0  0  0  0
   -1.0093   64.2127   70.4677 H   0  0  0  0  0  0  0  0  0  0  0  0
    0.3856   66.1668   71.4963 H   0  0  0  0  0  0  0  0  0  0  0  0
    1.7810   65.4041   70.5913 H   0  0  0  0  0  0  0  0  0  0  0  0
    2.1057   67.8883   69.1031 H   0  0  0  0  0  0  0  0  0  0  0  0
    0.5908   68.7230   66.9866 H   0  0  0  0  0  0  0  0  0  0  0  0
   -1.6138   67.2311   66.9865 H   0  0  0  0  0  0  0  0  0  0  0  0
  2  1  2  0
  3  2  1  0
  4  3  2  0
  5  4  1  0
  6  5  2  0
  6  1  1  0
  7  4  1  0
  9  8  1  0
  9  1  1  0
 10  9  2  0
 11  3  1  0
 12 11  2  0
 13 11  2  0
 14 11  1  0
 15  6  1  0
 16 15  1  0
 17 16  1  0
 18 17  2  0
 19 18  1  0
 20 19  2  0
 21 20  1  0
 21 17  1  0
  2 22  1  0
  5 23  1  0
 14 24  1  0
 14 25  1  0
 15 26  1  0
 16 27  1  0
 16 28  1  0
 18 29  1  0
 19 30  1  0
 20 31  1  0
M  CHG  1   8  -1
M  END
>  <score>  (8) 
-7.709

$$$$
=
     RDKit          3D

 31 32  0  0  0  0  0  0  0  0999 V2000
    4.1650   68.9460   63.3240 C   0  0  0  0  0  0  0  0  0  0  0  0
    2.9440   69.0260   62.6240 C   0  0  0  0  0  0  0  0  0  0  0  0
    1.7090   68.9690   63.2850 C   0  0  0  0  0  0  0  0  0  0  0  0
    1.6790   68.8930   64.6750 C   0  0  0  0  0  0  0  0  0  0  0  0
    2.8830   68.8310   65.3860 C   0  0  0  0  0  0  0  0  0  0  0  0
    4.1250   68.8540   64.7290 C   0  0  0  0  0  0  0  0  0  0  0  0
    0.2280   68.9250   65.6120 Cl  0  0  0  0  0  0  0  0  0  0  0  0
    5.5990   69.8470   61.6410 O   0  0  0  0  0  1  0  0  0  0  0  0
    5.4570   68.9430   62.5240 C   0  0  0  0  0  0  0  0  0  0  0  0
    6.3060   68.0450   62.8200 O   0  0  0  0  0  0  0  0  0  0  0  0
    0.2230   68.9810   62.3330 S   0  0  0  0  0  6  0  0  0  0  0  0
   -0.5620   70.1250   62.7370 O   0  0  0  0  0  0  0  0  0  0  0  0
   -0.3170   67.6420   62.2750 O   0  0  0  0  0  0  0  0  0  0  0  0
    0.7200   69.3090   60.7520 N   0  0  0  0  0  0  0  0  0  0  0  0
    5.3090   68.7560   65.5060 N   0  0  0  0  0  0  0  0  0  0  0  0
    5.8510   70.0800   65.8490 C   0  0  0  0  0  0  0  0  0  0  0  0
    5.8350   70.3780   67.3130 C   0  0  0  0  0  0  0  0  0  0  0  0
    6.8360   70.6670   68.2190 C   0  0  0  0  0  0  0  0  0  0  0  0
    6.2030   70.8430   69.4720 C   0  0  0  0  0  0  0  0  0  0  0  0
    4.8600   70.6440   69.2540 C   0  0  0  0  0  0  0  0  0  0  0  0
    4.6240   70.3550   67.9480 O   0  0  0  0  0  0  0  0  0  0  0  0
    2.9607   69.1361   61.5297 H   0  0  0  0  0  0  0  0  0  0  0  0
    2.8564   68.7627   66.4836 H   0  0  0  0  0  0  0  0  0  0  0  0
    1.5795   69.8762   60.7730 H   0  0  0  0  0  0  0  0  0  0  0  0
    0.9050   68.4235   60.2596 H   0  0  0  0  0  0  0  0  0  0  0  0
    5.7372   67.8649   65.7949 H   0  0  0  0  0  0  0  0  0  0  0  0
    6.8917   70.1306   65.4963 H   0  0  0  0  0  0  0  0  0  0  0  0
    5.2048   70.8260   65.3634 H   0  0  0  0  0  0  0  0  0  0  0  0
    7.9128   70.7450   68.0083 H   0  0  0  0  0  0  0  0  0  0  0  0
    6.6877   71.0894   70.4282 H   0  0  0  0  0  0  0  0  0  0  0  0
    4.0836   70.7098   70.0305 H   0  0  0  0  0  0  0  0  0  0  0  0
  2  1  2  0
  3  2  1  0
  4  3  2  0
  5  4  1  0
  6  5  2  0
  6  1  1  0
  7  4  1  0
  9  8  1  0
  9  1  1  0
 10  9  2  0
 11  3  1  0
 12 11  2  0
 13 11  2  0
 14 11  1  0
 15  6  1  0
 16 15  1  0
 17 16  1  0
 18 17  2  0
 19 18  1  0
 20 19  2  0
 21 20  1  0
 21 17  1  0
  2 22  1  0
  5 23  1  0
 14 24  1  0
 14 25  1  0
 15 26  1  0
 16 27  1  0
 16 28  1  0
 18 29  1  0
 19 30  1  0
 20 31  1  0
M  CHG  1   8  -1
M  END
>  <score>  (9) 
-7.432

$$$$
