=
     RDKit          3D

 18 19  0  0  0  0  0  0  0  0999 V2000
    4.8930   70.4280   67.6070 C   0  0  0  0  0  0  0  0  0  0  0  0
    3.8070   70.2060   68.4790 C   0  0  0  0  0  0  0  0  0  0  0  0
    2.6480   69.5130   68.0670 C   0  0  0  0  0  0  0  0  0  0  0  0
    2.5390   69.0180   66.7660 C   0  0  0  0  0  0  0  0  0  0  0  0
    3.6080   69.2420   65.9240 C   0  0  0  0  0  0  0  0  0  0  0  0
    4.7520   69.9250   66.3250 C   0  0  0  0  0  0  0  0  0  0  0  0
    5.6780   70.0130   65.2840 N   0  0  0  0  0  0  0  0  0  0  0  0
    5.2180   69.4060   64.1420 C   0  0  0  0  0  0  0  0  0  0  0  0
    5.7450   69.2880   63.0570 O   0  0  0  0  0  0  0  0  0  0  0  0
    3.8090   68.8620   64.5220 C   0  0  0  0  0  0  0  0  0  0  0  0
    3.0370   68.2540   63.8150 O   0  0  0  0  0  0  0  0  0  0  0  0
    6.0330   72.4320   68.1480 O   0  0  0  0  0  1  0  0  0  0  0  0
    6.1300   71.1670   68.0440 C   0  0  0  0  0  0  0  0  0  0  0  0
    7.1670   70.4720   68.2750 O   0  0  0  0  0  0  0  0  0  0  0  0
    3.8647   70.5839   69.5104 H   0  0  0  0  0  0  0  0  0  0  0  0
    1.8226   69.3615   68.7781 H   0  0  0  0  0  0  0  0  0  0  0  0
    1.6435   68.4754   66.4288 H   0  0  0  0  0  0  0  0  0  0  0  0
    6.5943   70.4767   65.3632 H   0  0  0  0  0  0  0  0  0  0  0  0
  2  1  2  0
  3  2  1  0
  4  3  2  0
  5  4  1  0
  6  5  2  0
  6  1  1  0
  7  6  1  0
  8  7  1  0
  9  8  2  0
 10  8  1  0
 10  5  1  0
 11 10  2  0
 13  1  1  0
 13 12  1  0
 14 13  2  0
  2 15  1  0
  3 16  1  0
  4 17  1  0
  7 18  1  0
M  CHG  1  12  -1
M  END
>  <score>  (1) 
-8.395

$$$$
=
     RDKit          3D

 18 19  0  0  0  0  0  0  0  0999 V2000
    1.8600   68.5470   65.4950 C   0  0  0  0  0  0  0  0  0  0  0  0
    2.4670   69.0060   66.6820 C   0  0  0  0  0  0  0  0  0  0  0  0
    3.7880   69.5070   66.6990 C   0  0  0  0  0  0  0  0  0  0  0  0
    4.5420   69.5640   65.5260 C   0  0  0  0  0  0  0  0  0  0  0  0
    3.9360   69.1110   64.3730 C   0  0  0  0  0  0  0  0  0  0  0  0
    2.6350   68.6170   64.3510 C   0  0  0  0  0  0  0  0  0  0  0  0
    2.2660   68.2270   63.0630 N   0  0  0  0  0  0  0  0  0  0  0  0
    3.2790   68.4330   62.1590 C   0  0  0  0  0  0  0  0  0  0  0  0
    3.3150   68.2150   60.9670 O   0  0  0  0  0  0  0  0  0  0  0  0
    4.4440   69.0350   63.0000 C   0  0  0  0  0  0  0  0  0  0  0  0
    5.5390   69.3720   62.6080 O   0  0  0  0  0  0  0  0  0  0  0  0
    0.2220   66.9790   66.1830 O   0  0  0  0  0  1  0  0  0  0  0  0
    0.4520   68.0120   65.4750 C   0  0  0  0  0  0  0  0  0  0  0  0
   -0.3910   68.6320   64.7560 O   0  0  0  0  0  0  0  0  0  0  0  0
    1.8959   68.9731   67.6215 H   0  0  0  0  0  0  0  0  0  0  0  0
    4.2263   69.8554   67.6458 H   0  0  0  0  0  0  0  0  0  0  0  0
    5.5713   69.9520   65.5213 H   0  0  0  0  0  0  0  0  0  0  0  0
    1.3460   67.8327   62.8200 H   0  0  0  0  0  0  0  0  0  0  0  0
  2  1  2  0
  3  2  1  0
  4  3  2  0
  5  4  1  0
  6  5  2  0
  6  1  1  0
  7  6  1  0
  8  7  1  0
  9  8  2  0
 10  8  1  0
 10  5  1  0
 11 10  2  0
 13  1  1  0
 13 12  1  0
 14 13  2  0
  2 15  1  0
  3 16  1  0
  4 17  1  0
  7 18  1  0
M  CHG  1  12  -1
M  END
>  <score>  (2) 
-8.096

$$$$
=
     RDKit          3D

 18 19  0  0  0  0  0  0  0  0999 V2000
    1.6930   68.6010   66.2090 C   0  0  0  0  0  0  0  0  0  0  0  0
    2.1650   68.3000   64.9150 C   0  0  0  0  0  0  0  0  0  0  0  0
    3.4670   68.6500   64.4950 C   0  0  0  0  0  0  0  0  0  0  0  0
    4.3380   69.3160   65.3590 C   0  0  0  0  0  0  0  0  0  0  0  0
    3.8630   69.6050   66.6220 C   0  0  0  0  0  0  0  0  0  0  0  0
    2.5810   69.2610   67.0400 C   0  0  0  0  0  0  0  0  0  0  0  0
    2.3550   69.6680   68.3560 N   0  0  0  0  0  0  0  0  0  0  0  0
    3.4520   70.2970   68.8890 C   0  0  0  0  0  0  0  0  0  0  0  0
    3.6160   70.7750   69.9910 O   0  0  0  0  0  0  0  0  0  0  0  0
    4.5120   70.2820   67.7480 C   0  0  0  0  0  0  0  0  0  0  0  0
    5.6350   70.7330   67.7790 O   0  0  0  0  0  0  0  0  0  0  0  0
   -0.0700   67.0340   66.4260 O   0  0  0  0  0  1  0  0  0  0  0  0
    0.3050   68.2280   66.6590 C   0  0  0  0  0  0  0  0  0  0  0  0
   -0.3790   69.1310   67.2340 O   0  0  0  0  0  0  0  0  0  0  0  0
    1.4996   67.7773   64.2121 H   0  0  0  0  0  0  0  0  0  0  0  0
    3.7980   68.3954   63.4773 H   0  0  0  0  0  0  0  0  0  0  0  0
    5.3549   69.5971   65.0478 H   0  0  0  0  0  0  0  0  0  0  0  0
    1.4726   69.5149   68.8648 H   0  0  0  0  0  0  0  0  0  0  0  0
  2  1  2  0
  3  2  1  0
  4  3  2  0
  5  4  1  0
  6  5  2  0
  6  1  1  0
  7  6  1  0
  8  7  1  0
  9  8  2  0
 10  8  1  0
 10  5  1  0
 11 10  2  0
 13  1  1  0
 13 12  1  0
 14 13  2  0
  2 15  1  0
  3 16  1  0
  4 17  1  0
  7 18  1  0
M  CHG  1  12  -1
M  END
>  <score>  (3) 
-8.092

$$$$
=
     RDKit          3D

 18 19  0  0  0  0  0  0  0  0999 V2000
    3.4830   68.7470   63.4330 C   0  0  0  0  0  0  0  0  0  0  0  0
    4.7580   69.1940   63.8390 C   0  0  0  0  0  0  0  0  0  0  0  0
    5.0340   69.5420   65.1800 C   0  0  0  0  0  0  0  0  0  0  0  0
    4.0410   69.4530   66.1570 C   0  0  0  0  0  0  0  0  0  0  0  0
    2.8000   69.0150   65.7460 C   0  0  0  0  0  0  0  0  0  0  0  0
    2.5230   68.6710   64.4270 C   0  0  0  0  0  0  0  0  0  0  0  0
    1.1960   68.2620   64.2810 N   0  0  0  0  0  0  0  0  0  0  0  0
    0.5160   68.3070   65.4720 C   0  0  0  0  0  0  0  0  0  0  0  0
   -0.6360   68.0260   65.7220 O   0  0  0  0  0  0  0  0  0  0  0  0
    1.5640   68.8140   66.5070 C   0  0  0  0  0  0  0  0  0  0  0  0
    1.3980   69.0040   67.6920 O   0  0  0  0  0  0  0  0  0  0  0  0
    2.3520   69.1110   61.3840 O   0  0  0  0  0  1  0  0  0  0  0  0
    3.1860   68.3760   62.0040 C   0  0  0  0  0  0  0  0  0  0  0  0
    3.7890   67.3620   61.5340 O   0  0  0  0  0  0  0  0  0  0  0  0
    5.5598   69.2738   63.0902 H   0  0  0  0  0  0  0  0  0  0  0  0
    6.0413   69.8865   65.4570 H   0  0  0  0  0  0  0  0  0  0  0  0
    4.2393   69.7198   67.2056 H   0  0  0  0  0  0  0  0  0  0  0  0
    0.7784   67.9630   63.3882 H   0  0  0  0  0  0  0  0  0  0  0  0
  2  1  2  0
  3  2  1  0
  4  3  2  0
  5  4  1  0
  6  5  2  0
  6  1  1  0
  7  6  1  0
  8  7  1  0
  9  8  2  0
 10  8  1  0
 10  5  1  0
 11 10  2  0
 13  1  1  0
 13 12  1  0
 14 13  2  0
  2 15  1  0
  3 16  1  0
  4 17  1  0
  7 18  1  0
M  CHG  1  12  -1
M  END
>  <score>  (4) 
-8.081

$$$$
=
     RDKit          3D

 18 19  0  0  0  0  0  0  0  0999 V2000
    4.2210   69.9760   67.2360 C   0  0  0  0  0  0  0  0  0  0  0  0
    5.2330   69.8170   66.2660 C   0  0  0  0  0  0  0  0  0  0  0  0
    5.0030   69.1310   65.0530 C   0  0  0  0  0  0  0  0  0  0  0  0
    3.7500   68.5810   64.7730 C   0  0  0  0  0  0  0  0  0  0  0  0
    2.7710   68.7440   65.7300 C   0  0  0  0  0  0  0  0  0  0  0  0
    2.9930   69.4190   66.9260 C   0  0  0  0  0  0  0  0  0  0  0  0
    1.8400   69.4400   67.7140 N   0  0  0  0  0  0  0  0  0  0  0  0
    0.7960   68.7910   67.1040 C   0  0  0  0  0  0  0  0  0  0  0  0
   -0.3410   68.6140   67.4880 O   0  0  0  0  0  0  0  0  0  0  0  0
    1.3750   68.2960   65.7460 C   0  0  0  0  0  0  0  0  0  0  0  0
    0.8000   67.6730   64.8820 O   0  0  0  0  0  0  0  0  0  0  0  0
    5.2610   71.7000   68.4840 O   0  0  0  0  0  1  0  0  0  0  0  0
    4.4640   70.7070   68.5290 C   0  0  0  0  0  0  0  0  0  0  0  0
    3.8570   70.2790   69.5580 O   0  0  0  0  0  0  0  0  0  0  0  0
    6.2299   70.2395   66.4600 H   0  0  0  0  0  0  0  0  0  0  0  0
    5.8184   69.0289   64.3218 H   0  0  0  0  0  0  0  0  0  0  0  0
    3.5536   68.0434   63.8336 H   0  0  0  0  0  0  0  0  0  0  0  0
    1.7806   69.8878   68.6397 H   0  0  0  0  0  0  0  0  0  0  0  0
  2  1  2  0
  3  2  1  0
  4  3  2  0
  5  4  1  0
  6  5  2  0
  6  1  1  0
  7  6  1  0
  8  7  1  0
  9  8  2  0
 10  8  1  0
 10  5  1  0
 11 10  2  0
 13  1  1  0
 13 12  1  0
 14 13  2  0
  2 15  1  0
  3 16  1  0
  4 17  1  0
  7 18  1  0
M  CHG  1  12  -1
M  END
>  <score>  (5) 
-8.02

$$$$
=
     RDKit          3D

 18 19  0  0  0  0  0  0  0  0999 V2000
    3.8700   69.0770   65.5290 C   0  0  0  0  0  0  0  0  0  0  0  0
    2.5290   68.6440   65.4980 C   0  0  0  0  0  0  0  0  0  0  0  0
    1.6600   68.8250   66.5980 C   0  0  0  0  0  0  0  0  0  0  0  0
    2.1100   69.4460   67.7650 C   0  0  0  0  0  0  0  0  0  0  0  0
    3.4240   69.8640   67.7810 C   0  0  0  0  0  0  0  0  0  0  0  0
    4.2830   69.6880   66.7000 C   0  0  0  0  0  0  0  0  0  0  0  0
    5.5520   70.1990   66.9770 N   0  0  0  0  0  0  0  0  0  0  0  0
    5.6190   70.7380   68.2380 C   0  0  0  0  0  0  0  0  0  0  0  0
    6.5490   71.2650   68.8100 O   0  0  0  0  0  0  0  0  0  0  0  0
    4.1940   70.5360   68.8320 C   0  0  0  0  0  0  0  0  0  0  0  0
    3.7980   70.8640   69.9280 O   0  0  0  0  0  0  0  0  0  0  0  0
    5.9210   68.3370   64.6020 O   0  0  0  0  0  1  0  0  0  0  0  0
    4.7980   68.8850   64.3580 C   0  0  0  0  0  0  0  0  0  0  0  0
    4.3870   69.2830   63.2250 O   0  0  0  0  0  0  0  0  0  0  0  0
    2.1477   68.1510   64.5916 H   0  0  0  0  0  0  0  0  0  0  0  0
    0.6196   68.4734   66.5342 H   0  0  0  0  0  0  0  0  0  0  0  0
    1.4476   69.5947   68.6305 H   0  0  0  0  0  0  0  0  0  0  0  0
    6.3417   70.1747   66.3162 H   0  0  0  0  0  0  0  0  0  0  0  0
  2  1  2  0
  3  2  1  0
  4  3  2  0
  5  4  1  0
  6  5  2  0
  6  1  1  0
  7  6  1  0
  8  7  1  0
  9  8  2  0
 10  8  1  0
 10  5  1  0
 11 10  2  0
 13  1  1  0
 13 12  1  0
 14 13  2  0
  2 15  1  0
  3 16  1  0
  4 17  1  0
  7 18  1  0
M  CHG  1  12  -1
M  END
>  <score>  (6) 
-7.887

$$$$
=
     RDKit          3D

 18 19  0  0  0  0  0  0  0  0999 V2000
    3.3460   69.4510   66.6690 C   0  0  0  0  0  0  0  0  0  0  0  0
    4.7160   69.7850   66.7000 C   0  0  0  0  0  0  0  0  0  0  0  0
    5.5230   69.7370   65.5420 C   0  0  0  0  0  0  0  0  0  0  0  0
    4.9830   69.3520   64.3140 C   0  0  0  0  0  0  0  0  0  0  0  0
    3.6420   69.0280   64.2970 C   0  0  0  0  0  0  0  0  0  0  0  0
    2.8430   69.0740   65.4360 C   0  0  0  0  0  0  0  0  0  0  0  0
    1.5300   68.6990   65.1450 N   0  0  0  0  0  0  0  0  0  0  0  0
    1.3730   68.3840   63.8180 C   0  0  0  0  0  0  0  0  0  0  0  0
    0.3850   68.0230   63.2160 O   0  0  0  0  0  0  0  0  0  0  0  0
    2.7840   68.5910   63.1920 C   0  0  0  0  0  0  0  0  0  0  0  0
    3.1100   68.4290   62.0370 O   0  0  0  0  0  0  0  0  0  0  0  0
    3.0540   69.8580   68.9840 O   0  0  0  0  0  1  0  0  0  0  0  0
    2.4840   69.5020   67.9020 C   0  0  0  0  0  0  0  0  0  0  0  0
    1.2620   69.1880   67.7660 O   0  0  0  0  0  0  0  0  0  0  0  0
    5.1692   70.0919   67.6542 H   0  0  0  0  0  0  0  0  0  0  0  0
    6.5876   70.0057   65.6086 H   0  0  0  0  0  0  0  0  0  0  0  0
    5.5975   69.3089   63.4027 H   0  0  0  0  0  0  0  0  0  0  0  0
    0.7716   68.6631   65.8410 H   0  0  0  0  0  0  0  0  0  0  0  0
  2  1  2  0
  3  2  1  0
  4  3  2  0
  5  4  1  0
  6  5  2  0
  6  1  1  0
  7  6  1  0
  8  7  1  0
  9  8  2  0
 10  8  1  0
 10  5  1  0
 11 10  2  0
 13  1  1  0
 13 12  1  0
 14 13  2  0
  2 15  1  0
  3 16  1  0
  4 17  1  0
  7 18  1  0
M  CHG  1  12  -1
M  END
>  <score>  (7) 
-7.731

$$$$
=
     RDKit          3D

 18 19  0  0  0  0  0  0  0  0999 V2000
    2.7470   68.6990   63.4240 C   0  0  0  0  0  0  0  0  0  0  0  0
    3.6840   68.7260   62.3710 C   0  0  0  0  0  0  0  0  0  0  0  0
    5.0360   69.0730   62.5820 C   0  0  0  0  0  0  0  0  0  0  0  0
    5.4940   69.4040   63.8590 C   0  0  0  0  0  0  0  0  0  0  0  0
    4.5670   69.3740   64.8800 C   0  0  0  0  0  0  0  0  0  0  0  0
    3.2340   69.0330   64.6760 C   0  0  0  0  0  0  0  0  0  0  0  0
    2.5130   69.0810   65.8710 N   0  0  0  0  0  0  0  0  0  0  0  0
    3.3060   69.4510   66.9280 C   0  0  0  0  0  0  0  0  0  0  0  0
    3.0250   69.5950   68.0990 O   0  0  0  0  0  0  0  0  0  0  0  0
    4.7190   69.6640   66.3090 C   0  0  0  0  0  0  0  0  0  0  0  0
    5.7330   69.9980   66.8810 O   0  0  0  0  0  0  0  0  0  0  0  0
    0.7640   67.5790   64.0760 O   0  0  0  0  0  1  0  0  0  0  0  0
    1.3050   68.3290   63.2010 C   0  0  0  0  0  0  0  0  0  0  0  0
    0.7440   68.7930   62.1610 O   0  0  0  0  0  0  0  0  0  0  0  0
    3.3516   68.4690   61.3544 H   0  0  0  0  0  0  0  0  0  0  0  0
    5.7351   69.0827   61.7328 H   0  0  0  0  0  0  0  0  0  0  0  0
    6.5441   69.6757   64.0420 H   0  0  0  0  0  0  0  0  0  0  0  0
    1.5089   68.8651   65.9494 H   0  0  0  0  0  0  0  0  0  0  0  0
  2  1  2  0
  3  2  1  0
  4  3  2  0
  5  4  1  0
  6  5  2  0
  6  1  1  0
  7  6  1  0
  8  7  1  0
  9  8  2  0
 10  8  1  0
 10  5  1  0
 11 10  2  0
 13  1  1  0
 13 12  1  0
 14 13  2  0
  2 15  1  0
  3 16  1  0
  4 17  1  0
  7 18  1  0
M  CHG  1  12  -1
M  END
>  <score>  (8) 
-7.632

$$$$
=
     RDKit          3D

 18 19  0  0  0  0  0  0  0  0999 V2000
    3.7620   69.4370   66.2310 C   0  0  0  0  0  0  0  0  0  0  0  0
    3.0050   69.4340   67.4210 C   0  0  0  0  0  0  0  0  0  0  0  0
    1.6420   69.0650   67.4390 C   0  0  0  0  0  0  0  0  0  0  0  0
    0.9920   68.6870   66.2630 C   0  0  0  0  0  0  0  0  0  0  0  0
    1.7440   68.6940   65.1060 C   0  0  0  0  0  0  0  0  0  0  0  0
    3.0870   69.0560   65.0840 C   0  0  0  0  0  0  0  0  0  0  0  0
    3.6090   68.9780   63.7910 N   0  0  0  0  0  0  0  0  0  0  0  0
    2.6630   68.5650   62.8860 C   0  0  0  0  0  0  0  0  0  0  0  0
    2.7570   68.3860   61.6900 O   0  0  0  0  0  0  0  0  0  0  0  0
    1.3710   68.3570   63.7290 C   0  0  0  0  0  0  0  0  0  0  0  0
    0.2850   67.9940   63.3360 O   0  0  0  0  0  0  0  0  0  0  0  0
    5.5420   70.8510   66.8960 O   0  0  0  0  0  1  0  0  0  0  0  0
    5.2150   69.8290   66.2100 C   0  0  0  0  0  0  0  0  0  0  0  0
    5.9970   69.1130   65.5130 O   0  0  0  0  0  0  0  0  0  0  0  0
    3.4908   69.7278   68.3632 H   0  0  0  0  0  0  0  0  0  0  0  0
    1.0873   69.0756   68.3888 H   0  0  0  0  0  0  0  0  0  0  0  0
   -0.0692   68.3973   66.2587 H   0  0  0  0  0  0  0  0  0  0  0  0
    4.5840   69.2027   63.5465 H   0  0  0  0  0  0  0  0  0  0  0  0
  2  1  2  0
  3  2  1  0
  4  3  2  0
  5  4  1  0
  6  5  2  0
  6  1  1  0
  7  6  1  0
  8  7  1  0
  9  8  2  0
 10  8  1  0
 10  5  1  0
 11 10  2  0
 13  1  1  0
 13 12  1  0
 14 13  2  0
  2 15  1  0
  3 16  1  0
  4 17  1  0
  7 18  1  0
M  CHG  1  12  -1
M  END
>  <score>  (9) 
-7.494

$$$$
