=
     RDKit          3D

 39 41  0  0  0  0  0  0  0  0999 V2000
    1.1900   67.4350   68.2820 C   0  0  0  0  0  0  0  0  0  0  0  0
   -0.0140   67.5420   67.5730 C   0  0  0  0  0  0  0  0  0  0  0  0
   -1.1730   66.9230   68.0420 C   0  0  0  0  0  0  0  0  0  0  0  0
   -1.1400   66.1880   69.2240 C   0  0  0  0  0  0  0  0  0  0  0  0
    0.0580   66.0660   69.9400 C   0  0  0  0  0  0  0  0  0  0  0  0
    1.2220   66.6840   69.4610 C   0  0  0  0  0  0  0  0  0  0  0  0
    2.6650   69.4210   67.8990 C   0  0  0  0  0  0  0  0  0  0  0  0
    2.0140   70.2860   68.4710 O   0  0  0  0  0  0  0  0  0  0  0  0
    2.3170   68.0910   67.7410 N   0  0  0  0  0  0  0  0  0  0  0  0
    5.5280   69.5510   63.5910 Cl  0  0  0  0  0  0  0  0  0  0  0  0
    5.3060   69.9010   65.2610 C   0  0  0  0  0  0  0  0  0  0  0  0
    6.3210   70.5420   65.9720 C   0  0  0  0  0  0  0  0  0  0  0  0
    6.1450   70.8350   67.3250 C   0  0  0  0  0  0  0  0  0  0  0  0
    4.9580   70.4760   67.9680 C   0  0  0  0  0  0  0  0  0  0  0  0
    3.9470   69.8150   67.2540 C   0  0  0  0  0  0  0  0  0  0  0  0
    4.1180   69.5400   65.8920 C   0  0  0  0  0  0  0  0  0  0  0  0
    0.0500   65.2680   71.1940 C   0  0  0  0  0  0  0  0  0  0  0  0
   -0.2640   65.7570   72.2730 O   0  0  0  0  0  0  0  0  0  0  0  0
    0.4060   63.8040   71.1490 C   0  0  0  0  0  0  0  0  0  0  0  0
   -0.3860   62.9850   71.6020 O   0  0  0  0  0  0  0  0  0  0  0  0
    1.7020   63.4300   70.5420 C   0  0  0  0  0  0  0  0  0  0  0  0
    2.8820   63.9190   71.0940 C   0  0  0  0  0  0  0  0  0  0  0  0
    4.0880   63.5360   70.5160 C   0  0  0  0  0  0  0  0  0  0  0  0
    4.0760   62.6800   69.4190 C   0  0  0  0  0  0  0  0  0  0  0  0
    2.8520   62.2390   68.9400 C   0  0  0  0  0  0  0  0  0  0  0  0
    1.6640   62.5910   69.4770 N   0  0  0  0  0  0  0  0  0  0  0  0
   -0.0456   68.1197   66.6375 H   0  0  0  0  0  0  0  0  0  0  0  0
   -2.1128   67.0156   67.4780 H   0  0  0  0  0  0  0  0  0  0  0  0
   -2.0547   65.7030   69.5957 H   0  0  0  0  0  0  0  0  0  0  0  0
    2.1657   66.5774   70.0160 H   0  0  0  0  0  0  0  0  0  0  0  0
    2.9495   67.5167   67.1656 H   0  0  0  0  0  0  0  0  0  0  0  0
    7.2588   70.8161   65.4667 H   0  0  0  0  0  0  0  0  0  0  0  0
    6.9406   71.3484   67.8849 H   0  0  0  0  0  0  0  0  0  0  0  0
    4.8160   70.7113   69.0331 H   0  0  0  0  0  0  0  0  0  0  0  0
    3.3188   69.0418   65.3236 H   0  0  0  0  0  0  0  0  0  0  0  0
    2.8617   64.5909   71.9647 H   0  0  0  0  0  0  0  0  0  0  0  0
    5.0411   63.9059   70.9219 H   0  0  0  0  0  0  0  0  0  0  0  0
    5.0151   62.3609   68.9433 H   0  0  0  0  0  0  0  0  0  0  0  0
    2.8483   61.5631   68.0721 H   0  0  0  0  0  0  0  0  0  0  0  0
  2  1  2  0
  3  2  1  0
  4  3  2  0
  5  4  1  0
  6  5  2  0
  6  1  1  0
  8  7  2  0
  9  7  1  0
  9  1  1  0
 11 10  1  0
 12 11  2  0
 13 12  1  0
 14 13  2  0
 15 14  1  0
 15  7  1  0
 16 11  1  0
 16 15  2  0
 17  5  1  0
 18 17  2  0
 19 17  1  0
 20 19  2  0
 21 19  1  0
 22 21  2  0
 23 22  1  0
 24 23  2  0
 25 24  1  0
 26 25  2  0
 26 21  1  0
  2 27  1  0
  3 28  1  0
  4 29  1  0
  6 30  1  0
  9 31  1  0
 12 32  1  0
 13 33  1  0
 14 34  1  0
 16 35  1  0
 22 36  1  0
 23 37  1  0
 24 38  1  0
 25 39  1  0
M  END
>  <score>  (1) 
-10.275

$$$$
=
     RDKit          3D

 39 41  0  0  0  0  0  0  0  0999 V2000
   -0.6410   66.9860   67.6960 C   0  0  0  0  0  0  0  0  0  0  0  0
   -1.9440   67.5010   67.6810 C   0  0  0  0  0  0  0  0  0  0  0  0
   -2.3570   68.3650   66.6660 C   0  0  0  0  0  0  0  0  0  0  0  0
   -1.4680   68.7270   65.6570 C   0  0  0  0  0  0  0  0  0  0  0  0
   -0.1600   68.2270   65.6620 C   0  0  0  0  0  0  0  0  0  0  0  0
    0.2520   67.3640   66.6880 C   0  0  0  0  0  0  0  0  0  0  0  0
    0.7070   66.2880   69.6850 C   0  0  0  0  0  0  0  0  0  0  0  0
    1.5420   67.1840   69.7050 O   0  0  0  0  0  0  0  0  0  0  0  0
   -0.3030   66.1180   68.7560 N   0  0  0  0  0  0  0  0  0  0  0  0
    2.7940   61.8030   71.2000 Cl  0  0  0  0  0  0  0  0  0  0  0  0
    1.7480   63.1410   71.4690 C   0  0  0  0  0  0  0  0  0  0  0  0
    1.0020   63.2080   72.6460 C   0  0  0  0  0  0  0  0  0  0  0  0
    0.1560   64.2950   72.8730 C   0  0  0  0  0  0  0  0  0  0  0  0
    0.0490   65.3080   71.9170 C   0  0  0  0  0  0  0  0  0  0  0  0
    0.7870   65.2280   70.7270 C   0  0  0  0  0  0  0  0  0  0  0  0
    1.6500   64.1470   70.5100 C   0  0  0  0  0  0  0  0  0  0  0  0
    0.7570   68.6440   64.5690 C   0  0  0  0  0  0  0  0  0  0  0  0
    0.4330   69.4800   63.7330 O   0  0  0  0  0  0  0  0  0  0  0  0
    2.1420   68.0530   64.4900 C   0  0  0  0  0  0  0  0  0  0  0  0
    2.3050   66.9990   63.8880 O   0  0  0  0  0  0  0  0  0  0  0  0
    3.2430   68.7930   65.1440 C   0  0  0  0  0  0  0  0  0  0  0  0
    3.1410   69.1230   66.4920 C   0  0  0  0  0  0  0  0  0  0  0  0
    4.2000   69.8010   67.0860 C   0  0  0  0  0  0  0  0  0  0  0  0
    5.3180   70.1220   66.3220 C   0  0  0  0  0  0  0  0  0  0  0  0
    5.3330   69.7490   64.9870 C   0  0  0  0  0  0  0  0  0  0  0  0
    4.3230   69.0900   64.3790 N   0  0  0  0  0  0  0  0  0  0  0  0
   -2.6489   67.2213   68.4778 H   0  0  0  0  0  0  0  0  0  0  0  0
   -3.3837   68.7597   66.6629 H   0  0  0  0  0  0  0  0  0  0  0  0
   -1.7936   69.4063   64.8554 H   0  0  0  0  0  0  0  0  0  0  0  0
    1.2835   66.9822   66.7000 H   0  0  0  0  0  0  0  0  0  0  0  0
   -0.8712   65.2638   68.8478 H   0  0  0  0  0  0  0  0  0  0  0  0
    1.0803   62.4054   73.3941 H   0  0  0  0  0  0  0  0  0  0  0  0
   -0.4262   64.3539   73.8044 H   0  0  0  0  0  0  0  0  0  0  0  0
   -0.6134   66.1675   72.0973 H   0  0  0  0  0  0  0  0  0  0  0  0
    2.2471   64.0923   69.5878 H   0  0  0  0  0  0  0  0  0  0  0  0
    2.2461   68.8546   67.0726 H   0  0  0  0  0  0  0  0  0  0  0  0
    4.1544   70.0807   68.1489 H   0  0  0  0  0  0  0  0  0  0  0  0
    6.1691   70.6586   66.7666 H   0  0  0  0  0  0  0  0  0  0  0  0
    6.2193   70.0047   64.3878 H   0  0  0  0  0  0  0  0  0  0  0  0
  2  1  2  0
  3  2  1  0
  4  3  2  0
  5  4  1  0
  6  5  2  0
  6  1  1  0
  8  7  2  0
  9  7  1  0
  9  1  1  0
 11 10  1  0
 12 11  2  0
 13 12  1  0
 14 13  2  0
 15 14  1  0
 15  7  1  0
 16 11  1  0
 16 15  2  0
 17  5  1  0
 18 17  2  0
 19 17  1  0
 20 19  2  0
 21 19  1  0
 22 21  2  0
 23 22  1  0
 24 23  2  0
 25 24  1  0
 26 25  2  0
 26 21  1  0
  2 27  1  0
  3 28  1  0
  4 29  1  0
  6 30  1  0
  9 31  1  0
 12 32  1  0
 13 33  1  0
 14 34  1  0
 16 35  1  0
 22 36  1  0
 23 37  1  0
 24 38  1  0
 25 39  1  0
M  END
>  <score>  (2) 
-9.984

$$$$
=
     RDKit          3D

 39 41  0  0  0  0  0  0  0  0999 V2000
    0.7480   66.2800   69.4820 C   0  0  0  0  0  0  0  0  0  0  0  0
   -0.5020   66.1210   68.8680 C   0  0  0  0  0  0  0  0  0  0  0  0
   -0.9630   67.0560   67.9410 C   0  0  0  0  0  0  0  0  0  0  0  0
   -0.1800   68.1620   67.6200 C   0  0  0  0  0  0  0  0  0  0  0  0
    1.0680   68.3390   68.2320 C   0  0  0  0  0  0  0  0  0  0  0  0
    1.5230   67.4000   69.1680 C   0  0  0  0  0  0  0  0  0  0  0  0
    2.0720   64.2850   70.2100 C   0  0  0  0  0  0  0  0  0  0  0  0
    2.6610   64.0260   69.1690 O   0  0  0  0  0  0  0  0  0  0  0  0
    1.1410   65.2900   70.4080 N   0  0  0  0  0  0  0  0  0  0  0  0
    5.1160   60.7810   72.4950 Cl  0  0  0  0  0  0  0  0  0  0  0  0
    3.7240   61.7900   72.4940 C   0  0  0  0  0  0  0  0  0  0  0  0
    2.8630   61.7790   73.5910 C   0  0  0  0  0  0  0  0  0  0  0  0
    1.7350   62.6000   73.6000 C   0  0  0  0  0  0  0  0  0  0  0  0
    1.4630   63.4240   72.5050 C   0  0  0  0  0  0  0  0  0  0  0  0
    2.3220   63.4190   71.3950 C   0  0  0  0  0  0  0  0  0  0  0  0
    3.4630   62.6080   71.3980 C   0  0  0  0  0  0  0  0  0  0  0  0
    1.8670   69.5370   67.8640 C   0  0  0  0  0  0  0  0  0  0  0  0
    1.6330   70.6440   68.3370 O   0  0  0  0  0  0  0  0  0  0  0  0
    3.0240   69.3970   66.9080 C   0  0  0  0  0  0  0  0  0  0  0  0
    2.8230   68.9180   65.7980 O   0  0  0  0  0  0  0  0  0  0  0  0
    4.3530   69.8620   67.3630 C   0  0  0  0  0  0  0  0  0  0  0  0
    5.4400   69.7760   66.5000 C   0  0  0  0  0  0  0  0  0  0  0  0
    6.6740   70.2390   66.9470 C   0  0  0  0  0  0  0  0  0  0  0  0
    6.7780   70.7700   68.2280 C   0  0  0  0  0  0  0  0  0  0  0  0
    5.6390   70.8190   69.0170 C   0  0  0  0  0  0  0  0  0  0  0  0
    4.4270   70.3800   68.6140 N   0  0  0  0  0  0  0  0  0  0  0  0
   -1.1255   65.2504   69.1196 H   0  0  0  0  0  0  0  0  0  0  0  0
   -1.9447   66.9197   67.4638 H   0  0  0  0  0  0  0  0  0  0  0  0
   -0.5414   68.8970   66.8857 H   0  0  0  0  0  0  0  0  0  0  0  0
    2.4966   67.5456   69.6588 H   0  0  0  0  0  0  0  0  0  0  0  0
    0.6856   65.3184   71.3314 H   0  0  0  0  0  0  0  0  0  0  0  0
    3.0731   61.1233   74.4488 H   0  0  0  0  0  0  0  0  0  0  0  0
    1.0602   62.5985   74.4687 H   0  0  0  0  0  0  0  0  0  0  0  0
    0.5769   64.0757   72.5128 H   0  0  0  0  0  0  0  0  0  0  0  0
    4.1499   62.6170   70.5388 H   0  0  0  0  0  0  0  0  0  0  0  0
    5.3275   69.3532   65.4907 H   0  0  0  0  0  0  0  0  0  0  0  0
    7.5576   70.1855   66.2940 H   0  0  0  0  0  0  0  0  0  0  0  0
    7.7414   71.1424   68.6065 H   0  0  0  0  0  0  0  0  0  0  0  0
    5.7276   71.2397   70.0295 H   0  0  0  0  0  0  0  0  0  0  0  0
  2  1  2  0
  3  2  1  0
  4  3  2  0
  5  4  1  0
  6  5  2  0
  6  1  1  0
  8  7  2  0
  9  7  1  0
  9  1  1  0
 11 10  1  0
 12 11  2  0
 13 12  1  0
 14 13  2  0
 15 14  1  0
 15  7  1  0
 16 11  1  0
 16 15  2  0
 17  5  1  0
 18 17  2  0
 19 17  1  0
 20 19  2  0
 21 19  1  0
 22 21  2  0
 23 22  1  0
 24 23  2  0
 25 24  1  0
 26 25  2  0
 26 21  1  0
  2 27  1  0
  3 28  1  0
  4 29  1  0
  6 30  1  0
  9 31  1  0
 12 32  1  0
 13 33  1  0
 14 34  1  0
 16 35  1  0
 22 36  1  0
 23 37  1  0
 24 38  1  0
 25 39  1  0
M  END
>  <score>  (3) 
-9.96

$$$$
=
     RDKit          3D

 39 41  0  0  0  0  0  0  0  0999 V2000
    0.3300   66.3950   68.9680 C   0  0  0  0  0  0  0  0  0  0  0  0
   -0.9460   66.5120   68.4020 C   0  0  0  0  0  0  0  0  0  0  0  0
   -1.2940   67.6400   67.6570 C   0  0  0  0  0  0  0  0  0  0  0  0
   -0.3680   68.6640   67.4740 C   0  0  0  0  0  0  0  0  0  0  0  0
    0.9090   68.5650   68.0400 C   0  0  0  0  0  0  0  0  0  0  0  0
    1.2500   67.4320   68.7930 C   0  0  0  0  0  0  0  0  0  0  0  0
    0.3360   64.9970   71.0440 C   0  0  0  0  0  0  0  0  0  0  0  0
   -0.1090   65.8060   71.8490 O   0  0  0  0  0  0  0  0  0  0  0  0
    0.6020   65.2220   69.7050 N   0  0  0  0  0  0  0  0  0  0  0  0
   -1.2570   60.6320   73.3200 Cl  0  0  0  0  0  0  0  0  0  0  0  0
   -0.0260   61.5820   72.5840 C   0  0  0  0  0  0  0  0  0  0  0  0
    1.2630   61.0640   72.4610 C   0  0  0  0  0  0  0  0  0  0  0  0
    2.2650   61.8270   71.8590 C   0  0  0  0  0  0  0  0  0  0  0  0
    1.9780   63.1110   71.3910 C   0  0  0  0  0  0  0  0  0  0  0  0
    0.6850   63.6360   71.5330 C   0  0  0  0  0  0  0  0  0  0  0  0
   -0.3230   62.8610   72.1200 C   0  0  0  0  0  0  0  0  0  0  0  0
    1.8630   69.6840   67.8240 C   0  0  0  0  0  0  0  0  0  0  0  0
    1.7230   70.7720   68.3720 O   0  0  0  0  0  0  0  0  0  0  0  0
    3.0610   69.4810   66.9320 C   0  0  0  0  0  0  0  0  0  0  0  0
    2.9030   68.9710   65.8300 O   0  0  0  0  0  0  0  0  0  0  0  0
    4.3790   69.9250   67.4390 C   0  0  0  0  0  0  0  0  0  0  0  0
    5.4830   69.8940   66.5940 C   0  0  0  0  0  0  0  0  0  0  0  0
    6.7050   70.3360   67.0900 C   0  0  0  0  0  0  0  0  0  0  0  0
    6.7820   70.7930   68.4020 C   0  0  0  0  0  0  0  0  0  0  0  0
    5.6280   70.7910   69.1700 C   0  0  0  0  0  0  0  0  0  0  0  0
    4.4270   70.3700   68.7200 N   0  0  0  0  0  0  0  0  0  0  0  0
   -1.6813   65.7067   68.5461 H   0  0  0  0  0  0  0  0  0  0  0  0
   -2.2982   67.7200   67.2151 H   0  0  0  0  0  0  0  0  0  0  0  0
   -0.6401   69.5517   66.8841 H   0  0  0  0  0  0  0  0  0  0  0  0
    2.2484   67.3592   69.2489 H   0  0  0  0  0  0  0  0  0  0  0  0
    1.0471   64.4493   69.1896 H   0  0  0  0  0  0  0  0  0  0  0  0
    1.4898   60.0557   72.8378 H   0  0  0  0  0  0  0  0  0  0  0  0
    3.2802   61.4170   71.7533 H   0  0  0  0  0  0  0  0  0  0  0  0
    2.7656   63.7105   70.9112 H   0  0  0  0  0  0  0  0  0  0  0  0
   -1.3436   63.2603   72.2140 H   0  0  0  0  0  0  0  0  0  0  0  0
    5.3922   69.5294   65.5602 H   0  0  0  0  0  0  0  0  0  0  0  0
    7.6009   70.3244   66.4519 H   0  0  0  0  0  0  0  0  0  0  0  0
    7.7359   71.1474   68.8198 H   0  0  0  0  0  0  0  0  0  0  0  0
    5.6948   71.1536   70.2064 H   0  0  0  0  0  0  0  0  0  0  0  0
  2  1  2  0
  3  2  1  0
  4  3  2  0
  5  4  1  0
  6  5  2  0
  6  1  1  0
  8  7  2  0
  9  7  1  0
  9  1  1  0
 11 10  1  0
 12 11  2  0
 13 12  1  0
 14 13  2  0
 15 14  1  0
 15  7  1  0
 16 11  1  0
 16 15  2  0
 17  5  1  0
 18 17  2  0
 19 17  1  0
 20 19  2  0
 21 19  1  0
 22 21  2  0
 23 22  1  0
 24 23  2  0
 25 24  1  0
 26 25  2  0
 26 21  1  0
  2 27  1  0
  3 28  1  0
  4 29  1  0
  6 30  1  0
  9 31  1  0
 12 32  1  0
 13 33  1  0
 14 34  1  0
 16 35  1  0
 22 36  1  0
 23 37  1  0
 24 38  1  0
 25 39  1  0
M  END
>  <score>  (4) 
-9.924

$$$$
=
     RDKit          3D

 39 41  0  0  0  0  0  0  0  0999 V2000
    0.9180   67.3690   67.6130 C   0  0  0  0  0  0  0  0  0  0  0  0
   -0.3820   67.5660   67.1280 C   0  0  0  0  0  0  0  0  0  0  0  0
   -1.4850   67.0850   67.8340 C   0  0  0  0  0  0  0  0  0  0  0  0
   -1.3000   66.3980   69.0310 C   0  0  0  0  0  0  0  0  0  0  0  0
   -0.0060   66.1860   69.5240 C   0  0  0  0  0  0  0  0  0  0  0  0
    1.1000   66.6660   68.8080 C   0  0  0  0  0  0  0  0  0  0  0  0
    2.1110   67.8410   65.4640 C   0  0  0  0  0  0  0  0  0  0  0  0
    1.3690   67.2680   64.6760 O   0  0  0  0  0  0  0  0  0  0  0  0
    1.9800   67.8880   66.8410 N   0  0  0  0  0  0  0  0  0  0  0  0
    6.2930   70.7290   66.4330 Cl  0  0  0  0  0  0  0  0  0  0  0  0
    5.2820   69.8660   65.3420 C   0  0  0  0  0  0  0  0  0  0  0  0
    5.6070   69.8250   63.9860 C   0  0  0  0  0  0  0  0  0  0  0  0
    4.7940   69.1200   63.0970 C   0  0  0  0  0  0  0  0  0  0  0  0
    3.6510   68.4680   63.5640 C   0  0  0  0  0  0  0  0  0  0  0  0
    3.3170   68.5270   64.9250 C   0  0  0  0  0  0  0  0  0  0  0  0
    4.1450   69.2170   65.8180 C   0  0  0  0  0  0  0  0  0  0  0  0
    0.1460   65.4430   70.8030 C   0  0  0  0  0  0  0  0  0  0  0  0
    0.0170   65.9910   71.8920 O   0  0  0  0  0  0  0  0  0  0  0  0
    0.4360   63.9640   70.7760 C   0  0  0  0  0  0  0  0  0  0  0  0
   -0.4460   63.1790   71.1020 O   0  0  0  0  0  0  0  0  0  0  0  0
    1.7840   63.5360   70.3420 C   0  0  0  0  0  0  0  0  0  0  0  0
    2.9070   64.1210   70.9180 C   0  0  0  0  0  0  0  0  0  0  0  0
    4.1620   63.6850   70.5050 C   0  0  0  0  0  0  0  0  0  0  0  0
    4.2530   62.6850   69.5420 C   0  0  0  0  0  0  0  0  0  0  0  0
    3.0790   62.1570   69.0270 C   0  0  0  0  0  0  0  0  0  0  0  0
    1.8460   62.5560   69.4050 N   0  0  0  0  0  0  0  0  0  0  0  0
   -0.5342   68.1052   66.1814 H   0  0  0  0  0  0  0  0  0  0  0  0
   -2.5009   67.2485   67.4450 H   0  0  0  0  0  0  0  0  0  0  0  0
   -2.1699   66.0218   69.5894 H   0  0  0  0  0  0  0  0  0  0  0  0
    2.1167   66.4885   69.1886 H   0  0  0  0  0  0  0  0  0  0  0  0
    2.7399   68.3520   67.3588 H   0  0  0  0  0  0  0  0  0  0  0  0
    6.5024   70.3473   63.6180 H   0  0  0  0  0  0  0  0  0  0  0  0
    5.0537   69.0781   62.0289 H   0  0  0  0  0  0  0  0  0  0  0  0
    3.0126   67.9082   62.8647 H   0  0  0  0  0  0  0  0  0  0  0  0
    3.8992   69.2466   66.8898 H   0  0  0  0  0  0  0  0  0  0  0  0
    2.8054   64.9077   71.6801 H   0  0  0  0  0  0  0  0  0  0  0  0
    5.0730   64.1264   70.9355 H   0  0  0  0  0  0  0  0  0  0  0  0
    5.2326   62.3221   69.1976 H   0  0  0  0  0  0  0  0  0  0  0  0
    3.1568   61.3667   68.2658 H   0  0  0  0  0  0  0  0  0  0  0  0
  2  1  2  0
  3  2  1  0
  4  3  2  0
  5  4  1  0
  6  5  2  0
  6  1  1  0
  8  7  2  0
  9  7  1  0
  9  1  1  0
 11 10  1  0
 12 11  2  0
 13 12  1  0
 14 13  2  0
 15 14  1  0
 15  7  1  0
 16 11  1  0
 16 15  2  0
 17  5  1  0
 18 17  2  0
 19 17  1  0
 20 19  2  0
 21 19  1  0
 22 21  2  0
 23 22  1  0
 24 23  2  0
 25 24  1  0
 26 25  2  0
 26 21  1  0
  2 27  1  0
  3 28  1  0
  4 29  1  0
  6 30  1  0
  9 31  1  0
 12 32  1  0
 13 33  1  0
 14 34  1  0
 16 35  1  0
 22 36  1  0
 23 37  1  0
 24 38  1  0
 25 39  1  0
M  END
>  <score>  (5) 
-9.539

$$$$
=
     RDKit          3D

 39 41  0  0  0  0  0  0  0  0999 V2000
    1.1670   67.6520   68.0110 C   0  0  0  0  0  0  0  0  0  0  0  0
   -0.0230   67.7610   67.2800 C   0  0  0  0  0  0  0  0  0  0  0  0
   -1.1950   67.1520   67.7320 C   0  0  0  0  0  0  0  0  0  0  0  0
   -1.1870   66.4250   68.9190 C   0  0  0  0  0  0  0  0  0  0  0  0
   -0.0030   66.3010   69.6580 C   0  0  0  0  0  0  0  0  0  0  0  0
    1.1730   66.9090   69.1950 C   0  0  0  0  0  0  0  0  0  0  0  0
    2.9220   69.4360   67.9760 C   0  0  0  0  0  0  0  0  0  0  0  0
    2.5380   70.1340   68.9060 O   0  0  0  0  0  0  0  0  0  0  0  0
    2.3070   68.2980   67.4860 N   0  0  0  0  0  0  0  0  0  0  0  0
    5.5050   69.5440   63.4940 Cl  0  0  0  0  0  0  0  0  0  0  0  0
    5.3770   69.9290   65.1660 C   0  0  0  0  0  0  0  0  0  0  0  0
    6.4130   70.6190   65.7960 C   0  0  0  0  0  0  0  0  0  0  0  0
    6.3120   70.9410   67.1500 C   0  0  0  0  0  0  0  0  0  0  0  0
    5.1790   70.5630   67.8750 C   0  0  0  0  0  0  0  0  0  0  0  0
    4.1480   69.8530   67.2420 C   0  0  0  0  0  0  0  0  0  0  0  0
    4.2430   69.5480   65.8790 C   0  0  0  0  0  0  0  0  0  0  0  0
   -0.0380   65.5110   70.9170 C   0  0  0  0  0  0  0  0  0  0  0  0
   -0.3930   66.0040   71.9820 O   0  0  0  0  0  0  0  0  0  0  0  0
    0.3400   64.0520   70.8930 C   0  0  0  0  0  0  0  0  0  0  0  0
    0.3670   63.4630   69.8190 O   0  0  0  0  0  0  0  0  0  0  0  0
    0.6710   63.4070   72.1820 C   0  0  0  0  0  0  0  0  0  0  0  0
    1.9780   62.9980   72.4270 C   0  0  0  0  0  0  0  0  0  0  0  0
    2.2660   62.4120   73.6550 C   0  0  0  0  0  0  0  0  0  0  0  0
    1.2480   62.2590   74.5920 C   0  0  0  0  0  0  0  0  0  0  0  0
   -0.0240   62.7010   74.2620 C   0  0  0  0  0  0  0  0  0  0  0  0
   -0.3370   63.2730   73.0800 N   0  0  0  0  0  0  0  0  0  0  0  0
   -0.0340   68.3324   66.3401 H   0  0  0  0  0  0  0  0  0  0  0  0
   -2.1240   67.2466   67.1506 H   0  0  0  0  0  0  0  0  0  0  0  0
   -2.1109   65.9474   69.2772 H   0  0  0  0  0  0  0  0  0  0  0  0
    2.1061   66.8005   69.7673 H   0  0  0  0  0  0  0  0  0  0  0  0
    2.7270   67.8756   66.6457 H   0  0  0  0  0  0  0  0  0  0  0  0
    7.3082   70.9088   65.2262 H   0  0  0  0  0  0  0  0  0  0  0  0
    7.1242   71.4923   67.6464 H   0  0  0  0  0  0  0  0  0  0  0  0
    5.0956   70.8218   68.9409 H   0  0  0  0  0  0  0  0  0  0  0  0
    3.4267   69.0106   65.3742 H   0  0  0  0  0  0  0  0  0  0  0  0
    2.7634   63.1346   71.6690 H   0  0  0  0  0  0  0  0  0  0  0  0
    3.2873   62.0731   73.8834 H   0  0  0  0  0  0  0  0  0  0  0  0
    1.4479   61.7985   75.5707 H   0  0  0  0  0  0  0  0  0  0  0  0
   -0.8245   62.5785   75.0065 H   0  0  0  0  0  0  0  0  0  0  0  0
  2  1  2  0
  3  2  1  0
  4  3  2  0
  5  4  1  0
  6  5  2  0
  6  1  1  0
  8  7  2  0
  9  7  1  0
  9  1  1  0
 11 10  1  0
 12 11  2  0
 13 12  1  0
 14 13  2  0
 15 14  1  0
 15  7  1  0
 16 11  1  0
 16 15  2  0
 17  5  1  0
 18 17  2  0
 19 17  1  0
 20 19  2  0
 21 19  1  0
 22 21  2  0
 23 22  1  0
 24 23  2  0
 25 24  1  0
 26 25  2  0
 26 21  1  0
  2 27  1  0
  3 28  1  0
  4 29  1  0
  6 30  1  0
  9 31  1  0
 12 32  1  0
 13 33  1  0
 14 34  1  0
 16 35  1  0
 22 36  1  0
 23 37  1  0
 24 38  1  0
 25 39  1  0
M  END
>  <score>  (6) 
-9.498

$$$$
=
     RDKit          3D

 39 41  0  0  0  0  0  0  0  0999 V2000
    0.4640   66.4670   69.4910 C   0  0  0  0  0  0  0  0  0  0  0  0
   -0.8030   66.3450   68.9070 C   0  0  0  0  0  0  0  0  0  0  0  0
   -1.1460   67.1000   67.7850 C   0  0  0  0  0  0  0  0  0  0  0  0
   -0.2240   67.9890   67.2380 C   0  0  0  0  0  0  0  0  0  0  0  0
    1.0440   68.1280   67.8150 C   0  0  0  0  0  0  0  0  0  0  0  0
    1.3810   67.3710   68.9460 C   0  0  0  0  0  0  0  0  0  0  0  0
    0.6560   64.2870   70.7060 C   0  0  0  0  0  0  0  0  0  0  0  0
    0.2620   63.5200   69.8360 O   0  0  0  0  0  0  0  0  0  0  0  0
    0.7320   65.6660   70.6220 N   0  0  0  0  0  0  0  0  0  0  0  0
   -0.1380   64.1150   75.8160 Cl  0  0  0  0  0  0  0  0  0  0  0  0
    0.7070   63.6040   74.4070 C   0  0  0  0  0  0  0  0  0  0  0  0
    1.7380   62.6720   74.5210 C   0  0  0  0  0  0  0  0  0  0  0  0
    2.4220   62.2480   73.3810 C   0  0  0  0  0  0  0  0  0  0  0  0
    2.0810   62.7650   72.1300 C   0  0  0  0  0  0  0  0  0  0  0  0
    1.0550   63.7150   72.0210 C   0  0  0  0  0  0  0  0  0  0  0  0
    0.3570   64.1250   73.1640 C   0  0  0  0  0  0  0  0  0  0  0  0
    1.9950   69.0930   67.2020 C   0  0  0  0  0  0  0  0  0  0  0  0
    2.1830   69.1380   65.9910 O   0  0  0  0  0  0  0  0  0  0  0  0
    2.7330   70.0720   68.0780 C   0  0  0  0  0  0  0  0  0  0  0  0
    2.1130   70.6830   68.9400 O   0  0  0  0  0  0  0  0  0  0  0  0
    4.1860   70.2360   67.8530 C   0  0  0  0  0  0  0  0  0  0  0  0
    4.9600   70.8770   68.8150 C   0  0  0  0  0  0  0  0  0  0  0  0
    6.3270   70.9990   68.5870 C   0  0  0  0  0  0  0  0  0  0  0  0
    6.8710   70.4790   67.4170 C   0  0  0  0  0  0  0  0  0  0  0  0
    6.0230   69.8520   66.5170 C   0  0  0  0  0  0  0  0  0  0  0  0
    4.6930   69.7160   66.7070 N   0  0  0  0  0  0  0  0  0  0  0  0
   -1.5356   65.6464   69.3375 H   0  0  0  0  0  0  0  0  0  0  0  0
   -2.1432   66.9933   67.3331 H   0  0  0  0  0  0  0  0  0  0  0  0
   -0.4923   68.5826   66.3516 H   0  0  0  0  0  0  0  0  0  0  0  0
    2.3726   67.4890   69.4073 H   0  0  0  0  0  0  0  0  0  0  0  0
    1.0152   66.1626   71.4788 H   0  0  0  0  0  0  0  0  0  0  0  0
    2.0117   62.2716   75.5083 H   0  0  0  0  0  0  0  0  0  0  0  0
    3.2298   61.5065   73.4681 H   0  0  0  0  0  0  0  0  0  0  0  0
    2.6166   62.4276   71.2304 H   0  0  0  0  0  0  0  0  0  0  0  0
   -0.4625   64.8540   73.0803 H   0  0  0  0  0  0  0  0  0  0  0  0
    4.5030   71.2770   69.7321 H   0  0  0  0  0  0  0  0  0  0  0  0
    6.9708   71.5013   69.3240 H   0  0  0  0  0  0  0  0  0  0  0  0
    7.9482   70.5633   67.2108 H   0  0  0  0  0  0  0  0  0  0  0  0
    6.4590   69.4414   65.5944 H   0  0  0  0  0  0  0  0  0  0  0  0
  2  1  2  0
  3  2  1  0
  4  3  2  0
  5  4  1  0
  6  5  2  0
  6  1  1  0
  8  7  2  0
  9  7  1  0
  9  1  1  0
 11 10  1  0
 12 11  2  0
 13 12  1  0
 14 13  2  0
 15 14  1  0
 15  7  1  0
 16 11  1  0
 16 15  2  0
 17  5  1  0
 18 17  2  0
 19 17  1  0
 20 19  2  0
 21 19  1  0
 22 21  2  0
 23 22  1  0
 24 23  2  0
 25 24  1  0
 26 25  2  0
 26 21  1  0
  2 27  1  0
  3 28  1  0
  4 29  1  0
  6 30  1  0
  9 31  1  0
 12 32  1  0
 13 33  1  0
 14 34  1  0
 16 35  1  0
 22 36  1  0
 23 37  1  0
 24 38  1  0
 25 39  1  0
M  END
>  <score>  (7) 
-9.487

$$$$
=
     RDKit          3D

 39 41  0  0  0  0  0  0  0  0999 V2000
    0.9810   64.5580   70.6010 C   0  0  0  0  0  0  0  0  0  0  0  0
    0.3290   64.5430   71.8410 C   0  0  0  0  0  0  0  0  0  0  0  0
    0.8070   63.7520   72.8870 C   0  0  0  0  0  0  0  0  0  0  0  0
    1.9410   62.9650   72.7010 C   0  0  0  0  0  0  0  0  0  0  0  0
    2.5990   62.9630   71.4640 C   0  0  0  0  0  0  0  0  0  0  0  0
    2.1100   63.7550   70.4150 C   0  0  0  0  0  0  0  0  0  0  0  0
    0.8160   66.6780   69.2800 C   0  0  0  0  0  0  0  0  0  0  0  0
    1.6420   67.3640   69.8700 O   0  0  0  0  0  0  0  0  0  0  0  0
    0.4350   65.3860   69.5960 N   0  0  0  0  0  0  0  0  0  0  0  0
    1.1010   68.8070   64.5730 Cl  0  0  0  0  0  0  0  0  0  0  0  0
    0.1870   68.2710   65.9280 C   0  0  0  0  0  0  0  0  0  0  0  0
   -1.2010   68.4110   65.9240 C   0  0  0  0  0  0  0  0  0  0  0  0
   -1.9480   67.9720   67.0170 C   0  0  0  0  0  0  0  0  0  0  0  0
   -1.3050   67.4040   68.1190 C   0  0  0  0  0  0  0  0  0  0  0  0
    0.0920   67.2820   68.1280 C   0  0  0  0  0  0  0  0  0  0  0  0
    0.8380   67.7050   67.0220 C   0  0  0  0  0  0  0  0  0  0  0  0
    3.8010   62.1040   71.3080 C   0  0  0  0  0  0  0  0  0  0  0  0
    4.8270   62.3000   71.9510 O   0  0  0  0  0  0  0  0  0  0  0  0
    3.7640   60.9340   70.3580 C   0  0  0  0  0  0  0  0  0  0  0  0
    4.0980   61.1050   69.1910 O   0  0  0  0  0  0  0  0  0  0  0  0
    3.3320   59.6250   70.8950 C   0  0  0  0  0  0  0  0  0  0  0  0
    2.5120   59.5840   72.0180 C   0  0  0  0  0  0  0  0  0  0  0  0
    2.1040   58.3400   72.4900 C   0  0  0  0  0  0  0  0  0  0  0  0
    2.5230   57.1900   71.8290 C   0  0  0  0  0  0  0  0  0  0  0  0
    3.3370   57.3290   70.7150 C   0  0  0  0  0  0  0  0  0  0  0  0
    3.7500   58.5190   70.2300 N   0  0  0  0  0  0  0  0  0  0  0  0
   -0.5686   65.1608   71.9917 H   0  0  0  0  0  0  0  0  0  0  0  0
    0.2886   63.7502   73.8572 H   0  0  0  0  0  0  0  0  0  0  0  0
    2.3204   62.3444   73.5261 H   0  0  0  0  0  0  0  0  0  0  0  0
    2.6182   63.7443   69.4395 H   0  0  0  0  0  0  0  0  0  0  0  0
   -0.3309   64.9841   69.0368 H   0  0  0  0  0  0  0  0  0  0  0  0
   -1.7058   68.8672   65.0597 H   0  0  0  0  0  0  0  0  0  0  0  0
   -3.0433   68.0731   67.0110 H   0  0  0  0  0  0  0  0  0  0  0  0
   -1.8938   67.0526   68.9791 H   0  0  0  0  0  0  0  0  0  0  0  0
    1.9321   67.5912   67.0165 H   0  0  0  0  0  0  0  0  0  0  0  0
    2.1946   60.5101   72.5195 H   0  0  0  0  0  0  0  0  0  0  0  0
    1.4569   58.2669   73.3765 H   0  0  0  0  0  0  0  0  0  0  0  0
    2.2160   56.1943   72.1815 H   0  0  0  0  0  0  0  0  0  0  0  0
    3.6653   56.4162   70.1963 H   0  0  0  0  0  0  0  0  0  0  0  0
  2  1  2  0
  3  2  1  0
  4  3  2  0
  5  4  1  0
  6  5  2  0
  6  1  1  0
  8  7  2  0
  9  7  1  0
  9  1  1  0
 11 10  1  0
 12 11  2  0
 13 12  1  0
 14 13  2  0
 15 14  1  0
 15  7  1  0
 16 11  1  0
 16 15  2  0
 17  5  1  0
 18 17  2  0
 19 17  1  0
 20 19  2  0
 21 19  1  0
 22 21  2  0
 23 22  1  0
 24 23  2  0
 25 24  1  0
 26 25  2  0
 26 21  1  0
  2 27  1  0
  3 28  1  0
  4 29  1  0
  6 30  1  0
  9 31  1  0
 12 32  1  0
 13 33  1  0
 14 34  1  0
 16 35  1  0
 22 36  1  0
 23 37  1  0
 24 38  1  0
 25 39  1  0
M  END
>  <score>  (8) 
-9.303

$$$$
=
     RDKit          3D

 39 41  0  0  0  0  0  0  0  0999 V2000
    0.8820   63.4240   70.7800 C   0  0  0  0  0  0  0  0  0  0  0  0
   -0.1750   63.0180   71.6060 C   0  0  0  0  0  0  0  0  0  0  0  0
   -0.0110   61.9650   72.5060 C   0  0  0  0  0  0  0  0  0  0  0  0
    1.2120   61.3030   72.5870 C   0  0  0  0  0  0  0  0  0  0  0  0
    2.2760   61.6920   71.7620 C   0  0  0  0  0  0  0  0  0  0  0  0
    2.1030   62.7480   70.8550 C   0  0  0  0  0  0  0  0  0  0  0  0
    0.2460   65.7830   70.2360 C   0  0  0  0  0  0  0  0  0  0  0  0
   -0.0330   66.1950   71.3560 O   0  0  0  0  0  0  0  0  0  0  0  0
    0.6340   64.4990   69.8990 N   0  0  0  0  0  0  0  0  0  0  0  0
    2.4490   69.4380   67.3110 Cl  0  0  0  0  0  0  0  0  0  0  0  0
    1.1160   68.4230   67.6980 C   0  0  0  0  0  0  0  0  0  0  0  0
   -0.0510   68.4970   66.9370 C   0  0  0  0  0  0  0  0  0  0  0  0
   -1.1340   67.6710   67.2420 C   0  0  0  0  0  0  0  0  0  0  0  0
   -1.0530   66.7810   68.3140 C   0  0  0  0  0  0  0  0  0  0  0  0
    0.1160   66.7220   69.0880 C   0  0  0  0  0  0  0  0  0  0  0  0
    1.2080   67.5370   68.7690 C   0  0  0  0  0  0  0  0  0  0  0  0
    3.5620   60.9550   71.8770 C   0  0  0  0  0  0  0  0  0  0  0  0
    4.5940   61.5050   72.2450 O   0  0  0  0  0  0  0  0  0  0  0  0
    3.6070   59.4810   71.5660 C   0  0  0  0  0  0  0  0  0  0  0  0
    4.1290   59.1100   70.5220 O   0  0  0  0  0  0  0  0  0  0  0  0
    3.0200   58.5510   72.5560 C   0  0  0  0  0  0  0  0  0  0  0  0
    2.1920   57.5210   72.1200 C   0  0  0  0  0  0  0  0  0  0  0  0
    1.6700   56.6500   73.0700 C   0  0  0  0  0  0  0  0  0  0  0  0
    1.9920   56.8320   74.4120 C   0  0  0  0  0  0  0  0  0  0  0  0
    2.8290   57.8830   74.7520 C   0  0  0  0  0  0  0  0  0  0  0  0
    3.3530   58.7470   73.8560 N   0  0  0  0  0  0  0  0  0  0  0  0
   -1.1439   63.5351   71.5439 H   0  0  0  0  0  0  0  0  0  0  0  0
   -0.8470   61.6575   73.1514 H   0  0  0  0  0  0  0  0  0  0  0  0
    1.3427   60.4746   73.2988 H   0  0  0  0  0  0  0  0  0  0  0  0
    2.9338   63.0460   70.1985 H   0  0  0  0  0  0  0  0  0  0  0  0
    0.7554   64.3057   68.8946 H   0  0  0  0  0  0  0  0  0  0  0  0
   -0.1175   69.2052   66.0979 H   0  0  0  0  0  0  0  0  0  0  0  0
   -2.0515   67.7215   66.6373 H   0  0  0  0  0  0  0  0  0  0  0  0
   -1.9045   66.1266   68.5519 H   0  0  0  0  0  0  0  0  0  0  0  0
    2.1336   67.4783   69.3605 H   0  0  0  0  0  0  0  0  0  0  0  0
    1.9567   57.3991   71.0524 H   0  0  0  0  0  0  0  0  0  0  0  0
    1.0093   55.8255   72.7641 H   0  0  0  0  0  0  0  0  0  0  0  0
    1.5919   56.1581   75.1838 H   0  0  0  0  0  0  0  0  0  0  0  0
    3.0813   58.0215   75.8137 H   0  0  0  0  0  0  0  0  0  0  0  0
  2  1  2  0
  3  2  1  0
  4  3  2  0
  5  4  1  0
  6  5  2  0
  6  1  1  0
  8  7  2  0
  9  7  1  0
  9  1  1  0
 11 10  1  0
 12 11  2  0
 13 12  1  0
 14 13  2  0
 15 14  1  0
 15  7  1  0
 16 11  1  0
 16 15  2  0
 17  5  1  0
 18 17  2  0
 19 17  1  0
 20 19  2  0
 21 19  1  0
 22 21  2  0
 23 22  1  0
 24 23  2  0
 25 24  1  0
 26 25  2  0
 26 21  1  0
  2 27  1  0
  3 28  1  0
  4 29  1  0
  6 30  1  0
  9 31  1  0
 12 32  1  0
 13 33  1  0
 14 34  1  0
 16 35  1  0
 22 36  1  0
 23 37  1  0
 24 38  1  0
 25 39  1  0
M  END
>  <score>  (9) 
-9.137

$$$$
