=
     RDKit          3D

 62 66  0  0  0  0  0  0  0  0999 V2000
    2.5020   62.5510   71.3400 C   0  0  2  0  0  0  0  0  0  0  0  0
    2.4060   61.7820   70.1370 O   0  0  0  0  0  0  0  0  0  0  0  0
    3.7090   61.7610   69.5440 C   0  0  0  0  0  0  0  0  0  0  0  0
    4.6890   62.1780   70.4880 O   0  0  0  0  0  0  0  0  0  0  0  0
    4.0010   62.5460   71.6820 C   0  0  2  0  0  0  0  0  0  0  0  0
    4.2160   61.4690   72.7660 C   0  0  0  0  0  0  0  0  0  0  0  0
    2.8910   60.7100   72.7960 C   0  0  2  0  0  0  0  0  0  0  0  0
    1.8360   61.8150   72.5460 C   0  0  1  0  0  0  0  0  0  0  0  0
    1.6860   62.7940   73.7410 C   0  0  0  0  0  0  0  0  0  0  0  0
    0.4990   61.1030   72.2540 C   0  0  0  0  0  0  0  0  0  0  0  0
    0.0760   60.1110   73.3650 C   0  0  1  0  0  0  0  0  0  0  0  0
    1.2010   59.1000   73.7520 C   0  0  1  0  0  0  0  0  0  0  0  0
    2.5710   59.8160   74.0040 C   0  0  1  0  0  0  0  0  0  0  0  0
    3.6980   58.7910   74.2300 C   0  0  0  0  0  0  0  0  0  0  0  0
    3.3720   57.8090   75.3500 C   0  0  0  0  0  0  0  0  0  0  0  0
    2.0450   57.1420   75.1000 C   0  0  0  0  0  0  0  0  0  0  0  0
    1.9660   55.8020   74.9990 C   0  0  0  0  0  0  0  0  0  0  0  0
    0.6950   55.1160   74.6940 C   0  0  0  0  0  0  0  0  0  0  0  0
    0.6290   53.8950   74.6240 O   0  0  0  0  0  0  0  0  0  0  0  0
   -0.4940   55.9600   74.4750 C   0  0  0  0  0  0  0  0  0  0  0  0
   -0.4210   57.2940   74.5750 C   0  0  0  0  0  0  0  0  0  0  0  0
    0.8420   58.0860   74.9150 C   0  0  2  0  0  0  0  0  0  0  0  0
    0.5640   58.7650   76.2760 C   0  0  0  0  0  0  0  0  0  0  0  0
    1.3870   58.3310   72.6120 F   0  0  0  0  0  0  0  0  0  0  0  0
    4.0210   60.3410   69.0870 C   0  0  0  0  0  0  0  0  0  0  0  0
    3.7400   62.7200   68.3570 C   0  0  0  0  0  0  0  0  0  0  0  0
    1.9540   63.9640   71.0950 C   0  0  0  0  0  0  0  0  0  0  0  0
    2.6840   64.9520   70.9600 O   0  0  0  0  0  0  0  0  0  0  0  0
    0.4390   64.1250   71.0410 C   0  0  0  0  0  0  0  0  0  0  0  0
   -0.0930   63.5900   69.8360 O   0  0  0  0  0  0  0  0  0  0  0  0
   -0.4100   60.8420   74.4850 O   0  0  0  0  0  0  0  0  0  0  0  0
    4.3618   63.5190   72.0467 H   0  0  0  0  0  0  0  0  0  0  0  0
    5.0449   60.7991   72.4935 H   0  0  0  0  0  0  0  0  0  0  0  0
    4.4821   61.8975   73.7435 H   0  0  0  0  0  0  0  0  0  0  0  0
    2.9190   59.9175   72.0336 H   0  0  0  0  0  0  0  0  0  0  0  0
    1.7715   62.2360   74.6851 H   0  0  0  0  0  0  0  0  0  0  0  0
    2.4779   63.5559   73.6924 H   0  0  0  0  0  0  0  0  0  0  0  0
    0.7023   63.2839   73.6924 H   0  0  0  0  0  0  0  0  0  0  0  0
   -0.2868   61.8656   72.1496 H   0  0  0  0  0  0  0  0  0  0  0  0
    0.6363   60.5191   71.3319 H   0  0  0  0  0  0  0  0  0  0  0  0
   -0.7348   59.4810   72.9705 H   0  0  0  0  0  0  0  0  0  0  0  0
    2.4968   60.4305   74.9133 H   0  0  0  0  0  0  0  0  0  0  0  0
    3.8544   58.2264   73.2990 H   0  0  0  0  0  0  0  0  0  0  0  0
    4.6027   59.3448   74.5212 H   0  0  0  0  0  0  0  0  0  0  0  0
    4.1588   57.0418   75.3987 H   0  0  0  0  0  0  0  0  0  0  0  0
    3.3187   58.3599   76.3006 H   0  0  0  0  0  0  0  0  0  0  0  0
    2.8750   55.2007   75.1481 H   0  0  0  0  0  0  0  0  0  0  0  0
   -1.4554   55.4872   74.2258 H   0  0  0  0  0  0  0  0  0  0  0  0
   -1.3441   57.8656   74.3983 H   0  0  0  0  0  0  0  0  0  0  0  0
    0.8440   58.0812   77.0909 H   0  0  0  0  0  0  0  0  0  0  0  0
    1.1563   59.6887   76.3527 H   0  0  0  0  0  0  0  0  0  0  0  0
   -0.5061   59.0081   76.3527 H   0  0  0  0  0  0  0  0  0  0  0  0
    4.1628   59.6956   69.9664 H   0  0  0  0  0  0  0  0  0  0  0  0
    3.1855   59.9585   68.4824 H   0  0  0  0  0  0  0  0  0  0  0  0
    4.9399   60.3440   68.4824 H   0  0  0  0  0  0  0  0  0  0  0  0
    3.7735   63.7565   68.7238 H   0  0  0  0  0  0  0  0  0  0  0  0
    4.6321   62.5183   67.7459 H   0  0  0  0  0  0  0  0  0  0  0  0
    2.8367   62.5763   67.7459 H   0  0  0  0  0  0  0  0  0  0  0  0
   -0.0085   63.5972   71.8961 H   0  0  0  0  0  0  0  0  0  0  0  0
    0.2015   65.1984   71.0798 H   0  0  0  0  0  0  0  0  0  0  0  0
   -0.7743   62.9049   70.0516 H   0  0  0  0  0  0  0  0  0  0  0  0
   -0.1160   60.3998   75.3205 H   0  0  0  0  0  0  0  0  0  0  0  0
  2  1  1  0
  3  2  1  0
  4  3  1  0
  5  4  1  0
  5  1  1  0
  6  5  1  0
  7  6  1  0
  8  7  1  0
  8  1  1  0
  8  9  1  1
 10  8  1  0
 11 10  1  0
 12 11  1  0
 13 12  1  0
 13  7  1  0
 14 13  1  0
 15 14  1  0
 16 15  1  0
 17 16  2  0
 18 17  1  0
 19 18  2  0
 20 18  1  0
 21 20  2  0
 22 21  1  0
 22 16  1  0
 22 12  1  0
 22 23  1  1
 12 24  1  6
 25  3  1  0
 26  3  1  0
  1 27  1  6
 28 27  2  0
 29 27  1  0
 30 29  1  0
 31 11  1  0
  5 32  1  1
  6 33  1  0
  6 34  1  0
  7 35  1  6
  9 36  1  0
  9 37  1  0
  9 38  1  0
 10 39  1  0
 10 40  1  0
 11 41  1  6
 13 42  1  1
 14 43  1  0
 14 44  1  0
 15 45  1  0
 15 46  1  0
 17 47  1  0
 20 48  1  0
 21 49  1  0
 23 50  1  0
 23 51  1  0
 23 52  1  0
 25 53  1  0
 25 54  1  0
 25 55  1  0
 26 56  1  0
 26 57  1  0
 26 58  1  0
 29 59  1  0
 29 60  1  0
 30 61  1  0
 31 62  1  0
M  END
>  <score>  (1) 
-9.051

$$$$
=
     RDKit          3D

 62 66  0  0  0  0  0  0  0  0999 V2000
    0.8080   56.5530   75.1710 C   0  0  2  0  0  0  0  0  0  0  0  0
   -0.4410   56.4670   74.4770 O   0  0  0  0  0  0  0  0  0  0  0  0
   -1.4780   56.5930   75.4560 C   0  0  0  0  0  0  0  0  0  0  0  0
   -0.9490   57.1020   76.6760 O   0  0  0  0  0  0  0  0  0  0  0  0
    0.4610   57.2360   76.5040 C   0  0  2  0  0  0  0  0  0  0  0  0
    0.8350   58.7260   76.3640 C   0  0  0  0  0  0  0  0  0  0  0  0
    1.1130   58.8940   74.8710 C   0  0  2  0  0  0  0  0  0  0  0  0
    1.7830   57.5570   74.4750 C   0  0  1  0  0  0  0  0  0  0  0  0
    3.2100   57.3950   75.0620 C   0  0  0  0  0  0  0  0  0  0  0  0
    1.8200   57.5100   72.9330 C   0  0  0  0  0  0  0  0  0  0  0  0
    2.5150   58.7390   72.2980 C   0  0  1  0  0  0  0  0  0  0  0  0
    1.9650   60.1010   72.8270 C   0  0  1  0  0  0  0  0  0  0  0  0
    1.8830   60.1350   74.3910 C   0  0  1  0  0  0  0  0  0  0  0  0
    1.1940   61.4210   74.8820 C   0  0  0  0  0  0  0  0  0  0  0  0
    1.8600   62.6790   74.3370 C   0  0  0  0  0  0  0  0  0  0  0  0
    1.9450   62.6250   72.8330 C   0  0  0  0  0  0  0  0  0  0  0  0
    1.3670   63.5810   72.0840 C   0  0  0  0  0  0  0  0  0  0  0  0
    1.3760   63.5290   70.6080 C   0  0  0  0  0  0  0  0  0  0  0  0
    0.8650   64.4160   69.9360 O   0  0  0  0  0  0  0  0  0  0  0  0
    2.0250   62.3660   69.9770 C   0  0  0  0  0  0  0  0  0  0  0  0
    2.6030   61.4110   70.7180 C   0  0  0  0  0  0  0  0  0  0  0  0
    2.6670   61.3970   72.2450 C   0  0  2  0  0  0  0  0  0  0  0  0
    4.1650   61.5150   72.6080 C   0  0  0  0  0  0  0  0  0  0  0  0
    0.6500   60.1420   72.3840 F   0  0  0  0  0  0  0  0  0  0  0  0
   -2.5410   57.5480   74.9300 C   0  0  0  0  0  0  0  0  0  0  0  0
   -2.0850   55.2190   75.7280 C   0  0  0  0  0  0  0  0  0  0  0  0
    1.3930   55.1470   75.3580 C   0  0  0  0  0  0  0  0  0  0  0  0
    1.8770   54.7590   76.4280 O   0  0  0  0  0  0  0  0  0  0  0  0
    1.3800   54.2190   74.1490 C   0  0  0  0  0  0  0  0  0  0  0  0
    2.6690   54.1290   73.5550 O   0  0  0  0  0  0  0  0  0  0  0  0
    3.9230   58.6190   72.4650 O   0  0  0  0  0  0  0  0  0  0  0  0
    0.9935   56.7981   77.3611 H   0  0  0  0  0  0  0  0  0  0  0  0
    0.0024   59.3705   76.6824 H   0  0  0  0  0  0  0  0  0  0  0  0
    1.6933   59.0096   76.9908 H   0  0  0  0  0  0  0  0  0  0  0  0
    0.1645   59.1046   74.3552 H   0  0  0  0  0  0  0  0  0  0  0  0
    3.1574   57.4010   76.1607 H   0  0  0  0  0  0  0  0  0  0  0  0
    3.6409   56.4422   74.7207 H   0  0  0  0  0  0  0  0  0  0  0  0
    3.8435   58.2270   74.7207 H   0  0  0  0  0  0  0  0  0  0  0  0
    2.3626   56.6043   72.6245 H   0  0  0  0  0  0  0  0  0  0  0  0
    0.7773   57.5090   72.5826 H   0  0  0  0  0  0  0  0  0  0  0  0
    2.2814   58.7462   71.2231 H   0  0  0  0  0  0  0  0  0  0  0  0
    2.9008   60.1277   74.8081 H   0  0  0  0  0  0  0  0  0  0  0  0
    0.1439   61.4067   74.5547 H   0  0  0  0  0  0  0  0  0  0  0  0
    1.2729   61.4470   75.9789 H   0  0  0  0  0  0  0  0  0  0  0  0
    1.2698   63.5583   74.6344 H   0  0  0  0  0  0  0  0  0  0  0  0
    2.8782   62.7476   74.7476 H   0  0  0  0  0  0  0  0  0  0  0  0
    0.8731   64.4264   72.5854 H   0  0  0  0  0  0  0  0  0  0  0  0
    2.0350   62.2806   68.8804 H   0  0  0  0  0  0  0  0  0  0  0  0
    3.0689   60.5694   70.1845 H   0  0  0  0  0  0  0  0  0  0  0  0
    4.2775   61.5239   73.7022 H   0  0  0  0  0  0  0  0  0  0  0  0
    4.7122   60.6572   72.1901 H   0  0  0  0  0  0  0  0  0  0  0  0
    4.5712   62.4479   72.1901 H   0  0  0  0  0  0  0  0  0  0  0  0
   -3.0635   58.0174   75.7766 H   0  0  0  0  0  0  0  0  0  0  0  0
   -2.0635   58.3264   74.3167 H   0  0  0  0  0  0  0  0  0  0  0  0
   -3.2640   56.9901   74.3167 H   0  0  0  0  0  0  0  0  0  0  0  0
   -2.1561   55.0580   76.8138 H   0  0  0  0  0  0  0  0  0  0  0  0
   -3.0897   55.1674   75.2831 H   0  0  0  0  0  0  0  0  0  0  0  0
   -1.4466   54.4415   75.2831 H   0  0  0  0  0  0  0  0  0  0  0  0
    1.0622   53.2160   74.4701 H   0  0  0  0  0  0  0  0  0  0  0  0
    0.6813   54.6277   73.4041 H   0  0  0  0  0  0  0  0  0  0  0  0
    3.3570   54.0810   74.2652 H   0  0  0  0  0  0  0  0  0  0  0  0
    4.1404   58.6005   73.4307 H   0  0  0  0  0  0  0  0  0  0  0  0
  2  1  1  0
  3  2  1  0
  4  3  1  0
  5  4  1  0
  5  1  1  0
  6  5  1  0
  7  6  1  0
  8  7  1  0
  8  1  1  0
  8  9  1  1
 10  8  1  0
 11 10  1  0
 12 11  1  0
 13 12  1  0
 13  7  1  0
 14 13  1  0
 15 14  1  0
 16 15  1  0
 17 16  2  0
 18 17  1  0
 19 18  2  0
 20 18  1  0
 21 20  2  0
 22 21  1  0
 22 16  1  0
 22 12  1  0
 22 23  1  6
 12 24  1  6
 25  3  1  0
 26  3  1  0
  1 27  1  1
 28 27  2  0
 29 27  1  0
 30 29  1  0
 31 11  1  0
  5 32  1  1
  6 33  1  0
  6 34  1  0
  7 35  1  6
  9 36  1  0
  9 37  1  0
  9 38  1  0
 10 39  1  0
 10 40  1  0
 11 41  1  6
 13 42  1  1
 14 43  1  0
 14 44  1  0
 15 45  1  0
 15 46  1  0
 17 47  1  0
 20 48  1  0
 21 49  1  0
 23 50  1  0
 23 51  1  0
 23 52  1  0
 25 53  1  0
 25 54  1  0
 25 55  1  0
 26 56  1  0
 26 57  1  0
 26 58  1  0
 29 59  1  0
 29 60  1  0
 30 61  1  0
 31 62  1  0
M  END
>  <score>  (2) 
-9.02

$$$$
=
     RDKit          3D

 62 66  0  0  0  0  0  0  0  0999 V2000
    2.8320   61.5240   71.8040 C   0  0  2  0  0  0  0  0  0  0  0  0
    2.5770   60.4660   70.8740 O   0  0  0  0  0  0  0  0  0  0  0  0
    3.7490   59.6450   70.8360 C   0  0  0  0  0  0  0  0  0  0  0  0
    4.5900   59.9310   71.9490 O   0  0  0  0  0  0  0  0  0  0  0  0
    3.9880   61.0020   72.6730 C   0  0  2  0  0  0  0  0  0  0  0  0
    3.3680   60.4710   73.9830 C   0  0  0  0  0  0  0  0  0  0  0  0
    1.8680   60.4470   73.6950 C   0  0  2  0  0  0  0  0  0  0  0  0
    1.6500   61.6980   72.8110 C   0  0  1  0  0  0  0  0  0  0  0  0
    1.8180   63.0300   73.5910 C   0  0  0  0  0  0  0  0  0  0  0  0
    0.2290   61.5900   72.2190 C   0  0  0  0  0  0  0  0  0  0  0  0
   -0.8720   61.4150   73.2930 C   0  0  1  0  0  0  0  0  0  0  0  0
   -0.5730   60.2630   74.3030 C   0  0  1  0  0  0  0  0  0  0  0  0
    0.8850   60.3450   74.8710 C   0  0  1  0  0  0  0  0  0  0  0  0
    1.2100   59.1170   75.7400 C   0  0  0  0  0  0  0  0  0  0  0  0
    0.1920   58.9110   76.8570 C   0  0  0  0  0  0  0  0  0  0  0  0
   -1.2050   58.8500   76.2950 C   0  0  0  0  0  0  0  0  0  0  0  0
   -1.9720   57.7640   76.4960 C   0  0  0  0  0  0  0  0  0  0  0  0
   -3.3220   57.6410   75.9100 C   0  0  0  0  0  0  0  0  0  0  0  0
   -4.0200   56.6560   76.1160 O   0  0  0  0  0  0  0  0  0  0  0  0
   -3.7960   58.7540   75.0670 C   0  0  0  0  0  0  0  0  0  0  0  0
   -3.0370   59.8390   74.8650 C   0  0  0  0  0  0  0  0  0  0  0  0
   -1.6440   60.0640   75.4520 C   0  0  2  0  0  0  0  0  0  0  0  0
   -1.7760   61.2740   76.4050 C   0  0  0  0  0  0  0  0  0  0  0  0
   -0.6090   59.1070   73.5350 F   0  0  0  0  0  0  0  0  0  0  0  0
    3.3300   58.1810   70.8840 C   0  0  0  0  0  0  0  0  0  0  0  0
    4.5270   59.9340   69.5550 C   0  0  0  0  0  0  0  0  0  0  0  0
    3.1930   62.8060   71.0410 C   0  0  0  0  0  0  0  0  0  0  0  0
    4.2080   63.4680   71.2870 O   0  0  0  0  0  0  0  0  0  0  0  0
    2.2290   63.2660   69.9540 C   0  0  0  0  0  0  0  0  0  0  0  0
    2.2860   62.4100   68.8190 O   0  0  0  0  0  0  0  0  0  0  0  0
   -1.0970   62.6630   73.9400 O   0  0  0  0  0  0  0  0  0  0  0  0
    4.7363   61.7750   72.9024 H   0  0  0  0  0  0  0  0  0  0  0  0
    3.7392   59.4608   74.2106 H   0  0  0  0  0  0  0  0  0  0  0  0
    3.6230   61.0908   74.8553 H   0  0  0  0  0  0  0  0  0  0  0  0
    1.6144   59.4916   73.2124 H   0  0  0  0  0  0  0  0  0  0  0  0
    1.7925   62.8277   74.6719 H   0  0  0  0  0  0  0  0  0  0  0  0
    2.7814   63.4906   73.3268 H   0  0  0  0  0  0  0  0  0  0  0  0
    0.9992   63.7154   73.3268 H   0  0  0  0  0  0  0  0  0  0  0  0
    0.0179   62.5069   71.6492 H   0  0  0  0  0  0  0  0  0  0  0  0
    0.2089   60.6923   71.5837 H   0  0  0  0  0  0  0  0  0  0  0  0
   -1.7971   61.1024   72.7866 H   0  0  0  0  0  0  0  0  0  0  0  0
    0.9752   61.2352   75.5109 H   0  0  0  0  0  0  0  0  0  0  0  0
    1.2178   58.2227   75.0995 H   0  0  0  0  0  0  0  0  0  0  0  0
    2.1915   59.2861   76.2069 H   0  0  0  0  0  0  0  0  0  0  0  0
    0.4134   57.9684   77.3790 H   0  0  0  0  0  0  0  0  0  0  0  0
    0.2566   59.7571   77.5570 H   0  0  0  0  0  0  0  0  0  0  0  0
   -1.5823   56.9427   77.1154 H   0  0  0  0  0  0  0  0  0  0  0  0
   -4.7884   58.6923   74.5966 H   0  0  0  0  0  0  0  0  0  0  0  0
   -3.4498   60.6325   74.2247 H   0  0  0  0  0  0  0  0  0  0  0  0
   -1.7380   60.9254   77.4476 H   0  0  0  0  0  0  0  0  0  0  0  0
   -0.9491   61.9762   76.2228 H   0  0  0  0  0  0  0  0  0  0  0  0
   -2.7348   61.7814   76.2228 H   0  0  0  0  0  0  0  0  0  0  0  0
    3.2382   57.8601   71.9321 H   0  0  0  0  0  0  0  0  0  0  0  0
    2.3612   58.0601   70.3773 H   0  0  0  0  0  0  0  0  0  0  0  0
    4.0881   57.5658   70.3773 H   0  0  0  0  0  0  0  0  0  0  0  0
    5.5298   60.3065   69.8112 H   0  0  0  0  0  0  0  0  0  0  0  0
    4.6187   59.0100   68.9653 H   0  0  0  0  0  0  0  0  0  0  0  0
    3.9932   60.6938   68.9653 H   0  0  0  0  0  0  0  0  0  0  0  0
    1.2053   63.2602   70.3565 H   0  0  0  0  0  0  0  0  0  0  0  0
    2.5169   64.2801   69.6399 H   0  0  0  0  0  0  0  0  0  0  0  0
    2.3487   61.4685   69.1186 H   0  0  0  0  0  0  0  0  0  0  0  0
   -1.0739   62.5348   74.9214 H   0  0  0  0  0  0  0  0  0  0  0  0
  2  1  1  0
  3  2  1  0
  4  3  1  0
  5  4  1  0
  5  1  1  0
  6  5  1  0
  7  6  1  0
  8  7  1  0
  8  1  1  0
  8  9  1  1
 10  8  1  0
 11 10  1  0
 12 11  1  0
 13 12  1  0
 13  7  1  0
 14 13  1  0
 15 14  1  0
 16 15  1  0
 17 16  2  0
 18 17  1  0
 19 18  2  0
 20 18  1  0
 21 20  2  0
 22 21  1  0
 22 16  1  0
 22 12  1  0
 22 23  1  1
 12 24  1  6
 25  3  1  0
 26  3  1  0
  1 27  1  6
 28 27  2  0
 29 27  1  0
 30 29  1  0
 31 11  1  0
  5 32  1  1
  6 33  1  0
  6 34  1  0
  7 35  1  6
  9 36  1  0
  9 37  1  0
  9 38  1  0
 10 39  1  0
 10 40  1  0
 11 41  1  6
 13 42  1  1
 14 43  1  0
 14 44  1  0
 15 45  1  0
 15 46  1  0
 17 47  1  0
 20 48  1  0
 21 49  1  0
 23 50  1  0
 23 51  1  0
 23 52  1  0
 25 53  1  0
 25 54  1  0
 25 55  1  0
 26 56  1  0
 26 57  1  0
 26 58  1  0
 29 59  1  0
 29 60  1  0
 30 61  1  0
 31 62  1  0
M  END
>  <score>  (3) 
-8.203

$$$$
=
     RDKit          3D

 62 66  0  0  0  0  0  0  0  0999 V2000
    2.0470   61.1370   72.7890 C   0  0  2  0  0  0  0  0  0  0  0  0
    1.9520   60.6570   71.4440 O   0  0  0  0  0  0  0  0  0  0  0  0
    3.2650   60.7240   70.8770 C   0  0  0  0  0  0  0  0  0  0  0  0
    4.2380   60.8910   71.9020 O   0  0  0  0  0  0  0  0  0  0  0  0
    3.5390   61.0070   73.1390 C   0  0  2  0  0  0  0  0  0  0  0  0
    3.7020   59.7110   73.9610 C   0  0  0  0  0  0  0  0  0  0  0  0
    2.3540   59.0080   73.8060 C   0  0  2  0  0  0  0  0  0  0  0  0
    1.3380   60.1740   73.7940 C   0  0  1  0  0  0  0  0  0  0  0  0
    1.1930   60.8690   75.1740 C   0  0  0  0  0  0  0  0  0  0  0  0
   -0.0150   59.5890   73.3360 C   0  0  0  0  0  0  0  0  0  0  0  0
   -0.4870   58.3900   74.1940 C   0  0  1  0  0  0  0  0  0  0  0  0
    0.6000   57.2830   74.3610 C   0  0  1  0  0  0  0  0  0  0  0  0
    1.9860   57.8800   74.7820 C   0  0  1  0  0  0  0  0  0  0  0  0
    3.0770   56.7950   74.7890 C   0  0  0  0  0  0  0  0  0  0  0  0
    2.7020   55.6010   75.6600 C   0  0  0  0  0  0  0  0  0  0  0  0
    1.3610   55.0480   75.2520 C   0  0  0  0  0  0  0  0  0  0  0  0
    1.2440   53.7680   74.8560 C   0  0  0  0  0  0  0  0  0  0  0  0
   -0.0400   53.2080   74.3910 C   0  0  0  0  0  0  0  0  0  0  0  0
   -0.1400   52.0350   74.0520 O   0  0  0  0  0  0  0  0  0  0  0  0
   -1.1990   54.1180   74.3510 C   0  0  0  0  0  0  0  0  0  0  0  0
   -1.0890   55.3940   74.7440 C   0  0  0  0  0  0  0  0  0  0  0  0
    0.1900   56.0490   75.2660 C   0  0  2  0  0  0  0  0  0  0  0  0
   -0.0940   56.4190   76.7400 C   0  0  0  0  0  0  0  0  0  0  0  0
    0.7850   56.7790   73.0810 F   0  0  0  0  0  0  0  0  0  0  0  0
    3.5430   59.4310   70.1220 C   0  0  0  0  0  0  0  0  0  0  0  0
    3.3460   61.9200   69.9330 C   0  0  0  0  0  0  0  0  0  0  0  0
    1.5450   62.5870   72.8570 C   0  0  0  0  0  0  0  0  0  0  0  0
    2.0240   63.4260   73.6280 O   0  0  0  0  0  0  0  0  0  0  0  0
    0.3930   62.9690   71.9350 C   0  0  0  0  0  0  0  0  0  0  0  0
   -0.2810   64.1290   72.4080 O   0  0  0  0  0  0  0  0  0  0  0  0
   -0.9720   58.8710   75.4430 O   0  0  0  0  0  0  0  0  0  0  0  0
    3.9217   61.8627   73.7146 H   0  0  0  0  0  0  0  0  0  0  0  0
    4.5159   59.0909   73.5573 H   0  0  0  0  0  0  0  0  0  0  0  0
    3.9622   59.9043   75.0122 H   0  0  0  0  0  0  0  0  0  0  0  0
    2.3721   58.4034   72.8873 H   0  0  0  0  0  0  0  0  0  0  0  0
    1.3471   60.1304   75.9745 H   0  0  0  0  0  0  0  0  0  0  0  0
    1.9438   61.6680   75.2628 H   0  0  0  0  0  0  0  0  0  0  0  0
    0.1854   61.3012   75.2628 H   0  0  0  0  0  0  0  0  0  0  0  0
   -0.7757   60.3814   73.3952 H   0  0  0  0  0  0  0  0  0  0  0  0
    0.1211   59.2202   72.3086 H   0  0  0  0  0  0  0  0  0  0  0  0
   -1.3079   57.8894   73.6596 H   0  0  0  0  0  0  0  0  0  0  0  0
    1.9133   58.2800   75.8041 H   0  0  0  0  0  0  0  0  0  0  0  0
    3.2341   56.4450   73.7581 H   0  0  0  0  0  0  0  0  0  0  0  0
    3.9918   57.2411   75.2063 H   0  0  0  0  0  0  0  0  0  0  0  0
    3.4657   54.8173   75.5476 H   0  0  0  0  0  0  0  0  0  0  0  0
    2.6462   55.9300   76.7082 H   0  0  0  0  0  0  0  0  0  0  0  0
    2.1319   53.1190   74.8794 H   0  0  0  0  0  0  0  0  0  0  0  0
   -2.1693   53.7435   73.9929 H   0  0  0  0  0  0  0  0  0  0  0  0
   -1.9912   56.0207   74.6865 H   0  0  0  0  0  0  0  0  0  0  0  0
    0.4407   55.7224   77.4025 H   0  0  0  0  0  0  0  0  0  0  0  0
    0.2501   57.4458   76.9331 H   0  0  0  0  0  0  0  0  0  0  0  0
   -1.1748   56.3521   76.9331 H   0  0  0  0  0  0  0  0  0  0  0  0
    3.7180   58.6170   70.8409 H   0  0  0  0  0  0  0  0  0  0  0  0
    2.6778   59.1822   69.4899 H   0  0  0  0  0  0  0  0  0  0  0  0
    4.4340   59.5598   69.4899 H   0  0  0  0  0  0  0  0  0  0  0  0
    3.4088   62.8476   70.5209 H   0  0  0  0  0  0  0  0  0  0  0  0
    4.2399   61.8266   69.2988 H   0  0  0  0  0  0  0  0  0  0  0  0
    2.4477   61.9480   69.2988 H   0  0  0  0  0  0  0  0  0  0  0  0
    0.7899   63.1698   70.9289 H   0  0  0  0  0  0  0  0  0  0  0  0
   -0.3242   62.1353   71.9095 H   0  0  0  0  0  0  0  0  0  0  0  0
   -0.2814   64.1297   73.3980 H   0  0  0  0  0  0  0  0  0  0  0  0
   -0.5030   58.4058   76.1804 H   0  0  0  0  0  0  0  0  0  0  0  0
  2  1  1  0
  3  2  1  0
  4  3  1  0
  5  4  1  0
  5  1  1  0
  6  5  1  0
  7  6  1  0
  8  7  1  0
  8  1  1  0
  8  9  1  1
 10  8  1  0
 11 10  1  0
 12 11  1  0
 13 12  1  0
 13  7  1  0
 14 13  1  0
 15 14  1  0
 16 15  1  0
 17 16  2  0
 18 17  1  0
 19 18  2  0
 20 18  1  0
 21 20  2  0
 22 21  1  0
 22 16  1  0
 22 12  1  0
 22 23  1  1
 12 24  1  6
 25  3  1  0
 26  3  1  0
  1 27  1  6
 28 27  2  0
 29 27  1  0
 30 29  1  0
 31 11  1  0
  5 32  1  1
  6 33  1  0
  6 34  1  0
  7 35  1  6
  9 36  1  0
  9 37  1  0
  9 38  1  0
 10 39  1  0
 10 40  1  0
 11 41  1  6
 13 42  1  1
 14 43  1  0
 14 44  1  0
 15 45  1  0
 15 46  1  0
 17 47  1  0
 20 48  1  0
 21 49  1  0
 23 50  1  0
 23 51  1  0
 23 52  1  0
 25 53  1  0
 25 54  1  0
 25 55  1  0
 26 56  1  0
 26 57  1  0
 26 58  1  0
 29 59  1  0
 29 60  1  0
 30 61  1  0
 31 62  1  0
M  END
>  <score>  (4) 
-7.662

$$$$
=
     RDKit          3D

 62 66  0  0  0  0  0  0  0  0999 V2000
   -4.0700   79.9470   66.1490 C   0  0  2  0  0  0  0  0  0  0  0  0
   -2.8580   79.2690   66.4930 O   0  0  0  0  0  0  0  0  0  0  0  0
   -2.0140   80.2210   67.1510 C   0  0  0  0  0  0  0  0  0  0  0  0
   -2.7690   81.3600   67.5480 O   0  0  0  0  0  0  0  0  0  0  0  0
   -4.1010   81.1740   67.0740 C   0  0  2  0  0  0  0  0  0  0  0  0
   -5.0360   80.8330   68.2530 C   0  0  0  0  0  0  0  0  0  0  0  0
   -5.2770   79.3320   68.1060 C   0  0  2  0  0  0  0  0  0  0  0  0
   -5.3280   79.1220   66.5740 C   0  0  1  0  0  0  0  0  0  0  0  0
   -6.5990   79.7280   65.9190 C   0  0  0  0  0  0  0  0  0  0  0  0
   -5.2600   77.6010   66.3240 C   0  0  0  0  0  0  0  0  0  0  0  0
   -6.3560   76.8060   67.0750 C   0  0  1  0  0  0  0  0  0  0  0  0
   -6.4320   77.1440   68.5970 C   0  0  1  0  0  0  0  0  0  0  0  0
   -6.4550   78.6890   68.8550 C   0  0  1  0  0  0  0  0  0  0  0  0
   -6.3710   79.0000   70.3600 C   0  0  0  0  0  0  0  0  0  0  0  0
   -7.4580   78.2900   71.1600 C   0  0  0  0  0  0  0  0  0  0  0  0
   -7.4320   76.8080   70.8890 C   0  0  0  0  0  0  0  0  0  0  0  0
   -7.2490   75.9350   71.8960 C   0  0  0  0  0  0  0  0  0  0  0  0
   -7.1570   74.4800   71.6620 C   0  0  0  0  0  0  0  0  0  0  0  0
   -7.0110   73.6920   72.5890 O   0  0  0  0  0  0  0  0  0  0  0  0
   -7.2470   74.0130   70.2670 C   0  0  0  0  0  0  0  0  0  0  0  0
   -7.4290   74.8770   69.2600 C   0  0  0  0  0  0  0  0  0  0  0  0
   -7.5640   76.3930   69.4110 C   0  0  2  0  0  0  0  0  0  0  0  0
   -9.0000   76.7380   68.9530 C   0  0  0  0  0  0  0  0  0  0  0  0
   -5.2230   76.6980   69.1140 F   0  0  0  0  0  0  0  0  0  0  0  0
   -1.3990   79.5690   68.3820 C   0  0  0  0  0  0  0  0  0  0  0  0
   -0.9200   80.6760   66.1880 C   0  0  0  0  0  0  0  0  0  0  0  0
   -4.0480   80.3240   64.6610 C   0  0  0  0  0  0  0  0  0  0  0  0
   -4.2980   81.4640   64.2550 O   0  0  0  0  0  0  0  0  0  0  0  0
   -3.7180   79.2170   63.6660 C   0  0  0  0  0  0  0  0  0  0  0  0
   -2.3300   78.9090   63.6810 O   0  0  0  0  0  0  0  0  0  0  0  0
   -7.6030   76.9890   66.4130 O   0  0  0  0  0  0  0  0  0  0  0  0
   -4.4573   82.0834   66.5679 H   0  0  0  0  0  0  0  0  0  0  0  0
   -4.5524   81.0597   69.2146 H   0  0  0  0  0  0  0  0  0  0  0  0
   -5.9684   81.4165   68.2385 H   0  0  0  0  0  0  0  0  0  0  0  0
   -4.4678   78.7914   68.6188 H   0  0  0  0  0  0  0  0  0  0  0  0
   -7.2939   80.0593   66.7047 H   0  0  0  0  0  0  0  0  0  0  0  0
   -6.3151   80.5877   65.2942 H   0  0  0  0  0  0  0  0  0  0  0  0
   -7.0882   78.9662   65.2942 H   0  0  0  0  0  0  0  0  0  0  0  0
   -5.3745   77.4193   65.2452 H   0  0  0  0  0  0  0  0  0  0  0  0
   -4.2880   77.2523   66.7029 H   0  0  0  0  0  0  0  0  0  0  0  0
   -6.0869   75.7399   67.0439 H   0  0  0  0  0  0  0  0  0  0  0  0
   -7.4040   79.1044   68.4850 H   0  0  0  0  0  0  0  0  0  0  0  0
   -5.3884   78.6762   70.7337 H   0  0  0  0  0  0  0  0  0  0  0  0
   -6.5128   80.0833   70.4879 H   0  0  0  0  0  0  0  0  0  0  0  0
   -7.2898   78.4645   72.2330 H   0  0  0  0  0  0  0  0  0  0  0  0
   -8.4380   78.6888   70.8592 H   0  0  0  0  0  0  0  0  0  0  0  0
   -7.1654   76.3164   72.9244 H   0  0  0  0  0  0  0  0  0  0  0  0
   -7.1634   72.9380   70.0495 H   0  0  0  0  0  0  0  0  0  0  0  0
   -7.4860   74.4630   68.2425 H   0  0  0  0  0  0  0  0  0  0  0  0
   -9.6392   76.8916   69.8349 H   0  0  0  0  0  0  0  0  0  0  0  0
   -8.9814   77.6572   68.3491 H   0  0  0  0  0  0  0  0  0  0  0  0
   -9.4010   75.9106   68.3491 H   0  0  0  0  0  0  0  0  0  0  0  0
   -1.8262   80.0219   69.2889 H   0  0  0  0  0  0  0  0  0  0  0  0
   -1.6166   78.4908   68.3732 H   0  0  0  0  0  0  0  0  0  0  0  0
   -0.3099   79.7233   68.3732 H   0  0  0  0  0  0  0  0  0  0  0  0
   -0.0533   81.0365   66.7615 H   0  0  0  0  0  0  0  0  0  0  0  0
   -0.6144   79.8304   65.5543 H   0  0  0  0  0  0  0  0  0  0  0  0
   -1.3042   81.4890   65.5543 H   0  0  0  0  0  0  0  0  0  0  0  0
   -4.2886   78.3147   63.9309 H   0  0  0  0  0  0  0  0  0  0  0  0
   -3.9869   79.5638   62.6573 H   0  0  0  0  0  0  0  0  0  0  0  0
   -2.0175   78.8396   64.6178 H   0  0  0  0  0  0  0  0  0  0  0  0
   -8.3215   77.0944   67.0859 H   0  0  0  0  0  0  0  0  0  0  0  0
  2  1  1  0
  3  2  1  0
  4  3  1  0
  5  4  1  0
  5  1  1  0
  6  5  1  0
  7  6  1  0
  8  7  1  0
  8  1  1  0
  8  9  1  6
 10  8  1  0
 11 10  1  0
 12 11  1  0
 13 12  1  0
 13  7  1  0
 14 13  1  0
 15 14  1  0
 16 15  1  0
 17 16  2  0
 18 17  1  0
 19 18  2  0
 20 18  1  0
 21 20  2  0
 22 21  1  0
 22 16  1  0
 22 12  1  0
 22 23  1  6
 12 24  1  1
 25  3  1  0
 26  3  1  0
  1 27  1  6
 28 27  2  0
 29 27  1  0
 30 29  1  0
 31 11  1  0
  5 32  1  6
  6 33  1  0
  6 34  1  0
  7 35  1  1
  9 36  1  0
  9 37  1  0
  9 38  1  0
 10 39  1  0
 10 40  1  0
 11 41  1  1
 13 42  1  6
 14 43  1  0
 14 44  1  0
 15 45  1  0
 15 46  1  0
 17 47  1  0
 20 48  1  0
 21 49  1  0
 23 50  1  0
 23 51  1  0
 23 52  1  0
 25 53  1  0
 25 54  1  0
 25 55  1  0
 26 56  1  0
 26 57  1  0
 26 58  1  0
 29 59  1  0
 29 60  1  0
 30 61  1  0
 31 62  1  0
M  END
>  <score>  (5) 
-7.167

$$$$
=
     RDKit          3D

 62 66  0  0  0  0  0  0  0  0999 V2000
    0.3450   60.6920   73.8580 C   0  0  2  0  0  0  0  0  0  0  0  0
    0.2220   59.5880   72.9560 O   0  0  0  0  0  0  0  0  0  0  0  0
    1.3110   58.6980   73.2270 C   0  0  0  0  0  0  0  0  0  0  0  0
    1.9070   59.0120   74.4800 O   0  0  0  0  0  0  0  0  0  0  0  0
    1.2420   60.1660   74.9910 C   0  0  2  0  0  0  0  0  0  0  0  0
    0.3150   59.7670   76.1570 C   0  0  0  0  0  0  0  0  0  0  0  0
   -1.0840   59.8130   75.5450 C   0  0  2  0  0  0  0  0  0  0  0  0
   -1.0110   61.0090   74.5660 C   0  0  1  0  0  0  0  0  0  0  0  0
   -0.9200   62.3800   75.2870 C   0  0  0  0  0  0  0  0  0  0  0  0
   -2.2730   60.9430   73.6800 C   0  0  0  0  0  0  0  0  0  0  0  0
   -3.5910   60.9110   74.4900 C   0  0  1  0  0  0  0  0  0  0  0  0
   -3.6050   59.8180   75.6050 C   0  0  1  0  0  0  0  0  0  0  0  0
   -2.3050   59.8530   76.4770 C   0  0  1  0  0  0  0  0  0  0  0  0
   -2.2690   58.6730   77.4650 C   0  0  0  0  0  0  0  0  0  0  0  0
   -3.5180   58.6080   78.3370 C   0  0  0  0  0  0  0  0  0  0  0  0
   -4.7590   58.5910   77.4830 C   0  0  0  0  0  0  0  0  0  0  0  0
   -5.6300   57.5690   77.5690 C   0  0  0  0  0  0  0  0  0  0  0  0
   -6.8250   57.4860   76.7060 C   0  0  0  0  0  0  0  0  0  0  0  0
   -7.6210   56.5610   76.8060 O   0  0  0  0  0  0  0  0  0  0  0  0
   -7.0200   58.5620   75.7170 C   0  0  0  0  0  0  0  0  0  0  0  0
   -6.1570   59.5820   75.6270 C   0  0  0  0  0  0  0  0  0  0  0  0
   -4.9130   59.7650   76.4970 C   0  0  2  0  0  0  0  0  0  0  0  0
   -5.1600   61.0460   77.3260 C   0  0  0  0  0  0  0  0  0  0  0  0
   -3.5590   58.6150   74.9140 F   0  0  0  0  0  0  0  0  0  0  0  0
    0.7840   57.2700   73.2620 C   0  0  0  0  0  0  0  0  0  0  0  0
    2.3690   58.8480   72.1360 C   0  0  0  0  0  0  0  0  0  0  0  0
    0.9580   61.8930   73.1240 C   0  0  0  0  0  0  0  0  0  0  0  0
    0.4310   62.4140   72.1350 O   0  0  0  0  0  0  0  0  0  0  0  0
    2.2840   62.4300   73.6510 C   0  0  0  0  0  0  0  0  0  0  0  0
    3.3660   62.0410   72.8140 O   0  0  0  0  0  0  0  0  0  0  0  0
   -3.8600   62.2130   74.9990 O   0  0  0  0  0  0  0  0  0  0  0  0
    1.9764   60.9080   75.3375 H   0  0  0  0  0  0  0  0  0  0  0  0
    0.5519   58.7549   76.5168 H   0  0  0  0  0  0  0  0  0  0  0  0
    0.4193   60.4301   77.0284 H   0  0  0  0  0  0  0  0  0  0  0  0
   -1.2964   58.8427   75.0724 H   0  0  0  0  0  0  0  0  0  0  0  0
   -0.9304   62.2231   76.3757 H   0  0  0  0  0  0  0  0  0  0  0  0
    0.0136   62.8849   74.9982 H   0  0  0  0  0  0  0  0  0  0  0  0
   -1.7787   63.0039   74.9982 H   0  0  0  0  0  0  0  0  0  0  0  0
   -2.2868   61.8275   73.0263 H   0  0  0  0  0  0  0  0  0  0  0  0
   -2.2200   60.0046   73.1085 H   0  0  0  0  0  0  0  0  0  0  0  0
   -4.4036   60.6186   73.8087 H   0  0  0  0  0  0  0  0  0  0  0  0
   -2.2911   60.7794   77.0700 H   0  0  0  0  0  0  0  0  0  0  0  0
   -2.1874   57.7363   76.8940 H   0  0  0  0  0  0  0  0  0  0  0  0
   -1.4034   58.8168   78.1284 H   0  0  0  0  0  0  0  0  0  0  0  0
   -3.4861   57.6932   78.9470 H   0  0  0  0  0  0  0  0  0  0  0  0
   -3.5451   59.4962   78.9854 H   0  0  0  0  0  0  0  0  0  0  0  0
   -5.4462   56.7716   78.3042 H   0  0  0  0  0  0  0  0  0  0  0  0
   -7.8881   58.5263   75.0424 H   0  0  0  0  0  0  0  0  0  0  0  0
   -6.3593   60.3500   74.8659 H   0  0  0  0  0  0  0  0  0  0  0  0
   -5.1133   60.8037   78.3980 H   0  0  0  0  0  0  0  0  0  0  0  0
   -4.3893   61.7930   77.0850 H   0  0  0  0  0  0  0  0  0  0  0  0
   -6.1531   61.4529   77.0850 H   0  0  0  0  0  0  0  0  0  0  0  0
    0.6653   56.9485   74.3072 H   0  0  0  0  0  0  0  0  0  0  0  0
   -0.1896   57.2259   72.7520 H   0  0  0  0  0  0  0  0  0  0  0  0
    1.4956   56.6040   72.7520 H   0  0  0  0  0  0  0  0  0  0  0  0
    3.3566   58.9880   72.5997 H   0  0  0  0  0  0  0  0  0  0  0  0
    2.3823   57.9428   71.5112 H   0  0  0  0  0  0  0  0  0  0  0  0
    2.1302   59.7213   71.5112 H   0  0  0  0  0  0  0  0  0  0  0  0
    2.2366   63.5283   73.6888 H   0  0  0  0  0  0  0  0  0  0  0  0
    2.4536   62.0141   74.6551 H   0  0  0  0  0  0  0  0  0  0  0  0
    4.1340   61.7649   73.3744 H   0  0  0  0  0  0  0  0  0  0  0  0
   -3.8548   62.1880   75.9887 H   0  0  0  0  0  0  0  0  0  0  0  0
  2  1  1  0
  3  2  1  0
  4  3  1  0
  5  4  1  0
  5  1  1  0
  6  5  1  0
  7  6  1  0
  8  7  1  0
  8  1  1  0
  8  9  1  1
 10  8  1  0
 11 10  1  0
 12 11  1  0
 13 12  1  0
 13  7  1  0
 14 13  1  0
 15 14  1  0
 16 15  1  0
 17 16  2  0
 18 17  1  0
 19 18  2  0
 20 18  1  0
 21 20  2  0
 22 21  1  0
 22 16  1  0
 22 12  1  0
 22 23  1  1
 12 24  1  6
 25  3  1  0
 26  3  1  0
  1 27  1  6
 28 27  2  0
 29 27  1  0
 30 29  1  0
 31 11  1  0
  5 32  1  1
  6 33  1  0
  6 34  1  0
  7 35  1  6
  9 36  1  0
  9 37  1  0
  9 38  1  0
 10 39  1  0
 10 40  1  0
 11 41  1  6
 13 42  1  1
 14 43  1  0
 14 44  1  0
 15 45  1  0
 15 46  1  0
 17 47  1  0
 20 48  1  0
 21 49  1  0
 23 50  1  0
 23 51  1  0
 23 52  1  0
 25 53  1  0
 25 54  1  0
 25 55  1  0
 26 56  1  0
 26 57  1  0
 26 58  1  0
 29 59  1  0
 29 60  1  0
 30 61  1  0
 31 62  1  0
M  END
>  <score>  (6) 
-6.181

$$$$
