=
     RDKit          3D

 17 18  0  0  0  0  0  0  0  0999 V2000
    4.3830   70.7150   69.8710 O   0  0  0  0  0  0  0  0  0  0  0  0
    4.9050   70.5800   68.7890 C   0  0  0  0  0  0  0  0  0  0  0  0
    6.3320   70.9740   68.4090 C   0  0  0  0  0  0  0  0  0  0  0  0
    7.1320   71.4820   69.1700 O   0  0  0  0  0  0  0  0  0  0  0  0
    6.5560   70.6220   66.9520 C   0  0  0  0  0  0  0  0  0  0  0  0
    5.2370   70.0320   66.5390 C   0  0  0  0  0  0  0  0  0  0  0  0
    4.3030   70.0090   67.5820 C   0  0  0  0  0  0  0  0  0  0  0  0
    3.0230   69.5100   67.4300 C   0  0  0  0  0  0  0  0  0  0  0  0
    2.6730   69.0140   66.1740 C   0  0  0  0  0  0  0  0  0  0  0  0
    3.5980   69.0290   65.1160 C   0  0  0  0  0  0  0  0  0  0  0  0
    4.8890   69.5390   65.2920 C   0  0  0  0  0  0  0  0  0  0  0  0
    6.7902   71.5192   66.3602 H   0  0  0  0  0  0  0  0  0  0  0  0
    7.4037   69.9384   66.7970 H   0  0  0  0  0  0  0  0  0  0  0  0
    2.3086   69.5042   68.2664 H   0  0  0  0  0  0  0  0  0  0  0  0
    1.6641   68.6075   66.0102 H   0  0  0  0  0  0  0  0  0  0  0  0
    3.3021   68.6332   64.1332 H   0  0  0  0  0  0  0  0  0  0  0  0
    5.6096   69.5483   64.4610 H   0  0  0  0  0  0  0  0  0  0  0  0
  2  1  2  0
  3  2  1  0
  4  3  2  0
  5  3  1  0
  6  5  1  0
  7  6  2  0
  7  2  1  0
  8  7  1  0
  9  8  2  0
 10  9  1  0
 11 10  2  0
 11  6  1  0
  5 12  1  0
  5 13  1  0
  8 14  1  0
  9 15  1  0
 10 16  1  0
 11 17  1  0
M  END
>  <score>  (1) 
-8.054

$$$$
=
     RDKit          3D

 17 18  0  0  0  0  0  0  0  0999 V2000
    1.9610   69.0920   66.5620 O   0  0  0  0  0  0  0  0  0  0  0  0
    3.1210   69.3170   66.3010 C   0  0  0  0  0  0  0  0  0  0  0  0
    3.8130   69.0970   64.9560 C   0  0  0  0  0  0  0  0  0  0  0  0
    3.2650   68.6590   63.9640 O   0  0  0  0  0  0  0  0  0  0  0  0
    5.2640   69.5160   65.0880 C   0  0  0  0  0  0  0  0  0  0  0  0
    5.3570   69.9670   66.5180 C   0  0  0  0  0  0  0  0  0  0  0  0
    4.1410   69.8540   67.2040 C   0  0  0  0  0  0  0  0  0  0  0  0
    3.9930   70.2120   68.5310 C   0  0  0  0  0  0  0  0  0  0  0  0
    5.1190   70.7040   69.1920 C   0  0  0  0  0  0  0  0  0  0  0  0
    6.3480   70.8240   68.5200 C   0  0  0  0  0  0  0  0  0  0  0  0
    6.4750   70.4560   67.1750 C   0  0  0  0  0  0  0  0  0  0  0  0
    5.9391   68.6690   64.8959 H   0  0  0  0  0  0  0  0  0  0  0  0
    5.5576   70.2942   64.3682 H   0  0  0  0  0  0  0  0  0  0  0  0
    3.0258   70.1129   69.0455 H   0  0  0  0  0  0  0  0  0  0  0  0
    5.0444   71.0007   70.2486 H   0  0  0  0  0  0  0  0  0  0  0  0
    7.2240   71.2133   69.0595 H   0  0  0  0  0  0  0  0  0  0  0  0
    7.4383   70.5526   66.6528 H   0  0  0  0  0  0  0  0  0  0  0  0
  2  1  2  0
  3  2  1  0
  4  3  2  0
  5  3  1  0
  6  5  1  0
  7  6  2  0
  7  2  1  0
  8  7  1  0
  9  8  2  0
 10  9  1  0
 11 10  2  0
 11  6  1  0
  5 12  1  0
  5 13  1  0
  8 14  1  0
  9 15  1  0
 10 16  1  0
 11 17  1  0
M  END
>  <score>  (2) 
-7.793

$$$$
=
     RDKit          3D

 17 18  0  0  0  0  0  0  0  0999 V2000
    3.5170   68.8420   65.0160 O   0  0  0  0  0  0  0  0  0  0  0  0
    3.4850   69.2450   66.1560 C   0  0  0  0  0  0  0  0  0  0  0  0
    2.2680   69.2730   67.0790 C   0  0  0  0  0  0  0  0  0  0  0  0
    1.1600   68.8830   66.7690 O   0  0  0  0  0  0  0  0  0  0  0  0
    2.6890   69.8600   68.4120 C   0  0  0  0  0  0  0  0  0  0  0  0
    4.1480   70.1520   68.2070 C   0  0  0  0  0  0  0  0  0  0  0  0
    4.5970   69.8030   66.9280 C   0  0  0  0  0  0  0  0  0  0  0  0
    5.9060   69.9830   66.5180 C   0  0  0  0  0  0  0  0  0  0  0  0
    6.7960   70.5380   67.4380 C   0  0  0  0  0  0  0  0  0  0  0  0
    6.3620   70.8950   68.7270 C   0  0  0  0  0  0  0  0  0  0  0  0
    5.0330   70.7030   69.1210 C   0  0  0  0  0  0  0  0  0  0  0  0
    2.1289   70.7805   68.6332 H   0  0  0  0  0  0  0  0  0  0  0  0
    2.4966   69.1883   69.2616 H   0  0  0  0  0  0  0  0  0  0  0  0
    6.2323   69.6997   65.5064 H   0  0  0  0  0  0  0  0  0  0  0  0
    7.8462   70.6977   67.1526 H   0  0  0  0  0  0  0  0  0  0  0  0
    7.0790   71.3324   69.4374 H   0  0  0  0  0  0  0  0  0  0  0  0
    4.6987   70.9824   70.1311 H   0  0  0  0  0  0  0  0  0  0  0  0
  2  1  2  0
  3  2  1  0
  4  3  2  0
  5  3  1  0
  6  5  1  0
  7  6  2  0
  7  2  1  0
  8  7  1  0
  9  8  2  0
 10  9  1  0
 11 10  2  0
 11  6  1  0
  5 12  1  0
  5 13  1  0
  8 14  1  0
  9 15  1  0
 10 16  1  0
 11 17  1  0
M  END
>  <score>  (3) 
-7.775

$$$$
=
     RDKit          3D

 17 18  0  0  0  0  0  0  0  0999 V2000
    6.2080   70.7220   68.2740 O   0  0  0  0  0  0  0  0  0  0  0  0
    5.1050   70.3540   67.9410 C   0  0  0  0  0  0  0  0  0  0  0  0
    3.8510   70.3250   68.8160 C   0  0  0  0  0  0  0  0  0  0  0  0
    3.8140   70.6780   69.9780 O   0  0  0  0  0  0  0  0  0  0  0  0
    2.6990   69.7920   67.9870 C   0  0  0  0  0  0  0  0  0  0  0  0
    3.3360   69.5300   66.6510 C   0  0  0  0  0  0  0  0  0  0  0  0
    4.6990   69.8500   66.6280 C   0  0  0  0  0  0  0  0  0  0  0  0
    5.4870   69.6890   65.5030 C   0  0  0  0  0  0  0  0  0  0  0  0
    4.8730   69.1860   64.3560 C   0  0  0  0  0  0  0  0  0  0  0  0
    3.5050   68.8600   64.3610 C   0  0  0  0  0  0  0  0  0  0  0  0
    2.7260   69.0310   65.5120 C   0  0  0  0  0  0  0  0  0  0  0  0
    2.2953   68.8653   68.4209 H   0  0  0  0  0  0  0  0  0  0  0  0
    1.8472   70.4858   67.9323 H   0  0  0  0  0  0  0  0  0  0  0  0
    6.5562   69.9475   65.5123 H   0  0  0  0  0  0  0  0  0  0  0  0
    5.4641   69.0430   63.4394 H   0  0  0  0  0  0  0  0  0  0  0  0
    3.0395   68.4644   63.4462 H   0  0  0  0  0  0  0  0  0  0  0  0
    1.6561   68.7754   65.5116 H   0  0  0  0  0  0  0  0  0  0  0  0
  2  1  2  0
  3  2  1  0
  4  3  2  0
  5  3  1  0
  6  5  1  0
  7  6  2  0
  7  2  1  0
  8  7  1  0
  9  8  2  0
 10  9  1  0
 11 10  2  0
 11  6  1  0
  5 12  1  0
  5 13  1  0
  8 14  1  0
  9 15  1  0
 10 16  1  0
 11 17  1  0
M  END
>  <score>  (4) 
-7.665

$$$$
=
     RDKit          3D

 17 18  0  0  0  0  0  0  0  0999 V2000
    3.0020   70.1680   69.5390 O   0  0  0  0  0  0  0  0  0  0  0  0
    2.9920   69.8260   68.3790 C   0  0  0  0  0  0  0  0  0  0  0  0
    1.8080   69.2380   67.6120 C   0  0  0  0  0  0  0  0  0  0  0  0
    0.7090   69.0390   68.0900 O   0  0  0  0  0  0  0  0  0  0  0  0
    2.2490   68.9590   66.1890 C   0  0  0  0  0  0  0  0  0  0  0  0
    3.6850   69.4000   66.1860 C   0  0  0  0  0  0  0  0  0  0  0  0
    4.1040   69.8920   67.4290 C   0  0  0  0  0  0  0  0  0  0  0  0
    5.3870   70.3550   67.6580 C   0  0  0  0  0  0  0  0  0  0  0  0
    6.2820   70.3190   66.5880 C   0  0  0  0  0  0  0  0  0  0  0  0
    5.8790   69.8280   65.3340 C   0  0  0  0  0  0  0  0  0  0  0  0
    4.5740   69.3660   65.1240 C   0  0  0  0  0  0  0  0  0  0  0  0
    2.1640   67.8882   65.9518 H   0  0  0  0  0  0  0  0  0  0  0  0
    1.6357   69.4763   65.4365 H   0  0  0  0  0  0  0  0  0  0  0  0
    5.6898   70.7364   68.6443 H   0  0  0  0  0  0  0  0  0  0  0  0
    7.3124   70.6782   66.7271 H   0  0  0  0  0  0  0  0  0  0  0  0
    6.6007   69.8064   64.5041 H   0  0  0  0  0  0  0  0  0  0  0  0
    4.2624   68.9855   64.1401 H   0  0  0  0  0  0  0  0  0  0  0  0
  2  1  2  0
  3  2  1  0
  4  3  2  0
  5  3  1  0
  6  5  1  0
  7  6  2  0
  7  2  1  0
  8  7  1  0
  9  8  2  0
 10  9  1  0
 11 10  2  0
 11  6  1  0
  5 12  1  0
  5 13  1  0
  8 14  1  0
  9 15  1  0
 10 16  1  0
 11 17  1  0
M  END
>  <score>  (5) 
-7.349

$$$$
=
     RDKit          3D

 17 18  0  0  0  0  0  0  0  0999 V2000
    3.0340   68.5130   61.9620 O   0  0  0  0  0  0  0  0  0  0  0  0
    2.7510   68.6180   63.1330 C   0  0  0  0  0  0  0  0  0  0  0  0
    1.3920   68.3320   63.7720 C   0  0  0  0  0  0  0  0  0  0  0  0
    0.4100   67.9560   63.1630 O   0  0  0  0  0  0  0  0  0  0  0  0
    1.4950   68.5970   65.2610 C   0  0  0  0  0  0  0  0  0  0  0  0
    2.9240   69.0300   65.4290 C   0  0  0  0  0  0  0  0  0  0  0  0
    3.6330   69.0410   64.2220 C   0  0  0  0  0  0  0  0  0  0  0  0
    4.9650   69.4070   64.1390 C   0  0  0  0  0  0  0  0  0  0  0  0
    5.6040   69.7760   65.3230 C   0  0  0  0  0  0  0  0  0  0  0  0
    4.9070   69.7710   66.5440 C   0  0  0  0  0  0  0  0  0  0  0  0
    3.5590   69.3960   66.6050 C   0  0  0  0  0  0  0  0  0  0  0  0
    0.8017   69.3932   65.5698 H   0  0  0  0  0  0  0  0  0  0  0  0
    1.2314   67.7239   65.8760 H   0  0  0  0  0  0  0  0  0  0  0  0
    5.4990   69.4070   63.1773 H   0  0  0  0  0  0  0  0  0  0  0  0
    6.6628   70.0736   65.3010 H   0  0  0  0  0  0  0  0  0  0  0  0
    5.4288   70.0664   67.4662 H   0  0  0  0  0  0  0  0  0  0  0  0
    3.0178   69.3921   67.5626 H   0  0  0  0  0  0  0  0  0  0  0  0
  2  1  2  0
  3  2  1  0
  4  3  2  0
  5  3  1  0
  6  5  1  0
  7  6  2  0
  7  2  1  0
  8  7  1  0
  9  8  2  0
 10  9  1  0
 11 10  2  0
 11  6  1  0
  5 12  1  0
  5 13  1  0
  8 14  1  0
  9 15  1  0
 10 16  1  0
 11 17  1  0
M  END
>  <score>  (6) 
-7.26

$$$$
=
     RDKit          3D

 17 18  0  0  0  0  0  0  0  0999 V2000
    1.2050   68.8690   67.7340 O   0  0  0  0  0  0  0  0  0  0  0  0
    1.6170   68.8090   66.5990 C   0  0  0  0  0  0  0  0  0  0  0  0
    0.8280   68.3680   65.3650 C   0  0  0  0  0  0  0  0  0  0  0  0
   -0.3360   68.0190   65.3810 O   0  0  0  0  0  0  0  0  0  0  0  0
    1.7400   68.4480   64.1580 C   0  0  0  0  0  0  0  0  0  0  0  0
    3.0350   68.9360   64.7430 C   0  0  0  0  0  0  0  0  0  0  0  0
    2.9620   69.1400   66.1260 C   0  0  0  0  0  0  0  0  0  0  0  0
    4.0350   69.5880   66.8750 C   0  0  0  0  0  0  0  0  0  0  0  0
    5.2290   69.8400   66.1990 C   0  0  0  0  0  0  0  0  0  0  0  0
    5.3200   69.6400   64.8100 C   0  0  0  0  0  0  0  0  0  0  0  0
    4.2210   69.1870   64.0720 C   0  0  0  0  0  0  0  0  0  0  0  0
    1.8649   67.4599   63.6909 H   0  0  0  0  0  0  0  0  0  0  0  0
    1.3504   69.1014   63.3635 H   0  0  0  0  0  0  0  0  0  0  0  0
    3.9502   69.7397   67.9612 H   0  0  0  0  0  0  0  0  0  0  0  0
    6.1066   70.1981   66.7571 H   0  0  0  0  0  0  0  0  0  0  0  0
    6.2707   69.8430   64.2953 H   0  0  0  0  0  0  0  0  0  0  0  0
    4.2967   69.0338   62.9854 H   0  0  0  0  0  0  0  0  0  0  0  0
  2  1  2  0
  3  2  1  0
  4  3  2  0
  5  3  1  0
  6  5  1  0
  7  6  2  0
  7  2  1  0
  8  7  1  0
  9  8  2  0
 10  9  1  0
 11 10  2  0
 11  6  1  0
  5 12  1  0
  5 13  1  0
  8 14  1  0
  9 15  1  0
 10 16  1  0
 11 17  1  0
M  END
>  <score>  (7) 
-7.239

$$$$
=
     RDKit          3D

 17 18  0  0  0  0  0  0  0  0999 V2000
    0.6870   67.9240   64.9230 O   0  0  0  0  0  0  0  0  0  0  0  0
    1.3950   68.3990   65.7800 C   0  0  0  0  0  0  0  0  0  0  0  0
    1.0280   68.6200   67.2480 C   0  0  0  0  0  0  0  0  0  0  0  0
   -0.0460   68.3360   67.7390 O   0  0  0  0  0  0  0  0  0  0  0  0
    2.2190   69.2390   67.9530 C   0  0  0  0  0  0  0  0  0  0  0  0
    3.2400   69.3540   66.8570 C   0  0  0  0  0  0  0  0  0  0  0  0
    2.7710   68.8770   65.6270 C   0  0  0  0  0  0  0  0  0  0  0  0
    3.5400   68.8850   64.4770 C   0  0  0  0  0  0  0  0  0  0  0  0
    4.8350   69.3940   64.5760 C   0  0  0  0  0  0  0  0  0  0  0  0
    5.3220   69.8770   65.8030 C   0  0  0  0  0  0  0  0  0  0  0  0
    4.5260   69.8590   66.9540 C   0  0  0  0  0  0  0  0  0  0  0  0
    1.9656   70.2281   68.3623 H   0  0  0  0  0  0  0  0  0  0  0  0
    2.5699   68.6469   68.8111 H   0  0  0  0  0  0  0  0  0  0  0  0
    3.1460   68.5052   63.5228 H   0  0  0  0  0  0  0  0  0  0  0  0
    5.4809   69.4176   63.6859 H   0  0  0  0  0  0  0  0  0  0  0  0
    6.3456   70.2757   65.8594 H   0  0  0  0  0  0  0  0  0  0  0  0
    4.9123   70.2367   67.9122 H   0  0  0  0  0  0  0  0  0  0  0  0
  2  1  2  0
  3  2  1  0
  4  3  2  0
  5  3  1  0
  6  5  1  0
  7  6  2  0
  7  2  1  0
  8  7  1  0
  9  8  2  0
 10  9  1  0
 11 10  2  0
 11  6  1  0
  5 12  1  0
  5 13  1  0
  8 14  1  0
  9 15  1  0
 10 16  1  0
 11 17  1  0
M  END
>  <score>  (8) 
-7.194

$$$$
=
     RDKit          3D

 17 18  0  0  0  0  0  0  0  0999 V2000
    5.0210   69.2900   63.1360 O   0  0  0  0  0  0  0  0  0  0  0  0
    3.9290   68.9860   63.5580 C   0  0  0  0  0  0  0  0  0  0  0  0
    2.7720   68.3960   62.7530 C   0  0  0  0  0  0  0  0  0  0  0  0
    2.8140   68.1560   61.5630 O   0  0  0  0  0  0  0  0  0  0  0  0
    1.6000   68.1730   63.6880 C   0  0  0  0  0  0  0  0  0  0  0  0
    2.1290   68.6470   65.0130 C   0  0  0  0  0  0  0  0  0  0  0  0
    3.4500   69.1070   64.9360 C   0  0  0  0  0  0  0  0  0  0  0  0
    4.1390   69.5900   66.0330 C   0  0  0  0  0  0  0  0  0  0  0  0
    3.4680   69.6080   67.2560 C   0  0  0  0  0  0  0  0  0  0  0  0
    2.1420   69.1500   67.3510 C   0  0  0  0  0  0  0  0  0  0  0  0
    1.4630   68.6650   66.2270 C   0  0  0  0  0  0  0  0  0  0  0  0
    0.7272   68.7654   63.3761 H   0  0  0  0  0  0  0  0  0  0  0  0
    1.2541   67.1290   63.7079 H   0  0  0  0  0  0  0  0  0  0  0  0
    5.1760   69.9463   65.9449 H   0  0  0  0  0  0  0  0  0  0  0  0
    3.9807   69.9837   68.1537 H   0  0  0  0  0  0  0  0  0  0  0  0
    1.6299   69.1732   68.3243 H   0  0  0  0  0  0  0  0  0  0  0  0
    0.4259   68.3070   66.3062 H   0  0  0  0  0  0  0  0  0  0  0  0
  2  1  2  0
  3  2  1  0
  4  3  2  0
  5  3  1  0
  6  5  1  0
  7  6  2  0
  7  2  1  0
  8  7  1  0
  9  8  2  0
 10  9  1  0
 11 10  2  0
 11  6  1  0
  5 12  1  0
  5 13  1  0
  8 14  1  0
  9 15  1  0
 10 16  1  0
 11 17  1  0
M  END
>  <score>  (9) 
-6.692

$$$$
