=
     RDKit          3D

 20 20  0  0  0  0  0  0  0  0999 V2000
    4.0200   69.4870   66.0110 C   0  0  0  0  0  0  0  0  0  0  0  0
    4.0380   69.1880   64.5370 C   0  0  0  0  0  0  0  0  0  0  0  0
    5.0900   69.3290   63.6540 C   0  0  0  0  0  0  0  0  0  0  0  0
    4.7420   68.9450   62.3270 C   0  0  0  0  0  0  0  0  0  0  0  0
    3.4360   68.5200   62.2420 C   0  0  0  0  0  0  0  0  0  0  0  0
    2.6390   68.5840   63.7540 S   0  0  0  0  0  0  0  0  0  0  0  0
    5.3970   69.9070   66.5280 C   0  0  0  0  0  0  0  0  0  0  0  0
    5.3240   70.3460   67.9870 C   0  0  0  0  0  0  0  0  0  0  0  0
    7.2950   71.1090   69.0820 O   0  0  0  0  0  1  0  0  0  0  0  0
    6.2990   71.4550   68.3880 C   0  0  0  0  0  0  0  0  0  0  0  0
    5.9740   72.6030   67.9680 O   0  0  0  0  0  0  0  0  0  0  0  0
    3.3062   70.3026   66.1991 H   0  0  0  0  0  0  0  0  0  0  0  0
    3.7242   68.5690   66.5400 H   0  0  0  0  0  0  0  0  0  0  0  0
    6.0856   69.6968   63.9429 H   0  0  0  0  0  0  0  0  0  0  0  0
    5.4341   68.9836   61.4729 H   0  0  0  0  0  0  0  0  0  0  0  0
    2.9603   68.1790   61.3107 H   0  0  0  0  0  0  0  0  0  0  0  0
    6.0880   69.0554   66.4430 H   0  0  0  0  0  0  0  0  0  0  0  0
    5.7535   70.7550   65.9249 H   0  0  0  0  0  0  0  0  0  0  0  0
    4.3027   70.7048   68.1828 H   0  0  0  0  0  0  0  0  0  0  0  0
    5.6049   69.4652   68.5831 H   0  0  0  0  0  0  0  0  0  0  0  0
  2  1  1  0
  3  2  2  0
  4  3  1  0
  5  4  2  0
  6  5  1  0
  6  2  1  0
  7  1  1  0
  8  7  1  0
 10  8  1  0
 10  9  1  0
 11 10  2  0
  1 12  1  0
  1 13  1  0
  3 14  1  0
  4 15  1  0
  5 16  1  0
  7 17  1  0
  7 18  1  0
  8 19  1  0
  8 20  1  0
M  CHG  1   9  -1
M  END
>  <score>  (1) 
-6.394

$$$$
=
     RDKit          3D

 20 20  0  0  0  0  0  0  0  0999 V2000
    3.4520   69.0640   65.7020 C   0  0  0  0  0  0  0  0  0  0  0  0
    4.4520   69.7110   66.6200 C   0  0  0  0  0  0  0  0  0  0  0  0
    5.7830   69.9840   66.3710 C   0  0  0  0  0  0  0  0  0  0  0  0
    6.4270   70.6090   67.4770 C   0  0  0  0  0  0  0  0  0  0  0  0
    5.5640   70.7970   68.5320 C   0  0  0  0  0  0  0  0  0  0  0  0
    3.9910   70.2230   68.1890 S   0  0  0  0  0  0  0  0  0  0  0  0
    3.9240   69.0650   64.2460 C   0  0  0  0  0  0  0  0  0  0  0  0
    2.7690   68.7630   63.2960 C   0  0  0  0  0  0  0  0  0  0  0  0
    3.9010   67.2960   61.8030 O   0  0  0  0  0  1  0  0  0  0  0  0
    3.1770   68.3260   61.8880 C   0  0  0  0  0  0  0  0  0  0  0  0
    2.7320   69.0720   60.9680 O   0  0  0  0  0  0  0  0  0  0  0  0
    3.2959   68.0238   66.0238 H   0  0  0  0  0  0  0  0  0  0  0  0
    2.5179   69.6423   65.7562 H   0  0  0  0  0  0  0  0  0  0  0  0
    6.2892   69.7453   65.4240 H   0  0  0  0  0  0  0  0  0  0  0  0
    7.4862   70.9055   67.4866 H   0  0  0  0  0  0  0  0  0  0  0  0
    5.8529   71.2628   69.4857 H   0  0  0  0  0  0  0  0  0  0  0  0
    4.3399   70.0540   64.0035 H   0  0  0  0  0  0  0  0  0  0  0  0
    4.6897   68.2845   64.1256 H   0  0  0  0  0  0  0  0  0  0  0  0
    2.1655   67.9577   63.7401 H   0  0  0  0  0  0  0  0  0  0  0  0
    2.2208   69.7088   63.1737 H   0  0  0  0  0  0  0  0  0  0  0  0
  2  1  1  0
  3  2  2  0
  4  3  1  0
  5  4  2  0
  6  5  1  0
  6  2  1  0
  7  1  1  0
  8  7  1  0
 10  8  1  0
 10  9  1  0
 11 10  2  0
  1 12  1  0
  1 13  1  0
  3 14  1  0
  4 15  1  0
  5 16  1  0
  7 17  1  0
  7 18  1  0
  8 19  1  0
  8 20  1  0
M  CHG  1   9  -1
M  END
>  <score>  (2) 
-6.207

$$$$
=
     RDKit          3D

 20 20  0  0  0  0  0  0  0  0999 V2000
    3.2100   69.3540   66.6740 C   0  0  0  0  0  0  0  0  0  0  0  0
    4.5070   69.9160   67.1890 C   0  0  0  0  0  0  0  0  0  0  0  0
    5.7360   69.9320   66.5590 C   0  0  0  0  0  0  0  0  0  0  0  0
    6.7450   70.5520   67.3500 C   0  0  0  0  0  0  0  0  0  0  0  0
    6.2510   70.9920   68.5570 C   0  0  0  0  0  0  0  0  0  0  0  0
    4.5830   70.6590   68.7310 S   0  0  0  0  0  0  0  0  0  0  0  0
    3.3210   68.8940   65.2190 C   0  0  0  0  0  0  0  0  0  0  0  0
    2.0080   68.2860   64.7350 C   0  0  0  0  0  0  0  0  0  0  0  0
    0.4680   66.8360   65.8250 O   0  0  0  0  0  1  0  0  0  0  0  0
    1.6380   66.9410   65.3630 C   0  0  0  0  0  0  0  0  0  0  0  0
    2.5730   66.0890   65.3450 O   0  0  0  0  0  0  0  0  0  0  0  0
    2.9234   68.4941   67.2972 H   0  0  0  0  0  0  0  0  0  0  0  0
    2.4526   70.1503   66.7213 H   0  0  0  0  0  0  0  0  0  0  0  0
    5.9154   69.5127   65.5580 H   0  0  0  0  0  0  0  0  0  0  0  0
    7.7926   70.6655   67.0345 H   0  0  0  0  0  0  0  0  0  0  0  0
    6.8587   71.4990   69.3209 H   0  0  0  0  0  0  0  0  0  0  0  0
    3.5715   69.7586   64.5867 H   0  0  0  0  0  0  0  0  0  0  0  0
    4.1070   68.1272   65.1533 H   0  0  0  0  0  0  0  0  0  0  0  0
    1.2008   68.9989   64.9590 H   0  0  0  0  0  0  0  0  0  0  0  0
    2.1409   68.0929   63.6603 H   0  0  0  0  0  0  0  0  0  0  0  0
  2  1  1  0
  3  2  2  0
  4  3  1  0
  5  4  2  0
  6  5  1  0
  6  2  1  0
  7  1  1  0
  8  7  1  0
 10  8  1  0
 10  9  1  0
 11 10  2  0
  1 12  1  0
  1 13  1  0
  3 14  1  0
  4 15  1  0
  5 16  1  0
  7 17  1  0
  7 18  1  0
  8 19  1  0
  8 20  1  0
M  CHG  1   9  -1
M  END
>  <score>  (3) 
-6.15

$$$$
=
     RDKit          3D

 20 20  0  0  0  0  0  0  0  0999 V2000
    3.1490   69.2580   66.6570 C   0  0  0  0  0  0  0  0  0  0  0  0
    4.4250   69.8640   67.1710 C   0  0  0  0  0  0  0  0  0  0  0  0
    5.6550   69.9150   66.5440 C   0  0  0  0  0  0  0  0  0  0  0  0
    6.6430   70.5720   67.3330 C   0  0  0  0  0  0  0  0  0  0  0  0
    6.1320   71.0050   68.5350 C   0  0  0  0  0  0  0  0  0  0  0  0
    4.4750   70.6200   68.7070 S   0  0  0  0  0  0  0  0  0  0  0  0
    1.9900   69.4410   67.6390 C   0  0  0  0  0  0  0  0  0  0  0  0
    1.2390   68.1300   67.8510 C   0  0  0  0  0  0  0  0  0  0  0  0
    0.1510   66.8630   66.1560 O   0  0  0  0  0  1  0  0  0  0  0  0
    0.0700   67.8820   66.8960 C   0  0  0  0  0  0  0  0  0  0  0  0
   -0.8450   68.7520   66.9660 O   0  0  0  0  0  0  0  0  0  0  0  0
    2.8860   69.7399   65.7038 H   0  0  0  0  0  0  0  0  0  0  0  0
    3.3150   68.1786   66.5254 H   0  0  0  0  0  0  0  0  0  0  0  0
    5.8500   69.4950   65.5462 H   0  0  0  0  0  0  0  0  0  0  0  0
    7.6875   70.7156   67.0193 H   0  0  0  0  0  0  0  0  0  0  0  0
    6.7210   71.5370   69.2966 H   0  0  0  0  0  0  0  0  0  0  0  0
    2.3880   69.7874   68.6042 H   0  0  0  0  0  0  0  0  0  0  0  0
    1.2912   70.1809   67.2215 H   0  0  0  0  0  0  0  0  0  0  0  0
    1.9563   67.3047   67.7310 H   0  0  0  0  0  0  0  0  0  0  0  0
    0.8003   68.1913   68.8578 H   0  0  0  0  0  0  0  0  0  0  0  0
  2  1  1  0
  3  2  2  0
  4  3  1  0
  5  4  2  0
  6  5  1  0
  6  2  1  0
  7  1  1  0
  8  7  1  0
 10  8  1  0
 10  9  1  0
 11 10  2  0
  1 12  1  0
  1 13  1  0
  3 14  1  0
  4 15  1  0
  5 16  1  0
  7 17  1  0
  7 18  1  0
  8 19  1  0
  8 20  1  0
M  CHG  1   9  -1
M  END
>  <score>  (4) 
-5.997

$$$$
=
     RDKit          3D

 20 20  0  0  0  0  0  0  0  0999 V2000
    5.1720   69.1690   65.2080 C   0  0  0  0  0  0  0  0  0  0  0  0
    5.0560   69.7910   66.5720 C   0  0  0  0  0  0  0  0  0  0  0  0
    3.9500   69.8290   67.3980 C   0  0  0  0  0  0  0  0  0  0  0  0
    4.2090   70.5040   68.6250 C   0  0  0  0  0  0  0  0  0  0  0  0
    5.5070   70.9560   68.6970 C   0  0  0  0  0  0  0  0  0  0  0  0
    6.4030   70.5660   67.2930 S   0  0  0  0  0  0  0  0  0  0  0  0
    3.8180   69.0820   64.5000 C   0  0  0  0  0  0  0  0  0  0  0  0
    3.5830   67.6840   63.9350 C   0  0  0  0  0  0  0  0  0  0  0  0
    4.6790   66.6530   62.0920 O   0  0  0  0  0  1  0  0  0  0  0  0
    3.8420   67.5320   62.4350 C   0  0  0  0  0  0  0  0  0  0  0  0
    3.1720   68.3270   61.7140 O   0  0  0  0  0  0  0  0  0  0  0  0
    5.8538   69.7785   64.5967 H   0  0  0  0  0  0  0  0  0  0  0  0
    5.5562   68.1459   65.3329 H   0  0  0  0  0  0  0  0  0  0  0  0
    2.9770   69.3870   67.1372 H   0  0  0  0  0  0  0  0  0  0  0  0
    3.4617   70.6469   69.4194 H   0  0  0  0  0  0  0  0  0  0  0  0
    5.9199   71.5039   69.5568 H   0  0  0  0  0  0  0  0  0  0  0  0
    3.0203   69.3175   65.2199 H   0  0  0  0  0  0  0  0  0  0  0  0
    3.8118   69.8011   63.6676 H   0  0  0  0  0  0  0  0  0  0  0  0
    4.2471   66.9867   64.4667 H   0  0  0  0  0  0  0  0  0  0  0  0
    2.5134   67.4731   64.0814 H   0  0  0  0  0  0  0  0  0  0  0  0
  2  1  1  0
  3  2  2  0
  4  3  1  0
  5  4  2  0
  6  5  1  0
  6  2  1  0
  7  1  1  0
  8  7  1  0
 10  8  1  0
 10  9  1  0
 11 10  2  0
  1 12  1  0
  1 13  1  0
  3 14  1  0
  4 15  1  0
  5 16  1  0
  7 17  1  0
  7 18  1  0
  8 19  1  0
  8 20  1  0
M  CHG  1   9  -1
M  END
>  <score>  (5) 
-5.758

$$$$
=
     RDKit          3D

 20 20  0  0  0  0  0  0  0  0999 V2000
    1.9870   69.0840   67.2020 C   0  0  0  0  0  0  0  0  0  0  0  0
    3.3270   69.3400   66.5680 C   0  0  0  0  0  0  0  0  0  0  0  0
    4.4520   69.8890   67.1520 C   0  0  0  0  0  0  0  0  0  0  0  0
    5.5470   69.9800   66.2450 C   0  0  0  0  0  0  0  0  0  0  0  0
    5.2220   69.4920   64.9990 C   0  0  0  0  0  0  0  0  0  0  0  0
    3.6080   68.9300   64.9290 S   0  0  0  0  0  0  0  0  0  0  0  0
    1.4670   67.6780   66.8960 C   0  0  0  0  0  0  0  0  0  0  0  0
   -0.0590   67.6500   66.8780 C   0  0  0  0  0  0  0  0  0  0  0  0
   -0.3790   68.4520   64.6610 O   0  0  0  0  0  1  0  0  0  0  0  0
   -0.7190   68.5900   65.8680 C   0  0  0  0  0  0  0  0  0  0  0  0
   -1.5370   69.4070   66.3830 O   0  0  0  0  0  0  0  0  0  0  0  0
    2.0823   69.1979   68.2919 H   0  0  0  0  0  0  0  0  0  0  0  0
    1.2710   69.8087   66.7871 H   0  0  0  0  0  0  0  0  0  0  0  0
    4.4974   70.2191   68.2003 H   0  0  0  0  0  0  0  0  0  0  0  0
    6.5330   70.3905   66.5083 H   0  0  0  0  0  0  0  0  0  0  0  0
    5.9188   69.4666   64.1482 H   0  0  0  0  0  0  0  0  0  0  0  0
    1.8440   67.3614   65.9123 H   0  0  0  0  0  0  0  0  0  0  0  0
    1.8204   66.9952   67.6827 H   0  0  0  0  0  0  0  0  0  0  0  0
   -0.3771   66.6232   66.6446 H   0  0  0  0  0  0  0  0  0  0  0  0
   -0.3809   67.9967   67.8711 H   0  0  0  0  0  0  0  0  0  0  0  0
  2  1  1  0
  3  2  2  0
  4  3  1  0
  5  4  2  0
  6  5  1  0
  6  2  1  0
  7  1  1  0
  8  7  1  0
 10  8  1  0
 10  9  1  0
 11 10  2  0
  1 12  1  0
  1 13  1  0
  3 14  1  0
  4 15  1  0
  5 16  1  0
  7 17  1  0
  7 18  1  0
  8 19  1  0
  8 20  1  0
M  CHG  1   9  -1
M  END
>  <score>  (6) 
-5.706

$$$$
=
     RDKit          3D

 20 20  0  0  0  0  0  0  0  0999 V2000
    3.2590   68.5870   65.2290 C   0  0  0  0  0  0  0  0  0  0  0  0
    3.5410   69.2950   66.5260 C   0  0  0  0  0  0  0  0  0  0  0  0
    4.7230   69.8790   66.9360 C   0  0  0  0  0  0  0  0  0  0  0  0
    4.6230   70.4620   68.2320 C   0  0  0  0  0  0  0  0  0  0  0  0
    3.3640   70.3060   68.7670 C   0  0  0  0  0  0  0  0  0  0  0  0
    2.3150   69.4640   67.7110 S   0  0  0  0  0  0  0  0  0  0  0  0
    1.8180   68.8000   64.7610 C   0  0  0  0  0  0  0  0  0  0  0  0
    1.6110   68.2430   63.3560 C   0  0  0  0  0  0  0  0  0  0  0  0
    0.6610   69.6140   61.6590 O   0  0  0  0  0  1  0  0  0  0  0  0
    0.4090   68.8090   62.5970 C   0  0  0  0  0  0  0  0  0  0  0  0
   -0.7090   68.3940   63.0190 O   0  0  0  0  0  0  0  0  0  0  0  0
    3.9432   68.9717   64.4584 H   0  0  0  0  0  0  0  0  0  0  0  0
    3.4077   67.5092   65.3910 H   0  0  0  0  0  0  0  0  0  0  0  0
    5.6404   69.8926   66.3291 H   0  0  0  0  0  0  0  0  0  0  0  0
    5.4512   70.9746   68.7432 H   0  0  0  0  0  0  0  0  0  0  0  0
    3.0674   70.6795   69.7582 H   0  0  0  0  0  0  0  0  0  0  0  0
    1.1351   68.2881   65.4550 H   0  0  0  0  0  0  0  0  0  0  0  0
    1.6115   69.8803   64.7434 H   0  0  0  0  0  0  0  0  0  0  0  0
    2.5157   68.4587   62.7686 H   0  0  0  0  0  0  0  0  0  0  0  0
    1.4119   67.1685   63.4818 H   0  0  0  0  0  0  0  0  0  0  0  0
  2  1  1  0
  3  2  2  0
  4  3  1  0
  5  4  2  0
  6  5  1  0
  6  2  1  0
  7  1  1  0
  8  7  1  0
 10  8  1  0
 10  9  1  0
 11 10  2  0
  1 12  1  0
  1 13  1  0
  3 14  1  0
  4 15  1  0
  5 16  1  0
  7 17  1  0
  7 18  1  0
  8 19  1  0
  8 20  1  0
M  CHG  1   9  -1
M  END
>  <score>  (7) 
-5.618

$$$$
=
     RDKit          3D

 20 20  0  0  0  0  0  0  0  0999 V2000
    4.0460   69.3790   65.6310 C   0  0  0  0  0  0  0  0  0  0  0  0
    2.6770   69.0870   66.1810 C   0  0  0  0  0  0  0  0  0  0  0  0
    1.6060   68.5050   65.5320 C   0  0  0  0  0  0  0  0  0  0  0  0
    0.4610   68.3830   66.3700 C   0  0  0  0  0  0  0  0  0  0  0  0
    0.6990   68.8740   67.6350 C   0  0  0  0  0  0  0  0  0  0  0  0
    2.2900   69.4740   67.8040 S   0  0  0  0  0  0  0  0  0  0  0  0
    4.1450   69.0580   64.1380 C   0  0  0  0  0  0  0  0  0  0  0  0
    4.9670   67.7950   63.9020 C   0  0  0  0  0  0  0  0  0  0  0  0
    4.2980   66.4510   62.0560 O   0  0  0  0  0  1  0  0  0  0  0  0
    4.1990   66.6150   63.3020 C   0  0  0  0  0  0  0  0  0  0  0  0
    3.5420   65.9440   64.1500 O   0  0  0  0  0  0  0  0  0  0  0  0
    4.2685   70.4459   65.7803 H   0  0  0  0  0  0  0  0  0  0  0  0
    4.7686   68.7433   66.1636 H   0  0  0  0  0  0  0  0  0  0  0  0
    1.6342   68.1725   64.4838 H   0  0  0  0  0  0  0  0  0  0  0  0
   -0.4968   67.9495   66.0466 H   0  0  0  0  0  0  0  0  0  0  0  0
   -0.0482   68.8792   68.4423 H   0  0  0  0  0  0  0  0  0  0  0  0
    3.1326   68.9085   63.7346 H   0  0  0  0  0  0  0  0  0  0  0  0
    4.6422   69.8985   63.6318 H   0  0  0  0  0  0  0  0  0  0  0  0
    5.7894   68.0483   63.2169 H   0  0  0  0  0  0  0  0  0  0  0  0
    5.3052   67.4634   64.8948 H   0  0  0  0  0  0  0  0  0  0  0  0
  2  1  1  0
  3  2  2  0
  4  3  1  0
  5  4  2  0
  6  5  1  0
  6  2  1  0
  7  1  1  0
  8  7  1  0
 10  8  1  0
 10  9  1  0
 11 10  2  0
  1 12  1  0
  1 13  1  0
  3 14  1  0
  4 15  1  0
  5 16  1  0
  7 17  1  0
  7 18  1  0
  8 19  1  0
  8 20  1  0
M  CHG  1   9  -1
M  END
>  <score>  (8) 
-5.302

$$$$
=
     RDKit          3D

 20 20  0  0  0  0  0  0  0  0999 V2000
    3.4300   68.2840   65.4170 C   0  0  0  0  0  0  0  0  0  0  0  0
    2.5490   68.4930   64.2170 C   0  0  0  0  0  0  0  0  0  0  0  0
    2.9310   68.6470   62.8980 C   0  0  0  0  0  0  0  0  0  0  0  0
    1.8190   68.8240   62.0260 C   0  0  0  0  0  0  0  0  0  0  0  0
    0.6240   68.7950   62.7080 C   0  0  0  0  0  0  0  0  0  0  0  0
    0.8450   68.5560   64.3860 S   0  0  0  0  0  0  0  0  0  0  0  0
    3.2710   69.4040   66.4490 C   0  0  0  0  0  0  0  0  0  0  0  0
    4.6220   69.8150   67.0240 C   0  0  0  0  0  0  0  0  0  0  0  0
    5.2830   71.7030   68.3130 O   0  0  0  0  0  1  0  0  0  0  0  0
    4.5630   70.6670   68.2930 C   0  0  0  0  0  0  0  0  0  0  0  0
    3.7860   70.2120   69.1820 O   0  0  0  0  0  0  0  0  0  0  0  0
    3.1654   67.3263   65.8890 H   0  0  0  0  0  0  0  0  0  0  0  0
    4.4753   68.2842   65.0745 H   0  0  0  0  0  0  0  0  0  0  0  0
    3.9775   68.6343   62.5592 H   0  0  0  0  0  0  0  0  0  0  0  0
    1.9049   68.9667   60.9387 H   0  0  0  0  0  0  0  0  0  0  0  0
   -0.3592   68.9120   62.2289 H   0  0  0  0  0  0  0  0  0  0  0  0
    2.8062   70.2756   65.9649 H   0  0  0  0  0  0  0  0  0  0  0  0
    2.6387   69.0357   67.2703 H   0  0  0  0  0  0  0  0  0  0  0  0
    5.1849   68.8989   67.2561 H   0  0  0  0  0  0  0  0  0  0  0  0
    5.0986   70.4445   66.2581 H   0  0  0  0  0  0  0  0  0  0  0  0
  2  1  1  0
  3  2  2  0
  4  3  1  0
  5  4  2  0
  6  5  1  0
  6  2  1  0
  7  1  1  0
  8  7  1  0
 10  8  1  0
 10  9  1  0
 11 10  2  0
  1 12  1  0
  1 13  1  0
  3 14  1  0
  4 15  1  0
  5 16  1  0
  7 17  1  0
  7 18  1  0
  8 19  1  0
  8 20  1  0
M  CHG  1   9  -1
M  END
>  <score>  (9) 
-5.272

$$$$
