=
     RDKit          3D

 53 57  0  0  0  0  0  0  0  0999 V2000
    3.6620   61.8570   70.8420 C   0  0  1  0  0  0  0  0  0  0  0  0
    3.5030   63.1000   69.9460 C   0  0  2  0  0  0  0  0  0  0  0  0
    2.6820   64.1710   70.6650 C   0  0  0  0  0  0  0  0  0  0  0  0
    1.3080   63.6410   71.0790 C   0  0  0  0  0  0  0  0  0  0  0  0
    1.4210   62.3610   71.9180 C   0  0  2  0  0  0  0  0  0  0  0  0
    2.2730   61.2750   71.2140 C   0  0  2  0  0  0  0  0  0  0  0  0
    2.3450   60.0250   72.1150 C   0  0  0  0  0  0  0  0  0  0  0  0
    0.9520   59.5040   72.4820 C   0  0  2  0  0  0  0  0  0  0  0  0
    0.1740   60.6300   73.1550 N   0  0  1  0  0  4  0  0  0  0  0  0
    0.0280   61.8320   72.2680 C   0  0  0  0  0  0  0  0  0  0  0  0
   -1.1680   60.1320   73.7030 C   0  0  0  0  0  0  0  0  0  0  0  0
   -0.9470   59.1150   74.8410 C   0  0  0  0  0  0  0  0  0  0  0  0
    0.1170   58.1380   74.4770 C   0  0  0  0  0  0  0  0  0  0  0  0
    0.9780   58.3440   73.4140 C   0  0  0  0  0  0  0  0  0  0  0  0
    1.8260   57.2680   73.3470 N   0  0  0  0  0  0  0  0  0  0  0  0
    1.5400   56.3840   74.3640 C   0  0  0  0  0  0  0  0  0  0  0  0
    0.4670   56.9070   75.0900 C   0  0  0  0  0  0  0  0  0  0  0  0
   -0.0230   56.1800   76.1940 C   0  0  0  0  0  0  0  0  0  0  0  0
    0.5760   54.9620   76.5310 C   0  0  0  0  0  0  0  0  0  0  0  0
    1.6450   54.4640   75.7900 C   0  0  0  0  0  0  0  0  0  0  0  0
    2.1470   55.1660   74.6900 C   0  0  0  0  0  0  0  0  0  0  0  0
    4.6000   60.8150   70.2440 C   0  0  0  0  0  0  0  0  0  0  0  0
    4.3610   60.2520   69.1810 O   0  0  0  0  0  0  0  0  0  0  0  0
    5.6820   61.2160   72.2840 C   0  0  0  0  0  0  0  0  0  0  0  0
    5.7250   60.6260   70.9810 O   0  0  0  0  0  0  0  0  0  0  0  0
    2.7870   62.7680   68.7550 O   0  0  0  0  0  0  0  0  0  0  0  0
    4.1490   62.1771   71.7749 H   0  0  0  0  0  0  0  0  0  0  0  0
    4.5131   63.4661   69.7102 H   0  0  0  0  0  0  0  0  0  0  0  0
    3.2262   64.4944   71.5646 H   0  0  0  0  0  0  0  0  0  0  0  0
    2.5327   65.0133   69.9734 H   0  0  0  0  0  0  0  0  0  0  0  0
    0.7929   64.4112   71.6719 H   0  0  0  0  0  0  0  0  0  0  0  0
    0.7435   63.4027   70.1654 H   0  0  0  0  0  0  0  0  0  0  0  0
    1.9449   62.6175   72.8506 H   0  0  0  0  0  0  0  0  0  0  0  0
    1.8084   60.9602   70.2679 H   0  0  0  0  0  0  0  0  0  0  0  0
    2.8916   59.2333   71.5817 H   0  0  0  0  0  0  0  0  0  0  0  0
    2.8602   60.3050   73.0457 H   0  0  0  0  0  0  0  0  0  0  0  0
    0.4813   59.1663   71.5469 H   0  0  0  0  0  0  0  0  0  0  0  0
    0.7287   60.9445   73.9638 H   0  0  0  0  0  0  0  0  0  0  0  0
   -0.5019   61.5489   71.3466 H   0  0  0  0  0  0  0  0  0  0  0  0
   -0.5473   62.6119   72.7883 H   0  0  0  0  0  0  0  0  0  0  0  0
   -1.7405   60.9880   74.0896 H   0  0  0  0  0  0  0  0  0  0  0  0
   -1.7216   59.6392   72.8902 H   0  0  0  0  0  0  0  0  0  0  0  0
   -0.6465   59.6529   75.7522 H   0  0  0  0  0  0  0  0  0  0  0  0
   -1.8855   58.5673   75.0121 H   0  0  0  0  0  0  0  0  0  0  0  0
    2.5658   57.1401   72.6419 H   0  0  0  0  0  0  0  0  0  0  0  0
   -0.8672   56.5665   76.7839 H   0  0  0  0  0  0  0  0  0  0  0  0
    0.1983   54.3904   77.3916 H   0  0  0  0  0  0  0  0  0  0  0  0
    2.1010   53.5042   76.0744 H   0  0  0  0  0  0  0  0  0  0  0  0
    2.9897   54.7745   74.1013 H   0  0  0  0  0  0  0  0  0  0  0  0
    5.7396   60.4253   73.0466 H   0  0  0  0  0  0  0  0  0  0  0  0
    6.5324   61.9034   72.4035 H   0  0  0  0  0  0  0  0  0  0  0  0
    4.7409   61.7728   72.4035 H   0  0  0  0  0  0  0  0  0  0  0  0
    1.9158   62.3640   68.9955 H   0  0  0  0  0  0  0  0  0  0  0  0
  2  1  1  0
  3  2  1  0
  4  3  1  0
  5  4  1  0
  6  1  1  0
  6  5  1  0
  7  6  1  0
  8  7  1  0
  9  8  1  0
 10  9  1  0
 10  5  1  0
 11  9  1  0
 12 11  1  0
 13 12  1  0
 14 13  2  0
 14  8  1  0
 15 14  1  0
 16 15  1  0
 17 16  2  0
 17 13  1  0
 18 17  1  0
 19 18  2  0
 20 19  1  0
 21 20  2  0
 21 16  1  0
 22  1  1  0
 23 22  2  0
 25 22  1  0
 25 24  1  0
 26  2  1  0
  1 27  1  1
  2 28  1  6
  3 29  1  0
  3 30  1  0
  4 31  1  0
  4 32  1  0
  5 33  1  1
  6 34  1  6
  7 35  1  0
  7 36  1  0
  8 37  1  6
  9 38  1  1
 10 39  1  0
 10 40  1  0
 11 41  1  0
 11 42  1  0
 12 43  1  0
 12 44  1  0
 15 45  1  0
 18 46  1  0
 19 47  1  0
 20 48  1  0
 21 49  1  0
 24 50  1  0
 24 51  1  0
 24 52  1  0
 26 53  1  0
M  CHG  1   9   1
M  END
>  <score>  (1) 
-8.463

$$$$
=
     RDKit          3D

 53 57  0  0  0  0  0  0  0  0999 V2000
    1.8280   62.7540   70.3520 C   0  0  1  0  0  0  0  0  0  0  0  0
    3.0780   63.3510   69.6790 C   0  0  2  0  0  0  0  0  0  0  0  0
    3.8310   62.2700   68.9030 C   0  0  0  0  0  0  0  0  0  0  0  0
    4.2280   61.1020   69.8080 C   0  0  0  0  0  0  0  0  0  0  0  0
    3.0170   60.5210   70.5510 C   0  0  2  0  0  0  0  0  0  0  0  0
    2.2270   61.6100   71.3220 C   0  0  2  0  0  0  0  0  0  0  0  0
    1.0280   60.9550   72.0370 C   0  0  0  0  0  0  0  0  0  0  0  0
    1.4670   59.8130   72.9590 C   0  0  2  0  0  0  0  0  0  0  0  0
    2.2450   58.7940   72.1330 N   0  0  1  0  0  4  0  0  0  0  0  0
    3.4600   59.3920   71.4850 C   0  0  0  0  0  0  0  0  0  0  0  0
    2.5690   57.5400   72.9530 C   0  0  0  0  0  0  0  0  0  0  0  0
    1.2770   56.7880   73.3290 C   0  0  0  0  0  0  0  0  0  0  0  0
    0.2320   57.7380   73.8030 C   0  0  0  0  0  0  0  0  0  0  0  0
    0.3310   59.1040   73.6090 C   0  0  0  0  0  0  0  0  0  0  0  0
   -0.7810   59.6880   74.1610 N   0  0  0  0  0  0  0  0  0  0  0  0
   -1.6050   58.7170   74.6880 C   0  0  0  0  0  0  0  0  0  0  0  0
   -0.9900   57.4810   74.4770 C   0  0  0  0  0  0  0  0  0  0  0  0
   -1.6400   56.3160   74.9320 C   0  0  0  0  0  0  0  0  0  0  0  0
   -2.8750   56.4280   75.5780 C   0  0  0  0  0  0  0  0  0  0  0  0
   -3.4650   57.6750   75.7740 C   0  0  0  0  0  0  0  0  0  0  0  0
   -2.8400   58.8450   75.3330 C   0  0  0  0  0  0  0  0  0  0  0  0
    0.9520   63.8110   71.0130 C   0  0  0  0  0  0  0  0  0  0  0  0
    1.0380   64.0820   72.2060 O   0  0  0  0  0  0  0  0  0  0  0  0
    0.2660   65.8600   70.1040 C   0  0  0  0  0  0  0  0  0  0  0  0
    0.1220   64.4360   70.1400 O   0  0  0  0  0  0  0  0  0  0  0  0
    3.9830   63.8520   70.6650 O   0  0  0  0  0  0  0  0  0  0  0  0
    1.2004   62.3164   69.5617 H   0  0  0  0  0  0  0  0  0  0  0  0
    2.7385   64.1551   69.0096 H   0  0  0  0  0  0  0  0  0  0  0  0
    3.1846   61.8934   68.0966 H   0  0  0  0  0  0  0  0  0  0  0  0
    4.7493   62.7162   68.4935 H   0  0  0  0  0  0  0  0  0  0  0  0
    4.6806   60.3114   69.1915 H   0  0  0  0  0  0  0  0  0  0  0  0
    4.9419   61.4761   70.5566 H   0  0  0  0  0  0  0  0  0  0  0  0
    2.3301   60.1065   69.7984 H   0  0  0  0  0  0  0  0  0  0  0  0
    2.8494   62.0722   72.1024 H   0  0  0  0  0  0  0  0  0  0  0  0
    0.5117   61.7184   72.6375 H   0  0  0  0  0  0  0  0  0  0  0  0
    0.3607   60.5361   71.2694 H   0  0  0  0  0  0  0  0  0  0  0  0
    2.0760   60.2634   73.7567 H   0  0  0  0  0  0  0  0  0  0  0  0
    1.6330   58.4962   71.3599 H   0  0  0  0  0  0  0  0  0  0  0  0
    4.1311   59.7940   72.2583 H   0  0  0  0  0  0  0  0  0  0  0  0
    3.9947   58.6208   70.9111 H   0  0  0  0  0  0  0  0  0  0  0  0
    3.2136   56.8760   72.3584 H   0  0  0  0  0  0  0  0  0  0  0  0
    3.0837   57.8437   73.8765 H   0  0  0  0  0  0  0  0  0  0  0  0
    0.9021   56.2507   72.4454 H   0  0  0  0  0  0  0  0  0  0  0  0
    1.5039   56.0797   74.1395 H   0  0  0  0  0  0  0  0  0  0  0  0
   -0.9714   60.7001   74.1789 H   0  0  0  0  0  0  0  0  0  0  0  0
   -1.1802   55.3283   74.7803 H   0  0  0  0  0  0  0  0  0  0  0  0
   -3.3863   55.5220   75.9353 H   0  0  0  0  0  0  0  0  0  0  0  0
   -4.4377   57.7397   76.2837 H   0  0  0  0  0  0  0  0  0  0  0  0
   -3.3025   59.8310   75.4875 H   0  0  0  0  0  0  0  0  0  0  0  0
    0.3055   66.2506   71.1315 H   0  0  0  0  0  0  0  0  0  0  0  0
    1.1952   66.1214   69.5764 H   0  0  0  0  0  0  0  0  0  0  0  0
   -0.5920   66.3021   69.5764 H   0  0  0  0  0  0  0  0  0  0  0  0
    3.6286   63.6558   71.5683 H   0  0  0  0  0  0  0  0  0  0  0  0
  2  1  1  0
  3  2  1  0
  4  3  1  0
  5  4  1  0
  6  1  1  0
  6  5  1  0
  7  6  1  0
  8  7  1  0
  9  8  1  0
 10  9  1  0
 10  5  1  0
 11  9  1  0
 12 11  1  0
 13 12  1  0
 14 13  2  0
 14  8  1  0
 15 14  1  0
 16 15  1  0
 17 16  2  0
 17 13  1  0
 18 17  1  0
 19 18  2  0
 20 19  1  0
 21 20  2  0
 21 16  1  0
 22  1  1  0
 23 22  2  0
 25 22  1  0
 25 24  1  0
 26  2  1  0
  1 27  1  6
  2 28  1  6
  3 29  1  0
  3 30  1  0
  4 31  1  0
  4 32  1  0
  5 33  1  6
  6 34  1  1
  7 35  1  0
  7 36  1  0
  8 37  1  1
  9 38  1  6
 10 39  1  0
 10 40  1  0
 11 41  1  0
 11 42  1  0
 12 43  1  0
 12 44  1  0
 15 45  1  0
 18 46  1  0
 19 47  1  0
 20 48  1  0
 21 49  1  0
 24 50  1  0
 24 51  1  0
 24 52  1  0
 26 53  1  0
M  CHG  1   9   1
M  END
>  <score>  (2) 
-8.407

$$$$
=
     RDKit          3D

 53 57  0  0  0  0  0  0  0  0999 V2000
    1.3460   69.1080   62.4990 C   0  0  1  0  0  0  0  0  0  0  0  0
    0.0390   68.5600   61.8950 C   0  0  2  0  0  0  0  0  0  0  0  0
   -1.1700   69.1270   62.6410 C   0  0  0  0  0  0  0  0  0  0  0  0
   -1.1070   68.8090   64.1370 C   0  0  0  0  0  0  0  0  0  0  0  0
    0.2130   69.2800   64.7630 C   0  0  2  0  0  0  0  0  0  0  0  0
    1.4480   68.7350   64.0020 C   0  0  2  0  0  0  0  0  0  0  0  0
    2.7310   69.2510   64.6840 C   0  0  0  0  0  0  0  0  0  0  0  0
    2.7750   68.8860   66.1710 C   0  0  2  0  0  0  0  0  0  0  0  0
    1.5250   69.4430   66.8440 N   0  0  1  0  0  4  0  0  0  0  0  0
    0.2620   68.8980   66.2450 C   0  0  0  0  0  0  0  0  0  0  0  0
    1.5820   69.2640   68.3660 C   0  0  0  0  0  0  0  0  0  0  0  0
    2.7240   70.1070   68.9690 C   0  0  0  0  0  0  0  0  0  0  0  0
    3.9660   69.9740   68.1560 C   0  0  0  0  0  0  0  0  0  0  0  0
    3.9620   69.4330   66.8830 C   0  0  0  0  0  0  0  0  0  0  0  0
    5.2510   69.4500   66.4160 N   0  0  0  0  0  0  0  0  0  0  0  0
    6.0810   70.0150   67.3590 C   0  0  0  0  0  0  0  0  0  0  0  0
    5.2980   70.3520   68.4650 C   0  0  0  0  0  0  0  0  0  0  0  0
    5.9200   70.9510   69.5790 C   0  0  0  0  0  0  0  0  0  0  0  0
    7.2990   71.1890   69.5470 C   0  0  0  0  0  0  0  0  0  0  0  0
    8.0550   70.8430   68.4310 C   0  0  0  0  0  0  0  0  0  0  0  0
    7.4610   70.2480   67.3140 C   0  0  0  0  0  0  0  0  0  0  0  0
    2.5800   68.7020   61.7030 C   0  0  0  0  0  0  0  0  0  0  0  0
    3.0900   69.4370   60.8650 O   0  0  0  0  0  0  0  0  0  0  0  0
    4.4920   67.3940   62.0600 C   0  0  0  0  0  0  0  0  0  0  0  0
    3.0640   67.4830   62.0560 O   0  0  0  0  0  0  0  0  0  0  0  0
   -0.0200   67.1400   62.0420 O   0  0  0  0  0  0  0  0  0  0  0  0
    1.3113   70.2053   62.4304 H   0  0  0  0  0  0  0  0  0  0  0  0
    0.0210   68.8488   60.8337 H   0  0  0  0  0  0  0  0  0  0  0  0
   -1.1918   70.2188   62.5084 H   0  0  0  0  0  0  0  0  0  0  0  0
   -2.0782   68.6637   62.2280 H   0  0  0  0  0  0  0  0  0  0  0  0
   -1.9422   69.3142   64.6442 H   0  0  0  0  0  0  0  0  0  0  0  0
   -1.1737   67.7178   64.2585 H   0  0  0  0  0  0  0  0  0  0  0  0
    0.2504   70.3762   64.6798 H   0  0  0  0  0  0  0  0  0  0  0  0
    1.4843   67.6364   64.0436 H   0  0  0  0  0  0  0  0  0  0  0  0
    3.6034   68.8063   64.1829 H   0  0  0  0  0  0  0  0  0  0  0  0
    2.7425   70.3479   64.6022 H   0  0  0  0  0  0  0  0  0  0  0  0
    2.8324   67.7890   66.2287 H   0  0  0  0  0  0  0  0  0  0  0  0
    1.5070   70.4566   66.6618 H   0  0  0  0  0  0  0  0  0  0  0  0
    0.2482   67.8026   66.3450 H   0  0  0  0  0  0  0  0  0  0  0  0
   -0.6104   69.3171   66.7677 H   0  0  0  0  0  0  0  0  0  0  0  0
    0.6254   69.5852   68.8039 H   0  0  0  0  0  0  0  0  0  0  0  0
    1.7666   68.2034   68.5918 H   0  0  0  0  0  0  0  0  0  0  0  0
    2.4191   71.1637   68.9915 H   0  0  0  0  0  0  0  0  0  0  0  0
    2.9289   69.7459   69.9876 H   0  0  0  0  0  0  0  0  0  0  0  0
    5.5533   69.0938   65.4980 H   0  0  0  0  0  0  0  0  0  0  0  0
    5.3282   71.2284   70.4638 H   0  0  0  0  0  0  0  0  0  0  0  0
    7.7907   71.6548   70.4138 H   0  0  0  0  0  0  0  0  0  0  0  0
    9.1371   71.0408   68.4277 H   0  0  0  0  0  0  0  0  0  0  0  0
    8.0566   69.9727   66.4311 H   0  0  0  0  0  0  0  0  0  0  0  0
    4.8551   67.3714   63.0981 H   0  0  0  0  0  0  0  0  0  0  0  0
    4.8035   66.4747   61.5425 H   0  0  0  0  0  0  0  0  0  0  0  0
    4.9153   68.2675   61.5425 H   0  0  0  0  0  0  0  0  0  0  0  0
   -0.0296   66.9080   63.0044 H   0  0  0  0  0  0  0  0  0  0  0  0
  2  1  1  0
  3  2  1  0
  4  3  1  0
  5  4  1  0
  6  1  1  0
  6  5  1  0
  7  6  1  0
  8  7  1  0
  9  8  1  0
 10  9  1  0
 10  5  1  0
 11  9  1  0
 12 11  1  0
 13 12  1  0
 14 13  2  0
 14  8  1  0
 15 14  1  0
 16 15  1  0
 17 16  2  0
 17 13  1  0
 18 17  1  0
 19 18  2  0
 20 19  1  0
 21 20  2  0
 21 16  1  0
 22  1  1  0
 23 22  2  0
 25 22  1  0
 25 24  1  0
 26  2  1  0
  1 27  1  1
  2 28  1  6
  3 29  1  0
  3 30  1  0
  4 31  1  0
  4 32  1  0
  5 33  1  1
  6 34  1  6
  7 35  1  0
  7 36  1  0
  8 37  1  6
  9 38  1  1
 10 39  1  0
 10 40  1  0
 11 41  1  0
 11 42  1  0
 12 43  1  0
 12 44  1  0
 15 45  1  0
 18 46  1  0
 19 47  1  0
 20 48  1  0
 21 49  1  0
 24 50  1  0
 24 51  1  0
 24 52  1  0
 26 53  1  0
M  CHG  1   9   1
M  END
>  <score>  (3) 
-8.286

$$$$
=
     RDKit          3D

 53 57  0  0  0  0  0  0  0  0999 V2000
    2.2700   62.7320   70.1170 C   0  0  1  0  0  0  0  0  0  0  0  0
    3.7180   62.7980   69.5970 C   0  0  2  0  0  0  0  0  0  0  0  0
    4.2140   61.3980   69.2310 C   0  0  0  0  0  0  0  0  0  0  0  0
    4.1250   60.4410   70.4210 C   0  0  0  0  0  0  0  0  0  0  0  0
    2.7100   60.4000   71.0130 C   0  0  2  0  0  0  0  0  0  0  0  0
    2.1810   61.8140   71.3650 C   0  0  2  0  0  0  0  0  0  0  0  0
    0.7590   61.6930   71.9480 C   0  0  0  0  0  0  0  0  0  0  0  0
    0.7150   60.7530   73.1570 C   0  0  2  0  0  0  0  0  0  0  0  0
    1.2600   59.3930   72.7350 N   0  0  1  0  0  4  0  0  0  0  0  0
    2.6720   59.4750   72.2320 C   0  0  0  0  0  0  0  0  0  0  0  0
    1.0880   58.3520   73.8470 C   0  0  0  0  0  0  0  0  0  0  0  0
   -0.4070   58.0770   74.1070 C   0  0  0  0  0  0  0  0  0  0  0  0
   -1.1780   59.3510   74.1540 C   0  0  0  0  0  0  0  0  0  0  0  0
   -0.6560   60.5490   73.7010 C   0  0  0  0  0  0  0  0  0  0  0  0
   -1.6080   61.5190   73.8860 N   0  0  0  0  0  0  0  0  0  0  0  0
   -2.7440   60.9590   74.4290 C   0  0  0  0  0  0  0  0  0  0  0  0
   -2.5000   59.5960   74.6100 C   0  0  0  0  0  0  0  0  0  0  0  0
   -3.5180   58.7920   75.1600 C   0  0  0  0  0  0  0  0  0  0  0  0
   -4.7400   59.3780   75.5080 C   0  0  0  0  0  0  0  0  0  0  0  0
   -4.9560   60.7400   75.3170 C   0  0  0  0  0  0  0  0  0  0  0  0
   -3.9610   61.5590   74.7740 C   0  0  0  0  0  0  0  0  0  0  0  0
    1.6650   64.1110   70.3540 C   0  0  0  0  0  0  0  0  0  0  0  0
    2.2920   65.0180   70.8900 O   0  0  0  0  0  0  0  0  0  0  0  0
   -0.0990   65.5690   69.8470 C   0  0  0  0  0  0  0  0  0  0  0  0
    0.4020   64.2290   69.8680 O   0  0  0  0  0  0  0  0  0  0  0  0
    4.5920   63.2870   70.6160 O   0  0  0  0  0  0  0  0  0  0  0  0
    1.6525   62.2799   69.3268 H   0  0  0  0  0  0  0  0  0  0  0  0
    3.7227   63.4629   68.7207 H   0  0  0  0  0  0  0  0  0  0  0  0
    3.5978   61.0043   68.4092 H   0  0  0  0  0  0  0  0  0  0  0  0
    5.2689   61.4745   68.9287 H   0  0  0  0  0  0  0  0  0  0  0  0
    4.4007   59.4300   70.0866 H   0  0  0  0  0  0  0  0  0  0  0  0
    4.8124   60.7998   71.2012 H   0  0  0  0  0  0  0  0  0  0  0  0
    2.0376   59.9955   70.2421 H   0  0  0  0  0  0  0  0  0  0  0  0
    2.8023   62.2873   72.1396 H   0  0  0  0  0  0  0  0  0  0  0  0
    0.4168   62.6906   72.2606 H   0  0  0  0  0  0  0  0  0  0  0  0
    0.1052   61.2757   71.1679 H   0  0  0  0  0  0  0  0  0  0  0  0
    1.3186   61.2221   73.9480 H   0  0  0  0  0  0  0  0  0  0  0  0
    0.6955   59.0724   71.9354 H   0  0  0  0  0  0  0  0  0  0  0  0
    3.3228   59.8780   73.0220 H   0  0  0  0  0  0  0  0  0  0  0  0
    3.0268   58.4725   71.9509 H   0  0  0  0  0  0  0  0  0  0  0  0
    1.5805   57.4159   73.5451 H   0  0  0  0  0  0  0  0  0  0  0  0
    1.5427   58.7409   74.7701 H   0  0  0  0  0  0  0  0  0  0  0  0
   -0.8035   57.4449   73.2987 H   0  0  0  0  0  0  0  0  0  0  0  0
   -0.5087   57.5669   75.0763 H   0  0  0  0  0  0  0  0  0  0  0  0
   -1.4914   62.5157   73.6540 H   0  0  0  0  0  0  0  0  0  0  0  0
   -3.3538   57.7153   75.3141 H   0  0  0  0  0  0  0  0  0  0  0  0
   -5.5389   58.7556   75.9373 H   0  0  0  0  0  0  0  0  0  0  0  0
   -5.9248   61.1789   75.5977 H   0  0  0  0  0  0  0  0  0  0  0  0
   -4.1285   62.6357   74.6234 H   0  0  0  0  0  0  0  0  0  0  0  0
   -0.2327   65.9267   70.8786 H   0  0  0  0  0  0  0  0  0  0  0  0
    0.6165   66.2198   69.3231 H   0  0  0  0  0  0  0  0  0  0  0  0
   -1.0660   65.5907   69.3231 H   0  0  0  0  0  0  0  0  0  0  0  0
    4.2129   63.0749   71.5056 H   0  0  0  0  0  0  0  0  0  0  0  0
  2  1  1  0
  3  2  1  0
  4  3  1  0
  5  4  1  0
  6  1  1  0
  6  5  1  0
  7  6  1  0
  8  7  1  0
  9  8  1  0
 10  9  1  0
 10  5  1  0
 11  9  1  0
 12 11  1  0
 13 12  1  0
 14 13  2  0
 14  8  1  0
 15 14  1  0
 16 15  1  0
 17 16  2  0
 17 13  1  0
 18 17  1  0
 19 18  2  0
 20 19  1  0
 21 20  2  0
 21 16  1  0
 22  1  1  0
 23 22  2  0
 25 22  1  0
 25 24  1  0
 26  2  1  0
  1 27  1  6
  2 28  1  6
  3 29  1  0
  3 30  1  0
  4 31  1  0
  4 32  1  0
  5 33  1  6
  6 34  1  1
  7 35  1  0
  7 36  1  0
  8 37  1  1
  9 38  1  6
 10 39  1  0
 10 40  1  0
 11 41  1  0
 11 42  1  0
 12 43  1  0
 12 44  1  0
 15 45  1  0
 18 46  1  0
 19 47  1  0
 20 48  1  0
 21 49  1  0
 24 50  1  0
 24 51  1  0
 24 52  1  0
 26 53  1  0
M  CHG  1   9   1
M  END
>  <score>  (4) 
-8.085

$$$$
=
     RDKit          3D

 53 57  0  0  0  0  0  0  0  0999 V2000
    3.9060   62.1080   70.9540 C   0  0  1  0  0  0  0  0  0  0  0  0
    3.2430   63.0020   69.8890 C   0  0  2  0  0  0  0  0  0  0  0  0
    2.6680   64.2630   70.5370 C   0  0  0  0  0  0  0  0  0  0  0  0
    1.6610   63.9190   71.6370 C   0  0  0  0  0  0  0  0  0  0  0  0
    2.2630   62.9730   72.6840 C   0  0  2  0  0  0  0  0  0  0  0  0
    2.8750   61.7020   72.0410 C   0  0  2  0  0  0  0  0  0  0  0  0
    3.4620   60.8050   73.1490 C   0  0  0  0  0  0  0  0  0  0  0  0
    2.4170   60.4550   74.2140 C   0  0  2  0  0  0  0  0  0  0  0  0
    1.8550   61.7520   74.7870 N   0  0  1  0  0  4  0  0  0  0  0  0
    1.2130   62.6100   73.7370 C   0  0  0  0  0  0  0  0  0  0  0  0
    0.9290   61.4810   75.9780 C   0  0  0  0  0  0  0  0  0  0  0  0
    1.7200   60.8780   77.1560 C   0  0  0  0  0  0  0  0  0  0  0  0
    2.6490   59.8160   76.6800 C   0  0  0  0  0  0  0  0  0  0  0  0
    2.9640   59.6540   75.3430 C   0  0  0  0  0  0  0  0  0  0  0  0
    3.8330   58.5970   75.2410 N   0  0  0  0  0  0  0  0  0  0  0  0
    4.1000   58.0910   76.4940 C   0  0  0  0  0  0  0  0  0  0  0  0
    3.3660   58.8380   77.4180 C   0  0  0  0  0  0  0  0  0  0  0  0
    3.4670   58.5130   78.7860 C   0  0  0  0  0  0  0  0  0  0  0  0
    4.2930   57.4550   79.1790 C   0  0  0  0  0  0  0  0  0  0  0  0
    5.0140   56.7270   78.2360 C   0  0  0  0  0  0  0  0  0  0  0  0
    4.9300   57.0300   76.8730 C   0  0  0  0  0  0  0  0  0  0  0  0
    4.6330   60.9120   70.3510 C   0  0  0  0  0  0  0  0  0  0  0  0
    5.7650   60.5920   70.6960 O   0  0  0  0  0  0  0  0  0  0  0  0
    3.4710   58.9310   69.8840 C   0  0  0  0  0  0  0  0  0  0  0  0
    3.8800   60.2320   69.4490 O   0  0  0  0  0  0  0  0  0  0  0  0
    2.1470   62.3200   69.2780 O   0  0  0  0  0  0  0  0  0  0  0  0
    4.6914   62.7006   71.4458 H   0  0  0  0  0  0  0  0  0  0  0  0
    4.0138   63.2547   69.1460 H   0  0  0  0  0  0  0  0  0  0  0  0
    3.4909   64.8466   70.9755 H   0  0  0  0  0  0  0  0  0  0  0  0
    2.1468   64.8429   69.7610 H   0  0  0  0  0  0  0  0  0  0  0  0
    1.3466   64.8479   72.1352 H   0  0  0  0  0  0  0  0  0  0  0  0
    0.8040   63.4116   71.1699 H   0  0  0  0  0  0  0  0  0  0  0  0
    3.0890   63.5051   73.1786 H   0  0  0  0  0  0  0  0  0  0  0  0
    2.1037   61.1094   71.5272 H   0  0  0  0  0  0  0  0  0  0  0  0
    3.8320   59.8742   72.6943 H   0  0  0  0  0  0  0  0  0  0  0  0
    4.2768   61.3578   73.6394 H   0  0  0  0  0  0  0  0  0  0  0  0
    1.6481   59.8445   73.7179 H   0  0  0  0  0  0  0  0  0  0  0  0
    2.6513   62.2983   75.1452 H   0  0  0  0  0  0  0  0  0  0  0  0
    0.3889   62.0577   73.2618 H   0  0  0  0  0  0  0  0  0  0  0  0
    0.8138   63.5261   74.1968 H   0  0  0  0  0  0  0  0  0  0  0  0
    0.4674   62.4264   76.2991 H   0  0  0  0  0  0  0  0  0  0  0  0
    0.1542   60.7643   75.6681 H   0  0  0  0  0  0  0  0  0  0  0  0
    2.3016   61.6735   77.6448 H   0  0  0  0  0  0  0  0  0  0  0  0
    1.0089   60.4320   77.8669 H   0  0  0  0  0  0  0  0  0  0  0  0
    4.2264   58.2363   74.3601 H   0  0  0  0  0  0  0  0  0  0  0  0
    2.9021   59.0855   79.5365 H   0  0  0  0  0  0  0  0  0  0  0  0
    4.3740   57.1951   80.2448 H   0  0  0  0  0  0  0  0  0  0  0  0
    5.6597   55.9007   78.5681 H   0  0  0  0  0  0  0  0  0  0  0  0
    5.4962   56.4547   76.1257 H   0  0  0  0  0  0  0  0  0  0  0  0
    3.4608   58.8984   70.9835 H   0  0  0  0  0  0  0  0  0  0  0  0
    2.4622   58.7168   69.5014 H   0  0  0  0  0  0  0  0  0  0  0  0
    4.1758   58.1781   69.5014 H   0  0  0  0  0  0  0  0  0  0  0  0
    1.5547   61.9514   69.9805 H   0  0  0  0  0  0  0  0  0  0  0  0
  2  1  1  0
  3  2  1  0
  4  3  1  0
  5  4  1  0
  6  1  1  0
  6  5  1  0
  7  6  1  0
  8  7  1  0
  9  8  1  0
 10  9  1  0
 10  5  1  0
 11  9  1  0
 12 11  1  0
 13 12  1  0
 14 13  2  0
 14  8  1  0
 15 14  1  0
 16 15  1  0
 17 16  2  0
 17 13  1  0
 18 17  1  0
 19 18  2  0
 20 19  1  0
 21 20  2  0
 21 16  1  0
 22  1  1  0
 23 22  2  0
 25 22  1  0
 25 24  1  0
 26  2  1  0
  1 27  1  1
  2 28  1  6
  3 29  1  0
  3 30  1  0
  4 31  1  0
  4 32  1  0
  5 33  1  1
  6 34  1  6
  7 35  1  0
  7 36  1  0
  8 37  1  6
  9 38  1  1
 10 39  1  0
 10 40  1  0
 11 41  1  0
 11 42  1  0
 12 43  1  0
 12 44  1  0
 15 45  1  0
 18 46  1  0
 19 47  1  0
 20 48  1  0
 21 49  1  0
 24 50  1  0
 24 51  1  0
 24 52  1  0
 26 53  1  0
M  CHG  1   9   1
M  END
>  <score>  (5) 
-8.043

$$$$
=
     RDKit          3D

 53 57  0  0  0  0  0  0  0  0999 V2000
    0.4900   55.8350   74.7580 C   0  0  1  0  0  0  0  0  0  0  0  0
   -0.5060   55.0600   75.6400 C   0  0  2  0  0  0  0  0  0  0  0  0
   -1.9400   55.3240   75.1800 C   0  0  0  0  0  0  0  0  0  0  0  0
   -2.2700   56.8180   75.2010 C   0  0  0  0  0  0  0  0  0  0  0  0
   -1.2590   57.6350   74.3870 C   0  0  2  0  0  0  0  0  0  0  0  0
    0.2030   57.3590   74.8240 C   0  0  2  0  0  0  0  0  0  0  0  0
    1.1590   58.2090   73.9630 C   0  0  0  0  0  0  0  0  0  0  0  0
    0.8180   59.7010   74.0340 C   0  0  2  0  0  0  0  0  0  0  0  0
   -0.6330   59.8880   73.6040 N   0  0  1  0  0  4  0  0  0  0  0  0
   -1.5900   59.1270   74.4750 C   0  0  0  0  0  0  0  0  0  0  0  0
   -0.9940   61.3740   73.4870 C   0  0  0  0  0  0  0  0  0  0  0  0
   -0.1910   62.0390   72.3510 C   0  0  0  0  0  0  0  0  0  0  0  0
    1.2380   61.6220   72.3990 C   0  0  0  0  0  0  0  0  0  0  0  0
    1.6700   60.5470   73.1550 C   0  0  0  0  0  0  0  0  0  0  0  0
    3.0260   60.4320   72.9850 N   0  0  0  0  0  0  0  0  0  0  0  0
    3.4700   61.4020   72.1130 C   0  0  0  0  0  0  0  0  0  0  0  0
    2.3650   62.1660   71.7300 C   0  0  0  0  0  0  0  0  0  0  0  0
    2.5590   63.2350   70.8320 C   0  0  0  0  0  0  0  0  0  0  0  0
    3.8460   63.5010   70.3520 C   0  0  0  0  0  0  0  0  0  0  0  0
    4.9290   62.7230   70.7510 C   0  0  0  0  0  0  0  0  0  0  0  0
    4.7630   61.6580   71.6410 C   0  0  0  0  0  0  0  0  0  0  0  0
    1.9430   55.4930   75.0680 C   0  0  0  0  0  0  0  0  0  0  0  0
    2.6500   54.8670   74.2860 O   0  0  0  0  0  0  0  0  0  0  0  0
    3.6090   56.7000   76.1920 C   0  0  0  0  0  0  0  0  0  0  0  0
    2.3650   55.9930   76.2570 O   0  0  0  0  0  0  0  0  0  0  0  0
   -0.4230   55.5050   76.9960 O   0  0  0  0  0  0  0  0  0  0  0  0
    0.3359   55.5121   73.7178 H   0  0  0  0  0  0  0  0  0  0  0  0
   -0.2541   53.9923   75.5591 H   0  0  0  0  0  0  0  0  0  0  0  0
   -2.0617   54.9455   74.1544 H   0  0  0  0  0  0  0  0  0  0  0  0
   -2.6241   54.8099   75.8711 H   0  0  0  0  0  0  0  0  0  0  0  0
   -3.2734   56.9672   74.7757 H   0  0  0  0  0  0  0  0  0  0  0  0
   -2.2281   57.1632   76.2446 H   0  0  0  0  0  0  0  0  0  0  0  0
   -1.3403   57.3165   73.3373 H   0  0  0  0  0  0  0  0  0  0  0  0
    0.3664   57.6583   75.8698 H   0  0  0  0  0  0  0  0  0  0  0  0
    2.1879   58.0618   74.3232 H   0  0  0  0  0  0  0  0  0  0  0  0
    1.0549   57.8849   72.9170 H   0  0  0  0  0  0  0  0  0  0  0  0
    0.9946   60.0202   75.0718 H   0  0  0  0  0  0  0  0  0  0  0  0
   -0.7273   59.4814   72.6624 H   0  0  0  0  0  0  0  0  0  0  0  0
   -1.4916   59.4665   75.5167 H   0  0  0  0  0  0  0  0  0  0  0  0
   -2.6221   59.3011   74.1366 H   0  0  0  0  0  0  0  0  0  0  0  0
   -2.0689   61.4693   73.2738 H   0  0  0  0  0  0  0  0  0  0  0  0
   -0.7486   61.8746   74.4353 H   0  0  0  0  0  0  0  0  0  0  0  0
   -0.6212   61.7415   71.3833 H   0  0  0  0  0  0  0  0  0  0  0  0
   -0.2440   63.1308   72.4742 H   0  0  0  0  0  0  0  0  0  0  0  0
    3.6226   59.7267   73.4406 H   0  0  0  0  0  0  0  0  0  0  0  0
    1.7076   63.8536   70.5120 H   0  0  0  0  0  0  0  0  0  0  0  0
    4.0037   64.3343   69.6515 H   0  0  0  0  0  0  0  0  0  0  0  0
    5.9317   62.9499   70.3596 H   0  0  0  0  0  0  0  0  0  0  0  0
    5.6177   61.0430   71.9592 H   0  0  0  0  0  0  0  0  0  0  0  0
    3.9684   56.9042   77.2114 H   0  0  0  0  0  0  0  0  0  0  0  0
    4.3508   56.0885   75.6573 H   0  0  0  0  0  0  0  0  0  0  0  0
    3.4632   57.6502   75.6573 H   0  0  0  0  0  0  0  0  0  0  0  0
   -0.5662   54.7374   77.6046 H   0  0  0  0  0  0  0  0  0  0  0  0
  2  1  1  0
  3  2  1  0
  4  3  1  0
  5  4  1  0
  6  1  1  0
  6  5  1  0
  7  6  1  0
  8  7  1  0
  9  8  1  0
 10  9  1  0
 10  5  1  0
 11  9  1  0
 12 11  1  0
 13 12  1  0
 14 13  2  0
 14  8  1  0
 15 14  1  0
 16 15  1  0
 17 16  2  0
 17 13  1  0
 18 17  1  0
 19 18  2  0
 20 19  1  0
 21 20  2  0
 21 16  1  0
 22  1  1  0
 23 22  2  0
 25 22  1  0
 25 24  1  0
 26  2  1  0
  1 27  1  6
  2 28  1  1
  3 29  1  0
  3 30  1  0
  4 31  1  0
  4 32  1  0
  5 33  1  6
  6 34  1  1
  7 35  1  0
  7 36  1  0
  8 37  1  1
  9 38  1  6
 10 39  1  0
 10 40  1  0
 11 41  1  0
 11 42  1  0
 12 43  1  0
 12 44  1  0
 15 45  1  0
 18 46  1  0
 19 47  1  0
 20 48  1  0
 21 49  1  0
 24 50  1  0
 24 51  1  0
 24 52  1  0
 26 53  1  0
M  CHG  1   9   1
M  END
>  <score>  (6) 
-7.9

$$$$
=
     RDKit          3D

 53 57  0  0  0  0  0  0  0  0999 V2000
    3.6030   60.9550   70.8710 C   0  0  1  0  0  0  0  0  0  0  0  0
    4.0670   62.0800   69.9280 C   0  0  2  0  0  0  0  0  0  0  0  0
    3.9950   63.4330   70.6390 C   0  0  0  0  0  0  0  0  0  0  0  0
    2.5830   63.7240   71.1510 C   0  0  0  0  0  0  0  0  0  0  0  0
    2.0570   62.5910   72.0420 C   0  0  2  0  0  0  0  0  0  0  0  0
    2.1480   61.2090   71.3450 C   0  0  2  0  0  0  0  0  0  0  0  0
    1.6070   60.1250   72.2990 C   0  0  0  0  0  0  0  0  0  0  0  0
    0.1800   60.4330   72.7640 C   0  0  2  0  0  0  0  0  0  0  0  0
    0.1710   61.8070   73.4240 N   0  0  1  0  0  4  0  0  0  0  0  0
    0.6250   62.8920   72.4910 C   0  0  0  0  0  0  0  0  0  0  0  0
   -1.1880   62.1100   74.0660 C   0  0  0  0  0  0  0  0  0  0  0  0
   -1.4610   61.1450   75.2380 C   0  0  0  0  0  0  0  0  0  0  0  0
   -1.1100   59.7470   74.8640 C   0  0  0  0  0  0  0  0  0  0  0  0
   -0.3500   59.4490   73.7470 C   0  0  0  0  0  0  0  0  0  0  0  0
   -0.2120   58.0850   73.6860 N   0  0  0  0  0  0  0  0  0  0  0  0
   -0.8520   57.5030   74.7580 C   0  0  0  0  0  0  0  0  0  0  0  0
   -1.4270   58.5260   75.5140 C   0  0  0  0  0  0  0  0  0  0  0  0
   -2.1490   58.1860   76.6760 C   0  0  0  0  0  0  0  0  0  0  0  0
   -2.2690   56.8400   77.0380 C   0  0  0  0  0  0  0  0  0  0  0  0
   -1.6840   55.8400   76.2650 C   0  0  0  0  0  0  0  0  0  0  0  0
   -0.9640   56.1520   75.1080 C   0  0  0  0  0  0  0  0  0  0  0  0
    3.7970   59.5670   70.2740 C   0  0  0  0  0  0  0  0  0  0  0  0
    3.7860   59.3670   69.0640 O   0  0  0  0  0  0  0  0  0  0  0  0
    3.3740   57.3640   70.9560 C   0  0  0  0  0  0  0  0  0  0  0  0
    4.0280   58.6120   71.2110 O   0  0  0  0  0  0  0  0  0  0  0  0
    3.2020   62.1690   68.7940 O   0  0  0  0  0  0  0  0  0  0  0  0
    4.2507   60.9762   71.7598 H   0  0  0  0  0  0  0  0  0  0  0  0
    5.0974   61.8469   69.6216 H   0  0  0  0  0  0  0  0  0  0  0  0
    4.6898   63.4259   71.4917 H   0  0  0  0  0  0  0  0  0  0  0  0
    4.2682   64.2167   69.9171 H   0  0  0  0  0  0  0  0  0  0  0  0
    2.6004   64.6568   71.7338 H   0  0  0  0  0  0  0  0  0  0  0  0
    1.9152   63.8144   70.2816 H   0  0  0  0  0  0  0  0  0  0  0  0
    2.7018   62.5382   72.9317 H   0  0  0  0  0  0  0  0  0  0  0  0
    1.5217   61.1798   70.4412 H   0  0  0  0  0  0  0  0  0  0  0  0
    1.6094   59.1575   71.7756 H   0  0  0  0  0  0  0  0  0  0  0  0
    2.2561   60.0976   73.1866 H   0  0  0  0  0  0  0  0  0  0  0  0
   -0.4627   60.3887   71.8724 H   0  0  0  0  0  0  0  0  0  0  0  0
    0.8638   61.7843   74.1859 H   0  0  0  0  0  0  0  0  0  0  0  0
   -0.0378   62.9262   71.6138 H   0  0  0  0  0  0  0  0  0  0  0  0
    0.5915   63.8641   73.0047 H   0  0  0  0  0  0  0  0  0  0  0  0
   -1.1882   63.1440   74.4413 H   0  0  0  0  0  0  0  0  0  0  0  0
   -1.9752   61.9804   73.3087 H   0  0  0  0  0  0  0  0  0  0  0  0
   -0.8556   61.4494   76.1045 H   0  0  0  0  0  0  0  0  0  0  0  0
   -2.5319   61.1855   75.4862 H   0  0  0  0  0  0  0  0  0  0  0  0
    0.2941   57.5732   72.9492 H   0  0  0  0  0  0  0  0  0  0  0  0
   -2.6131   58.9707   77.2916 H   0  0  0  0  0  0  0  0  0  0  0  0
   -2.8317   56.5684   77.9433 H   0  0  0  0  0  0  0  0  0  0  0  0
   -1.7901   54.7884   76.5696 H   0  0  0  0  0  0  0  0  0  0  0  0
   -0.5021   55.3643   74.4946 H   0  0  0  0  0  0  0  0  0  0  0  0
    3.1208   56.8808   71.9112 H   0  0  0  0  0  0  0  0  0  0  0  0
    2.4539   57.5431   70.3804 H   0  0  0  0  0  0  0  0  0  0  0  0
    4.0449   56.7093   70.3804 H   0  0  0  0  0  0  0  0  0  0  0  0
    2.2655   62.2654   69.1001 H   0  0  0  0  0  0  0  0  0  0  0  0
  2  1  1  0
  3  2  1  0
  4  3  1  0
  5  4  1  0
  6  1  1  0
  6  5  1  0
  7  6  1  0
  8  7  1  0
  9  8  1  0
 10  9  1  0
 10  5  1  0
 11  9  1  0
 12 11  1  0
 13 12  1  0
 14 13  2  0
 14  8  1  0
 15 14  1  0
 16 15  1  0
 17 16  2  0
 17 13  1  0
 18 17  1  0
 19 18  2  0
 20 19  1  0
 21 20  2  0
 21 16  1  0
 22  1  1  0
 23 22  2  0
 25 22  1  0
 25 24  1  0
 26  2  1  0
  1 27  1  1
  2 28  1  6
  3 29  1  0
  3 30  1  0
  4 31  1  0
  4 32  1  0
  5 33  1  1
  6 34  1  6
  7 35  1  0
  7 36  1  0
  8 37  1  6
  9 38  1  1
 10 39  1  0
 10 40  1  0
 11 41  1  0
 11 42  1  0
 12 43  1  0
 12 44  1  0
 15 45  1  0
 18 46  1  0
 19 47  1  0
 20 48  1  0
 21 49  1  0
 24 50  1  0
 24 51  1  0
 24 52  1  0
 26 53  1  0
M  CHG  1   9   1
M  END
>  <score>  (7) 
-7.379

$$$$
=
     RDKit          3D

 53 57  0  0  0  0  0  0  0  0999 V2000
    1.4040   58.3780   77.0380 C   0  0  1  0  0  0  0  0  0  0  0  0
    0.9750   57.1510   77.8630 C   0  0  2  0  0  0  0  0  0  0  0  0
    1.8720   55.9540   77.5390 C   0  0  0  0  0  0  0  0  0  0  0  0
    1.8450   55.6210   76.0460 C   0  0  0  0  0  0  0  0  0  0  0  0
    2.2010   56.8390   75.1850 C   0  0  2  0  0  0  0  0  0  0  0  0
    1.3190   58.0690   75.5190 C   0  0  2  0  0  0  0  0  0  0  0  0
    1.7350   59.2510   74.6210 C   0  0  0  0  0  0  0  0  0  0  0  0
    1.6650   58.8900   73.1330 C   0  0  2  0  0  0  0  0  0  0  0  0
    2.5440   57.6690   72.8880 N   0  0  1  0  0  4  0  0  0  0  0  0
    2.1120   56.4820   73.6990 C   0  0  0  0  0  0  0  0  0  0  0  0
    2.6570   57.3530   71.3920 C   0  0  0  0  0  0  0  0  0  0  0  0
    3.3980   58.4860   70.6530 C   0  0  0  0  0  0  0  0  0  0  0  0
    2.9030   59.8190   71.0970 C   0  0  0  0  0  0  0  0  0  0  0  0
    2.1330   59.9810   72.2350 C   0  0  0  0  0  0  0  0  0  0  0  0
    1.8430   61.3160   72.3590 N   0  0  0  0  0  0  0  0  0  0  0  0
    2.4330   62.0190   71.3320 C   0  0  0  0  0  0  0  0  0  0  0  0
    3.1060   61.1010   70.5220 C   0  0  0  0  0  0  0  0  0  0  0  0
    3.7970   61.5750   69.3890 C   0  0  0  0  0  0  0  0  0  0  0  0
    3.7900   62.9460   69.1070 C   0  0  0  0  0  0  0  0  0  0  0  0
    3.1110   63.8380   69.9330 C   0  0  0  0  0  0  0  0  0  0  0  0
    2.4180   63.3920   71.0620 C   0  0  0  0  0  0  0  0  0  0  0  0
    0.6500   59.6440   77.4280 C   0  0  0  0  0  0  0  0  0  0  0  0
   -0.5750   59.6890   77.4710 O   0  0  0  0  0  0  0  0  0  0  0  0
    2.7940   60.2720   78.1360 C   0  0  0  0  0  0  0  0  0  0  0  0
    1.4710   60.6720   77.7610 O   0  0  0  0  0  0  0  0  0  0  0  0
   -0.3580   56.7650   77.5260 O   0  0  0  0  0  0  0  0  0  0  0  0
    2.4572   58.5885   77.2755 H   0  0  0  0  0  0  0  0  0  0  0  0
    1.0492   57.4268   78.9253 H   0  0  0  0  0  0  0  0  0  0  0  0
    2.9049   56.1912   77.8337 H   0  0  0  0  0  0  0  0  0  0  0  0
    1.4970   55.0815   78.0941 H   0  0  0  0  0  0  0  0  0  0  0  0
    2.5714   54.8194   75.8467 H   0  0  0  0  0  0  0  0  0  0  0  0
    0.8247   55.3036   75.7846 H   0  0  0  0  0  0  0  0  0  0  0  0
    3.2381   57.1213   75.4188 H   0  0  0  0  0  0  0  0  0  0  0  0
    0.2595   57.8648   75.3050 H   0  0  0  0  0  0  0  0  0  0  0  0
    1.0607   60.0985   74.8135 H   0  0  0  0  0  0  0  0  0  0  0  0
    2.7767   59.5110   74.8603 H   0  0  0  0  0  0  0  0  0  0  0  0
    0.6069   58.7009   72.8994 H   0  0  0  0  0  0  0  0  0  0  0  0
    3.4914   57.9036   73.2172 H   0  0  0  0  0  0  0  0  0  0  0  0
    1.0751   56.2180   73.4440 H   0  0  0  0  0  0  0  0  0  0  0  0
    2.7651   55.6240   73.4817 H   0  0  0  0  0  0  0  0  0  0  0  0
    3.2126   56.4126   71.2620 H   0  0  0  0  0  0  0  0  0  0  0  0
    1.6448   57.2578   70.9719 H   0  0  0  0  0  0  0  0  0  0  0  0
    4.4746   58.4118   70.8660 H   0  0  0  0  0  0  0  0  0  0  0  0
    3.2134   58.3828   69.5735 H   0  0  0  0  0  0  0  0  0  0  0  0
    1.2700   61.7305   73.1078 H   0  0  0  0  0  0  0  0  0  0  0  0
    4.3360   60.8752   68.7334 H   0  0  0  0  0  0  0  0  0  0  0  0
    4.3265   63.3227   68.2237 H   0  0  0  0  0  0  0  0  0  0  0  0
    3.1201   64.9115   69.6930 H   0  0  0  0  0  0  0  0  0  0  0  0
    1.8801   64.0951   71.7149 H   0  0  0  0  0  0  0  0  0  0  0  0
    2.8728   60.2482   79.2329 H   0  0  0  0  0  0  0  0  0  0  0  0
    3.0028   59.2706   77.7316 H   0  0  0  0  0  0  0  0  0  0  0  0
    3.5226   60.9900   77.7316 H   0  0  0  0  0  0  0  0  0  0  0  0
   -0.8776   56.6145   78.3551 H   0  0  0  0  0  0  0  0  0  0  0  0
  2  1  1  0
  3  2  1  0
  4  3  1  0
  5  4  1  0
  6  1  1  0
  6  5  1  0
  7  6  1  0
  8  7  1  0
  9  8  1  0
 10  9  1  0
 10  5  1  0
 11  9  1  0
 12 11  1  0
 13 12  1  0
 14 13  2  0
 14  8  1  0
 15 14  1  0
 16 15  1  0
 17 16  2  0
 17 13  1  0
 18 17  1  0
 19 18  2  0
 20 19  1  0
 21 20  2  0
 21 16  1  0
 22  1  1  0
 23 22  2  0
 25 22  1  0
 25 24  1  0
 26  2  1  0
  1 27  1  1
  2 28  1  1
  3 29  1  0
  3 30  1  0
  4 31  1  0
  4 32  1  0
  5 33  1  1
  6 34  1  6
  7 35  1  0
  7 36  1  0
  8 37  1  6
  9 38  1  1
 10 39  1  0
 10 40  1  0
 11 41  1  0
 11 42  1  0
 12 43  1  0
 12 44  1  0
 15 45  1  0
 18 46  1  0
 19 47  1  0
 20 48  1  0
 21 49  1  0
 24 50  1  0
 24 51  1  0
 24 52  1  0
 26 53  1  0
M  CHG  1   9   1
M  END
>  <score>  (8) 
-7.371

$$$$
=
     RDKit          3D

 53 57  0  0  0  0  0  0  0  0999 V2000
   -0.8710   57.1350   74.8240 C   0  0  1  0  0  0  0  0  0  0  0  0
   -1.4330   56.6110   76.1590 C   0  0  2  0  0  0  0  0  0  0  0  0
   -2.3110   57.6750   76.8200 C   0  0  0  0  0  0  0  0  0  0  0  0
   -1.5400   58.9770   77.0470 C   0  0  0  0  0  0  0  0  0  0  0  0
   -0.9070   59.4970   75.7500 C   0  0  2  0  0  0  0  0  0  0  0  0
   -0.0340   58.4220   75.0540 C   0  0  2  0  0  0  0  0  0  0  0  0
    0.5630   59.0130   73.7610 C   0  0  0  0  0  0  0  0  0  0  0  0
    1.3540   60.2960   74.0320 C   0  0  2  0  0  0  0  0  0  0  0  0
    0.4350   61.2950   74.7270 N   0  0  1  0  0  4  0  0  0  0  0  0
   -0.1020   60.7690   76.0260 C   0  0  0  0  0  0  0  0  0  0  0  0
    1.1090   62.6640   74.8760 C   0  0  0  0  0  0  0  0  0  0  0  0
    1.3560   63.3020   73.4940 C   0  0  0  0  0  0  0  0  0  0  0  0
    1.9100   62.3000   72.5420 C   0  0  0  0  0  0  0  0  0  0  0  0
    1.8830   60.9410   72.7980 C   0  0  0  0  0  0  0  0  0  0  0  0
    2.4690   60.3010   71.7360 N   0  0  0  0  0  0  0  0  0  0  0  0
    2.8520   61.2250   70.7890 C   0  0  0  0  0  0  0  0  0  0  0  0
    2.5140   62.4910   71.2710 C   0  0  0  0  0  0  0  0  0  0  0  0
    2.8080   63.6190   70.4790 C   0  0  0  0  0  0  0  0  0  0  0  0
    3.4270   63.4410   69.2380 C   0  0  0  0  0  0  0  0  0  0  0  0
    3.7540   62.1660   68.7820 C   0  0  0  0  0  0  0  0  0  0  0  0
    3.4730   61.0320   69.5490 C   0  0  0  0  0  0  0  0  0  0  0  0
   -0.1140   56.0680   74.0430 C   0  0  0  0  0  0  0  0  0  0  0  0
   -0.4860   55.6730   72.9430 O   0  0  0  0  0  0  0  0  0  0  0  0
    1.7220   54.6120   73.9840 C   0  0  0  0  0  0  0  0  0  0  0  0
    1.0170   55.6530   74.6680 O   0  0  0  0  0  0  0  0  0  0  0  0
   -0.3690   56.3350   77.0720 O   0  0  0  0  0  0  0  0  0  0  0  0
   -1.7250   57.4040   74.1849 H   0  0  0  0  0  0  0  0  0  0  0  0
   -2.0110   55.7015   75.9384 H   0  0  0  0  0  0  0  0  0  0  0  0
   -3.1746   57.8797   76.1702 H   0  0  0  0  0  0  0  0  0  0  0  0
   -2.6385   57.2930   77.7982 H   0  0  0  0  0  0  0  0  0  0  0  0
   -2.2328   59.7381   77.4353 H   0  0  0  0  0  0  0  0  0  0  0  0
   -0.7317   58.7753   77.7653 H   0  0  0  0  0  0  0  0  0  0  0  0
   -1.7235   59.7400   75.0541 H   0  0  0  0  0  0  0  0  0  0  0  0
    0.8134   58.1284   75.6910 H   0  0  0  0  0  0  0  0  0  0  0  0
    1.2353   58.2698   73.3075 H   0  0  0  0  0  0  0  0  0  0  0  0
   -0.2678   59.2611   73.0841 H   0  0  0  0  0  0  0  0  0  0  0  0
    2.2169   60.0133   74.6528 H   0  0  0  0  0  0  0  0  0  0  0  0
   -0.3855   61.4300   74.1192 H   0  0  0  0  0  0  0  0  0  0  0  0
    0.7326   60.5381   76.7043 H   0  0  0  0  0  0  0  0  0  0  0  0
   -0.7484   61.5249   76.4958 H   0  0  0  0  0  0  0  0  0  0  0  0
    0.4583   63.3246   75.4678 H   0  0  0  0  0  0  0  0  0  0  0  0
    2.0765   62.5292   75.3818 H   0  0  0  0  0  0  0  0  0  0  0  0
    0.4044   63.6873   73.0991 H   0  0  0  0  0  0  0  0  0  0  0  0
    2.0821   64.1205   73.6075 H   0  0  0  0  0  0  0  0  0  0  0  0
    2.6026   59.2827   71.6582 H   0  0  0  0  0  0  0  0  0  0  0  0
    2.5532   64.6287   70.8334 H   0  0  0  0  0  0  0  0  0  0  0  0
    3.6583   64.3175   68.6149 H   0  0  0  0  0  0  0  0  0  0  0  0
    4.2412   62.0499   67.8026 H   0  0  0  0  0  0  0  0  0  0  0  0
    3.7304   60.0241   69.1914 H   0  0  0  0  0  0  0  0  0  0  0  0
    2.1805   53.9350   74.7198 H   0  0  0  0  0  0  0  0  0  0  0  0
    1.0200   54.0469   73.3533 H   0  0  0  0  0  0  0  0  0  0  0  0
    2.5073   55.0541   73.3533 H   0  0  0  0  0  0  0  0  0  0  0  0
   -0.7005   56.4210   78.0009 H   0  0  0  0  0  0  0  0  0  0  0  0
  2  1  1  0
  3  2  1  0
  4  3  1  0
  5  4  1  0
  6  1  1  0
  6  5  1  0
  7  6  1  0
  8  7  1  0
  9  8  1  0
 10  9  1  0
 10  5  1  0
 11  9  1  0
 12 11  1  0
 13 12  1  0
 14 13  2  0
 14  8  1  0
 15 14  1  0
 16 15  1  0
 17 16  2  0
 17 13  1  0
 18 17  1  0
 19 18  2  0
 20 19  1  0
 21 20  2  0
 21 16  1  0
 22  1  1  0
 23 22  2  0
 25 22  1  0
 25 24  1  0
 26  2  1  0
  1 27  1  6
  2 28  1  6
  3 29  1  0
  3 30  1  0
  4 31  1  0
  4 32  1  0
  5 33  1  6
  6 34  1  1
  7 35  1  0
  7 36  1  0
  8 37  1  1
  9 38  1  6
 10 39  1  0
 10 40  1  0
 11 41  1  0
 11 42  1  0
 12 43  1  0
 12 44  1  0
 15 45  1  0
 18 46  1  0
 19 47  1  0
 20 48  1  0
 21 49  1  0
 24 50  1  0
 24 51  1  0
 24 52  1  0
 26 53  1  0
M  CHG  1   9   1
M  END
>  <score>  (9) 
-7.256

$$$$
