=
     RDKit          3D

 62 64  0  0  0  0  0  0  0  0999 V2000
    0.9380   68.7070   64.8950 C   0  0  0  0  0  0  0  0  0  0  0  0
    0.9070   68.3470   63.5430 C   0  0  0  0  0  0  0  0  0  0  0  0
    2.0740   68.3140   62.7730 C   0  0  0  0  0  0  0  0  0  0  0  0
    3.3110   68.6860   63.3110 C   0  0  0  0  0  0  0  0  0  0  0  0
    3.3610   69.0590   64.6820 C   0  0  0  0  0  0  0  0  0  0  0  0
    2.1900   69.0790   65.4600 C   0  0  0  0  0  0  0  0  0  0  0  0
    2.2790   69.4590   66.8950 C   0  0  0  0  0  0  0  0  0  0  0  0
    1.2720   69.4260   67.6030 O   0  0  0  0  0  0  0  0  0  0  0  0
    3.5640   69.8640   67.4920 C   0  0  0  0  0  0  0  0  0  0  0  0
    4.7200   69.8650   66.7150 C   0  0  0  0  0  0  0  0  0  0  0  0
    4.6520   69.4610   65.3000 C   0  0  0  0  0  0  0  0  0  0  0  0
    5.6820   69.4710   64.6210 O   0  0  0  0  0  0  0  0  0  0  0  0
    5.9400   70.2520   67.2930 C   0  0  0  0  0  0  0  0  0  0  0  0
    6.0060   70.6330   68.6300 C   0  0  0  0  0  0  0  0  0  0  0  0
    4.8510   70.6310   69.4070 C   0  0  0  0  0  0  0  0  0  0  0  0
    3.6380   70.2470   68.8410 C   0  0  0  0  0  0  0  0  0  0  0  0
    7.1220   70.2840   66.6050 O   0  0  0  0  0  0  0  0  0  0  0  0
    4.4870   68.5780   62.5150 N   0  0  0  0  0  0  0  0  0  0  0  0
    4.8730   67.2030   62.1160 C   0  0  0  0  0  0  0  0  0  0  0  0
    4.8530   66.2930   63.3650 C   0  0  0  0  0  0  0  0  0  0  0  0
    4.5360   64.8780   62.9640 N   0  0  0  0  0  4  0  0  0  0  0  0
    4.4930   63.8580   64.0540 C   0  0  0  0  0  0  0  0  0  0  0  0
    3.4500   64.1940   65.1220 C   0  0  0  0  0  0  0  0  0  0  0  0
    3.7630   63.4710   66.2990 O   0  0  0  0  0  0  0  0  0  0  0  0
    2.5550   70.2720   69.6760 O   0  0  0  0  0  0  0  0  0  0  0  0
   -0.2770   68.8040   65.6350 N   0  0  0  0  0  0  0  0  0  0  0  0
   -1.5190   68.8140   64.8250 C   0  0  0  0  0  0  0  0  0  0  0  0
   -2.7220   68.7930   65.7940 C   0  0  0  0  0  0  0  0  0  0  0  0
   -2.2160   68.4770   67.1790 N   0  0  0  0  0  4  0  0  0  0  0  0
   -2.2920   67.0520   67.6120 C   0  0  0  0  0  0  0  0  0  0  0  0
   -1.0850   66.6360   68.4540 C   0  0  0  0  0  0  0  0  0  0  0  0
    0.0850   66.7870   67.6650 O   0  0  0  0  0  0  0  0  0  0  0  0
   -0.0542   68.0848   63.0768 H   0  0  0  0  0  0  0  0  0  0  0  0
    2.0184   67.9891   61.7235 H   0  0  0  0  0  0  0  0  0  0  0  0
    6.9675   70.9346   69.0711 H   0  0  0  0  0  0  0  0  0  0  0  0
    4.8963   70.9316   70.4642 H   0  0  0  0  0  0  0  0  0  0  0  0
    7.9536   70.5653   67.0626 H   0  0  0  0  0  0  0  0  0  0  0  0
    5.0352   69.4035   62.2340 H   0  0  0  0  0  0  0  0  0  0  0  0
    4.1602   66.8215   61.3701 H   0  0  0  0  0  0  0  0  0  0  0  0
    5.8823   67.2122   61.6787 H   0  0  0  0  0  0  0  0  0  0  0  0
    5.8386   66.3216   63.8527 H   0  0  0  0  0  0  0  0  0  0  0  0
    4.0820   66.6527   64.0622 H   0  0  0  0  0  0  0  0  0  0  0  0
    3.6128   64.8839   62.5073 H   0  0  0  0  0  0  0  0  0  0  0  0
    5.3180   64.5899   62.3587 H   0  0  0  0  0  0  0  0  0  0  0  0
    4.2468   62.8803   63.6142 H   0  0  0  0  0  0  0  0  0  0  0  0
    5.4797   63.8425   64.5399 H   0  0  0  0  0  0  0  0  0  0  0  0
    3.4697   65.2733   65.3333 H   0  0  0  0  0  0  0  0  0  0  0  0
    2.4455   63.9199   64.7672 H   0  0  0  0  0  0  0  0  0  0  0  0
    3.5278   64.0144   67.0924 H   0  0  0  0  0  0  0  0  0  0  0  0
    1.6624   70.0107   69.3369 H   0  0  0  0  0  0  0  0  0  0  0  0
   -0.2910   68.8632   66.6632 H   0  0  0  0  0  0  0  0  0  0  0  0
   -1.5538   69.7230   64.2065 H   0  0  0  0  0  0  0  0  0  0  0  0
   -1.5486   67.9378   64.1606 H   0  0  0  0  0  0  0  0  0  0  0  0
   -3.2151   69.7763   65.7946 H   0  0  0  0  0  0  0  0  0  0  0  0
   -3.4489   68.0312   65.4756 H   0  0  0  0  0  0  0  0  0  0  0  0
   -1.2278   68.7641   67.2231 H   0  0  0  0  0  0  0  0  0  0  0  0
   -2.8418   68.9874   67.8183 H   0  0  0  0  0  0  0  0  0  0  0  0
   -3.2051   66.9120   68.2092 H   0  0  0  0  0  0  0  0  0  0  0  0
   -2.3034   66.4257   66.7078 H   0  0  0  0  0  0  0  0  0  0  0  0
   -1.0164   67.2755   69.3464 H   0  0  0  0  0  0  0  0  0  0  0  0
   -1.1913   65.5895   68.7759 H   0  0  0  0  0  0  0  0  0  0  0  0
    0.8717   66.8885   68.2574 H   0  0  0  0  0  0  0  0  0  0  0  0
  2  1  2  0
  3  2  1  0
  4  3  2  0
  5  4  1  0
  6  5  2  0
  6  1  1  0
  7  6  1  0
  8  7  2  0
  9  7  1  0
 10  9  2  0
 11  5  1  0
 11 10  1  0
 12 11  2  0
 13 10  1  0
 14 13  2  0
 15 14  1  0
 16 15  2  0
 16  9  1  0
 17 13  1  0
 18  4  1  0
 19 18  1  0
 20 19  1  0
 21 20  1  0
 22 21  1  0
 23 22  1  0
 24 23  1  0
 25 16  1  0
 26  1  1  0
 27 26  1  0
 28 27  1  0
 29 28  1  0
 30 29  1  0
 31 30  1  0
 32 31  1  0
  2 33  1  0
  3 34  1  0
 14 35  1  0
 15 36  1  0
 17 37  1  0
 18 38  1  0
 19 39  1  0
 19 40  1  0
 20 41  1  0
 20 42  1  0
 21 43  1  0
 21 44  1  0
 22 45  1  0
 22 46  1  0
 23 47  1  0
 23 48  1  0
 24 49  1  0
 25 50  1  0
 26 51  1  0
 27 52  1  0
 27 53  1  0
 28 54  1  0
 28 55  1  0
 29 56  1  0
 29 57  1  0
 30 58  1  0
 30 59  1  0
 31 60  1  0
 31 61  1  0
 32 62  1  0
M  CHG  2  21   1  29   1
M  END
>  <score>  (1) 
-9.654

$$$$
=
     RDKit          3D

 62 64  0  0  0  0  0  0  0  0999 V2000
    3.3030   68.7130   63.2820 C   0  0  0  0  0  0  0  0  0  0  0  0
    2.0680   68.3070   62.7640 C   0  0  0  0  0  0  0  0  0  0  0  0
    0.9150   68.3000   63.5550 C   0  0  0  0  0  0  0  0  0  0  0  0
    0.9600   68.6520   64.9100 C   0  0  0  0  0  0  0  0  0  0  0  0
    2.2070   69.0620   65.4540 C   0  0  0  0  0  0  0  0  0  0  0  0
    3.3640   69.0820   64.6550 C   0  0  0  0  0  0  0  0  0  0  0  0
    4.6500   69.5320   65.2520 C   0  0  0  0  0  0  0  0  0  0  0  0
    5.6580   69.6100   64.5490 O   0  0  0  0  0  0  0  0  0  0  0  0
    4.7340   69.9020   66.6760 C   0  0  0  0  0  0  0  0  0  0  0  0
    3.5920   69.8600   67.4720 C   0  0  0  0  0  0  0  0  0  0  0  0
    2.3050   69.4460   66.8870 C   0  0  0  0  0  0  0  0  0  0  0  0
    1.3030   69.4090   67.6040 O   0  0  0  0  0  0  0  0  0  0  0  0
    3.6840   70.2150   68.8270 C   0  0  0  0  0  0  0  0  0  0  0  0
    4.8990   70.6070   69.3820 C   0  0  0  0  0  0  0  0  0  0  0  0
    6.0400   70.6490   68.5850 C   0  0  0  0  0  0  0  0  0  0  0  0
    5.9570   70.3000   67.2400 C   0  0  0  0  0  0  0  0  0  0  0  0
    2.6150   70.2010   69.6820 O   0  0  0  0  0  0  0  0  0  0  0  0
   -0.2450   68.6940   65.6670 N   0  0  0  0  0  0  0  0  0  0  0  0
   -1.4820   68.9750   64.8980 C   0  0  0  0  0  0  0  0  0  0  0  0
   -2.7080   68.6520   65.7820 C   0  0  0  0  0  0  0  0  0  0  0  0
   -2.2650   68.3870   67.1960 N   0  0  0  0  0  4  0  0  0  0  0  0
   -2.2790   66.9660   67.6560 C   0  0  0  0  0  0  0  0  0  0  0  0
   -1.0750   66.6310   68.5380 C   0  0  0  0  0  0  0  0  0  0  0  0
    0.1020   66.7530   67.7580 O   0  0  0  0  0  0  0  0  0  0  0  0
    7.1250   70.3720   66.5320 O   0  0  0  0  0  0  0  0  0  0  0  0
    4.4740   68.6390   62.4730 N   0  0  0  0  0  0  0  0  0  0  0  0
    4.9010   67.2710   62.0910 C   0  0  0  0  0  0  0  0  0  0  0  0
    4.8790   66.3900   63.3600 C   0  0  0  0  0  0  0  0  0  0  0  0
    4.5550   64.9750   62.9550 N   0  0  0  0  0  4  0  0  0  0  0  0
    4.6760   63.9300   64.0120 C   0  0  0  0  0  0  0  0  0  0  0  0
    3.4080   63.8120   64.8610 C   0  0  0  0  0  0  0  0  0  0  0  0
    3.7830   63.4340   66.1760 O   0  0  0  0  0  0  0  0  0  0  0  0
    2.0030   67.9870   61.7136 H   0  0  0  0  0  0  0  0  0  0  0  0
   -0.0463   68.0124   63.1043 H   0  0  0  0  0  0  0  0  0  0  0  0
    4.9574   70.8823   70.4454 H   0  0  0  0  0  0  0  0  0  0  0  0
    7.0037   70.9569   69.0168 H   0  0  0  0  0  0  0  0  0  0  0  0
    2.7356   70.4611   70.6296 H   0  0  0  0  0  0  0  0  0  0  0  0
   -0.2571   68.5389   66.6852 H   0  0  0  0  0  0  0  0  0  0  0  0
   -1.5042   70.0364   64.6101 H   0  0  0  0  0  0  0  0  0  0  0  0
   -1.5044   68.3543   63.9901 H   0  0  0  0  0  0  0  0  0  0  0  0
   -3.4008   69.5064   65.7710 H   0  0  0  0  0  0  0  0  0  0  0  0
   -3.2133   67.7582   65.3875 H   0  0  0  0  0  0  0  0  0  0  0  0
   -1.2999   68.7344   67.2895 H   0  0  0  0  0  0  0  0  0  0  0  0
   -2.9583   68.8665   67.7878 H   0  0  0  0  0  0  0  0  0  0  0  0
   -3.1996   66.7893   68.2316 H   0  0  0  0  0  0  0  0  0  0  0  0
   -2.2335   66.3227   66.7649 H   0  0  0  0  0  0  0  0  0  0  0  0
   -1.0314   67.3290   69.3870 H   0  0  0  0  0  0  0  0  0  0  0  0
   -1.1656   65.6055   68.9255 H   0  0  0  0  0  0  0  0  0  0  0  0
    0.8870   66.8344   68.3557 H   0  0  0  0  0  0  0  0  0  0  0  0
    7.1361   70.1373   65.5703 H   0  0  0  0  0  0  0  0  0  0  0  0
    4.9892   69.4792   62.1737 H   0  0  0  0  0  0  0  0  0  0  0  0
    4.2099   66.8606   61.3401 H   0  0  0  0  0  0  0  0  0  0  0  0
    5.9128   67.2938   61.6601 H   0  0  0  0  0  0  0  0  0  0  0  0
    5.8638   66.4196   63.8492 H   0  0  0  0  0  0  0  0  0  0  0  0
    4.1210   66.7631   64.0644 H   0  0  0  0  0  0  0  0  0  0  0  0
    3.5830   64.9629   62.6144 H   0  0  0  0  0  0  0  0  0  0  0  0
    5.2624   64.7276   62.2484 H   0  0  0  0  0  0  0  0  0  0  0  0
    4.8704   62.9605   63.5301 H   0  0  0  0  0  0  0  0  0  0  0  0
    5.5013   64.2202   64.6788 H   0  0  0  0  0  0  0  0  0  0  0  0
    2.8870   64.7804   64.8872 H   0  0  0  0  0  0  0  0  0  0  0  0
    2.7329   63.0585   64.4292 H   0  0  0  0  0  0  0  0  0  0  0  0
    3.2609   63.9603   66.8322 H   0  0  0  0  0  0  0  0  0  0  0  0
  2  1  2  0
  3  2  1  0
  4  3  2  0
  5  4  1  0
  6  5  2  0
  6  1  1  0
  7  6  1  0
  8  7  2  0
  9  7  1  0
 10  9  2  0
 11  5  1  0
 11 10  1  0
 12 11  2  0
 13 10  1  0
 14 13  2  0
 15 14  1  0
 16 15  2  0
 16  9  1  0
 17 13  1  0
 18  4  1  0
 19 18  1  0
 20 19  1  0
 21 20  1  0
 22 21  1  0
 23 22  1  0
 24 23  1  0
 25 16  1  0
 26  1  1  0
 27 26  1  0
 28 27  1  0
 29 28  1  0
 30 29  1  0
 31 30  1  0
 32 31  1  0
  2 33  1  0
  3 34  1  0
 14 35  1  0
 15 36  1  0
 17 37  1  0
 18 38  1  0
 19 39  1  0
 19 40  1  0
 20 41  1  0
 20 42  1  0
 21 43  1  0
 21 44  1  0
 22 45  1  0
 22 46  1  0
 23 47  1  0
 23 48  1  0
 24 49  1  0
 25 50  1  0
 26 51  1  0
 27 52  1  0
 27 53  1  0
 28 54  1  0
 28 55  1  0
 29 56  1  0
 29 57  1  0
 30 58  1  0
 30 59  1  0
 31 60  1  0
 31 61  1  0
 32 62  1  0
M  CHG  2  21   1  29   1
M  END
>  <score>  (2) 
-9.627

$$$$
=
     RDKit          3D

 62 64  0  0  0  0  0  0  0  0999 V2000
    1.0190   68.5550   66.4760 C   0  0  0  0  0  0  0  0  0  0  0  0
    0.4990   68.1560   65.2390 C   0  0  0  0  0  0  0  0  0  0  0  0
    1.2620   68.2390   64.0700 C   0  0  0  0  0  0  0  0  0  0  0  0
    2.5570   68.7690   64.0820 C   0  0  0  0  0  0  0  0  0  0  0  0
    3.0990   69.1840   65.3290 C   0  0  0  0  0  0  0  0  0  0  0  0
    2.3380   69.0880   66.5070 C   0  0  0  0  0  0  0  0  0  0  0  0
    2.9410   69.5160   67.7970 C   0  0  0  0  0  0  0  0  0  0  0  0
    2.3070   69.3840   68.8450 O   0  0  0  0  0  0  0  0  0  0  0  0
    4.2990   70.0860   67.8450 C   0  0  0  0  0  0  0  0  0  0  0  0
    5.0450   70.2010   66.6740 C   0  0  0  0  0  0  0  0  0  0  0  0
    4.4720   69.7530   65.3930 C   0  0  0  0  0  0  0  0  0  0  0  0
    5.1400   69.8650   64.3640 O   0  0  0  0  0  0  0  0  0  0  0  0
    6.3370   70.7450   66.7310 C   0  0  0  0  0  0  0  0  0  0  0  0
    6.8810   71.1680   67.9400 C   0  0  0  0  0  0  0  0  0  0  0  0
    6.1360   71.0520   69.1100 C   0  0  0  0  0  0  0  0  0  0  0  0
    4.8540   70.5130   69.0630 C   0  0  0  0  0  0  0  0  0  0  0  0
    7.1380   70.8970   65.6320 O   0  0  0  0  0  0  0  0  0  0  0  0
    3.3260   68.7790   62.8840 N   0  0  0  0  0  0  0  0  0  0  0  0
    3.4440   67.4770   62.1820 C   0  0  0  0  0  0  0  0  0  0  0  0
    4.8440   66.8830   62.4550 C   0  0  0  0  0  0  0  0  0  0  0  0
    4.8610   66.2100   63.8010 N   0  0  0  0  0  4  0  0  0  0  0  0
    3.8100   65.1810   64.0580 C   0  0  0  0  0  0  0  0  0  0  0  0
    4.4040   63.7870   64.2740 C   0  0  0  0  0  0  0  0  0  0  0  0
    5.4880   63.6170   63.3760 O   0  0  0  0  0  0  0  0  0  0  0  0
    4.1940   70.4340   70.2590 O   0  0  0  0  0  0  0  0  0  0  0  0
    0.1930   68.5290   67.6380 N   0  0  0  0  0  0  0  0  0  0  0  0
   -0.3050   67.1900   68.0370 C   0  0  0  0  0  0  0  0  0  0  0  0
    0.4810   66.7410   69.2900 C   0  0  0  0  0  0  0  0  0  0  0  0
    0.0640   65.3350   69.6370 N   0  0  0  0  0  4  0  0  0  0  0  0
    0.7040   64.7220   70.8370 C   0  0  0  0  0  0  0  0  0  0  0  0
    1.7710   63.6910   70.4630 C   0  0  0  0  0  0  0  0  0  0  0  0
    3.0460   64.2410   70.7550 O   0  0  0  0  0  0  0  0  0  0  0  0
   -0.5296   67.7698   65.1855 H   0  0  0  0  0  0  0  0  0  0  0  0
    0.8354   67.8803   63.1216 H   0  0  0  0  0  0  0  0  0  0  0  0
    7.8954   71.5922   67.9709 H   0  0  0  0  0  0  0  0  0  0  0  0
    6.5594   71.3854   70.0689 H   0  0  0  0  0  0  0  0  0  0  0  0
    8.0427   71.2872   65.7290 H   0  0  0  0  0  0  0  0  0  0  0  0
    3.7723   69.6359   62.5270 H   0  0  0  0  0  0  0  0  0  0  0  0
    2.6719   66.7868   62.5528 H   0  0  0  0  0  0  0  0  0  0  0  0
    3.3074   67.6243   61.1005 H   0  0  0  0  0  0  0  0  0  0  0  0
    5.0857   66.1456   61.6754 H   0  0  0  0  0  0  0  0  0  0  0  0
    5.5891   67.6922   62.4451 H   0  0  0  0  0  0  0  0  0  0  0  0
    5.7772   65.7516   63.9076 H   0  0  0  0  0  0  0  0  0  0  0  0
    4.6701   66.9621   64.4784 H   0  0  0  0  0  0  0  0  0  0  0  0
    3.2456   65.4685   64.9573 H   0  0  0  0  0  0  0  0  0  0  0  0
    3.1585   65.1363   63.1728 H   0  0  0  0  0  0  0  0  0  0  0  0
    4.7617   63.6923   65.3099 H   0  0  0  0  0  0  0  0  0  0  0  0
    3.6387   63.0182   64.0915 H   0  0  0  0  0  0  0  0  0  0  0  0
    6.3243   63.4858   63.8893 H   0  0  0  0  0  0  0  0  0  0  0  0
    3.2780   70.0602   70.2951 H   0  0  0  0  0  0  0  0  0  0  0  0
   -0.0420   69.3824   68.1647 H   0  0  0  0  0  0  0  0  0  0  0  0
   -1.3786   67.2454   68.2700 H   0  0  0  0  0  0  0  0  0  0  0  0
   -0.1617   66.4697   67.2180 H   0  0  0  0  0  0  0  0  0  0  0  0
    1.5605   66.7668   69.0800 H   0  0  0  0  0  0  0  0  0  0  0  0
    0.2670   67.4164   70.1315 H   0  0  0  0  0  0  0  0  0  0  0  0
   -0.9537   65.3417   69.7955 H   0  0  0  0  0  0  0  0  0  0  0  0
    0.3724   64.7577   68.8417 H   0  0  0  0  0  0  0  0  0  0  0  0
    1.1747   65.5182   71.4324 H   0  0  0  0  0  0  0  0  0  0  0  0
   -0.0798   64.2031   71.4084 H   0  0  0  0  0  0  0  0  0  0  0  0
    1.6202   62.7714   71.0475 H   0  0  0  0  0  0  0  0  0  0  0  0
    1.7010   63.4453   69.3931 H   0  0  0  0  0  0  0  0  0  0  0  0
    3.1662   64.2928   71.7363 H   0  0  0  0  0  0  0  0  0  0  0  0
  2  1  2  0
  3  2  1  0
  4  3  2  0
  5  4  1  0
  6  5  2  0
  6  1  1  0
  7  6  1  0
  8  7  2  0
  9  7  1  0
 10  9  2  0
 11  5  1  0
 11 10  1  0
 12 11  2  0
 13 10  1  0
 14 13  2  0
 15 14  1  0
 16 15  2  0
 16  9  1  0
 17 13  1  0
 18  4  1  0
 19 18  1  0
 20 19  1  0
 21 20  1  0
 22 21  1  0
 23 22  1  0
 24 23  1  0
 25 16  1  0
 26  1  1  0
 27 26  1  0
 28 27  1  0
 29 28  1  0
 30 29  1  0
 31 30  1  0
 32 31  1  0
  2 33  1  0
  3 34  1  0
 14 35  1  0
 15 36  1  0
 17 37  1  0
 18 38  1  0
 19 39  1  0
 19 40  1  0
 20 41  1  0
 20 42  1  0
 21 43  1  0
 21 44  1  0
 22 45  1  0
 22 46  1  0
 23 47  1  0
 23 48  1  0
 24 49  1  0
 25 50  1  0
 26 51  1  0
 27 52  1  0
 27 53  1  0
 28 54  1  0
 28 55  1  0
 29 56  1  0
 29 57  1  0
 30 58  1  0
 30 59  1  0
 31 60  1  0
 31 61  1  0
 32 62  1  0
M  CHG  2  21   1  29   1
M  END
>  <score>  (3) 
-8.486

$$$$
=
     RDKit          3D

 62 64  0  0  0  0  0  0  0  0999 V2000
    1.0240   68.0470   66.0050 C   0  0  0  0  0  0  0  0  0  0  0  0
    0.8700   67.3250   64.8160 C   0  0  0  0  0  0  0  0  0  0  0  0
    1.9410   67.1330   63.9380 C   0  0  0  0  0  0  0  0  0  0  0  0
    3.1980   67.6970   64.1890 C   0  0  0  0  0  0  0  0  0  0  0  0
    3.3710   68.4380   65.3900 C   0  0  0  0  0  0  0  0  0  0  0  0
    2.2980   68.6190   66.2800 C   0  0  0  0  0  0  0  0  0  0  0  0
    2.5180   69.3850   67.5350 C   0  0  0  0  0  0  0  0  0  0  0  0
    1.6030   69.5030   68.3510 O   0  0  0  0  0  0  0  0  0  0  0  0
    3.8260   69.9990   67.8270 C   0  0  0  0  0  0  0  0  0  0  0  0
    4.8830   69.8370   66.9350 C   0  0  0  0  0  0  0  0  0  0  0  0
    4.6880   69.0540   65.7020 C   0  0  0  0  0  0  0  0  0  0  0  0
    5.6300   68.9230   64.9180 O   0  0  0  0  0  0  0  0  0  0  0  0
    6.1240   70.4250   67.2230 C   0  0  0  0  0  0  0  0  0  0  0  0
    6.3100   71.1650   68.3870 C   0  0  0  0  0  0  0  0  0  0  0  0
    5.2540   71.3250   69.2800 C   0  0  0  0  0  0  0  0  0  0  0  0
    4.0200   70.7440   69.0020 C   0  0  0  0  0  0  0  0  0  0  0  0
    7.2150   70.3190   66.4030 O   0  0  0  0  0  0  0  0  0  0  0  0
    4.2810   67.4270   63.3050 N   0  0  0  0  0  0  0  0  0  0  0  0
    3.9580   67.4680   61.8570 C   0  0  0  0  0  0  0  0  0  0  0  0
    3.6800   68.9310   61.4460 C   0  0  0  0  0  0  0  0  0  0  0  0
    2.2890   69.0500   60.8840 N   0  0  0  0  0  4  0  0  0  0  0  0
    1.2390   69.6110   61.7860 C   0  0  0  0  0  0  0  0  0  0  0  0
   -0.1220   69.7210   61.0930 C   0  0  0  0  0  0  0  0  0  0  0  0
    0.0820   69.6620   59.6920 O   0  0  0  0  0  0  0  0  0  0  0  0
    3.0390   70.9500   69.9330 O   0  0  0  0  0  0  0  0  0  0  0  0
   -0.1030   68.2890   66.8430 N   0  0  0  0  0  0  0  0  0  0  0  0
   -0.9500   67.1070   67.1320 C   0  0  0  0  0  0  0  0  0  0  0  0
   -0.7500   66.7270   68.6170 C   0  0  0  0  0  0  0  0  0  0  0  0
    0.7250   66.5450   68.8700 N   0  0  0  0  0  4  0  0  0  0  0  0
    1.1200   66.0820   70.2310 C   0  0  0  0  0  0  0  0  0  0  0  0
    0.3340   64.8480   70.6770 C   0  0  0  0  0  0  0  0  0  0  0  0
   -0.0550   65.0290   72.0290 O   0  0  0  0  0  0  0  0  0  0  0  0
   -0.1136   66.9000   64.5672 H   0  0  0  0  0  0  0  0  0  0  0  0
    1.7933   66.5269   63.0320 H   0  0  0  0  0  0  0  0  0  0  0  0
    7.2877   71.6217   68.6006 H   0  0  0  0  0  0  0  0  0  0  0  0
    5.3943   71.9084   70.2019 H   0  0  0  0  0  0  0  0  0  0  0  0
    8.0677   70.7544   66.6549 H   0  0  0  0  0  0  0  0  0  0  0  0
    5.2289   67.2165   63.6487 H   0  0  0  0  0  0  0  0  0  0  0  0
    4.8079   67.0773   61.2782 H   0  0  0  0  0  0  0  0  0  0  0  0
    3.0704   66.8500   61.6561 H   0  0  0  0  0  0  0  0  0  0  0  0
    3.7739   69.5817   62.3279 H   0  0  0  0  0  0  0  0  0  0  0  0
    4.4075   69.2362   60.6794 H   0  0  0  0  0  0  0  0  0  0  0  0
    2.3405   69.6559   60.0526 H   0  0  0  0  0  0  0  0  0  0  0  0
    1.9920   68.0815   60.6977 H   0  0  0  0  0  0  0  0  0  0  0  0
    1.1378   68.9545   62.6628 H   0  0  0  0  0  0  0  0  0  0  0  0
    1.5516   70.6244   62.0779 H   0  0  0  0  0  0  0  0  0  0  0  0
   -0.7681   68.8889   61.4095 H   0  0  0  0  0  0  0  0  0  0  0  0
   -0.6079   70.6699   61.3640 H   0  0  0  0  0  0  0  0  0  0  0  0
    1.0160   69.3919   59.5056 H   0  0  0  0  0  0  0  0  0  0  0  0
    2.1377   70.5640   69.7961 H   0  0  0  0  0  0  0  0  0  0  0  0
   -0.3150   69.2228   67.2226 H   0  0  0  0  0  0  0  0  0  0  0  0
   -2.0067   67.3512   66.9483 H   0  0  0  0  0  0  0  0  0  0  0  0
   -0.6674   66.2664   66.4812 H   0  0  0  0  0  0  0  0  0  0  0  0
   -1.1407   67.5286   69.2610 H   0  0  0  0  0  0  0  0  0  0  0  0
   -1.2889   65.7951   68.8433 H   0  0  0  0  0  0  0  0  0  0  0  0
    1.0748   65.8534   68.1916 H   0  0  0  0  0  0  0  0  0  0  0  0
    1.1334   67.4859   68.7756 H   0  0  0  0  0  0  0  0  0  0  0  0
    2.1918   65.8345   70.2229 H   0  0  0  0  0  0  0  0  0  0  0  0
    0.8998   66.8944   70.9391 H   0  0  0  0  0  0  0  0  0  0  0  0
   -0.5593   64.7286   70.0463 H   0  0  0  0  0  0  0  0  0  0  0  0
    0.9582   63.9474   70.5808 H   0  0  0  0  0  0  0  0  0  0  0  0
    0.6611   64.6958   72.6259 H   0  0  0  0  0  0  0  0  0  0  0  0
  2  1  2  0
  3  2  1  0
  4  3  2  0
  5  4  1  0
  6  5  2  0
  6  1  1  0
  7  6  1  0
  8  7  2  0
  9  7  1  0
 10  9  2  0
 11  5  1  0
 11 10  1  0
 12 11  2  0
 13 10  1  0
 14 13  2  0
 15 14  1  0
 16 15  2  0
 16  9  1  0
 17 13  1  0
 18  4  1  0
 19 18  1  0
 20 19  1  0
 21 20  1  0
 22 21  1  0
 23 22  1  0
 24 23  1  0
 25 16  1  0
 26  1  1  0
 27 26  1  0
 28 27  1  0
 29 28  1  0
 30 29  1  0
 31 30  1  0
 32 31  1  0
  2 33  1  0
  3 34  1  0
 14 35  1  0
 15 36  1  0
 17 37  1  0
 18 38  1  0
 19 39  1  0
 19 40  1  0
 20 41  1  0
 20 42  1  0
 21 43  1  0
 21 44  1  0
 22 45  1  0
 22 46  1  0
 23 47  1  0
 23 48  1  0
 24 49  1  0
 25 50  1  0
 26 51  1  0
 27 52  1  0
 27 53  1  0
 28 54  1  0
 28 55  1  0
 29 56  1  0
 29 57  1  0
 30 58  1  0
 30 59  1  0
 31 60  1  0
 31 61  1  0
 32 62  1  0
M  CHG  2  21   1  29   1
M  END
>  <score>  (4) 
-8.39

$$$$
=
     RDKit          3D

 62 64  0  0  0  0  0  0  0  0999 V2000
    3.1190   67.5250   64.3360 C   0  0  0  0  0  0  0  0  0  0  0  0
    1.8900   66.8610   64.2460 C   0  0  0  0  0  0  0  0  0  0  0  0
    0.9050   67.0200   65.2260 C   0  0  0  0  0  0  0  0  0  0  0  0
    1.1270   67.8110   66.3600 C   0  0  0  0  0  0  0  0  0  0  0  0
    2.3720   68.4890   66.4700 C   0  0  0  0  0  0  0  0  0  0  0  0
    3.3570   68.3410   65.4780 C   0  0  0  0  0  0  0  0  0  0  0  0
    4.6420   69.0760   65.6160 C   0  0  0  0  0  0  0  0  0  0  0  0
    5.4910   69.0020   64.7270 O   0  0  0  0  0  0  0  0  0  0  0  0
    4.9110   69.9110   66.8000 C   0  0  0  0  0  0  0  0  0  0  0  0
    3.9430   70.0410   67.7930 C   0  0  0  0  0  0  0  0  0  0  0  0
    2.6540   69.3420   67.6550 C   0  0  0  0  0  0  0  0  0  0  0  0
    1.8070   69.4610   68.5430 O   0  0  0  0  0  0  0  0  0  0  0  0
    4.2100   70.8390   68.9170 C   0  0  0  0  0  0  0  0  0  0  0  0
    5.4280   71.5000   69.0490 C   0  0  0  0  0  0  0  0  0  0  0  0
    6.3950   71.3720   68.0560 C   0  0  0  0  0  0  0  0  0  0  0  0
    6.1370   70.5840   66.9380 C   0  0  0  0  0  0  0  0  0  0  0  0
    3.3190   71.0210   69.9390 O   0  0  0  0  0  0  0  0  0  0  0  0
    0.0780   68.0000   67.3040 N   0  0  0  0  0  0  0  0  0  0  0  0
   -0.3330   66.7940   68.0630 C   0  0  0  0  0  0  0  0  0  0  0  0
   -1.8740   66.7710   68.1760 C   0  0  0  0  0  0  0  0  0  0  0  0
   -2.4900   66.8780   66.8080 N   0  0  0  0  0  4  0  0  0  0  0  0
   -3.4270   68.0170   66.5730 C   0  0  0  0  0  0  0  0  0  0  0  0
   -2.8780   69.0180   65.5530 C   0  0  0  0  0  0  0  0  0  0  0  0
   -1.8600   69.7820   66.1760 O   0  0  0  0  0  0  0  0  0  0  0  0
    7.1410   70.5150   66.0110 O   0  0  0  0  0  0  0  0  0  0  0  0
    4.1320   67.2860   63.3620 N   0  0  0  0  0  0  0  0  0  0  0  0
    3.7590   67.6040   61.9620 C   0  0  0  0  0  0  0  0  0  0  0  0
    3.1000   69.0010   61.9480 C   0  0  0  0  0  0  0  0  0  0  0  0
    2.0030   69.0030   60.9130 N   0  0  0  0  0  4  0  0  0  0  0  0
    0.7380   69.7030   61.2770 C   0  0  0  0  0  0  0  0  0  0  0  0
   -0.1010   68.9050   62.2770 C   0  0  0  0  0  0  0  0  0  0  0  0
   -0.2060   69.6580   63.4750 O   0  0  0  0  0  0  0  0  0  0  0  0
    1.6951   66.2012   63.3877 H   0  0  0  0  0  0  0  0  0  0  0  0
   -0.0637   66.5135   65.1035 H   0  0  0  0  0  0  0  0  0  0  0  0
    5.6256   72.1213   69.9350 H   0  0  0  0  0  0  0  0  0  0  0  0
    7.3595   71.8917   68.1544 H   0  0  0  0  0  0  0  0  0  0  0  0
    3.5593   71.5951   70.7089 H   0  0  0  0  0  0  0  0  0  0  0  0
   -0.3676   68.9170   67.4506 H   0  0  0  0  0  0  0  0  0  0  0  0
    0.0116   65.8918   67.5365 H   0  0  0  0  0  0  0  0  0  0  0  0
    0.1128   66.8180   69.0683 H   0  0  0  0  0  0  0  0  0  0  0  0
   -2.1911   65.8283   68.6459 H   0  0  0  0  0  0  0  0  0  0  0  0
   -2.2046   67.6222   68.7893 H   0  0  0  0  0  0  0  0  0  0  0  0
   -1.7217   66.9622   66.1271 H   0  0  0  0  0  0  0  0  0  0  0  0
   -3.0681   66.0314   66.7082 H   0  0  0  0  0  0  0  0  0  0  0  0
   -4.3819   67.6186   66.1995 H   0  0  0  0  0  0  0  0  0  0  0  0
   -3.5597   68.5469   67.5277 H   0  0  0  0  0  0  0  0  0  0  0  0
   -2.4611   68.4778   64.6902 H   0  0  0  0  0  0  0  0  0  0  0  0
   -3.6841   69.6791   65.2021 H   0  0  0  0  0  0  0  0  0  0  0  0
   -1.9511   69.7136   67.1594 H   0  0  0  0  0  0  0  0  0  0  0  0
    7.0222   69.9715   65.1921 H   0  0  0  0  0  0  0  0  0  0  0  0
    5.0603   66.9174   63.6134 H   0  0  0  0  0  0  0  0  0  0  0  0
    4.6581   67.6092   61.3283 H   0  0  0  0  0  0  0  0  0  0  0  0
    3.0608   66.8487   61.5721 H   0  0  0  0  0  0  0  0  0  0  0  0
    2.6756   69.2209   62.9387 H   0  0  0  0  0  0  0  0  0  0  0  0
    3.8493   69.7685   61.7041 H   0  0  0  0  0  0  0  0  0  0  0  0
    2.3755   69.4532   60.0648 H   0  0  0  0  0  0  0  0  0  0  0  0
    1.7402   68.0139   60.7962 H   0  0  0  0  0  0  0  0  0  0  0  0
    0.9885   70.6767   61.7232 H   0  0  0  0  0  0  0  0  0  0  0  0
    0.1436   69.8222   60.3591 H   0  0  0  0  0  0  0  0  0  0  0  0
   -1.1037   68.7262   61.8615 H   0  0  0  0  0  0  0  0  0  0  0  0
    0.3756   67.9348   62.4809 H   0  0  0  0  0  0  0  0  0  0  0  0
   -0.1216   69.0526   64.2538 H   0  0  0  0  0  0  0  0  0  0  0  0
  2  1  2  0
  3  2  1  0
  4  3  2  0
  5  4  1  0
  6  5  2  0
  6  1  1  0
  7  6  1  0
  8  7  2  0
  9  7  1  0
 10  9  2  0
 11  5  1  0
 11 10  1  0
 12 11  2  0
 13 10  1  0
 14 13  2  0
 15 14  1  0
 16 15  2  0
 16  9  1  0
 17 13  1  0
 18  4  1  0
 19 18  1  0
 20 19  1  0
 21 20  1  0
 22 21  1  0
 23 22  1  0
 24 23  1  0
 25 16  1  0
 26  1  1  0
 27 26  1  0
 28 27  1  0
 29 28  1  0
 30 29  1  0
 31 30  1  0
 32 31  1  0
  2 33  1  0
  3 34  1  0
 14 35  1  0
 15 36  1  0
 17 37  1  0
 18 38  1  0
 19 39  1  0
 19 40  1  0
 20 41  1  0
 20 42  1  0
 21 43  1  0
 21 44  1  0
 22 45  1  0
 22 46  1  0
 23 47  1  0
 23 48  1  0
 24 49  1  0
 25 50  1  0
 26 51  1  0
 27 52  1  0
 27 53  1  0
 28 54  1  0
 28 55  1  0
 29 56  1  0
 29 57  1  0
 30 58  1  0
 30 59  1  0
 31 60  1  0
 31 61  1  0
 32 62  1  0
M  CHG  2  21   1  29   1
M  END
>  <score>  (5) 
-8.236

$$$$
=
     RDKit          3D

 62 64  0  0  0  0  0  0  0  0999 V2000
    1.2690   57.9990   73.3990 C   0  0  0  0  0  0  0  0  0  0  0  0
    0.0200   57.7470   73.9770 C   0  0  0  0  0  0  0  0  0  0  0  0
   -0.9830   58.7210   73.9930 C   0  0  0  0  0  0  0  0  0  0  0  0
   -0.7610   60.0030   73.4750 C   0  0  0  0  0  0  0  0  0  0  0  0
    0.5040   60.2780   72.8880 C   0  0  0  0  0  0  0  0  0  0  0  0
    1.5080   59.2940   72.8590 C   0  0  0  0  0  0  0  0  0  0  0  0
    2.8150   59.6090   72.2240 C   0  0  0  0  0  0  0  0  0  0  0  0
    3.6830   58.7390   72.1400 O   0  0  0  0  0  0  0  0  0  0  0  0
    3.0850   60.9500   71.6750 C   0  0  0  0  0  0  0  0  0  0  0  0
    2.0980   61.9310   71.7240 C   0  0  0  0  0  0  0  0  0  0  0  0
    0.7880   61.6240   72.3230 C   0  0  0  0  0  0  0  0  0  0  0  0
   -0.0760   62.5020   72.3640 O   0  0  0  0  0  0  0  0  0  0  0  0
    2.3660   63.2050   71.1980 C   0  0  0  0  0  0  0  0  0  0  0  0
    3.6030   63.4970   70.6310 C   0  0  0  0  0  0  0  0  0  0  0  0
    4.5890   62.5160   70.5820 C   0  0  0  0  0  0  0  0  0  0  0  0
    4.3310   61.2500   71.0990 C   0  0  0  0  0  0  0  0  0  0  0  0
    1.4570   64.2270   71.2050 O   0  0  0  0  0  0  0  0  0  0  0  0
   -1.8260   60.9480   73.4510 N   0  0  0  0  0  0  0  0  0  0  0  0
   -2.7280   60.9340   74.6280 C   0  0  0  0  0  0  0  0  0  0  0  0
   -2.1560   61.8760   75.7110 C   0  0  0  0  0  0  0  0  0  0  0  0
   -1.4620   63.0420   75.0610 N   0  0  0  0  0  4  0  0  0  0  0  0
   -0.3660   63.6980   75.8360 C   0  0  0  0  0  0  0  0  0  0  0  0
    0.2940   64.8370   75.0570 C   0  0  0  0  0  0  0  0  0  0  0  0
   -0.2360   64.8470   73.7420 O   0  0  0  0  0  0  0  0  0  0  0  0
    5.3540   60.3470   71.0080 O   0  0  0  0  0  0  0  0  0  0  0  0
    2.2960   57.0120   73.4630 N   0  0  0  0  0  0  0  0  0  0  0  0
    1.8320   55.6190   73.6680 C   0  0  0  0  0  0  0  0  0  0  0  0
    2.2280   55.1880   75.0980 C   0  0  0  0  0  0  0  0  0  0  0  0
    3.4910   55.9150   75.4850 N   0  0  0  0  0  4  0  0  0  0  0  0
    3.4130   56.8060   76.6790 C   0  0  0  0  0  0  0  0  0  0  0  0
    3.8490   58.2380   76.3640 C   0  0  0  0  0  0  0  0  0  0  0  0
    4.4230   58.2570   75.0670 O   0  0  0  0  0  0  0  0  0  0  0  0
   -0.1768   56.7631   74.4278 H   0  0  0  0  0  0  0  0  0  0  0  0
   -1.9661   58.4754   74.4210 H   0  0  0  0  0  0  0  0  0  0  0  0
    3.8006   64.4993   70.2231 H   0  0  0  0  0  0  0  0  0  0  0  0
    5.5691   62.7406   70.1360 H   0  0  0  0  0  0  0  0  0  0  0  0
    1.6983   65.1067   70.8203 H   0  0  0  0  0  0  0  0  0  0  0  0
   -1.9613   61.6003   72.6655 H   0  0  0  0  0  0  0  0  0  0  0  0
   -3.7289   61.2795   74.3298 H   0  0  0  0  0  0  0  0  0  0  0  0
   -2.8031   59.9115   75.0266 H   0  0  0  0  0  0  0  0  0  0  0  0
   -2.9768   62.2462   76.3429 H   0  0  0  0  0  0  0  0  0  0  0  0
   -1.4328   61.3220   76.3275 H   0  0  0  0  0  0  0  0  0  0  0  0
   -1.0584   62.7081   74.1741 H   0  0  0  0  0  0  0  0  0  0  0  0
   -2.1892   63.7648   74.9628 H   0  0  0  0  0  0  0  0  0  0  0  0
   -0.7858   64.1037   76.7683 H   0  0  0  0  0  0  0  0  0  0  0  0
    0.4037   62.9388   76.0391 H   0  0  0  0  0  0  0  0  0  0  0  0
    0.0809   65.7967   75.5505 H   0  0  0  0  0  0  0  0  0  0  0  0
    1.3836   64.6899   75.0238 H   0  0  0  0  0  0  0  0  0  0  0  0
   -1.2249   64.8657   73.7849 H   0  0  0  0  0  0  0  0  0  0  0  0
    5.2357   59.4281   71.3570 H   0  0  0  0  0  0  0  0  0  0  0  0
    3.2938   57.2509   73.3728 H   0  0  0  0  0  0  0  0  0  0  0  0
    0.7392   55.5690   73.5524 H   0  0  0  0  0  0  0  0  0  0  0  0
    2.2931   54.9501   72.9264 H   0  0  0  0  0  0  0  0  0  0  0  0
    1.4214   55.4462   75.8000 H   0  0  0  0  0  0  0  0  0  0  0  0
    2.3938   54.1011   75.1314 H   0  0  0  0  0  0  0  0  0  0  0  0
    4.2144   55.2059   75.6716 H   0  0  0  0  0  0  0  0  0  0  0  0
    3.6959   56.5412   74.6933 H   0  0  0  0  0  0  0  0  0  0  0  0
    2.3740   56.8238   77.0399 H   0  0  0  0  0  0  0  0  0  0  0  0
    4.0966   56.4063   77.4425 H   0  0  0  0  0  0  0  0  0  0  0  0
    2.9763   58.9069   76.3937 H   0  0  0  0  0  0  0  0  0  0  0  0
    4.5838   58.5811   77.1072 H   0  0  0  0  0  0  0  0  0  0  0  0
    5.4095   58.2897   75.1432 H   0  0  0  0  0  0  0  0  0  0  0  0
  2  1  2  0
  3  2  1  0
  4  3  2  0
  5  4  1  0
  6  5  2  0
  6  1  1  0
  7  6  1  0
  8  7  2  0
  9  7  1  0
 10  9  2  0
 11  5  1  0
 11 10  1  0
 12 11  2  0
 13 10  1  0
 14 13  2  0
 15 14  1  0
 16 15  2  0
 16  9  1  0
 17 13  1  0
 18  4  1  0
 19 18  1  0
 20 19  1  0
 21 20  1  0
 22 21  1  0
 23 22  1  0
 24 23  1  0
 25 16  1  0
 26  1  1  0
 27 26  1  0
 28 27  1  0
 29 28  1  0
 30 29  1  0
 31 30  1  0
 32 31  1  0
  2 33  1  0
  3 34  1  0
 14 35  1  0
 15 36  1  0
 17 37  1  0
 18 38  1  0
 19 39  1  0
 19 40  1  0
 20 41  1  0
 20 42  1  0
 21 43  1  0
 21 44  1  0
 22 45  1  0
 22 46  1  0
 23 47  1  0
 23 48  1  0
 24 49  1  0
 25 50  1  0
 26 51  1  0
 27 52  1  0
 27 53  1  0
 28 54  1  0
 28 55  1  0
 29 56  1  0
 29 57  1  0
 30 58  1  0
 30 59  1  0
 31 60  1  0
 31 61  1  0
 32 62  1  0
M  CHG  2  21   1  29   1
M  END
>  <score>  (6) 
-7.708

$$$$
=
     RDKit          3D

 62 64  0  0  0  0  0  0  0  0999 V2000
    2.8920   67.8640   64.3520 C   0  0  0  0  0  0  0  0  0  0  0  0
    1.5510   67.4930   64.2070 C   0  0  0  0  0  0  0  0  0  0  0  0
    0.5910   67.8500   65.1600 C   0  0  0  0  0  0  0  0  0  0  0  0
    0.9430   68.5500   66.3200 C   0  0  0  0  0  0  0  0  0  0  0  0
    2.3030   68.9310   66.4860 C   0  0  0  0  0  0  0  0  0  0  0  0
    3.2650   68.5850   65.5210 C   0  0  0  0  0  0  0  0  0  0  0  0
    4.6750   69.0130   65.7170 C   0  0  0  0  0  0  0  0  0  0  0  0
    5.5180   68.7660   64.8530 O   0  0  0  0  0  0  0  0  0  0  0  0
    5.0820   69.7440   66.9300 C   0  0  0  0  0  0  0  0  0  0  0  0
    4.1320   70.0680   67.8960 C   0  0  0  0  0  0  0  0  0  0  0  0
    2.7250   69.6780   67.7000 C   0  0  0  0  0  0  0  0  0  0  0  0
    1.8950   69.9660   68.5650 O   0  0  0  0  0  0  0  0  0  0  0  0
    4.5300   70.7660   69.0480 C   0  0  0  0  0  0  0  0  0  0  0  0
    5.8590   71.1360   69.2340 C   0  0  0  0  0  0  0  0  0  0  0  0
    6.8070   70.8140   68.2680 C   0  0  0  0  0  0  0  0  0  0  0  0
    6.4210   70.1230   67.1230 C   0  0  0  0  0  0  0  0  0  0  0  0
    3.6660   71.1230   70.0460 O   0  0  0  0  0  0  0  0  0  0  0  0
   -0.0710   68.9520   67.2360 N   0  0  0  0  0  0  0  0  0  0  0  0
   -1.4200   68.3840   66.9950 C   0  0  0  0  0  0  0  0  0  0  0  0
   -1.4310   66.9060   67.4460 C   0  0  0  0  0  0  0  0  0  0  0  0
   -1.1290   66.8160   68.9170 N   0  0  0  0  0  4  0  0  0  0  0  0
   -0.2180   65.7170   69.3570 C   0  0  0  0  0  0  0  0  0  0  0  0
    0.9330   66.2310   70.2240 C   0  0  0  0  0  0  0  0  0  0  0  0
    1.3790   67.4670   69.6920 O   0  0  0  0  0  0  0  0  0  0  0  0
    7.4170   69.8490   66.2260 O   0  0  0  0  0  0  0  0  0  0  0  0
    3.8600   67.4230   63.4030 N   0  0  0  0  0  0  0  0  0  0  0  0
    3.6090   67.8290   61.9990 C   0  0  0  0  0  0  0  0  0  0  0  0
    2.7200   69.0920   62.0180 C   0  0  0  0  0  0  0  0  0  0  0  0
    1.8790   69.1040   60.7670 N   0  0  0  0  0  4  0  0  0  0  0  0
    0.4840   69.6160   60.9010 C   0  0  0  0  0  0  0  0  0  0  0  0
    0.1310   69.9690   62.3460 C   0  0  0  0  0  0  0  0  0  0  0  0
   -1.1720   69.4820   62.6210 O   0  0  0  0  0  0  0  0  0  0  0  0
    1.2453   66.9091   63.3263 H   0  0  0  0  0  0  0  0  0  0  0  0
   -0.4612   67.5752   64.9945 H   0  0  0  0  0  0  0  0  0  0  0  0
    6.1585   71.6809   70.1414 H   0  0  0  0  0  0  0  0  0  0  0  0
    7.8585   71.1046   68.4087 H   0  0  0  0  0  0  0  0  0  0  0  0
    4.0001   71.6150   70.8375 H   0  0  0  0  0  0  0  0  0  0  0  0
    0.1203   69.5964   68.0164 H   0  0  0  0  0  0  0  0  0  0  0  0
   -2.1670   68.9507   67.5701 H   0  0  0  0  0  0  0  0  0  0  0  0
   -1.6645   68.4479   65.9244 H   0  0  0  0  0  0  0  0  0  0  0  0
   -2.4229   66.4726   67.2503 H   0  0  0  0  0  0  0  0  0  0  0  0
   -0.6648   66.3510   66.8849 H   0  0  0  0  0  0  0  0  0  0  0  0
   -0.6994   67.7080   69.2010 H   0  0  0  0  0  0  0  0  0  0  0  0
   -2.0337   66.6078   69.3632 H   0  0  0  0  0  0  0  0  0  0  0  0
   -0.7998   64.9862   69.9379 H   0  0  0  0  0  0  0  0  0  0  0  0
    0.2168   65.2587   68.4565 H   0  0  0  0  0  0  0  0  0  0  0  0
    0.5836   66.3760   71.2569 H   0  0  0  0  0  0  0  0  0  0  0  0
    1.7572   65.5025   70.2272 H   0  0  0  0  0  0  0  0  0  0  0  0
    1.6017   68.0842   70.4333 H   0  0  0  0  0  0  0  0  0  0  0  0
    7.2099   69.3601   65.3904 H   0  0  0  0  0  0  0  0  0  0  0  0
    4.6788   66.8601   63.6743 H   0  0  0  0  0  0  0  0  0  0  0  0
    4.5630   68.0517   61.4987 H   0  0  0  0  0  0  0  0  0  0  0  0
    3.1079   67.0176   61.4508 H   0  0  0  0  0  0  0  0  0  0  0  0
    2.0676   69.0732   62.9035 H   0  0  0  0  0  0  0  0  0  0  0  0
    3.3479   69.9942   62.0586 H   0  0  0  0  0  0  0  0  0  0  0  0
    2.3616   69.6918   60.0724 H   0  0  0  0  0  0  0  0  0  0  0  0
    1.7791   68.1145   60.4991 H   0  0  0  0  0  0  0  0  0  0  0  0
    0.3772   70.5180   60.2805 H   0  0  0  0  0  0  0  0  0  0  0  0
   -0.1996   68.8190   60.5730 H   0  0  0  0  0  0  0  0  0  0  0  0
    0.8544   69.5010   63.0299 H   0  0  0  0  0  0  0  0  0  0  0  0
    0.1642   71.0594   62.4872 H   0  0  0  0  0  0  0  0  0  0  0  0
   -1.3057   69.4320   63.6007 H   0  0  0  0  0  0  0  0  0  0  0  0
  2  1  2  0
  3  2  1  0
  4  3  2  0
  5  4  1  0
  6  5  2  0
  6  1  1  0
  7  6  1  0
  8  7  2  0
  9  7  1  0
 10  9  2  0
 11  5  1  0
 11 10  1  0
 12 11  2  0
 13 10  1  0
 14 13  2  0
 15 14  1  0
 16 15  2  0
 16  9  1  0
 17 13  1  0
 18  4  1  0
 19 18  1  0
 20 19  1  0
 21 20  1  0
 22 21  1  0
 23 22  1  0
 24 23  1  0
 25 16  1  0
 26  1  1  0
 27 26  1  0
 28 27  1  0
 29 28  1  0
 30 29  1  0
 31 30  1  0
 32 31  1  0
  2 33  1  0
  3 34  1  0
 14 35  1  0
 15 36  1  0
 17 37  1  0
 18 38  1  0
 19 39  1  0
 19 40  1  0
 20 41  1  0
 20 42  1  0
 21 43  1  0
 21 44  1  0
 22 45  1  0
 22 46  1  0
 23 47  1  0
 23 48  1  0
 24 49  1  0
 25 50  1  0
 26 51  1  0
 27 52  1  0
 27 53  1  0
 28 54  1  0
 28 55  1  0
 29 56  1  0
 29 57  1  0
 30 58  1  0
 30 59  1  0
 31 60  1  0
 31 61  1  0
 32 62  1  0
M  CHG  2  21   1  29   1
M  END
>  <score>  (7) 
-7.7

$$$$
=
     RDKit          3D

 62 64  0  0  0  0  0  0  0  0999 V2000
    3.5890   62.1590   71.5220 C   0  0  0  0  0  0  0  0  0  0  0  0
    3.5290   62.9280   70.3550 C   0  0  0  0  0  0  0  0  0  0  0  0
    2.5450   63.9050   70.1780 C   0  0  0  0  0  0  0  0  0  0  0  0
    1.5510   64.1190   71.1410 C   0  0  0  0  0  0  0  0  0  0  0  0
    1.5940   63.3440   72.3310 C   0  0  0  0  0  0  0  0  0  0  0  0
    2.5920   62.3710   72.5150 C   0  0  0  0  0  0  0  0  0  0  0  0
    2.6180   61.5880   73.7790 C   0  0  0  0  0  0  0  0  0  0  0  0
    3.5200   60.7730   73.9790 O   0  0  0  0  0  0  0  0  0  0  0  0
    1.5830   61.7820   74.8100 C   0  0  0  0  0  0  0  0  0  0  0  0
    0.5820   62.7310   74.6180 C   0  0  0  0  0  0  0  0  0  0  0  0
    0.5620   63.5360   73.3840 C   0  0  0  0  0  0  0  0  0  0  0  0
   -0.3330   64.3690   73.2240 O   0  0  0  0  0  0  0  0  0  0  0  0
   -0.3990   62.9090   75.6070 C   0  0  0  0  0  0  0  0  0  0  0  0
   -0.3810   62.1500   76.7740 C   0  0  0  0  0  0  0  0  0  0  0  0
    0.6210   61.2030   76.9660 C   0  0  0  0  0  0  0  0  0  0  0  0
    1.5970   61.0220   75.9910 C   0  0  0  0  0  0  0  0  0  0  0  0
   -1.4180   63.8150   75.5010 O   0  0  0  0  0  0  0  0  0  0  0  0
    0.6040   65.1660   70.9550 N   0  0  0  0  0  0  0  0  0  0  0  0
    0.9430   66.1670   69.9140 C   0  0  0  0  0  0  0  0  0  0  0  0
   -0.3300   66.5030   69.1060 C   0  0  0  0  0  0  0  0  0  0  0  0
    0.0480   67.0170   67.7430 N   0  0  0  0  0  4  0  0  0  0  0  0
   -1.0430   67.6100   66.9150 C   0  0  0  0  0  0  0  0  0  0  0  0
   -2.4310   67.1620   67.3780 C   0  0  0  0  0  0  0  0  0  0  0  0
   -3.3260   68.2530   67.2360 O   0  0  0  0  0  0  0  0  0  0  0  0
    2.5440   60.0720   76.2630 O   0  0  0  0  0  0  0  0  0  0  0  0
    4.5580   61.1200   71.6430 N   0  0  0  0  0  0  0  0  0  0  0  0
    4.6220   60.1710   70.5050 C   0  0  0  0  0  0  0  0  0  0  0  0
    3.4210   59.2050   70.6200 C   0  0  0  0  0  0  0  0  0  0  0  0
    3.4790   58.5290   71.9660 N   0  0  0  0  0  4  0  0  0  0  0  0
    2.2510   57.8060   72.4080 C   0  0  0  0  0  0  0  0  0  0  0  0
    2.2710   57.4870   73.9040 C   0  0  0  0  0  0  0  0  0  0  0  0
    3.5020   57.9430   74.4430 O   0  0  0  0  0  0  0  0  0  0  0  0
    4.2711   62.7605   69.5605 H   0  0  0  0  0  0  0  0  0  0  0  0
    2.5516   64.5177   69.2644 H   0  0  0  0  0  0  0  0  0  0  0  0
   -1.1553   62.2980   77.5411 H   0  0  0  0  0  0  0  0  0  0  0  0
    0.6411   60.5997   77.8856 H   0  0  0  0  0  0  0  0  0  0  0  0
   -2.0833   63.8991   76.2293 H   0  0  0  0  0  0  0  0  0  0  0  0
   -0.2625   65.2247   71.5088 H   0  0  0  0  0  0  0  0  0  0  0  0
    1.3283   67.0799   70.3917 H   0  0  0  0  0  0  0  0  0  0  0  0
    1.7126   65.7587   69.2424 H   0  0  0  0  0  0  0  0  0  0  0  0
   -0.9424   65.5958   68.9966 H   0  0  0  0  0  0  0  0  0  0  0  0
   -0.9026   67.2768   69.6384 H   0  0  0  0  0  0  0  0  0  0  0  0
    0.7681   67.7419   67.8732 H   0  0  0  0  0  0  0  0  0  0  0  0
    0.3580   66.1853   67.2204 H   0  0  0  0  0  0  0  0  0  0  0  0
   -0.9836   68.7062   66.9839 H   0  0  0  0  0  0  0  0  0  0  0  0
   -0.9056   67.2651   65.8796 H   0  0  0  0  0  0  0  0  0  0  0  0
   -2.7736   66.3182   66.7611 H   0  0  0  0  0  0  0  0  0  0  0  0
   -2.3923   66.8403   68.4292 H   0  0  0  0  0  0  0  0  0  0  0  0
   -3.5935   68.5791   68.1317 H   0  0  0  0  0  0  0  0  0  0  0  0
    3.2672   59.8931   75.6110 H   0  0  0  0  0  0  0  0  0  0  0  0
    5.1722   61.0343   72.4654 H   0  0  0  0  0  0  0  0  0  0  0  0
    4.5673   60.7231   69.5551 H   0  0  0  0  0  0  0  0  0  0  0  0
    5.5675   59.6094   70.5287 H   0  0  0  0  0  0  0  0  0  0  0  0
    2.4810   59.7689   70.5280 H   0  0  0  0  0  0  0  0  0  0  0  0
    3.4636   58.4532   69.8182 H   0  0  0  0  0  0  0  0  0  0  0  0
    4.2500   57.8465   71.9392 H   0  0  0  0  0  0  0  0  0  0  0  0
    3.6025   59.2924   72.6464 H   0  0  0  0  0  0  0  0  0  0  0  0
    1.3740   58.4339   72.1920 H   0  0  0  0  0  0  0  0  0  0  0  0
    2.2073   56.8524   71.8615 H   0  0  0  0  0  0  0  0  0  0  0  0
    1.4347   57.9976   74.4039 H   0  0  0  0  0  0  0  0  0  0  0  0
    2.1683   56.4031   74.0606 H   0  0  0  0  0  0  0  0  0  0  0  0
    3.4558   57.9259   75.4318 H   0  0  0  0  0  0  0  0  0  0  0  0
  2  1  2  0
  3  2  1  0
  4  3  2  0
  5  4  1  0
  6  5  2  0
  6  1  1  0
  7  6  1  0
  8  7  2  0
  9  7  1  0
 10  9  2  0
 11  5  1  0
 11 10  1  0
 12 11  2  0
 13 10  1  0
 14 13  2  0
 15 14  1  0
 16 15  2  0
 16  9  1  0
 17 13  1  0
 18  4  1  0
 19 18  1  0
 20 19  1  0
 21 20  1  0
 22 21  1  0
 23 22  1  0
 24 23  1  0
 25 16  1  0
 26  1  1  0
 27 26  1  0
 28 27  1  0
 29 28  1  0
 30 29  1  0
 31 30  1  0
 32 31  1  0
  2 33  1  0
  3 34  1  0
 14 35  1  0
 15 36  1  0
 17 37  1  0
 18 38  1  0
 19 39  1  0
 19 40  1  0
 20 41  1  0
 20 42  1  0
 21 43  1  0
 21 44  1  0
 22 45  1  0
 22 46  1  0
 23 47  1  0
 23 48  1  0
 24 49  1  0
 25 50  1  0
 26 51  1  0
 27 52  1  0
 27 53  1  0
 28 54  1  0
 28 55  1  0
 29 56  1  0
 29 57  1  0
 30 58  1  0
 30 59  1  0
 31 60  1  0
 31 61  1  0
 32 62  1  0
M  CHG  2  21   1  29   1
M  END
>  <score>  (8) 
-7.499

$$$$
=
     RDKit          3D

 62 64  0  0  0  0  0  0  0  0999 V2000
   -0.8720   60.2470   73.4590 C   0  0  0  0  0  0  0  0  0  0  0  0
   -1.1140   58.9830   74.0090 C   0  0  0  0  0  0  0  0  0  0  0  0
   -0.1410   57.9780   73.9760 C   0  0  0  0  0  0  0  0  0  0  0  0
    1.0940   58.1810   73.3490 C   0  0  0  0  0  0  0  0  0  0  0  0
    1.3550   59.4580   72.7810 C   0  0  0  0  0  0  0  0  0  0  0  0
    0.3830   60.4720   72.8260 C   0  0  0  0  0  0  0  0  0  0  0  0
    0.6930   61.8010   72.2360 C   0  0  0  0  0  0  0  0  0  0  0  0
   -0.1260   62.7170   72.3180 O   0  0  0  0  0  0  0  0  0  0  0  0
    1.9810   62.0470   71.5610 C   0  0  0  0  0  0  0  0  0  0  0  0
    2.9350   61.0340   71.4980 C   0  0  0  0  0  0  0  0  0  0  0  0
    2.6530   59.7220   72.1050 C   0  0  0  0  0  0  0  0  0  0  0  0
    3.5040   58.8330   72.0380 O   0  0  0  0  0  0  0  0  0  0  0  0
    4.1580   61.2790   70.8540 C   0  0  0  0  0  0  0  0  0  0  0  0
    4.4270   62.5180   70.2800 C   0  0  0  0  0  0  0  0  0  0  0  0
    3.4740   63.5300   70.3440 C   0  0  0  0  0  0  0  0  0  0  0  0
    2.2590   63.2960   70.9830 C   0  0  0  0  0  0  0  0  0  0  0  0
    5.1500   60.3430   70.7430 O   0  0  0  0  0  0  0  0  0  0  0  0
    2.0820   57.1570   73.3920 N   0  0  0  0  0  0  0  0  0  0  0  0
    1.6180   55.8310   73.8680 C   0  0  0  0  0  0  0  0  0  0  0  0
    2.4970   55.3890   75.0590 C   0  0  0  0  0  0  0  0  0  0  0  0
    2.3390   56.3570   76.2000 N   0  0  0  0  0  4  0  0  0  0  0  0
    3.5770   57.0250   76.7010 C   0  0  0  0  0  0  0  0  0  0  0  0
    3.7410   58.4390   76.1390 C   0  0  0  0  0  0  0  0  0  0  0  0
    4.3760   58.3490   74.8750 O   0  0  0  0  0  0  0  0  0  0  0  0
    1.3820   64.3460   71.0010 O   0  0  0  0  0  0  0  0  0  0  0  0
   -1.9080   61.2260   73.4400 N   0  0  0  0  0  0  0  0  0  0  0  0
   -2.8620   61.1680   74.5740 C   0  0  0  0  0  0  0  0  0  0  0  0
   -2.2510   61.9570   75.7540 C   0  0  0  0  0  0  0  0  0  0  0  0
   -1.4960   63.1380   75.2010 N   0  0  0  0  0  4  0  0  0  0  0  0
   -0.2200   63.4980   75.8830 C   0  0  0  0  0  0  0  0  0  0  0  0
    0.5830   64.5400   75.1020 C   0  0  0  0  0  0  0  0  0  0  0  0
   -0.2250   65.0250   74.0410 O   0  0  0  0  0  0  0  0  0  0  0  0
   -2.0880   58.7756   74.4763 H   0  0  0  0  0  0  0  0  0  0  0  0
   -0.3508   57.0089   74.4523 H   0  0  0  0  0  0  0  0  0  0  0  0
    5.3892   62.6966   69.7777 H   0  0  0  0  0  0  0  0  0  0  0  0
    3.6797   64.5113   69.8915 H   0  0  0  0  0  0  0  0  0  0  0  0
    5.9941   60.5691   70.2778 H   0  0  0  0  0  0  0  0  0  0  0  0
    3.0581   57.3263   73.1102 H   0  0  0  0  0  0  0  0  0  0  0  0
    0.5686   55.9012   74.1901 H   0  0  0  0  0  0  0  0  0  0  0  0
    1.6971   55.0952   73.0542 H   0  0  0  0  0  0  0  0  0  0  0  0
    2.1887   54.3853   75.3870 H   0  0  0  0  0  0  0  0  0  0  0  0
    3.5507   55.3702   74.7437 H   0  0  0  0  0  0  0  0  0  0  0  0
    1.6904   57.0957   75.8927 H   0  0  0  0  0  0  0  0  0  0  0  0
    2.0057   55.7861   76.9899 H   0  0  0  0  0  0  0  0  0  0  0  0
    3.5281   57.0838   77.7983 H   0  0  0  0  0  0  0  0  0  0  0  0
    4.4395   56.4284   76.3691 H   0  0  0  0  0  0  0  0  0  0  0  0
    2.7535   58.9102   76.0256 H   0  0  0  0  0  0  0  0  0  0  0  0
    4.3485   59.0489   76.8237 H   0  0  0  0  0  0  0  0  0  0  0  0
    5.3480   58.2112   75.0031 H   0  0  0  0  0  0  0  0  0  0  0  0
    0.4999   64.2467   71.4393 H   0  0  0  0  0  0  0  0  0  0  0  0
   -1.9886   61.9265   72.6892 H   0  0  0  0  0  0  0  0  0  0  0  0
   -3.8203   61.6204   74.2790 H   0  0  0  0  0  0  0  0  0  0  0  0
   -3.0441   60.1234   74.8667 H   0  0  0  0  0  0  0  0  0  0  0  0
   -3.0529   62.3083   76.4200 H   0  0  0  0  0  0  0  0  0  0  0  0
   -1.5706   61.3101   76.3272 H   0  0  0  0  0  0  0  0  0  0  0  0
   -1.2761   62.9339   74.2157 H   0  0  0  0  0  0  0  0  0  0  0  0
   -2.1169   63.9470   75.3454 H   0  0  0  0  0  0  0  0  0  0  0  0
   -0.4535   63.9046   76.8781 H   0  0  0  0  0  0  0  0  0  0  0  0
    0.3917   62.5866   75.9543 H   0  0  0  0  0  0  0  0  0  0  0  0
    0.8601   65.3708   75.7676 H   0  0  0  0  0  0  0  0  0  0  0  0
    1.5014   64.0865   74.7008 H   0  0  0  0  0  0  0  0  0  0  0  0
   -1.0112   65.4969   74.4141 H   0  0  0  0  0  0  0  0  0  0  0  0
  2  1  2  0
  3  2  1  0
  4  3  2  0
  5  4  1  0
  6  5  2  0
  6  1  1  0
  7  6  1  0
  8  7  2  0
  9  7  1  0
 10  9  2  0
 11  5  1  0
 11 10  1  0
 12 11  2  0
 13 10  1  0
 14 13  2  0
 15 14  1  0
 16 15  2  0
 16  9  1  0
 17 13  1  0
 18  4  1  0
 19 18  1  0
 20 19  1  0
 21 20  1  0
 22 21  1  0
 23 22  1  0
 24 23  1  0
 25 16  1  0
 26  1  1  0
 27 26  1  0
 28 27  1  0
 29 28  1  0
 30 29  1  0
 31 30  1  0
 32 31  1  0
  2 33  1  0
  3 34  1  0
 14 35  1  0
 15 36  1  0
 17 37  1  0
 18 38  1  0
 19 39  1  0
 19 40  1  0
 20 41  1  0
 20 42  1  0
 21 43  1  0
 21 44  1  0
 22 45  1  0
 22 46  1  0
 23 47  1  0
 23 48  1  0
 24 49  1  0
 25 50  1  0
 26 51  1  0
 27 52  1  0
 27 53  1  0
 28 54  1  0
 28 55  1  0
 29 56  1  0
 29 57  1  0
 30 58  1  0
 30 59  1  0
 31 60  1  0
 31 61  1  0
 32 62  1  0
M  CHG  2  21   1  29   1
M  END
>  <score>  (9) 
-7.429

$$$$
