=
     RDKit          3D

 35 35  0  0  0  0  0  0  0  0999 V2000
    2.4490   68.4390   65.2670 C   0  0  0  0  0  0  0  0  0  0  0  0
    1.8850   69.0220   64.3380 O   0  0  0  0  0  0  0  0  0  0  0  0
    4.2180   70.7800   69.5710 Cl  0  0  0  0  0  0  0  0  0  0  0  0
    4.4260   70.2230   67.9590 C   0  0  0  0  0  0  0  0  0  0  0  0
    5.6440   70.4160   67.3090 C   0  0  0  0  0  0  0  0  0  0  0  0
    5.8060   69.9750   65.9960 C   0  0  0  0  0  0  0  0  0  0  0  0
    4.7540   69.3320   65.3420 C   0  0  0  0  0  0  0  0  0  0  0  0
    3.5400   69.1180   66.0070 C   0  0  0  0  0  0  0  0  0  0  0  0
    3.3670   69.5820   67.3140 C   0  0  0  0  0  0  0  0  0  0  0  0
    1.9550   67.0450   65.6750 C   0  0  2  0  0  0  0  0  0  0  0  0
    2.2860   65.9020   64.7360 C   0  0  0  0  0  0  0  0  0  0  0  0
    0.4550   67.1190   65.9940 N   0  0  0  0  0  4  0  0  0  0  0  0
   -0.1480   67.6320   67.2910 C   0  0  0  0  0  0  0  0  0  0  0  0
    0.7510   67.3420   68.4920 C   0  0  0  0  0  0  0  0  0  0  0  0
   -0.4690   69.1260   67.1700 C   0  0  0  0  0  0  0  0  0  0  0  0
   -1.4740   66.8640   67.4600 C   0  0  0  0  0  0  0  0  0  0  0  0
    6.4746   70.9145   67.8301 H   0  0  0  0  0  0  0  0  0  0  0  0
    6.7623   70.1338   65.4761 H   0  0  0  0  0  0  0  0  0  0  0  0
    4.8784   68.9929   64.3030 H   0  0  0  0  0  0  0  0  0  0  0  0
    2.4052   69.4433   67.8296 H   0  0  0  0  0  0  0  0  0  0  0  0
    2.5328   66.7767   66.5717 H   0  0  0  0  0  0  0  0  0  0  0  0
    2.5448   65.0084   65.3230 H   0  0  0  0  0  0  0  0  0  0  0  0
    1.4140   65.6842   64.1018 H   0  0  0  0  0  0  0  0  0  0  0  0
    3.1394   66.1839   64.1018 H   0  0  0  0  0  0  0  0  0  0  0  0
    0.0480   67.7076   65.2532 H   0  0  0  0  0  0  0  0  0  0  0  0
    0.2393   66.1155   66.0796 H   0  0  0  0  0  0  0  0  0  0  0  0
    0.1909   67.5227   69.4213 H   0  0  0  0  0  0  0  0  0  0  0  0
    1.0789   66.2925   68.4596 H   0  0  0  0  0  0  0  0  0  0  0  0
    1.6304   68.0021   68.4596 H   0  0  0  0  0  0  0  0  0  0  0  0
   -0.5630   69.5634   68.1749 H   0  0  0  0  0  0  0  0  0  0  0  0
    0.3409   69.6320   66.6241 H   0  0  0  0  0  0  0  0  0  0  0  0
   -1.4153   69.2547   66.6241 H   0  0  0  0  0  0  0  0  0  0  0  0
   -1.6910   66.7383   68.5310 H   0  0  0  0  0  0  0  0  0  0  0  0
   -2.2887   67.4300   66.9848 H   0  0  0  0  0  0  0  0  0  0  0  0
   -1.3884   65.8756   66.9848 H   0  0  0  0  0  0  0  0  0  0  0  0
  2  1  2  0
  4  3  1  0
  5  4  2  0
  6  5  1  0
  7  6  2  0
  8  7  1  0
  8  1  1  0
  9  8  2  0
  9  4  1  0
 10  1  1  0
 11 10  1  0
 12 10  1  0
 13 12  1  0
 14 13  1  0
 15 13  1  0
 16 13  1  0
  5 17  1  0
  6 18  1  0
  7 19  1  0
  9 20  1  0
 10 21  1  1
 11 22  1  0
 11 23  1  0
 11 24  1  0
 12 25  1  0
 12 26  1  0
 14 27  1  0
 14 28  1  0
 14 29  1  0
 15 30  1  0
 15 31  1  0
 15 32  1  0
 16 33  1  0
 16 34  1  0
 16 35  1  0
M  CHG  1  12   1
M  END
>  <score>  (1) 
-8.465

$$$$
=
     RDKit          3D

 35 35  0  0  0  0  0  0  0  0999 V2000
    2.4420   68.5740   65.6370 C   0  0  0  0  0  0  0  0  0  0  0  0
    2.1680   69.1310   64.5710 O   0  0  0  0  0  0  0  0  0  0  0  0
    6.9680   70.6130   67.2160 Cl  0  0  0  0  0  0  0  0  0  0  0  0
    5.3060   70.2500   67.4610 C   0  0  0  0  0  0  0  0  0  0  0  0
    4.6810   70.6260   68.6490 C   0  0  0  0  0  0  0  0  0  0  0  0
    3.3350   70.3180   68.8500 C   0  0  0  0  0  0  0  0  0  0  0  0
    2.6180   69.6470   67.8590 C   0  0  0  0  0  0  0  0  0  0  0  0
    3.2440   69.2940   66.6570 C   0  0  0  0  0  0  0  0  0  0  0  0
    4.5990   69.5780   66.4630 C   0  0  0  0  0  0  0  0  0  0  0  0
    1.8850   67.1710   65.9040 C   0  0  2  0  0  0  0  0  0  0  0  0
    2.3660   66.0600   64.9910 C   0  0  0  0  0  0  0  0  0  0  0  0
    0.3530   67.2450   65.9710 N   0  0  0  0  0  4  0  0  0  0  0  0
   -0.4640   67.5490   67.2160 C   0  0  0  0  0  0  0  0  0  0  0  0
   -1.8040   66.8140   67.2120 C   0  0  0  0  0  0  0  0  0  0  0  0
    0.3520   67.2330   68.4740 C   0  0  0  0  0  0  0  0  0  0  0  0
   -0.7250   69.0670   67.1770 C   0  0  0  0  0  0  0  0  0  0  0  0
    5.2465   71.1632   69.4246 H   0  0  0  0  0  0  0  0  0  0  0  0
    2.8394   70.6041   69.7894 H   0  0  0  0  0  0  0  0  0  0  0  0
    1.5597   69.3949   68.0220 H   0  0  0  0  0  0  0  0  0  0  0  0
    5.1027   69.2749   65.5333 H   0  0  0  0  0  0  0  0  0  0  0  0
    2.3050   66.8656   66.8737 H   0  0  0  0  0  0  0  0  0  0  0  0
    2.7304   65.2183   65.5983 H   0  0  0  0  0  0  0  0  0  0  0  0
    1.5340   65.7210   64.3562 H   0  0  0  0  0  0  0  0  0  0  0  0
    3.1825   66.4347   64.3562 H   0  0  0  0  0  0  0  0  0  0  0  0
    0.0855   67.9673   65.2871 H   0  0  0  0  0  0  0  0  0  0  0  0
    0.1191   66.2504   65.8409 H   0  0  0  0  0  0  0  0  0  0  0  0
   -2.1279   66.6364   68.2481 H   0  0  0  0  0  0  0  0  0  0  0  0
   -2.5562   67.4258   66.6925 H   0  0  0  0  0  0  0  0  0  0  0  0
   -1.6924   65.8509   66.6925 H   0  0  0  0  0  0  0  0  0  0  0  0
   -0.2467   67.4648   69.3672 H   0  0  0  0  0  0  0  0  0  0  0  0
    0.6199   66.1661   68.4789 H   0  0  0  0  0  0  0  0  0  0  0  0
    1.2686   67.8412   68.4789 H   0  0  0  0  0  0  0  0  0  0  0  0
   -0.7916   69.4541   68.2045 H   0  0  0  0  0  0  0  0  0  0  0  0
    0.1003   69.5675   66.6493 H   0  0  0  0  0  0  0  0  0  0  0  0
   -1.6700   69.2631   66.6493 H   0  0  0  0  0  0  0  0  0  0  0  0
  2  1  2  0
  4  3  1  0
  5  4  2  0
  6  5  1  0
  7  6  2  0
  8  7  1  0
  8  1  1  0
  9  8  2  0
  9  4  1  0
 10  1  1  0
 11 10  1  0
 12 10  1  0
 13 12  1  0
 14 13  1  0
 15 13  1  0
 16 13  1  0
  5 17  1  0
  6 18  1  0
  7 19  1  0
  9 20  1  0
 10 21  1  1
 11 22  1  0
 11 23  1  0
 11 24  1  0
 12 25  1  0
 12 26  1  0
 14 27  1  0
 14 28  1  0
 14 29  1  0
 15 30  1  0
 15 31  1  0
 15 32  1  0
 16 33  1  0
 16 34  1  0
 16 35  1  0
M  CHG  1  12   1
M  END
>  <score>  (2) 
-8.179

$$$$
=
     RDKit          3D

 35 35  0  0  0  0  0  0  0  0999 V2000
    2.1230   68.4540   66.0450 C   0  0  0  0  0  0  0  0  0  0  0  0
    1.5220   67.4730   66.4900 O   0  0  0  0  0  0  0  0  0  0  0  0
    6.7490   70.5830   67.1400 Cl  0  0  0  0  0  0  0  0  0  0  0  0
    5.1060   70.2560   67.5240 C   0  0  0  0  0  0  0  0  0  0  0  0
    4.5620   70.7390   68.7130 C   0  0  0  0  0  0  0  0  0  0  0  0
    3.2320   70.4620   69.0290 C   0  0  0  0  0  0  0  0  0  0  0  0
    2.4480   69.7140   68.1480 C   0  0  0  0  0  0  0  0  0  0  0  0
    2.9920   69.2520   66.9430 C   0  0  0  0  0  0  0  0  0  0  0  0
    4.3320   69.5070   66.6370 C   0  0  0  0  0  0  0  0  0  0  0  0
    2.0040   68.7800   64.5520 C   0  0  2  0  0  0  0  0  0  0  0  0
    0.6010   68.8710   63.9820 C   0  0  0  0  0  0  0  0  0  0  0  0
    2.8920   67.8140   63.7560 N   0  0  0  0  0  4  0  0  0  0  0  0
    3.8890   68.2120   62.6810 C   0  0  0  0  0  0  0  0  0  0  0  0
    3.1930   68.6940   61.4080 C   0  0  0  0  0  0  0  0  0  0  0  0
    4.8640   69.2610   63.2250 C   0  0  0  0  0  0  0  0  0  0  0  0
    4.6850   66.9310   62.3620 C   0  0  0  0  0  0  0  0  0  0  0  0
    5.1795   71.3366   69.3997 H   0  0  0  0  0  0  0  0  0  0  0  0
    2.8012   70.8323   69.9710 H   0  0  0  0  0  0  0  0  0  0  0  0
    1.4017   69.4874   68.4009 H   0  0  0  0  0  0  0  0  0  0  0  0
    4.7720   69.1208   65.7058 H   0  0  0  0  0  0  0  0  0  0  0  0
    2.3596   69.8156   64.4465 H   0  0  0  0  0  0  0  0  0  0  0  0
   -0.1269   68.9182   64.8053 H   0  0  0  0  0  0  0  0  0  0  0  0
    0.5145   69.7766   63.3637 H   0  0  0  0  0  0  0  0  0  0  0  0
    0.3982   67.9841   63.3637 H   0  0  0  0  0  0  0  0  0  0  0  0
    3.4426   67.3057   64.4627 H   0  0  0  0  0  0  0  0  0  0  0  0
    2.1782   67.3500   63.1763 H   0  0  0  0  0  0  0  0  0  0  0  0
    2.3161   69.3013   61.6770 H   0  0  0  0  0  0  0  0  0  0  0  0
    3.8924   69.3021   60.8155 H   0  0  0  0  0  0  0  0  0  0  0  0
    2.8697   67.8254   60.8155 H   0  0  0  0  0  0  0  0  0  0  0  0
    4.8466   69.2423   64.3247 H   0  0  0  0  0  0  0  0  0  0  0  0
    5.8806   69.0355   62.8705 H   0  0  0  0  0  0  0  0  0  0  0  0
    4.5649   70.2584   62.8705 H   0  0  0  0  0  0  0  0  0  0  0  0
    4.9876   66.4440   63.3008 H   0  0  0  0  0  0  0  0  0  0  0  0
    4.0548   66.2434   61.7788 H   0  0  0  0  0  0  0  0  0  0  0  0
    5.5806   67.1915   61.7788 H   0  0  0  0  0  0  0  0  0  0  0  0
  2  1  2  0
  4  3  1  0
  5  4  2  0
  6  5  1  0
  7  6  2  0
  8  7  1  0
  8  1  1  0
  9  8  2  0
  9  4  1  0
 10  1  1  0
 11 10  1  0
 12 10  1  0
 13 12  1  0
 14 13  1  0
 15 13  1  0
 16 13  1  0
  5 17  1  0
  6 18  1  0
  7 19  1  0
  9 20  1  0
 10 21  1  1
 11 22  1  0
 11 23  1  0
 11 24  1  0
 12 25  1  0
 12 26  1  0
 14 27  1  0
 14 28  1  0
 14 29  1  0
 15 30  1  0
 15 31  1  0
 15 32  1  0
 16 33  1  0
 16 34  1  0
 16 35  1  0
M  CHG  1  12   1
M  END
>  <score>  (3) 
-7.919

$$$$
=
     RDKit          3D

 35 35  0  0  0  0  0  0  0  0999 V2000
    2.1520   67.4160   65.0430 C   0  0  0  0  0  0  0  0  0  0  0  0
    2.2710   66.2090   65.2650 O   0  0  0  0  0  0  0  0  0  0  0  0
    4.5000   70.6170   68.4160 Cl  0  0  0  0  0  0  0  0  0  0  0  0
    4.4010   69.8430   66.8850 C   0  0  0  0  0  0  0  0  0  0  0  0
    5.3780   70.0840   65.9200 C   0  0  0  0  0  0  0  0  0  0  0  0
    5.2880   69.4640   64.6740 C   0  0  0  0  0  0  0  0  0  0  0  0
    4.2280   68.5970   64.4020 C   0  0  0  0  0  0  0  0  0  0  0  0
    3.2630   68.3380   65.3830 C   0  0  0  0  0  0  0  0  0  0  0  0
    3.3370   68.9780   66.6230 C   0  0  0  0  0  0  0  0  0  0  0  0
    0.8770   67.9210   64.3560 C   0  0  2  0  0  0  0  0  0  0  0  0
    1.0210   68.4180   62.9310 C   0  0  0  0  0  0  0  0  0  0  0  0
    0.1940   68.9530   65.2650 N   0  0  0  0  0  4  0  0  0  0  0  0
   -0.8560   68.6440   66.3180 C   0  0  0  0  0  0  0  0  0  0  0  0
   -2.2750   68.8500   65.7870 C   0  0  0  0  0  0  0  0  0  0  0  0
   -0.6560   67.2270   66.8660 C   0  0  0  0  0  0  0  0  0  0  0  0
   -0.5990   69.6450   67.4620 C   0  0  0  0  0  0  0  0  0  0  0  0
    6.2167   70.7607   66.1406 H   0  0  0  0  0  0  0  0  0  0  0  0
    6.0515   69.6579   63.9062 H   0  0  0  0  0  0  0  0  0  0  0  0
    4.1508   68.1166   63.4155 H   0  0  0  0  0  0  0  0  0  0  0  0
    2.5641   68.8019   67.3856 H   0  0  0  0  0  0  0  0  0  0  0  0
    0.2402   67.0339   64.2238 H   0  0  0  0  0  0  0  0  0  0  0  0
    1.3271   69.4745   62.9403 H   0  0  0  0  0  0  0  0  0  0  0  0
    1.7829   67.8201   62.4094 H   0  0  0  0  0  0  0  0  0  0  0  0
    0.0575   68.3200   62.4094 H   0  0  0  0  0  0  0  0  0  0  0  0
    0.9602   69.4176   65.7729 H   0  0  0  0  0  0  0  0  0  0  0  0
   -0.3857   69.4477   64.5721 H   0  0  0  0  0  0  0  0  0  0  0  0
   -2.9717   68.9511   66.6322 H   0  0  0  0  0  0  0  0  0  0  0  0
   -2.3080   69.7624   65.1734 H   0  0  0  0  0  0  0  0  0  0  0  0
   -2.5661   67.9847   65.1734 H   0  0  0  0  0  0  0  0  0  0  0  0
   -0.6600   67.2552   67.9656 H   0  0  0  0  0  0  0  0  0  0  0  0
   -1.4716   66.5788   66.5129 H   0  0  0  0  0  0  0  0  0  0  0  0
    0.3071   66.8298   66.5129 H   0  0  0  0  0  0  0  0  0  0  0  0
   -0.7293   69.1377   68.4293 H   0  0  0  0  0  0  0  0  0  0  0  0
    0.4277   70.0324   67.3865 H   0  0  0  0  0  0  0  0  0  0  0  0
   -1.3121   70.4791   67.3865 H   0  0  0  0  0  0  0  0  0  0  0  0
  2  1  2  0
  4  3  1  0
  5  4  2  0
  6  5  1  0
  7  6  2  0
  8  7  1  0
  8  1  1  0
  9  8  2  0
  9  4  1  0
 10  1  1  0
 11 10  1  0
 12 10  1  0
 13 12  1  0
 14 13  1  0
 15 13  1  0
 16 13  1  0
  5 17  1  0
  6 18  1  0
  7 19  1  0
  9 20  1  0
 10 21  1  6
 11 22  1  0
 11 23  1  0
 11 24  1  0
 12 25  1  0
 12 26  1  0
 14 27  1  0
 14 28  1  0
 14 29  1  0
 15 30  1  0
 15 31  1  0
 15 32  1  0
 16 33  1  0
 16 34  1  0
 16 35  1  0
M  CHG  1  12   1
M  END
>  <score>  (4) 
-7.065

$$$$
=
     RDKit          3D

 35 35  0  0  0  0  0  0  0  0999 V2000
    1.7540   68.3930   64.9460 C   0  0  0  0  0  0  0  0  0  0  0  0
    0.8360   69.0520   64.4510 O   0  0  0  0  0  0  0  0  0  0  0  0
    6.0920   69.4630   62.2680 Cl  0  0  0  0  0  0  0  0  0  0  0  0
    5.1870   69.4270   63.7290 C   0  0  0  0  0  0  0  0  0  0  0  0
    5.7610   69.8890   64.9130 C   0  0  0  0  0  0  0  0  0  0  0  0
    5.0280   69.8470   66.0990 C   0  0  0  0  0  0  0  0  0  0  0  0
    3.7220   69.3550   66.0950 C   0  0  0  0  0  0  0  0  0  0  0  0
    3.1410   68.9160   64.8990 C   0  0  0  0  0  0  0  0  0  0  0  0
    3.8810   68.9330   63.7130 C   0  0  0  0  0  0  0  0  0  0  0  0
    1.4200   67.0780   65.6610 C   0  0  2  0  0  0  0  0  0  0  0  0
    1.8750   65.7990   64.9850 C   0  0  0  0  0  0  0  0  0  0  0  0
   -0.0790   67.0560   65.9950 N   0  0  0  0  0  4  0  0  0  0  0  0
   -0.6970   67.4980   67.3100 C   0  0  0  0  0  0  0  0  0  0  0  0
   -2.0610   66.8490   67.5450 C   0  0  0  0  0  0  0  0  0  0  0  0
    0.2680   67.2230   68.4680 C   0  0  0  0  0  0  0  0  0  0  0  0
   -0.8820   69.0230   67.1870 C   0  0  0  0  0  0  0  0  0  0  0  0
    6.7873   70.2848   64.9116 H   0  0  0  0  0  0  0  0  0  0  0  0
    5.4793   70.2016   67.0374 H   0  0  0  0  0  0  0  0  0  0  0  0
    3.1483   69.3120   67.0326 H   0  0  0  0  0  0  0  0  0  0  0  0
    3.4390   68.5611   62.7769 H   0  0  0  0  0  0  0  0  0  0  0  0
    2.0257   67.0783   66.5792 H   0  0  0  0  0  0  0  0  0  0  0  0
    2.1400   65.0542   65.7499 H   0  0  0  0  0  0  0  0  0  0  0  0
    1.0613   65.4065   64.3574 H   0  0  0  0  0  0  0  0  0  0  0  0
    2.7537   66.0086   64.3574 H   0  0  0  0  0  0  0  0  0  0  0  0
   -0.5270   67.6395   65.2741 H   0  0  0  0  0  0  0  0  0  0  0  0
   -0.2353   66.0397   66.0551 H   0  0  0  0  0  0  0  0  0  0  0  0
   -2.2442   66.7618   68.6261 H   0  0  0  0  0  0  0  0  0  0  0  0
   -2.8460   67.4701   67.0890 H   0  0  0  0  0  0  0  0  0  0  0  0
   -2.0743   65.8481   67.0890 H   0  0  0  0  0  0  0  0  0  0  0  0
   -0.2548   67.3720   69.4243 H   0  0  0  0  0  0  0  0  0  0  0  0
    0.6297   66.1860   68.4055 H   0  0  0  0  0  0  0  0  0  0  0  0
    1.1220   67.9135   68.4055 H   0  0  0  0  0  0  0  0  0  0  0  0
   -0.9360   69.4680   68.1915 H   0  0  0  0  0  0  0  0  0  0  0  0
   -0.0294   69.4529   66.6408 H   0  0  0  0  0  0  0  0  0  0  0  0
   -1.8126   69.2366   66.6408 H   0  0  0  0  0  0  0  0  0  0  0  0
  2  1  2  0
  4  3  1  0
  5  4  2  0
  6  5  1  0
  7  6  2  0
  8  7  1  0
  8  1  1  0
  9  8  2  0
  9  4  1  0
 10  1  1  0
 11 10  1  0
 12 10  1  0
 13 12  1  0
 14 13  1  0
 15 13  1  0
 16 13  1  0
  5 17  1  0
  6 18  1  0
  7 19  1  0
  9 20  1  0
 10 21  1  1
 11 22  1  0
 11 23  1  0
 11 24  1  0
 12 25  1  0
 12 26  1  0
 14 27  1  0
 14 28  1  0
 14 29  1  0
 15 30  1  0
 15 31  1  0
 15 32  1  0
 16 33  1  0
 16 34  1  0
 16 35  1  0
M  CHG  1  12   1
M  END
>  <score>  (5) 
-7.026

$$$$
=
     RDKit          3D

 35 35  0  0  0  0  0  0  0  0999 V2000
    2.6770   70.0800   68.1170 C   0  0  0  0  0  0  0  0  0  0  0  0
    2.1790   70.8590   68.9330 O   0  0  0  0  0  0  0  0  0  0  0  0
    7.5430   71.0690   69.6910 Cl  0  0  0  0  0  0  0  0  0  0  0  0
    6.4110   70.5870   68.4910 C   0  0  0  0  0  0  0  0  0  0  0  0
    6.8540   70.2480   67.2140 C   0  0  0  0  0  0  0  0  0  0  0  0
    5.9320   69.8700   66.2380 C   0  0  0  0  0  0  0  0  0  0  0  0
    4.5710   69.8210   66.5480 C   0  0  0  0  0  0  0  0  0  0  0  0
    4.1330   70.1380   67.8400 C   0  0  0  0  0  0  0  0  0  0  0  0
    5.0530   70.5420   68.8120 C   0  0  0  0  0  0  0  0  0  0  0  0
    1.7810   69.0220   67.4610 C   0  0  2  0  0  0  0  0  0  0  0  0
    1.2630   67.9140   68.3590 C   0  0  0  0  0  0  0  0  0  0  0  0
    2.4840   68.4760   66.2110 N   0  0  0  0  0  4  0  0  0  0  0  0
    1.8080   68.1400   64.8930 C   0  0  0  0  0  0  0  0  0  0  0  0
    0.3540   68.6120   64.8620 C   0  0  0  0  0  0  0  0  0  0  0  0
    2.6150   68.7120   63.7230 C   0  0  0  0  0  0  0  0  0  0  0  0
    1.8380   66.6020   64.7950 C   0  0  0  0  0  0  0  0  0  0  0  0
    7.9276   70.2784   66.9764 H   0  0  0  0  0  0  0  0  0  0  0  0
    6.2762   69.6109   65.2259 H   0  0  0  0  0  0  0  0  0  0  0  0
    3.8420   69.5330   65.7762 H   0  0  0  0  0  0  0  0  0  0  0  0
    4.7105   70.8215   69.8193 H   0  0  0  0  0  0  0  0  0  0  0  0
    0.8530   69.5466   67.1897 H   0  0  0  0  0  0  0  0  0  0  0  0
    1.3978   68.2023   69.4120 H   0  0  0  0  0  0  0  0  0  0  0  0
    0.1942   67.7486   68.1580 H   0  0  0  0  0  0  0  0  0  0  0  0
    1.8215   66.9879   68.1580 H   0  0  0  0  0  0  0  0  0  0  0  0
    3.2041   69.1743   65.9771 H   0  0  0  0  0  0  0  0  0  0  0  0
    2.7219   67.5286   66.5378 H   0  0  0  0  0  0  0  0  0  0  0  0
   -0.0147   68.7317   65.8914 H   0  0  0  0  0  0  0  0  0  0  0  0
    0.2926   69.5762   64.3361 H   0  0  0  0  0  0  0  0  0  0  0  0
   -0.2620   67.8677   64.3361 H   0  0  0  0  0  0  0  0  0  0  0  0
    3.4543   69.3069   64.1126 H   0  0  0  0  0  0  0  0  0  0  0  0
    3.0044   67.8872   63.1082 H   0  0  0  0  0  0  0  0  0  0  0  0
    1.9657   69.3527   63.1082 H   0  0  0  0  0  0  0  0  0  0  0  0
    1.8464   66.1702   65.8067 H   0  0  0  0  0  0  0  0  0  0  0  0
    0.9465   66.2516   64.2542 H   0  0  0  0  0  0  0  0  0  0  0  0
    2.7425   66.2866   64.2542 H   0  0  0  0  0  0  0  0  0  0  0  0
  2  1  2  0
  4  3  1  0
  5  4  2  0
  6  5  1  0
  7  6  2  0
  8  7  1  0
  8  1  1  0
  9  8  2  0
  9  4  1  0
 10  1  1  0
 11 10  1  0
 12 10  1  0
 13 12  1  0
 14 13  1  0
 15 13  1  0
 16 13  1  0
  5 17  1  0
  6 18  1  0
  7 19  1  0
  9 20  1  0
 10 21  1  6
 11 22  1  0
 11 23  1  0
 11 24  1  0
 12 25  1  0
 12 26  1  0
 14 27  1  0
 14 28  1  0
 14 29  1  0
 15 30  1  0
 15 31  1  0
 15 32  1  0
 16 33  1  0
 16 34  1  0
 16 35  1  0
M  CHG  1  12   1
M  END
>  <score>  (6) 
-6.923

$$$$
=
     RDKit          3D

 35 35  0  0  0  0  0  0  0  0999 V2000
    2.5590   69.0020   65.7380 C   0  0  0  0  0  0  0  0  0  0  0  0
    1.5370   68.8640   66.4170 O   0  0  0  0  0  0  0  0  0  0  0  0
    5.1210   70.6830   69.9510 Cl  0  0  0  0  0  0  0  0  0  0  0  0
    5.0380   70.3380   68.2690 C   0  0  0  0  0  0  0  0  0  0  0  0
    6.1470   70.5700   67.4570 C   0  0  0  0  0  0  0  0  0  0  0  0
    6.0730   70.3020   66.0900 C   0  0  0  0  0  0  0  0  0  0  0  0
    4.8940   69.7910   65.5440 C   0  0  0  0  0  0  0  0  0  0  0  0
    3.7910   69.5360   66.3670 C   0  0  0  0  0  0  0  0  0  0  0  0
    3.8540   69.8290   67.7330 C   0  0  0  0  0  0  0  0  0  0  0  0
    2.5410   68.5500   64.2730 C   0  0  2  0  0  0  0  0  0  0  0  0
    1.2710   68.8210   63.4900 C   0  0  0  0  0  0  0  0  0  0  0  0
    2.9660   67.0770   64.1980 N   0  0  0  0  0  4  0  0  0  0  0  0
    4.1650   66.5420   63.4330 C   0  0  0  0  0  0  0  0  0  0  0  0
    4.2140   65.0140   63.4480 C   0  0  0  0  0  0  0  0  0  0  0  0
    4.1710   67.0950   62.0040 C   0  0  0  0  0  0  0  0  0  0  0  0
    5.4020   67.0900   64.1700 C   0  0  0  0  0  0  0  0  0  0  0  0
    7.0774   70.9631   67.8927 H   0  0  0  0  0  0  0  0  0  0  0  0
    6.9421   70.4930   65.4433 H   0  0  0  0  0  0  0  0  0  0  0  0
    4.8318   69.5884   64.4646 H   0  0  0  0  0  0  0  0  0  0  0  0
    2.9794   69.6601   68.3784 H   0  0  0  0  0  0  0  0  0  0  0  0
    3.2679   69.1938   63.7562 H   0  0  0  0  0  0  0  0  0  0  0  0
    0.4402   68.9983   64.1888 H   0  0  0  0  0  0  0  0  0  0  0  0
    1.4132   69.7090   62.8566 H   0  0  0  0  0  0  0  0  0  0  0  0
    1.0383   67.9523   62.8566 H   0  0  0  0  0  0  0  0  0  0  0  0
    3.1147   66.7865   65.1749 H   0  0  0  0  0  0  0  0  0  0  0  0
    2.2008   66.6976   63.6223 H   0  0  0  0  0  0  0  0  0  0  0  0
    4.2254   64.6577   64.4886 H   0  0  0  0  0  0  0  0  0  0  0  0
    3.3282   64.6137   62.9331 H   0  0  0  0  0  0  0  0  0  0  0  0
    5.1236   64.6712   62.9331 H   0  0  0  0  0  0  0  0  0  0  0  0
    4.1829   68.1945   62.0364 H   0  0  0  0  0  0  0  0  0  0  0  0
    5.0653   66.7340   61.4749 H   0  0  0  0  0  0  0  0  0  0  0  0
    3.2691   66.7535   61.4749 H   0  0  0  0  0  0  0  0  0  0  0  0
    5.2428   67.0195   65.2561 H   0  0  0  0  0  0  0  0  0  0  0  0
    6.2870   66.4997   63.8900 H   0  0  0  0  0  0  0  0  0  0  0  0
    5.5594   68.1421   63.8900 H   0  0  0  0  0  0  0  0  0  0  0  0
  2  1  2  0
  4  3  1  0
  5  4  2  0
  6  5  1  0
  7  6  2  0
  8  7  1  0
  8  1  1  0
  9  8  2  0
  9  4  1  0
 10  1  1  0
 11 10  1  0
 12 10  1  0
 13 12  1  0
 14 13  1  0
 15 13  1  0
 16 13  1  0
  5 17  1  0
  6 18  1  0
  7 19  1  0
  9 20  1  0
 10 21  1  6
 11 22  1  0
 11 23  1  0
 11 24  1  0
 12 25  1  0
 12 26  1  0
 14 27  1  0
 14 28  1  0
 14 29  1  0
 15 30  1  0
 15 31  1  0
 15 32  1  0
 16 33  1  0
 16 34  1  0
 16 35  1  0
M  CHG  1  12   1
M  END
>  <score>  (7) 
-6.905

$$$$
=
     RDKit          3D

 35 35  0  0  0  0  0  0  0  0999 V2000
    2.6680   68.2390   65.2760 C   0  0  0  0  0  0  0  0  0  0  0  0
    3.1530   69.0550   66.0640 O   0  0  0  0  0  0  0  0  0  0  0  0
    0.0990   69.6950   60.9850 Cl  0  0  0  0  0  0  0  0  0  0  0  0
    1.5310   69.1960   61.7940 C   0  0  0  0  0  0  0  0  0  0  0  0
    2.7190   69.0540   61.0780 C   0  0  0  0  0  0  0  0  0  0  0  0
    3.8770   68.6360   61.7340 C   0  0  0  0  0  0  0  0  0  0  0  0
    3.8440   68.3720   63.1050 C   0  0  0  0  0  0  0  0  0  0  0  0
    2.6540   68.5400   63.8240 C   0  0  0  0  0  0  0  0  0  0  0  0
    1.4870   68.9340   63.1640 C   0  0  0  0  0  0  0  0  0  0  0  0
    2.1510   66.9020   65.8200 C   0  0  2  0  0  0  0  0  0  0  0  0
    2.5420   65.6550   65.0490 C   0  0  0  0  0  0  0  0  0  0  0  0
    0.6350   67.0010   66.0350 N   0  0  0  0  0  4  0  0  0  0  0  0
   -0.0480   67.5890   67.2580 C   0  0  0  0  0  0  0  0  0  0  0  0
   -0.2930   69.0900   67.1080 C   0  0  0  0  0  0  0  0  0  0  0  0
   -1.3450   66.8300   67.5570 C   0  0  0  0  0  0  0  0  0  0  0  0
    0.9290   67.3550   68.4270 C   0  0  0  0  0  0  0  0  0  0  0  0
    2.7430   69.2708   59.9998 H   0  0  0  0  0  0  0  0  0  0  0  0
    4.8149   68.5145   61.1722 H   0  0  0  0  0  0  0  0  0  0  0  0
    4.7540   68.0316   63.6208 H   0  0  0  0  0  0  0  0  0  0  0  0
    0.5428   69.0366   63.7190 H   0  0  0  0  0  0  0  0  0  0  0  0
    2.6716   66.7501   66.7771 H   0  0  0  0  0  0  0  0  0  0  0  0
    2.7941   64.8508   65.7559 H   0  0  0  0  0  0  0  0  0  0  0  0
    1.7006   65.3364   64.4161 H   0  0  0  0  0  0  0  0  0  0  0  0
    3.4147   65.8738   64.4161 H   0  0  0  0  0  0  0  0  0  0  0  0
    0.2824   67.5487   65.2371 H   0  0  0  0  0  0  0  0  0  0  0  0
    0.4063   66.0049   66.1630 H   0  0  0  0  0  0  0  0  0  0  0  0
   -0.3682   69.5506   68.1041 H   0  0  0  0  0  0  0  0  0  0  0  0
    0.5428   69.5446   66.5560 H   0  0  0  0  0  0  0  0  0  0  0  0
   -1.2300   69.2552   66.5560 H   0  0  0  0  0  0  0  0  0  0  0  0
   -1.4807   66.7506   68.6457 H   0  0  0  0  0  0  0  0  0  0  0  0
   -2.1963   67.3724   67.1200 H   0  0  0  0  0  0  0  0  0  0  0  0
   -1.2891   65.8221   67.1200 H   0  0  0  0  0  0  0  0  0  0  0  0
    0.3965   67.4825   69.3810 H   0  0  0  0  0  0  0  0  0  0  0  0
    1.3347   66.3343   68.3671 H   0  0  0  0  0  0  0  0  0  0  0  0
    1.7531   68.0812   68.3671 H   0  0  0  0  0  0  0  0  0  0  0  0
  2  1  2  0
  4  3  1  0
  5  4  2  0
  6  5  1  0
  7  6  2  0
  8  7  1  0
  8  1  1  0
  9  8  2  0
  9  4  1  0
 10  1  1  0
 11 10  1  0
 12 10  1  0
 13 12  1  0
 14 13  1  0
 15 13  1  0
 16 13  1  0
  5 17  1  0
  6 18  1  0
  7 19  1  0
  9 20  1  0
 10 21  1  1
 11 22  1  0
 11 23  1  0
 11 24  1  0
 12 25  1  0
 12 26  1  0
 14 27  1  0
 14 28  1  0
 14 29  1  0
 15 30  1  0
 15 31  1  0
 15 32  1  0
 16 33  1  0
 16 34  1  0
 16 35  1  0
M  CHG  1  12   1
M  END
>  <score>  (8) 
-6.785

$$$$
=
     RDKit          3D

 35 35  0  0  0  0  0  0  0  0999 V2000
   -0.1350   68.7250   64.7860 C   0  0  0  0  0  0  0  0  0  0  0  0
   -1.3420   68.6950   64.5300 O   0  0  0  0  0  0  0  0  0  0  0  0
    3.0570   69.7210   68.7800 Cl  0  0  0  0  0  0  0  0  0  0  0  0
    1.7810   68.8310   68.0500 C   0  0  0  0  0  0  0  0  0  0  0  0
    1.1620   67.7990   68.7550 C   0  0  0  0  0  0  0  0  0  0  0  0
    0.1350   67.0700   68.1550 C   0  0  0  0  0  0  0  0  0  0  0  0
   -0.2770   67.3830   66.8580 C   0  0  0  0  0  0  0  0  0  0  0  0
    0.3310   68.4360   66.1640 C   0  0  0  0  0  0  0  0  0  0  0  0
    1.3780   69.1520   66.7530 C   0  0  0  0  0  0  0  0  0  0  0  0
    0.8560   68.9960   63.6480 C   0  0  2  0  0  0  0  0  0  0  0  0
    0.2700   69.4500   62.3250 C   0  0  0  0  0  0  0  0  0  0  0  0
    1.7780   67.7790   63.4870 N   0  0  0  0  0  4  0  0  0  0  0  0
    3.2970   67.8170   63.4730 C   0  0  0  0  0  0  0  0  0  0  0  0
    3.8430   69.0570   64.1800 C   0  0  0  0  0  0  0  0  0  0  0  0
    3.8640   66.5260   64.0730 C   0  0  0  0  0  0  0  0  0  0  0  0
    3.6940   67.8730   61.9840 C   0  0  0  0  0  0  0  0  0  0  0  0
    1.4823   67.5608   69.7800 H   0  0  0  0  0  0  0  0  0  0  0  0
   -0.3500   66.2490   68.7034 H   0  0  0  0  0  0  0  0  0  0  0  0
   -1.0800   66.8017   66.3812 H   0  0  0  0  0  0  0  0  0  0  0  0
    1.8788   69.9600   66.1996 H   0  0  0  0  0  0  0  0  0  0  0  0
    1.4280   69.8827   63.9590 H   0  0  0  0  0  0  0  0  0  0  0  0
   -0.5869   70.1139   62.5121 H   0  0  0  0  0  0  0  0  0  0  0  0
    1.0360   69.9927   61.7517 H   0  0  0  0  0  0  0  0  0  0  0  0
   -0.0641   68.5727   61.7517 H   0  0  0  0  0  0  0  0  0  0  0  0
    1.5289   67.1449   64.2595 H   0  0  0  0  0  0  0  0  0  0  0  0
    1.5947   67.5435   62.5012 H   0  0  0  0  0  0  0  0  0  0  0  0
    3.7807   68.9154   65.2691 H   0  0  0  0  0  0  0  0  0  0  0  0
    4.8927   69.2121   63.8899 H   0  0  0  0  0  0  0  0  0  0  0  0
    3.2487   69.9360   63.8899 H   0  0  0  0  0  0  0  0  0  0  0  0
    3.8364   66.5889   65.1709 H   0  0  0  0  0  0  0  0  0  0  0  0
    3.2590   65.6700   63.7394 H   0  0  0  0  0  0  0  0  0  0  0  0
    4.9036   66.3924   63.7394 H   0  0  0  0  0  0  0  0  0  0  0  0
    4.7800   68.0262   61.8996 H   0  0  0  0  0  0  0  0  0  0  0  0
    3.4180   66.9270   61.4951 H   0  0  0  0  0  0  0  0  0  0  0  0
    3.1671   68.7057   61.4951 H   0  0  0  0  0  0  0  0  0  0  0  0
  2  1  2  0
  4  3  1  0
  5  4  2  0
  6  5  1  0
  7  6  2  0
  8  7  1  0
  8  1  1  0
  9  8  2  0
  9  4  1  0
 10  1  1  0
 11 10  1  0
 12 10  1  0
 13 12  1  0
 14 13  1  0
 15 13  1  0
 16 13  1  0
  5 17  1  0
  6 18  1  0
  7 19  1  0
  9 20  1  0
 10 21  1  1
 11 22  1  0
 11 23  1  0
 11 24  1  0
 12 25  1  0
 12 26  1  0
 14 27  1  0
 14 28  1  0
 14 29  1  0
 15 30  1  0
 15 31  1  0
 15 32  1  0
 16 33  1  0
 16 34  1  0
 16 35  1  0
M  CHG  1  12   1
M  END
>  <score>  (9) 
-6.715

$$$$
