=
     RDKit          3D

 24 25  0  0  0  0  0  0  0  0999 V2000
    2.5500   69.0820   64.2760 O   0  0  0  0  0  0  0  0  0  0  0  0
    2.5440   68.6980   65.4390 C   0  0  0  0  0  0  0  0  0  0  0  0
    3.3230   69.3570   66.5080 C   0  0  0  0  0  0  0  0  0  0  0  0
    4.6720   69.6250   66.3080 C   0  0  0  0  0  0  0  0  0  0  0  0
    5.3830   70.2260   67.3430 C   0  0  0  0  0  0  0  0  0  0  0  0
    4.7270   70.5300   68.5320 C   0  0  0  0  0  0  0  0  0  0  0  0
    3.3820   70.2160   68.6430 C   0  0  0  0  0  0  0  0  0  0  0  0
    2.6660   69.6260   67.6620 N   0  0  0  0  0  0  0  0  0  0  0  0
    1.7360   67.4870   65.8160 C   0  0  0  0  0  0  0  0  0  0  0  0
    2.2940   66.3970   65.7660 O   0  0  0  0  0  0  0  0  0  0  0  0
    0.3210   67.6880   66.2380 C   0  0  0  0  0  0  0  0  0  0  0  0
   -0.4810   68.6780   65.6730 C   0  0  0  0  0  0  0  0  0  0  0  0
   -1.7940   68.8060   66.1230 C   0  0  0  0  0  0  0  0  0  0  0  0
   -2.2660   67.9530   67.1140 C   0  0  0  0  0  0  0  0  0  0  0  0
   -1.4000   67.0010   67.6240 C   0  0  0  0  0  0  0  0  0  0  0  0
   -0.1240   66.8510   67.2110 N   0  0  0  0  0  0  0  0  0  0  0  0
    5.1643   69.3693   65.3581 H   0  0  0  0  0  0  0  0  0  0  0  0
    6.4515   70.4580   67.2223 H   0  0  0  0  0  0  0  0  0  0  0  0
    5.2638   71.0085   69.3644 H   0  0  0  0  0  0  0  0  0  0  0  0
    2.8682   70.4614   69.5841 H   0  0  0  0  0  0  0  0  0  0  0  0
   -0.0870   69.3428   64.8902 H   0  0  0  0  0  0  0  0  0  0  0  0
   -2.4525   69.5771   65.6967 H   0  0  0  0  0  0  0  0  0  0  0  0
   -3.2993   68.0323   67.4828 H   0  0  0  0  0  0  0  0  0  0  0  0
   -1.7731   66.3286   68.4106 H   0  0  0  0  0  0  0  0  0  0  0  0
  2  1  2  0
  3  2  1  0
  4  3  2  0
  5  4  1  0
  6  5  2  0
  7  6  1  0
  8  7  2  0
  8  3  1  0
  9  2  1  0
 10  9  2  0
 11  9  1  0
 12 11  2  0
 13 12  1  0
 14 13  2  0
 15 14  1  0
 16 15  2  0
 16 11  1  0
  4 17  1  0
  5 18  1  0
  6 19  1  0
  7 20  1  0
 12 21  1  0
 13 22  1  0
 14 23  1  0
 15 24  1  0
M  END
>  <score>  (1) 
-8.34

$$$$
=
     RDKit          3D

 24 25  0  0  0  0  0  0  0  0999 V2000
    1.7840   69.0590   63.9870 O   0  0  0  0  0  0  0  0  0  0  0  0
    2.3280   68.4640   64.9090 C   0  0  0  0  0  0  0  0  0  0  0  0
    3.3380   69.0920   65.7860 C   0  0  0  0  0  0  0  0  0  0  0  0
    4.6300   69.2910   65.3130 C   0  0  0  0  0  0  0  0  0  0  0  0
    5.5630   69.8630   66.1730 C   0  0  0  0  0  0  0  0  0  0  0  0
    5.1760   70.2100   67.4640 C   0  0  0  0  0  0  0  0  0  0  0  0
    3.8690   69.9650   67.8500 C   0  0  0  0  0  0  0  0  0  0  0  0
    2.9420   69.4030   67.0440 N   0  0  0  0  0  0  0  0  0  0  0  0
    1.9920   67.0210   65.1620 C   0  0  0  0  0  0  0  0  0  0  0  0
    0.9240   66.7770   65.7120 O   0  0  0  0  0  0  0  0  0  0  0  0
    2.9650   65.9830   64.7170 C   0  0  0  0  0  0  0  0  0  0  0  0
    3.7690   66.1620   63.5940 C   0  0  0  0  0  0  0  0  0  0  0  0
    4.6530   65.1440   63.2400 C   0  0  0  0  0  0  0  0  0  0  0  0
    4.7080   63.9860   64.0070 C   0  0  0  0  0  0  0  0  0  0  0  0
    3.8700   63.8880   65.1050 C   0  0  0  0  0  0  0  0  0  0  0  0
    3.0040   64.8550   65.4740 N   0  0  0  0  0  0  0  0  0  0  0  0
    4.9072   69.0044   64.2878 H   0  0  0  0  0  0  0  0  0  0  0  0
    6.5952   70.0389   65.8359 H   0  0  0  0  0  0  0  0  0  0  0  0
    5.8921   70.6685   68.1619 H   0  0  0  0  0  0  0  0  0  0  0  0
    3.5685   70.2438   68.8708 H   0  0  0  0  0  0  0  0  0  0  0  0
    3.7078   67.0857   62.9999 H   0  0  0  0  0  0  0  0  0  0  0  0
    5.3028   65.2563   62.3595 H   0  0  0  0  0  0  0  0  0  0  0  0
    5.3985   63.1696   63.7487 H   0  0  0  0  0  0  0  0  0  0  0  0
    3.9126   62.9706   65.7104 H   0  0  0  0  0  0  0  0  0  0  0  0
  2  1  2  0
  3  2  1  0
  4  3  2  0
  5  4  1  0
  6  5  2  0
  7  6  1  0
  8  7  2  0
  8  3  1  0
  9  2  1  0
 10  9  2  0
 11  9  1  0
 12 11  2  0
 13 12  1  0
 14 13  2  0
 15 14  1  0
 16 15  2  0
 16 11  1  0
  4 17  1  0
  5 18  1  0
  6 19  1  0
  7 20  1  0
 12 21  1  0
 13 22  1  0
 14 23  1  0
 15 24  1  0
M  END
>  <score>  (2) 
-8.335

$$$$
=
     RDKit          3D

 24 25  0  0  0  0  0  0  0  0999 V2000
    0.9760   66.7720   65.9460 O   0  0  0  0  0  0  0  0  0  0  0  0
    1.9930   67.0700   65.3330 C   0  0  0  0  0  0  0  0  0  0  0  0
    2.9460   66.0650   64.8190 C   0  0  0  0  0  0  0  0  0  0  0  0
    3.6950   66.3460   63.6820 C   0  0  0  0  0  0  0  0  0  0  0  0
    4.5660   65.3680   63.2100 C   0  0  0  0  0  0  0  0  0  0  0  0
    4.6540   64.1530   63.8830 C   0  0  0  0  0  0  0  0  0  0  0  0
    3.8600   63.9590   65.0020 C   0  0  0  0  0  0  0  0  0  0  0  0
    2.9990   64.8830   65.4800 N   0  0  0  0  0  0  0  0  0  0  0  0
    2.3240   68.5190   65.1040 C   0  0  0  0  0  0  0  0  0  0  0  0
    1.7510   69.0920   64.1840 O   0  0  0  0  0  0  0  0  0  0  0  0
    3.3100   69.1680   66.0140 C   0  0  0  0  0  0  0  0  0  0  0  0
    4.6190   69.4280   65.6150 C   0  0  0  0  0  0  0  0  0  0  0  0
    5.4840   70.0350   66.5240 C   0  0  0  0  0  0  0  0  0  0  0  0
    5.0240   70.3610   67.7950 C   0  0  0  0  0  0  0  0  0  0  0  0
    3.7090   70.0630   68.1110 C   0  0  0  0  0  0  0  0  0  0  0  0
    2.8470   69.4760   67.2550 N   0  0  0  0  0  0  0  0  0  0  0  0
    3.6019   67.3147   63.1693 H   0  0  0  0  0  0  0  0  0  0  0  0
    5.1780   65.5535   62.3150 H   0  0  0  0  0  0  0  0  0  0  0  0
    5.3379   63.3650   63.5348 H   0  0  0  0  0  0  0  0  0  0  0  0
    3.9354   62.9975   65.5311 H   0  0  0  0  0  0  0  0  0  0  0  0
    4.9625   69.1602   64.6049 H   0  0  0  0  0  0  0  0  0  0  0  0
    6.5232   70.2546   66.2379 H   0  0  0  0  0  0  0  0  0  0  0  0
    5.6865   70.8424   68.5294 H   0  0  0  0  0  0  0  0  0  0  0  0
    3.3466   70.3195   69.1174 H   0  0  0  0  0  0  0  0  0  0  0  0
  2  1  2  0
  3  2  1  0
  4  3  2  0
  5  4  1  0
  6  5  2  0
  7  6  1  0
  8  7  2  0
  8  3  1  0
  9  2  1  0
 10  9  2  0
 11  9  1  0
 12 11  2  0
 13 12  1  0
 14 13  2  0
 15 14  1  0
 16 15  2  0
 16 11  1  0
  4 17  1  0
  5 18  1  0
  6 19  1  0
  7 20  1  0
 12 21  1  0
 13 22  1  0
 14 23  1  0
 15 24  1  0
M  END
>  <score>  (3) 
-8.299

$$$$
=
     RDKit          3D

 24 25  0  0  0  0  0  0  0  0999 V2000
    2.2580   66.3770   65.9440 O   0  0  0  0  0  0  0  0  0  0  0  0
    1.7000   67.4670   65.9660 C   0  0  0  0  0  0  0  0  0  0  0  0
    0.2810   67.6360   66.3430 C   0  0  0  0  0  0  0  0  0  0  0  0
   -0.4800   68.6240   65.7280 C   0  0  0  0  0  0  0  0  0  0  0  0
   -1.8060   68.7720   66.1230 C   0  0  0  0  0  0  0  0  0  0  0  0
   -2.3190   67.9380   67.1120 C   0  0  0  0  0  0  0  0  0  0  0  0
   -1.4820   66.9890   67.6750 C   0  0  0  0  0  0  0  0  0  0  0  0
   -0.1890   66.8250   67.3220 N   0  0  0  0  0  0  0  0  0  0  0  0
    2.4640   68.7000   65.5700 C   0  0  0  0  0  0  0  0  0  0  0  0
    2.3420   69.0940   64.4160 O   0  0  0  0  0  0  0  0  0  0  0  0
    3.3050   69.3690   66.6030 C   0  0  0  0  0  0  0  0  0  0  0  0
    4.6450   69.6740   66.3750 C   0  0  0  0  0  0  0  0  0  0  0  0
    5.3670   70.2970   67.3910 C   0  0  0  0  0  0  0  0  0  0  0  0
    4.7400   70.5940   68.5960 C   0  0  0  0  0  0  0  0  0  0  0  0
    3.4060   70.2510   68.7400 C   0  0  0  0  0  0  0  0  0  0  0  0
    2.6800   69.6470   67.7770 N   0  0  0  0  0  0  0  0  0  0  0  0
   -0.0460   69.2705   64.9510 H   0  0  0  0  0  0  0  0  0  0  0  0
   -2.4420   69.5400   65.6585 H   0  0  0  0  0  0  0  0  0  0  0  0
   -3.3652   68.0304   67.4390 H   0  0  0  0  0  0  0  0  0  0  0  0
   -1.8941   66.3312   68.4544 H   0  0  0  0  0  0  0  0  0  0  0  0
    5.1223   69.4286   65.4148 H   0  0  0  0  0  0  0  0  0  0  0  0
    6.4264   70.5523   67.2407 H   0  0  0  0  0  0  0  0  0  0  0  0
    5.2882   71.0876   69.4120 H   0  0  0  0  0  0  0  0  0  0  0  0
    2.9104   70.4844   69.6939 H   0  0  0  0  0  0  0  0  0  0  0  0
  2  1  2  0
  3  2  1  0
  4  3  2  0
  5  4  1  0
  6  5  2  0
  7  6  1  0
  8  7  2  0
  8  3  1  0
  9  2  1  0
 10  9  2  0
 11  9  1  0
 12 11  2  0
 13 12  1  0
 14 13  2  0
 15 14  1  0
 16 15  2  0
 16 11  1  0
  4 17  1  0
  5 18  1  0
  6 19  1  0
  7 20  1  0
 12 21  1  0
 13 22  1  0
 14 23  1  0
 15 24  1  0
M  END
>  <score>  (4) 
-8.271

$$$$
=
     RDKit          3D

 24 25  0  0  0  0  0  0  0  0999 V2000
    1.9220   66.6630   66.1200 O   0  0  0  0  0  0  0  0  0  0  0  0
    1.5950   67.8150   65.8620 C   0  0  0  0  0  0  0  0  0  0  0  0
    1.2240   68.2590   64.5030 C   0  0  0  0  0  0  0  0  0  0  0  0
    2.2040   68.3660   63.5230 C   0  0  0  0  0  0  0  0  0  0  0  0
    1.8240   68.8110   62.2600 C   0  0  0  0  0  0  0  0  0  0  0  0
    0.4910   69.1340   62.0240 C   0  0  0  0  0  0  0  0  0  0  0  0
   -0.4130   69.0070   63.0650 C   0  0  0  0  0  0  0  0  0  0  0  0
   -0.0770   68.5870   64.3040 N   0  0  0  0  0  0  0  0  0  0  0  0
    1.5910   68.8470   66.9550 C   0  0  0  0  0  0  0  0  0  0  0  0
    0.5140   69.1150   67.4760 O   0  0  0  0  0  0  0  0  0  0  0  0
    2.8900   69.4650   67.3440 C   0  0  0  0  0  0  0  0  0  0  0  0
    3.9870   69.4740   66.4850 C   0  0  0  0  0  0  0  0  0  0  0  0
    5.1690   70.0690   66.9230 C   0  0  0  0  0  0  0  0  0  0  0  0
    5.2240   70.6310   68.1930 C   0  0  0  0  0  0  0  0  0  0  0  0
    4.0890   70.5750   68.9830 C   0  0  0  0  0  0  0  0  0  0  0  0
    2.9300   70.0060   68.5900 N   0  0  0  0  0  0  0  0  0  0  0  0
    3.2507   68.1062   63.7396 H   0  0  0  0  0  0  0  0  0  0  0  0
    2.5695   68.9064   61.4568 H   0  0  0  0  0  0  0  0  0  0  0  0
    0.1632   69.4821   61.0334 H   0  0  0  0  0  0  0  0  0  0  0  0
   -1.4653   69.2628   62.8719 H   0  0  0  0  0  0  0  0  0  0  0  0
    3.9218   69.0220   65.4843 H   0  0  0  0  0  0  0  0  0  0  0  0
    6.0523   70.0936   66.2679 H   0  0  0  0  0  0  0  0  0  0  0  0
    6.1449   71.1075   68.5604 H   0  0  0  0  0  0  0  0  0  0  0  0
    4.1341   71.0195   69.9882 H   0  0  0  0  0  0  0  0  0  0  0  0
  2  1  2  0
  3  2  1  0
  4  3  2  0
  5  4  1  0
  6  5  2  0
  7  6  1  0
  8  7  2  0
  8  3  1  0
  9  2  1  0
 10  9  2  0
 11  9  1  0
 12 11  2  0
 13 12  1  0
 14 13  2  0
 15 14  1  0
 16 15  2  0
 16 11  1  0
  4 17  1  0
  5 18  1  0
  6 19  1  0
  7 20  1  0
 12 21  1  0
 13 22  1  0
 14 23  1  0
 15 24  1  0
M  END
>  <score>  (5) 
-8.148

$$$$
=
     RDKit          3D

 24 25  0  0  0  0  0  0  0  0999 V2000
    1.3980   66.1070   64.7610 O   0  0  0  0  0  0  0  0  0  0  0  0
    1.2450   67.3160   64.6390 C   0  0  0  0  0  0  0  0  0  0  0  0
    0.5450   68.1430   65.6440 C   0  0  0  0  0  0  0  0  0  0  0  0
    1.2410   68.6120   66.7520 C   0  0  0  0  0  0  0  0  0  0  0  0
    0.5470   69.3680   67.6920 C   0  0  0  0  0  0  0  0  0  0  0  0
   -0.8070   69.6220   67.4960 C   0  0  0  0  0  0  0  0  0  0  0  0
   -1.4190   69.1040   66.3660 C   0  0  0  0  0  0  0  0  0  0  0  0
   -0.7770   68.3600   65.4400 N   0  0  0  0  0  0  0  0  0  0  0  0
    1.7570   68.0080   63.4070 C   0  0  0  0  0  0  0  0  0  0  0  0
    0.9400   68.3020   62.5420 O   0  0  0  0  0  0  0  0  0  0  0  0
    3.2150   68.3050   63.3210 C   0  0  0  0  0  0  0  0  0  0  0  0
    3.8390   69.1910   64.1970 C   0  0  0  0  0  0  0  0  0  0  0  0
    5.2060   69.4190   64.0510 C   0  0  0  0  0  0  0  0  0  0  0  0
    5.9060   68.7650   63.0440 C   0  0  0  0  0  0  0  0  0  0  0  0
    5.2080   67.9040   62.2140 C   0  0  0  0  0  0  0  0  0  0  0  0
    3.8860   67.6620   62.3290 N   0  0  0  0  0  0  0  0  0  0  0  0
    2.3108   68.3917   66.8823 H   0  0  0  0  0  0  0  0  0  0  0  0
    1.0633   69.7606   68.5804 H   0  0  0  0  0  0  0  0  0  0  0  0
   -1.3782   70.2201   68.2213 H   0  0  0  0  0  0  0  0  0  0  0  0
   -2.4888   69.3106   66.2147 H   0  0  0  0  0  0  0  0  0  0  0  0
    3.2653   69.6991   64.9861 H   0  0  0  0  0  0  0  0  0  0  0  0
    5.7274   70.1117   64.7280 H   0  0  0  0  0  0  0  0  0  0  0  0
    6.9857   68.9271   62.9099 H   0  0  0  0  0  0  0  0  0  0  0  0
    5.7627   67.3885   61.4162 H   0  0  0  0  0  0  0  0  0  0  0  0
  2  1  2  0
  3  2  1  0
  4  3  2  0
  5  4  1  0
  6  5  2  0
  7  6  1  0
  8  7  2  0
  8  3  1  0
  9  2  1  0
 10  9  2  0
 11  9  1  0
 12 11  2  0
 13 12  1  0
 14 13  2  0
 15 14  1  0
 16 15  2  0
 16 11  1  0
  4 17  1  0
  5 18  1  0
  6 19  1  0
  7 20  1  0
 12 21  1  0
 13 22  1  0
 14 23  1  0
 15 24  1  0
M  END
>  <score>  (6) 
-7.3

$$$$
=
     RDKit          3D

 24 25  0  0  0  0  0  0  0  0999 V2000
    1.4110   69.0550   63.8710 O   0  0  0  0  0  0  0  0  0  0  0  0
    1.8230   68.2870   64.7320 C   0  0  0  0  0  0  0  0  0  0  0  0
    2.6840   67.1250   64.4260 C   0  0  0  0  0  0  0  0  0  0  0  0
    3.7760   67.2830   63.5810 C   0  0  0  0  0  0  0  0  0  0  0  0
    4.5520   66.1640   63.2950 C   0  0  0  0  0  0  0  0  0  0  0  0
    4.2100   64.9370   63.8550 C   0  0  0  0  0  0  0  0  0  0  0  0
    3.0980   64.8740   64.6780 C   0  0  0  0  0  0  0  0  0  0  0  0
    2.3180   65.9380   64.9680 N   0  0  0  0  0  0  0  0  0  0  0  0
    1.4260   68.4980   66.1660 C   0  0  0  0  0  0  0  0  0  0  0  0
    2.2580   68.9970   66.9160 O   0  0  0  0  0  0  0  0  0  0  0  0
    0.0500   68.1030   66.5810 C   0  0  0  0  0  0  0  0  0  0  0  0
   -1.0840   68.6860   66.0200 C   0  0  0  0  0  0  0  0  0  0  0  0
   -2.3360   68.2660   66.4630 C   0  0  0  0  0  0  0  0  0  0  0  0
   -2.4230   67.2870   67.4460 C   0  0  0  0  0  0  0  0  0  0  0  0
   -1.2460   66.7640   67.9540 C   0  0  0  0  0  0  0  0  0  0  0  0
   -0.0180   67.1490   67.5470 N   0  0  0  0  0  0  0  0  0  0  0  0
    4.0201   68.2653   63.1503 H   0  0  0  0  0  0  0  0  0  0  0  0
    5.4266   66.2485   62.6332 H   0  0  0  0  0  0  0  0  0  0  0  0
    4.8091   64.0378   63.6488 H   0  0  0  0  0  0  0  0  0  0  0  0
    2.8349   63.9020   65.1208 H   0  0  0  0  0  0  0  0  0  0  0  0
   -0.9928   69.4607   65.2445 H   0  0  0  0  0  0  0  0  0  0  0  0
   -3.2500   68.7062   66.0377 H   0  0  0  0  0  0  0  0  0  0  0  0
   -3.4003   66.9374   67.8103 H   0  0  0  0  0  0  0  0  0  0  0  0
   -1.3156   65.9909   68.7334 H   0  0  0  0  0  0  0  0  0  0  0  0
  2  1  2  0
  3  2  1  0
  4  3  2  0
  5  4  1  0
  6  5  2  0
  7  6  1  0
  8  7  2  0
  8  3  1  0
  9  2  1  0
 10  9  2  0
 11  9  1  0
 12 11  2  0
 13 12  1  0
 14 13  2  0
 15 14  1  0
 16 15  2  0
 16 11  1  0
  4 17  1  0
  5 18  1  0
  6 19  1  0
  7 20  1  0
 12 21  1  0
 13 22  1  0
 14 23  1  0
 15 24  1  0
M  END
>  <score>  (7) 
-7.257

$$$$
=
     RDKit          3D

 24 25  0  0  0  0  0  0  0  0999 V2000
    1.7150   66.1340   64.6430 O   0  0  0  0  0  0  0  0  0  0  0  0
    1.3870   67.1760   65.1970 C   0  0  0  0  0  0  0  0  0  0  0  0
    0.5270   67.2110   66.3980 C   0  0  0  0  0  0  0  0  0  0  0  0
    1.1100   67.1990   67.6610 C   0  0  0  0  0  0  0  0  0  0  0  0
    0.2710   67.2090   68.7710 C   0  0  0  0  0  0  0  0  0  0  0  0
   -1.1080   67.2260   68.5830 C   0  0  0  0  0  0  0  0  0  0  0  0
   -1.5970   67.2250   67.2870 C   0  0  0  0  0  0  0  0  0  0  0  0
   -0.8120   67.2070   66.1880 N   0  0  0  0  0  0  0  0  0  0  0  0
    1.8450   68.4920   64.6330 C   0  0  0  0  0  0  0  0  0  0  0  0
    1.0710   69.0910   63.8950 O   0  0  0  0  0  0  0  0  0  0  0  0
    3.1960   68.9900   65.0160 C   0  0  0  0  0  0  0  0  0  0  0  0
    3.4960   69.3760   66.3210 C   0  0  0  0  0  0  0  0  0  0  0  0
    4.7820   69.8350   66.6000 C   0  0  0  0  0  0  0  0  0  0  0  0
    5.7240   69.8970   65.5800 C   0  0  0  0  0  0  0  0  0  0  0  0
    5.3410   69.4990   64.3100 C   0  0  0  0  0  0  0  0  0  0  0  0
    4.1050   69.0510   64.0070 N   0  0  0  0  0  0  0  0  0  0  0  0
    2.2035   67.1821   67.7789 H   0  0  0  0  0  0  0  0  0  0  0  0
    0.6933   67.2035   69.7867 H   0  0  0  0  0  0  0  0  0  0  0  0
   -1.7933   67.2399   69.4433 H   0  0  0  0  0  0  0  0  0  0  0  0
   -2.6876   67.2397   67.1446 H   0  0  0  0  0  0  0  0  0  0  0  0
    2.7348   69.3197   67.1131 H   0  0  0  0  0  0  0  0  0  0  0  0
    5.0496   70.1461   67.6206 H   0  0  0  0  0  0  0  0  0  0  0  0
    6.7463   70.2526   65.7762 H   0  0  0  0  0  0  0  0  0  0  0  0
    6.0865   69.5511   63.5029 H   0  0  0  0  0  0  0  0  0  0  0  0
  2  1  2  0
  3  2  1  0
  4  3  2  0
  5  4  1  0
  6  5  2  0
  7  6  1  0
  8  7  2  0
  8  3  1  0
  9  2  1  0
 10  9  2  0
 11  9  1  0
 12 11  2  0
 13 12  1  0
 14 13  2  0
 15 14  1  0
 16 15  2  0
 16 11  1  0
  4 17  1  0
  5 18  1  0
  6 19  1  0
  7 20  1  0
 12 21  1  0
 13 22  1  0
 14 23  1  0
 15 24  1  0
M  END
>  <score>  (8) 
-7.249

$$$$
=
     RDKit          3D

 24 25  0  0  0  0  0  0  0  0999 V2000
    3.0110   66.9110   65.3970 O   0  0  0  0  0  0  0  0  0  0  0  0
    2.5480   67.9980   65.7190 C   0  0  0  0  0  0  0  0  0  0  0  0
    3.2620   68.9490   66.5960 C   0  0  0  0  0  0  0  0  0  0  0  0
    4.5200   69.4110   66.2280 C   0  0  0  0  0  0  0  0  0  0  0  0
    5.1760   70.2870   67.0890 C   0  0  0  0  0  0  0  0  0  0  0  0
    4.5590   70.6630   68.2780 C   0  0  0  0  0  0  0  0  0  0  0  0
    3.3080   70.1420   68.5660 C   0  0  0  0  0  0  0  0  0  0  0  0
    2.6480   69.2840   67.7570 N   0  0  0  0  0  0  0  0  0  0  0  0
    1.1810   68.3950   65.2340 C   0  0  0  0  0  0  0  0  0  0  0  0
    0.2650   68.3770   66.0490 O   0  0  0  0  0  0  0  0  0  0  0  0
    1.0290   68.7950   63.8070 C   0  0  0  0  0  0  0  0  0  0  0  0
    2.0860   68.7110   62.9020 C   0  0  0  0  0  0  0  0  0  0  0  0
    1.8660   69.1070   61.5850 C   0  0  0  0  0  0  0  0  0  0  0  0
    0.6120   69.5740   61.2090 C   0  0  0  0  0  0  0  0  0  0  0  0
   -0.3810   69.6310   62.1730 C   0  0  0  0  0  0  0  0  0  0  0  0
   -0.2010   69.2550   63.4560 N   0  0  0  0  0  0  0  0  0  0  0  0
    4.9846   69.0935   65.2828 H   0  0  0  0  0  0  0  0  0  0  0  0
    6.1716   70.6776   66.8318 H   0  0  0  0  0  0  0  0  0  0  0  0
    5.0530   71.3578   68.9732 H   0  0  0  0  0  0  0  0  0  0  0  0
    2.8244   70.4439   69.5067 H   0  0  0  0  0  0  0  0  0  0  0  0
    3.0714   68.3404   63.2208 H   0  0  0  0  0  0  0  0  0  0  0  0
    2.6797   69.0505   60.8469 H   0  0  0  0  0  0  0  0  0  0  0  0
    0.4136   69.8897   60.1741 H   0  0  0  0  0  0  0  0  0  0  0  0
   -1.3722   70.0039   61.8756 H   0  0  0  0  0  0  0  0  0  0  0  0
  2  1  2  0
  3  2  1  0
  4  3  2  0
  5  4  1  0
  6  5  2  0
  7  6  1  0
  8  7  2  0
  8  3  1  0
  9  2  1  0
 10  9  2  0
 11  9  1  0
 12 11  2  0
 13 12  1  0
 14 13  2  0
 15 14  1  0
 16 15  2  0
 16 11  1  0
  4 17  1  0
  5 18  1  0
  6 19  1  0
  7 20  1  0
 12 21  1  0
 13 22  1  0
 14 23  1  0
 15 24  1  0
M  END
>  <score>  (9) 
-6.896

$$$$
