=
     RDKit          3D

 61 64  0  0  0  0  0  0  0  0999 V2000
    0.5380   65.6120   69.4800 N   0  0  0  0  0  0  0  0  0  0  0  0
    1.0170   66.8550   69.1350 C   0  0  0  0  0  0  0  0  0  0  0  0
    1.8440   67.4990   69.7700 O   0  0  0  0  0  0  0  0  0  0  0  0
    3.1480   61.3270   73.0440 C   0  0  0  0  0  0  0  0  0  0  0  0
    2.9480   62.0420   71.8540 C   0  0  0  0  0  0  0  0  0  0  0  0
    2.0060   63.0730   71.8020 C   0  0  0  0  0  0  0  0  0  0  0  0
    1.7710   63.8350   70.5810 C   0  0  0  0  0  0  0  0  0  0  0  0
    0.8630   64.8160   70.5660 C   0  0  0  0  0  0  0  0  0  0  0  0
    0.0870   65.1490   71.8010 C   0  0  0  0  0  0  0  0  0  0  0  0
   -0.7220   66.0810   71.7590 O   0  0  0  0  0  0  0  0  0  0  0  0
    0.3180   64.4070   72.9430 O   0  0  0  0  0  0  0  0  0  0  0  0
    1.2750   63.3760   72.9440 C   0  0  0  0  0  0  0  0  0  0  0  0
    1.4530   62.6800   74.1390 C   0  0  0  0  0  0  0  0  0  0  0  0
    2.3940   61.6490   74.1940 C   0  0  0  0  0  0  0  0  0  0  0  0
    3.8050   59.0920   72.4850 C   0  0  0  0  0  0  0  0  0  0  0  0
    4.0500   60.3020   73.1880 O   0  0  0  0  0  0  0  0  0  0  0  0
    2.6550   60.8990   75.3140 O   0  0  0  0  0  0  0  0  0  0  0  0
    1.6170   60.0730   75.8190 C   0  0  0  0  0  0  0  0  0  0  0  0
    0.3840   67.4450   67.8730 C   0  0  1  0  0  0  0  0  0  0  0  0
    0.0940   68.9410   68.0070 C   0  0  0  0  0  0  0  0  0  0  0  0
   -0.6580   69.4910   66.7930 C   0  0  0  0  0  0  0  0  0  0  0  0
   -0.4710   68.6580   65.5220 C   0  0  0  0  0  0  0  0  0  0  0  0
    0.9150   68.0230   65.4080 C   0  0  2  0  0  0  0  0  0  0  0  0
    1.2340   67.1340   66.6260 C   0  0  0  0  0  0  0  0  0  0  0  0
    1.9850   69.0840   65.2890 N   0  0  0  0  0  4  0  0  0  0  0  0
    3.4130   68.6430   65.4300 C   0  0  0  0  0  0  0  0  0  0  0  0
    4.1800   69.4440   66.4400 C   0  0  0  0  0  0  0  0  0  0  0  0
    3.5880   69.8070   67.6600 C   0  0  0  0  0  0  0  0  0  0  0  0
    4.3150   70.5220   68.6120 C   0  0  0  0  0  0  0  0  0  0  0  0
    5.6370   70.8810   68.3570 C   0  0  0  0  0  0  0  0  0  0  0  0
    6.2320   70.5310   67.1480 C   0  0  0  0  0  0  0  0  0  0  0  0
    5.5110   69.8160   66.1920 C   0  0  0  0  0  0  0  0  0  0  0  0
   -0.1635   65.2164   68.8380 H   0  0  0  0  0  0  0  0  0  0  0  0
    3.5348   61.7903   70.9583 H   0  0  0  0  0  0  0  0  0  0  0  0
    2.3422   63.6020   69.6703 H   0  0  0  0  0  0  0  0  0  0  0  0
    0.8595   62.9397   75.0280 H   0  0  0  0  0  0  0  0  0  0  0  0
    3.6399   58.2767   73.2048 H   0  0  0  0  0  0  0  0  0  0  0  0
    2.9124   59.2094   71.8530 H   0  0  0  0  0  0  0  0  0  0  0  0
    4.6730   58.8530   71.8530 H   0  0  0  0  0  0  0  0  0  0  0  0
    1.6376   60.0894   76.9187 H   0  0  0  0  0  0  0  0  0  0  0  0
    0.6453   60.4475   75.4648 H   0  0  0  0  0  0  0  0  0  0  0  0
    1.7637   59.0420   75.4648 H   0  0  0  0  0  0  0  0  0  0  0  0
   -0.5917   66.9538   67.7434 H   0  0  0  0  0  0  0  0  0  0  0  0
   -0.5167   69.1050   68.9071 H   0  0  0  0  0  0  0  0  0  0  0  0
    1.0568   69.4684   68.0774 H   0  0  0  0  0  0  0  0  0  0  0  0
   -1.7309   69.5207   67.0337 H   0  0  0  0  0  0  0  0  0  0  0  0
   -0.2458   70.4895   66.5857 H   0  0  0  0  0  0  0  0  0  0  0  0
   -1.2232   67.8554   65.5178 H   0  0  0  0  0  0  0  0  0  0  0  0
   -0.5854   69.3411   64.6675 H   0  0  0  0  0  0  0  0  0  0  0  0
    0.9055   67.3998   64.5016 H   0  0  0  0  0  0  0  0  0  0  0  0
    1.0607   66.0853   66.3428 H   0  0  0  0  0  0  0  0  0  0  0  0
    2.2809   67.3337   66.8984 H   0  0  0  0  0  0  0  0  0  0  0  0
    1.8863   69.5198   64.3610 H   0  0  0  0  0  0  0  0  0  0  0  0
    1.8230   69.7127   66.0886 H   0  0  0  0  0  0  0  0  0  0  0  0
    3.4244   67.5873   65.7389 H   0  0  0  0  0  0  0  0  0  0  0  0
    3.8999   68.7925   64.4550 H   0  0  0  0  0  0  0  0  0  0  0  0
    2.5447   69.5260   67.8665 H   0  0  0  0  0  0  0  0  0  0  0  0
    3.8439   70.8028   69.5655 H   0  0  0  0  0  0  0  0  0  0  0  0
    6.2103   71.4407   69.1107 H   0  0  0  0  0  0  0  0  0  0  0  0
    7.2742   70.8193   66.9461 H   0  0  0  0  0  0  0  0  0  0  0  0
    5.9874   69.5422   65.2391 H   0  0  0  0  0  0  0  0  0  0  0  0
  2  1  1  0
  3  2  2  0
  5  4  2  0
  6  5  1  0
  7  6  1  0
  8  7  2  0
  8  1  1  0
  9  8  1  0
 10  9  2  0
 11  9  1  0
 12 11  1  0
 12  6  2  0
 13 12  1  0
 14 13  2  0
 14  4  1  0
 16 15  1  0
 16  4  1  0
 17 14  1  0
 18 17  1  0
 19  2  1  0
 20 19  1  0
 21 20  1  0
 22 21  1  0
 23 22  1  0
 24 23  1  0
 24 19  1  0
 25 23  1  0
 26 25  1  0
 27 26  1  0
 28 27  2  0
 29 28  1  0
 30 29  2  0
 31 30  1  0
 32 27  1  0
 32 31  2  0
  1 33  1  0
  5 34  1  0
  7 35  1  0
 13 36  1  0
 15 37  1  0
 15 38  1  0
 15 39  1  0
 18 40  1  0
 18 41  1  0
 18 42  1  0
 19 43  1  6
 20 44  1  0
 20 45  1  0
 21 46  1  0
 21 47  1  0
 22 48  1  0
 22 49  1  0
 23 50  1  6
 24 51  1  0
 24 52  1  0
 25 53  1  0
 25 54  1  0
 26 55  1  0
 26 56  1  0
 28 57  1  0
 29 58  1  0
 30 59  1  0
 31 60  1  0
 32 61  1  0
M  CHG  1  25   1
M  END
>  <score>  (1) 
-10.408

$$$$
=
     RDKit          3D

 61 64  0  0  0  0  0  0  0  0999 V2000
    0.5910   65.5850   69.4820 N   0  0  0  0  0  0  0  0  0  0  0  0
    1.0280   66.8520   69.1690 C   0  0  0  0  0  0  0  0  0  0  0  0
    1.7880   67.5290   69.8510 O   0  0  0  0  0  0  0  0  0  0  0  0
    0.4620   62.9950   75.0630 C   0  0  0  0  0  0  0  0  0  0  0  0
    0.0140   63.8550   74.0490 C   0  0  0  0  0  0  0  0  0  0  0  0
    0.6760   63.8980   72.8190 C   0  0  0  0  0  0  0  0  0  0  0  0
    0.2390   64.7810   71.7450 C   0  0  0  0  0  0  0  0  0  0  0  0
    0.8950   64.7970   70.5800 C   0  0  0  0  0  0  0  0  0  0  0  0
    2.0740   63.9030   70.3620 C   0  0  0  0  0  0  0  0  0  0  0  0
    2.6370   63.9220   69.2630 O   0  0  0  0  0  0  0  0  0  0  0  0
    2.4780   63.0830   71.3970 O   0  0  0  0  0  0  0  0  0  0  0  0
    1.7800   63.0780   72.6200 C   0  0  0  0  0  0  0  0  0  0  0  0
    2.2470   62.2160   73.6100 C   0  0  0  0  0  0  0  0  0  0  0  0
    1.5870   62.1700   74.8410 C   0  0  0  0  0  0  0  0  0  0  0  0
   -1.5200   62.6250   76.3560 C   0  0  0  0  0  0  0  0  0  0  0  0
   -0.1250   62.8850   76.3000 O   0  0  0  0  0  0  0  0  0  0  0  0
    1.9550   61.3600   75.8870 O   0  0  0  0  0  0  0  0  0  0  0  0
    1.8270   59.9570   75.7180 C   0  0  0  0  0  0  0  0  0  0  0  0
    0.4360   67.4200   67.8780 C   0  0  1  0  0  0  0  0  0  0  0  0
    0.0770   68.9020   68.0010 C   0  0  0  0  0  0  0  0  0  0  0  0
   -0.6340   69.4260   66.7510 C   0  0  0  0  0  0  0  0  0  0  0  0
   -0.3470   68.6080   65.4890 C   0  0  0  0  0  0  0  0  0  0  0  0
    1.0690   68.0320   65.4450 C   0  0  2  0  0  0  0  0  0  0  0  0
    1.3620   67.1510   66.6750 C   0  0  0  0  0  0  0  0  0  0  0  0
    2.0970   69.1380   65.3830 N   0  0  0  0  0  4  0  0  0  0  0  0
    3.5400   68.7470   65.5360 C   0  0  0  0  0  0  0  0  0  0  0  0
    4.2580   69.5470   66.5830 C   0  0  0  0  0  0  0  0  0  0  0  0
    3.6200   69.8810   67.7870 C   0  0  0  0  0  0  0  0  0  0  0  0
    4.3020   70.5950   68.7730 C   0  0  0  0  0  0  0  0  0  0  0  0
    5.6250   70.9810   68.5680 C   0  0  0  0  0  0  0  0  0  0  0  0
    6.2670   70.6590   67.3740 C   0  0  0  0  0  0  0  0  0  0  0  0
    5.5900   69.9460   66.3850 C   0  0  0  0  0  0  0  0  0  0  0  0
   -0.0557   65.1614   68.8013 H   0  0  0  0  0  0  0  0  0  0  0  0
   -0.8616   64.4978   74.2228 H   0  0  0  0  0  0  0  0  0  0  0  0
   -0.6324   65.4357   71.8932 H   0  0  0  0  0  0  0  0  0  0  0  0
    3.1247   61.5793   73.4249 H   0  0  0  0  0  0  0  0  0  0  0  0
   -1.8400   62.5654   77.4067 H   0  0  0  0  0  0  0  0  0  0  0  0
   -2.0648   63.4371   75.8523 H   0  0  0  0  0  0  0  0  0  0  0  0
   -1.7357   61.6712   75.8523 H   0  0  0  0  0  0  0  0  0  0  0  0
    1.7827   59.4714   76.7040 H   0  0  0  0  0  0  0  0  0  0  0  0
    0.9051   59.7376   75.1595 H   0  0  0  0  0  0  0  0  0  0  0  0
    2.6940   59.5744   75.1595 H   0  0  0  0  0  0  0  0  0  0  0  0
   -0.5100   66.8886   67.6969 H   0  0  0  0  0  0  0  0  0  0  0  0
   -0.5856   69.0359   68.8688 H   0  0  0  0  0  0  0  0  0  0  0  0
    1.0118   69.4688   68.1226 H   0  0  0  0  0  0  0  0  0  0  0  0
   -1.7182   69.4095   66.9360 H   0  0  0  0  0  0  0  0  0  0  0  0
   -0.2538   70.4419   66.5680 H   0  0  0  0  0  0  0  0  0  0  0  0
   -1.0636   67.7746   65.4437 H   0  0  0  0  0  0  0  0  0  0  0  0
   -0.4459   69.2900   64.6316 H   0  0  0  0  0  0  0  0  0  0  0  0
    1.1331   67.4126   64.5382 H   0  0  0  0  0  0  0  0  0  0  0  0
    1.2478   66.0974   66.3802 H   0  0  0  0  0  0  0  0  0  0  0  0
    2.3842   67.3928   67.0017 H   0  0  0  0  0  0  0  0  0  0  0  0
    1.9974   69.6021   64.4689 H   0  0  0  0  0  0  0  0  0  0  0  0
    1.8959   69.7321   66.2000 H   0  0  0  0  0  0  0  0  0  0  0  0
    3.5872   67.6838   65.8141 H   0  0  0  0  0  0  0  0  0  0  0  0
    4.0371   68.9433   64.5746 H   0  0  0  0  0  0  0  0  0  0  0  0
    2.5759   69.5782   67.9548 H   0  0  0  0  0  0  0  0  0  0  0  0
    3.7942   70.8536   69.7139 H   0  0  0  0  0  0  0  0  0  0  0  0
    6.1624   71.5397   69.3484 H   0  0  0  0  0  0  0  0  0  0  0  0
    7.3101   70.9679   67.2111 H   0  0  0  0  0  0  0  0  0  0  0  0
    6.1021   69.6947   65.4445 H   0  0  0  0  0  0  0  0  0  0  0  0
  2  1  1  0
  3  2  2  0
  5  4  2  0
  6  5  1  0
  7  6  1  0
  8  7  2  0
  8  1  1  0
  9  8  1  0
 10  9  2  0
 11  9  1  0
 12 11  1  0
 12  6  2  0
 13 12  1  0
 14 13  2  0
 14  4  1  0
 16 15  1  0
 16  4  1  0
 17 14  1  0
 18 17  1  0
 19  2  1  0
 20 19  1  0
 21 20  1  0
 22 21  1  0
 23 22  1  0
 24 23  1  0
 24 19  1  0
 25 23  1  0
 26 25  1  0
 27 26  1  0
 28 27  2  0
 29 28  1  0
 30 29  2  0
 31 30  1  0
 32 27  1  0
 32 31  2  0
  1 33  1  0
  5 34  1  0
  7 35  1  0
 13 36  1  0
 15 37  1  0
 15 38  1  0
 15 39  1  0
 18 40  1  0
 18 41  1  0
 18 42  1  0
 19 43  1  6
 20 44  1  0
 20 45  1  0
 21 46  1  0
 21 47  1  0
 22 48  1  0
 22 49  1  0
 23 50  1  6
 24 51  1  0
 24 52  1  0
 25 53  1  0
 25 54  1  0
 26 55  1  0
 26 56  1  0
 28 57  1  0
 29 58  1  0
 30 59  1  0
 31 60  1  0
 32 61  1  0
M  CHG  1  25   1
M  END
>  <score>  (2) 
-10.152

$$$$
=
     RDKit          3D

 61 64  0  0  0  0  0  0  0  0999 V2000
    1.0830   64.6630   69.8910 N   0  0  0  0  0  0  0  0  0  0  0  0
    0.4400   65.7620   70.4130 C   0  0  0  0  0  0  0  0  0  0  0  0
   -0.0410   65.8360   71.5370 O   0  0  0  0  0  0  0  0  0  0  0  0
    0.7630   59.7170   73.5400 C   0  0  0  0  0  0  0  0  0  0  0  0
    0.3560   60.9690   73.0560 C   0  0  0  0  0  0  0  0  0  0  0  0
    1.0510   61.5790   72.0090 C   0  0  0  0  0  0  0  0  0  0  0  0
    0.6570   62.8810   71.4840 C   0  0  0  0  0  0  0  0  0  0  0  0
    1.3440   63.4360   70.4810 C   0  0  0  0  0  0  0  0  0  0  0  0
    2.5150   62.7260   69.8790 C   0  0  0  0  0  0  0  0  0  0  0  0
    3.1070   63.2540   68.9340 O   0  0  0  0  0  0  0  0  0  0  0  0
    2.8770   61.4990   70.3990 O   0  0  0  0  0  0  0  0  0  0  0  0
    2.1470   60.9260   71.4580 C   0  0  0  0  0  0  0  0  0  0  0  0
    2.5730   59.6820   71.9190 C   0  0  0  0  0  0  0  0  0  0  0  0
    1.8800   59.0700   72.9660 C   0  0  0  0  0  0  0  0  0  0  0  0
   -1.1780   58.5620   74.3400 C   0  0  0  0  0  0  0  0  0  0  0  0
    0.1410   59.0420   74.5610 O   0  0  0  0  0  0  0  0  0  0  0  0
    2.2060   57.8470   73.5000 O   0  0  0  0  0  0  0  0  0  0  0  0
    1.7930   56.6840   72.8000 C   0  0  0  0  0  0  0  0  0  0  0  0
    0.3040   66.9320   69.4360 C   0  0  1  0  0  0  0  0  0  0  0  0
    1.6490   67.5860   69.1140 C   0  0  0  0  0  0  0  0  0  0  0  0
    1.4860   68.8350   68.2440 C   0  0  0  0  0  0  0  0  0  0  0  0
    0.1870   68.8580   67.4340 C   0  0  0  0  0  0  0  0  0  0  0  0
   -0.2680   67.4720   66.9720 C   0  0  2  0  0  0  0  0  0  0  0  0
   -0.4500   66.5090   68.1610 C   0  0  0  0  0  0  0  0  0  0  0  0
    0.7310   66.8720   66.0100 N   0  0  0  0  0  4  0  0  0  0  0  0
    1.1210   67.6970   64.8170 C   0  0  0  0  0  0  0  0  0  0  0  0
    2.6020   67.9160   64.7110 C   0  0  0  0  0  0  0  0  0  0  0  0
    3.4210   66.9620   64.0870 C   0  0  0  0  0  0  0  0  0  0  0  0
    4.7920   67.1850   63.9590 C   0  0  0  0  0  0  0  0  0  0  0  0
    5.3590   68.3580   64.4520 C   0  0  0  0  0  0  0  0  0  0  0  0
    4.5560   69.3090   65.0770 C   0  0  0  0  0  0  0  0  0  0  0  0
    3.1850   69.0930   65.2080 C   0  0  0  0  0  0  0  0  0  0  0  0
    1.4186   64.7670   68.9228 H   0  0  0  0  0  0  0  0  0  0  0  0
   -0.5140   61.4726   73.5027 H   0  0  0  0  0  0  0  0  0  0  0  0
   -0.2076   63.4075   71.9144 H   0  0  0  0  0  0  0  0  0  0  0  0
    3.4442   59.1880   71.4641 H   0  0  0  0  0  0  0  0  0  0  0  0
   -1.6699   58.3830   75.3074 H   0  0  0  0  0  0  0  0  0  0  0  0
   -1.7497   59.3097   73.7707 H   0  0  0  0  0  0  0  0  0  0  0  0
   -1.1354   57.6217   73.7707 H   0  0  0  0  0  0  0  0  0  0  0  0
    1.5150   55.9013   73.5212 H   0  0  0  0  0  0  0  0  0  0  0  0
    0.9255   56.9251   72.1681 H   0  0  0  0  0  0  0  0  0  0  0  0
    2.6182   56.3240   72.1681 H   0  0  0  0  0  0  0  0  0  0  0  0
   -0.2987   67.7023   69.9394 H   0  0  0  0  0  0  0  0  0  0  0  0
    2.1398   67.8712   70.0562 H   0  0  0  0  0  0  0  0  0  0  0  0
    2.2549   66.8586   68.5538 H   0  0  0  0  0  0  0  0  0  0  0  0
    1.5021   69.7186   68.8990 H   0  0  0  0  0  0  0  0  0  0  0  0
    2.3148   68.8323   67.5208 H   0  0  0  0  0  0  0  0  0  0  0  0
   -0.6058   69.2943   68.0594 H   0  0  0  0  0  0  0  0  0  0  0  0
    0.3798   69.4537   66.5296 H   0  0  0  0  0  0  0  0  0  0  0  0
   -1.2367   67.6060   66.4683 H   0  0  0  0  0  0  0  0  0  0  0  0
   -1.5227   66.4514   68.3975 H   0  0  0  0  0  0  0  0  0  0  0  0
   -0.0298   65.5407   67.8513 H   0  0  0  0  0  0  0  0  0  0  0  0
    1.5902   66.6715   66.5415 H   0  0  0  0  0  0  0  0  0  0  0  0
    0.2561   66.0470   65.6166 H   0  0  0  0  0  0  0  0  0  0  0  0
    0.7774   67.1819   63.9078 H   0  0  0  0  0  0  0  0  0  0  0  0
    0.6510   68.6847   64.9336 H   0  0  0  0  0  0  0  0  0  0  0  0
    2.9792   66.0333   63.6967 H   0  0  0  0  0  0  0  0  0  0  0  0
    5.4268   66.4329   63.4677 H   0  0  0  0  0  0  0  0  0  0  0  0
    6.4400   68.5330   64.3478 H   0  0  0  0  0  0  0  0  0  0  0  0
    5.0051   70.2336   65.4686 H   0  0  0  0  0  0  0  0  0  0  0  0
    2.5568   69.8482   65.7031 H   0  0  0  0  0  0  0  0  0  0  0  0
  2  1  1  0
  3  2  2  0
  5  4  2  0
  6  5  1  0
  7  6  1  0
  8  7  2  0
  8  1  1  0
  9  8  1  0
 10  9  2  0
 11  9  1  0
 12 11  1  0
 12  6  2  0
 13 12  1  0
 14 13  2  0
 14  4  1  0
 16 15  1  0
 16  4  1  0
 17 14  1  0
 18 17  1  0
 19  2  1  0
 20 19  1  0
 21 20  1  0
 22 21  1  0
 23 22  1  0
 24 23  1  0
 24 19  1  0
 25 23  1  0
 26 25  1  0
 27 26  1  0
 28 27  2  0
 29 28  1  0
 30 29  2  0
 31 30  1  0
 32 27  1  0
 32 31  2  0
  1 33  1  0
  5 34  1  0
  7 35  1  0
 13 36  1  0
 15 37  1  0
 15 38  1  0
 15 39  1  0
 18 40  1  0
 18 41  1  0
 18 42  1  0
 19 43  1  1
 20 44  1  0
 20 45  1  0
 21 46  1  0
 21 47  1  0
 22 48  1  0
 22 49  1  0
 23 50  1  6
 24 51  1  0
 24 52  1  0
 25 53  1  0
 25 54  1  0
 26 55  1  0
 26 56  1  0
 28 57  1  0
 29 58  1  0
 30 59  1  0
 31 60  1  0
 32 61  1  0
M  CHG  1  25   1
M  END
>  <score>  (3) 
-9.877

$$$$
=
     RDKit          3D

 61 64  0  0  0  0  0  0  0  0999 V2000
    0.9670   65.5420   70.3630 N   0  0  0  0  0  0  0  0  0  0  0  0
   -0.0350   65.7960   69.4550 C   0  0  0  0  0  0  0  0  0  0  0  0
   -0.9300   65.0180   69.1480 O   0  0  0  0  0  0  0  0  0  0  0  0
    3.0640   60.0840   72.2840 C   0  0  0  0  0  0  0  0  0  0  0  0
    2.9530   61.1620   71.3940 C   0  0  0  0  0  0  0  0  0  0  0  0
    2.1300   62.2480   71.7030 C   0  0  0  0  0  0  0  0  0  0  0  0
    1.9900   63.3830   70.7980 C   0  0  0  0  0  0  0  0  0  0  0  0
    1.1940   64.4070   71.1260 C   0  0  0  0  0  0  0  0  0  0  0  0
    0.4500   64.4060   72.4230 C   0  0  0  0  0  0  0  0  0  0  0  0
   -0.2510   65.3810   72.7050 O   0  0  0  0  0  0  0  0  0  0  0  0
    0.5890   63.3150   73.2590 O   0  0  0  0  0  0  0  0  0  0  0  0
    1.4270   62.2420   72.9010 C   0  0  0  0  0  0  0  0  0  0  0  0
    1.5190   61.1840   73.8040 C   0  0  0  0  0  0  0  0  0  0  0  0
    2.3410   60.0960   73.4980 C   0  0  0  0  0  0  0  0  0  0  0  0
    3.4780   58.0940   71.0170 C   0  0  0  0  0  0  0  0  0  0  0  0
    3.8470   58.9770   72.0660 O   0  0  0  0  0  0  0  0  0  0  0  0
    2.5100   59.0010   74.3100 O   0  0  0  0  0  0  0  0  0  0  0  0
    2.9500   59.2220   75.6410 C   0  0  0  0  0  0  0  0  0  0  0  0
    0.0690   67.1610   68.7710 C   0  0  1  0  0  0  0  0  0  0  0  0
    1.5180   67.6020   68.5570 C   0  0  0  0  0  0  0  0  0  0  0  0
    1.6090   69.0220   67.9950 C   0  0  0  0  0  0  0  0  0  0  0  0
    0.3480   69.4760   67.2550 C   0  0  0  0  0  0  0  0  0  0  0  0
   -0.3620   68.3440   66.5100 C   0  0  2  0  0  0  0  0  0  0  0  0
   -0.7400   67.1900   67.4590 C   0  0  0  0  0  0  0  0  0  0  0  0
    0.5120   67.7970   65.4050 N   0  0  0  0  0  4  0  0  0  0  0  0
    0.7020   68.6560   64.1880 C   0  0  0  0  0  0  0  0  0  0  0  0
    2.1410   68.8060   63.7920 C   0  0  0  0  0  0  0  0  0  0  0  0
    3.1180   69.1050   64.7550 C   0  0  0  0  0  0  0  0  0  0  0  0
    4.4610   69.2100   64.3900 C   0  0  0  0  0  0  0  0  0  0  0  0
    4.8410   69.0180   63.0630 C   0  0  0  0  0  0  0  0  0  0  0  0
    3.8800   68.7270   62.0990 C   0  0  0  0  0  0  0  0  0  0  0  0
    2.5360   68.6210   62.4570 C   0  0  0  0  0  0  0  0  0  0  0  0
    1.6463   66.3050   70.4949 H   0  0  0  0  0  0  0  0  0  0  0  0
    3.5160   61.1526   70.4490 H   0  0  0  0  0  0  0  0  0  0  0  0
    2.5393   63.3971   69.8451 H   0  0  0  0  0  0  0  0  0  0  0  0
    0.9514   61.2053   74.7460 H   0  0  0  0  0  0  0  0  0  0  0  0
    3.0873   57.1591   71.4451 H   0  0  0  0  0  0  0  0  0  0  0  0
    2.7017   58.5658   70.3966 H   0  0  0  0  0  0  0  0  0  0  0  0
    4.3591   57.8731   70.3966 H   0  0  0  0  0  0  0  0  0  0  0  0
    2.1945   58.8425   76.3447 H   0  0  0  0  0  0  0  0  0  0  0  0
    3.9014   58.6948   75.8050 H   0  0  0  0  0  0  0  0  0  0  0  0
    3.0952   60.3000   75.8050 H   0  0  0  0  0  0  0  0  0  0  0  0
   -0.3773   67.8972   69.4557 H   0  0  0  0  0  0  0  0  0  0  0  0
    2.0456   67.5675   69.5216 H   0  0  0  0  0  0  0  0  0  0  0  0
    1.9765   66.9183   67.8274 H   0  0  0  0  0  0  0  0  0  0  0  0
    1.7891   69.7146   68.8303 H   0  0  0  0  0  0  0  0  0  0  0  0
    2.4289   69.0242   67.2617 H   0  0  0  0  0  0  0  0  0  0  0  0
   -0.3517   69.9029   67.9886 H   0  0  0  0  0  0  0  0  0  0  0  0
    0.6623   70.2129   66.5012 H   0  0  0  0  0  0  0  0  0  0  0  0
   -1.2807   68.7713   66.0817 H   0  0  0  0  0  0  0  0  0  0  0  0
   -1.8059   67.2870   67.7129 H   0  0  0  0  0  0  0  0  0  0  0  0
   -0.5126   66.2548   66.9263 H   0  0  0  0  0  0  0  0  0  0  0  0
    1.4436   67.6192   65.8067 H   0  0  0  0  0  0  0  0  0  0  0  0
    0.0153   66.9616   65.0640 H   0  0  0  0  0  0  0  0  0  0  0  0
    0.1538   68.2014   63.3496 H   0  0  0  0  0  0  0  0  0  0  0  0
    0.3230   69.6593   64.4325 H   0  0  0  0  0  0  0  0  0  0  0  0
    2.8231   69.2575   65.8037 H   0  0  0  0  0  0  0  0  0  0  0  0
    5.2203   69.4445   65.1505 H   0  0  0  0  0  0  0  0  0  0  0  0
    5.9004   69.0964   62.7774 H   0  0  0  0  0  0  0  0  0  0  0  0
    4.1814   68.5801   61.0514 H   0  0  0  0  0  0  0  0  0  0  0  0
    1.7818   68.3914   61.6899 H   0  0  0  0  0  0  0  0  0  0  0  0
  2  1  1  0
  3  2  2  0
  5  4  2  0
  6  5  1  0
  7  6  1  0
  8  7  2  0
  8  1  1  0
  9  8  1  0
 10  9  2  0
 11  9  1  0
 12 11  1  0
 12  6  2  0
 13 12  1  0
 14 13  2  0
 14  4  1  0
 16 15  1  0
 16  4  1  0
 17 14  1  0
 18 17  1  0
 19  2  1  0
 20 19  1  0
 21 20  1  0
 22 21  1  0
 23 22  1  0
 24 23  1  0
 24 19  1  0
 25 23  1  0
 26 25  1  0
 27 26  1  0
 28 27  2  0
 29 28  1  0
 30 29  2  0
 31 30  1  0
 32 27  1  0
 32 31  2  0
  1 33  1  0
  5 34  1  0
  7 35  1  0
 13 36  1  0
 15 37  1  0
 15 38  1  0
 15 39  1  0
 18 40  1  0
 18 41  1  0
 18 42  1  0
 19 43  1  1
 20 44  1  0
 20 45  1  0
 21 46  1  0
 21 47  1  0
 22 48  1  0
 22 49  1  0
 23 50  1  6
 24 51  1  0
 24 52  1  0
 25 53  1  0
 25 54  1  0
 26 55  1  0
 26 56  1  0
 28 57  1  0
 29 58  1  0
 30 59  1  0
 31 60  1  0
 32 61  1  0
M  CHG  1  25   1
M  END
>  <score>  (4) 
-9.328

$$$$
=
     RDKit          3D

 61 64  0  0  0  0  0  0  0  0999 V2000
    2.5210   59.8800   72.5880 N   0  0  0  0  0  0  0  0  0  0  0  0
    2.9740   59.9060   71.2890 C   0  0  0  0  0  0  0  0  0  0  0  0
    3.1690   58.9220   70.5840 O   0  0  0  0  0  0  0  0  0  0  0  0
   -0.5460   55.1410   75.0410 C   0  0  0  0  0  0  0  0  0  0  0  0
   -0.3570   56.2130   74.1560 C   0  0  0  0  0  0  0  0  0  0  0  0
    0.8170   56.9690   74.2060 C   0  0  0  0  0  0  0  0  0  0  0  0
    1.0430   58.0910   73.3030 C   0  0  0  0  0  0  0  0  0  0  0  0
    2.1790   58.7930   73.3770 C   0  0  0  0  0  0  0  0  0  0  0  0
    3.2320   58.4310   74.3760 C   0  0  0  0  0  0  0  0  0  0  0  0
    4.2800   59.0810   74.3960 O   0  0  0  0  0  0  0  0  0  0  0  0
    2.9910   57.3710   75.2290 O   0  0  0  0  0  0  0  0  0  0  0  0
    1.7900   56.6420   75.1430 C   0  0  0  0  0  0  0  0  0  0  0  0
    1.6280   55.5820   76.0330 C   0  0  0  0  0  0  0  0  0  0  0  0
    0.4550   54.8250   75.9870 C   0  0  0  0  0  0  0  0  0  0  0  0
   -2.8950   54.9310   75.4600 C   0  0  0  0  0  0  0  0  0  0  0  0
   -1.6630   54.3440   75.0650 O   0  0  0  0  0  0  0  0  0  0  0  0
    0.1880   53.7600   76.8120 O   0  0  0  0  0  0  0  0  0  0  0  0
    1.0050   52.6050   76.6930 C   0  0  0  0  0  0  0  0  0  0  0  0
    3.2900   61.3070   70.7610 C   0  0  1  0  0  0  0  0  0  0  0  0
    3.0230   61.4420   69.2610 C   0  0  0  0  0  0  0  0  0  0  0  0
    3.4660   62.8040   68.7190 C   0  0  0  0  0  0  0  0  0  0  0  0
    3.5350   63.9000   69.7860 C   0  0  0  0  0  0  0  0  0  0  0  0
    2.4700   63.7580   70.8750 C   0  0  2  0  0  0  0  0  0  0  0  0
    2.5530   62.3880   71.5760 C   0  0  0  0  0  0  0  0  0  0  0  0
    1.0840   63.9240   70.2950 N   0  0  0  0  0  4  0  0  0  0  0  0
    0.3120   65.1490   70.6940 C   0  0  0  0  0  0  0  0  0  0  0  0
    0.2910   66.2040   69.6290 C   0  0  0  0  0  0  0  0  0  0  0  0
    1.3900   67.0590   69.4500 C   0  0  0  0  0  0  0  0  0  0  0  0
    1.3810   68.0180   68.4360 C   0  0  0  0  0  0  0  0  0  0  0  0
    0.2800   68.1320   67.5920 C   0  0  0  0  0  0  0  0  0  0  0  0
   -0.8190   67.2930   67.7630 C   0  0  0  0  0  0  0  0  0  0  0  0
   -0.8170   66.3330   68.7750 C   0  0  0  0  0  0  0  0  0  0  0  0
    2.4218   60.8007   73.0389 H   0  0  0  0  0  0  0  0  0  0  0  0
   -1.1362   56.4594   73.4197 H   0  0  0  0  0  0  0  0  0  0  0  0
    0.2782   58.3606   72.5598 H   0  0  0  0  0  0  0  0  0  0  0  0
    2.4151   55.3441   76.7636 H   0  0  0  0  0  0  0  0  0  0  0  0
   -2.9527   54.9585   76.5581 H   0  0  0  0  0  0  0  0  0  0  0  0
   -2.9568   55.9553   75.0638 H   0  0  0  0  0  0  0  0  0  0  0  0
   -3.7294   54.3337   75.0638 H   0  0  0  0  0  0  0  0  0  0  0  0
    1.2662   52.2357   77.6957 H   0  0  0  0  0  0  0  0  0  0  0  0
    0.4577   51.8235   76.1455 H   0  0  0  0  0  0  0  0  0  0  0  0
    1.9241   52.8609   76.1455 H   0  0  0  0  0  0  0  0  0  0  0  0
    4.3702   61.4654   70.8954 H   0  0  0  0  0  0  0  0  0  0  0  0
    3.5743   60.6521   68.7298 H   0  0  0  0  0  0  0  0  0  0  0  0
    1.9389   61.3487   69.0994 H   0  0  0  0  0  0  0  0  0  0  0  0
    4.4648   62.6914   68.2721 H   0  0  0  0  0  0  0  0  0  0  0  0
    2.7097   63.1184   67.9847 H   0  0  0  0  0  0  0  0  0  0  0  0
    4.5264   63.8617   70.2611 H   0  0  0  0  0  0  0  0  0  0  0  0
    3.3532   64.8586   69.2780 H   0  0  0  0  0  0  0  0  0  0  0  0
    2.6625   64.5497   71.6141 H   0  0  0  0  0  0  0  0  0  0  0  0
    3.0817   62.5205   72.5315 H   0  0  0  0  0  0  0  0  0  0  0  0
    1.5191   62.0360   71.7073 H   0  0  0  0  0  0  0  0  0  0  0  0
    1.1775   63.9378   69.2693 H   0  0  0  0  0  0  0  0  0  0  0  0
    0.5422   63.1348   70.6752 H   0  0  0  0  0  0  0  0  0  0  0  0
   -0.7244   64.8533   70.9143 H   0  0  0  0  0  0  0  0  0  0  0  0
    0.8130   65.5804   71.5731 H   0  0  0  0  0  0  0  0  0  0  0  0
    2.2635   66.9726   70.1129 H   0  0  0  0  0  0  0  0  0  0  0  0
    2.2456   68.6850   68.3036 H   0  0  0  0  0  0  0  0  0  0  0  0
    0.2777   68.8847   66.7898 H   0  0  0  0  0  0  0  0  0  0  0  0
   -1.6904   67.3878   67.0984 H   0  0  0  0  0  0  0  0  0  0  0  0
   -1.6877   65.6734   68.9051 H   0  0  0  0  0  0  0  0  0  0  0  0
  2  1  1  0
  3  2  2  0
  5  4  2  0
  6  5  1  0
  7  6  1  0
  8  7  2  0
  8  1  1  0
  9  8  1  0
 10  9  2  0
 11  9  1  0
 12 11  1  0
 12  6  2  0
 13 12  1  0
 14 13  2  0
 14  4  1  0
 16 15  1  0
 16  4  1  0
 17 14  1  0
 18 17  1  0
 19  2  1  0
 20 19  1  0
 21 20  1  0
 22 21  1  0
 23 22  1  0
 24 23  1  0
 24 19  1  0
 25 23  1  0
 26 25  1  0
 27 26  1  0
 28 27  2  0
 29 28  1  0
 30 29  2  0
 31 30  1  0
 32 27  1  0
 32 31  2  0
  1 33  1  0
  5 34  1  0
  7 35  1  0
 13 36  1  0
 15 37  1  0
 15 38  1  0
 15 39  1  0
 18 40  1  0
 18 41  1  0
 18 42  1  0
 19 43  1  6
 20 44  1  0
 20 45  1  0
 21 46  1  0
 21 47  1  0
 22 48  1  0
 22 49  1  0
 23 50  1  1
 24 51  1  0
 24 52  1  0
 25 53  1  0
 25 54  1  0
 26 55  1  0
 26 56  1  0
 28 57  1  0
 29 58  1  0
 30 59  1  0
 31 60  1  0
 32 61  1  0
M  CHG  1  25   1
M  END
>  <score>  (5) 
-8.72

$$$$
=
     RDKit          3D

 61 64  0  0  0  0  0  0  0  0999 V2000
    1.6360   66.9730   66.5250 N   0  0  0  0  0  0  0  0  0  0  0  0
    2.3650   66.3140   65.5630 C   0  0  0  0  0  0  0  0  0  0  0  0
    2.8430   65.1910   65.6790 O   0  0  0  0  0  0  0  0  0  0  0  0
    1.5190   64.0230   71.9250 C   0  0  0  0  0  0  0  0  0  0  0  0
    2.0340   64.3390   70.6590 C   0  0  0  0  0  0  0  0  0  0  0  0
    1.3960   65.2880   69.8560 C   0  0  0  0  0  0  0  0  0  0  0  0
    1.9030   65.6370   68.5340 C   0  0  0  0  0  0  0  0  0  0  0  0
    1.2680   66.5510   67.7930 C   0  0  0  0  0  0  0  0  0  0  0  0
    0.0410   67.2300   68.3120 C   0  0  0  0  0  0  0  0  0  0  0  0
   -0.5010   68.0900   67.6130 O   0  0  0  0  0  0  0  0  0  0  0  0
   -0.4270   66.8750   69.5620 O   0  0  0  0  0  0  0  0  0  0  0  0
    0.2490   65.9100   70.3320 C   0  0  0  0  0  0  0  0  0  0  0  0
   -0.2840   65.6150   71.5850 C   0  0  0  0  0  0  0  0  0  0  0  0
    0.3510   64.6660   72.3900 C   0  0  0  0  0  0  0  0  0  0  0  0
    3.0030   62.1700   72.2470 C   0  0  0  0  0  0  0  0  0  0  0  0
    2.0790   63.1070   72.7810 O   0  0  0  0  0  0  0  0  0  0  0  0
   -0.0810   64.2970   73.6410 O   0  0  0  0  0  0  0  0  0  0  0  0
   -0.0760   65.2810   74.6630 C   0  0  0  0  0  0  0  0  0  0  0  0
    2.6070   67.1270   64.2890 C   0  0  1  0  0  0  0  0  0  0  0  0
    1.8840   68.4750   64.3090 C   0  0  0  0  0  0  0  0  0  0  0  0
    2.0230   69.2200   62.9790 C   0  0  0  0  0  0  0  0  0  0  0  0
    3.2440   68.7960   62.1590 C   0  0  0  0  0  0  0  0  0  0  0  0
    4.4530   68.4170   63.0160 C   0  0  2  0  0  0  0  0  0  0  0  0
    4.1130   67.2860   64.0070 C   0  0  0  0  0  0  0  0  0  0  0  0
    4.9550   69.6110   63.7950 N   0  0  0  0  0  4  0  0  0  0  0  0
    5.9470   69.3510   64.8920 C   0  0  0  0  0  0  0  0  0  0  0  0
    5.4980   69.8680   66.2270 C   0  0  0  0  0  0  0  0  0  0  0  0
    4.1860   69.6430   66.6740 C   0  0  0  0  0  0  0  0  0  0  0  0
    3.7810   70.0950   67.9300 C   0  0  0  0  0  0  0  0  0  0  0  0
    4.6780   70.7740   68.7510 C   0  0  0  0  0  0  0  0  0  0  0  0
    5.9800   71.0070   68.3160 C   0  0  0  0  0  0  0  0  0  0  0  0
    6.3910   70.5580   67.0610 C   0  0  0  0  0  0  0  0  0  0  0  0
    1.3171   67.9174   66.2656 H   0  0  0  0  0  0  0  0  0  0  0  0
    2.9437   63.8377   70.2970 H   0  0  0  0  0  0  0  0  0  0  0  0
    2.8087   65.1479   68.1461 H   0  0  0  0  0  0  0  0  0  0  0  0
   -1.1941   66.1233   71.9363 H   0  0  0  0  0  0  0  0  0  0  0  0
    3.5154   61.6504   73.0701 H   0  0  0  0  0  0  0  0  0  0  0  0
    2.4652   61.4363   71.6286 H   0  0  0  0  0  0  0  0  0  0  0  0
    3.7442   62.6975   71.6286 H   0  0  0  0  0  0  0  0  0  0  0  0
   -0.0785   64.7882   75.6465 H   0  0  0  0  0  0  0  0  0  0  0  0
    0.8253   65.9043   74.5675 H   0  0  0  0  0  0  0  0  0  0  0  0
   -0.9709   65.9134   74.5675 H   0  0  0  0  0  0  0  0  0  0  0  0
    2.1705   66.5568   63.4557 H   0  0  0  0  0  0  0  0  0  0  0  0
    0.8163   68.3024   64.5095 H   0  0  0  0  0  0  0  0  0  0  0  0
    2.3413   69.0942   65.0947 H   0  0  0  0  0  0  0  0  0  0  0  0
    1.1201   69.0315   62.3797 H   0  0  0  0  0  0  0  0  0  0  0  0
    2.1528   70.2854   63.2202 H   0  0  0  0  0  0  0  0  0  0  0  0
    2.9662   67.9266   61.5450 H   0  0  0  0  0  0  0  0  0  0  0  0
    3.5394   69.6614   61.5476 H   0  0  0  0  0  0  0  0  0  0  0  0
    5.2354   68.0664   62.3268 H   0  0  0  0  0  0  0  0  0  0  0  0
    4.4884   66.3390   63.5920 H   0  0  0  0  0  0  0  0  0  0  0  0
    4.5882   67.5495   64.9634 H   0  0  0  0  0  0  0  0  0  0  0  0
    5.3980   70.2543   63.1236 H   0  0  0  0  0  0  0  0  0  0  0  0
    4.1225   69.9826   64.2744 H   0  0  0  0  0  0  0  0  0  0  0  0
    6.1038   68.2652   64.9719 H   0  0  0  0  0  0  0  0  0  0  0  0
    6.8732   69.8830   64.6292 H   0  0  0  0  0  0  0  0  0  0  0  0
    3.4733   69.1071   66.0299 H   0  0  0  0  0  0  0  0  0  0  0  0
    2.7514   69.9148   68.2726 H   0  0  0  0  0  0  0  0  0  0  0  0
    4.3580   71.1261   69.7428 H   0  0  0  0  0  0  0  0  0  0  0  0
    6.6864   71.5467   68.9639 H   0  0  0  0  0  0  0  0  0  0  0  0
    7.4208   70.7458   66.7232 H   0  0  0  0  0  0  0  0  0  0  0  0
  2  1  1  0
  3  2  2  0
  5  4  2  0
  6  5  1  0
  7  6  1  0
  8  7  2  0
  8  1  1  0
  9  8  1  0
 10  9  2  0
 11  9  1  0
 12 11  1  0
 12  6  2  0
 13 12  1  0
 14 13  2  0
 14  4  1  0
 16 15  1  0
 16  4  1  0
 17 14  1  0
 18 17  1  0
 19  2  1  0
 20 19  1  0
 21 20  1  0
 22 21  1  0
 23 22  1  0
 24 23  1  0
 24 19  1  0
 25 23  1  0
 26 25  1  0
 27 26  1  0
 28 27  2  0
 29 28  1  0
 30 29  2  0
 31 30  1  0
 32 27  1  0
 32 31  2  0
  1 33  1  0
  5 34  1  0
  7 35  1  0
 13 36  1  0
 15 37  1  0
 15 38  1  0
 15 39  1  0
 18 40  1  0
 18 41  1  0
 18 42  1  0
 19 43  1  6
 20 44  1  0
 20 45  1  0
 21 46  1  0
 21 47  1  0
 22 48  1  0
 22 49  1  0
 23 50  1  6
 24 51  1  0
 24 52  1  0
 25 53  1  0
 25 54  1  0
 26 55  1  0
 26 56  1  0
 28 57  1  0
 29 58  1  0
 30 59  1  0
 31 60  1  0
 32 61  1  0
M  CHG  1  25   1
M  END
>  <score>  (6) 
-8.583

$$$$
=
     RDKit          3D

 61 64  0  0  0  0  0  0  0  0999 V2000
    2.4040   59.8790   72.3710 N   0  0  0  0  0  0  0  0  0  0  0  0
    3.4720   59.7710   71.5100 C   0  0  0  0  0  0  0  0  0  0  0  0
    4.1950   58.7890   71.3950 O   0  0  0  0  0  0  0  0  0  0  0  0
   -0.2770   54.8760   74.7500 C   0  0  0  0  0  0  0  0  0  0  0  0
    0.1830   55.7010   73.7130 C   0  0  0  0  0  0  0  0  0  0  0  0
    0.8130   56.9130   74.0050 C   0  0  0  0  0  0  0  0  0  0  0  0
    1.3000   57.7960   72.9520 C   0  0  0  0  0  0  0  0  0  0  0  0
    1.9000   58.9490   73.2670 C   0  0  0  0  0  0  0  0  0  0  0  0
    2.0880   59.3410   74.6980 C   0  0  0  0  0  0  0  0  0  0  0  0
    2.6720   60.3970   74.9520 O   0  0  0  0  0  0  0  0  0  0  0  0
    1.6080   58.4940   75.6790 O   0  0  0  0  0  0  0  0  0  0  0  0
    0.9760   57.2850   75.3340 C   0  0  0  0  0  0  0  0  0  0  0  0
    0.5290   56.4840   76.3830 C   0  0  0  0  0  0  0  0  0  0  0  0
   -0.1030   55.2720   76.0950 C   0  0  0  0  0  0  0  0  0  0  0  0
   -0.1300   52.5830   74.0740 C   0  0  0  0  0  0  0  0  0  0  0  0
   -0.9050   53.6700   74.5590 O   0  0  0  0  0  0  0  0  0  0  0  0
   -0.5810   54.4030   77.0450 O   0  0  0  0  0  0  0  0  0  0  0  0
   -1.0740   54.9500   78.2580 C   0  0  0  0  0  0  0  0  0  0  0  0
    3.7540   61.0370   70.6980 C   0  0  1  0  0  0  0  0  0  0  0  0
    3.1990   60.9550   69.2740 C   0  0  0  0  0  0  0  0  0  0  0  0
    3.6010   62.1670   68.4310 C   0  0  0  0  0  0  0  0  0  0  0  0
    3.9460   63.4080   69.2590 C   0  0  0  0  0  0  0  0  0  0  0  0
    3.1150   63.5380   70.5370 C   0  0  2  0  0  0  0  0  0  0  0  0
    3.2600   62.2950   71.4360 C   0  0  0  0  0  0  0  0  0  0  0  0
    1.6530   63.7340   70.2100 N   0  0  0  0  0  4  0  0  0  0  0  0
    0.8090   64.4490   71.2250 C   0  0  0  0  0  0  0  0  0  0  0  0
    0.2650   63.5380   72.2860 C   0  0  0  0  0  0  0  0  0  0  0  0
   -0.3900   62.3470   71.9350 C   0  0  0  0  0  0  0  0  0  0  0  0
   -0.8650   61.4840   72.9230 C   0  0  0  0  0  0  0  0  0  0  0  0
   -0.6910   61.8010   74.2690 C   0  0  0  0  0  0  0  0  0  0  0  0
   -0.0480   62.9820   74.6290 C   0  0  0  0  0  0  0  0  0  0  0  0
    0.4280   63.8490   73.6450 C   0  0  0  0  0  0  0  0  0  0  0  0
    1.9074   60.7810   72.3461 H   0  0  0  0  0  0  0  0  0  0  0  0
    0.0471   55.3924   72.6660 H   0  0  0  0  0  0  0  0  0  0  0  0
    1.1737   57.5133   71.8965 H   0  0  0  0  0  0  0  0  0  0  0  0
    0.6722   56.8025   77.4261 H   0  0  0  0  0  0  0  0  0  0  0  0
    0.2756   52.0140   74.9236 H   0  0  0  0  0  0  0  0  0  0  0  0
   -0.7640   51.9252   73.4614 H   0  0  0  0  0  0  0  0  0  0  0  0
    0.6986   52.9680   73.4614 H   0  0  0  0  0  0  0  0  0  0  0  0
   -0.6079   54.4328   79.1096 H   0  0  0  0  0  0  0  0  0  0  0  0
   -0.8310   56.0219   78.3023 H   0  0  0  0  0  0  0  0  0  0  0  0
   -2.1653   54.8193   78.3023 H   0  0  0  0  0  0  0  0  0  0  0  0
    4.8465   61.1175   70.5979 H   0  0  0  0  0  0  0  0  0  0  0  0
    3.5864   60.0443   68.7938 H   0  0  0  0  0  0  0  0  0  0  0  0
    2.1010   60.9350   69.3381 H   0  0  0  0  0  0  0  0  0  0  0  0
    4.4814   61.8951   67.8302 H   0  0  0  0  0  0  0  0  0  0  0  0
    2.7317   62.4278   67.8095 H   0  0  0  0  0  0  0  0  0  0  0  0
    5.0087   63.3561   69.5382 H   0  0  0  0  0  0  0  0  0  0  0  0
    3.7214   64.2861   68.6357 H   0  0  0  0  0  0  0  0  0  0  0  0
    3.4962   64.4171   71.0773 H   0  0  0  0  0  0  0  0  0  0  0  0
    3.9774   62.5297   72.2362 H   0  0  0  0  0  0  0  0  0  0  0  0
    2.2554   62.0629   71.8192 H   0  0  0  0  0  0  0  0  0  0  0  0
    1.6018   64.2705   69.3322 H   0  0  0  0  0  0  0  0  0  0  0  0
    1.2626   62.7819   70.1657 H   0  0  0  0  0  0  0  0  0  0  0  0
    1.4237   65.2222   71.7091 H   0  0  0  0  0  0  0  0  0  0  0  0
   -0.0506   64.8803   70.6911 H   0  0  0  0  0  0  0  0  0  0  0  0
   -0.5297   62.0925   70.8740 H   0  0  0  0  0  0  0  0  0  0  0  0
   -1.3772   60.5527   72.6394 H   0  0  0  0  0  0  0  0  0  0  0  0
   -1.0619   61.1177   75.0472 H   0  0  0  0  0  0  0  0  0  0  0  0
    0.0851   63.2323   75.6918 H   0  0  0  0  0  0  0  0  0  0  0  0
    0.9339   64.7815   73.9358 H   0  0  0  0  0  0  0  0  0  0  0  0
  2  1  1  0
  3  2  2  0
  5  4  2  0
  6  5  1  0
  7  6  1  0
  8  7  2  0
  8  1  1  0
  9  8  1  0
 10  9  2  0
 11  9  1  0
 12 11  1  0
 12  6  2  0
 13 12  1  0
 14 13  2  0
 14  4  1  0
 16 15  1  0
 16  4  1  0
 17 14  1  0
 18 17  1  0
 19  2  1  0
 20 19  1  0
 21 20  1  0
 22 21  1  0
 23 22  1  0
 24 23  1  0
 24 19  1  0
 25 23  1  0
 26 25  1  0
 27 26  1  0
 28 27  2  0
 29 28  1  0
 30 29  2  0
 31 30  1  0
 32 27  1  0
 32 31  2  0
  1 33  1  0
  5 34  1  0
  7 35  1  0
 13 36  1  0
 15 37  1  0
 15 38  1  0
 15 39  1  0
 18 40  1  0
 18 41  1  0
 18 42  1  0
 19 43  1  6
 20 44  1  0
 20 45  1  0
 21 46  1  0
 21 47  1  0
 22 48  1  0
 22 49  1  0
 23 50  1  1
 24 51  1  0
 24 52  1  0
 25 53  1  0
 25 54  1  0
 26 55  1  0
 26 56  1  0
 28 57  1  0
 29 58  1  0
 30 59  1  0
 31 60  1  0
 32 61  1  0
M  CHG  1  25   1
M  END
>  <score>  (7) 
-8.437

$$$$
=
     RDKit          3D

 61 64  0  0  0  0  0  0  0  0999 V2000
    1.7730   59.7150   72.2340 N   0  0  0  0  0  0  0  0  0  0  0  0
    2.7900   60.5480   72.6400 C   0  0  0  0  0  0  0  0  0  0  0  0
    3.3330   60.5240   73.7380 O   0  0  0  0  0  0  0  0  0  0  0  0
   -2.0720   56.5670   75.8650 C   0  0  0  0  0  0  0  0  0  0  0  0
   -1.5720   57.7160   75.2350 C   0  0  0  0  0  0  0  0  0  0  0  0
   -0.4600   57.6300   74.3930 C   0  0  0  0  0  0  0  0  0  0  0  0
    0.0870   58.8050   73.7260 C   0  0  0  0  0  0  0  0  0  0  0  0
    1.1510   58.6870   72.9250 C   0  0  0  0  0  0  0  0  0  0  0  0
    1.7840   57.3510   72.6960 C   0  0  0  0  0  0  0  0  0  0  0  0
    2.7460   57.2740   71.9270 O   0  0  0  0  0  0  0  0  0  0  0  0
    1.2560   56.2530   73.3470 O   0  0  0  0  0  0  0  0  0  0  0  0
    0.1370   56.3920   74.1900 C   0  0  0  0  0  0  0  0  0  0  0  0
   -0.3400   55.2340   74.8030 C   0  0  0  0  0  0  0  0  0  0  0  0
   -1.4500   55.3170   75.6470 C   0  0  0  0  0  0  0  0  0  0  0  0
   -4.2530   57.4040   76.3940 C   0  0  0  0  0  0  0  0  0  0  0  0
   -3.1570   56.5550   76.7060 O   0  0  0  0  0  0  0  0  0  0  0  0
   -2.0070   54.2460   76.3010 O   0  0  0  0  0  0  0  0  0  0  0  0
   -2.5370   53.1890   75.5160 C   0  0  0  0  0  0  0  0  0  0  0  0
    3.1900   61.6020   71.6050 C   0  0  1  0  0  0  0  0  0  0  0  0
    2.8390   61.1830   70.1760 C   0  0  0  0  0  0  0  0  0  0  0  0
    3.3620   62.1820   69.1410 C   0  0  0  0  0  0  0  0  0  0  0  0
    3.5930   63.5880   69.7010 C   0  0  0  0  0  0  0  0  0  0  0  0
    2.5920   63.9830   70.7880 C   0  0  2  0  0  0  0  0  0  0  0  0
    2.6030   62.9820   71.9600 C   0  0  0  0  0  0  0  0  0  0  0  0
    1.1910   64.0590   70.2270 N   0  0  0  0  0  4  0  0  0  0  0  0
    0.3650   65.2580   70.5940 C   0  0  0  0  0  0  0  0  0  0  0  0
    0.2990   66.2840   69.5020 C   0  0  0  0  0  0  0  0  0  0  0  0
   -0.8400   66.3860   68.6880 C   0  0  0  0  0  0  0  0  0  0  0  0
   -0.9130   67.3640   67.6950 C   0  0  0  0  0  0  0  0  0  0  0  0
    0.1470   68.2480   67.5060 C   0  0  0  0  0  0  0  0  0  0  0  0
    1.2830   68.1530   68.3050 C   0  0  0  0  0  0  0  0  0  0  0  0
    1.3630   67.1780   69.2990 C   0  0  0  0  0  0  0  0  0  0  0  0
    1.4236   59.8789   71.2791 H   0  0  0  0  0  0  0  0  0  0  0  0
   -2.0570   58.6887   75.4043 H   0  0  0  0  0  0  0  0  0  0  0  0
   -0.3763   59.7904   73.8819 H   0  0  0  0  0  0  0  0  0  0  0  0
    0.1520   54.2665   74.6241 H   0  0  0  0  0  0  0  0  0  0  0  0
   -4.7158   57.7625   77.3253 H   0  0  0  0  0  0  0  0  0  0  0  0
   -3.8958   58.2634   75.8076 H   0  0  0  0  0  0  0  0  0  0  0  0
   -4.9958   56.8433   75.8076 H   0  0  0  0  0  0  0  0  0  0  0  0
   -2.9310   52.4032   76.1772 H   0  0  0  0  0  0  0  0  0  0  0  0
   -3.3482   53.5749   74.8812 H   0  0  0  0  0  0  0  0  0  0  0  0
   -1.7425   52.7697   74.8812 H   0  0  0  0  0  0  0  0  0  0  0  0
    4.2862   61.6864   71.6394 H   0  0  0  0  0  0  0  0  0  0  0  0
    3.2846   60.1975   69.9752 H   0  0  0  0  0  0  0  0  0  0  0  0
    1.7428   61.1486   70.0915 H   0  0  0  0  0  0  0  0  0  0  0  0
    4.3169   61.8046   68.7464 H   0  0  0  0  0  0  0  0  0  0  0  0
    2.5901   62.2702   68.3623 H   0  0  0  0  0  0  0  0  0  0  0  0
    4.6058   63.6308   70.1280 H   0  0  0  0  0  0  0  0  0  0  0  0
    3.4618   64.2941   68.8678 H   0  0  0  0  0  0  0  0  0  0  0  0
    2.8984   64.9722   71.1590 H   0  0  0  0  0  0  0  0  0  0  0  0
    3.2021   63.4124   72.7760 H   0  0  0  0  0  0  0  0  0  0  0  0
    1.5535   62.8160   72.2445 H   0  0  0  0  0  0  0  0  0  0  0  0
    1.2677   64.0390   69.2001 H   0  0  0  0  0  0  0  0  0  0  0  0
    0.6954   63.2590   70.6456 H   0  0  0  0  0  0  0  0  0  0  0  0
   -0.6576   64.9223   70.8212 H   0  0  0  0  0  0  0  0  0  0  0  0
    0.8450   65.7335   71.4621 H   0  0  0  0  0  0  0  0  0  0  0  0
   -1.6801   65.6910   68.8336 H   0  0  0  0  0  0  0  0  0  0  0  0
   -1.8087   67.4369   67.0607 H   0  0  0  0  0  0  0  0  0  0  0  0
    0.0863   69.0209   66.7256 H   0  0  0  0  0  0  0  0  0  0  0  0
    2.1206   68.8494   68.1518 H   0  0  0  0  0  0  0  0  0  0  0  0
    2.2636   67.1089   69.9269 H   0  0  0  0  0  0  0  0  0  0  0  0
  2  1  1  0
  3  2  2  0
  5  4  2  0
  6  5  1  0
  7  6  1  0
  8  7  2  0
  8  1  1  0
  9  8  1  0
 10  9  2  0
 11  9  1  0
 12 11  1  0
 12  6  2  0
 13 12  1  0
 14 13  2  0
 14  4  1  0
 16 15  1  0
 16  4  1  0
 17 14  1  0
 18 17  1  0
 19  2  1  0
 20 19  1  0
 21 20  1  0
 22 21  1  0
 23 22  1  0
 24 23  1  0
 24 19  1  0
 25 23  1  0
 26 25  1  0
 27 26  1  0
 28 27  2  0
 29 28  1  0
 30 29  2  0
 31 30  1  0
 32 27  1  0
 32 31  2  0
  1 33  1  0
  5 34  1  0
  7 35  1  0
 13 36  1  0
 15 37  1  0
 15 38  1  0
 15 39  1  0
 18 40  1  0
 18 41  1  0
 18 42  1  0
 19 43  1  6
 20 44  1  0
 20 45  1  0
 21 46  1  0
 21 47  1  0
 22 48  1  0
 22 49  1  0
 23 50  1  1
 24 51  1  0
 24 52  1  0
 25 53  1  0
 25 54  1  0
 26 55  1  0
 26 56  1  0
 28 57  1  0
 29 58  1  0
 30 59  1  0
 31 60  1  0
 32 61  1  0
M  CHG  1  25   1
M  END
>  <score>  (8) 
-8.41

$$$$
=
     RDKit          3D

 61 64  0  0  0  0  0  0  0  0999 V2000
    1.4100   60.0280   72.4820 N   0  0  0  0  0  0  0  0  0  0  0  0
    2.6770   60.5140   72.7030 C   0  0  0  0  0  0  0  0  0  0  0  0
    3.4020   60.2080   73.6430 O   0  0  0  0  0  0  0  0  0  0  0  0
   -0.8350   54.7560   74.7290 C   0  0  0  0  0  0  0  0  0  0  0  0
   -0.0130   55.5400   73.9070 C   0  0  0  0  0  0  0  0  0  0  0  0
   -0.0750   56.9350   73.9740 C   0  0  0  0  0  0  0  0  0  0  0  0
    0.7630   57.7790   73.1310 C   0  0  0  0  0  0  0  0  0  0  0  0
    0.6790   59.1110   73.2210 C   0  0  0  0  0  0  0  0  0  0  0  0
   -0.2650   59.7480   74.1910 C   0  0  0  0  0  0  0  0  0  0  0  0
   -0.2940   60.9790   74.2690 O   0  0  0  0  0  0  0  0  0  0  0  0
   -1.0570   58.9280   74.9720 O   0  0  0  0  0  0  0  0  0  0  0  0
   -0.9610   57.5280   74.8650 C   0  0  0  0  0  0  0  0  0  0  0  0
   -1.7890   56.7720   75.6930 C   0  0  0  0  0  0  0  0  0  0  0  0
   -1.7300   55.3780   75.6290 C   0  0  0  0  0  0  0  0  0  0  0  0
    0.3790   52.7090   74.4640 C   0  0  0  0  0  0  0  0  0  0  0  0
   -0.8420   53.3830   74.7340 O   0  0  0  0  0  0  0  0  0  0  0  0
   -2.4950   54.5340   76.3960 O   0  0  0  0  0  0  0  0  0  0  0  0
   -2.1400   54.3710   77.7610 C   0  0  0  0  0  0  0  0  0  0  0  0
    3.1380   61.5570   71.6820 C   0  0  1  0  0  0  0  0  0  0  0  0
    2.8160   61.1490   70.2430 C   0  0  0  0  0  0  0  0  0  0  0  0
    3.3970   62.1330   69.2240 C   0  0  0  0  0  0  0  0  0  0  0  0
    3.6530   63.5310   69.7930 C   0  0  0  0  0  0  0  0  0  0  0  0
    2.6340   63.9540   70.8520 C   0  0  2  0  0  0  0  0  0  0  0  0
    2.5810   62.9530   72.0220 C   0  0  0  0  0  0  0  0  0  0  0  0
    1.2520   64.0720   70.2510 N   0  0  0  0  0  4  0  0  0  0  0  0
    0.4390   65.2790   70.6210 C   0  0  0  0  0  0  0  0  0  0  0  0
    0.3430   66.2860   69.5140 C   0  0  0  0  0  0  0  0  0  0  0  0
   -0.8100   66.3610   68.7160 C   0  0  0  0  0  0  0  0  0  0  0  0
   -0.9110   67.3220   67.7090 C   0  0  0  0  0  0  0  0  0  0  0  0
    0.1350   68.2150   67.4890 C   0  0  0  0  0  0  0  0  0  0  0  0
    1.2850   68.1470   68.2700 C   0  0  0  0  0  0  0  0  0  0  0  0
    1.3920   67.1890   69.2780 C   0  0  0  0  0  0  0  0  0  0  0  0
    0.9354   60.3989   71.6465 H   0  0  0  0  0  0  0  0  0  0  0  0
    0.6833   55.0555   73.2067 H   0  0  0  0  0  0  0  0  0  0  0  0
    1.4654   57.3198   72.4198 H   0  0  0  0  0  0  0  0  0  0  0  0
   -2.4814   57.2678   76.3893 H   0  0  0  0  0  0  0  0  0  0  0  0
    0.8667   52.4398   75.4125 H   0  0  0  0  0  0  0  0  0  0  0  0
    0.1738   51.7964   73.8852 H   0  0  0  0  0  0  0  0  0  0  0  0
    1.0419   53.3690   73.8852 H   0  0  0  0  0  0  0  0  0  0  0  0
   -2.9544   54.7450   78.3988 H   0  0  0  0  0  0  0  0  0  0  0  0
   -1.9700   53.3047   77.9708 H   0  0  0  0  0  0  0  0  0  0  0  0
   -1.2205   54.9371   77.9708 H   0  0  0  0  0  0  0  0  0  0  0  0
    4.2347   61.6100   71.7484 H   0  0  0  0  0  0  0  0  0  0  0  0
    3.2385   60.1511   70.0538 H   0  0  0  0  0  0  0  0  0  0  0  0
    1.7221   61.1465   70.1273 H   0  0  0  0  0  0  0  0  0  0  0  0
    4.3512   61.7282   68.8558 H   0  0  0  0  0  0  0  0  0  0  0  0
    2.6505   62.2441   68.4237 H   0  0  0  0  0  0  0  0  0  0  0  0
    4.6542   63.5437   70.2484 H   0  0  0  0  0  0  0  0  0  0  0  0
    3.5658   64.2415   68.9578 H   0  0  0  0  0  0  0  0  0  0  0  0
    2.9598   64.9329   71.2336 H   0  0  0  0  0  0  0  0  0  0  0  0
    3.1679   63.3652   72.8561 H   0  0  0  0  0  0  0  0  0  0  0  0
    1.5192   62.8175   72.2754 H   0  0  0  0  0  0  0  0  0  0  0  0
    1.3596   64.0740   69.2266 H   0  0  0  0  0  0  0  0  0  0  0  0
    0.7280   63.2731   70.6358 H   0  0  0  0  0  0  0  0  0  0  0  0
   -0.5771   64.9495   70.8835 H   0  0  0  0  0  0  0  0  0  0  0  0
    0.9448   65.7684   71.4664 H   0  0  0  0  0  0  0  0  0  0  0  0
   -1.6388   65.6579   68.8856 H   0  0  0  0  0  0  0  0  0  0  0  0
   -1.8177   67.3742   67.0884 H   0  0  0  0  0  0  0  0  0  0  0  0
    0.0521   68.9744   66.6975 H   0  0  0  0  0  0  0  0  0  0  0  0
    2.1116   68.8506   68.0918 H   0  0  0  0  0  0  0  0  0  0  0  0
    2.3036   67.1406   69.8917 H   0  0  0  0  0  0  0  0  0  0  0  0
  2  1  1  0
  3  2  2  0
  5  4  2  0
  6  5  1  0
  7  6  1  0
  8  7  2  0
  8  1  1  0
  9  8  1  0
 10  9  2  0
 11  9  1  0
 12 11  1  0
 12  6  2  0
 13 12  1  0
 14 13  2  0
 14  4  1  0
 16 15  1  0
 16  4  1  0
 17 14  1  0
 18 17  1  0
 19  2  1  0
 20 19  1  0
 21 20  1  0
 22 21  1  0
 23 22  1  0
 24 23  1  0
 24 19  1  0
 25 23  1  0
 26 25  1  0
 27 26  1  0
 28 27  2  0
 29 28  1  0
 30 29  2  0
 31 30  1  0
 32 27  1  0
 32 31  2  0
  1 33  1  0
  5 34  1  0
  7 35  1  0
 13 36  1  0
 15 37  1  0
 15 38  1  0
 15 39  1  0
 18 40  1  0
 18 41  1  0
 18 42  1  0
 19 43  1  6
 20 44  1  0
 20 45  1  0
 21 46  1  0
 21 47  1  0
 22 48  1  0
 22 49  1  0
 23 50  1  1
 24 51  1  0
 24 52  1  0
 25 53  1  0
 25 54  1  0
 26 55  1  0
 26 56  1  0
 28 57  1  0
 29 58  1  0
 30 59  1  0
 31 60  1  0
 32 61  1  0
M  CHG  1  25   1
M  END
>  <score>  (9) 
-8.243

$$$$
