=
     RDKit          3D

 86 90  0  0  0  0  0  0  0  0999 V2000
   -0.0970   66.2690   70.7970 C   0  0  0  0  0  0  0  0  0  0  0  0
    0.4100   65.1210   71.2870 C   0  0  0  0  0  0  0  0  0  0  0  0
    1.2600   64.1210   70.5580 C   0  0  0  0  0  0  0  0  0  0  0  0
    0.7980   62.6900   70.8260 C   0  0  0  0  0  0  0  0  0  0  0  0
    0.7020   62.4110   72.3010 C   0  0  0  0  0  0  0  0  0  0  0  0
    0.3530   63.4300   73.1980 C   0  0  0  0  0  0  0  0  0  0  0  0
    0.0910   64.8130   72.7210 C   0  0  0  0  0  0  0  0  0  0  0  0
   -0.3610   65.6600   73.4840 O   0  0  0  0  0  0  0  0  0  0  0  0
    0.2210   63.1470   74.5610 C   0  0  0  0  0  0  0  0  0  0  0  0
    0.4310   61.8500   75.0400 C   0  0  0  0  0  0  0  0  0  0  0  0
    0.7660   60.8240   74.1570 C   0  0  0  0  0  0  0  0  0  0  0  0
    0.8980   61.1090   72.7920 C   0  0  0  0  0  0  0  0  0  0  0  0
    0.4080   67.9180   66.8780 C   0  0  0  0  0  0  0  0  0  0  0  0
   -0.7550   67.2090   67.2170 C   0  0  0  0  0  0  0  0  0  0  0  0
   -0.9040   66.6600   68.4940 C   0  0  0  0  0  0  0  0  0  0  0  0
    0.1090   66.7990   69.4470 C   0  0  0  0  0  0  0  0  0  0  0  0
    1.2740   67.4950   69.1100 C   0  0  0  0  0  0  0  0  0  0  0  0
    1.4260   68.0450   67.8340 C   0  0  0  0  0  0  0  0  0  0  0  0
    0.5420   68.5580   65.5200 C   0  0  0  0  0  0  0  0  0  0  0  0
    1.9020   66.5380   64.9900 C   0  0  0  0  0  0  0  0  0  0  0  0
    0.9720   67.5850   64.4480 N   0  0  2  0  0  4  0  0  0  0  0  0
    1.5270   68.2730   63.2190 C   0  0  0  0  0  0  0  0  0  0  0  0
    2.9710   68.6660   63.3740 C   0  0  0  0  0  0  0  0  0  0  0  0
    3.4620   69.0680   64.6270 C   0  0  0  0  0  0  0  0  0  0  0  0
    4.7940   69.4600   64.7700 C   0  0  0  0  0  0  0  0  0  0  0  0
    5.6460   69.4520   63.6680 C   0  0  0  0  0  0  0  0  0  0  0  0
    5.1710   69.0490   62.4220 C   0  0  0  0  0  0  0  0  0  0  0  0
    3.8400   68.6550   62.2730 C   0  0  0  0  0  0  0  0  0  0  0  0
    0.9850   59.5150   74.4930 O   0  0  0  0  0  0  0  0  0  0  0  0
    0.4720   58.5260   73.6000 C   0  0  0  0  0  0  0  0  0  0  0  0
    1.5200   57.4230   73.4290 C   0  0  0  0  0  0  0  0  0  0  0  0
    2.2710   57.5350   72.0980 C   0  0  0  0  0  0  0  0  0  0  0  0
    3.3790   58.5960   72.1100 C   0  0  0  0  0  0  0  0  0  0  0  0
    3.2020   59.6570   71.0250 C   0  0  0  0  0  0  0  0  0  0  0  0
    4.5500   60.1070   70.4840 N   0  0  0  0  0  4  0  0  0  0  0  0
    5.4030   60.9130   71.4400 C   0  0  0  0  0  0  0  0  0  0  0  0
    4.8530   62.3220   71.6100 C   0  0  0  0  0  0  0  0  0  0  0  0
    4.6860   63.0300   70.2700 C   0  0  0  0  0  0  0  0  0  0  0  0
    3.8730   62.1940   69.2870 C   0  0  0  0  0  0  0  0  0  0  0  0
    4.4450   60.7920   69.1360 C   0  0  0  0  0  0  0  0  0  0  0  0
   -0.7254   66.8650   71.4751 H   0  0  0  0  0  0  0  0  0  0  0  0
    1.1983   64.3198   69.4779 H   0  0  0  0  0  0  0  0  0  0  0  0
    2.2948   64.2218   70.9171 H   0  0  0  0  0  0  0  0  0  0  0  0
   -0.1914   62.5418   70.3687 H   0  0  0  0  0  0  0  0  0  0  0  0
    1.5366   62.0007   70.3908 H   0  0  0  0  0  0  0  0  0  0  0  0
   -0.0500   63.9505   75.2617 H   0  0  0  0  0  0  0  0  0  0  0  0
    0.3318   61.6388   76.1150 H   0  0  0  0  0  0  0  0  0  0  0  0
    1.1593   60.3007   72.0932 H   0  0  0  0  0  0  0  0  0  0  0  0
   -1.5550   67.0844   66.4724 H   0  0  0  0  0  0  0  0  0  0  0  0
   -1.8245   66.1151   68.7505 H   0  0  0  0  0  0  0  0  0  0  0  0
    2.0761   67.6104   69.8539 H   0  0  0  0  0  0  0  0  0  0  0  0
    2.3514   68.5816   67.5778 H   0  0  0  0  0  0  0  0  0  0  0  0
   -0.4314   68.9845   65.2361 H   0  0  0  0  0  0  0  0  0  0  0  0
    1.3224   69.3295   65.5958 H   0  0  0  0  0  0  0  0  0  0  0  0
    1.8805   66.5622   66.0895 H   0  0  0  0  0  0  0  0  0  0  0  0
    1.5819   65.5460   64.6388 H   0  0  0  0  0  0  0  0  0  0  0  0
    2.9249   66.7389   64.6388 H   0  0  0  0  0  0  0  0  0  0  0  0
    0.1208   67.0976   64.1337 H   0  0  0  0  0  0  0  0  0  0  0  0
    1.4389   67.5881   62.3627 H   0  0  0  0  0  0  0  0  0  0  0  0
    0.9472   69.1950   63.0648 H   0  0  0  0  0  0  0  0  0  0  0  0
    2.7932   69.0740   65.5003 H   0  0  0  0  0  0  0  0  0  0  0  0
    5.1713   69.7756   65.7539 H   0  0  0  0  0  0  0  0  0  0  0  0
    6.6946   69.7641   63.7817 H   0  0  0  0  0  0  0  0  0  0  0  0
    5.8461   69.0412   61.5536 H   0  0  0  0  0  0  0  0  0  0  0  0
    3.4710   68.3344   61.2876 H   0  0  0  0  0  0  0  0  0  0  0  0
   -0.4518   58.0968   74.0152 H   0  0  0  0  0  0  0  0  0  0  0  0
    0.2488   58.9833   72.6248 H   0  0  0  0  0  0  0  0  0  0  0  0
    2.2463   57.4946   74.2520 H   0  0  0  0  0  0  0  0  0  0  0  0
    0.9954   56.4562   73.4388 H   0  0  0  0  0  0  0  0  0  0  0  0
    2.7253   56.5592   71.8710 H   0  0  0  0  0  0  0  0  0  0  0  0
    1.5380   57.8401   71.3367 H   0  0  0  0  0  0  0  0  0  0  0  0
    3.3767   59.0940   73.0908 H   0  0  0  0  0  0  0  0  0  0  0  0
    4.3304   58.0801   71.9133 H   0  0  0  0  0  0  0  0  0  0  0  0
    2.6059   59.2354   70.2023 H   0  0  0  0  0  0  0  0  0  0  0  0
    2.6899   60.5266   71.4627 H   0  0  0  0  0  0  0  0  0  0  0  0
    5.0560   59.2188   70.3576 H   0  0  0  0  0  0  0  0  0  0  0  0
    5.4165   60.4120   72.4192 H   0  0  0  0  0  0  0  0  0  0  0  0
    6.4203   60.9824   71.0272 H   0  0  0  0  0  0  0  0  0  0  0  0
    3.8733   62.2643   72.1068 H   0  0  0  0  0  0  0  0  0  0  0  0
    5.5693   62.8981   72.2142 H   0  0  0  0  0  0  0  0  0  0  0  0
    4.1705   63.9877   70.4348 H   0  0  0  0  0  0  0  0  0  0  0  0
    5.6857   63.1890   69.8396 H   0  0  0  0  0  0  0  0  0  0  0  0
    2.8381   62.1197   69.6524 H   0  0  0  0  0  0  0  0  0  0  0  0
    3.9087   62.6874   68.3045 H   0  0  0  0  0  0  0  0  0  0  0  0
    3.7863   60.2020   68.4817 H   0  0  0  0  0  0  0  0  0  0  0  0
    5.4514   60.8664   68.6983 H   0  0  0  0  0  0  0  0  0  0  0  0
  2  1  2  0
  3  2  1  0
  4  3  1  0
  5  4  1  0
  6  5  2  0
  7  6  1  0
  7  2  1  0
  8  7  2  0
  9  6  1  0
 10  9  2  0
 11 10  1  0
 12 11  2  0
 12  5  1  0
 14 13  2  0
 15 14  1  0
 16 15  2  0
 16  1  1  0
 17 16  1  0
 18 17  2  0
 18 13  1  0
 19 13  1  0
 21 20  1  0
 21 19  1  0
 22 21  1  0
 23 22  1  0
 24 23  2  0
 25 24  1  0
 26 25  2  0
 27 26  1  0
 28 27  2  0
 28 23  1  0
 29 11  1  0
 30 29  1  0
 31 30  1  0
 32 31  1  0
 33 32  1  0
 34 33  1  0
 35 34  1  0
 36 35  1  0
 37 36  1  0
 38 37  1  0
 39 38  1  0
 40 39  1  0
 40 35  1  0
  1 41  1  0
  3 42  1  0
  3 43  1  0
  4 44  1  0
  4 45  1  0
  9 46  1  0
 10 47  1  0
 12 48  1  0
 14 49  1  0
 15 50  1  0
 17 51  1  0
 18 52  1  0
 19 53  1  0
 19 54  1  0
 20 55  1  0
 20 56  1  0
 20 57  1  0
 21 58  1  6
 22 59  1  0
 22 60  1  0
 24 61  1  0
 25 62  1  0
 26 63  1  0
 27 64  1  0
 28 65  1  0
 30 66  1  0
 30 67  1  0
 31 68  1  0
 31 69  1  0
 32 70  1  0
 32 71  1  0
 33 72  1  0
 33 73  1  0
 34 74  1  0
 34 75  1  0
 35 76  1  0
 36 77  1  0
 36 78  1  0
 37 79  1  0
 37 80  1  0
 38 81  1  0
 38 82  1  0
 39 83  1  0
 39 84  1  0
 40 85  1  0
 40 86  1  0
M  CHG  2  21   1  35   1
M  END
>  <score>  (1) 
-11.242

$$$$
=
     RDKit          3D

 86 90  0  0  0  0  0  0  0  0999 V2000
   -0.0340   66.0060   71.2500 C   0  0  0  0  0  0  0  0  0  0  0  0
    0.3510   64.7960   71.6980 C   0  0  0  0  0  0  0  0  0  0  0  0
    1.1210   63.7510   70.9430 C   0  0  0  0  0  0  0  0  0  0  0  0
    0.5200   62.3610   71.1380 C   0  0  0  0  0  0  0  0  0  0  0  0
    0.3620   62.0300   72.5970 C   0  0  0  0  0  0  0  0  0  0  0  0
    0.0890   63.0380   73.5310 C   0  0  0  0  0  0  0  0  0  0  0  0
   -0.0310   64.4590   73.1100 C   0  0  0  0  0  0  0  0  0  0  0  0
   -0.4190   65.3120   73.9010 O   0  0  0  0  0  0  0  0  0  0  0  0
   -0.1020   62.7110   74.8780 C   0  0  0  0  0  0  0  0  0  0  0  0
   -0.0260   61.3810   75.3020 C   0  0  0  0  0  0  0  0  0  0  0  0
    0.2320   60.3660   74.3810 C   0  0  0  0  0  0  0  0  0  0  0  0
    0.4230   60.6960   73.0330 C   0  0  0  0  0  0  0  0  0  0  0  0
    0.7110   67.7600   67.4160 C   0  0  0  0  0  0  0  0  0  0  0  0
   -0.4930   67.0890   67.6790 C   0  0  0  0  0  0  0  0  0  0  0  0
   -0.7210   66.5050   68.9290 C   0  0  0  0  0  0  0  0  0  0  0  0
    0.2530   66.5710   69.9300 C   0  0  0  0  0  0  0  0  0  0  0  0
    1.4580   67.2290   69.6680 C   0  0  0  0  0  0  0  0  0  0  0  0
    1.6890   67.8140   68.4190 C   0  0  0  0  0  0  0  0  0  0  0  0
    0.9320   68.4380   66.0880 C   0  0  0  0  0  0  0  0  0  0  0  0
    3.0290   69.1950   64.9760 C   0  0  0  0  0  0  0  0  0  0  0  0
    2.2130   68.0120   65.4120 N   0  0  2  0  0  4  0  0  0  0  0  0
    1.9840   67.0190   64.2920 C   0  0  0  0  0  0  0  0  0  0  0  0
    2.9960   65.9050   64.2870 C   0  0  0  0  0  0  0  0  0  0  0  0
    4.0210   65.8880   63.3280 C   0  0  0  0  0  0  0  0  0  0  0  0
    4.9450   64.8420   63.3020 C   0  0  0  0  0  0  0  0  0  0  0  0
    4.8550   63.8080   64.2310 C   0  0  0  0  0  0  0  0  0  0  0  0
    3.8460   63.8190   65.1910 C   0  0  0  0  0  0  0  0  0  0  0  0
    2.9200   64.8620   65.2220 C   0  0  0  0  0  0  0  0  0  0  0  0
    0.3200   59.0300   74.6630 O   0  0  0  0  0  0  0  0  0  0  0  0
    1.5630   58.5620   75.1830 C   0  0  0  0  0  0  0  0  0  0  0  0
    2.4970   58.2360   74.0150 C   0  0  0  0  0  0  0  0  0  0  0  0
    3.8330   58.9820   74.1110 C   0  0  0  0  0  0  0  0  0  0  0  0
    3.9050   60.2230   73.2130 C   0  0  0  0  0  0  0  0  0  0  0  0
    3.5090   59.9360   71.7650 C   0  0  0  0  0  0  0  0  0  0  0  0
    4.6590   60.2450   70.8190 N   0  0  0  0  0  4  0  0  0  0  0  0
    5.5410   61.4080   71.2200 C   0  0  0  0  0  0  0  0  0  0  0  0
    4.8310   62.7350   71.0000 C   0  0  0  0  0  0  0  0  0  0  0  0
    4.3260   62.8780   69.5680 C   0  0  0  0  0  0  0  0  0  0  0  0
    3.4820   61.6810   69.1460 C   0  0  0  0  0  0  0  0  0  0  0  0
    4.2160   60.3680   69.3740 C   0  0  0  0  0  0  0  0  0  0  0  0
   -0.6199   66.6294   71.9415 H   0  0  0  0  0  0  0  0  0  0  0  0
    1.1049   64.0000   69.8717 H   0  0  0  0  0  0  0  0  0  0  0  0
    2.1516   63.7377   71.3273 H   0  0  0  0  0  0  0  0  0  0  0  0
   -0.4675   62.3272   70.6546 H   0  0  0  0  0  0  0  0  0  0  0  0
    1.2009   61.6236   70.6879 H   0  0  0  0  0  0  0  0  0  0  0  0
   -0.3134   63.5059   75.6084 H   0  0  0  0  0  0  0  0  0  0  0  0
   -0.1700   61.1346   76.3643 H   0  0  0  0  0  0  0  0  0  0  0  0
    0.6241   59.8973   72.3039 H   0  0  0  0  0  0  0  0  0  0  0  0
   -1.2630   67.0219   66.8963 H   0  0  0  0  0  0  0  0  0  0  0  0
   -1.6730   65.9903   69.1261 H   0  0  0  0  0  0  0  0  0  0  0  0
    2.2299   67.2871   70.4496 H   0  0  0  0  0  0  0  0  0  0  0  0
    2.6454   68.3204   68.2220 H   0  0  0  0  0  0  0  0  0  0  0  0
    0.0885   68.1939   65.4255 H   0  0  0  0  0  0  0  0  0  0  0  0
    1.0056   69.5187   66.2795 H   0  0  0  0  0  0  0  0  0  0  0  0
    3.3992   69.7317   65.8620 H   0  0  0  0  0  0  0  0  0  0  0  0
    3.8821   68.8499   64.3733 H   0  0  0  0  0  0  0  0  0  0  0  0
    2.4034   69.8699   64.3733 H   0  0  0  0  0  0  0  0  0  0  0  0
    2.7675   67.5089   66.1194 H   0  0  0  0  0  0  0  0  0  0  0  0
    0.9810   66.5826   64.4083 H   0  0  0  0  0  0  0  0  0  0  0  0
    2.0836   67.5624   63.3408 H   0  0  0  0  0  0  0  0  0  0  0  0
    4.0965   66.7031   62.5932 H   0  0  0  0  0  0  0  0  0  0  0  0
    5.7450   64.8343   62.5471 H   0  0  0  0  0  0  0  0  0  0  0  0
    5.5813   62.9822   64.2064 H   0  0  0  0  0  0  0  0  0  0  0  0
    3.7791   63.0036   65.9263 H   0  0  0  0  0  0  0  0  0  0  0  0
    2.1262   64.8665   65.9835 H   0  0  0  0  0  0  0  0  0  0  0  0
    2.0170   59.3415   75.8125 H   0  0  0  0  0  0  0  0  0  0  0  0
    1.3972   57.6603   75.7909 H   0  0  0  0  0  0  0  0  0  0  0  0
    2.6956   57.1541   74.0125 H   0  0  0  0  0  0  0  0  0  0  0  0
    1.9995   58.5559   73.0876 H   0  0  0  0  0  0  0  0  0  0  0  0
    3.9816   59.2977   75.1542 H   0  0  0  0  0  0  0  0  0  0  0  0
    4.6164   58.2892   73.7699 H   0  0  0  0  0  0  0  0  0  0  0  0
    3.2257   60.9880   73.6171 H   0  0  0  0  0  0  0  0  0  0  0  0
    4.9507   60.5644   73.2067 H   0  0  0  0  0  0  0  0  0  0  0  0
    3.2384   58.8742   71.6689 H   0  0  0  0  0  0  0  0  0  0  0  0
    2.6535   60.5748   71.5003 H   0  0  0  0  0  0  0  0  0  0  0  0
    5.2591   59.4122   70.9040 H   0  0  0  0  0  0  0  0  0  0  0  0
    5.8006   61.3116   72.2846 H   0  0  0  0  0  0  0  0  0  0  0  0
    6.4478   61.3896   70.5977 H   0  0  0  0  0  0  0  0  0  0  0  0
    3.9745   62.7986   71.6874 H   0  0  0  0  0  0  0  0  0  0  0  0
    5.5521   63.5436   71.1900 H   0  0  0  0  0  0  0  0  0  0  0  0
    3.7141   63.7892   69.4951 H   0  0  0  0  0  0  0  0  0  0  0  0
    5.1986   62.9348   68.9006 H   0  0  0  0  0  0  0  0  0  0  0  0
    2.5515   61.6760   69.7327 H   0  0  0  0  0  0  0  0  0  0  0  0
    3.2689   61.7731   68.0708 H   0  0  0  0  0  0  0  0  0  0  0  0
    3.5443   59.5318   69.1299 H   0  0  0  0  0  0  0  0  0  0  0  0
    5.1061   60.3439   68.7281 H   0  0  0  0  0  0  0  0  0  0  0  0
  2  1  2  0
  3  2  1  0
  4  3  1  0
  5  4  1  0
  6  5  2  0
  7  6  1  0
  7  2  1  0
  8  7  2  0
  9  6  1  0
 10  9  2  0
 11 10  1  0
 12 11  2  0
 12  5  1  0
 14 13  2  0
 15 14  1  0
 16 15  2  0
 16  1  1  0
 17 16  1  0
 18 17  2  0
 18 13  1  0
 19 13  1  0
 21 20  1  0
 21 19  1  0
 22 21  1  0
 23 22  1  0
 24 23  2  0
 25 24  1  0
 26 25  2  0
 27 26  1  0
 28 27  2  0
 28 23  1  0
 29 11  1  0
 30 29  1  0
 31 30  1  0
 32 31  1  0
 33 32  1  0
 34 33  1  0
 35 34  1  0
 36 35  1  0
 37 36  1  0
 38 37  1  0
 39 38  1  0
 40 39  1  0
 40 35  1  0
  1 41  1  0
  3 42  1  0
  3 43  1  0
  4 44  1  0
  4 45  1  0
  9 46  1  0
 10 47  1  0
 12 48  1  0
 14 49  1  0
 15 50  1  0
 17 51  1  0
 18 52  1  0
 19 53  1  0
 19 54  1  0
 20 55  1  0
 20 56  1  0
 20 57  1  0
 21 58  1  1
 22 59  1  0
 22 60  1  0
 24 61  1  0
 25 62  1  0
 26 63  1  0
 27 64  1  0
 28 65  1  0
 30 66  1  0
 30 67  1  0
 31 68  1  0
 31 69  1  0
 32 70  1  0
 32 71  1  0
 33 72  1  0
 33 73  1  0
 34 74  1  0
 34 75  1  0
 35 76  1  0
 36 77  1  0
 36 78  1  0
 37 79  1  0
 37 80  1  0
 38 81  1  0
 38 82  1  0
 39 83  1  0
 39 84  1  0
 40 85  1  0
 40 86  1  0
M  CHG  2  21   1  35   1
M  END
>  <score>  (2) 
-10.815

$$$$
=
     RDKit          3D

 86 90  0  0  0  0  0  0  0  0999 V2000
   -0.0100   65.8460   70.3760 C   0  0  0  0  0  0  0  0  0  0  0  0
    0.9660   65.0050   70.7710 C   0  0  0  0  0  0  0  0  0  0  0  0
    2.2250   64.6630   70.0280 C   0  0  0  0  0  0  0  0  0  0  0  0
    2.4990   63.1610   70.0500 C   0  0  0  0  0  0  0  0  0  0  0  0
    2.4850   62.6210   71.4540 C   0  0  0  0  0  0  0  0  0  0  0  0
    1.6480   63.1850   72.4260 C   0  0  0  0  0  0  0  0  0  0  0  0
    0.7710   64.3420   72.1040 C   0  0  0  0  0  0  0  0  0  0  0  0
   -0.0660   64.7330   72.9100 O   0  0  0  0  0  0  0  0  0  0  0  0
    1.6090   62.6450   73.7160 C   0  0  0  0  0  0  0  0  0  0  0  0
    2.3980   61.5380   74.0440 C   0  0  0  0  0  0  0  0  0  0  0  0
    3.2250   60.9570   73.0830 C   0  0  0  0  0  0  0  0  0  0  0  0
    3.2630   61.5010   71.7930 C   0  0  0  0  0  0  0  0  0  0  0  0
   -0.1700   68.2180   66.8150 C   0  0  0  0  0  0  0  0  0  0  0  0
   -1.1330   67.2290   67.0650 C   0  0  0  0  0  0  0  0  0  0  0  0
   -1.0630   66.4470   68.2230 C   0  0  0  0  0  0  0  0  0  0  0  0
   -0.0260   66.6320   69.1410 C   0  0  0  0  0  0  0  0  0  0  0  0
    0.9420   67.6100   68.8910 C   0  0  0  0  0  0  0  0  0  0  0  0
    0.8750   68.3930   67.7340 C   0  0  0  0  0  0  0  0  0  0  0  0
   -0.2780   69.0970   65.5960 C   0  0  0  0  0  0  0  0  0  0  0  0
    0.2970   68.3820   63.2790 C   0  0  0  0  0  0  0  0  0  0  0  0
    0.8300   68.8630   64.5980 N   0  0  2  0  0  4  0  0  0  0  0  0
    1.9290   67.9730   65.1390 C   0  0  0  0  0  0  0  0  0  0  0  0
    3.2720   68.6520   65.1570 C   0  0  0  0  0  0  0  0  0  0  0  0
    3.7360   69.2670   66.3310 C   0  0  0  0  0  0  0  0  0  0  0  0
    4.9680   69.9220   66.3450 C   0  0  0  0  0  0  0  0  0  0  0  0
    5.7470   69.9670   65.1910 C   0  0  0  0  0  0  0  0  0  0  0  0
    5.2990   69.3550   64.0220 C   0  0  0  0  0  0  0  0  0  0  0  0
    4.0680   68.6980   64.0030 C   0  0  0  0  0  0  0  0  0  0  0  0
    4.0340   59.8700   73.2710 O   0  0  0  0  0  0  0  0  0  0  0  0
    3.4200   58.6940   73.7990 C   0  0  0  0  0  0  0  0  0  0  0  0
    2.5260   58.0760   72.7210 C   0  0  0  0  0  0  0  0  0  0  0  0
    1.0520   58.0400   73.1370 C   0  0  0  0  0  0  0  0  0  0  0  0
    0.8350   58.2880   74.6350 C   0  0  0  0  0  0  0  0  0  0  0  0
   -0.5890   57.9780   75.0930 C   0  0  0  0  0  0  0  0  0  0  0  0
   -1.1740   59.1480   75.8680 N   0  0  0  0  0  4  0  0  0  0  0  0
   -2.6290   59.0110   76.2620 C   0  0  0  0  0  0  0  0  0  0  0  0
   -3.5420   59.1820   75.0570 C   0  0  0  0  0  0  0  0  0  0  0  0
   -3.2780   60.4940   74.3270 C   0  0  0  0  0  0  0  0  0  0  0  0
   -1.8030   60.6580   73.9780 C   0  0  0  0  0  0  0  0  0  0  0  0
   -0.9140   60.4850   75.2000 C   0  0  0  0  0  0  0  0  0  0  0  0
   -0.8768   65.9520   71.0449 H   0  0  0  0  0  0  0  0  0  0  0  0
    2.1239   64.9924   68.9833 H   0  0  0  0  0  0  0  0  0  0  0  0
    3.0654   65.1738   70.5208 H   0  0  0  0  0  0  0  0  0  0  0  0
    1.7247   62.6473   69.4612 H   0  0  0  0  0  0  0  0  0  0  0  0
    3.4965   62.9848   69.6212 H   0  0  0  0  0  0  0  0  0  0  0  0
    0.9537   63.0939   74.4769 H   0  0  0  0  0  0  0  0  0  0  0  0
    2.3663   61.1244   75.0628 H   0  0  0  0  0  0  0  0  0  0  0  0
    3.9129   61.0438   71.0323 H   0  0  0  0  0  0  0  0  0  0  0  0
   -1.9490   67.0672   66.3454 H   0  0  0  0  0  0  0  0  0  0  0  0
   -1.8297   65.6812   68.4121 H   0  0  0  0  0  0  0  0  0  0  0  0
    1.7611   67.7644   69.6088 H   0  0  0  0  0  0  0  0  0  0  0  0
    1.6480   69.1520   67.5433 H   0  0  0  0  0  0  0  0  0  0  0  0
   -1.2410   68.8962   65.1037 H   0  0  0  0  0  0  0  0  0  0  0  0
   -0.1990   70.1403   65.9355 H   0  0  0  0  0  0  0  0  0  0  0  0
   -0.5094   67.6543   63.4528 H   0  0  0  0  0  0  0  0  0  0  0  0
   -0.0967   69.2365   62.7090 H   0  0  0  0  0  0  0  0  0  0  0  0
    1.1067   67.9029   62.7090 H   0  0  0  0  0  0  0  0  0  0  0  0
    1.2712   69.7780   64.4277 H   0  0  0  0  0  0  0  0  0  0  0  0
    1.6697   67.6793   66.1668 H   0  0  0  0  0  0  0  0  0  0  0  0
    2.0072   67.1007   64.4734 H   0  0  0  0  0  0  0  0  0  0  0  0
    3.1248   69.2322   67.2449 H   0  0  0  0  0  0  0  0  0  0  0  0
    5.3243   70.4031   67.2678 H   0  0  0  0  0  0  0  0  0  0  0  0
    6.7167   70.4861   65.2026 H   0  0  0  0  0  0  0  0  0  0  0  0
    5.9168   69.3898   63.1126 H   0  0  0  0  0  0  0  0  0  0  0  0
    3.7202   68.2138   63.0785 H   0  0  0  0  0  0  0  0  0  0  0  0
    4.1962   57.9724   74.0935 H   0  0  0  0  0  0  0  0  0  0  0  0
    2.8162   58.9524   74.6814 H   0  0  0  0  0  0  0  0  0  0  0  0
    2.6192   58.6711   71.8006 H   0  0  0  0  0  0  0  0  0  0  0  0
    2.8565   57.0386   72.5645 H   0  0  0  0  0  0  0  0  0  0  0  0
    0.5118   58.8150   72.5735 H   0  0  0  0  0  0  0  0  0  0  0  0
    0.6776   57.0291   72.9179 H   0  0  0  0  0  0  0  0  0  0  0  0
    1.5311   57.6506   75.1999 H   0  0  0  0  0  0  0  0  0  0  0  0
    1.0138   59.3575   74.8200 H   0  0  0  0  0  0  0  0  0  0  0  0
   -1.2162   57.7798   74.2114 H   0  0  0  0  0  0  0  0  0  0  0  0
   -0.5636   57.0968   75.7510 H   0  0  0  0  0  0  0  0  0  0  0  0
   -0.6525   59.1206   76.7558 H   0  0  0  0  0  0  0  0  0  0  0  0
   -2.7910   58.0136   76.6966 H   0  0  0  0  0  0  0  0  0  0  0  0
   -2.8676   59.7959   76.9949 H   0  0  0  0  0  0  0  0  0  0  0  0
   -3.3727   58.3472   74.3610 H   0  0  0  0  0  0  0  0  0  0  0  0
   -4.5819   59.1940   75.4155 H   0  0  0  0  0  0  0  0  0  0  0  0
   -3.8680   60.5105   73.3987 H   0  0  0  0  0  0  0  0  0  0  0  0
   -3.5670   61.3209   74.9924 H   0  0  0  0  0  0  0  0  0  0  0  0
   -1.5281   59.9026   73.2271 H   0  0  0  0  0  0  0  0  0  0  0  0
   -1.6540   61.6750   73.5863 H   0  0  0  0  0  0  0  0  0  0  0  0
    0.1401   60.5345   74.8895 H   0  0  0  0  0  0  0  0  0  0  0  0
   -1.1390   61.2881   75.9172 H   0  0  0  0  0  0  0  0  0  0  0  0
  2  1  2  0
  3  2  1  0
  4  3  1  0
  5  4  1  0
  6  5  2  0
  7  6  1  0
  7  2  1  0
  8  7  2  0
  9  6  1  0
 10  9  2  0
 11 10  1  0
 12 11  2  0
 12  5  1  0
 14 13  2  0
 15 14  1  0
 16 15  2  0
 16  1  1  0
 17 16  1  0
 18 17  2  0
 18 13  1  0
 19 13  1  0
 21 20  1  0
 21 19  1  0
 22 21  1  0
 23 22  1  0
 24 23  2  0
 25 24  1  0
 26 25  2  0
 27 26  1  0
 28 27  2  0
 28 23  1  0
 29 11  1  0
 30 29  1  0
 31 30  1  0
 32 31  1  0
 33 32  1  0
 34 33  1  0
 35 34  1  0
 36 35  1  0
 37 36  1  0
 38 37  1  0
 39 38  1  0
 40 39  1  0
 40 35  1  0
  1 41  1  0
  3 42  1  0
  3 43  1  0
  4 44  1  0
  4 45  1  0
  9 46  1  0
 10 47  1  0
 12 48  1  0
 14 49  1  0
 15 50  1  0
 17 51  1  0
 18 52  1  0
 19 53  1  0
 19 54  1  0
 20 55  1  0
 20 56  1  0
 20 57  1  0
 21 58  1  6
 22 59  1  0
 22 60  1  0
 24 61  1  0
 25 62  1  0
 26 63  1  0
 27 64  1  0
 28 65  1  0
 30 66  1  0
 30 67  1  0
 31 68  1  0
 31 69  1  0
 32 70  1  0
 32 71  1  0
 33 72  1  0
 33 73  1  0
 34 74  1  0
 34 75  1  0
 35 76  1  0
 36 77  1  0
 36 78  1  0
 37 79  1  0
 37 80  1  0
 38 81  1  0
 38 82  1  0
 39 83  1  0
 39 84  1  0
 40 85  1  0
 40 86  1  0
M  CHG  2  21   1  35   1
M  END
>  <score>  (3) 
-10.607

$$$$
=
     RDKit          3D

 86 90  0  0  0  0  0  0  0  0999 V2000
   -0.0870   65.8210   70.3020 C   0  0  0  0  0  0  0  0  0  0  0  0
    0.9340   65.0370   70.6980 C   0  0  0  0  0  0  0  0  0  0  0  0
    2.2130   64.7700   69.9580 C   0  0  0  0  0  0  0  0  0  0  0  0
    2.5740   63.2860   69.9780 C   0  0  0  0  0  0  0  0  0  0  0  0
    2.5860   62.7430   71.3810 C   0  0  0  0  0  0  0  0  0  0  0  0
    1.7160   63.2560   72.3510 C   0  0  0  0  0  0  0  0  0  0  0  0
    0.7750   64.3610   72.0290 C   0  0  0  0  0  0  0  0  0  0  0  0
   -0.0860   64.7010   72.8330 O   0  0  0  0  0  0  0  0  0  0  0  0
    1.7040   62.7110   73.6400 C   0  0  0  0  0  0  0  0  0  0  0  0
    2.5550   61.6510   73.9680 C   0  0  0  0  0  0  0  0  0  0  0  0
    3.4160   61.1210   73.0080 C   0  0  0  0  0  0  0  0  0  0  0  0
    3.4260   61.6690   71.7190 C   0  0  0  0  0  0  0  0  0  0  0  0
   -0.3670   68.1950   66.7490 C   0  0  0  0  0  0  0  0  0  0  0  0
   -1.3220   67.2050   67.0320 C   0  0  0  0  0  0  0  0  0  0  0  0
   -1.2120   66.4230   68.1860 C   0  0  0  0  0  0  0  0  0  0  0  0
   -0.1450   66.6080   69.0690 C   0  0  0  0  0  0  0  0  0  0  0  0
    0.8140   67.5860   68.7860 C   0  0  0  0  0  0  0  0  0  0  0  0
    0.7080   68.3700   67.6330 C   0  0  0  0  0  0  0  0  0  0  0  0
   -0.5170   69.0740   65.5350 C   0  0  0  0  0  0  0  0  0  0  0  0
    0.1930   68.6190   63.1900 C   0  0  0  0  0  0  0  0  0  0  0  0
    0.6460   68.9660   64.5790 N   0  0  2  0  0  4  0  0  0  0  0  0
    1.7350   68.0420   65.0820 C   0  0  0  0  0  0  0  0  0  0  0  0
    3.0920   68.6920   65.0900 C   0  0  0  0  0  0  0  0  0  0  0  0
    3.8550   68.7460   63.9130 C   0  0  0  0  0  0  0  0  0  0  0  0
    5.1260   69.3230   63.9220 C   0  0  0  0  0  0  0  0  0  0  0  0
    5.6440   69.8510   65.1020 C   0  0  0  0  0  0  0  0  0  0  0  0
    4.8930   69.8080   66.2750 C   0  0  0  0  0  0  0  0  0  0  0  0
    3.6220   69.2330   66.2710 C   0  0  0  0  0  0  0  0  0  0  0  0
    4.2860   60.0810   73.1960 O   0  0  0  0  0  0  0  0  0  0  0  0
    3.8040   58.9650   73.9420 C   0  0  0  0  0  0  0  0  0  0  0  0
    2.6200   58.3450   73.1940 C   0  0  0  0  0  0  0  0  0  0  0  0
    1.8010   57.4000   74.0810 C   0  0  0  0  0  0  0  0  0  0  0  0
    0.8390   56.5040   73.2910 C   0  0  0  0  0  0  0  0  0  0  0  0
   -0.3330   55.9970   74.1320 C   0  0  0  0  0  0  0  0  0  0  0  0
   -0.4330   54.4820   74.0600 N   0  0  0  0  0  4  0  0  0  0  0  0
   -1.3190   53.8340   75.1020 C   0  0  0  0  0  0  0  0  0  0  0  0
   -0.6600   53.8580   76.4730 C   0  0  0  0  0  0  0  0  0  0  0  0
    0.7290   53.2290   76.4460 C   0  0  0  0  0  0  0  0  0  0  0  0
    1.6040   53.8430   75.3600 C   0  0  0  0  0  0  0  0  0  0  0  0
    0.9230   53.8050   74.0000 C   0  0  0  0  0  0  0  0  0  0  0  0
   -0.9604   65.8751   70.9685 H   0  0  0  0  0  0  0  0  0  0  0  0
    2.0959   65.0950   68.9137 H   0  0  0  0  0  0  0  0  0  0  0  0
    3.0209   65.3277   70.4543 H   0  0  0  0  0  0  0  0  0  0  0  0
    1.8332   62.7294   69.3851 H   0  0  0  0  0  0  0  0  0  0  0  0
    3.5817   63.1690   69.5528 H   0  0  0  0  0  0  0  0  0  0  0  0
    1.0210   63.1189   74.3997 H   0  0  0  0  0  0  0  0  0  0  0  0
    2.5451   61.2343   74.9860 H   0  0  0  0  0  0  0  0  0  0  0  0
    4.1027   61.2515   70.9589 H   0  0  0  0  0  0  0  0  0  0  0  0
   -2.1625   67.0436   66.3410 H   0  0  0  0  0  0  0  0  0  0  0  0
   -1.9712   65.6564   68.4003 H   0  0  0  0  0  0  0  0  0  0  0  0
    1.6575   67.7395   69.4752 H   0  0  0  0  0  0  0  0  0  0  0  0
    1.4736   69.1299   67.4175 H   0  0  0  0  0  0  0  0  0  0  0  0
   -1.4353   68.7834   65.0036 H   0  0  0  0  0  0  0  0  0  0  0  0
   -0.5570   70.1155   65.8868 H   0  0  0  0  0  0  0  0  0  0  0  0
   -0.6792   67.9509   63.2449 H   0  0  0  0  0  0  0  0  0  0  0  0
   -0.0830   69.5389   62.6538 H   0  0  0  0  0  0  0  0  0  0  0  0
    1.0093   68.1129   62.6538 H   0  0  0  0  0  0  0  0  0  0  0  0
    1.0748   69.9012   64.5297 H   0  0  0  0  0  0  0  0  0  0  0  0
    1.4873   67.7324   66.1081 H   0  0  0  0  0  0  0  0  0  0  0  0
    1.7830   67.1824   64.3974 H   0  0  0  0  0  0  0  0  0  0  0  0
    3.4491   68.3314   62.9785 H   0  0  0  0  0  0  0  0  0  0  0  0
    5.7190   69.3607   62.9963 H   0  0  0  0  0  0  0  0  0  0  0  0
    6.6471   70.3025   65.1081 H   0  0  0  0  0  0  0  0  0  0  0  0
    5.3029   70.2280   67.2054 H   0  0  0  0  0  0  0  0  0  0  0  0
    3.0321   69.2036   67.1990 H   0  0  0  0  0  0  0  0  0  0  0  0
    4.6049   58.2187   74.0497 H   0  0  0  0  0  0  0  0  0  0  0  0
    3.4835   59.2941   74.9415 H   0  0  0  0  0  0  0  0  0  0  0  0
    1.9641   59.1532   72.8382 H   0  0  0  0  0  0  0  0  0  0  0  0
    3.0225   57.7559   72.3568 H   0  0  0  0  0  0  0  0  0  0  0  0
    2.4963   56.7570   74.6406 H   0  0  0  0  0  0  0  0  0  0  0  0
    1.1887   58.0274   74.7454 H   0  0  0  0  0  0  0  0  0  0  0  0
    0.4389   57.0806   72.4440 H   0  0  0  0  0  0  0  0  0  0  0  0
    1.4086   55.6243   72.9568 H   0  0  0  0  0  0  0  0  0  0  0  0
   -0.1830   56.2992   75.1790 H   0  0  0  0  0  0  0  0  0  0  0  0
   -1.2637   56.4311   73.7379 H   0  0  0  0  0  0  0  0  0  0  0  0
   -0.9150   54.3246   73.1635 H   0  0  0  0  0  0  0  0  0  0  0  0
   -2.2727   54.3798   75.1522 H   0  0  0  0  0  0  0  0  0  0  0  0
   -1.4880   52.7859   74.8139 H   0  0  0  0  0  0  0  0  0  0  0  0
   -0.5713   54.9023   76.8070 H   0  0  0  0  0  0  0  0  0  0  0  0
   -1.2862   53.2735   77.1631 H   0  0  0  0  0  0  0  0  0  0  0  0
    1.2104   53.3854   77.4226 H   0  0  0  0  0  0  0  0  0  0  0  0
    0.6159   52.1564   76.2300 H   0  0  0  0  0  0  0  0  0  0  0  0
    1.8167   54.8897   75.6230 H   0  0  0  0  0  0  0  0  0  0  0  0
    2.5322   53.2563   75.2951 H   0  0  0  0  0  0  0  0  0  0  0  0
    1.5545   54.3261   73.2653 H   0  0  0  0  0  0  0  0  0  0  0  0
    0.7811   52.7549   73.7049 H   0  0  0  0  0  0  0  0  0  0  0  0
  2  1  2  0
  3  2  1  0
  4  3  1  0
  5  4  1  0
  6  5  2  0
  7  6  1  0
  7  2  1  0
  8  7  2  0
  9  6  1  0
 10  9  2  0
 11 10  1  0
 12 11  2  0
 12  5  1  0
 14 13  2  0
 15 14  1  0
 16 15  2  0
 16  1  1  0
 17 16  1  0
 18 17  2  0
 18 13  1  0
 19 13  1  0
 21 20  1  0
 21 19  1  0
 22 21  1  0
 23 22  1  0
 24 23  2  0
 25 24  1  0
 26 25  2  0
 27 26  1  0
 28 27  2  0
 28 23  1  0
 29 11  1  0
 30 29  1  0
 31 30  1  0
 32 31  1  0
 33 32  1  0
 34 33  1  0
 35 34  1  0
 36 35  1  0
 37 36  1  0
 38 37  1  0
 39 38  1  0
 40 39  1  0
 40 35  1  0
  1 41  1  0
  3 42  1  0
  3 43  1  0
  4 44  1  0
  4 45  1  0
  9 46  1  0
 10 47  1  0
 12 48  1  0
 14 49  1  0
 15 50  1  0
 17 51  1  0
 18 52  1  0
 19 53  1  0
 19 54  1  0
 20 55  1  0
 20 56  1  0
 20 57  1  0
 21 58  1  6
 22 59  1  0
 22 60  1  0
 24 61  1  0
 25 62  1  0
 26 63  1  0
 27 64  1  0
 28 65  1  0
 30 66  1  0
 30 67  1  0
 31 68  1  0
 31 69  1  0
 32 70  1  0
 32 71  1  0
 33 72  1  0
 33 73  1  0
 34 74  1  0
 34 75  1  0
 35 76  1  0
 36 77  1  0
 36 78  1  0
 37 79  1  0
 37 80  1  0
 38 81  1  0
 38 82  1  0
 39 83  1  0
 39 84  1  0
 40 85  1  0
 40 86  1  0
M  CHG  2  21   1  35   1
M  END
>  <score>  (4) 
-10.503

$$$$
=
     RDKit          3D

 86 90  0  0  0  0  0  0  0  0999 V2000
    2.2030   57.4950   72.3110 C   0  0  0  0  0  0  0  0  0  0  0  0
    2.2960   58.8320   72.1780 C   0  0  0  0  0  0  0  0  0  0  0  0
    1.7020   59.8770   73.0790 C   0  0  0  0  0  0  0  0  0  0  0  0
    1.0360   60.9950   72.2790 C   0  0  0  0  0  0  0  0  0  0  0  0
    1.9740   61.5720   71.2550 C   0  0  0  0  0  0  0  0  0  0  0  0
    2.9430   60.7650   70.6410 C   0  0  0  0  0  0  0  0  0  0  0  0
    3.0830   59.3290   71.0010 C   0  0  0  0  0  0  0  0  0  0  0  0
    3.8250   58.5960   70.3560 O   0  0  0  0  0  0  0  0  0  0  0  0
    3.7790   61.3020   69.6560 C   0  0  0  0  0  0  0  0  0  0  0  0
    3.6530   62.6410   69.2730 C   0  0  0  0  0  0  0  0  0  0  0  0
    2.6850   63.4510   69.8650 C   0  0  0  0  0  0  0  0  0  0  0  0
    1.8490   62.9120   70.8510 C   0  0  0  0  0  0  0  0  0  0  0  0
    0.2070   55.5240   75.5450 C   0  0  0  0  0  0  0  0  0  0  0  0
    1.5210   55.9960   75.6900 C   0  0  0  0  0  0  0  0  0  0  0  0
    2.1700   56.6230   74.6230 C   0  0  0  0  0  0  0  0  0  0  0  0
    1.5250   56.7790   73.3930 C   0  0  0  0  0  0  0  0  0  0  0  0
    0.2200   56.3010   73.2410 C   0  0  0  0  0  0  0  0  0  0  0  0
   -0.4330   55.6720   74.3060 C   0  0  0  0  0  0  0  0  0  0  0  0
   -0.5120   54.8990   76.7130 C   0  0  0  0  0  0  0  0  0  0  0  0
   -0.8110   55.2270   79.1650 C   0  0  0  0  0  0  0  0  0  0  0  0
   -0.8190   55.8840   77.8150 N   0  0  2  0  0  4  0  0  0  0  0  0
   -2.0860   56.6720   77.5610 C   0  0  0  0  0  0  0  0  0  0  0  0
   -1.8610   57.8670   76.6730 C   0  0  0  0  0  0  0  0  0  0  0  0
   -2.7540   58.1470   75.6270 C   0  0  0  0  0  0  0  0  0  0  0  0
   -2.5340   59.2380   74.7850 C   0  0  0  0  0  0  0  0  0  0  0  0
   -1.4240   60.0560   74.9790 C   0  0  0  0  0  0  0  0  0  0  0  0
   -0.5340   59.7910   76.0180 C   0  0  0  0  0  0  0  0  0  0  0  0
   -0.7500   58.7020   76.8640 C   0  0  0  0  0  0  0  0  0  0  0  0
    2.4510   64.7680   69.5730 O   0  0  0  0  0  0  0  0  0  0  0  0
    1.4030   65.4120   70.2970 C   0  0  0  0  0  0  0  0  0  0  0  0
    1.0300   66.7100   69.5770 C   0  0  0  0  0  0  0  0  0  0  0  0
   -0.4110   66.6940   69.0560 C   0  0  0  0  0  0  0  0  0  0  0  0
   -0.5200   67.0020   67.5570 C   0  0  0  0  0  0  0  0  0  0  0  0
    0.8360   67.2470   66.8960 C   0  0  0  0  0  0  0  0  0  0  0  0
    0.9190   68.6600   66.3410 N   0  0  0  0  0  4  0  0  0  0  0  0
    1.0570   68.7660   64.8380 C   0  0  0  0  0  0  0  0  0  0  0  0
    2.4540   68.3660   64.3860 C   0  0  0  0  0  0  0  0  0  0  0  0
    3.5340   69.1640   65.1090 C   0  0  0  0  0  0  0  0  0  0  0  0
    3.3630   69.1020   66.6230 C   0  0  0  0  0  0  0  0  0  0  0  0
    1.9590   69.5090   67.0460 C   0  0  0  0  0  0  0  0  0  0  0  0
    2.6820   56.8829   71.5326 H   0  0  0  0  0  0  0  0  0  0  0  0
    0.9492   59.4040   73.7268 H   0  0  0  0  0  0  0  0  0  0  0  0
    2.5132   60.3176   73.6772 H   0  0  0  0  0  0  0  0  0  0  0  0
    0.1516   60.5896   71.7657 H   0  0  0  0  0  0  0  0  0  0  0  0
    0.7501   61.7962   72.9764 H   0  0  0  0  0  0  0  0  0  0  0  0
    4.5404   60.6668   69.1797 H   0  0  0  0  0  0  0  0  0  0  0  0
    4.3194   63.0563   68.5026 H   0  0  0  0  0  0  0  0  0  0  0  0
    1.0819   63.5481   71.3168 H   0  0  0  0  0  0  0  0  0  0  0  0
    2.0434   55.8715   76.6500 H   0  0  0  0  0  0  0  0  0  0  0  0
    3.1965   56.9967   74.7522 H   0  0  0  0  0  0  0  0  0  0  0  0
   -0.2967   56.4204   72.2773 H   0  0  0  0  0  0  0  0  0  0  0  0
   -1.4559   55.2907   74.1708 H   0  0  0  0  0  0  0  0  0  0  0  0
   -1.4588   54.4705   76.3526 H   0  0  0  0  0  0  0  0  0  0  0  0
    0.1532   54.1313   77.1351 H   0  0  0  0  0  0  0  0  0  0  0  0
   -0.8204   55.9990   79.9485 H   0  0  0  0  0  0  0  0  0  0  0  0
   -1.7014   54.5894   79.2678 H   0  0  0  0  0  0  0  0  0  0  0  0
    0.0947   54.6113   79.2678 H   0  0  0  0  0  0  0  0  0  0  0  0
   -0.0557   56.5756   77.8134 H   0  0  0  0  0  0  0  0  0  0  0  0
   -2.8212   56.0101   77.0801 H   0  0  0  0  0  0  0  0  0  0  0  0
   -2.4455   57.0435   78.5319 H   0  0  0  0  0  0  0  0  0  0  0  0
   -3.6319   57.5031   75.4701 H   0  0  0  0  0  0  0  0  0  0  0  0
   -3.2381   59.4519   73.9674 H   0  0  0  0  0  0  0  0  0  0  0  0
   -1.2494   60.9125   74.3112 H   0  0  0  0  0  0  0  0  0  0  0  0
    0.3400   60.4410   76.1717 H   0  0  0  0  0  0  0  0  0  0  0  0
   -0.0460   58.4976   77.6841 H   0  0  0  0  0  0  0  0  0  0  0  0
    0.5256   64.7502   70.3440 H   0  0  0  0  0  0  0  0  0  0  0  0
    1.7391   65.6360   71.3202 H   0  0  0  0  0  0  0  0  0  0  0  0
    1.1426   67.5489   70.2795 H   0  0  0  0  0  0  0  0  0  0  0  0
    1.6993   66.8180   68.7108 H   0  0  0  0  0  0  0  0  0  0  0  0
   -0.8369   65.6964   69.2389 H   0  0  0  0  0  0  0  0  0  0  0  0
   -0.9586   67.4841   69.5907 H   0  0  0  0  0  0  0  0  0  0  0  0
   -1.0037   66.1490   67.0585 H   0  0  0  0  0  0  0  0  0  0  0  0
   -1.1075   67.9262   67.4535 H   0  0  0  0  0  0  0  0  0  0  0  0
    1.6317   67.1054   67.6422 H   0  0  0  0  0  0  0  0  0  0  0  0
    0.9576   66.5348   66.0665 H   0  0  0  0  0  0  0  0  0  0  0  0
   -0.0124   69.0460   66.5517 H   0  0  0  0  0  0  0  0  0  0  0  0
    0.3213   68.1010   64.3620 H   0  0  0  0  0  0  0  0  0  0  0  0
    0.8808   69.8113   64.5441 H   0  0  0  0  0  0  0  0  0  0  0  0
    2.6027   67.2961   64.5939 H   0  0  0  0  0  0  0  0  0  0  0  0
    2.5377   68.5752   63.3093 H   0  0  0  0  0  0  0  0  0  0  0  0
    4.5190   68.7519   64.8444 H   0  0  0  0  0  0  0  0  0  0  0  0
    3.4498   70.2155   64.7973 H   0  0  0  0  0  0  0  0  0  0  0  0
    3.5536   68.0730   66.9618 H   0  0  0  0  0  0  0  0  0  0  0  0
    4.0765   69.8044   67.0786 H   0  0  0  0  0  0  0  0  0  0  0  0
    1.8568   69.3762   68.1332 H   0  0  0  0  0  0  0  0  0  0  0  0
    1.7992   70.5626   66.7732 H   0  0  0  0  0  0  0  0  0  0  0  0
  2  1  2  0
  3  2  1  0
  4  3  1  0
  5  4  1  0
  6  5  2  0
  7  6  1  0
  7  2  1  0
  8  7  2  0
  9  6  1  0
 10  9  2  0
 11 10  1  0
 12 11  2  0
 12  5  1  0
 14 13  2  0
 15 14  1  0
 16 15  2  0
 16  1  1  0
 17 16  1  0
 18 17  2  0
 18 13  1  0
 19 13  1  0
 21 20  1  0
 21 19  1  0
 22 21  1  0
 23 22  1  0
 24 23  2  0
 25 24  1  0
 26 25  2  0
 27 26  1  0
 28 27  2  0
 28 23  1  0
 29 11  1  0
 30 29  1  0
 31 30  1  0
 32 31  1  0
 33 32  1  0
 34 33  1  0
 35 34  1  0
 36 35  1  0
 37 36  1  0
 38 37  1  0
 39 38  1  0
 40 39  1  0
 40 35  1  0
  1 41  1  0
  3 42  1  0
  3 43  1  0
  4 44  1  0
  4 45  1  0
  9 46  1  0
 10 47  1  0
 12 48  1  0
 14 49  1  0
 15 50  1  0
 17 51  1  0
 18 52  1  0
 19 53  1  0
 19 54  1  0
 20 55  1  0
 20 56  1  0
 20 57  1  0
 21 58  1  1
 22 59  1  0
 22 60  1  0
 24 61  1  0
 25 62  1  0
 26 63  1  0
 27 64  1  0
 28 65  1  0
 30 66  1  0
 30 67  1  0
 31 68  1  0
 31 69  1  0
 32 70  1  0
 32 71  1  0
 33 72  1  0
 33 73  1  0
 34 74  1  0
 34 75  1  0
 35 76  1  0
 36 77  1  0
 36 78  1  0
 37 79  1  0
 37 80  1  0
 38 81  1  0
 38 82  1  0
 39 83  1  0
 39 84  1  0
 40 85  1  0
 40 86  1  0
M  CHG  2  21   1  35   1
M  END
>  <score>  (5) 
-10.189

$$$$
=
     RDKit          3D

 86 90  0  0  0  0  0  0  0  0999 V2000
    2.1140   58.3220   72.5850 C   0  0  0  0  0  0  0  0  0  0  0  0
    1.7710   59.6240   72.6200 C   0  0  0  0  0  0  0  0  0  0  0  0
    0.6570   60.2470   73.4110 C   0  0  0  0  0  0  0  0  0  0  0  0
   -0.1410   61.2410   72.5700 C   0  0  0  0  0  0  0  0  0  0  0  0
    0.7570   62.2600   71.9230 C   0  0  0  0  0  0  0  0  0  0  0  0
    2.0600   61.9180   71.5380 C   0  0  0  0  0  0  0  0  0  0  0  0
    2.5960   60.5510   71.7760 C   0  0  0  0  0  0  0  0  0  0  0  0
    3.6750   60.2140   71.3030 O   0  0  0  0  0  0  0  0  0  0  0  0
    2.8700   62.8600   70.8950 C   0  0  0  0  0  0  0  0  0  0  0  0
    2.3870   64.1450   70.6280 C   0  0  0  0  0  0  0  0  0  0  0  0
    1.0880   64.4950   70.9940 C   0  0  0  0  0  0  0  0  0  0  0  0
    0.2790   63.5500   71.6380 C   0  0  0  0  0  0  0  0  0  0  0  0
    0.2420   55.2570   74.9160 C   0  0  0  0  0  0  0  0  0  0  0  0
    1.4610   55.8250   75.3180 C   0  0  0  0  0  0  0  0  0  0  0  0
    2.0730   56.8140   74.5420 C   0  0  0  0  0  0  0  0  0  0  0  0
    1.4860   57.2410   73.3480 C   0  0  0  0  0  0  0  0  0  0  0  0
    0.2780   56.6710   72.9370 C   0  0  0  0  0  0  0  0  0  0  0  0
   -0.3370   55.6820   73.7110 C   0  0  0  0  0  0  0  0  0  0  0  0
   -0.4440   54.2320   75.7820 C   0  0  0  0  0  0  0  0  0  0  0  0
   -0.8910   53.7060   78.1760 C   0  0  0  0  0  0  0  0  0  0  0  0
   -0.8640   54.7790   77.1250 N   0  0  2  0  0  4  0  0  0  0  0  0
   -2.1570   55.5630   77.0620 C   0  0  0  0  0  0  0  0  0  0  0  0
   -1.9520   56.9920   76.6380 C   0  0  0  0  0  0  0  0  0  0  0  0
   -0.9960   57.7900   77.2880 C   0  0  0  0  0  0  0  0  0  0  0  0
   -0.8210   59.1240   76.9170 C   0  0  0  0  0  0  0  0  0  0  0  0
   -1.5950   59.6710   75.8960 C   0  0  0  0  0  0  0  0  0  0  0  0
   -2.5410   58.8870   75.2410 C   0  0  0  0  0  0  0  0  0  0  0  0
   -2.7200   57.5530   75.6070 C   0  0  0  0  0  0  0  0  0  0  0  0
    0.4930   65.7090   70.7810 O   0  0  0  0  0  0  0  0  0  0  0  0
    1.0890   66.5550   69.7980 C   0  0  0  0  0  0  0  0  0  0  0  0
    0.0490   66.8660   68.7180 C   0  0  0  0  0  0  0  0  0  0  0  0
    0.5110   67.9760   67.7670 C   0  0  0  0  0  0  0  0  0  0  0  0
    0.4340   67.5810   66.2870 C   0  0  0  0  0  0  0  0  0  0  0  0
    1.8050   67.5130   65.6140 C   0  0  0  0  0  0  0  0  0  0  0  0
    2.1630   68.8490   64.9810 N   0  0  0  0  0  4  0  0  0  0  0  0
    1.9310   68.9490   63.4890 C   0  0  0  0  0  0  0  0  0  0  0  0
    2.9750   68.1550   62.7180 C   0  0  0  0  0  0  0  0  0  0  0  0
    4.3940   68.5650   63.0970 C   0  0  0  0  0  0  0  0  0  0  0  0
    4.6110   68.5170   64.6050 C   0  0  0  0  0  0  0  0  0  0  0  0
    3.5550   69.3210   65.3510 C   0  0  0  0  0  0  0  0  0  0  0  0
    2.9450   58.0440   71.9200 H   0  0  0  0  0  0  0  0  0  0  0  0
   -0.0187   59.4533   73.7625 H   0  0  0  0  0  0  0  0  0  0  0  0
    1.0989   60.7904   74.2592 H   0  0  0  0  0  0  0  0  0  0  0  0
   -0.6824   60.6920   71.7855 H   0  0  0  0  0  0  0  0  0  0  0  0
   -0.8423   61.7695   73.2325 H   0  0  0  0  0  0  0  0  0  0  0  0
    3.8935   62.5882   70.5975 H   0  0  0  0  0  0  0  0  0  0  0  0
    3.0335   64.8813   70.1281 H   0  0  0  0  0  0  0  0  0  0  0  0
   -0.7473   63.8224   71.9253 H   0  0  0  0  0  0  0  0  0  0  0  0
    1.9384   55.4895   76.2505 H   0  0  0  0  0  0  0  0  0  0  0  0
    3.0228   57.2589   74.8736 H   0  0  0  0  0  0  0  0  0  0  0  0
   -0.1918   57.0023   71.9992 H   0  0  0  0  0  0  0  0  0  0  0  0
   -1.2826   55.2336   73.3722 H   0  0  0  0  0  0  0  0  0  0  0  0
   -1.3396   53.8711   75.2551 H   0  0  0  0  0  0  0  0  0  0  0  0
    0.2777   53.4229   75.9678 H   0  0  0  0  0  0  0  0  0  0  0  0
   -0.8793   54.1695   79.1735 H   0  0  0  0  0  0  0  0  0  0  0  0
   -1.8046   53.1040   78.0620 H   0  0  0  0  0  0  0  0  0  0  0  0
   -0.0089   53.0588   78.0620 H   0  0  0  0  0  0  0  0  0  0  0  0
   -0.1421   55.4577   77.4064 H   0  0  0  0  0  0  0  0  0  0  0  0
   -2.8290   55.0752   76.3406 H   0  0  0  0  0  0  0  0  0  0  0  0
   -2.5861   55.5762   78.0748 H   0  0  0  0  0  0  0  0  0  0  0  0
   -0.3820   57.3612   78.0937 H   0  0  0  0  0  0  0  0  0  0  0  0
   -0.0716   59.7438   77.4310 H   0  0  0  0  0  0  0  0  0  0  0  0
   -1.4586   60.7235   75.6069 H   0  0  0  0  0  0  0  0  0  0  0  0
   -3.1486   59.3206   74.4330 H   0  0  0  0  0  0  0  0  0  0  0  0
   -3.4673   56.9378   75.0844 H   0  0  0  0  0  0  0  0  0  0  0  0
    1.4234   67.4909   70.2695 H   0  0  0  0  0  0  0  0  0  0  0  0
    1.9563   66.0505   69.3472 H   0  0  0  0  0  0  0  0  0  0  0  0
   -0.1367   65.9534   68.1326 H   0  0  0  0  0  0  0  0  0  0  0  0
   -0.8651   67.2136   69.2216 H   0  0  0  0  0  0  0  0  0  0  0  0
   -0.1258   68.8588   67.9259 H   0  0  0  0  0  0  0  0  0  0  0  0
    1.5679   68.1795   67.9943 H   0  0  0  0  0  0  0  0  0  0  0  0
   -0.0423   66.5923   66.2126 H   0  0  0  0  0  0  0  0  0  0  0  0
   -0.1481   68.3577   65.7694 H   0  0  0  0  0  0  0  0  0  0  0  0
    2.5642   67.2560   66.3674 H   0  0  0  0  0  0  0  0  0  0  0  0
    1.7730   66.7466   64.8256 H   0  0  0  0  0  0  0  0  0  0  0  0
    1.4797   69.4951   65.4012 H   0  0  0  0  0  0  0  0  0  0  0  0
    0.9322   68.5529   63.2534 H   0  0  0  0  0  0  0  0  0  0  0  0
    2.0074   70.0058   63.1936 H   0  0  0  0  0  0  0  0  0  0  0  0
    2.8428   67.0854   62.9384 H   0  0  0  0  0  0  0  0  0  0  0  0
    2.8357   68.3587   61.6460 H   0  0  0  0  0  0  0  0  0  0  0  0
    5.1046   67.8792   62.6126 H   0  0  0  0  0  0  0  0  0  0  0  0
    4.5533   69.6001   62.7604 H   0  0  0  0  0  0  0  0  0  0  0  0
    4.5639   67.4700   64.9389 H   0  0  0  0  0  0  0  0  0  0  0  0
    5.5953   68.9564   64.8243 H   0  0  0  0  0  0  0  0  0  0  0  0
    3.7032   69.1952   66.4337 H   0  0  0  0  0  0  0  0  0  0  0  0
    3.6550   70.3806   65.0731 H   0  0  0  0  0  0  0  0  0  0  0  0
  2  1  2  0
  3  2  1  0
  4  3  1  0
  5  4  1  0
  6  5  2  0
  7  6  1  0
  7  2  1  0
  8  7  2  0
  9  6  1  0
 10  9  2  0
 11 10  1  0
 12 11  2  0
 12  5  1  0
 14 13  2  0
 15 14  1  0
 16 15  2  0
 16  1  1  0
 17 16  1  0
 18 17  2  0
 18 13  1  0
 19 13  1  0
 21 20  1  0
 21 19  1  0
 22 21  1  0
 23 22  1  0
 24 23  2  0
 25 24  1  0
 26 25  2  0
 27 26  1  0
 28 27  2  0
 28 23  1  0
 29 11  1  0
 30 29  1  0
 31 30  1  0
 32 31  1  0
 33 32  1  0
 34 33  1  0
 35 34  1  0
 36 35  1  0
 37 36  1  0
 38 37  1  0
 39 38  1  0
 40 39  1  0
 40 35  1  0
  1 41  1  0
  3 42  1  0
  3 43  1  0
  4 44  1  0
  4 45  1  0
  9 46  1  0
 10 47  1  0
 12 48  1  0
 14 49  1  0
 15 50  1  0
 17 51  1  0
 18 52  1  0
 19 53  1  0
 19 54  1  0
 20 55  1  0
 20 56  1  0
 20 57  1  0
 21 58  1  1
 22 59  1  0
 22 60  1  0
 24 61  1  0
 25 62  1  0
 26 63  1  0
 27 64  1  0
 28 65  1  0
 30 66  1  0
 30 67  1  0
 31 68  1  0
 31 69  1  0
 32 70  1  0
 32 71  1  0
 33 72  1  0
 33 73  1  0
 34 74  1  0
 34 75  1  0
 35 76  1  0
 36 77  1  0
 36 78  1  0
 37 79  1  0
 37 80  1  0
 38 81  1  0
 38 82  1  0
 39 83  1  0
 39 84  1  0
 40 85  1  0
 40 86  1  0
M  CHG  2  21   1  35   1
M  END
>  <score>  (6) 
-9.857

$$$$
=
     RDKit          3D

 86 90  0  0  0  0  0  0  0  0999 V2000
   -0.1630   62.9870   72.0430 C   0  0  0  0  0  0  0  0  0  0  0  0
    0.0480   62.6690   73.3350 C   0  0  0  0  0  0  0  0  0  0  0  0
    0.8870   63.4190   74.3280 C   0  0  0  0  0  0  0  0  0  0  0  0
    1.7700   62.4760   75.1440 C   0  0  0  0  0  0  0  0  0  0  0  0
    0.9610   61.3750   75.7750 C   0  0  0  0  0  0  0  0  0  0  0  0
   -0.1820   60.8750   75.1360 C   0  0  0  0  0  0  0  0  0  0  0  0
   -0.6360   61.4290   73.8340 C   0  0  0  0  0  0  0  0  0  0  0  0
   -1.5420   60.8880   73.2090 O   0  0  0  0  0  0  0  0  0  0  0  0
   -0.8990   59.8200   75.7110 C   0  0  0  0  0  0  0  0  0  0  0  0
   -0.4810   59.2550   76.9200 C   0  0  0  0  0  0  0  0  0  0  0  0
    0.6620   59.7340   77.5590 C   0  0  0  0  0  0  0  0  0  0  0  0
    1.3770   60.7900   76.9820 C   0  0  0  0  0  0  0  0  0  0  0  0
    1.3520   66.3550   69.8770 C   0  0  0  0  0  0  0  0  0  0  0  0
    2.1000   65.1720   69.9860 C   0  0  0  0  0  0  0  0  0  0  0  0
    1.6040   64.0840   70.7100 C   0  0  0  0  0  0  0  0  0  0  0  0
    0.3620   64.1620   71.3450 C   0  0  0  0  0  0  0  0  0  0  0  0
   -0.3830   65.3410   71.2470 C   0  0  0  0  0  0  0  0  0  0  0  0
    0.1100   66.4320   70.5250 C   0  0  0  0  0  0  0  0  0  0  0  0
    1.8620   67.5070   69.0500 C   0  0  0  0  0  0  0  0  0  0  0  0
    0.2940   67.4190   67.1160 C   0  0  0  0  0  0  0  0  0  0  0  0
    0.7690   68.2210   68.2930 N   0  0  2  0  0  4  0  0  0  0  0  0
    1.1460   69.6380   67.9160 C   0  0  0  0  0  0  0  0  0  0  0  0
    2.6230   69.8030   67.6770 C   0  0  0  0  0  0  0  0  0  0  0  0
    3.1920   69.3840   66.4640 C   0  0  0  0  0  0  0  0  0  0  0  0
    4.5660   69.5100   66.2490 C   0  0  0  0  0  0  0  0  0  0  0  0
    5.3800   70.0540   67.2390 C   0  0  0  0  0  0  0  0  0  0  0  0
    4.8250   70.4790   68.4440 C   0  0  0  0  0  0  0  0  0  0  0  0
    3.4520   70.3560   68.6640 C   0  0  0  0  0  0  0  0  0  0  0  0
    1.1810   59.2630   78.7350 O   0  0  0  0  0  0  0  0  0  0  0  0
    2.5450   58.8440   78.7140 C   0  0  0  0  0  0  0  0  0  0  0  0
    2.6660   57.5980   77.8320 C   0  0  0  0  0  0  0  0  0  0  0  0
    3.7770   57.7300   76.7850 C   0  0  0  0  0  0  0  0  0  0  0  0
    3.2500   57.8740   75.3520 C   0  0  0  0  0  0  0  0  0  0  0  0
    3.6930   59.1730   74.6790 C   0  0  0  0  0  0  0  0  0  0  0  0
    4.0620   58.9300   73.2240 N   0  0  0  0  0  4  0  0  0  0  0  0
    4.7290   60.0880   72.5160 C   0  0  0  0  0  0  0  0  0  0  0  0
    3.7300   61.1950   72.2140 C   0  0  0  0  0  0  0  0  0  0  0  0
    2.5270   60.6760   71.4340 C   0  0  0  0  0  0  0  0  0  0  0  0
    1.8870   59.4740   72.1200 C   0  0  0  0  0  0  0  0  0  0  0  0
    2.9070   58.3830   72.4080 C   0  0  0  0  0  0  0  0  0  0  0  0
   -0.7892   62.2984   71.4568 H   0  0  0  0  0  0  0  0  0  0  0  0
    1.5285   64.1308   73.7879 H   0  0  0  0  0  0  0  0  0  0  0  0
    0.2131   63.9448   75.0204 H   0  0  0  0  0  0  0  0  0  0  0  0
    2.5258   62.0298   74.4808 H   0  0  0  0  0  0  0  0  0  0  0  0
    2.2487   63.0571   75.9459 H   0  0  0  0  0  0  0  0  0  0  0  0
   -1.7976   59.4324   75.2087 H   0  0  0  0  0  0  0  0  0  0  0  0
   -1.0553   58.4307   77.3680 H   0  0  0  0  0  0  0  0  0  0  0  0
    2.2805   61.1682   77.4827 H   0  0  0  0  0  0  0  0  0  0  0  0
    3.0834   65.1007   69.4982 H   0  0  0  0  0  0  0  0  0  0  0  0
    2.1960   63.1595   70.7803 H   0  0  0  0  0  0  0  0  0  0  0  0
   -1.3633   65.4107   71.7411 H   0  0  0  0  0  0  0  0  0  0  0  0
   -0.4805   67.3581   70.4645 H   0  0  0  0  0  0  0  0  0  0  0  0
    2.3531   68.2284   69.7196 H   0  0  0  0  0  0  0  0  0  0  0  0
    2.5601   67.0940   68.3070 H   0  0  0  0  0  0  0  0  0  0  0  0
   -0.2363   66.5236   67.4724 H   0  0  0  0  0  0  0  0  0  0  0  0
   -0.3876   68.0306   66.5066 H   0  0  0  0  0  0  0  0  0  0  0  0
    1.1579   67.1152   66.5066 H   0  0  0  0  0  0  0  0  0  0  0  0
   -0.0290   68.3077   68.9385 H   0  0  0  0  0  0  0  0  0  0  0  0
    0.6081   69.9123   66.9965 H   0  0  0  0  0  0  0  0  0  0  0  0
    0.8713   70.2898   68.7584 H   0  0  0  0  0  0  0  0  0  0  0  0
    2.5524   68.9543   65.6790 H   0  0  0  0  0  0  0  0  0  0  0  0
    5.0057   69.1791   65.2965 H   0  0  0  0  0  0  0  0  0  0  0  0
    6.4628   70.1483   67.0694 H   0  0  0  0  0  0  0  0  0  0  0  0
    5.4695   70.9121   69.2231 H   0  0  0  0  0  0  0  0  0  0  0  0
    3.0180   70.6945   69.6164 H   0  0  0  0  0  0  0  0  0  0  0  0
    3.1726   59.6491   78.3043 H   0  0  0  0  0  0  0  0  0  0  0  0
    2.8801   58.6121   79.7357 H   0  0  0  0  0  0  0  0  0  0  0  0
    2.8855   56.7313   78.4729 H   0  0  0  0  0  0  0  0  0  0  0  0
    1.7134   57.4719   77.2966 H   0  0  0  0  0  0  0  0  0  0  0  0
    4.3792   58.6184   77.0259 H   0  0  0  0  0  0  0  0  0  0  0  0
    4.3691   56.8037   76.8215 H   0  0  0  0  0  0  0  0  0  0  0  0
    3.6200   57.0268   74.7559 H   0  0  0  0  0  0  0  0  0  0  0  0
    2.1515   57.8902   75.4061 H   0  0  0  0  0  0  0  0  0  0  0  0
    2.8703   59.9017   74.7253 H   0  0  0  0  0  0  0  0  0  0  0  0
    4.5775   59.5592   75.2068 H   0  0  0  0  0  0  0  0  0  0  0  0
    4.7880   58.2022   73.2877 H   0  0  0  0  0  0  0  0  0  0  0  0
    5.5270   60.4897   73.1577 H   0  0  0  0  0  0  0  0  0  0  0  0
    5.1440   59.7233   71.5648 H   0  0  0  0  0  0  0  0  0  0  0  0
    3.3795   61.6267   73.1631 H   0  0  0  0  0  0  0  0  0  0  0  0
    4.2358   61.9526   71.5974 H   0  0  0  0  0  0  0  0  0  0  0  0
    1.7805   61.4799   71.3533 H   0  0  0  0  0  0  0  0  0  0  0  0
    2.8736   60.3592   70.4393 H   0  0  0  0  0  0  0  0  0  0  0  0
    1.4382   59.8022   73.0691 H   0  0  0  0  0  0  0  0  0  0  0  0
    1.1229   59.0603   71.4455 H   0  0  0  0  0  0  0  0  0  0  0  0
    2.4198   57.5726   72.9701 H   0  0  0  0  0  0  0  0  0  0  0  0
    3.2980   58.0036   71.4524 H   0  0  0  0  0  0  0  0  0  0  0  0
  2  1  2  0
  3  2  1  0
  4  3  1  0
  5  4  1  0
  6  5  2  0
  7  6  1  0
  7  2  1  0
  8  7  2  0
  9  6  1  0
 10  9  2  0
 11 10  1  0
 12 11  2  0
 12  5  1  0
 14 13  2  0
 15 14  1  0
 16 15  2  0
 16  1  1  0
 17 16  1  0
 18 17  2  0
 18 13  1  0
 19 13  1  0
 21 20  1  0
 21 19  1  0
 22 21  1  0
 23 22  1  0
 24 23  2  0
 25 24  1  0
 26 25  2  0
 27 26  1  0
 28 27  2  0
 28 23  1  0
 29 11  1  0
 30 29  1  0
 31 30  1  0
 32 31  1  0
 33 32  1  0
 34 33  1  0
 35 34  1  0
 36 35  1  0
 37 36  1  0
 38 37  1  0
 39 38  1  0
 40 39  1  0
 40 35  1  0
  1 41  1  0
  3 42  1  0
  3 43  1  0
  4 44  1  0
  4 45  1  0
  9 46  1  0
 10 47  1  0
 12 48  1  0
 14 49  1  0
 15 50  1  0
 17 51  1  0
 18 52  1  0
 19 53  1  0
 19 54  1  0
 20 55  1  0
 20 56  1  0
 20 57  1  0
 21 58  1  1
 22 59  1  0
 22 60  1  0
 24 61  1  0
 25 62  1  0
 26 63  1  0
 27 64  1  0
 28 65  1  0
 30 66  1  0
 30 67  1  0
 31 68  1  0
 31 69  1  0
 32 70  1  0
 32 71  1  0
 33 72  1  0
 33 73  1  0
 34 74  1  0
 34 75  1  0
 35 76  1  0
 36 77  1  0
 36 78  1  0
 37 79  1  0
 37 80  1  0
 38 81  1  0
 38 82  1  0
 39 83  1  0
 39 84  1  0
 40 85  1  0
 40 86  1  0
M  CHG  2  21   1  35   1
M  END
>  <score>  (7) 
-9.852

$$$$
=
     RDKit          3D

 86 90  0  0  0  0  0  0  0  0999 V2000
    0.3010   66.6760   69.5490 C   0  0  0  0  0  0  0  0  0  0  0  0
    0.9520   65.7670   70.3000 C   0  0  0  0  0  0  0  0  0  0  0  0
    2.2830   65.1360   70.0090 C   0  0  0  0  0  0  0  0  0  0  0  0
    2.2570   63.6290   70.2590 C   0  0  0  0  0  0  0  0  0  0  0  0
    1.7480   63.3110   71.6390 C   0  0  0  0  0  0  0  0  0  0  0  0
    0.7920   64.1310   72.2530 C   0  0  0  0  0  0  0  0  0  0  0  0
    0.2720   65.3450   71.5700 C   0  0  0  0  0  0  0  0  0  0  0  0
   -0.6700   65.9700   72.0430 O   0  0  0  0  0  0  0  0  0  0  0  0
    0.2920   63.7980   73.5160 C   0  0  0  0  0  0  0  0  0  0  0  0
    0.7380   62.6470   74.1740 C   0  0  0  0  0  0  0  0  0  0  0  0
    1.6780   61.8140   73.5690 C   0  0  0  0  0  0  0  0  0  0  0  0
    2.1770   62.1500   72.3040 C   0  0  0  0  0  0  0  0  0  0  0  0
    1.5990   68.3250   65.8170 C   0  0  0  0  0  0  0  0  0  0  0  0
    1.8600   66.9850   66.1420 C   0  0  0  0  0  0  0  0  0  0  0  0
    1.4470   66.4590   67.3710 C   0  0  0  0  0  0  0  0  0  0  0  0
    0.7790   67.2650   68.2970 C   0  0  0  0  0  0  0  0  0  0  0  0
    0.5260   68.6040   67.9810 C   0  0  0  0  0  0  0  0  0  0  0  0
    0.9380   69.1320   66.7540 C   0  0  0  0  0  0  0  0  0  0  0  0
    1.9950   68.8730   64.4700 C   0  0  0  0  0  0  0  0  0  0  0  0
    3.9990   69.1460   63.0140 C   0  0  0  0  0  0  0  0  0  0  0  0
    3.4450   69.2870   64.4040 N   0  0  2  0  0  4  0  0  0  0  0  0
    4.3020   68.5930   65.4420 C   0  0  0  0  0  0  0  0  0  0  0  0
    4.8510   69.5440   66.4710 C   0  0  0  0  0  0  0  0  0  0  0  0
    4.0860   69.8820   67.5990 C   0  0  0  0  0  0  0  0  0  0  0  0
    4.5810   70.7840   68.5420 C   0  0  0  0  0  0  0  0  0  0  0  0
    5.8400   71.3540   68.3690 C   0  0  0  0  0  0  0  0  0  0  0  0
    6.6100   71.0210   67.2570 C   0  0  0  0  0  0  0  0  0  0  0  0
    6.1210   70.1190   66.3110 C   0  0  0  0  0  0  0  0  0  0  0  0
    2.1860   60.6580   74.0970 O   0  0  0  0  0  0  0  0  0  0  0  0
    2.3700   59.5660   73.1970 C   0  0  0  0  0  0  0  0  0  0  0  0
    1.9120   58.2760   73.8850 C   0  0  0  0  0  0  0  0  0  0  0  0
    0.6760   57.6670   73.2150 C   0  0  0  0  0  0  0  0  0  0  0  0
   -0.2690   56.9680   74.2010 C   0  0  0  0  0  0  0  0  0  0  0  0
    0.4610   56.0460   75.1770 C   0  0  0  0  0  0  0  0  0  0  0  0
    0.9500   54.7910   74.4720 N   0  0  0  0  0  4  0  0  0  0  0  0
   -0.1320   53.8760   73.9400 C   0  0  0  0  0  0  0  0  0  0  0  0
   -0.8240   53.1300   75.0720 C   0  0  0  0  0  0  0  0  0  0  0  0
    0.1710   52.3760   75.9460 C   0  0  0  0  0  0  0  0  0  0  0  0
    1.2920   53.2850   76.4380 C   0  0  0  0  0  0  0  0  0  0  0  0
    1.9670   54.0160   75.2870 C   0  0  0  0  0  0  0  0  0  0  0  0
   -0.6835   67.0073   69.9109 H   0  0  0  0  0  0  0  0  0  0  0  0
    2.5422   65.3188   68.9557 H   0  0  0  0  0  0  0  0  0  0  0  0
    3.0304   65.5836   70.6806 H   0  0  0  0  0  0  0  0  0  0  0  0
    1.5989   63.1541   69.5164 H   0  0  0  0  0  0  0  0  0  0  0  0
    3.2842   63.2454   70.1715 H   0  0  0  0  0  0  0  0  0  0  0  0
   -0.4570   64.4456   73.9952 H   0  0  0  0  0  0  0  0  0  0  0  0
    0.3460   62.3985   75.1713 H   0  0  0  0  0  0  0  0  0  0  0  0
    2.9173   61.4938   71.8231 H   0  0  0  0  0  0  0  0  0  0  0  0
    2.3933   66.3433   65.4251 H   0  0  0  0  0  0  0  0  0  0  0  0
    1.6493   65.4045   67.6099 H   0  0  0  0  0  0  0  0  0  0  0  0
   -0.0006   69.2457   68.7028 H   0  0  0  0  0  0  0  0  0  0  0  0
    0.7421   70.1892   66.5216 H   0  0  0  0  0  0  0  0  0  0  0  0
    1.8170   68.0977   63.7102 H   0  0  0  0  0  0  0  0  0  0  0  0
    1.3878   69.7723   64.2896 H   0  0  0  0  0  0  0  0  0  0  0  0
    5.0637   68.8750   63.0694 H   0  0  0  0  0  0  0  0  0  0  0  0
    3.4479   68.3595   62.4777 H   0  0  0  0  0  0  0  0  0  0  0  0
    3.8909   70.1003   62.4777 H   0  0  0  0  0  0  0  0  0  0  0  0
    3.4767   70.2888   64.6413 H   0  0  0  0  0  0  0  0  0  0  0  0
    3.6906   67.8352   65.9538 H   0  0  0  0  0  0  0  0  0  0  0  0
    5.1567   68.1398   64.9185 H   0  0  0  0  0  0  0  0  0  0  0  0
    3.0915   69.4336   67.7401 H   0  0  0  0  0  0  0  0  0  0  0  0
    3.9761   71.0450   69.4229 H   0  0  0  0  0  0  0  0  0  0  0  0
    6.2267   72.0678   69.1112 H   0  0  0  0  0  0  0  0  0  0  0  0
    7.6054   71.4699   67.1242 H   0  0  0  0  0  0  0  0  0  0  0  0
    6.7340   69.8576   65.4358 H   0  0  0  0  0  0  0  0  0  0  0  0
    1.7735   59.7318   72.2878 H   0  0  0  0  0  0  0  0  0  0  0  0
    3.4315   59.4850   72.9200 H   0  0  0  0  0  0  0  0  0  0  0  0
    2.7322   57.5440   73.8463 H   0  0  0  0  0  0  0  0  0  0  0  0
    1.6442   58.5247   74.9225 H   0  0  0  0  0  0  0  0  0  0  0  0
    0.1208   58.4715   72.7106 H   0  0  0  0  0  0  0  0  0  0  0  0
    1.0326   56.9023   72.5092 H   0  0  0  0  0  0  0  0  0  0  0  0
   -0.8039   57.7365   74.7783 H   0  0  0  0  0  0  0  0  0  0  0  0
   -0.9567   56.3442   73.6112 H   0  0  0  0  0  0  0  0  0  0  0  0
    1.3237   56.5806   75.6012 H   0  0  0  0  0  0  0  0  0  0  0  0
   -0.2378   55.7526   75.9742 H   0  0  0  0  0  0  0  0  0  0  0  0
    1.4209   55.1645   73.6355 H   0  0  0  0  0  0  0  0  0  0  0  0
   -0.8767   54.4774   73.3980 H   0  0  0  0  0  0  0  0  0  0  0  0
    0.3326   53.1390   73.2684 H   0  0  0  0  0  0  0  0  0  0  0  0
   -1.3676   53.8548   75.6958 H   0  0  0  0  0  0  0  0  0  0  0  0
   -1.5119   52.3961   74.6268 H   0  0  0  0  0  0  0  0  0  0  0  0
   -0.3604   51.9627   76.8159 H   0  0  0  0  0  0  0  0  0  0  0  0
    0.6202   51.5746   75.3409 H   0  0  0  0  0  0  0  0  0  0  0  0
    0.8712   54.0260   77.1336 H   0  0  0  0  0  0  0  0  0  0  0  0
    2.0466   52.6603   76.9383 H   0  0  0  0  0  0  0  0  0  0  0  0
    2.7133   54.7153   75.6919 H   0  0  0  0  0  0  0  0  0  0  0  0
    2.4517   53.2751   74.6342 H   0  0  0  0  0  0  0  0  0  0  0  0
  2  1  2  0
  3  2  1  0
  4  3  1  0
  5  4  1  0
  6  5  2  0
  7  6  1  0
  7  2  1  0
  8  7  2  0
  9  6  1  0
 10  9  2  0
 11 10  1  0
 12 11  2  0
 12  5  1  0
 14 13  2  0
 15 14  1  0
 16 15  2  0
 16  1  1  0
 17 16  1  0
 18 17  2  0
 18 13  1  0
 19 13  1  0
 21 20  1  0
 21 19  1  0
 22 21  1  0
 23 22  1  0
 24 23  2  0
 25 24  1  0
 26 25  2  0
 27 26  1  0
 28 27  2  0
 28 23  1  0
 29 11  1  0
 30 29  1  0
 31 30  1  0
 32 31  1  0
 33 32  1  0
 34 33  1  0
 35 34  1  0
 36 35  1  0
 37 36  1  0
 38 37  1  0
 39 38  1  0
 40 39  1  0
 40 35  1  0
  1 41  1  0
  3 42  1  0
  3 43  1  0
  4 44  1  0
  4 45  1  0
  9 46  1  0
 10 47  1  0
 12 48  1  0
 14 49  1  0
 15 50  1  0
 17 51  1  0
 18 52  1  0
 19 53  1  0
 19 54  1  0
 20 55  1  0
 20 56  1  0
 20 57  1  0
 21 58  1  1
 22 59  1  0
 22 60  1  0
 24 61  1  0
 25 62  1  0
 26 63  1  0
 27 64  1  0
 28 65  1  0
 30 66  1  0
 30 67  1  0
 31 68  1  0
 31 69  1  0
 32 70  1  0
 32 71  1  0
 33 72  1  0
 33 73  1  0
 34 74  1  0
 34 75  1  0
 35 76  1  0
 36 77  1  0
 36 78  1  0
 37 79  1  0
 37 80  1  0
 38 81  1  0
 38 82  1  0
 39 83  1  0
 39 84  1  0
 40 85  1  0
 40 86  1  0
M  CHG  2  21   1  35   1
M  END
>  <score>  (8) 
-9.332

$$$$
=
     RDKit          3D

 86 90  0  0  0  0  0  0  0  0999 V2000
    0.2330   65.1710   71.3690 C   0  0  0  0  0  0  0  0  0  0  0  0
    0.9610   64.0690   71.6320 C   0  0  0  0  0  0  0  0  0  0  0  0
    2.0150   63.4480   70.7610 C   0  0  0  0  0  0  0  0  0  0  0  0
    1.8590   61.9300   70.6860 C   0  0  0  0  0  0  0  0  0  0  0  0
    1.7980   61.3150   72.0570 C   0  0  0  0  0  0  0  0  0  0  0  0
    1.2270   62.0170   73.1280 C   0  0  0  0  0  0  0  0  0  0  0  0
    0.6880   63.3900   72.9430 C   0  0  0  0  0  0  0  0  0  0  0  0
    0.0560   63.9370   73.8400 O   0  0  0  0  0  0  0  0  0  0  0  0
    1.1330   61.4160   74.3880 C   0  0  0  0  0  0  0  0  0  0  0  0
    1.6030   60.1140   74.5890 C   0  0  0  0  0  0  0  0  0  0  0  0
    2.1600   59.4000   73.5290 C   0  0  0  0  0  0  0  0  0  0  0  0
    2.2530   60.0030   72.2690 C   0  0  0  0  0  0  0  0  0  0  0  0
    0.4670   67.7370   67.9490 C   0  0  0  0  0  0  0  0  0  0  0  0
   -0.6510   66.9140   68.1580 C   0  0  0  0  0  0  0  0  0  0  0  0
   -0.7110   66.0670   69.2690 C   0  0  0  0  0  0  0  0  0  0  0  0
    0.3470   66.0190   70.1800 C   0  0  0  0  0  0  0  0  0  0  0  0
    1.4680   66.8290   69.9710 C   0  0  0  0  0  0  0  0  0  0  0  0
    1.5310   67.6770   68.8610 C   0  0  0  0  0  0  0  0  0  0  0  0
    0.5060   68.6900   66.7820 C   0  0  0  0  0  0  0  0  0  0  0  0
    2.8460   69.4400   66.3680 C   0  0  0  0  0  0  0  0  0  0  0  0
    1.7380   68.5270   65.9260 N   0  0  2  0  0  4  0  0  0  0  0  0
    1.4440   68.6460   64.4450 C   0  0  0  0  0  0  0  0  0  0  0  0
    2.5230   68.0420   63.5870 C   0  0  0  0  0  0  0  0  0  0  0  0
    3.2460   66.9280   64.0430 C   0  0  0  0  0  0  0  0  0  0  0  0
    4.2660   66.3820   63.2630 C   0  0  0  0  0  0  0  0  0  0  0  0
    4.5720   66.9410   62.0240 C   0  0  0  0  0  0  0  0  0  0  0  0
    3.8570   68.0420   61.5590 C   0  0  0  0  0  0  0  0  0  0  0  0
    2.8350   68.5920   62.3350 C   0  0  0  0  0  0  0  0  0  0  0  0
    2.6440   58.1210   73.5890 O   0  0  0  0  0  0  0  0  0  0  0  0
    1.8580   57.1050   72.9670 C   0  0  0  0  0  0  0  0  0  0  0  0
    1.6440   55.9640   73.9650 C   0  0  0  0  0  0  0  0  0  0  0  0
    0.1630   55.7460   74.2920 C   0  0  0  0  0  0  0  0  0  0  0  0
   -0.4080   56.7930   75.2570 C   0  0  0  0  0  0  0  0  0  0  0  0
   -1.5100   57.6470   74.6300 C   0  0  0  0  0  0  0  0  0  0  0  0
   -1.5520   59.0270   75.2660 N   0  0  0  0  0  4  0  0  0  0  0  0
   -1.7650   59.0510   76.7650 C   0  0  0  0  0  0  0  0  0  0  0  0
   -3.2020   58.7000   77.1190 C   0  0  0  0  0  0  0  0  0  0  0  0
   -4.2010   59.5960   76.3930 C   0  0  0  0  0  0  0  0  0  0  0  0
   -3.9510   59.6150   74.8890 C   0  0  0  0  0  0  0  0  0  0  0  0
   -2.5080   59.9710   74.5640 C   0  0  0  0  0  0  0  0  0  0  0  0
   -0.5184   65.4619   72.1179 H   0  0  0  0  0  0  0  0  0  0  0  0
    1.9321   63.8660   69.7469 H   0  0  0  0  0  0  0  0  0  0  0  0
    2.9991   63.6718   71.1986 H   0  0  0  0  0  0  0  0  0  0  0  0
    0.9309   61.6921   70.1457 H   0  0  0  0  0  0  0  0  0  0  0  0
    2.7335   61.5182   70.1610 H   0  0  0  0  0  0  0  0  0  0  0  0
    0.6865   61.9711   75.2261 H   0  0  0  0  0  0  0  0  0  0  0  0
    1.5330   59.6527   75.5851 H   0  0  0  0  0  0  0  0  0  0  0  0
    2.6897   59.4400   71.4309 H   0  0  0  0  0  0  0  0  0  0  0  0
   -1.4861   66.9356   67.4424 H   0  0  0  0  0  0  0  0  0  0  0  0
   -1.5970   65.4344   69.4267 H   0  0  0  0  0  0  0  0  0  0  0  0
    2.3050   66.7987   70.6841 H   0  0  0  0  0  0  0  0  0  0  0  0
    2.4221   68.3020   68.7017 H   0  0  0  0  0  0  0  0  0  0  0  0
   -0.3811   68.5135   66.1560 H   0  0  0  0  0  0  0  0  0  0  0  0
    0.5241   69.7105   67.1922 H   0  0  0  0  0  0  0  0  0  0  0  0
    2.8809   69.4688   67.4671 H   0  0  0  0  0  0  0  0  0  0  0  0
    3.8054   69.0667   65.9803 H   0  0  0  0  0  0  0  0  0  0  0  0
    2.6630   70.4530   65.9803 H   0  0  0  0  0  0  0  0  0  0  0  0
    2.0695   67.5621   66.0673 H   0  0  0  0  0  0  0  0  0  0  0  0
    0.4958   68.1307   64.2322 H   0  0  0  0  0  0  0  0  0  0  0  0
    1.3886   69.7176   64.2029 H   0  0  0  0  0  0  0  0  0  0  0  0
    3.0070   66.4834   65.0203 H   0  0  0  0  0  0  0  0  0  0  0  0
    4.8289   65.5097   63.6265 H   0  0  0  0  0  0  0  0  0  0  0  0
    5.3794   66.5122   61.4123 H   0  0  0  0  0  0  0  0  0  0  0  0
    4.0979   68.4790   60.5787 H   0  0  0  0  0  0  0  0  0  0  0  0
    2.2719   69.4606   61.9629 H   0  0  0  0  0  0  0  0  0  0  0  0
    0.8849   57.5218   72.6683 H   0  0  0  0  0  0  0  0  0  0  0  0
    2.3765   56.7268   72.0736 H   0  0  0  0  0  0  0  0  0  0  0  0
    2.0512   55.0371   73.5349 H   0  0  0  0  0  0  0  0  0  0  0  0
    2.1582   56.2339   74.8992 H   0  0  0  0  0  0  0  0  0  0  0  0
   -0.4108   55.7863   73.3544 H   0  0  0  0  0  0  0  0  0  0  0  0
    0.0804   54.7677   74.7881 H   0  0  0  0  0  0  0  0  0  0  0  0
   -0.8235   56.2727   76.1326 H   0  0  0  0  0  0  0  0  0  0  0  0
    0.4148   57.4691   75.5325 H   0  0  0  0  0  0  0  0  0  0  0  0
   -1.3154   57.7524   73.5525 H   0  0  0  0  0  0  0  0  0  0  0  0
   -2.4779   57.1520   74.7979 H   0  0  0  0  0  0  0  0  0  0  0  0
   -0.5925   59.3744   75.1261 H   0  0  0  0  0  0  0  0  0  0  0  0
   -1.0903   58.3207   77.2356 H   0  0  0  0  0  0  0  0  0  0  0  0
   -1.5524   60.0659   77.1321 H   0  0  0  0  0  0  0  0  0  0  0  0
   -3.3924   57.6538   76.8375 H   0  0  0  0  0  0  0  0  0  0  0  0
   -3.3332   58.8493   78.2009 H   0  0  0  0  0  0  0  0  0  0  0  0
   -5.2181   59.2214   76.5808 H   0  0  0  0  0  0  0  0  0  0  0  0
   -4.0824   60.6212   76.7737 H   0  0  0  0  0  0  0  0  0  0  0  0
   -4.1741   58.6195   74.4777 H   0  0  0  0  0  0  0  0  0  0  0  0
   -4.6025   60.3805   74.4423 H   0  0  0  0  0  0  0  0  0  0  0  0
   -2.3542   59.8984   73.4772 H   0  0  0  0  0  0  0  0  0  0  0  0
   -2.3102   60.9963   74.9099 H   0  0  0  0  0  0  0  0  0  0  0  0
  2  1  2  0
  3  2  1  0
  4  3  1  0
  5  4  1  0
  6  5  2  0
  7  6  1  0
  7  2  1  0
  8  7  2  0
  9  6  1  0
 10  9  2  0
 11 10  1  0
 12 11  2  0
 12  5  1  0
 14 13  2  0
 15 14  1  0
 16 15  2  0
 16  1  1  0
 17 16  1  0
 18 17  2  0
 18 13  1  0
 19 13  1  0
 21 20  1  0
 21 19  1  0
 22 21  1  0
 23 22  1  0
 24 23  2  0
 25 24  1  0
 26 25  2  0
 27 26  1  0
 28 27  2  0
 28 23  1  0
 29 11  1  0
 30 29  1  0
 31 30  1  0
 32 31  1  0
 33 32  1  0
 34 33  1  0
 35 34  1  0
 36 35  1  0
 37 36  1  0
 38 37  1  0
 39 38  1  0
 40 39  1  0
 40 35  1  0
  1 41  1  0
  3 42  1  0
  3 43  1  0
  4 44  1  0
  4 45  1  0
  9 46  1  0
 10 47  1  0
 12 48  1  0
 14 49  1  0
 15 50  1  0
 17 51  1  0
 18 52  1  0
 19 53  1  0
 19 54  1  0
 20 55  1  0
 20 56  1  0
 20 57  1  0
 21 58  1  6
 22 59  1  0
 22 60  1  0
 24 61  1  0
 25 62  1  0
 26 63  1  0
 27 64  1  0
 28 65  1  0
 30 66  1  0
 30 67  1  0
 31 68  1  0
 31 69  1  0
 32 70  1  0
 32 71  1  0
 33 72  1  0
 33 73  1  0
 34 74  1  0
 34 75  1  0
 35 76  1  0
 36 77  1  0
 36 78  1  0
 37 79  1  0
 37 80  1  0
 38 81  1  0
 38 82  1  0
 39 83  1  0
 39 84  1  0
 40 85  1  0
 40 86  1  0
M  CHG  2  21   1  35   1
M  END
>  <score>  (9) 
-9.192

$$$$
