=
     RDKit          3D

 69 73  0  0  0  0  0  0  0  0999 V2000
    0.0110   63.1220   71.6450 C   0  0  0  0  0  0  0  0  0  0  0  0
    0.2660   64.0880   70.4840 C   0  0  0  0  0  0  0  0  0  0  0  0
    0.4360   65.5410   70.9420 C   0  0  0  0  0  0  0  0  0  0  0  0
    1.0380   66.4540   69.8700 C   0  0  0  0  0  0  0  0  0  0  0  0
    0.0250   66.8800   68.8090 C   0  0  0  0  0  0  0  0  0  0  0  0
    0.7220   67.1400   67.5110 N   0  0  0  0  0  4  0  0  0  0  0  0
    0.8290   68.5850   67.1240 C   0  0  0  0  0  0  0  0  0  0  0  0
    2.2240   69.0750   67.1050 C   0  0  0  0  0  0  0  0  0  0  0  0
    3.2210   69.0780   66.1500 C   0  0  0  0  0  0  0  0  0  0  0  0
    4.3470   69.7120   66.7420 C   0  0  0  0  0  0  0  0  0  0  0  0
    3.9560   70.0520   68.0330 C   0  0  0  0  0  0  0  0  0  0  0  0
    2.6680   69.6670   68.2500 O   0  0  0  0  0  0  0  0  0  0  0  0
    4.7760   70.6950   68.9550 C   0  0  0  0  0  0  0  0  0  0  0  0
    6.0710   71.0040   68.5250 C   0  0  0  0  0  0  0  0  0  0  0  0
    6.5020   70.6790   67.2360 C   0  0  0  0  0  0  0  0  0  0  0  0
    5.6520   70.0310   66.3300 C   0  0  0  0  0  0  0  0  0  0  0  0
    0.6370   63.5770   72.9700 C   0  0  0  0  0  0  0  0  0  0  0  0
    1.0420   62.4370   73.9110 C   0  0  0  0  0  0  0  0  0  0  0  0
    2.4730   62.1380   73.7410 N   0  0  0  0  0  0  0  0  0  0  0  0
    2.6800   61.1960   72.6870 C   0  0  0  0  0  0  0  0  0  0  0  0
    3.3140   61.5690   71.4920 C   0  0  0  0  0  0  0  0  0  0  0  0
    3.8100   62.9520   71.1580 C   0  0  0  0  0  0  0  0  0  0  0  0
    3.4980   63.3320   69.7060 C   0  0  0  0  0  0  0  0  0  0  0  0
    3.7170   62.2080   68.6850 C   0  0  0  0  0  0  0  0  0  0  0  0
    4.3000   60.9330   69.2860 C   0  0  0  0  0  0  0  0  0  0  0  0
    3.5740   60.5660   70.5540 C   0  0  0  0  0  0  0  0  0  0  0  0
    3.2490   59.2670   70.7280 N   0  0  0  0  0  0  0  0  0  0  0  0
    2.6410   58.9110   71.8670 C   0  0  0  0  0  0  0  0  0  0  0  0
    2.3300   59.8310   72.8890 C   0  0  0  0  0  0  0  0  0  0  0  0
    1.6790   59.3560   74.0530 C   0  0  0  0  0  0  0  0  0  0  0  0
    1.3600   58.0080   74.2090 C   0  0  0  0  0  0  0  0  0  0  0  0
    1.6790   57.1130   73.2000 C   0  0  0  0  0  0  0  0  0  0  0  0
    2.3110   57.5740   72.0430 C   0  0  0  0  0  0  0  0  0  0  0  0
   -1.0757   63.0285   71.7876 H   0  0  0  0  0  0  0  0  0  0  0  0
    0.4812   62.1642   71.3776 H   0  0  0  0  0  0  0  0  0  0  0  0
    1.1824   63.7752   69.9622 H   0  0  0  0  0  0  0  0  0  0  0  0
   -0.6139   64.0509   69.8249 H   0  0  0  0  0  0  0  0  0  0  0  0
   -0.5521   65.9359   71.2206 H   0  0  0  0  0  0  0  0  0  0  0  0
    1.1367   65.5326   71.7899 H   0  0  0  0  0  0  0  0  0  0  0  0
    1.4326   67.3564   70.3598 H   0  0  0  0  0  0  0  0  0  0  0  0
    1.8282   65.8841   69.3594 H   0  0  0  0  0  0  0  0  0  0  0  0
   -0.7160   66.0789   68.6705 H   0  0  0  0  0  0  0  0  0  0  0  0
   -0.4782   67.8007   69.1393 H   0  0  0  0  0  0  0  0  0  0  0  0
    1.6755   66.7564   67.5785 H   0  0  0  0  0  0  0  0  0  0  0  0
    0.1491   66.6900   66.7829 H   0  0  0  0  0  0  0  0  0  0  0  0
    0.3989   68.7119   66.1195 H   0  0  0  0  0  0  0  0  0  0  0  0
    0.2845   69.1699   67.8800 H   0  0  0  0  0  0  0  0  0  0  0  0
    3.1566   68.6697   65.1306 H   0  0  0  0  0  0  0  0  0  0  0  0
    4.4253   70.9467   69.9668 H   0  0  0  0  0  0  0  0  0  0  0  0
    6.7622   71.5118   69.2138 H   0  0  0  0  0  0  0  0  0  0  0  0
    7.5260   70.9363   66.9274 H   0  0  0  0  0  0  0  0  0  0  0  0
    5.9990   69.7773   65.3175 H   0  0  0  0  0  0  0  0  0  0  0  0
    1.5363   64.1670   72.7395 H   0  0  0  0  0  0  0  0  0  0  0  0
   -0.1363   64.1553   73.4969 H   0  0  0  0  0  0  0  0  0  0  0  0
    0.8524   62.7374   74.9521 H   0  0  0  0  0  0  0  0  0  0  0  0
    0.4516   61.5402   73.6719 H   0  0  0  0  0  0  0  0  0  0  0  0
    3.2263   62.5533   74.3075 H   0  0  0  0  0  0  0  0  0  0  0  0
    3.3240   63.6763   71.8282 H   0  0  0  0  0  0  0  0  0  0  0  0
    4.9022   62.9649   71.2883 H   0  0  0  0  0  0  0  0  0  0  0  0
    2.4440   63.6422   69.6525 H   0  0  0  0  0  0  0  0  0  0  0  0
    4.2010   64.1345   69.4383 H   0  0  0  0  0  0  0  0  0  0  0  0
    2.7477   61.9630   68.2262 H   0  0  0  0  0  0  0  0  0  0  0  0
    4.4487   62.5797   67.9525 H   0  0  0  0  0  0  0  0  0  0  0  0
    4.1990   60.1121   68.5608 H   0  0  0  0  0  0  0  0  0  0  0  0
    5.3610   61.1039   69.5209 H   0  0  0  0  0  0  0  0  0  0  0  0
    1.4192   60.0662   74.8518 H   0  0  0  0  0  0  0  0  0  0  0  0
    0.8599   57.6580   75.1241 H   0  0  0  0  0  0  0  0  0  0  0  0
    1.4358   56.0458   73.3098 H   0  0  0  0  0  0  0  0  0  0  0  0
    2.5548   56.8555   71.2465 H   0  0  0  0  0  0  0  0  0  0  0  0
  2  1  1  0
  3  2  1  0
  4  3  1  0
  5  4  1  0
  6  5  1  0
  7  6  1  0
  8  7  1  0
  9  8  2  0
 10  9  1  0
 11 10  2  0
 12 11  1  0
 12  8  1  0
 13 11  1  0
 14 13  2  0
 15 14  1  0
 16 10  1  0
 16 15  2  0
 17  1  1  0
 18 17  1  0
 19 18  1  0
 20 19  1  0
 21 20  1  0
 22 21  1  0
 23 22  1  0
 24 23  1  0
 25 24  1  0
 26 25  1  0
 26 21  2  0
 27 26  1  0
 28 27  2  0
 29 28  1  0
 29 20  2  0
 30 29  1  0
 31 30  2  0
 32 31  1  0
 33 32  2  0
 33 28  1  0
  1 34  1  0
  1 35  1  0
  2 36  1  0
  2 37  1  0
  3 38  1  0
  3 39  1  0
  4 40  1  0
  4 41  1  0
  5 42  1  0
  5 43  1  0
  6 44  1  0
  6 45  1  0
  7 46  1  0
  7 47  1  0
  9 48  1  0
 13 49  1  0
 14 50  1  0
 15 51  1  0
 16 52  1  0
 17 53  1  0
 17 54  1  0
 18 55  1  0
 18 56  1  0
 19 57  1  0
 22 58  1  0
 22 59  1  0
 23 60  1  0
 23 61  1  0
 24 62  1  0
 24 63  1  0
 25 64  1  0
 25 65  1  0
 30 66  1  0
 31 67  1  0
 32 68  1  0
 33 69  1  0
M  CHG  1   6   1
M  END
>  <score>  (1) 
-10.911

$$$$
=
     RDKit          3D

 69 73  0  0  0  0  0  0  0  0999 V2000
    1.0850   66.0720   69.8940 C   0  0  0  0  0  0  0  0  0  0  0  0
    0.6960   67.2700   69.0240 C   0  0  0  0  0  0  0  0  0  0  0  0
   -0.2160   66.8870   67.8530 C   0  0  0  0  0  0  0  0  0  0  0  0
   -0.9540   68.0790   67.2370 C   0  0  0  0  0  0  0  0  0  0  0  0
   -0.3530   68.5320   65.9070 C   0  0  0  0  0  0  0  0  0  0  0  0
    0.9740   67.8730   65.6940 N   0  0  0  0  0  4  0  0  0  0  0  0
    1.9430   68.6520   64.8560 C   0  0  0  0  0  0  0  0  0  0  0  0
    3.1020   69.1510   65.6280 C   0  0  0  0  0  0  0  0  0  0  0  0
    4.4270   69.3790   65.3190 C   0  0  0  0  0  0  0  0  0  0  0  0
    5.0390   69.8780   66.5010 C   0  0  0  0  0  0  0  0  0  0  0  0
    4.0340   69.9180   67.4610 C   0  0  0  0  0  0  0  0  0  0  0  0
    2.8590   69.4790   66.9290 O   0  0  0  0  0  0  0  0  0  0  0  0
    4.2190   70.3490   68.7710 C   0  0  0  0  0  0  0  0  0  0  0  0
    5.5110   70.7610   69.1120 C   0  0  0  0  0  0  0  0  0  0  0  0
    6.5490   70.7380   68.1760 C   0  0  0  0  0  0  0  0  0  0  0  0
    6.3300   70.2970   66.8630 C   0  0  0  0  0  0  0  0  0  0  0  0
    0.1930   65.8950   71.1300 C   0  0  0  0  0  0  0  0  0  0  0  0
    0.3980   64.5780   71.8860 C   0  0  0  0  0  0  0  0  0  0  0  0
    0.0420   63.4460   71.0150 N   0  0  0  0  0  0  0  0  0  0  0  0
    0.7270   62.2570   71.4110 C   0  0  0  0  0  0  0  0  0  0  0  0
    2.0370   61.9930   70.9800 C   0  0  0  0  0  0  0  0  0  0  0  0
    2.8490   62.8670   70.0590 C   0  0  0  0  0  0  0  0  0  0  0  0
    3.6250   62.0410   69.0280 C   0  0  0  0  0  0  0  0  0  0  0  0
    4.2680   60.7620   69.5810 C   0  0  0  0  0  0  0  0  0  0  0  0
    4.1000   60.5880   71.0870 C   0  0  0  0  0  0  0  0  0  0  0  0
    2.6760   60.8620   71.4960 C   0  0  0  0  0  0  0  0  0  0  0  0
    2.1090   60.0110   72.3780 N   0  0  0  0  0  0  0  0  0  0  0  0
    0.8580   60.2600   72.7870 C   0  0  0  0  0  0  0  0  0  0  0  0
    0.1130   61.3710   72.3410 C   0  0  0  0  0  0  0  0  0  0  0  0
   -1.2050   61.5420   72.8280 C   0  0  0  0  0  0  0  0  0  0  0  0
   -1.7640   60.6510   73.7420 C   0  0  0  0  0  0  0  0  0  0  0  0
   -1.0180   59.5680   74.1790 C   0  0  0  0  0  0  0  0  0  0  0  0
    0.2800   59.3840   73.6960 C   0  0  0  0  0  0  0  0  0  0  0  0
    1.0159   65.1607   69.2819 H   0  0  0  0  0  0  0  0  0  0  0  0
    2.1069   66.2555   70.2573 H   0  0  0  0  0  0  0  0  0  0  0  0
    0.1704   68.0040   69.6525 H   0  0  0  0  0  0  0  0  0  0  0  0
    1.6225   67.6833   68.5988 H   0  0  0  0  0  0  0  0  0  0  0  0
    0.3996   66.4173   67.0717 H   0  0  0  0  0  0  0  0  0  0  0  0
   -0.9810   66.2032   68.2495 H   0  0  0  0  0  0  0  0  0  0  0  0
   -2.0026   67.7927   67.0682 H   0  0  0  0  0  0  0  0  0  0  0  0
   -0.8656   68.9197   67.9409 H   0  0  0  0  0  0  0  0  0  0  0  0
   -1.0326   68.2559   65.0873 H   0  0  0  0  0  0  0  0  0  0  0  0
   -0.2154   69.6232   65.9260 H   0  0  0  0  0  0  0  0  0  0  0  0
    1.4042   67.7160   66.6166 H   0  0  0  0  0  0  0  0  0  0  0  0
    0.7827   67.0026   65.1775 H   0  0  0  0  0  0  0  0  0  0  0  0
    2.3125   68.0007   64.0502 H   0  0  0  0  0  0  0  0  0  0  0  0
    1.4076   69.5283   64.4619 H   0  0  0  0  0  0  0  0  0  0  0  0
    4.9146   69.2081   64.3479 H   0  0  0  0  0  0  0  0  0  0  0  0
    3.3941   70.3648   69.4985 H   0  0  0  0  0  0  0  0  0  0  0  0
    5.7142   71.1095   70.1353 H   0  0  0  0  0  0  0  0  0  0  0  0
    7.5540   71.0713   68.4743 H   0  0  0  0  0  0  0  0  0  0  0  0
    7.1518   70.2795   66.1320 H   0  0  0  0  0  0  0  0  0  0  0  0
    0.4002   66.7235   71.8232 H   0  0  0  0  0  0  0  0  0  0  0  0
   -0.8445   65.8846   70.7647 H   0  0  0  0  0  0  0  0  0  0  0  0
    1.4521   64.4898   72.1879 H   0  0  0  0  0  0  0  0  0  0  0  0
   -0.2440   64.5667   72.7792 H   0  0  0  0  0  0  0  0  0  0  0  0
   -0.6149   63.5038   70.2238 H   0  0  0  0  0  0  0  0  0  0  0  0
    2.1711   63.5522   69.5289 H   0  0  0  0  0  0  0  0  0  0  0  0
    3.5762   63.4233   70.6687 H   0  0  0  0  0  0  0  0  0  0  0  0
    2.9296   61.7550   68.2251 H   0  0  0  0  0  0  0  0  0  0  0  0
    4.4516   62.6777   68.6796 H   0  0  0  0  0  0  0  0  0  0  0  0
    3.8081   59.8980   69.0790 H   0  0  0  0  0  0  0  0  0  0  0  0
    5.3480   60.8374   69.3865 H   0  0  0  0  0  0  0  0  0  0  0  0
    4.3636   59.5565   71.3635 H   0  0  0  0  0  0  0  0  0  0  0  0
    4.7608   61.3004   71.6026 H   0  0  0  0  0  0  0  0  0  0  0  0
   -1.8012   62.3972   72.4772 H   0  0  0  0  0  0  0  0  0  0  0  0
   -2.7878   60.8059   74.1132 H   0  0  0  0  0  0  0  0  0  0  0  0
   -1.4453   58.8574   74.9019 H   0  0  0  0  0  0  0  0  0  0  0  0
    0.8618   58.5187   74.0466 H   0  0  0  0  0  0  0  0  0  0  0  0
  2  1  1  0
  3  2  1  0
  4  3  1  0
  5  4  1  0
  6  5  1  0
  7  6  1  0
  8  7  1  0
  9  8  2  0
 10  9  1  0
 11 10  2  0
 12 11  1  0
 12  8  1  0
 13 11  1  0
 14 13  2  0
 15 14  1  0
 16 10  1  0
 16 15  2  0
 17  1  1  0
 18 17  1  0
 19 18  1  0
 20 19  1  0
 21 20  1  0
 22 21  1  0
 23 22  1  0
 24 23  1  0
 25 24  1  0
 26 25  1  0
 26 21  2  0
 27 26  1  0
 28 27  2  0
 29 28  1  0
 29 20  2  0
 30 29  1  0
 31 30  2  0
 32 31  1  0
 33 32  2  0
 33 28  1  0
  1 34  1  0
  1 35  1  0
  2 36  1  0
  2 37  1  0
  3 38  1  0
  3 39  1  0
  4 40  1  0
  4 41  1  0
  5 42  1  0
  5 43  1  0
  6 44  1  0
  6 45  1  0
  7 46  1  0
  7 47  1  0
  9 48  1  0
 13 49  1  0
 14 50  1  0
 15 51  1  0
 16 52  1  0
 17 53  1  0
 17 54  1  0
 18 55  1  0
 18 56  1  0
 19 57  1  0
 22 58  1  0
 22 59  1  0
 23 60  1  0
 23 61  1  0
 24 62  1  0
 24 63  1  0
 25 64  1  0
 25 65  1  0
 30 66  1  0
 31 67  1  0
 32 68  1  0
 33 69  1  0
M  CHG  1   6   1
M  END
>  <score>  (2) 
-10.893

$$$$
=
     RDKit          3D

 69 73  0  0  0  0  0  0  0  0999 V2000
   -1.1110   68.7340   66.9200 C   0  0  0  0  0  0  0  0  0  0  0  0
   -1.9860   67.5780   67.4120 C   0  0  0  0  0  0  0  0  0  0  0  0
   -1.1900   66.5000   68.1560 C   0  0  0  0  0  0  0  0  0  0  0  0
    0.2110   66.9540   68.5760 C   0  0  0  0  0  0  0  0  0  0  0  0
    0.5870   66.5070   69.9870 C   0  0  0  0  0  0  0  0  0  0  0  0
    0.2410   65.0640   70.1760 N   0  0  0  0  0  4  0  0  0  0  0  0
    0.5630   64.5040   71.5290 C   0  0  0  0  0  0  0  0  0  0  0  0
    1.5320   63.3880   71.4770 C   0  0  0  0  0  0  0  0  0  0  0  0
    1.4190   62.0190   71.6070 C   0  0  0  0  0  0  0  0  0  0  0  0
    2.7260   61.4870   71.4420 C   0  0  0  0  0  0  0  0  0  0  0  0
    3.5570   62.5800   71.2240 C   0  0  0  0  0  0  0  0  0  0  0  0
    2.8310   63.7330   71.2420 O   0  0  0  0  0  0  0  0  0  0  0  0
    4.9300   62.4920   71.0150 C   0  0  0  0  0  0  0  0  0  0  0  0
    5.4790   61.2050   71.0350 C   0  0  0  0  0  0  0  0  0  0  0  0
    4.6780   60.0800   71.2510 C   0  0  0  0  0  0  0  0  0  0  0  0
    3.2970   60.2030   71.4580 C   0  0  0  0  0  0  0  0  0  0  0  0
   -0.9890   68.8030   65.3920 C   0  0  0  0  0  0  0  0  0  0  0  0
    0.4390   69.0080   64.8730 C   0  0  0  0  0  0  0  0  0  0  0  0
    1.3690   68.1560   65.6310 N   0  0  0  0  0  0  0  0  0  0  0  0
    2.7060   68.6510   65.5460 C   0  0  0  0  0  0  0  0  0  0  0  0
    3.4280   68.5950   64.3430 C   0  0  0  0  0  0  0  0  0  0  0  0
    2.9300   68.0040   63.0490 C   0  0  0  0  0  0  0  0  0  0  0  0
    4.0170   67.1850   62.3430 C   0  0  0  0  0  0  0  0  0  0  0  0
    5.4170   67.8130   62.3730 C   0  0  0  0  0  0  0  0  0  0  0  0
    5.4610   69.1930   63.0200 C   0  0  0  0  0  0  0  0  0  0  0  0
    4.6900   69.1960   64.3140 C   0  0  0  0  0  0  0  0  0  0  0  0
    5.2530   69.8210   65.3700 N   0  0  0  0  0  0  0  0  0  0  0  0
    4.5660   69.8720   66.5190 C   0  0  0  0  0  0  0  0  0  0  0  0
    3.2830   69.3060   66.6700 C   0  0  0  0  0  0  0  0  0  0  0  0
    2.6420   69.4070   67.9280 C   0  0  0  0  0  0  0  0  0  0  0  0
    3.2440   70.0630   69.0010 C   0  0  0  0  0  0  0  0  0  0  0  0
    4.5020   70.6220   68.8360 C   0  0  0  0  0  0  0  0  0  0  0  0
    5.1480   70.5170   67.6020 C   0  0  0  0  0  0  0  0  0  0  0  0
   -1.5484   69.6780   67.2772 H   0  0  0  0  0  0  0  0  0  0  0  0
   -0.0993   68.5656   67.3177 H   0  0  0  0  0  0  0  0  0  0  0  0
   -2.7504   67.9817   68.0923 H   0  0  0  0  0  0  0  0  0  0  0  0
   -2.4342   67.1041   66.5263 H   0  0  0  0  0  0  0  0  0  0  0  0
   -1.7492   66.2161   69.0597 H   0  0  0  0  0  0  0  0  0  0  0  0
   -1.0616   65.6565   67.4618 H   0  0  0  0  0  0  0  0  0  0  0  0
    0.9418   66.5340   67.8692 H   0  0  0  0  0  0  0  0  0  0  0  0
    0.2158   68.0540   68.5679 H   0  0  0  0  0  0  0  0  0  0  0  0
    1.6680   66.6450   70.1369 H   0  0  0  0  0  0  0  0  0  0  0  0
    0.0288   67.1108   70.7177 H   0  0  0  0  0  0  0  0  0  0  0  0
   -0.7711   64.9554   70.0185 H   0  0  0  0  0  0  0  0  0  0  0  0
    0.8197   64.5402   69.5039 H   0  0  0  0  0  0  0  0  0  0  0  0
    0.9869   65.3076   72.1491 H   0  0  0  0  0  0  0  0  0  0  0  0
   -0.3720   64.1083   71.9523 H   0  0  0  0  0  0  0  0  0  0  0  0
    0.4973   61.4507   71.8005 H   0  0  0  0  0  0  0  0  0  0  0  0
    5.5494   63.3847   70.8436 H   0  0  0  0  0  0  0  0  0  0  0  0
    6.5601   61.0763   70.8780 H   0  0  0  0  0  0  0  0  0  0  0  0
    5.1391   59.0813   71.2587 H   0  0  0  0  0  0  0  0  0  0  0  0
    2.6734   59.3132   71.6294 H   0  0  0  0  0  0  0  0  0  0  0  0
   -1.3736   67.8608   64.9745 H   0  0  0  0  0  0  0  0  0  0  0  0
   -1.5654   69.6840   65.0733 H   0  0  0  0  0  0  0  0  0  0  0  0
    0.4829   68.7393   63.8072 H   0  0  0  0  0  0  0  0  0  0  0  0
    0.7250   70.0625   65.0000 H   0  0  0  0  0  0  0  0  0  0  0  0
    1.0921   67.3132   66.1543 H   0  0  0  0  0  0  0  0  0  0  0  0
    2.0728   67.3487   63.2632 H   0  0  0  0  0  0  0  0  0  0  0  0
    2.6385   68.8308   62.3847 H   0  0  0  0  0  0  0  0  0  0  0  0
    4.0733   66.1999   62.8292 H   0  0  0  0  0  0  0  0  0  0  0  0
    3.7247   67.1301   61.2840 H   0  0  0  0  0  0  0  0  0  0  0  0
    6.0845   67.1447   62.9368 H   0  0  0  0  0  0  0  0  0  0  0  0
    5.7324   67.9404   61.3269 H   0  0  0  0  0  0  0  0  0  0  0  0
    6.5077   69.4645   63.2220 H   0  0  0  0  0  0  0  0  0  0  0  0
    5.0050   69.9215   62.3335 H   0  0  0  0  0  0  0  0  0  0  0  0
    1.6468   68.9580   68.0621 H   0  0  0  0  0  0  0  0  0  0  0  0
    2.7261   70.1363   69.9687 H   0  0  0  0  0  0  0  0  0  0  0  0
    4.9887   71.1453   69.6723 H   0  0  0  0  0  0  0  0  0  0  0  0
    6.1485   70.9589   67.4847 H   0  0  0  0  0  0  0  0  0  0  0  0
  2  1  1  0
  3  2  1  0
  4  3  1  0
  5  4  1  0
  6  5  1  0
  7  6  1  0
  8  7  1  0
  9  8  2  0
 10  9  1  0
 11 10  2  0
 12 11  1  0
 12  8  1  0
 13 11  1  0
 14 13  2  0
 15 14  1  0
 16 10  1  0
 16 15  2  0
 17  1  1  0
 18 17  1  0
 19 18  1  0
 20 19  1  0
 21 20  1  0
 22 21  1  0
 23 22  1  0
 24 23  1  0
 25 24  1  0
 26 25  1  0
 26 21  2  0
 27 26  1  0
 28 27  2  0
 29 28  1  0
 29 20  2  0
 30 29  1  0
 31 30  2  0
 32 31  1  0
 33 32  2  0
 33 28  1  0
  1 34  1  0
  1 35  1  0
  2 36  1  0
  2 37  1  0
  3 38  1  0
  3 39  1  0
  4 40  1  0
  4 41  1  0
  5 42  1  0
  5 43  1  0
  6 44  1  0
  6 45  1  0
  7 46  1  0
  7 47  1  0
  9 48  1  0
 13 49  1  0
 14 50  1  0
 15 51  1  0
 16 52  1  0
 17 53  1  0
 17 54  1  0
 18 55  1  0
 18 56  1  0
 19 57  1  0
 22 58  1  0
 22 59  1  0
 23 60  1  0
 23 61  1  0
 24 62  1  0
 24 63  1  0
 25 64  1  0
 25 65  1  0
 30 66  1  0
 31 67  1  0
 32 68  1  0
 33 69  1  0
M  CHG  1   6   1
M  END
>  <score>  (3) 
-10.8

$$$$
=
     RDKit          3D

 69 73  0  0  0  0  0  0  0  0999 V2000
    1.4850   66.8000   69.5180 C   0  0  0  0  0  0  0  0  0  0  0  0
    0.7460   65.6380   70.1870 C   0  0  0  0  0  0  0  0  0  0  0  0
    1.6930   64.6120   70.8200 C   0  0  0  0  0  0  0  0  0  0  0  0
    1.8970   63.3580   69.9640 C   0  0  0  0  0  0  0  0  0  0  0  0
    3.3380   63.1890   69.4840 C   0  0  0  0  0  0  0  0  0  0  0  0
    4.2870   63.6460   70.5470 N   0  0  0  0  0  4  0  0  0  0  0  0
    5.1750   62.5770   71.1100 C   0  0  0  0  0  0  0  0  0  0  0  0
    4.4250   61.3930   71.5790 C   0  0  0  0  0  0  0  0  0  0  0  0
    3.7240   61.1020   72.7320 C   0  0  0  0  0  0  0  0  0  0  0  0
    3.2130   59.7850   72.5750 C   0  0  0  0  0  0  0  0  0  0  0  0
    3.6450   59.3570   71.3240 C   0  0  0  0  0  0  0  0  0  0  0  0
    4.3770   60.3340   70.7200 O   0  0  0  0  0  0  0  0  0  0  0  0
    3.3580   58.1080   70.7820 C   0  0  0  0  0  0  0  0  0  0  0  0
    2.5850   57.2510   71.5730 C   0  0  0  0  0  0  0  0  0  0  0  0
    2.1310   57.6440   72.8340 C   0  0  0  0  0  0  0  0  0  0  0  0
    2.4370   58.9100   73.3530 C   0  0  0  0  0  0  0  0  0  0  0  0
    0.6870   67.4680   68.3910 C   0  0  0  0  0  0  0  0  0  0  0  0
    1.4500   67.6250   67.0710 C   0  0  0  0  0  0  0  0  0  0  0  0
    1.6870   69.0510   66.8010 N   0  0  0  0  0  0  0  0  0  0  0  0
    3.0370   69.2810   66.3960 C   0  0  0  0  0  0  0  0  0  0  0  0
    3.4400   69.0900   65.0650 C   0  0  0  0  0  0  0  0  0  0  0  0
    2.5570   68.6070   63.9430 C   0  0  0  0  0  0  0  0  0  0  0  0
    3.2790   67.5960   63.0460 C   0  0  0  0  0  0  0  0  0  0  0  0
    4.7400   67.9430   62.7310 C   0  0  0  0  0  0  0  0  0  0  0  0
    5.1900   69.2890   63.2920 C   0  0  0  0  0  0  0  0  0  0  0  0
    4.7510   69.4370   64.7260 C   0  0  0  0  0  0  0  0  0  0  0  0
    5.6470   69.9410   65.6000 N   0  0  0  0  0  0  0  0  0  0  0  0
    5.2650   70.1220   66.8710 C   0  0  0  0  0  0  0  0  0  0  0  0
    3.9680   69.8120   67.3310 C   0  0  0  0  0  0  0  0  0  0  0  0
    3.6640   70.0320   68.6960 C   0  0  0  0  0  0  0  0  0  0  0  0
    4.6090   70.5590   69.5760 C   0  0  0  0  0  0  0  0  0  0  0  0
    5.8760   70.8660   69.1080 C   0  0  0  0  0  0  0  0  0  0  0  0
    6.1900   70.6420   67.7660 C   0  0  0  0  0  0  0  0  0  0  0  0
    1.7066   67.5580   70.2837 H   0  0  0  0  0  0  0  0  0  0  0  0
    2.3969   66.3840   69.0647 H   0  0  0  0  0  0  0  0  0  0  0  0
    0.0927   66.0441   70.9733 H   0  0  0  0  0  0  0  0  0  0  0  0
    0.1726   65.1185   69.4051 H   0  0  0  0  0  0  0  0  0  0  0  0
    2.6713   65.0905   70.9750 H   0  0  0  0  0  0  0  0  0  0  0  0
    1.2327   64.2871   71.7648 H   0  0  0  0  0  0  0  0  0  0  0  0
    1.6214   62.4769   70.5622 H   0  0  0  0  0  0  0  0  0  0  0  0
    1.2635   63.4633   69.0709 H   0  0  0  0  0  0  0  0  0  0  0  0
    3.5254   62.1286   69.2594 H   0  0  0  0  0  0  0  0  0  0  0  0
    3.4908   63.7942   68.5782 H   0  0  0  0  0  0  0  0  0  0  0  0
    4.8872   64.3801   70.1447 H   0  0  0  0  0  0  0  0  0  0  0  0
    3.7038   63.9756   71.3294 H   0  0  0  0  0  0  0  0  0  0  0  0
    5.8799   62.2586   70.3279 H   0  0  0  0  0  0  0  0  0  0  0  0
    5.6943   63.0044   71.9804 H   0  0  0  0  0  0  0  0  0  0  0  0
    3.5875   61.7607   73.6023 H   0  0  0  0  0  0  0  0  0  0  0  0
    3.7190   57.8107   69.7864 H   0  0  0  0  0  0  0  0  0  0  0  0
    2.3303   56.2499   71.1950 H   0  0  0  0  0  0  0  0  0  0  0  0
    1.5227   56.9481   73.4304 H   0  0  0  0  0  0  0  0  0  0  0  0
    2.0772   59.2115   74.3478 H   0  0  0  0  0  0  0  0  0  0  0  0
   -0.2089   66.8594   68.1985 H   0  0  0  0  0  0  0  0  0  0  0  0
    0.4532   68.4856   68.7373 H   0  0  0  0  0  0  0  0  0  0  0  0
    2.4147   67.1012   67.1420 H   0  0  0  0  0  0  0  0  0  0  0  0
    0.8543   67.1939   66.2529 H   0  0  0  0  0  0  0  0  0  0  0  0
    0.9728   69.7875   66.8921 H   0  0  0  0  0  0  0  0  0  0  0  0
    1.6648   68.1282   64.3728 H   0  0  0  0  0  0  0  0  0  0  0  0
    2.2813   69.4754   63.3266 H   0  0  0  0  0  0  0  0  0  0  0  0
    3.2605   66.6179   63.5490 H   0  0  0  0  0  0  0  0  0  0  0  0
    2.7457   67.5997   62.0839 H   0  0  0  0  0  0  0  0  0  0  0  0
    5.3821   67.1580   63.1569 H   0  0  0  0  0  0  0  0  0  0  0  0
    4.8239   68.0089   61.6362 H   0  0  0  0  0  0  0  0  0  0  0  0
    6.2869   69.3540   63.2408 H   0  0  0  0  0  0  0  0  0  0  0  0
    4.7340   70.0931   62.6958 H   0  0  0  0  0  0  0  0  0  0  0  0
    2.6605   69.7818   69.0708 H   0  0  0  0  0  0  0  0  0  0  0  0
    4.3506   70.7292   70.6316 H   0  0  0  0  0  0  0  0  0  0  0  0
    6.6310   71.2841   69.7900 H   0  0  0  0  0  0  0  0  0  0  0  0
    7.2010   70.8850   67.4071 H   0  0  0  0  0  0  0  0  0  0  0  0
  2  1  1  0
  3  2  1  0
  4  3  1  0
  5  4  1  0
  6  5  1  0
  7  6  1  0
  8  7  1  0
  9  8  2  0
 10  9  1  0
 11 10  2  0
 12 11  1  0
 12  8  1  0
 13 11  1  0
 14 13  2  0
 15 14  1  0
 16 10  1  0
 16 15  2  0
 17  1  1  0
 18 17  1  0
 19 18  1  0
 20 19  1  0
 21 20  1  0
 22 21  1  0
 23 22  1  0
 24 23  1  0
 25 24  1  0
 26 25  1  0
 26 21  2  0
 27 26  1  0
 28 27  2  0
 29 28  1  0
 29 20  2  0
 30 29  1  0
 31 30  2  0
 32 31  1  0
 33 32  2  0
 33 28  1  0
  1 34  1  0
  1 35  1  0
  2 36  1  0
  2 37  1  0
  3 38  1  0
  3 39  1  0
  4 40  1  0
  4 41  1  0
  5 42  1  0
  5 43  1  0
  6 44  1  0
  6 45  1  0
  7 46  1  0
  7 47  1  0
  9 48  1  0
 13 49  1  0
 14 50  1  0
 15 51  1  0
 16 52  1  0
 17 53  1  0
 17 54  1  0
 18 55  1  0
 18 56  1  0
 19 57  1  0
 22 58  1  0
 22 59  1  0
 23 60  1  0
 23 61  1  0
 24 62  1  0
 24 63  1  0
 25 64  1  0
 25 65  1  0
 30 66  1  0
 31 67  1  0
 32 68  1  0
 33 69  1  0
M  CHG  1   6   1
M  END
>  <score>  (4) 
-10.765

$$$$
=
     RDKit          3D

 69 73  0  0  0  0  0  0  0  0999 V2000
    1.1410   66.8620   69.5210 C   0  0  0  0  0  0  0  0  0  0  0  0
    0.2880   66.0960   70.5360 C   0  0  0  0  0  0  0  0  0  0  0  0
    0.2820   64.5830   70.2900 C   0  0  0  0  0  0  0  0  0  0  0  0
    1.4990   63.8630   70.8800 C   0  0  0  0  0  0  0  0  0  0  0  0
    2.7600   64.0280   70.0320 C   0  0  0  0  0  0  0  0  0  0  0  0
    3.0470   62.7600   69.2900 N   0  0  0  0  0  4  0  0  0  0  0  0
    4.1070   61.8930   69.8990 C   0  0  0  0  0  0  0  0  0  0  0  0
    3.5660   60.6540   70.4970 C   0  0  0  0  0  0  0  0  0  0  0  0
    3.6120   59.3220   70.1390 C   0  0  0  0  0  0  0  0  0  0  0  0
    2.9030   58.6080   71.1420 C   0  0  0  0  0  0  0  0  0  0  0  0
    2.4650   59.5640   72.0520 C   0  0  0  0  0  0  0  0  0  0  0  0
    2.8710   60.8040   71.6610 O   0  0  0  0  0  0  0  0  0  0  0  0
    1.7240   59.2770   73.1940 C   0  0  0  0  0  0  0  0  0  0  0  0
    1.4140   57.9310   73.4110 C   0  0  0  0  0  0  0  0  0  0  0  0
    1.8340   56.9390   72.5210 C   0  0  0  0  0  0  0  0  0  0  0  0
    2.5810   57.2610   71.3780 C   0  0  0  0  0  0  0  0  0  0  0  0
    0.3670   67.2840   68.2640 C   0  0  0  0  0  0  0  0  0  0  0  0
    1.2150   67.3720   66.9900 C   0  0  0  0  0  0  0  0  0  0  0  0
    1.2610   68.7660   66.5210 N   0  0  0  0  0  0  0  0  0  0  0  0
    2.5910   69.1460   66.1650 C   0  0  0  0  0  0  0  0  0  0  0  0
    3.5070   69.5820   67.1350 C   0  0  0  0  0  0  0  0  0  0  0  0
    3.2200   69.7350   68.6060 C   0  0  0  0  0  0  0  0  0  0  0  0
    3.8390   71.0160   69.1770 C   0  0  0  0  0  0  0  0  0  0  0  0
    5.2520   71.3290   68.6690 C   0  0  0  0  0  0  0  0  0  0  0  0
    5.8330   70.2540   67.7560 C   0  0  0  0  0  0  0  0  0  0  0  0
    4.8190   69.8350   66.7230 C   0  0  0  0  0  0  0  0  0  0  0  0
    5.2530   69.6860   65.4530 N   0  0  0  0  0  0  0  0  0  0  0  0
    4.3790   69.2730   64.5260 C   0  0  0  0  0  0  0  0  0  0  0  0
    3.0300   68.9840   64.8210 C   0  0  0  0  0  0  0  0  0  0  0  0
    2.1830   68.5600   63.7690 C   0  0  0  0  0  0  0  0  0  0  0  0
    2.6590   68.4110   62.4670 C   0  0  0  0  0  0  0  0  0  0  0  0
    3.9880   68.6900   62.1930 C   0  0  0  0  0  0  0  0  0  0  0  0
    4.8290   69.1200   63.2220 C   0  0  0  0  0  0  0  0  0  0  0  0
    1.5332   67.7668   70.0084 H   0  0  0  0  0  0  0  0  0  0  0  0
    1.9424   66.1829   69.1944 H   0  0  0  0  0  0  0  0  0  0  0  0
    0.6864   66.2861   71.5436 H   0  0  0  0  0  0  0  0  0  0  0  0
   -0.7478   66.4513   70.4312 H   0  0  0  0  0  0  0  0  0  0  0  0
   -0.6265   64.1601   70.7437 H   0  0  0  0  0  0  0  0  0  0  0  0
    0.3135   64.4322   69.2008 H   0  0  0  0  0  0  0  0  0  0  0  0
    1.6952   64.2705   71.8827 H   0  0  0  0  0  0  0  0  0  0  0  0
    1.2623   62.7892   70.9120 H   0  0  0  0  0  0  0  0  0  0  0  0
    2.6103   64.8457   69.3117 H   0  0  0  0  0  0  0  0  0  0  0  0
    3.6099   64.2618   70.6901 H   0  0  0  0  0  0  0  0  0  0  0  0
    2.1753   62.2132   69.2435 H   0  0  0  0  0  0  0  0  0  0  0  0
    3.4036   63.0428   68.3660 H   0  0  0  0  0  0  0  0  0  0  0  0
    4.8282   61.6181   69.1152 H   0  0  0  0  0  0  0  0  0  0  0  0
    4.5797   62.4698   70.7077 H   0  0  0  0  0  0  0  0  0  0  0  0
    4.1018   58.8964   69.2508 H   0  0  0  0  0  0  0  0  0  0  0  0
    1.3997   60.0661   73.8884 H   0  0  0  0  0  0  0  0  0  0  0  0
    0.8289   57.6478   74.2984 H   0  0  0  0  0  0  0  0  0  0  0  0
    1.5747   55.8886   72.7198 H   0  0  0  0  0  0  0  0  0  0  0  0
    2.9078   56.4752   70.6811 H   0  0  0  0  0  0  0  0  0  0  0  0
   -0.4343   66.5502   68.0924 H   0  0  0  0  0  0  0  0  0  0  0  0
   -0.0103   68.2990   68.4572 H   0  0  0  0  0  0  0  0  0  0  0  0
    2.2362   67.0247   67.2056 H   0  0  0  0  0  0  0  0  0  0  0  0
    0.7672   66.7393   66.2095 H   0  0  0  0  0  0  0  0  0  0  0  0
    0.4413   69.3865   66.4577 H   0  0  0  0  0  0  0  0  0  0  0  0
    2.1306   69.7692   68.7545 H   0  0  0  0  0  0  0  0  0  0  0  0
    3.6641   68.8770   69.1319 H   0  0  0  0  0  0  0  0  0  0  0  0
    3.1851   71.8598   68.9116 H   0  0  0  0  0  0  0  0  0  0  0  0
    3.9274   70.8603   70.2623 H   0  0  0  0  0  0  0  0  0  0  0  0
    5.2173   72.2760   68.1105 H   0  0  0  0  0  0  0  0  0  0  0  0
    5.9042   71.3836   69.5531 H   0  0  0  0  0  0  0  0  0  0  0  0
    6.7236   70.6528   67.2482 H   0  0  0  0  0  0  0  0  0  0  0  0
    6.1038   69.3786   68.3645 H   0  0  0  0  0  0  0  0  0  0  0  0
    1.1261   68.3433   63.9834 H   0  0  0  0  0  0  0  0  0  0  0  0
    1.9855   68.0750   61.6648 H   0  0  0  0  0  0  0  0  0  0  0  0
    4.3786   68.5736   61.1713 H   0  0  0  0  0  0  0  0  0  0  0  0
    5.8809   69.3444   62.9916 H   0  0  0  0  0  0  0  0  0  0  0  0
  2  1  1  0
  3  2  1  0
  4  3  1  0
  5  4  1  0
  6  5  1  0
  7  6  1  0
  8  7  1  0
  9  8  2  0
 10  9  1  0
 11 10  2  0
 12 11  1  0
 12  8  1  0
 13 11  1  0
 14 13  2  0
 15 14  1  0
 16 10  1  0
 16 15  2  0
 17  1  1  0
 18 17  1  0
 19 18  1  0
 20 19  1  0
 21 20  1  0
 22 21  1  0
 23 22  1  0
 24 23  1  0
 25 24  1  0
 26 25  1  0
 26 21  2  0
 27 26  1  0
 28 27  2  0
 29 28  1  0
 29 20  2  0
 30 29  1  0
 31 30  2  0
 32 31  1  0
 33 32  2  0
 33 28  1  0
  1 34  1  0
  1 35  1  0
  2 36  1  0
  2 37  1  0
  3 38  1  0
  3 39  1  0
  4 40  1  0
  4 41  1  0
  5 42  1  0
  5 43  1  0
  6 44  1  0
  6 45  1  0
  7 46  1  0
  7 47  1  0
  9 48  1  0
 13 49  1  0
 14 50  1  0
 15 51  1  0
 16 52  1  0
 17 53  1  0
 17 54  1  0
 18 55  1  0
 18 56  1  0
 19 57  1  0
 22 58  1  0
 22 59  1  0
 23 60  1  0
 23 61  1  0
 24 62  1  0
 24 63  1  0
 25 64  1  0
 25 65  1  0
 30 66  1  0
 31 67  1  0
 32 68  1  0
 33 69  1  0
M  CHG  1   6   1
M  END
>  <score>  (5) 
-10.751

$$$$
=
     RDKit          3D

 69 73  0  0  0  0  0  0  0  0999 V2000
    0.4020   65.0100   70.6120 C   0  0  0  0  0  0  0  0  0  0  0  0
    1.3670   66.1310   70.2170 C   0  0  0  0  0  0  0  0  0  0  0  0
    0.8350   67.0040   69.0750 C   0  0  0  0  0  0  0  0  0  0  0  0
   -0.5740   66.6170   68.6150 C   0  0  0  0  0  0  0  0  0  0  0  0
   -0.9490   67.2240   67.2640 C   0  0  0  0  0  0  0  0  0  0  0  0
    0.2020   67.1090   66.3140 N   0  0  0  0  0  4  0  0  0  0  0  0
    0.5920   68.3850   65.6300 C   0  0  0  0  0  0  0  0  0  0  0  0
    1.9650   68.8210   65.9630 C   0  0  0  0  0  0  0  0  0  0  0  0
    3.1660   68.7940   65.2830 C   0  0  0  0  0  0  0  0  0  0  0  0
    4.1330   69.3790   66.1440 C   0  0  0  0  0  0  0  0  0  0  0  0
    3.4480   69.7240   67.3050 C   0  0  0  0  0  0  0  0  0  0  0  0
    2.1330   69.3870   67.1920 O   0  0  0  0  0  0  0  0  0  0  0  0
    4.0380   70.3270   68.4120 C   0  0  0  0  0  0  0  0  0  0  0  0
    5.4090   70.5900   68.3190 C   0  0  0  0  0  0  0  0  0  0  0  0
    6.1320   70.2600   67.1700 C   0  0  0  0  0  0  0  0  0  0  0  0
    5.5090   69.6520   66.0710 C   0  0  0  0  0  0  0  0  0  0  0  0
    0.0720   64.9840   72.1100 C   0  0  0  0  0  0  0  0  0  0  0  0
    0.3640   63.6500   72.8070 C   0  0  0  0  0  0  0  0  0  0  0  0
    0.3490   62.5600   71.8190 N   0  0  0  0  0  0  0  0  0  0  0  0
    1.2290   61.5030   72.2040 C   0  0  0  0  0  0  0  0  0  0  0  0
    0.7440   60.3470   72.8350 C   0  0  0  0  0  0  0  0  0  0  0  0
   -0.6930   60.0870   73.2050 C   0  0  0  0  0  0  0  0  0  0  0  0
   -0.8170   59.4430   74.5900 C   0  0  0  0  0  0  0  0  0  0  0  0
    0.2250   58.3570   74.8890 C   0  0  0  0  0  0  0  0  0  0  0  0
    1.1450   58.0420   73.7140 C   0  0  0  0  0  0  0  0  0  0  0  0
    1.6530   59.3130   73.0850 C   0  0  0  0  0  0  0  0  0  0  0  0
    2.9620   59.3640   72.7580 N   0  0  0  0  0  0  0  0  0  0  0  0
    3.4250   60.4690   72.1590 C   0  0  0  0  0  0  0  0  0  0  0  0
    2.6060   61.5750   71.8530 C   0  0  0  0  0  0  0  0  0  0  0  0
    3.1940   62.6990   71.2250 C   0  0  0  0  0  0  0  0  0  0  0  0
    4.5480   62.7230   70.8940 C   0  0  0  0  0  0  0  0  0  0  0  0
    5.3400   61.6260   71.1940 C   0  0  0  0  0  0  0  0  0  0  0  0
    4.7720   60.5160   71.8240 C   0  0  0  0  0  0  0  0  0  0  0  0
   -0.5350   65.1441   70.0516 H   0  0  0  0  0  0  0  0  0  0  0  0
    0.8987   64.0577   70.3742 H   0  0  0  0  0  0  0  0  0  0  0  0
    1.5403   66.7701   71.0954 H   0  0  0  0  0  0  0  0  0  0  0  0
    2.2951   65.6574   69.8644 H   0  0  0  0  0  0  0  0  0  0  0  0
    0.8149   68.0495   69.4164 H   0  0  0  0  0  0  0  0  0  0  0  0
    1.5070   66.8582   68.2164 H   0  0  0  0  0  0  0  0  0  0  0  0
   -0.6276   65.5213   68.5339 H   0  0  0  0  0  0  0  0  0  0  0  0
   -1.2824   67.0090   69.3597 H   0  0  0  0  0  0  0  0  0  0  0  0
   -1.8165   66.6877   66.8519 H   0  0  0  0  0  0  0  0  0  0  0  0
   -1.1984   68.2864   67.4022 H   0  0  0  0  0  0  0  0  0  0  0  0
    1.0181   66.7673   66.8414 H   0  0  0  0  0  0  0  0  0  0  0  0
   -0.1037   66.4662   65.5695 H   0  0  0  0  0  0  0  0  0  0  0  0
    0.5258   68.2344   64.5424 H   0  0  0  0  0  0  0  0  0  0  0  0
   -0.0964   69.1693   65.9778 H   0  0  0  0  0  0  0  0  0  0  0  0
    3.3403   68.3971   64.2720 H   0  0  0  0  0  0  0  0  0  0  0  0
    3.4580   70.5828   69.3110 H   0  0  0  0  0  0  0  0  0  0  0  0
    5.9267   71.0649   69.1654 H   0  0  0  0  0  0  0  0  0  0  0  0
    7.2087   70.4810   67.1269 H   0  0  0  0  0  0  0  0  0  0  0  0
    6.0856   69.3941   65.1704 H   0  0  0  0  0  0  0  0  0  0  0  0
    0.6655   65.7666   72.6053 H   0  0  0  0  0  0  0  0  0  0  0  0
   -1.0128   65.1467   72.1921 H   0  0  0  0  0  0  0  0  0  0  0  0
    1.3535   63.6963   73.2852 H   0  0  0  0  0  0  0  0  0  0  0  0
   -0.4064   63.4612   73.5691 H   0  0  0  0  0  0  0  0  0  0  0  0
   -0.2217   62.5593   70.9615 H   0  0  0  0  0  0  0  0  0  0  0  0
   -1.2386   61.0421   73.2064 H   0  0  0  0  0  0  0  0  0  0  0  0
   -1.1157   59.3910   72.4655 H   0  0  0  0  0  0  0  0  0  0  0  0
   -0.7130   60.2349   75.3464 H   0  0  0  0  0  0  0  0  0  0  0  0
   -1.7983   58.9465   74.6145 H   0  0  0  0  0  0  0  0  0  0  0  0
    0.8445   58.6946   75.7329 H   0  0  0  0  0  0  0  0  0  0  0  0
   -0.3309   57.4351   75.1149 H   0  0  0  0  0  0  0  0  0  0  0  0
    1.9994   57.4490   74.0723 H   0  0  0  0  0  0  0  0  0  0  0  0
    0.5782   57.4747   72.9610 H   0  0  0  0  0  0  0  0  0  0  0  0
    2.5683   63.5735   70.9929 H   0  0  0  0  0  0  0  0  0  0  0  0
    4.9834   63.6039   70.3996 H   0  0  0  0  0  0  0  0  0  0  0  0
    6.4097   61.6293   70.9375 H   0  0  0  0  0  0  0  0  0  0  0  0
    5.4111   59.6529   72.0620 H   0  0  0  0  0  0  0  0  0  0  0  0
  2  1  1  0
  3  2  1  0
  4  3  1  0
  5  4  1  0
  6  5  1  0
  7  6  1  0
  8  7  1  0
  9  8  2  0
 10  9  1  0
 11 10  2  0
 12 11  1  0
 12  8  1  0
 13 11  1  0
 14 13  2  0
 15 14  1  0
 16 10  1  0
 16 15  2  0
 17  1  1  0
 18 17  1  0
 19 18  1  0
 20 19  1  0
 21 20  1  0
 22 21  1  0
 23 22  1  0
 24 23  1  0
 25 24  1  0
 26 25  1  0
 26 21  2  0
 27 26  1  0
 28 27  2  0
 29 28  1  0
 29 20  2  0
 30 29  1  0
 31 30  2  0
 32 31  1  0
 33 32  2  0
 33 28  1  0
  1 34  1  0
  1 35  1  0
  2 36  1  0
  2 37  1  0
  3 38  1  0
  3 39  1  0
  4 40  1  0
  4 41  1  0
  5 42  1  0
  5 43  1  0
  6 44  1  0
  6 45  1  0
  7 46  1  0
  7 47  1  0
  9 48  1  0
 13 49  1  0
 14 50  1  0
 15 51  1  0
 16 52  1  0
 17 53  1  0
 17 54  1  0
 18 55  1  0
 18 56  1  0
 19 57  1  0
 22 58  1  0
 22 59  1  0
 23 60  1  0
 23 61  1  0
 24 62  1  0
 24 63  1  0
 25 64  1  0
 25 65  1  0
 30 66  1  0
 31 67  1  0
 32 68  1  0
 33 69  1  0
M  CHG  1   6   1
M  END
>  <score>  (6) 
-10.741

$$$$
=
     RDKit          3D

 69 73  0  0  0  0  0  0  0  0999 V2000
    1.3650   66.7900   69.5130 C   0  0  0  0  0  0  0  0  0  0  0  0
    0.4400   65.7440   70.1420 C   0  0  0  0  0  0  0  0  0  0  0  0
    1.1920   64.5050   70.6410 C   0  0  0  0  0  0  0  0  0  0  0  0
    2.7030   64.5630   70.3910 C   0  0  0  0  0  0  0  0  0  0  0  0
    3.4210   63.2680   70.7660 C   0  0  0  0  0  0  0  0  0  0  0  0
    2.4220   62.1900   71.0440 N   0  0  0  0  0  4  0  0  0  0  0  0
    3.0060   60.8430   71.3480 C   0  0  0  0  0  0  0  0  0  0  0  0
    2.0900   59.9770   72.1210 C   0  0  0  0  0  0  0  0  0  0  0  0
    2.1310   58.6550   72.5130 C   0  0  0  0  0  0  0  0  0  0  0  0
    0.9420   58.4150   73.2540 C   0  0  0  0  0  0  0  0  0  0  0  0
    0.2480   59.6210   73.2590 C   0  0  0  0  0  0  0  0  0  0  0  0
    0.9480   60.5680   72.5740 O   0  0  0  0  0  0  0  0  0  0  0  0
   -0.9810   59.8140   73.8820 C   0  0  0  0  0  0  0  0  0  0  0  0
   -1.5270   58.7040   74.5350 C   0  0  0  0  0  0  0  0  0  0  0  0
   -0.8610   57.4750   74.5540 C   0  0  0  0  0  0  0  0  0  0  0  0
    0.3770   57.3130   73.9160 C   0  0  0  0  0  0  0  0  0  0  0  0
    0.6950   67.6140   68.4060 C   0  0  0  0  0  0  0  0  0  0  0  0
    1.4590   67.6430   67.0770 C   0  0  0  0  0  0  0  0  0  0  0  0
    1.6680   69.0360   66.6550 N   0  0  0  0  0  0  0  0  0  0  0  0
    3.0310   69.2650   66.2920 C   0  0  0  0  0  0  0  0  0  0  0  0
    3.4730   69.0790   64.9730 C   0  0  0  0  0  0  0  0  0  0  0  0
    2.6240   68.6040   63.8220 C   0  0  0  0  0  0  0  0  0  0  0  0
    3.3720   67.5960   62.9430 C   0  0  0  0  0  0  0  0  0  0  0  0
    4.8420   67.9410   62.6750 C   0  0  0  0  0  0  0  0  0  0  0  0
    5.2770   69.2830   63.2560 C   0  0  0  0  0  0  0  0  0  0  0  0
    4.7950   69.4260   64.6760 C   0  0  0  0  0  0  0  0  0  0  0  0
    5.6660   69.9230   65.5800 N   0  0  0  0  0  0  0  0  0  0  0  0
    5.2450   70.0980   66.8390 C   0  0  0  0  0  0  0  0  0  0  0  0
    3.9340   69.7890   67.2580 C   0  0  0  0  0  0  0  0  0  0  0  0
    3.5890   70.0030   68.6140 C   0  0  0  0  0  0  0  0  0  0  0  0
    4.5070   70.5240   69.5250 C   0  0  0  0  0  0  0  0  0  0  0  0
    5.7890   70.8310   69.0980 C   0  0  0  0  0  0  0  0  0  0  0  0
    6.1430   70.6120   67.7650 C   0  0  0  0  0  0  0  0  0  0  0  0
    1.7014   67.4773   70.3033 H   0  0  0  0  0  0  0  0  0  0  0  0
    2.2008   66.2453   69.0496 H   0  0  0  0  0  0  0  0  0  0  0  0
   -0.0822   66.2042   70.9938 H   0  0  0  0  0  0  0  0  0  0  0  0
   -0.2614   65.4124   69.3622 H   0  0  0  0  0  0  0  0  0  0  0  0
    1.0220   64.4074   71.7234 H   0  0  0  0  0  0  0  0  0  0  0  0
    0.8044   63.6434   70.0775 H   0  0  0  0  0  0  0  0  0  0  0  0
    2.8740   64.7617   69.3227 H   0  0  0  0  0  0  0  0  0  0  0  0
    3.1111   65.3614   71.0281 H   0  0  0  0  0  0  0  0  0  0  0  0
    4.0698   62.9573   69.9338 H   0  0  0  0  0  0  0  0  0  0  0  0
    4.0267   63.4397   71.6680 H   0  0  0  0  0  0  0  0  0  0  0  0
    1.8550   62.4816   71.8529 H   0  0  0  0  0  0  0  0  0  0  0  0
    1.8752   62.0763   70.1786 H   0  0  0  0  0  0  0  0  0  0  0  0
    3.2441   60.3418   70.3982 H   0  0  0  0  0  0  0  0  0  0  0  0
    3.9033   61.0048   71.9633 H   0  0  0  0  0  0  0  0  0  0  0  0
    2.9278   57.9288   72.2948 H   0  0  0  0  0  0  0  0  0  0  0  0
   -1.4951   60.7862   73.8621 H   0  0  0  0  0  0  0  0  0  0  0  0
   -2.4981   58.7999   75.0428 H   0  0  0  0  0  0  0  0  0  0  0  0
   -1.3155   56.6213   75.0779 H   0  0  0  0  0  0  0  0  0  0  0  0
    0.8949   56.3427   73.9337 H   0  0  0  0  0  0  0  0  0  0  0  0
   -0.3023   67.1893   68.2187 H   0  0  0  0  0  0  0  0  0  0  0  0
    0.6623   68.6522   68.7682 H   0  0  0  0  0  0  0  0  0  0  0  0
    2.4338   67.1497   67.2049 H   0  0  0  0  0  0  0  0  0  0  0  0
    0.8748   67.1140   66.3097 H   0  0  0  0  0  0  0  0  0  0  0  0
    0.9289   69.7527   66.6250 H   0  0  0  0  0  0  0  0  0  0  0  0
    1.7179   68.1250   64.2215 H   0  0  0  0  0  0  0  0  0  0  0  0
    2.3687   69.4760   63.2019 H   0  0  0  0  0  0  0  0  0  0  0  0
    3.3361   66.6156   63.4405 H   0  0  0  0  0  0  0  0  0  0  0  0
    2.8689   67.6058   61.9648 H   0  0  0  0  0  0  0  0  0  0  0  0
    5.4691   67.1526   63.1168 H   0  0  0  0  0  0  0  0  0  0  0  0
    4.9599   68.0119   61.5836 H   0  0  0  0  0  0  0  0  0  0  0  0
    6.3751   69.3458   63.2387 H   0  0  0  0  0  0  0  0  0  0  0  0
    4.8406   70.0906   62.6499 H   0  0  0  0  0  0  0  0  0  0  0  0
    2.5741   69.7527   68.9567 H   0  0  0  0  0  0  0  0  0  0  0  0
    4.2163   70.6898   70.5729 H   0  0  0  0  0  0  0  0  0  0  0  0
    6.5234   71.2447   69.8047 H   0  0  0  0  0  0  0  0  0  0  0  0
    7.1651   70.8542   67.4384 H   0  0  0  0  0  0  0  0  0  0  0  0
  2  1  1  0
  3  2  1  0
  4  3  1  0
  5  4  1  0
  6  5  1  0
  7  6  1  0
  8  7  1  0
  9  8  2  0
 10  9  1  0
 11 10  2  0
 12 11  1  0
 12  8  1  0
 13 11  1  0
 14 13  2  0
 15 14  1  0
 16 10  1  0
 16 15  2  0
 17  1  1  0
 18 17  1  0
 19 18  1  0
 20 19  1  0
 21 20  1  0
 22 21  1  0
 23 22  1  0
 24 23  1  0
 25 24  1  0
 26 25  1  0
 26 21  2  0
 27 26  1  0
 28 27  2  0
 29 28  1  0
 29 20  2  0
 30 29  1  0
 31 30  2  0
 32 31  1  0
 33 32  2  0
 33 28  1  0
  1 34  1  0
  1 35  1  0
  2 36  1  0
  2 37  1  0
  3 38  1  0
  3 39  1  0
  4 40  1  0
  4 41  1  0
  5 42  1  0
  5 43  1  0
  6 44  1  0
  6 45  1  0
  7 46  1  0
  7 47  1  0
  9 48  1  0
 13 49  1  0
 14 50  1  0
 15 51  1  0
 16 52  1  0
 17 53  1  0
 17 54  1  0
 18 55  1  0
 18 56  1  0
 19 57  1  0
 22 58  1  0
 22 59  1  0
 23 60  1  0
 23 61  1  0
 24 62  1  0
 24 63  1  0
 25 64  1  0
 25 65  1  0
 30 66  1  0
 31 67  1  0
 32 68  1  0
 33 69  1  0
M  CHG  1   6   1
M  END
>  <score>  (7) 
-10.536

$$$$
=
     RDKit          3D

 69 73  0  0  0  0  0  0  0  0999 V2000
    4.6300   66.7960   62.5640 C   0  0  0  0  0  0  0  0  0  0  0  0
    3.7600   65.7270   63.2310 C   0  0  0  0  0  0  0  0  0  0  0  0
    4.5320   64.8780   64.2480 C   0  0  0  0  0  0  0  0  0  0  0  0
    3.6270   64.0380   65.1560 C   0  0  0  0  0  0  0  0  0  0  0  0
    4.3670   63.4480   66.3550 C   0  0  0  0  0  0  0  0  0  0  0  0
    3.3880   63.0560   67.4170 N   0  0  0  0  0  4  0  0  0  0  0  0
    3.9300   63.0620   68.8150 C   0  0  0  0  0  0  0  0  0  0  0  0
    3.6310   61.8170   69.5550 C   0  0  0  0  0  0  0  0  0  0  0  0
    4.0420   60.5070   69.4230 C   0  0  0  0  0  0  0  0  0  0  0  0
    3.4030   59.7750   70.4610 C   0  0  0  0  0  0  0  0  0  0  0  0
    2.6350   60.7000   71.1600 C   0  0  0  0  0  0  0  0  0  0  0  0
    2.7770   61.9380   70.6110 O   0  0  0  0  0  0  0  0  0  0  0  0
    1.8440   60.3870   72.2610 C   0  0  0  0  0  0  0  0  0  0  0  0
    1.8430   59.0480   72.6640 C   0  0  0  0  0  0  0  0  0  0  0  0
    2.6010   58.0880   71.9890 C   0  0  0  0  0  0  0  0  0  0  0  0
    3.3880   58.4350   70.8810 C   0  0  0  0  0  0  0  0  0  0  0  0
    3.8700   68.0890   62.2390 C   0  0  0  0  0  0  0  0  0  0  0  0
    3.7510   69.0720   63.4090 C   0  0  0  0  0  0  0  0  0  0  0  0
    4.4120   68.5110   64.5980 N   0  0  0  0  0  0  0  0  0  0  0  0
    3.8130   69.0010   65.7990 C   0  0  0  0  0  0  0  0  0  0  0  0
    2.4870   68.6870   66.1320 C   0  0  0  0  0  0  0  0  0  0  0  0
    1.5460   67.8580   65.2950 C   0  0  0  0  0  0  0  0  0  0  0  0
    0.1330   68.4520   65.2710 C   0  0  0  0  0  0  0  0  0  0  0  0
   -0.3630   68.9870   66.6200 C   0  0  0  0  0  0  0  0  0  0  0  0
    0.6040   68.7450   67.7740 C   0  0  0  0  0  0  0  0  0  0  0  0
    2.0090   69.1160   67.3730 C   0  0  0  0  0  0  0  0  0  0  0  0
    2.7440   69.8150   68.2640 N   0  0  0  0  0  0  0  0  0  0  0  0
    4.0090   70.1190   67.9460 C   0  0  0  0  0  0  0  0  0  0  0  0
    4.6040   69.7370   66.7250 C   0  0  0  0  0  0  0  0  0  0  0  0
    5.9460   70.1130   66.4800 C   0  0  0  0  0  0  0  0  0  0  0  0
    6.6840   70.8300   67.4200 C   0  0  0  0  0  0  0  0  0  0  0  0
    6.0900   71.1910   68.6190 C   0  0  0  0  0  0  0  0  0  0  0  0
    4.7620   70.8350   68.8660 C   0  0  0  0  0  0  0  0  0  0  0  0
    5.4607   67.0415   63.2419 H   0  0  0  0  0  0  0  0  0  0  0  0
    4.9804   66.3780   61.6088 H   0  0  0  0  0  0  0  0  0  0  0  0
    2.9278   66.2253   63.7497 H   0  0  0  0  0  0  0  0  0  0  0  0
    3.4035   65.0510   62.4399 H   0  0  0  0  0  0  0  0  0  0  0  0
    5.2005   64.1989   63.6985 H   0  0  0  0  0  0  0  0  0  0  0  0
    5.0848   65.5735   64.8966 H   0  0  0  0  0  0  0  0  0  0  0  0
    2.8121   64.6771   65.5268 H   0  0  0  0  0  0  0  0  0  0  0  0
    3.2487   63.1970   64.5564 H   0  0  0  0  0  0  0  0  0  0  0  0
    4.9315   62.5601   66.0340 H   0  0  0  0  0  0  0  0  0  0  0  0
    5.0576   64.2021   66.7605 H   0  0  0  0  0  0  0  0  0  0  0  0
    2.5958   63.7132   67.3790 H   0  0  0  0  0  0  0  0  0  0  0  0
    3.1222   62.0813   67.2165 H   0  0  0  0  0  0  0  0  0  0  0  0
    5.0217   63.1881   68.7674 H   0  0  0  0  0  0  0  0  0  0  0  0
    3.4447   63.8897   69.3530 H   0  0  0  0  0  0  0  0  0  0  0  0
    4.7296   60.1069   68.6633 H   0  0  0  0  0  0  0  0  0  0  0  0
    1.2518   61.1511   72.7858 H   0  0  0  0  0  0  0  0  0  0  0  0
    1.2341   58.7449   73.5285 H   0  0  0  0  0  0  0  0  0  0  0  0
    2.5803   57.0431   72.3320 H   0  0  0  0  0  0  0  0  0  0  0  0
    3.9807   57.6739   70.3524 H   0  0  0  0  0  0  0  0  0  0  0  0
    4.3942   68.5972   61.4162 H   0  0  0  0  0  0  0  0  0  0  0  0
    2.8441   67.7898   61.9784 H   0  0  0  0  0  0  0  0  0  0  0  0
    4.2324   70.0231   63.1377 H   0  0  0  0  0  0  0  0  0  0  0  0
    2.6879   69.2460   63.6316 H   0  0  0  0  0  0  0  0  0  0  0  0
    5.2027   67.8516   64.5683 H   0  0  0  0  0  0  0  0  0  0  0  0
    1.9309   67.8127   64.2655 H   0  0  0  0  0  0  0  0  0  0  0  0
    1.4874   66.8535   65.7394 H   0  0  0  0  0  0  0  0  0  0  0  0
    0.1230   69.2820   64.5492 H   0  0  0  0  0  0  0  0  0  0  0  0
   -0.5439   67.6296   64.9964 H   0  0  0  0  0  0  0  0  0  0  0  0
   -0.5241   70.0710   66.5246 H   0  0  0  0  0  0  0  0  0  0  0  0
   -1.2881   68.4420   66.8590 H   0  0  0  0  0  0  0  0  0  0  0  0
    0.2999   69.3576   68.6355 H   0  0  0  0  0  0  0  0  0  0  0  0
    0.5803   67.6779   68.0398 H   0  0  0  0  0  0  0  0  0  0  0  0
    6.4173   69.8331   65.5263 H   0  0  0  0  0  0  0  0  0  0  0  0
    7.7281   71.1068   67.2122 H   0  0  0  0  0  0  0  0  0  0  0  0
    6.6609   71.7545   69.3717 H   0  0  0  0  0  0  0  0  0  0  0  0
    4.2989   71.1312   69.8188 H   0  0  0  0  0  0  0  0  0  0  0  0
  2  1  1  0
  3  2  1  0
  4  3  1  0
  5  4  1  0
  6  5  1  0
  7  6  1  0
  8  7  1  0
  9  8  2  0
 10  9  1  0
 11 10  2  0
 12 11  1  0
 12  8  1  0
 13 11  1  0
 14 13  2  0
 15 14  1  0
 16 10  1  0
 16 15  2  0
 17  1  1  0
 18 17  1  0
 19 18  1  0
 20 19  1  0
 21 20  1  0
 22 21  1  0
 23 22  1  0
 24 23  1  0
 25 24  1  0
 26 25  1  0
 26 21  2  0
 27 26  1  0
 28 27  2  0
 29 28  1  0
 29 20  2  0
 30 29  1  0
 31 30  2  0
 32 31  1  0
 33 32  2  0
 33 28  1  0
  1 34  1  0
  1 35  1  0
  2 36  1  0
  2 37  1  0
  3 38  1  0
  3 39  1  0
  4 40  1  0
  4 41  1  0
  5 42  1  0
  5 43  1  0
  6 44  1  0
  6 45  1  0
  7 46  1  0
  7 47  1  0
  9 48  1  0
 13 49  1  0
 14 50  1  0
 15 51  1  0
 16 52  1  0
 17 53  1  0
 17 54  1  0
 18 55  1  0
 18 56  1  0
 19 57  1  0
 22 58  1  0
 22 59  1  0
 23 60  1  0
 23 61  1  0
 24 62  1  0
 24 63  1  0
 25 64  1  0
 25 65  1  0
 30 66  1  0
 31 67  1  0
 32 68  1  0
 33 69  1  0
M  CHG  1   6   1
M  END
>  <score>  (8) 
-10.388

$$$$
=
     RDKit          3D

 69 73  0  0  0  0  0  0  0  0999 V2000
    3.8200   63.9460   66.2740 C   0  0  0  0  0  0  0  0  0  0  0  0
    4.0240   63.5470   64.8100 C   0  0  0  0  0  0  0  0  0  0  0  0
    4.7140   64.6390   63.9840 C   0  0  0  0  0  0  0  0  0  0  0  0
    3.8490   65.8850   63.7730 C   0  0  0  0  0  0  0  0  0  0  0  0
    4.4020   66.8230   62.7020 C   0  0  0  0  0  0  0  0  0  0  0  0
    3.9030   68.2150   62.9330 N   0  0  0  0  0  4  0  0  0  0  0  0
    3.1380   68.4130   64.2070 C   0  0  0  0  0  0  0  0  0  0  0  0
    3.9530   69.0200   65.2810 C   0  0  0  0  0  0  0  0  0  0  0  0
    5.2770   69.3960   65.3770 C   0  0  0  0  0  0  0  0  0  0  0  0
    5.4520   69.9360   66.6800 C   0  0  0  0  0  0  0  0  0  0  0  0
    4.2080   69.8470   67.2980 C   0  0  0  0  0  0  0  0  0  0  0  0
    3.3000   69.2940   66.4460 O   0  0  0  0  0  0  0  0  0  0  0  0
    3.9480   70.2700   68.5970 C   0  0  0  0  0  0  0  0  0  0  0  0
    5.0270   70.8140   69.3020 C   0  0  0  0  0  0  0  0  0  0  0  0
    6.2920   70.9210   68.7170 C   0  0  0  0  0  0  0  0  0  0  0  0
    6.5230   70.4850   67.4040 C   0  0  0  0  0  0  0  0  0  0  0  0
    3.8770   62.7600   67.2460 C   0  0  0  0  0  0  0  0  0  0  0  0
    3.4460   63.0870   68.6810 C   0  0  0  0  0  0  0  0  0  0  0  0
    2.2240   62.3370   69.0140 N   0  0  0  0  0  0  0  0  0  0  0  0
    2.1970   61.9860   70.3980 C   0  0  0  0  0  0  0  0  0  0  0  0
    2.8860   60.8610   70.8770 C   0  0  0  0  0  0  0  0  0  0  0  0
    3.6820   59.8960   70.0350 C   0  0  0  0  0  0  0  0  0  0  0  0
    3.4480   58.4430   70.4610 C   0  0  0  0  0  0  0  0  0  0  0  0
    3.3910   58.2180   71.9780 C   0  0  0  0  0  0  0  0  0  0  0  0
    3.6740   59.4720   72.7990 C   0  0  0  0  0  0  0  0  0  0  0  0
    2.8980   60.6440   72.2580 C   0  0  0  0  0  0  0  0  0  0  0  0
    2.2860   61.4500   73.1530 N   0  0  0  0  0  0  0  0  0  0  0  0
    1.6260   62.5220   72.6970 C   0  0  0  0  0  0  0  0  0  0  0  0
    1.5470   62.8460   71.3260 C   0  0  0  0  0  0  0  0  0  0  0  0
    0.8180   63.9980   70.9450 C   0  0  0  0  0  0  0  0  0  0  0  0
    0.2000   64.8150   71.8910 C   0  0  0  0  0  0  0  0  0  0  0  0
    0.2940   64.4890   73.2340 C   0  0  0  0  0  0  0  0  0  0  0  0
    1.0000   63.3480   73.6200 C   0  0  0  0  0  0  0  0  0  0  0  0
    4.6070   64.6623   66.5524 H   0  0  0  0  0  0  0  0  0  0  0  0
    2.8127   64.3807   66.3532 H   0  0  0  0  0  0  0  0  0  0  0  0
    4.6429   62.6383   64.7770 H   0  0  0  0  0  0  0  0  0  0  0  0
    3.0289   63.3810   64.3716 H   0  0  0  0  0  0  0  0  0  0  0  0
    5.6354   64.9391   64.5045 H   0  0  0  0  0  0  0  0  0  0  0  0
    4.9155   64.2134   62.9899 H   0  0  0  0  0  0  0  0  0  0  0  0
    2.8409   65.5645   63.4712 H   0  0  0  0  0  0  0  0  0  0  0  0
    3.8371   66.4410   64.7221 H   0  0  0  0  0  0  0  0  0  0  0  0
    5.5011   66.8181   62.7459 H   0  0  0  0  0  0  0  0  0  0  0  0
    4.0664   66.4788   61.7126 H   0  0  0  0  0  0  0  0  0  0  0  0
    4.7161   68.8472   62.9475 H   0  0  0  0  0  0  0  0  0  0  0  0
    3.2426   68.4137   62.1680 H   0  0  0  0  0  0  0  0  0  0  0  0
    2.2808   69.0714   64.0026 H   0  0  0  0  0  0  0  0  0  0  0  0
    2.8185   67.4203   64.5570 H   0  0  0  0  0  0  0  0  0  0  0  0
    6.0467   69.2972   64.5974 H   0  0  0  0  0  0  0  0  0  0  0  0
    2.9477   70.1816   69.0460 H   0  0  0  0  0  0  0  0  0  0  0  0
    4.8774   71.1635   70.3342 H   0  0  0  0  0  0  0  0  0  0  0  0
    7.1205   71.3546   69.2963 H   0  0  0  0  0  0  0  0  0  0  0  0
    7.5217   70.5712   66.9510 H   0  0  0  0  0  0  0  0  0  0  0  0
    3.2159   61.9695   66.8613 H   0  0  0  0  0  0  0  0  0  0  0  0
    4.9319   62.4530   67.3005 H   0  0  0  0  0  0  0  0  0  0  0  0
    4.2494   62.8052   69.3775 H   0  0  0  0  0  0  0  0  0  0  0  0
    3.2463   64.1655   68.7651 H   0  0  0  0  0  0  0  0  0  0  0  0
    1.4853   62.0969   68.3376 H   0  0  0  0  0  0  0  0  0  0  0  0
    3.3831   60.0112   68.9827 H   0  0  0  0  0  0  0  0  0  0  0  0
    4.7496   60.1244   70.1698 H   0  0  0  0  0  0  0  0  0  0  0  0
    2.4927   58.1096   70.0295 H   0  0  0  0  0  0  0  0  0  0  0  0
    4.3130   57.8701   70.0954 H   0  0  0  0  0  0  0  0  0  0  0  0
    2.3858   57.8540   72.2368 H   0  0  0  0  0  0  0  0  0  0  0  0
    4.1791   57.4908   72.2231 H   0  0  0  0  0  0  0  0  0  0  0  0
    3.3796   59.2944   73.8439 H   0  0  0  0  0  0  0  0  0  0  0  0
    4.7486   59.6999   72.7408 H   0  0  0  0  0  0  0  0  0  0  0  0
    0.7372   64.2545   69.8784 H   0  0  0  0  0  0  0  0  0  0  0  0
   -0.3565   65.7093   71.5740 H   0  0  0  0  0  0  0  0  0  0  0  0
   -0.1851   65.1257   73.9924 H   0  0  0  0  0  0  0  0  0  0  0  0
    1.0620   63.0959   74.6889 H   0  0  0  0  0  0  0  0  0  0  0  0
  2  1  1  0
  3  2  1  0
  4  3  1  0
  5  4  1  0
  6  5  1  0
  7  6  1  0
  8  7  1  0
  9  8  2  0
 10  9  1  0
 11 10  2  0
 12 11  1  0
 12  8  1  0
 13 11  1  0
 14 13  2  0
 15 14  1  0
 16 10  1  0
 16 15  2  0
 17  1  1  0
 18 17  1  0
 19 18  1  0
 20 19  1  0
 21 20  1  0
 22 21  1  0
 23 22  1  0
 24 23  1  0
 25 24  1  0
 26 25  1  0
 26 21  2  0
 27 26  1  0
 28 27  2  0
 29 28  1  0
 29 20  2  0
 30 29  1  0
 31 30  2  0
 32 31  1  0
 33 32  2  0
 33 28  1  0
  1 34  1  0
  1 35  1  0
  2 36  1  0
  2 37  1  0
  3 38  1  0
  3 39  1  0
  4 40  1  0
  4 41  1  0
  5 42  1  0
  5 43  1  0
  6 44  1  0
  6 45  1  0
  7 46  1  0
  7 47  1  0
  9 48  1  0
 13 49  1  0
 14 50  1  0
 15 51  1  0
 16 52  1  0
 17 53  1  0
 17 54  1  0
 18 55  1  0
 18 56  1  0
 19 57  1  0
 22 58  1  0
 22 59  1  0
 23 60  1  0
 23 61  1  0
 24 62  1  0
 24 63  1  0
 25 64  1  0
 25 65  1  0
 30 66  1  0
 31 67  1  0
 32 68  1  0
 33 69  1  0
M  CHG  1   6   1
M  END
>  <score>  (9) 
-10.106

$$$$
