=
     RDKit          3D

 36 36  0  0  0  0  0  0  0  0999 V2000
    1.0620   69.3420   68.0260 O   0  0  0  0  0  0  0  0  0  0  0  0
    2.1560   69.4300   67.4860 C   0  0  0  0  0  0  0  0  0  0  0  0
    2.3500   68.9300   66.1140 C   0  0  0  0  0  0  0  0  0  0  0  0
    3.5410   69.0160   65.5000 C   0  0  0  0  0  0  0  0  0  0  0  0
    4.6680   69.6170   66.2090 C   0  0  0  0  0  0  0  0  0  0  0  0
    4.6550   70.1180   67.4600 C   0  0  0  0  0  0  0  0  0  0  0  0
    3.3490   70.0500   68.1970 C   0  0  0  0  0  0  0  0  0  0  0  0
    3.2090   70.4710   69.3370 O   0  0  0  0  0  0  0  0  0  0  0  0
    5.8700   70.7450   68.1750 C   0  0  0  0  0  0  0  0  0  0  0  0
    5.8330   72.2840   68.0590 C   0  0  0  0  0  0  0  0  0  0  0  0
    7.1880   70.2070   67.5780 C   0  0  0  0  0  0  0  0  0  0  0  0
    5.9150   70.4240   69.6920 C   0  0  0  0  0  0  0  0  0  0  0  0
    3.7930   68.5040   64.0570 C   0  0  0  0  0  0  0  0  0  0  0  0
    4.0840   66.9870   64.0690 C   0  0  0  0  0  0  0  0  0  0  0  0
    4.9870   69.2520   63.4240 C   0  0  0  0  0  0  0  0  0  0  0  0
    2.5840   68.7170   63.1120 C   0  0  0  0  0  0  0  0  0  0  0  0
    1.5012   68.4766   65.5812 H   0  0  0  0  0  0  0  0  0  0  0  0
    5.6239   69.6655   65.6669 H   0  0  0  0  0  0  0  0  0  0  0  0
    5.8223   72.7274   69.0656 H   0  0  0  0  0  0  0  0  0  0  0  0
    6.7230   72.6322   67.5144 H   0  0  0  0  0  0  0  0  0  0  0  0
    4.9273   72.5890   67.5144 H   0  0  0  0  0  0  0  0  0  0  0  0
    7.8724   69.9276   68.3926 H   0  0  0  0  0  0  0  0  0  0  0  0
    6.9760   69.3235   66.9580 H   0  0  0  0  0  0  0  0  0  0  0  0
    7.6548   70.9865   66.9580 H   0  0  0  0  0  0  0  0  0  0  0  0
    5.7848   71.3525   70.2673 H   0  0  0  0  0  0  0  0  0  0  0  0
    5.1066   69.7212   69.9422 H   0  0  0  0  0  0  0  0  0  0  0  0
    6.8855   69.9706   69.9422 H   0  0  0  0  0  0  0  0  0  0  0  0
    4.1516   66.6348   65.1089 H   0  0  0  0  0  0  0  0  0  0  0  0
    3.2718   66.4537   63.5533 H   0  0  0  0  0  0  0  0  0  0  0  0
    5.0359   66.7922   63.5533 H   0  0  0  0  0  0  0  0  0  0  0  0
    5.6306   69.6552   64.2197 H   0  0  0  0  0  0  0  0  0  0  0  0
    5.5672   68.5556   62.8007 H   0  0  0  0  0  0  0  0  0  0  0  0
    4.6135   70.0779   62.8007 H   0  0  0  0  0  0  0  0  0  0  0  0
    1.6748   68.8772   63.7101 H   0  0  0  0  0  0  0  0  0  0  0  0
    2.7652   69.5971   62.4774 H   0  0  0  0  0  0  0  0  0  0  0  0
    2.4535   67.8280   62.4774 H   0  0  0  0  0  0  0  0  0  0  0  0
  2  1  2  0
  3  2  1  0
  4  3  2  0
  5  4  1  0
  6  5  2  0
  7  6  1  0
  7  2  1  0
  8  7  2  0
  9  6  1  0
 10  9  1  0
 11  9  1  0
 12  9  1  0
 13  4  1  0
 14 13  1  0
 15 13  1  0
 16 13  1  0
  3 17  1  0
  5 18  1  0
 10 19  1  0
 10 20  1  0
 10 21  1  0
 11 22  1  0
 11 23  1  0
 11 24  1  0
 12 25  1  0
 12 26  1  0
 12 27  1  0
 14 28  1  0
 14 29  1  0
 14 30  1  0
 15 31  1  0
 15 32  1  0
 15 33  1  0
 16 34  1  0
 16 35  1  0
 16 36  1  0
M  END
>  <score>  (1) 
-8.593

$$$$
=
     RDKit          3D

 36 36  0  0  0  0  0  0  0  0999 V2000
    5.5470   70.4220   67.2890 O   0  0  0  0  0  0  0  0  0  0  0  0
    4.6480   69.8570   66.6800 C   0  0  0  0  0  0  0  0  0  0  0  0
    4.8390   69.4560   65.2760 C   0  0  0  0  0  0  0  0  0  0  0  0
    3.8680   68.8350   64.5880 C   0  0  0  0  0  0  0  0  0  0  0  0
    2.5950   68.5510   65.2470 C   0  0  0  0  0  0  0  0  0  0  0  0
    2.2640   68.8520   66.5180 C   0  0  0  0  0  0  0  0  0  0  0  0
    3.3120   69.5480   67.3370 C   0  0  0  0  0  0  0  0  0  0  0  0
    3.1330   69.8730   68.5030 O   0  0  0  0  0  0  0  0  0  0  0  0
    0.9060   68.5350   67.1770 C   0  0  0  0  0  0  0  0  0  0  0  0
    1.0990   67.6260   68.4090 C   0  0  0  0  0  0  0  0  0  0  0  0
   -0.0410   67.8530   66.1670 C   0  0  0  0  0  0  0  0  0  0  0  0
    0.1660   69.8010   67.6820 C   0  0  0  0  0  0  0  0  0  0  0  0
    4.0230   68.3930   63.1080 C   0  0  0  0  0  0  0  0  0  0  0  0
    5.1980   69.1450   62.4440 C   0  0  0  0  0  0  0  0  0  0  0  0
    2.7220   68.6770   62.3260 C   0  0  0  0  0  0  0  0  0  0  0  0
    4.3170   66.8810   62.9480 C   0  0  0  0  0  0  0  0  0  0  0  0
    5.7976   69.6699   64.7806 H   0  0  0  0  0  0  0  0  0  0  0  0
    1.8296   68.0398   64.6446 H   0  0  0  0  0  0  0  0  0  0  0  0
    0.9729   68.2199   69.3262 H   0  0  0  0  0  0  0  0  0  0  0  0
    0.3523   66.8185   68.3895 H   0  0  0  0  0  0  0  0  0  0  0  0
    2.1094   67.1916   68.3895 H   0  0  0  0  0  0  0  0  0  0  0  0
   -0.8167   67.2944   66.7112 H   0  0  0  0  0  0  0  0  0  0  0  0
   -0.5155   68.6181   65.5350 H   0  0  0  0  0  0  0  0  0  0  0  0
    0.5343   67.1605   65.5350 H   0  0  0  0  0  0  0  0  0  0  0  0
    0.1615   69.8088   68.7820 H   0  0  0  0  0  0  0  0  0  0  0  0
    0.6812   70.6993   67.3111 H   0  0  0  0  0  0  0  0  0  0  0  0
   -0.8696   69.7928   67.3111 H   0  0  0  0  0  0  0  0  0  0  0  0
    5.8523   69.5637   63.2228 H   0  0  0  0  0  0  0  0  0  0  0  0
    5.7733   68.4469   61.8182 H   0  0  0  0  0  0  0  0  0  0  0  0
    4.8050   69.9598   61.8182 H   0  0  0  0  0  0  0  0  0  0  0  0
    1.9000   68.8564   63.0346 H   0  0  0  0  0  0  0  0  0  0  0  0
    2.8612   69.5659   61.6932 H   0  0  0  0  0  0  0  0  0  0  0  0
    2.4781   67.8109   61.6932 H   0  0  0  0  0  0  0  0  0  0  0  0
    4.4071   66.4178   63.9417 H   0  0  0  0  0  0  0  0  0  0  0  0
    3.4948   66.4042   62.3943 H   0  0  0  0  0  0  0  0  0  0  0  0
    5.2580   66.7470   62.3943 H   0  0  0  0  0  0  0  0  0  0  0  0
  2  1  2  0
  3  2  1  0
  4  3  2  0
  5  4  1  0
  6  5  2  0
  7  6  1  0
  7  2  1  0
  8  7  2  0
  9  6  1  0
 10  9  1  0
 11  9  1  0
 12  9  1  0
 13  4  1  0
 14 13  1  0
 15 13  1  0
 16 13  1  0
  3 17  1  0
  5 18  1  0
 10 19  1  0
 10 20  1  0
 10 21  1  0
 11 22  1  0
 11 23  1  0
 11 24  1  0
 12 25  1  0
 12 26  1  0
 12 27  1  0
 14 28  1  0
 14 29  1  0
 14 30  1  0
 15 31  1  0
 15 32  1  0
 15 33  1  0
 16 34  1  0
 16 35  1  0
 16 36  1  0
M  END
>  <score>  (2) 
-8.478

$$$$
=
     RDKit          3D

 36 36  0  0  0  0  0  0  0  0999 V2000
    1.1060   69.0380   67.9010 O   0  0  0  0  0  0  0  0  0  0  0  0
    2.1820   69.2050   67.3430 C   0  0  0  0  0  0  0  0  0  0  0  0
    3.2930   69.8600   68.0540 C   0  0  0  0  0  0  0  0  0  0  0  0
    4.4830   70.0550   67.4640 C   0  0  0  0  0  0  0  0  0  0  0  0
    4.6780   69.6080   66.0860 C   0  0  0  0  0  0  0  0  0  0  0  0
    3.7670   68.9970   65.3030 C   0  0  0  0  0  0  0  0  0  0  0  0
    2.4170   68.7520   65.9110 C   0  0  0  0  0  0  0  0  0  0  0  0
    1.5060   68.2060   65.3020 O   0  0  0  0  0  0  0  0  0  0  0  0
    4.0140   68.5410   63.8500 C   0  0  0  0  0  0  0  0  0  0  0  0
    4.2580   67.0180   63.7940 C   0  0  0  0  0  0  0  0  0  0  0  0
    5.2210   69.2880   63.2440 C   0  0  0  0  0  0  0  0  0  0  0  0
    2.8110   68.8240   62.9130 C   0  0  0  0  0  0  0  0  0  0  0  0
    5.6820   70.7390   68.1720 C   0  0  0  0  0  0  0  0  0  0  0  0
    7.0150   70.2390   67.5720 C   0  0  0  0  0  0  0  0  0  0  0  0
    5.6540   70.4360   69.6860 C   0  0  0  0  0  0  0  0  0  0  0  0
    5.6810   72.2810   68.0260 C   0  0  0  0  0  0  0  0  0  0  0  0
    3.1446   70.1966   69.0907 H   0  0  0  0  0  0  0  0  0  0  0  0
    5.6686   69.7886   65.6433 H   0  0  0  0  0  0  0  0  0  0  0  0
    4.3219   66.6190   64.8171 H   0  0  0  0  0  0  0  0  0  0  0  0
    3.4262   66.5327   63.2625 H   0  0  0  0  0  0  0  0  0  0  0  0
    5.1998   66.8168   63.2625 H   0  0  0  0  0  0  0  0  0  0  0  0
    5.8540   69.6798   64.0538 H   0  0  0  0  0  0  0  0  0  0  0  0
    5.8073   68.5946   62.6231 H   0  0  0  0  0  0  0  0  0  0  0  0
    4.8620   70.1220   62.6231 H   0  0  0  0  0  0  0  0  0  0  0  0
    1.9167   69.0344   63.5179 H   0  0  0  0  0  0  0  0  0  0  0  0
    3.0372   69.6934   62.2783 H   0  0  0  0  0  0  0  0  0  0  0  0
    2.6259   67.9449   62.2783 H   0  0  0  0  0  0  0  0  0  0  0  0
    7.7085   69.9789   68.3853 H   0  0  0  0  0  0  0  0  0  0  0  0
    6.8274   69.3501   66.9518 H   0  0  0  0  0  0  0  0  0  0  0  0
    7.4582   71.0320   66.9518 H   0  0  0  0  0  0  0  0  0  0  0  0
    5.7409   71.3765   70.2498 H   0  0  0  0  0  0  0  0  0  0  0  0
    4.7062   69.9405   69.9433 H   0  0  0  0  0  0  0  0  0  0  0  0
    6.4949   69.7752   69.9433 H   0  0  0  0  0  0  0  0  0  0  0  0
    5.6807   72.7438   69.0239 H   0  0  0  0  0  0  0  0  0  0  0  0
    6.5789   72.5977   67.4752 H   0  0  0  0  0  0  0  0  0  0  0  0
    4.7827   72.5966   67.4752 H   0  0  0  0  0  0  0  0  0  0  0  0
  2  1  2  0
  3  2  1  0
  4  3  2  0
  5  4  1  0
  6  5  2  0
  7  6  1  0
  7  2  1  0
  8  7  2  0
  9  6  1  0
 10  9  1  0
 11  9  1  0
 12  9  1  0
 13  4  1  0
 14 13  1  0
 15 13  1  0
 16 13  1  0
  3 17  1  0
  5 18  1  0
 10 19  1  0
 10 20  1  0
 10 21  1  0
 11 22  1  0
 11 23  1  0
 11 24  1  0
 12 25  1  0
 12 26  1  0
 12 27  1  0
 14 28  1  0
 14 29  1  0
 14 30  1  0
 15 31  1  0
 15 32  1  0
 15 33  1  0
 16 34  1  0
 16 35  1  0
 16 36  1  0
M  END
>  <score>  (3) 
-8.404

$$$$
=
     RDKit          3D

 36 36  0  0  0  0  0  0  0  0999 V2000
   -0.0870   68.8760   62.0340 O   0  0  0  0  0  0  0  0  0  0  0  0
    0.5980   68.7780   63.0430 C   0  0  0  0  0  0  0  0  0  0  0  0
    2.0680   68.7740   62.9470 C   0  0  0  0  0  0  0  0  0  0  0  0
    2.8390   68.6680   64.0400 C   0  0  0  0  0  0  0  0  0  0  0  0
    2.2070   68.5550   65.3530 C   0  0  0  0  0  0  0  0  0  0  0  0
    0.8840   68.5430   65.6090 C   0  0  0  0  0  0  0  0  0  0  0  0
   -0.0290   68.6580   64.4230 C   0  0  0  0  0  0  0  0  0  0  0  0
   -1.2490   68.6600   64.5250 O   0  0  0  0  0  0  0  0  0  0  0  0
    0.2560   68.4200   67.0120 C   0  0  0  0  0  0  0  0  0  0  0  0
   -0.6430   69.6390   67.3120 C   0  0  0  0  0  0  0  0  0  0  0  0
    1.3540   68.3020   68.0900 C   0  0  0  0  0  0  0  0  0  0  0  0
   -0.6440   67.1670   67.1670 C   0  0  0  0  0  0  0  0  0  0  0  0
    4.3900   68.6590   63.9890 C   0  0  0  0  0  0  0  0  0  0  0  0
    4.9240   67.2170   64.1350 C   0  0  0  0  0  0  0  0  0  0  0  0
    4.9690   69.5390   65.1190 C   0  0  0  0  0  0  0  0  0  0  0  0
    4.9620   69.2110   62.6590 C   0  0  0  0  0  0  0  0  0  0  0  0
    2.5434   68.8597   61.9588 H   0  0  0  0  0  0  0  0  0  0  0  0
    2.8791   68.4713   66.2197 H   0  0  0  0  0  0  0  0  0  0  0  0
   -0.7369   69.7663   68.4006 H   0  0  0  0  0  0  0  0  0  0  0  0
   -0.1934   70.5426   66.8746 H   0  0  0  0  0  0  0  0  0  0  0  0
   -1.6391   69.4765   66.8746 H   0  0  0  0  0  0  0  0  0  0  0  0
    0.8946   68.3514   69.0882 H   0  0  0  0  0  0  0  0  0  0  0  0
    1.8791   67.3423   67.9751 H   0  0  0  0  0  0  0  0  0  0  0  0
    2.0710   69.1283   67.9751 H   0  0  0  0  0  0  0  0  0  0  0  0
   -0.7964   66.9549   68.2356 H   0  0  0  0  0  0  0  0  0  0  0  0
   -1.6165   67.3525   66.6877 H   0  0  0  0  0  0  0  0  0  0  0  0
   -0.1576   66.3046   66.6877 H   0  0  0  0  0  0  0  0  0  0  0  0
    5.0167   66.9666   65.2021 H   0  0  0  0  0  0  0  0  0  0  0  0
    4.2255   66.5168   63.6534 H   0  0  0  0  0  0  0  0  0  0  0  0
    5.9100   67.1406   63.6534 H   0  0  0  0  0  0  0  0  0  0  0  0
    4.6895   69.1141   66.0944 H   0  0  0  0  0  0  0  0  0  0  0  0
    6.0652   69.5711   65.0336 H   0  0  0  0  0  0  0  0  0  0  0  0
    4.5646   70.5584   65.0336 H   0  0  0  0  0  0  0  0  0  0  0  0
    5.7379   69.9598   62.8763 H   0  0  0  0  0  0  0  0  0  0  0  0
    5.4008   68.3863   62.0782 H   0  0  0  0  0  0  0  0  0  0  0  0
    4.1534   69.6788   62.0782 H   0  0  0  0  0  0  0  0  0  0  0  0
  2  1  2  0
  3  2  1  0
  4  3  2  0
  5  4  1  0
  6  5  2  0
  7  6  1  0
  7  2  1  0
  8  7  2  0
  9  6  1  0
 10  9  1  0
 11  9  1  0
 12  9  1  0
 13  4  1  0
 14 13  1  0
 15 13  1  0
 16 13  1  0
  3 17  1  0
  5 18  1  0
 10 19  1  0
 10 20  1  0
 10 21  1  0
 11 22  1  0
 11 23  1  0
 11 24  1  0
 12 25  1  0
 12 26  1  0
 12 27  1  0
 14 28  1  0
 14 29  1  0
 14 30  1  0
 15 31  1  0
 15 32  1  0
 15 33  1  0
 16 34  1  0
 16 35  1  0
 16 36  1  0
M  END
>  <score>  (4) 
-8.192

$$$$
=
     RDKit          3D

 36 36  0  0  0  0  0  0  0  0999 V2000
    3.8360   58.0130   70.6210 O   0  0  0  0  0  0  0  0  0  0  0  0
    3.3360   59.0900   70.9170 C   0  0  0  0  0  0  0  0  0  0  0  0
    2.2630   59.1600   71.9240 C   0  0  0  0  0  0  0  0  0  0  0  0
    1.7000   60.3300   72.2660 C   0  0  0  0  0  0  0  0  0  0  0  0
    2.1620   61.5590   71.6250 C   0  0  0  0  0  0  0  0  0  0  0  0
    3.1280   61.6640   70.6910 C   0  0  0  0  0  0  0  0  0  0  0  0
    3.7950   60.3870   70.2690 C   0  0  0  0  0  0  0  0  0  0  0  0
    4.6850   60.3510   69.4300 O   0  0  0  0  0  0  0  0  0  0  0  0
    3.5870   62.9840   70.0380 C   0  0  0  0  0  0  0  0  0  0  0  0
    4.9920   63.3780   70.5390 C   0  0  0  0  0  0  0  0  0  0  0  0
    2.5850   64.1180   70.3440 C   0  0  0  0  0  0  0  0  0  0  0  0
    3.6840   62.8940   68.4930 C   0  0  0  0  0  0  0  0  0  0  0  0
    0.5680   60.4530   73.3200 C   0  0  0  0  0  0  0  0  0  0  0  0
   -0.0210   59.0610   73.6400 C   0  0  0  0  0  0  0  0  0  0  0  0
   -0.5530   61.3780   72.7970 C   0  0  0  0  0  0  0  0  0  0  0  0
    1.0470   61.0520   74.6660 C   0  0  0  0  0  0  0  0  0  0  0  0
    1.9157   58.2342   72.4059 H   0  0  0  0  0  0  0  0  0  0  0  0
    1.6718   62.4932   71.9362 H   0  0  0  0  0  0  0  0  0  0  0  0
    5.0016   63.3807   71.6390 H   0  0  0  0  0  0  0  0  0  0  0  0
    5.7306   62.6523   70.1676 H   0  0  0  0  0  0  0  0  0  0  0  0
    5.2455   64.3819   70.1676 H   0  0  0  0  0  0  0  0  0  0  0  0
    2.4831   64.2333   71.4332 H   0  0  0  0  0  0  0  0  0  0  0  0
    2.9520   65.0590   69.9084 H   0  0  0  0  0  0  0  0  0  0  0  0
    1.6059   63.8696   69.9084 H   0  0  0  0  0  0  0  0  0  0  0  0
    4.4644   62.1699   68.2162 H   0  0  0  0  0  0  0  0  0  0  0  0
    2.7173   62.5657   68.0834 H   0  0  0  0  0  0  0  0  0  0  0  0
    3.9391   63.8825   68.0834 H   0  0  0  0  0  0  0  0  0  0  0  0
   -0.0771   58.9285   74.7305 H   0  0  0  0  0  0  0  0  0  0  0  0
   -1.0298   58.9817   73.2086 H   0  0  0  0  0  0  0  0  0  0  0  0
    0.6245   58.2817   73.2086 H   0  0  0  0  0  0  0  0  0  0  0  0
   -1.0900   61.8211   73.6487 H   0  0  0  0  0  0  0  0  0  0  0  0
   -0.1121   62.1786   72.1849 H   0  0  0  0  0  0  0  0  0  0  0  0
   -1.2553   60.7931   72.1849 H   0  0  0  0  0  0  0  0  0  0  0  0
    0.5976   60.4900   75.4980 H   0  0  0  0  0  0  0  0  0  0  0  0
    2.1432   60.9847   74.7279 H   0  0  0  0  0  0  0  0  0  0  0  0
    0.7403   62.1066   74.7279 H   0  0  0  0  0  0  0  0  0  0  0  0
  2  1  2  0
  3  2  1  0
  4  3  2  0
  5  4  1  0
  6  5  2  0
  7  6  1  0
  7  2  1  0
  8  7  2  0
  9  6  1  0
 10  9  1  0
 11  9  1  0
 12  9  1  0
 13  4  1  0
 14 13  1  0
 15 13  1  0
 16 13  1  0
  3 17  1  0
  5 18  1  0
 10 19  1  0
 10 20  1  0
 10 21  1  0
 11 22  1  0
 11 23  1  0
 11 24  1  0
 12 25  1  0
 12 26  1  0
 12 27  1  0
 14 28  1  0
 14 29  1  0
 14 30  1  0
 15 31  1  0
 15 32  1  0
 15 33  1  0
 16 34  1  0
 16 35  1  0
 16 36  1  0
M  END
>  <score>  (5) 
-8.017

$$$$
=
     RDKit          3D

 36 36  0  0  0  0  0  0  0  0999 V2000
    3.8420   58.0120   70.2370 O   0  0  0  0  0  0  0  0  0  0  0  0
    3.4340   59.0580   70.7230 C   0  0  0  0  0  0  0  0  0  0  0  0
    3.7820   60.3500   70.1070 C   0  0  0  0  0  0  0  0  0  0  0  0
    3.3460   61.5100   70.6210 C   0  0  0  0  0  0  0  0  0  0  0  0
    2.5070   61.4910   71.8180 C   0  0  0  0  0  0  0  0  0  0  0  0
    2.1010   60.4000   72.4960 C   0  0  0  0  0  0  0  0  0  0  0  0
    2.5590   59.0720   71.9670 C   0  0  0  0  0  0  0  0  0  0  0  0
    2.2580   58.0090   72.4940 O   0  0  0  0  0  0  0  0  0  0  0  0
    1.2150   60.4220   73.7590 C   0  0  0  0  0  0  0  0  0  0  0  0
   -0.1620   59.7880   73.4660 C   0  0  0  0  0  0  0  0  0  0  0  0
    1.0280   61.8680   74.2650 C   0  0  0  0  0  0  0  0  0  0  0  0
    1.8210   59.6210   74.9400 C   0  0  0  0  0  0  0  0  0  0  0  0
    3.6870   62.8940   70.0080 C   0  0  0  0  0  0  0  0  0  0  0  0
    2.6410   63.9460   70.4420 C   0  0  0  0  0  0  0  0  0  0  0  0
    3.7170   62.8040   68.4660 C   0  0  0  0  0  0  0  0  0  0  0  0
    5.0700   63.4360   70.4490 C   0  0  0  0  0  0  0  0  0  0  0  0
    4.4130   60.3640   69.2061 H   0  0  0  0  0  0  0  0  0  0  0  0
    2.1737   62.4657   72.2039 H   0  0  0  0  0  0  0  0  0  0  0  0
   -0.6678   59.5551   74.4147 H   0  0  0  0  0  0  0  0  0  0  0  0
   -0.7752   60.4944   72.8873 H   0  0  0  0  0  0  0  0  0  0  0  0
   -0.0240   58.8628   72.8873 H   0  0  0  0  0  0  0  0  0  0  0  0
    1.0272   61.8743   75.3650 H   0  0  0  0  0  0  0  0  0  0  0  0
    1.8525   62.4953   73.8953 H   0  0  0  0  0  0  0  0  0  0  0  0
    0.0710   62.2650   73.8953 H   0  0  0  0  0  0  0  0  0  0  0  0
    1.4877   60.0616   75.8912 H   0  0  0  0  0  0  0  0  0  0  0  0
    1.4864   58.5747   74.8834 H   0  0  0  0  0  0  0  0  0  0  0  0
    2.9189   59.6584   74.8834 H   0  0  0  0  0  0  0  0  0  0  0  0
    2.5982   63.9891   71.5403 H   0  0  0  0  0  0  0  0  0  0  0  0
    2.9271   64.9321   70.0473 H   0  0  0  0  0  0  0  0  0  0  0  0
    1.6533   63.6655   70.0473 H   0  0  0  0  0  0  0  0  0  0  0  0
    4.0515   61.8006   68.1637 H   0  0  0  0  0  0  0  0  0  0  0  0
    2.7084   62.9896   68.0682 H   0  0  0  0  0  0  0  0  0  0  0  0
    4.4125   63.5577   68.0682 H   0  0  0  0  0  0  0  0  0  0  0  0
    5.1224   63.4566   71.5476 H   0  0  0  0  0  0  0  0  0  0  0  0
    5.8624   62.7819   70.0563 H   0  0  0  0  0  0  0  0  0  0  0  0
    5.2070   64.4543   70.0563 H   0  0  0  0  0  0  0  0  0  0  0  0
  2  1  2  0
  3  2  1  0
  4  3  2  0
  5  4  1  0
  6  5  2  0
  7  6  1  0
  7  2  1  0
  8  7  2  0
  9  6  1  0
 10  9  1  0
 11  9  1  0
 12  9  1  0
 13  4  1  0
 14 13  1  0
 15 13  1  0
 16 13  1  0
  3 17  1  0
  5 18  1  0
 10 19  1  0
 10 20  1  0
 10 21  1  0
 11 22  1  0
 11 23  1  0
 11 24  1  0
 12 25  1  0
 12 26  1  0
 12 27  1  0
 14 28  1  0
 14 29  1  0
 14 30  1  0
 15 31  1  0
 15 32  1  0
 15 33  1  0
 16 34  1  0
 16 35  1  0
 16 36  1  0
M  END
>  <score>  (6) 
-7.478

$$$$
=
     RDKit          3D

 36 36  0  0  0  0  0  0  0  0999 V2000
    0.0740   64.2420   69.9840 O   0  0  0  0  0  0  0  0  0  0  0  0
    0.5530   63.3110   70.6170 C   0  0  0  0  0  0  0  0  0  0  0  0
   -0.2090   62.6870   71.7130 C   0  0  0  0  0  0  0  0  0  0  0  0
    0.2960   61.6650   72.4220 C   0  0  0  0  0  0  0  0  0  0  0  0
    1.6290   61.1610   72.0990 C   0  0  0  0  0  0  0  0  0  0  0  0
    2.4490   61.6200   71.1330 C   0  0  0  0  0  0  0  0  0  0  0  0
    1.9370   62.7640   70.3060 C   0  0  0  0  0  0  0  0  0  0  0  0
    2.5870   63.2680   69.4000 O   0  0  0  0  0  0  0  0  0  0  0  0
    3.8530   61.0590   70.8240 C   0  0  0  0  0  0  0  0  0  0  0  0
    4.9230   62.1610   70.9800 C   0  0  0  0  0  0  0  0  0  0  0  0
    3.9020   60.4800   69.3950 C   0  0  0  0  0  0  0  0  0  0  0  0
    4.2700   59.9090   71.7760 C   0  0  0  0  0  0  0  0  0  0  0  0
   -0.4680   60.9770   73.5840 C   0  0  0  0  0  0  0  0  0  0  0  0
   -0.0510   61.5910   74.9390 C   0  0  0  0  0  0  0  0  0  0  0  0
   -0.1750   59.4600   73.5940 C   0  0  0  0  0  0  0  0  0  0  0  0
   -2.0070   61.1310   73.4810 C   0  0  0  0  0  0  0  0  0  0  0  0
   -1.2126   63.0665   71.9553 H   0  0  0  0  0  0  0  0  0  0  0  0
    2.0008   60.3221   72.7057 H   0  0  0  0  0  0  0  0  0  0  0  0
    5.1041   62.3475   72.0488 H   0  0  0  0  0  0  0  0  0  0  0  0
    5.8580   61.8346   70.5012 H   0  0  0  0  0  0  0  0  0  0  0  0
    4.5692   63.0860   70.5012 H   0  0  0  0  0  0  0  0  0  0  0  0
    3.9947   59.3851   69.4460 H   0  0  0  0  0  0  0  0  0  0  0  0
    2.9782   60.7453   68.8600 H   0  0  0  0  0  0  0  0  0  0  0  0
    4.7681   60.8968   68.8600 H   0  0  0  0  0  0  0  0  0  0  0  0
    4.1515   60.2358   72.8196 H   0  0  0  0  0  0  0  0  0  0  0  0
    3.6329   59.0314   71.5920 H   0  0  0  0  0  0  0  0  0  0  0  0
    5.3216   59.6437   71.5920 H   0  0  0  0  0  0  0  0  0  0  0  0
   -0.4631   60.9843   75.7588 H   0  0  0  0  0  0  0  0  0  0  0  0
    1.0465   61.6083   75.0115 H   0  0  0  0  0  0  0  0  0  0  0  0
   -0.4395   62.6176   75.0115 H   0  0  0  0  0  0  0  0  0  0  0  0
   -0.1067   59.1066   74.6334 H   0  0  0  0  0  0  0  0  0  0  0  0
   -0.9867   58.9264   73.0778 H   0  0  0  0  0  0  0  0  0  0  0  0
    0.7770   59.2670   73.0778 H   0  0  0  0  0  0  0  0  0  0  0  0
   -2.4396   61.1743   74.4914 H   0  0  0  0  0  0  0  0  0  0  0  0
   -2.2473   62.0577   72.9392 H   0  0  0  0  0  0  0  0  0  0  0  0
   -2.4262   60.2703   72.9392 H   0  0  0  0  0  0  0  0  0  0  0  0
  2  1  2  0
  3  2  1  0
  4  3  2  0
  5  4  1  0
  6  5  2  0
  7  6  1  0
  7  2  1  0
  8  7  2  0
  9  6  1  0
 10  9  1  0
 11  9  1  0
 12  9  1  0
 13  4  1  0
 14 13  1  0
 15 13  1  0
 16 13  1  0
  3 17  1  0
  5 18  1  0
 10 19  1  0
 10 20  1  0
 10 21  1  0
 11 22  1  0
 11 23  1  0
 11 24  1  0
 12 25  1  0
 12 26  1  0
 12 27  1  0
 14 28  1  0
 14 29  1  0
 14 30  1  0
 15 31  1  0
 15 32  1  0
 15 33  1  0
 16 34  1  0
 16 35  1  0
 16 36  1  0
M  END
>  <score>  (7) 
-7.462

$$$$
=
     RDKit          3D

 36 36  0  0  0  0  0  0  0  0999 V2000
   -0.4150   63.5540   71.9980 O   0  0  0  0  0  0  0  0  0  0  0  0
    0.4800   62.7210   71.9330 C   0  0  0  0  0  0  0  0  0  0  0  0
    0.3710   61.4540   72.6750 C   0  0  0  0  0  0  0  0  0  0  0  0
    1.3390   60.5260   72.6190 C   0  0  0  0  0  0  0  0  0  0  0  0
    2.5250   60.7790   71.8030 C   0  0  0  0  0  0  0  0  0  0  0  0
    2.7750   61.8810   71.0690 C   0  0  0  0  0  0  0  0  0  0  0  0
    1.7260   62.9550   71.0930 C   0  0  0  0  0  0  0  0  0  0  0  0
    1.8350   64.0010   70.4690 O   0  0  0  0  0  0  0  0  0  0  0  0
    4.0420   62.1100   70.2200 C   0  0  0  0  0  0  0  0  0  0  0  0
    3.6770   62.2580   68.7280 C   0  0  0  0  0  0  0  0  0  0  0  0
    5.0360   60.9430   70.4030 C   0  0  0  0  0  0  0  0  0  0  0  0
    4.8090   63.4010   70.6110 C   0  0  0  0  0  0  0  0  0  0  0  0
    1.2700   59.1770   73.3820 C   0  0  0  0  0  0  0  0  0  0  0  0
    1.9070   58.0490   72.5400 C   0  0  0  0  0  0  0  0  0  0  0  0
   -0.1980   58.8150   73.7000 C   0  0  0  0  0  0  0  0  0  0  0  0
    2.0250   59.2000   74.7350 C   0  0  0  0  0  0  0  0  0  0  0  0
   -0.5224   61.2640   73.2880 H   0  0  0  0  0  0  0  0  0  0  0  0
    3.2911   59.9898   71.7864 H   0  0  0  0  0  0  0  0  0  0  0  0
    2.6610   62.6700   68.6382 H   0  0  0  0  0  0  0  0  0  0  0  0
    4.3924   62.9371   68.2411 H   0  0  0  0  0  0  0  0  0  0  0  0
    3.7174   61.2724   68.2411 H   0  0  0  0  0  0  0  0  0  0  0  0
    5.1924   60.7594   71.4762 H   0  0  0  0  0  0  0  0  0  0  0  0
    4.6282   60.0367   69.9316 H   0  0  0  0  0  0  0  0  0  0  0  0
    5.9957   61.2014   69.9316 H   0  0  0  0  0  0  0  0  0  0  0  0
    4.8568   63.4814   71.7070 H   0  0  0  0  0  0  0  0  0  0  0  0
    5.8291   63.3596   70.2016 H   0  0  0  0  0  0  0  0  0  0  0  0
    4.2848   64.2771   70.2016 H   0  0  0  0  0  0  0  0  0  0  0  0
    2.3361   57.2892   73.2097 H   0  0  0  0  0  0  0  0  0  0  0  0
    1.1372   57.5857   71.9054 H   0  0  0  0  0  0  0  0  0  0  0  0
    2.7013   58.4690   71.9054 H   0  0  0  0  0  0  0  0  0  0  0  0
   -0.3391   58.7802   74.7904 H   0  0  0  0  0  0  0  0  0  0  0  0
   -0.8650   59.5756   73.2680 H   0  0  0  0  0  0  0  0  0  0  0  0
   -0.4350   57.8315   73.2680 H   0  0  0  0  0  0  0  0  0  0  0  0
    1.2985   59.1779   75.5607 H   0  0  0  0  0  0  0  0  0  0  0  0
    2.6836   58.3215   74.8024 H   0  0  0  0  0  0  0  0  0  0  0  0
    2.6289   60.1170   74.8024 H   0  0  0  0  0  0  0  0  0  0  0  0
  2  1  2  0
  3  2  1  0
  4  3  2  0
  5  4  1  0
  6  5  2  0
  7  6  1  0
  7  2  1  0
  8  7  2  0
  9  6  1  0
 10  9  1  0
 11  9  1  0
 12  9  1  0
 13  4  1  0
 14 13  1  0
 15 13  1  0
 16 13  1  0
  3 17  1  0
  5 18  1  0
 10 19  1  0
 10 20  1  0
 10 21  1  0
 11 22  1  0
 11 23  1  0
 11 24  1  0
 12 25  1  0
 12 26  1  0
 12 27  1  0
 14 28  1  0
 14 29  1  0
 14 30  1  0
 15 31  1  0
 15 32  1  0
 15 33  1  0
 16 34  1  0
 16 35  1  0
 16 36  1  0
M  END
>  <score>  (8) 
-7.016

$$$$
