=
     RDKit          3D

 52 55  0  0  0  0  0  0  0  0999 V2000
    1.7300   68.7220   63.0530 C   0  0  0  0  0  0  0  0  0  0  0  0
    2.8860   68.5580   62.3040 C   0  0  0  0  0  0  0  0  0  0  0  0
    4.1290   68.7180   62.9140 C   0  0  0  0  0  0  0  0  0  0  0  0
    4.2380   69.0250   64.2820 C   0  0  0  0  0  0  0  0  0  0  0  0
    3.0890   69.1650   65.0820 C   0  0  0  0  0  0  0  0  0  0  0  0
    1.8460   69.0130   64.4230 C   0  0  0  0  0  0  0  0  0  0  0  0
    3.1710   69.4750   66.4740 N   0  0  0  0  0  0  0  0  0  0  0  0
    4.3540   69.8860   67.1530 C   0  0  0  0  0  0  0  0  0  0  0  0
    5.6230   69.8170   66.5410 C   0  0  0  0  0  0  0  0  0  0  0  0
    5.8910   69.1620   64.9120 S   0  0  0  0  0  0  0  0  0  0  0  0
    6.7800   70.2410   67.2220 C   0  0  0  0  0  0  0  0  0  0  0  0
    6.7070   70.7510   68.5120 C   0  0  0  0  0  0  0  0  0  0  0  0
    5.4720   70.8440   69.1320 C   0  0  0  0  0  0  0  0  0  0  0  0
    4.3190   70.4210   68.4600 C   0  0  0  0  0  0  0  0  0  0  0  0
    0.0290   69.8540   61.1390 C   0  0  0  0  0  0  0  0  0  0  0  0
    0.0790   68.5390   62.3900 S   0  0  0  0  0  0  0  0  0  0  0  0
    2.0170   69.0790   67.3030 C   0  0  0  0  0  0  0  0  0  0  0  0
    1.5700   67.6380   67.0110 C   0  0  0  0  0  0  0  0  0  0  0  0
    0.0650   67.5200   66.7270 C   0  0  2  0  0  0  0  0  0  0  0  0
   -0.6300   68.8860   66.7820 C   0  0  0  0  0  0  0  0  0  0  0  0
   -2.1170   68.7830   66.4560 C   0  0  0  0  0  0  0  0  0  0  0  0
   -2.8180   67.7470   67.3260 C   0  0  0  0  0  0  0  0  0  0  0  0
   -2.1140   66.4000   67.2790 C   0  0  0  0  0  0  0  0  0  0  0  0
   -0.6480   66.5420   67.6590 N   0  0  2  0  0  4  0  0  0  0  0  0
   -0.4680   66.7760   69.1400 C   0  0  0  0  0  0  0  0  0  0  0  0
    2.8221   68.3034   61.2358 H   0  0  0  0  0  0  0  0  0  0  0  0
    5.0431   68.6018   62.3132 H   0  0  0  0  0  0  0  0  0  0  0  0
    0.9245   69.1284   65.0125 H   0  0  0  0  0  0  0  0  0  0  0  0
    7.7581   70.1672   66.7242 H   0  0  0  0  0  0  0  0  0  0  0  0
    7.6185   71.0769   69.0345 H   0  0  0  0  0  0  0  0  0  0  0  0
    5.3972   71.2499   70.1516 H   0  0  0  0  0  0  0  0  0  0  0  0
    3.3481   70.5086   68.9695 H   0  0  0  0  0  0  0  0  0  0  0  0
   -0.0082   70.8336   61.6380 H   0  0  0  0  0  0  0  0  0  0  0  0
    0.9300   69.7967   60.5105 H   0  0  0  0  0  0  0  0  0  0  0  0
   -0.8650   69.7284   60.5105 H   0  0  0  0  0  0  0  0  0  0  0  0
    2.2978   69.1563   68.3637 H   0  0  0  0  0  0  0  0  0  0  0  0
    1.1793   69.7509   67.0648 H   0  0  0  0  0  0  0  0  0  0  0  0
    2.1218   67.2714   66.1329 H   0  0  0  0  0  0  0  0  0  0  0  0
    1.7821   67.0402   67.9097 H   0  0  0  0  0  0  0  0  0  0  0  0
   -0.0085   67.1178   65.7058 H   0  0  0  0  0  0  0  0  0  0  0  0
   -0.5160   69.3022   67.7938 H   0  0  0  0  0  0  0  0  0  0  0  0
   -0.1610   69.5369   66.0295 H   0  0  0  0  0  0  0  0  0  0  0  0
   -2.5865   69.7637   66.6224 H   0  0  0  0  0  0  0  0  0  0  0  0
   -2.2154   68.4699   65.4061 H   0  0  0  0  0  0  0  0  0  0  0  0
   -2.8313   68.1056   68.3658 H   0  0  0  0  0  0  0  0  0  0  0  0
   -3.8396   67.6123   66.9409 H   0  0  0  0  0  0  0  0  0  0  0  0
   -2.6041   65.7124   67.9839 H   0  0  0  0  0  0  0  0  0  0  0  0
   -2.1755   66.0061   66.2538 H   0  0  0  0  0  0  0  0  0  0  0  0
   -0.1653   65.6453   67.5047 H   0  0  0  0  0  0  0  0  0  0  0  0
   -1.0444   66.0267   69.7023 H   0  0  0  0  0  0  0  0  0  0  0  0
    0.5977   66.6883   69.3982 H   0  0  0  0  0  0  0  0  0  0  0  0
   -0.8261   67.7835   69.3982 H   0  0  0  0  0  0  0  0  0  0  0  0
  2  1  2  0
  3  2  1  0
  4  3  2  0
  5  4  1  0
  6  5  2  0
  6  1  1  0
  7  5  1  0
  8  7  1  0
  9  8  2  0
 10  4  1  0
 10  9  1  0
 11  9  1  0
 12 11  2  0
 13 12  1  0
 14  8  1  0
 14 13  2  0
 16 15  1  0
 16  1  1  0
 17  7  1  0
 18 17  1  0
 19 18  1  0
 20 19  1  0
 21 20  1  0
 22 21  1  0
 23 22  1  0
 24 23  1  0
 24 19  1  0
 25 24  1  0
  2 26  1  0
  3 27  1  0
  6 28  1  0
 11 29  1  0
 12 30  1  0
 13 31  1  0
 14 32  1  0
 15 33  1  0
 15 34  1  0
 15 35  1  0
 17 36  1  0
 17 37  1  0
 18 38  1  0
 18 39  1  0
 19 40  1  6
 20 41  1  0
 20 42  1  0
 21 43  1  0
 21 44  1  0
 22 45  1  0
 22 46  1  0
 23 47  1  0
 23 48  1  0
 24 49  1  6
 25 50  1  0
 25 51  1  0
 25 52  1  0
M  CHG  1  24   1
M  END
>  <score>  (1) 
-10.456

$$$$
=
     RDKit          3D

 52 55  0  0  0  0  0  0  0  0999 V2000
    1.6150   68.7530   63.2640 C   0  0  0  0  0  0  0  0  0  0  0  0
    2.8030   68.6540   62.5550 C   0  0  0  0  0  0  0  0  0  0  0  0
    4.0160   68.8420   63.2160 C   0  0  0  0  0  0  0  0  0  0  0  0
    4.0620   69.1150   64.5950 C   0  0  0  0  0  0  0  0  0  0  0  0
    2.8800   69.1900   65.3540 C   0  0  0  0  0  0  0  0  0  0  0  0
    1.6690   69.0100   64.6440 C   0  0  0  0  0  0  0  0  0  0  0  0
    2.8980   69.4630   66.7560 N   0  0  0  0  0  0  0  0  0  0  0  0
    4.0390   69.8990   67.4900 C   0  0  0  0  0  0  0  0  0  0  0  0
    5.3310   69.8940   66.9260 C   0  0  0  0  0  0  0  0  0  0  0  0
    5.6840   69.2960   65.2910 S   0  0  0  0  0  0  0  0  0  0  0  0
    6.4450   70.3410   67.6610 C   0  0  0  0  0  0  0  0  0  0  0  0
    6.3050   70.8120   68.9610 C   0  0  0  0  0  0  0  0  0  0  0  0
    5.0450   70.8420   69.5350 C   0  0  0  0  0  0  0  0  0  0  0  0
    3.9340   70.3950   68.8090 C   0  0  0  0  0  0  0  0  0  0  0  0
   -0.0160   69.8120   61.2490 C   0  0  0  0  0  0  0  0  0  0  0  0
   -0.0020   68.5280   62.5340 S   0  0  0  0  0  0  0  0  0  0  0  0
    1.7300   69.0010   67.5290 C   0  0  0  0  0  0  0  0  0  0  0  0
    1.6050   67.4700   67.5190 C   0  0  0  0  0  0  0  0  0  0  0  0
    1.4760   66.8660   68.9250 C   0  0  2  0  0  0  0  0  0  0  0  0
    1.9620   65.4120   68.9620 C   0  0  0  0  0  0  0  0  0  0  0  0
    1.8790   64.8200   70.3670 C   0  0  0  0  0  0  0  0  0  0  0  0
    0.4880   64.9760   70.9680 C   0  0  0  0  0  0  0  0  0  0  0  0
    0.0070   66.4180   70.9120 C   0  0  0  0  0  0  0  0  0  0  0  0
    0.0590   66.9510   69.4890 N   0  0  2  0  0  4  0  0  0  0  0  0
   -1.0390   66.3720   68.6280 C   0  0  0  0  0  0  0  0  0  0  0  0
    2.7882   68.4287   61.4784 H   0  0  0  0  0  0  0  0  0  0  0  0
    4.9556   68.7755   62.6479 H   0  0  0  0  0  0  0  0  0  0  0  0
    0.7225   69.0746   65.2007 H   0  0  0  0  0  0  0  0  0  0  0  0
    7.4429   70.3172   67.1988 H   0  0  0  0  0  0  0  0  0  0  0  0
    7.1834   71.1564   69.5266 H   0  0  0  0  0  0  0  0  0  0  0  0
    4.9169   71.2169   70.5612 H   0  0  0  0  0  0  0  0  0  0  0  0
    2.9422   70.4314   69.2834 H   0  0  0  0  0  0  0  0  0  0  0  0
   -0.0268   70.8047   61.7227 H   0  0  0  0  0  0  0  0  0  0  0  0
    0.8833   69.7142   60.6231 H   0  0  0  0  0  0  0  0  0  0  0  0
   -0.9129   69.6946   60.6231 H   0  0  0  0  0  0  0  0  0  0  0  0
    1.8346   69.3424   68.5694 H   0  0  0  0  0  0  0  0  0  0  0  0
    0.8258   69.4197   67.0630 H   0  0  0  0  0  0  0  0  0  0  0  0
    0.7128   67.1956   66.9371 H   0  0  0  0  0  0  0  0  0  0  0  0
    2.5273   67.0689   67.0735 H   0  0  0  0  0  0  0  0  0  0  0  0
    2.1241   67.4802   69.5675 H   0  0  0  0  0  0  0  0  0  0  0  0
    1.3372   64.8108   68.2852 H   0  0  0  0  0  0  0  0  0  0  0  0
    3.0158   65.3965   68.6470 H   0  0  0  0  0  0  0  0  0  0  0  0
    2.1267   63.7494   70.3170 H   0  0  0  0  0  0  0  0  0  0  0  0
    2.5899   65.3621   71.0078 H   0  0  0  0  0  0  0  0  0  0  0  0
   -0.2155   64.3439   70.4063 H   0  0  0  0  0  0  0  0  0  0  0  0
    0.5358   64.6722   72.0241 H   0  0  0  0  0  0  0  0  0  0  0  0
   -1.0294   66.4667   71.2774 H   0  0  0  0  0  0  0  0  0  0  0  0
    0.6654   67.0334   71.5427 H   0  0  0  0  0  0  0  0  0  0  0  0
   -0.1537   67.9588   69.4932 H   0  0  0  0  0  0  0  0  0  0  0  0
   -1.8283   65.9558   69.2712 H   0  0  0  0  0  0  0  0  0  0  0  0
   -1.4630   67.1638   67.9929 H   0  0  0  0  0  0  0  0  0  0  0  0
   -0.6251   65.5749   67.9929 H   0  0  0  0  0  0  0  0  0  0  0  0
  2  1  2  0
  3  2  1  0
  4  3  2  0
  5  4  1  0
  6  5  2  0
  6  1  1  0
  7  5  1  0
  8  7  1  0
  9  8  2  0
 10  4  1  0
 10  9  1  0
 11  9  1  0
 12 11  2  0
 13 12  1  0
 14  8  1  0
 14 13  2  0
 16 15  1  0
 16  1  1  0
 17  7  1  0
 18 17  1  0
 19 18  1  0
 20 19  1  0
 21 20  1  0
 22 21  1  0
 23 22  1  0
 24 23  1  0
 24 19  1  0
 25 24  1  0
  2 26  1  0
  3 27  1  0
  6 28  1  0
 11 29  1  0
 12 30  1  0
 13 31  1  0
 14 32  1  0
 15 33  1  0
 15 34  1  0
 15 35  1  0
 17 36  1  0
 17 37  1  0
 18 38  1  0
 18 39  1  0
 19 40  1  1
 20 41  1  0
 20 42  1  0
 21 43  1  0
 21 44  1  0
 22 45  1  0
 22 46  1  0
 23 47  1  0
 23 48  1  0
 24 49  1  1
 25 50  1  0
 25 51  1  0
 25 52  1  0
M  CHG  1  24   1
M  END
>  <score>  (2) 
-8.943

$$$$
=
     RDKit          3D

 52 55  0  0  0  0  0  0  0  0999 V2000
    5.2300   70.3150   68.0040 C   0  0  0  0  0  0  0  0  0  0  0  0
    4.2930   70.2100   69.0230 C   0  0  0  0  0  0  0  0  0  0  0  0
    2.9930   69.8080   68.7220 C   0  0  0  0  0  0  0  0  0  0  0  0
    2.6120   69.4890   67.4060 C   0  0  0  0  0  0  0  0  0  0  0  0
    3.5430   69.5510   66.3520 C   0  0  0  0  0  0  0  0  0  0  0  0
    4.8480   69.9800   66.6940 C   0  0  0  0  0  0  0  0  0  0  0  0
    3.1840   69.2310   65.0070 N   0  0  0  0  0  0  0  0  0  0  0  0
    1.8520   69.0370   64.5400 C   0  0  0  0  0  0  0  0  0  0  0  0
    0.7620   68.9310   65.4280 C   0  0  0  0  0  0  0  0  0  0  0  0
    0.9310   68.9630   67.1960 S   0  0  0  0  0  0  0  0  0  0  0  0
   -0.5500   68.7520   64.9480 C   0  0  0  0  0  0  0  0  0  0  0  0
   -0.8130   68.6870   63.5850 C   0  0  0  0  0  0  0  0  0  0  0  0
    0.2370   68.8030   62.6900 C   0  0  0  0  0  0  0  0  0  0  0  0
    1.5440   68.9770   63.1630 C   0  0  0  0  0  0  0  0  0  0  0  0
    7.1160   70.5980   70.0540 C   0  0  0  0  0  0  0  0  0  0  0  0
    6.9280   70.8140   68.2610 S   0  0  0  0  0  0  0  0  0  0  0  0
    4.2820   68.8110   64.1170 C   0  0  0  0  0  0  0  0  0  0  0  0
    3.9160   67.5570   63.3080 C   0  0  0  0  0  0  0  0  0  0  0  0
    4.2710   66.2490   64.0310 C   0  0  2  0  0  0  0  0  0  0  0  0
    4.6010   65.1270   63.0370 C   0  0  0  0  0  0  0  0  0  0  0  0
    4.9990   63.8370   63.7480 C   0  0  0  0  0  0  0  0  0  0  0  0
    3.9560   63.4080   64.7740 C   0  0  0  0  0  0  0  0  0  0  0  0
    3.6230   64.5310   65.7440 C   0  0  0  0  0  0  0  0  0  0  0  0
    3.1840   65.7800   64.9950 N   0  0  2  0  0  4  0  0  0  0  0  0
    1.7950   65.6350   64.4200 C   0  0  0  0  0  0  0  0  0  0  0  0
    4.5747   70.4425   70.0606 H   0  0  0  0  0  0  0  0  0  0  0  0
    2.2497   69.7387   69.5299 H   0  0  0  0  0  0  0  0  0  0  0  0
    5.6001   70.0548   65.8948 H   0  0  0  0  0  0  0  0  0  0  0  0
   -1.3803   68.6622   65.6639 H   0  0  0  0  0  0  0  0  0  0  0  0
   -1.8417   68.5453   63.2220 H   0  0  0  0  0  0  0  0  0  0  0  0
    0.0449   68.7585   61.6078 H   0  0  0  0  0  0  0  0  0  0  0  0
    2.3621   69.0705   62.4337 H   0  0  0  0  0  0  0  0  0  0  0  0
    6.4816   71.3269   70.5796 H   0  0  0  0  0  0  0  0  0  0  0  0
    6.8127   69.5785   70.3343 H   0  0  0  0  0  0  0  0  0  0  0  0
    8.1676   70.7578   70.3343 H   0  0  0  0  0  0  0  0  0  0  0  0
    4.5077   69.6310   63.4193 H   0  0  0  0  0  0  0  0  0  0  0  0
    5.1546   68.5707   64.7422 H   0  0  0  0  0  0  0  0  0  0  0  0
    2.8330   67.5680   63.1158 H   0  0  0  0  0  0  0  0  0  0  0  0
    4.4998   67.5857   62.3761 H   0  0  0  0  0  0  0  0  0  0  0  0
    5.1653   66.4783   64.6290 H   0  0  0  0  0  0  0  0  0  0  0  0
    3.7155   64.9314   62.4144 H   0  0  0  0  0  0  0  0  0  0  0  0
    5.4526   65.4548   62.4227 H   0  0  0  0  0  0  0  0  0  0  0  0
    5.1111   63.0386   62.9997 H   0  0  0  0  0  0  0  0  0  0  0  0
    5.9450   64.0185   64.2791 H   0  0  0  0  0  0  0  0  0  0  0  0
    3.0384   63.1100   64.2457 H   0  0  0  0  0  0  0  0  0  0  0  0
    4.3698   62.5684   65.3518 H   0  0  0  0  0  0  0  0  0  0  0  0
    2.8093   64.2043   66.4082 H   0  0  0  0  0  0  0  0  0  0  0  0
    4.5232   64.7694   66.3295 H   0  0  0  0  0  0  0  0  0  0  0  0
    3.0805   66.5600   65.6597 H   0  0  0  0  0  0  0  0  0  0  0  0
    1.0651   65.5588   65.2394 H   0  0  0  0  0  0  0  0  0  0  0  0
    1.5609   66.5136   63.8009 H   0  0  0  0  0  0  0  0  0  0  0  0
    1.7474   64.7270   63.8009 H   0  0  0  0  0  0  0  0  0  0  0  0
  2  1  2  0
  3  2  1  0
  4  3  2  0
  5  4  1  0
  6  5  2  0
  6  1  1  0
  7  5  1  0
  8  7  1  0
  9  8  2  0
 10  4  1  0
 10  9  1  0
 11  9  1  0
 12 11  2  0
 13 12  1  0
 14  8  1  0
 14 13  2  0
 16 15  1  0
 16  1  1  0
 17  7  1  0
 18 17  1  0
 19 18  1  0
 20 19  1  0
 21 20  1  0
 22 21  1  0
 23 22  1  0
 24 23  1  0
 24 19  1  0
 25 24  1  0
  2 26  1  0
  3 27  1  0
  6 28  1  0
 11 29  1  0
 12 30  1  0
 13 31  1  0
 14 32  1  0
 15 33  1  0
 15 34  1  0
 15 35  1  0
 17 36  1  0
 17 37  1  0
 18 38  1  0
 18 39  1  0
 19 40  1  1
 20 41  1  0
 20 42  1  0
 21 43  1  0
 21 44  1  0
 22 45  1  0
 22 46  1  0
 23 47  1  0
 23 48  1  0
 24 49  1  1
 25 50  1  0
 25 51  1  0
 25 52  1  0
M  CHG  1  24   1
M  END
>  <score>  (3) 
-8.679

$$$$
=
     RDKit          3D

 52 55  0  0  0  0  0  0  0  0999 V2000
   -0.4660   61.4670   72.8600 C   0  0  0  0  0  0  0  0  0  0  0  0
   -1.6820   61.2170   73.4810 C   0  0  0  0  0  0  0  0  0  0  0  0
   -1.9190   59.9670   74.0510 C   0  0  0  0  0  0  0  0  0  0  0  0
   -0.9430   58.9550   74.0240 C   0  0  0  0  0  0  0  0  0  0  0  0
    0.3130   59.1810   73.4330 C   0  0  0  0  0  0  0  0  0  0  0  0
    0.5100   60.4560   72.8510 C   0  0  0  0  0  0  0  0  0  0  0  0
    1.3230   58.1710   73.3940 N   0  0  0  0  0  0  0  0  0  0  0  0
    1.1230   56.8010   73.7270 C   0  0  0  0  0  0  0  0  0  0  0  0
   -0.0640   56.3520   74.3430 C   0  0  0  0  0  0  0  0  0  0  0  0
   -1.3890   57.4340   74.8210 S   0  0  0  0  0  0  0  0  0  0  0  0
   -0.2500   54.9920   74.6530 C   0  0  0  0  0  0  0  0  0  0  0  0
    0.7230   54.0470   74.3510 C   0  0  0  0  0  0  0  0  0  0  0  0
    1.8920   54.4570   73.7330 C   0  0  0  0  0  0  0  0  0  0  0  0
    2.0840   55.8100   73.4260 C   0  0  0  0  0  0  0  0  0  0  0  0
    0.3970   64.0420   73.5400 C   0  0  0  0  0  0  0  0  0  0  0  0
   -0.0390   63.0270   72.0980 S   0  0  0  0  0  0  0  0  0  0  0  0
    2.7150   58.6410   73.2620 C   0  0  0  0  0  0  0  0  0  0  0  0
    3.1630   58.6980   71.7930 C   0  0  0  0  0  0  0  0  0  0  0  0
    3.0290   60.0990   71.1770 C   0  0  2  0  0  0  0  0  0  0  0  0
    3.3430   60.0870   69.6750 C   0  0  0  0  0  0  0  0  0  0  0  0
    3.1670   61.4670   69.0470 C   0  0  0  0  0  0  0  0  0  0  0  0
    3.9590   62.5350   69.7900 C   0  0  0  0  0  0  0  0  0  0  0  0
    3.6550   62.5290   71.2800 C   0  0  0  0  0  0  0  0  0  0  0  0
    3.8900   61.1490   71.8750 N   0  0  2  0  0  4  0  0  0  0  0  0
    5.3620   60.8310   72.0010 C   0  0  0  0  0  0  0  0  0  0  0  0
   -2.4535   62.0000   73.5231 H   0  0  0  0  0  0  0  0  0  0  0  0
   -2.8885   59.7684   74.5313 H   0  0  0  0  0  0  0  0  0  0  0  0
    1.4754   60.6661   72.3674 H   0  0  0  0  0  0  0  0  0  0  0  0
   -1.1814   54.6715   75.1427 H   0  0  0  0  0  0  0  0  0  0  0  0
    0.5664   52.9870   74.5997 H   0  0  0  0  0  0  0  0  0  0  0  0
    2.6698   53.7204   73.4831 H   0  0  0  0  0  0  0  0  0  0  0  0
    3.0188   56.1127   72.9316 H   0  0  0  0  0  0  0  0  0  0  0  0
    0.1601   63.4904   74.4618 H   0  0  0  0  0  0  0  0  0  0  0  0
    1.4727   64.2706   73.5157 H   0  0  0  0  0  0  0  0  0  0  0  0
   -0.1778   64.9796   73.5157 H   0  0  0  0  0  0  0  0  0  0  0  0
    2.7932   59.6483   73.6971 H   0  0  0  0  0  0  0  0  0  0  0  0
    3.3669   57.9296   73.7902 H   0  0  0  0  0  0  0  0  0  0  0  0
    4.2174   58.3898   71.7362 H   0  0  0  0  0  0  0  0  0  0  0  0
    2.5062   58.0244   71.2230 H   0  0  0  0  0  0  0  0  0  0  0  0
    1.9770   60.3842   71.3253 H   0  0  0  0  0  0  0  0  0  0  0  0
    4.3837   59.7609   69.5316 H   0  0  0  0  0  0  0  0  0  0  0  0
    2.6407   59.3967   69.1848 H   0  0  0  0  0  0  0  0  0  0  0  0
    3.5129   61.4294   68.0035 H   0  0  0  0  0  0  0  0  0  0  0  0
    2.1011   61.7331   69.1025 H   0  0  0  0  0  0  0  0  0  0  0  0
    5.0331   62.3472   69.6450 H   0  0  0  0  0  0  0  0  0  0  0  0
    3.6713   63.5169   69.3862 H   0  0  0  0  0  0  0  0  0  0  0  0
    4.3096   63.2551   71.7843 H   0  0  0  0  0  0  0  0  0  0  0  0
    2.5987   62.7996   71.4248 H   0  0  0  0  0  0  0  0  0  0  0  0
    3.5636   61.1374   72.8518 H   0  0  0  0  0  0  0  0  0  0  0  0
    5.6346   60.7721   73.0651 H   0  0  0  0  0  0  0  0  0  0  0  0
    5.5718   59.8668   71.5148 H   0  0  0  0  0  0  0  0  0  0  0  0
    5.9511   61.6226   71.5148 H   0  0  0  0  0  0  0  0  0  0  0  0
  2  1  2  0
  3  2  1  0
  4  3  2  0
  5  4  1  0
  6  5  2  0
  6  1  1  0
  7  5  1  0
  8  7  1  0
  9  8  2  0
 10  4  1  0
 10  9  1  0
 11  9  1  0
 12 11  2  0
 13 12  1  0
 14  8  1  0
 14 13  2  0
 16 15  1  0
 16  1  1  0
 17  7  1  0
 18 17  1  0
 19 18  1  0
 20 19  1  0
 21 20  1  0
 22 21  1  0
 23 22  1  0
 24 23  1  0
 24 19  1  0
 25 24  1  0
  2 26  1  0
  3 27  1  0
  6 28  1  0
 11 29  1  0
 12 30  1  0
 13 31  1  0
 14 32  1  0
 15 33  1  0
 15 34  1  0
 15 35  1  0
 17 36  1  0
 17 37  1  0
 18 38  1  0
 18 39  1  0
 19 40  1  6
 20 41  1  0
 20 42  1  0
 21 43  1  0
 21 44  1  0
 22 45  1  0
 22 46  1  0
 23 47  1  0
 23 48  1  0
 24 49  1  1
 25 50  1  0
 25 51  1  0
 25 52  1  0
M  CHG  1  24   1
M  END
>  <score>  (4) 
-8.143

$$$$
=
     RDKit          3D

 52 55  0  0  0  0  0  0  0  0999 V2000
   -1.5130   59.9020   74.0280 C   0  0  0  0  0  0  0  0  0  0  0  0
   -1.9160   61.1640   73.6150 C   0  0  0  0  0  0  0  0  0  0  0  0
   -1.0450   61.9520   72.8640 C   0  0  0  0  0  0  0  0  0  0  0  0
    0.2320   61.4880   72.5010 C   0  0  0  0  0  0  0  0  0  0  0  0
    0.6630   60.2010   72.8720 C   0  0  0  0  0  0  0  0  0  0  0  0
   -0.2420   59.4380   73.6480 C   0  0  0  0  0  0  0  0  0  0  0  0
    1.9530   59.7040   72.5150 N   0  0  0  0  0  0  0  0  0  0  0  0
    3.0070   60.4860   71.9600 C   0  0  0  0  0  0  0  0  0  0  0  0
    2.7930   61.8040   71.5060 C   0  0  0  0  0  0  0  0  0  0  0  0
    1.2050   62.5990   71.5170 S   0  0  0  0  0  0  0  0  0  0  0  0
    3.8490   62.5670   70.9730 C   0  0  0  0  0  0  0  0  0  0  0  0
    5.1370   62.0510   70.8880 C   0  0  0  0  0  0  0  0  0  0  0  0
    5.3780   60.7650   71.3390 C   0  0  0  0  0  0  0  0  0  0  0  0
    4.3300   60.0000   71.8670 C   0  0  0  0  0  0  0  0  0  0  0  0
   -4.1800   59.5460   74.8020 C   0  0  0  0  0  0  0  0  0  0  0  0
   -2.5370   58.7950   74.9890 S   0  0  0  0  0  0  0  0  0  0  0  0
    2.1010   58.2370   72.4680 C   0  0  0  0  0  0  0  0  0  0  0  0
    2.3140   57.6380   73.8670 C   0  0  0  0  0  0  0  0  0  0  0  0
    1.8380   56.1810   73.9770 C   0  0  2  0  0  0  0  0  0  0  0  0
    0.3080   56.0840   73.9590 C   0  0  0  0  0  0  0  0  0  0  0  0
   -0.1710   54.6360   74.0220 C   0  0  0  0  0  0  0  0  0  0  0  0
    0.4380   53.8870   75.2010 C   0  0  0  0  0  0  0  0  0  0  0  0
    1.9540   54.0030   75.2210 C   0  0  0  0  0  0  0  0  0  0  0  0
    2.3860   55.4610   75.2070 N   0  0  2  0  0  4  0  0  0  0  0  0
    2.1470   56.1340   76.5380 C   0  0  0  0  0  0  0  0  0  0  0  0
   -2.9157   61.5400   73.8783 H   0  0  0  0  0  0  0  0  0  0  0  0
   -1.3630   62.9568   72.5491 H   0  0  0  0  0  0  0  0  0  0  0  0
    0.0647   58.4318   73.9697 H   0  0  0  0  0  0  0  0  0  0  0  0
    3.6516   63.5891   70.6176 H   0  0  0  0  0  0  0  0  0  0  0  0
    5.9536   62.6566   70.4680 H   0  0  0  0  0  0  0  0  0  0  0  0
    6.3925   60.3436   71.2829 H   0  0  0  0  0  0  0  0  0  0  0  0
    4.5456   58.9817   72.2228 H   0  0  0  0  0  0  0  0  0  0  0  0
   -4.6088   59.7420   75.7958 H   0  0  0  0  0  0  0  0  0  0  0  0
   -4.0898   60.4923   74.2485 H   0  0  0  0  0  0  0  0  0  0  0  0
   -4.8365   58.8586   74.2485 H   0  0  0  0  0  0  0  0  0  0  0  0
    1.1911   57.8015   72.0294 H   0  0  0  0  0  0  0  0  0  0  0  0
    2.9861   58.0028   71.8583 H   0  0  0  0  0  0  0  0  0  0  0  0
    3.3876   57.6745   74.1039 H   0  0  0  0  0  0  0  0  0  0  0  0
    1.7163   58.2329   74.5733 H   0  0  0  0  0  0  0  0  0  0  0  0
    2.2428   55.6729   73.0893 H   0  0  0  0  0  0  0  0  0  0  0  0
   -0.0932   56.6294   74.8259 H   0  0  0  0  0  0  0  0  0  0  0  0
   -0.0504   56.5210   73.0153 H   0  0  0  0  0  0  0  0  0  0  0  0
   -1.2663   54.6278   74.1229 H   0  0  0  0  0  0  0  0  0  0  0  0
    0.1457   54.1315   73.0972 H   0  0  0  0  0  0  0  0  0  0  0  0
    0.0364   54.3065   76.1352 H   0  0  0  0  0  0  0  0  0  0  0  0
    0.1776   52.8229   75.1016 H   0  0  0  0  0  0  0  0  0  0  0  0
    2.3402   53.5215   76.1315 H   0  0  0  0  0  0  0  0  0  0  0  0
    2.3566   53.5081   74.3249 H   0  0  0  0  0  0  0  0  0  0  0  0
    3.4089   55.5142   75.0987 H   0  0  0  0  0  0  0  0  0  0  0  0
    2.3948   55.4362   77.3514 H   0  0  0  0  0  0  0  0  0  0  0  0
    2.7824   57.0285   76.6159 H   0  0  0  0  0  0  0  0  0  0  0  0
    1.0897   56.4274   76.6159 H   0  0  0  0  0  0  0  0  0  0  0  0
  2  1  2  0
  3  2  1  0
  4  3  2  0
  5  4  1  0
  6  5  2  0
  6  1  1  0
  7  5  1  0
  8  7  1  0
  9  8  2  0
 10  4  1  0
 10  9  1  0
 11  9  1  0
 12 11  2  0
 13 12  1  0
 14  8  1  0
 14 13  2  0
 16 15  1  0
 16  1  1  0
 17  7  1  0
 18 17  1  0
 19 18  1  0
 20 19  1  0
 21 20  1  0
 22 21  1  0
 23 22  1  0
 24 23  1  0
 24 19  1  0
 25 24  1  0
  2 26  1  0
  3 27  1  0
  6 28  1  0
 11 29  1  0
 12 30  1  0
 13 31  1  0
 14 32  1  0
 15 33  1  0
 15 34  1  0
 15 35  1  0
 17 36  1  0
 17 37  1  0
 18 38  1  0
 18 39  1  0
 19 40  1  6
 20 41  1  0
 20 42  1  0
 21 43  1  0
 21 44  1  0
 22 45  1  0
 22 46  1  0
 23 47  1  0
 23 48  1  0
 24 49  1  6
 25 50  1  0
 25 51  1  0
 25 52  1  0
M  CHG  1  24   1
M  END
>  <score>  (5) 
-8.13

$$$$
=
     RDKit          3D

 52 55  0  0  0  0  0  0  0  0999 V2000
    1.4320   57.5420   73.8690 C   0  0  0  0  0  0  0  0  0  0  0  0
    1.8440   56.7090   72.8390 C   0  0  0  0  0  0  0  0  0  0  0  0
    2.4570   57.2580   71.7140 C   0  0  0  0  0  0  0  0  0  0  0  0
    2.6830   58.6420   71.6070 C   0  0  0  0  0  0  0  0  0  0  0  0
    2.3100   59.5150   72.6460 C   0  0  0  0  0  0  0  0  0  0  0  0
    1.6760   58.9220   73.7640 C   0  0  0  0  0  0  0  0  0  0  0  0
    2.5290   60.9240   72.5640 N   0  0  0  0  0  0  0  0  0  0  0  0
    2.9260   61.6240   71.3890 C   0  0  0  0  0  0  0  0  0  0  0  0
    3.3530   60.9440   70.2290 C   0  0  0  0  0  0  0  0  0  0  0  0
    3.5020   59.1770   70.1280 S   0  0  0  0  0  0  0  0  0  0  0  0
    3.7290   61.6520   69.0710 C   0  0  0  0  0  0  0  0  0  0  0  0
    3.6790   63.0400   69.0300 C   0  0  0  0  0  0  0  0  0  0  0  0
    3.2500   63.7320   70.1500 C   0  0  0  0  0  0  0  0  0  0  0  0
    2.8790   63.0330   71.3050 C   0  0  0  0  0  0  0  0  0  0  0  0
   -0.6330   55.8460   74.7060 C   0  0  0  0  0  0  0  0  0  0  0  0
    0.6410   56.9610   75.3650 S   0  0  0  0  0  0  0  0  0  0  0  0
    2.6120   61.6500   73.8460 C   0  0  0  0  0  0  0  0  0  0  0  0
    1.4020   62.5720   74.0600 C   0  0  0  0  0  0  0  0  0  0  0  0
    0.1180   61.8080   74.4200 C   0  0  2  0  0  0  0  0  0  0  0  0
   -0.8930   61.8280   73.2670 C   0  0  0  0  0  0  0  0  0  0  0  0
   -2.1520   61.0330   73.6000 C   0  0  0  0  0  0  0  0  0  0  0  0
   -2.7740   61.4800   74.9180 C   0  0  0  0  0  0  0  0  0  0  0  0
   -1.7610   61.4730   76.0520 C   0  0  0  0  0  0  0  0  0  0  0  0
   -0.5460   62.3170   75.6970 N   0  0  2  0  0  4  0  0  0  0  0  0
   -0.8510   63.7950   75.7500 C   0  0  0  0  0  0  0  0  0  0  0  0
    1.6879   55.6224   72.9097 H   0  0  0  0  0  0  0  0  0  0  0  0
    2.7702   56.5956   70.8935 H   0  0  0  0  0  0  0  0  0  0  0  0
    1.3586   59.5735   74.5915 H   0  0  0  0  0  0  0  0  0  0  0  0
    4.0680   61.0967   68.1840 H   0  0  0  0  0  0  0  0  0  0  0  0
    3.9762   63.5818   68.1200 H   0  0  0  0  0  0  0  0  0  0  0  0
    3.2007   64.8308   70.1323 H   0  0  0  0  0  0  0  0  0  0  0  0
    2.5376   63.6036   72.1813 H   0  0  0  0  0  0  0  0  0  0  0  0
   -1.1732   55.3732   75.5395 H   0  0  0  0  0  0  0  0  0  0  0  0
   -1.3401   56.4207   74.0898 H   0  0  0  0  0  0  0  0  0  0  0  0
   -0.1571   55.0690   74.0898 H   0  0  0  0  0  0  0  0  0  0  0  0
    2.6520   60.9190   74.6670 H   0  0  0  0  0  0  0  0  0  0  0  0
    3.5177   62.2740   73.8271 H   0  0  0  0  0  0  0  0  0  0  0  0
    1.6344   63.2706   74.8772 H   0  0  0  0  0  0  0  0  0  0  0  0
    1.2167   63.0957   73.1106 H   0  0  0  0  0  0  0  0  0  0  0  0
    0.4360   60.7711   74.6039 H   0  0  0  0  0  0  0  0  0  0  0  0
   -1.1754   62.8707   73.0597 H   0  0  0  0  0  0  0  0  0  0  0  0
   -0.4188   61.3636   72.3898 H   0  0  0  0  0  0  0  0  0  0  0  0
   -2.8864   61.1756   72.7936 H   0  0  0  0  0  0  0  0  0  0  0  0
   -1.8709   59.9740   73.6973 H   0  0  0  0  0  0  0  0  0  0  0  0
   -3.1671   62.5003   74.7982 H   0  0  0  0  0  0  0  0  0  0  0  0
   -3.5778   60.7738   75.1734 H   0  0  0  0  0  0  0  0  0  0  0  0
   -2.2316   61.8818   76.9583 H   0  0  0  0  0  0  0  0  0  0  0  0
   -1.4325   60.4375   76.2246 H   0  0  0  0  0  0  0  0  0  0  0  0
    0.1762   62.2013   76.4222 H   0  0  0  0  0  0  0  0  0  0  0  0
   -0.9177   64.1182   76.7993 H   0  0  0  0  0  0  0  0  0  0  0  0
   -0.0491   64.3532   75.2446 H   0  0  0  0  0  0  0  0  0  0  0  0
   -1.8083   63.9902   75.2446 H   0  0  0  0  0  0  0  0  0  0  0  0
  2  1  2  0
  3  2  1  0
  4  3  2  0
  5  4  1  0
  6  5  2  0
  6  1  1  0
  7  5  1  0
  8  7  1  0
  9  8  2  0
 10  4  1  0
 10  9  1  0
 11  9  1  0
 12 11  2  0
 13 12  1  0
 14  8  1  0
 14 13  2  0
 16 15  1  0
 16  1  1  0
 17  7  1  0
 18 17  1  0
 19 18  1  0
 20 19  1  0
 21 20  1  0
 22 21  1  0
 23 22  1  0
 24 23  1  0
 24 19  1  0
 25 24  1  0
  2 26  1  0
  3 27  1  0
  6 28  1  0
 11 29  1  0
 12 30  1  0
 13 31  1  0
 14 32  1  0
 15 33  1  0
 15 34  1  0
 15 35  1  0
 17 36  1  0
 17 37  1  0
 18 38  1  0
 18 39  1  0
 19 40  1  1
 20 41  1  0
 20 42  1  0
 21 43  1  0
 21 44  1  0
 22 45  1  0
 22 46  1  0
 23 47  1  0
 23 48  1  0
 24 49  1  1
 25 50  1  0
 25 51  1  0
 25 52  1  0
M  CHG  1  24   1
M  END
>  <score>  (6) 
-7.974

$$$$
=
     RDKit          3D

 52 55  0  0  0  0  0  0  0  0999 V2000
    0.9280   55.9850   74.0560 C   0  0  0  0  0  0  0  0  0  0  0  0
   -0.4480   55.9970   74.2360 C   0  0  0  0  0  0  0  0  0  0  0  0
   -1.1240   57.2140   74.2860 C   0  0  0  0  0  0  0  0  0  0  0  0
   -0.4430   58.4360   74.1420 C   0  0  0  0  0  0  0  0  0  0  0  0
    0.9470   58.4630   73.9240 C   0  0  0  0  0  0  0  0  0  0  0  0
    1.6010   57.2080   73.8960 C   0  0  0  0  0  0  0  0  0  0  0  0
    1.6650   59.6890   73.7720 N   0  0  0  0  0  0  0  0  0  0  0  0
    1.1340   60.9850   74.0330 C   0  0  0  0  0  0  0  0  0  0  0  0
   -0.2410   61.1910   74.2650 C   0  0  0  0  0  0  0  0  0  0  0  0
   -1.4520   59.8930   74.1970 S   0  0  0  0  0  0  0  0  0  0  0  0
   -0.7460   62.4770   74.5350 C   0  0  0  0  0  0  0  0  0  0  0  0
    0.0960   63.5820   74.5930 C   0  0  0  0  0  0  0  0  0  0  0  0
    1.4530   63.4060   74.3830 C   0  0  0  0  0  0  0  0  0  0  0  0
    1.9600   62.1290   74.1110 C   0  0  0  0  0  0  0  0  0  0  0  0
    0.6750   53.2110   74.3370 C   0  0  0  0  0  0  0  0  0  0  0  0
    1.9080   54.4920   73.9680 S   0  0  0  0  0  0  0  0  0  0  0  0
    2.9430   59.6150   73.0390 C   0  0  0  0  0  0  0  0  0  0  0  0
    2.7330   59.6530   71.5170 C   0  0  0  0  0  0  0  0  0  0  0  0
    3.6120   60.6990   70.8140 C   0  0  2  0  0  0  0  0  0  0  0  0
    4.4450   61.5050   71.8200 C   0  0  0  0  0  0  0  0  0  0  0  0
    5.3540   62.5150   71.1250 C   0  0  0  0  0  0  0  0  0  0  0  0
    4.5790   63.4140   70.1700 C   0  0  0  0  0  0  0  0  0  0  0  0
    3.7440   62.6080   69.1880 C   0  0  0  0  0  0  0  0  0  0  0  0
    2.8180   61.6510   69.9230 N   0  0  2  0  0  4  0  0  0  0  0  0
    1.6630   62.3730   70.5760 C   0  0  0  0  0  0  0  0  0  0  0  0
   -1.0012   55.0518   74.3385 H   0  0  0  0  0  0  0  0  0  0  0  0
   -2.2130   57.2193   74.4413 H   0  0  0  0  0  0  0  0  0  0  0  0
    2.6899   57.1892   73.7413 H   0  0  0  0  0  0  0  0  0  0  0  0
   -1.8249   62.6099   74.7029 H   0  0  0  0  0  0  0  0  0  0  0  0
   -0.3106   64.5823   74.8029 H   0  0  0  0  0  0  0  0  0  0  0  0
    2.1332   64.2692   74.4298 H   0  0  0  0  0  0  0  0  0  0  0  0
    3.0422   62.0121   73.9521 H   0  0  0  0  0  0  0  0  0  0  0  0
    0.5722   53.1042   75.4270 H   0  0  0  0  0  0  0  0  0  0  0  0
   -0.2941   53.4993   73.9038 H   0  0  0  0  0  0  0  0  0  0  0  0
    1.0000   52.2536   73.9038 H   0  0  0  0  0  0  0  0  0  0  0  0
    3.5716   60.4686   73.3328 H   0  0  0  0  0  0  0  0  0  0  0  0
    3.4272   58.6605   73.2929 H   0  0  0  0  0  0  0  0  0  0  0  0
    2.9720   58.6612   71.1056 H   0  0  0  0  0  0  0  0  0  0  0  0
    1.6841   59.9312   71.3371 H   0  0  0  0  0  0  0  0  0  0  0  0
    4.2872   60.1238   70.1634 H   0  0  0  0  0  0  0  0  0  0  0  0
    3.7639   62.0445   72.4945 H   0  0  0  0  0  0  0  0  0  0  0  0
    5.0803   60.8016   72.3782 H   0  0  0  0  0  0  0  0  0  0  0  0
    5.8388   63.1413   71.8884 H   0  0  0  0  0  0  0  0  0  0  0  0
    6.0986   61.9565   70.5387 H   0  0  0  0  0  0  0  0  0  0  0  0
    3.9117   64.0638   70.7553 H   0  0  0  0  0  0  0  0  0  0  0  0
    5.3046   64.0078   69.5948 H   0  0  0  0  0  0  0  0  0  0  0  0
    3.1405   63.2964   68.5781 H   0  0  0  0  0  0  0  0  0  0  0  0
    4.4206   62.0219   68.5486 H   0  0  0  0  0  0  0  0  0  0  0  0
    2.3527   61.0334   69.2426 H   0  0  0  0  0  0  0  0  0  0  0  0
    1.7628   62.3106   71.6697 H   0  0  0  0  0  0  0  0  0  0  0  0
    1.6686   63.4287   70.2669 H   0  0  0  0  0  0  0  0  0  0  0  0
    0.7165   61.9055   70.2669 H   0  0  0  0  0  0  0  0  0  0  0  0
  2  1  2  0
  3  2  1  0
  4  3  2  0
  5  4  1  0
  6  5  2  0
  6  1  1  0
  7  5  1  0
  8  7  1  0
  9  8  2  0
 10  4  1  0
 10  9  1  0
 11  9  1  0
 12 11  2  0
 13 12  1  0
 14  8  1  0
 14 13  2  0
 16 15  1  0
 16  1  1  0
 17  7  1  0
 18 17  1  0
 19 18  1  0
 20 19  1  0
 21 20  1  0
 22 21  1  0
 23 22  1  0
 24 23  1  0
 24 19  1  0
 25 24  1  0
  2 26  1  0
  3 27  1  0
  6 28  1  0
 11 29  1  0
 12 30  1  0
 13 31  1  0
 14 32  1  0
 15 33  1  0
 15 34  1  0
 15 35  1  0
 17 36  1  0
 17 37  1  0
 18 38  1  0
 18 39  1  0
 19 40  1  6
 20 41  1  0
 20 42  1  0
 21 43  1  0
 21 44  1  0
 22 45  1  0
 22 46  1  0
 23 47  1  0
 23 48  1  0
 24 49  1  6
 25 50  1  0
 25 51  1  0
 25 52  1  0
M  CHG  1  24   1
M  END
>  <score>  (7) 
-7.92

$$$$
=
     RDKit          3D

 52 55  0  0  0  0  0  0  0  0999 V2000
    1.2700   68.6540   66.0840 C   0  0  0  0  0  0  0  0  0  0  0  0
    0.6490   68.9940   67.2770 C   0  0  0  0  0  0  0  0  0  0  0  0
    1.3940   69.5890   68.2940 C   0  0  0  0  0  0  0  0  0  0  0  0
    2.7630   69.8670   68.1310 C   0  0  0  0  0  0  0  0  0  0  0  0
    3.4190   69.5670   66.9230 C   0  0  0  0  0  0  0  0  0  0  0  0
    2.6340   68.9500   65.9210 C   0  0  0  0  0  0  0  0  0  0  0  0
    4.8080   69.8410   66.7300 N   0  0  0  0  0  0  0  0  0  0  0  0
    5.7170   70.2240   67.7580 C   0  0  0  0  0  0  0  0  0  0  0  0
    5.2720   70.5810   69.0480 C   0  0  0  0  0  0  0  0  0  0  0  0
    3.5580   70.6540   69.5070 S   0  0  0  0  0  0  0  0  0  0  0  0
    6.1860   70.9440   70.0550 C   0  0  0  0  0  0  0  0  0  0  0  0
    7.5550   70.9490   69.8150 C   0  0  0  0  0  0  0  0  0  0  0  0
    8.0210   70.5890   68.5610 C   0  0  0  0  0  0  0  0  0  0  0  0
    7.1150   70.2310   67.5550 C   0  0  0  0  0  0  0  0  0  0  0  0
    0.6970   69.1090   63.3810 C   0  0  0  0  0  0  0  0  0  0  0  0
    0.4250   67.8940   64.7030 S   0  0  0  0  0  0  0  0  0  0  0  0
    5.2570   69.9990   65.3340 C   0  0  0  0  0  0  0  0  0  0  0  0
    5.8640   68.7020   64.7780 C   0  0  0  0  0  0  0  0  0  0  0  0
    5.4200   68.3970   63.3390 C   0  0  2  0  0  0  0  0  0  0  0  0
    4.3520   69.3870   62.8560 C   0  0  0  0  0  0  0  0  0  0  0  0
    3.9390   69.1190   61.4110 C   0  0  0  0  0  0  0  0  0  0  0  0
    3.5170   67.6700   61.2010 C   0  0  0  0  0  0  0  0  0  0  0  0
    4.5730   66.6960   61.6970 C   0  0  0  0  0  0  0  0  0  0  0  0
    4.9180   66.9670   63.1530 N   0  0  2  0  0  4  0  0  0  0  0  0
    3.8200   66.5170   64.0870 C   0  0  0  0  0  0  0  0  0  0  0  0
   -0.4235   68.7955   67.4194 H   0  0  0  0  0  0  0  0  0  0  0  0
    0.9012   69.8463   69.2432 H   0  0  0  0  0  0  0  0  0  0  0  0
    3.1151   68.6890   64.9669 H   0  0  0  0  0  0  0  0  0  0  0  0
    5.8104   71.2286   71.0489 H   0  0  0  0  0  0  0  0  0  0  0  0
    8.2591   71.2350   70.6102 H   0  0  0  0  0  0  0  0  0  0  0  0
    9.1017   70.5844   68.3557 H   0  0  0  0  0  0  0  0  0  0  0  0
    7.5072   69.9440   66.5682 H   0  0  0  0  0  0  0  0  0  0  0  0
    0.9168   70.0911   63.8251 H   0  0  0  0  0  0  0  0  0  0  0  0
    1.5459   68.7897   62.7586 H   0  0  0  0  0  0  0  0  0  0  0  0
   -0.2070   69.1822   62.7586 H   0  0  0  0  0  0  0  0  0  0  0  0
    4.3947   70.2830   64.7129 H   0  0  0  0  0  0  0  0  0  0  0  0
    6.0346   70.7767   65.3116 H   0  0  0  0  0  0  0  0  0  0  0  0
    6.9601   68.7934   64.7942 H   0  0  0  0  0  0  0  0  0  0  0  0
    5.5101   67.8760   65.4124 H   0  0  0  0  0  0  0  0  0  0  0  0
    6.3250   68.5111   62.7242 H   0  0  0  0  0  0  0  0  0  0  0  0
    3.4659   69.2971   63.5016 H   0  0  0  0  0  0  0  0  0  0  0  0
    4.7784   70.3997   62.9064 H   0  0  0  0  0  0  0  0  0  0  0  0
    3.0950   69.7761   61.1545 H   0  0  0  0  0  0  0  0  0  0  0  0
    4.8069   69.3187   60.7654 H   0  0  0  0  0  0  0  0  0  0  0  0
    2.5806   67.4891   61.7490 H   0  0  0  0  0  0  0  0  0  0  0  0
    3.3819   67.5067   60.1216 H   0  0  0  0  0  0  0  0  0  0  0  0
    4.1892   65.6695   61.6026 H   0  0  0  0  0  0  0  0  0  0  0  0
    5.4818   66.8230   61.0903 H   0  0  0  0  0  0  0  0  0  0  0  0
    5.7168   66.3789   63.4305 H   0  0  0  0  0  0  0  0  0  0  0  0
    4.1469   66.6510   65.1287 H   0  0  0  0  0  0  0  0  0  0  0  0
    2.9160   67.1172   63.9063 H   0  0  0  0  0  0  0  0  0  0  0  0
    3.5972   65.4551   63.9063 H   0  0  0  0  0  0  0  0  0  0  0  0
  2  1  2  0
  3  2  1  0
  4  3  2  0
  5  4  1  0
  6  5  2  0
  6  1  1  0
  7  5  1  0
  8  7  1  0
  9  8  2  0
 10  4  1  0
 10  9  1  0
 11  9  1  0
 12 11  2  0
 13 12  1  0
 14  8  1  0
 14 13  2  0
 16 15  1  0
 16  1  1  0
 17  7  1  0
 18 17  1  0
 19 18  1  0
 20 19  1  0
 21 20  1  0
 22 21  1  0
 23 22  1  0
 24 23  1  0
 24 19  1  0
 25 24  1  0
  2 26  1  0
  3 27  1  0
  6 28  1  0
 11 29  1  0
 12 30  1  0
 13 31  1  0
 14 32  1  0
 15 33  1  0
 15 34  1  0
 15 35  1  0
 17 36  1  0
 17 37  1  0
 18 38  1  0
 18 39  1  0
 19 40  1  6
 20 41  1  0
 20 42  1  0
 21 43  1  0
 21 44  1  0
 22 45  1  0
 22 46  1  0
 23 47  1  0
 23 48  1  0
 24 49  1  1
 25 50  1  0
 25 51  1  0
 25 52  1  0
M  CHG  1  24   1
M  END
>  <score>  (8) 
-7.757

$$$$
=
     RDKit          3D

 52 55  0  0  0  0  0  0  0  0999 V2000
    1.4730   61.6150   76.3070 C   0  0  0  0  0  0  0  0  0  0  0  0
    0.9250   62.8560   76.0190 C   0  0  0  0  0  0  0  0  0  0  0  0
    0.9610   63.3360   74.7110 C   0  0  0  0  0  0  0  0  0  0  0  0
    1.5270   62.5800   73.6700 C   0  0  0  0  0  0  0  0  0  0  0  0
    2.0620   61.3020   73.9170 C   0  0  0  0  0  0  0  0  0  0  0  0
    2.0230   60.8570   75.2600 C   0  0  0  0  0  0  0  0  0  0  0  0
    2.6410   60.5120   72.8780 N   0  0  0  0  0  0  0  0  0  0  0  0
    2.9450   60.9780   71.5660 C   0  0  0  0  0  0  0  0  0  0  0  0
    2.4930   62.2310   71.1020 C   0  0  0  0  0  0  0  0  0  0  0  0
    1.4640   63.3180   72.0580 S   0  0  0  0  0  0  0  0  0  0  0  0
    2.8140   62.6830   69.8080 C   0  0  0  0  0  0  0  0  0  0  0  0
    3.5940   61.9150   68.9520 C   0  0  0  0  0  0  0  0  0  0  0  0
    4.0630   60.6860   69.3870 C   0  0  0  0  0  0  0  0  0  0  0  0
    3.7440   60.2310   70.6730 C   0  0  0  0  0  0  0  0  0  0  0  0
    0.5740   62.1230   78.9100 C   0  0  0  0  0  0  0  0  0  0  0  0
    1.4850   60.8860   77.9410 S   0  0  0  0  0  0  0  0  0  0  0  0
    2.6710   59.0540   73.1020 C   0  0  0  0  0  0  0  0  0  0  0  0
    1.2570   58.4590   73.1870 C   0  0  0  0  0  0  0  0  0  0  0  0
    1.2560   56.9370   73.3960 C   0  0  2  0  0  0  0  0  0  0  0  0
   -0.1560   56.4070   73.6790 C   0  0  0  0  0  0  0  0  0  0  0  0
   -0.1720   54.8900   73.8430 C   0  0  0  0  0  0  0  0  0  0  0  0
    0.8370   54.4200   74.8830 C   0  0  0  0  0  0  0  0  0  0  0  0
    2.2290   54.9630   74.6050 C   0  0  0  0  0  0  0  0  0  0  0  0
    2.2080   56.4800   74.4990 N   0  0  2  0  0  4  0  0  0  0  0  0
    2.0350   57.1380   75.8480 C   0  0  0  0  0  0  0  0  0  0  0  0
    0.4652   63.4572   76.8172 H   0  0  0  0  0  0  0  0  0  0  0  0
    0.5378   64.3267   74.4888 H   0  0  0  0  0  0  0  0  0  0  0  0
    2.4443   59.8686   75.4956 H   0  0  0  0  0  0  0  0  0  0  0  0
    2.4411   63.6607   69.4688 H   0  0  0  0  0  0  0  0  0  0  0  0
    3.8359   62.2781   67.9422 H   0  0  0  0  0  0  0  0  0  0  0  0
    4.6854   60.0680   68.7231 H   0  0  0  0  0  0  0  0  0  0  0  0
    4.1308   59.2544   70.9996 H   0  0  0  0  0  0  0  0  0  0  0  0
    0.7182   61.9272   79.9828 H   0  0  0  0  0  0  0  0  0  0  0  0
    0.9492   63.1281   78.6670 H   0  0  0  0  0  0  0  0  0  0  0  0
   -0.4971   62.0629   78.6670 H   0  0  0  0  0  0  0  0  0  0  0  0
    3.2082   58.5771   72.2690 H   0  0  0  0  0  0  0  0  0  0  0  0
    3.1784   58.8663   74.0598 H   0  0  0  0  0  0  0  0  0  0  0  0
    0.7295   58.9287   74.0303 H   0  0  0  0  0  0  0  0  0  0  0  0
    0.7584   58.6589   72.2271 H   0  0  0  0  0  0  0  0  0  0  0  0
    1.6198   56.5118   72.4490 H   0  0  0  0  0  0  0  0  0  0  0  0
   -0.5303   56.8687   74.6046 H   0  0  0  0  0  0  0  0  0  0  0  0
   -0.7949   56.6639   72.8212 H   0  0  0  0  0  0  0  0  0  0  0  0
   -1.1786   54.5770   74.1573 H   0  0  0  0  0  0  0  0  0  0  0  0
    0.0998   54.4399   72.8768 H   0  0  0  0  0  0  0  0  0  0  0  0
    0.5120   54.7650   75.8757 H   0  0  0  0  0  0  0  0  0  0  0  0
    0.8840   53.3218   74.8417 H   0  0  0  0  0  0  0  0  0  0  0  0
    2.9009   54.6684   75.4246 H   0  0  0  0  0  0  0  0  0  0  0  0
    2.5839   54.5486   73.6498 H   0  0  0  0  0  0  0  0  0  0  0  0
    3.1324   56.8153   74.1923 H   0  0  0  0  0  0  0  0  0  0  0  0
    2.2285   56.4021   76.6424 H   0  0  0  0  0  0  0  0  0  0  0  0
    2.7439   57.9738   75.9419 H   0  0  0  0  0  0  0  0  0  0  0  0
    1.0067   57.5171   75.9419 H   0  0  0  0  0  0  0  0  0  0  0  0
  2  1  2  0
  3  2  1  0
  4  3  2  0
  5  4  1  0
  6  5  2  0
  6  1  1  0
  7  5  1  0
  8  7  1  0
  9  8  2  0
 10  4  1  0
 10  9  1  0
 11  9  1  0
 12 11  2  0
 13 12  1  0
 14  8  1  0
 14 13  2  0
 16 15  1  0
 16  1  1  0
 17  7  1  0
 18 17  1  0
 19 18  1  0
 20 19  1  0
 21 20  1  0
 22 21  1  0
 23 22  1  0
 24 23  1  0
 24 19  1  0
 25 24  1  0
  2 26  1  0
  3 27  1  0
  6 28  1  0
 11 29  1  0
 12 30  1  0
 13 31  1  0
 14 32  1  0
 15 33  1  0
 15 34  1  0
 15 35  1  0
 17 36  1  0
 17 37  1  0
 18 38  1  0
 18 39  1  0
 19 40  1  6
 20 41  1  0
 20 42  1  0
 21 43  1  0
 21 44  1  0
 22 45  1  0
 22 46  1  0
 23 47  1  0
 23 48  1  0
 24 49  1  6
 25 50  1  0
 25 51  1  0
 25 52  1  0
M  CHG  1  24   1
M  END
>  <score>  (9) 
-7.509

$$$$
