=
     RDKit          3D

 33 35  0  0  0  0  0  0  0  0999 V2000
    1.8880   69.0830   66.0270 O   0  0  0  0  0  0  0  0  0  0  0  0
    2.8940   69.4400   66.5980 C   0  0  0  0  0  0  0  0  0  0  0  0
    3.0380   69.7860   68.0990 C   0  0  0  0  0  0  0  0  0  0  0  0
    2.1760   69.7270   68.9420 O   0  0  0  0  0  0  0  0  0  0  0  0
    4.4400   70.1680   68.2720 C   0  0  0  0  0  0  0  0  0  0  0  0
    5.0660   70.0490   67.0270 C   0  0  0  0  0  0  0  0  0  0  0  0
    4.1590   69.5930   66.0550 N   0  0  0  0  0  0  0  0  0  0  0  0
    6.4030   70.3700   66.8870 C   0  0  0  0  0  0  0  0  0  0  0  0
    7.0930   70.8000   68.0290 C   0  0  0  0  0  0  0  0  0  0  0  0
    6.4490   70.9030   69.2770 C   0  0  0  0  0  0  0  0  0  0  0  0
    5.0980   70.5860   69.4100 C   0  0  0  0  0  0  0  0  0  0  0  0
    4.4090   69.4440   64.6600 C   0  0  0  0  0  0  0  0  0  0  0  0
    3.7790   68.1770   64.1740 N   0  0  0  0  0  4  0  0  0  0  0  0
    3.0040   68.3300   62.8590 C   0  0  0  0  0  0  0  0  0  0  0  0
    3.8480   67.8470   61.6790 C   0  0  0  0  0  0  0  0  0  0  0  0
    4.2090   66.4630   61.7830 O   0  0  0  0  0  0  0  0  0  0  0  0
    4.3230   65.9690   63.1200 C   0  0  0  0  0  0  0  0  0  0  0  0
    4.7980   67.0420   64.1000 C   0  0  0  0  0  0  0  0  0  0  0  0
    6.9082   70.2908   65.9131 H   0  0  0  0  0  0  0  0  0  0  0  0
    8.1583   71.0621   67.9486 H   0  0  0  0  0  0  0  0  0  0  0  0
    7.0183   71.2373   70.1568 H   0  0  0  0  0  0  0  0  0  0  0  0
    4.5807   70.6655   70.3775 H   0  0  0  0  0  0  0  0  0  0  0  0
    3.9797   70.2989   64.1170 H   0  0  0  0  0  0  0  0  0  0  0  0
    5.4941   69.4056   64.4836 H   0  0  0  0  0  0  0  0  0  0  0  0
    3.0705   67.9299   64.8796 H   0  0  0  0  0  0  0  0  0  0  0  0
    2.0810   67.7339   62.9116 H   0  0  0  0  0  0  0  0  0  0  0  0
    2.7619   69.3928   62.7110 H   0  0  0  0  0  0  0  0  0  0  0  0
    3.2723   67.9913   60.7529 H   0  0  0  0  0  0  0  0  0  0  0  0
    4.7791   68.4326   61.6764 H   0  0  0  0  0  0  0  0  0  0  0  0
    3.3382   65.6035   63.4466 H   0  0  0  0  0  0  0  0  0  0  0  0
    5.0717   65.1631   63.1168 H   0  0  0  0  0  0  0  0  0  0  0  0
    4.9174   66.5953   65.0981 H   0  0  0  0  0  0  0  0  0  0  0  0
    5.7601   67.4456   63.7516 H   0  0  0  0  0  0  0  0  0  0  0  0
  2  1  2  0
  3  2  1  0
  4  3  2  0
  5  3  1  0
  6  5  2  0
  7  6  1  0
  7  2  1  0
  8  6  1  0
  9  8  2  0
 10  9  1  0
 11  5  1  0
 11 10  2  0
 12  7  1  0
 13 12  1  0
 14 13  1  0
 15 14  1  0
 16 15  1  0
 17 16  1  0
 18 17  1  0
 18 13  1  0
  8 19  1  0
  9 20  1  0
 10 21  1  0
 11 22  1  0
 12 23  1  0
 12 24  1  0
 13 25  1  0
 14 26  1  0
 14 27  1  0
 15 28  1  0
 15 29  1  0
 17 30  1  0
 17 31  1  0
 18 32  1  0
 18 33  1  0
M  CHG  1  13   1
M  END
>  <score>  (1) 
-8.878

$$$$
=
     RDKit          3D

 33 35  0  0  0  0  0  0  0  0999 V2000
    2.5240   69.0060   65.1280 O   0  0  0  0  0  0  0  0  0  0  0  0
    3.3500   69.3850   65.9300 C   0  0  0  0  0  0  0  0  0  0  0  0
    4.8560   69.6210   65.6710 C   0  0  0  0  0  0  0  0  0  0  0  0
    5.4400   69.4920   64.6230 O   0  0  0  0  0  0  0  0  0  0  0  0
    5.4020   70.0570   66.9570 C   0  0  0  0  0  0  0  0  0  0  0  0
    4.3460   70.0940   67.8720 C   0  0  0  0  0  0  0  0  0  0  0  0
    3.1380   69.7260   67.2560 N   0  0  0  0  0  0  0  0  0  0  0  0
    4.5770   70.4540   69.1880 C   0  0  0  0  0  0  0  0  0  0  0  0
    5.8890   70.7870   69.5510 C   0  0  0  0  0  0  0  0  0  0  0  0
    6.9390   70.7540   68.6120 C   0  0  0  0  0  0  0  0  0  0  0  0
    6.7010   70.3820   67.2900 C   0  0  0  0  0  0  0  0  0  0  0  0
    1.8740   69.5560   67.8900 C   0  0  0  0  0  0  0  0  0  0  0  0
    1.2590   68.2680   67.4390 N   0  0  0  0  0  4  0  0  0  0  0  0
    1.5640   67.0770   68.3580 C   0  0  0  0  0  0  0  0  0  0  0  0
    0.3840   66.8050   69.2920 C   0  0  0  0  0  0  0  0  0  0  0  0
   -0.8210   66.4800   68.5850 O   0  0  0  0  0  0  0  0  0  0  0  0
   -0.9320   67.0640   67.2850 C   0  0  0  0  0  0  0  0  0  0  0  0
   -0.2400   68.4230   67.1930 C   0  0  0  0  0  0  0  0  0  0  0  0
    3.7594   70.4780   69.9235 H   0  0  0  0  0  0  0  0  0  0  0  0
    6.1033   71.0799   70.5894 H   0  0  0  0  0  0  0  0  0  0  0  0
    7.9579   71.0248   68.9258 H   0  0  0  0  0  0  0  0  0  0  0  0
    7.5111   70.3490   66.5466 H   0  0  0  0  0  0  0  0  0  0  0  0
    2.0110   69.5346   68.9812 H   0  0  0  0  0  0  0  0  0  0  0  0
    1.2128   70.3925   67.6199 H   0  0  0  0  0  0  0  0  0  0  0  0
    1.7110   68.0420   66.5415 H   0  0  0  0  0  0  0  0  0  0  0  0
    1.7523   66.1844   67.7433 H   0  0  0  0  0  0  0  0  0  0  0  0
    2.4506   67.3137   68.9646 H   0  0  0  0  0  0  0  0  0  0  0  0
    0.6435   65.9626   69.9500 H   0  0  0  0  0  0  0  0  0  0  0  0
    0.1947   67.7257   69.8633 H   0  0  0  0  0  0  0  0  0  0  0  0
   -0.4727   66.3840   66.5524 H   0  0  0  0  0  0  0  0  0  0  0  0
   -2.0013   67.2188   67.0783 H   0  0  0  0  0  0  0  0  0  0  0  0
   -0.4021   68.8464   66.1908 H   0  0  0  0  0  0  0  0  0  0  0  0
   -0.6620   69.0935   67.9561 H   0  0  0  0  0  0  0  0  0  0  0  0
  2  1  2  0
  3  2  1  0
  4  3  2  0
  5  3  1  0
  6  5  2  0
  7  6  1  0
  7  2  1  0
  8  6  1  0
  9  8  2  0
 10  9  1  0
 11  5  1  0
 11 10  2  0
 12  7  1  0
 13 12  1  0
 14 13  1  0
 15 14  1  0
 16 15  1  0
 17 16  1  0
 18 17  1  0
 18 13  1  0
  8 19  1  0
  9 20  1  0
 10 21  1  0
 11 22  1  0
 12 23  1  0
 12 24  1  0
 13 25  1  0
 14 26  1  0
 14 27  1  0
 15 28  1  0
 15 29  1  0
 17 30  1  0
 17 31  1  0
 18 32  1  0
 18 33  1  0
M  CHG  1  13   1
M  END
>  <score>  (2) 
-8.871

$$$$
=
     RDKit          3D

 33 35  0  0  0  0  0  0  0  0999 V2000
    3.5060   70.6250   69.7950 O   0  0  0  0  0  0  0  0  0  0  0  0
    3.7410   70.2870   68.6560 C   0  0  0  0  0  0  0  0  0  0  0  0
    5.1160   70.3020   67.9460 C   0  0  0  0  0  0  0  0  0  0  0  0
    6.1750   70.6260   68.4260 O   0  0  0  0  0  0  0  0  0  0  0  0
    4.8520   69.8170   66.5910 C   0  0  0  0  0  0  0  0  0  0  0  0
    3.4870   69.5290   66.5040 C   0  0  0  0  0  0  0  0  0  0  0  0
    2.8460   69.7800   67.7290 N   0  0  0  0  0  0  0  0  0  0  0  0
    2.9470   69.0680   65.3170 C   0  0  0  0  0  0  0  0  0  0  0  0
    3.8150   68.8940   64.2310 C   0  0  0  0  0  0  0  0  0  0  0  0
    5.1900   69.1780   64.3400 C   0  0  0  0  0  0  0  0  0  0  0  0
    5.7270   69.6500   65.5370 C   0  0  0  0  0  0  0  0  0  0  0  0
    1.4480   69.6960   67.9920 C   0  0  0  0  0  0  0  0  0  0  0  0
    0.9130   68.4120   67.4390 N   0  0  0  0  0  4  0  0  0  0  0  0
    1.2420   67.1810   68.2930 C   0  0  0  0  0  0  0  0  0  0  0  0
    0.0440   66.7950   69.1620 C   0  0  0  0  0  0  0  0  0  0  0  0
   -1.1170   66.4600   68.3900 O   0  0  0  0  0  0  0  0  0  0  0  0
   -1.2100   67.1190   67.1250 C   0  0  0  0  0  0  0  0  0  0  0  0
   -0.5820   68.5120   67.1440 C   0  0  0  0  0  0  0  0  0  0  0  0
    1.8733   68.8457   65.2287 H   0  0  0  0  0  0  0  0  0  0  0  0
    3.4144   68.5282   63.2741 H   0  0  0  0  0  0  0  0  0  0  0  0
    5.8475   69.0258   63.4714 H   0  0  0  0  0  0  0  0  0  0  0  0
    6.7984   69.8786   65.6366 H   0  0  0  0  0  0  0  0  0  0  0  0
    1.2766   69.7272   69.0781 H   0  0  0  0  0  0  0  0  0  0  0  0
    0.9335   70.5434   67.5153 H   0  0  0  0  0  0  0  0  0  0  0  0
    1.4080   68.2652   66.5477 H   0  0  0  0  0  0  0  0  0  0  0  0
    1.4956   66.3392   67.6318 H   0  0  0  0  0  0  0  0  0  0  0  0
    2.0934   67.4197   68.9473 H   0  0  0  0  0  0  0  0  0  0  0  0
    0.3208   65.9253   69.7760 H   0  0  0  0  0  0  0  0  0  0  0  0
   -0.2106   67.6674   69.7818 H   0  0  0  0  0  0  0  0  0  0  0  0
   -0.6923   66.5088   66.3703 H   0  0  0  0  0  0  0  0  0  0  0  0
   -2.2774   67.2365   66.8867 H   0  0  0  0  0  0  0  0  0  0  0  0
   -0.7279   68.9898   66.1640 H   0  0  0  0  0  0  0  0  0  0  0  0
   -1.0637   69.1124   67.9298 H   0  0  0  0  0  0  0  0  0  0  0  0
  2  1  2  0
  3  2  1  0
  4  3  2  0
  5  3  1  0
  6  5  2  0
  7  6  1  0
  7  2  1  0
  8  6  1  0
  9  8  2  0
 10  9  1  0
 11  5  1  0
 11 10  2  0
 12  7  1  0
 13 12  1  0
 14 13  1  0
 15 14  1  0
 16 15  1  0
 17 16  1  0
 18 17  1  0
 18 13  1  0
  8 19  1  0
  9 20  1  0
 10 21  1  0
 11 22  1  0
 12 23  1  0
 12 24  1  0
 13 25  1  0
 14 26  1  0
 14 27  1  0
 15 28  1  0
 15 29  1  0
 17 30  1  0
 17 31  1  0
 18 32  1  0
 18 33  1  0
M  CHG  1  13   1
M  END
>  <score>  (3) 
-8.593

$$$$
=
     RDKit          3D

 33 35  0  0  0  0  0  0  0  0999 V2000
    0.0120   68.1970   63.6330 O   0  0  0  0  0  0  0  0  0  0  0  0
    1.1550   68.4810   63.9200 C   0  0  0  0  0  0  0  0  0  0  0  0
    2.3690   68.5290   62.9630 C   0  0  0  0  0  0  0  0  0  0  0  0
    2.3630   68.3180   61.7740 O   0  0  0  0  0  0  0  0  0  0  0  0
    3.5040   68.9090   63.8030 C   0  0  0  0  0  0  0  0  0  0  0  0
    3.0260   69.0850   65.1050 C   0  0  0  0  0  0  0  0  0  0  0  0
    1.6400   68.8610   65.1600 N   0  0  0  0  0  0  0  0  0  0  0  0
    3.8930   69.4290   66.1250 C   0  0  0  0  0  0  0  0  0  0  0  0
    5.2450   69.6030   65.8000 C   0  0  0  0  0  0  0  0  0  0  0  0
    5.7080   69.4320   64.4800 C   0  0  0  0  0  0  0  0  0  0  0  0
    4.8300   69.0770   63.4580 C   0  0  0  0  0  0  0  0  0  0  0  0
    0.8240   68.8530   66.3290 C   0  0  0  0  0  0  0  0  0  0  0  0
   -0.4630   68.1480   66.0330 N   0  0  0  0  0  4  0  0  0  0  0  0
   -0.6710   66.8650   66.8470 C   0  0  0  0  0  0  0  0  0  0  0  0
   -1.5980   67.1280   68.0350 C   0  0  0  0  0  0  0  0  0  0  0  0
   -2.9000   67.5770   67.6360 O   0  0  0  0  0  0  0  0  0  0  0  0
   -2.9370   68.2980   66.4020 C   0  0  0  0  0  0  0  0  0  0  0  0
   -1.6560   69.0940   66.1520 C   0  0  0  0  0  0  0  0  0  0  0  0
    3.5341   69.5616   67.1563 H   0  0  0  0  0  0  0  0  0  0  0  0
    5.9586   69.8784   66.5905 H   0  0  0  0  0  0  0  0  0  0  0  0
    6.7743   69.5804   64.2540 H   0  0  0  0  0  0  0  0  0  0  0  0
    5.1775   68.9370   62.4238 H   0  0  0  0  0  0  0  0  0  0  0  0
    1.3508   68.3296   67.1405 H   0  0  0  0  0  0  0  0  0  0  0  0
    0.6134   69.8878   66.6368 H   0  0  0  0  0  0  0  0  0  0  0  0
   -0.3936   67.8395   65.0527 H   0  0  0  0  0  0  0  0  0  0  0  0
   -1.1195   66.0955   66.2014 H   0  0  0  0  0  0  0  0  0  0  0  0
    0.3033   66.5221   67.2254 H   0  0  0  0  0  0  0  0  0  0  0  0
   -1.7082   66.1954   68.6078 H   0  0  0  0  0  0  0  0  0  0  0  0
   -1.1432   67.9270   68.6390 H   0  0  0  0  0  0  0  0  0  0  0  0
   -3.0738   67.5816   65.5785 H   0  0  0  0  0  0  0  0  0  0  0  0
   -3.7705   69.0137   66.4572 H   0  0  0  0  0  0  0  0  0  0  0  0
   -1.7602   69.6668   65.2187 H   0  0  0  0  0  0  0  0  0  0  0  0
   -1.4883   69.7793   66.9960 H   0  0  0  0  0  0  0  0  0  0  0  0
  2  1  2  0
  3  2  1  0
  4  3  2  0
  5  3  1  0
  6  5  2  0
  7  6  1  0
  7  2  1  0
  8  6  1  0
  9  8  2  0
 10  9  1  0
 11  5  1  0
 11 10  2  0
 12  7  1  0
 13 12  1  0
 14 13  1  0
 15 14  1  0
 16 15  1  0
 17 16  1  0
 18 17  1  0
 18 13  1  0
  8 19  1  0
  9 20  1  0
 10 21  1  0
 11 22  1  0
 12 23  1  0
 12 24  1  0
 13 25  1  0
 14 26  1  0
 14 27  1  0
 15 28  1  0
 15 29  1  0
 17 30  1  0
 17 31  1  0
 18 32  1  0
 18 33  1  0
M  CHG  1  13   1
M  END
>  <score>  (4) 
-8.153

$$$$
=
     RDKit          3D

 33 35  0  0  0  0  0  0  0  0999 V2000
    2.0250   69.2150   67.5260 O   0  0  0  0  0  0  0  0  0  0  0  0
    2.5730   69.1480   66.4470 C   0  0  0  0  0  0  0  0  0  0  0  0
    4.0540   69.4680   66.1360 C   0  0  0  0  0  0  0  0  0  0  0  0
    4.9030   69.8070   66.9240 O   0  0  0  0  0  0  0  0  0  0  0  0
    4.2000   69.2440   64.6980 C   0  0  0  0  0  0  0  0  0  0  0  0
    2.9600   68.8240   64.2080 C   0  0  0  0  0  0  0  0  0  0  0  0
    2.0160   68.7420   65.2460 N   0  0  0  0  0  0  0  0  0  0  0  0
    2.7970   68.5570   62.8610 C   0  0  0  0  0  0  0  0  0  0  0  0
    3.9130   68.7110   62.0270 C   0  0  0  0  0  0  0  0  0  0  0  0
    5.1580   69.1250   62.5400 C   0  0  0  0  0  0  0  0  0  0  0  0
    5.3130   69.4000   63.8970 C   0  0  0  0  0  0  0  0  0  0  0  0
    0.6290   68.4430   65.1160 C   0  0  0  0  0  0  0  0  0  0  0  0
   -0.0070   68.4290   66.4700 N   0  0  0  0  0  4  0  0  0  0  0  0
   -1.2480   69.3250   66.5850 C   0  0  0  0  0  0  0  0  0  0  0  0
   -2.5240   68.4910   66.4600 C   0  0  0  0  0  0  0  0  0  0  0  0
   -2.6410   67.4960   67.4860 O   0  0  0  0  0  0  0  0  0  0  0  0
   -1.3970   67.0060   67.9940 C   0  0  0  0  0  0  0  0  0  0  0  0
   -0.2940   67.0040   66.9360 C   0  0  0  0  0  0  0  0  0  0  0  0
    1.8254   68.2350   62.4581 H   0  0  0  0  0  0  0  0  0  0  0  0
    3.8148   68.5046   60.9510 H   0  0  0  0  0  0  0  0  0  0  0  0
    6.0173   69.2323   61.8617 H   0  0  0  0  0  0  0  0  0  0  0  0
    6.2784   69.7265   64.3110 H   0  0  0  0  0  0  0  0  0  0  0  0
    0.1457   69.2090   64.4918 H   0  0  0  0  0  0  0  0  0  0  0  0
    0.5091   67.4565   64.6443 H   0  0  0  0  0  0  0  0  0  0  0  0
    0.6876   68.8429   67.1081 H   0  0  0  0  0  0  0  0  0  0  0  0
   -1.2402   69.8306   67.5619 H   0  0  0  0  0  0  0  0  0  0  0  0
   -1.2273   70.0675   65.7737 H   0  0  0  0  0  0  0  0  0  0  0  0
   -3.3915   69.1644   66.5231 H   0  0  0  0  0  0  0  0  0  0  0  0
   -2.4834   67.9668   65.4938 H   0  0  0  0  0  0  0  0  0  0  0  0
   -1.0814   67.6453   68.8317 H   0  0  0  0  0  0  0  0  0  0  0  0
   -1.5535   65.9660   68.3163 H   0  0  0  0  0  0  0  0  0  0  0  0
    0.6212   66.5713   67.3662 H   0  0  0  0  0  0  0  0  0  0  0  0
   -0.6243   66.4047   66.0747 H   0  0  0  0  0  0  0  0  0  0  0  0
  2  1  2  0
  3  2  1  0
  4  3  2  0
  5  3  1  0
  6  5  2  0
  7  6  1  0
  7  2  1  0
  8  6  1  0
  9  8  2  0
 10  9  1  0
 11  5  1  0
 11 10  2  0
 12  7  1  0
 13 12  1  0
 14 13  1  0
 15 14  1  0
 16 15  1  0
 17 16  1  0
 18 17  1  0
 18 13  1  0
  8 19  1  0
  9 20  1  0
 10 21  1  0
 11 22  1  0
 12 23  1  0
 12 24  1  0
 13 25  1  0
 14 26  1  0
 14 27  1  0
 15 28  1  0
 15 29  1  0
 17 30  1  0
 17 31  1  0
 18 32  1  0
 18 33  1  0
M  CHG  1  13   1
M  END
>  <score>  (5) 
-8.114

$$$$
=
     RDKit          3D

 33 35  0  0  0  0  0  0  0  0999 V2000
    5.3810   69.2010   63.9360 O   0  0  0  0  0  0  0  0  0  0  0  0
    4.9850   69.4490   65.0540 C   0  0  0  0  0  0  0  0  0  0  0  0
    5.7250   70.2610   66.1430 C   0  0  0  0  0  0  0  0  0  0  0  0
    6.8010   70.7990   66.0410 O   0  0  0  0  0  0  0  0  0  0  0  0
    4.8300   70.2550   67.3000 C   0  0  0  0  0  0  0  0  0  0  0  0
    3.6830   69.5400   66.9420 C   0  0  0  0  0  0  0  0  0  0  0  0
    3.7680   69.0940   65.6120 N   0  0  0  0  0  0  0  0  0  0  0  0
    2.6640   69.3540   67.8590 C   0  0  0  0  0  0  0  0  0  0  0  0
    2.8240   69.9140   69.1330 C   0  0  0  0  0  0  0  0  0  0  0  0
    3.9820   70.6410   69.4730 C   0  0  0  0  0  0  0  0  0  0  0  0
    5.0090   70.8180   68.5470 C   0  0  0  0  0  0  0  0  0  0  0  0
    2.8370   68.2570   64.9330 C   0  0  0  0  0  0  0  0  0  0  0  0
    1.6010   69.0390   64.6170 N   0  0  0  0  0  4  0  0  0  0  0  0
    1.3920   69.2960   63.1190 C   0  0  0  0  0  0  0  0  0  0  0  0
    0.3820   68.3040   62.5410 C   0  0  0  0  0  0  0  0  0  0  0  0
   -0.9090   68.4020   63.1580 O   0  0  0  0  0  0  0  0  0  0  0  0
   -0.8950   68.8490   64.5160 C   0  0  0  0  0  0  0  0  0  0  0  0
    0.3660   68.4130   65.2610 C   0  0  0  0  0  0  0  0  0  0  0  0
    1.7593   68.7859   67.5967 H   0  0  0  0  0  0  0  0  0  0  0  0
    2.0298   69.7836   69.8828 H   0  0  0  0  0  0  0  0  0  0  0  0
    4.0768   71.0736   70.4799 H   0  0  0  0  0  0  0  0  0  0  0  0
    5.9201   71.3806   68.7988 H   0  0  0  0  0  0  0  0  0  0  0  0
    3.2874   67.8899   63.9990 H   0  0  0  0  0  0  0  0  0  0  0  0
    2.5761   67.4027   65.5749 H   0  0  0  0  0  0  0  0  0  0  0  0
    1.7457   69.9693   65.0347 H   0  0  0  0  0  0  0  0  0  0  0  0
    1.0160   70.3199   62.9764 H   0  0  0  0  0  0  0  0  0  0  0  0
    2.3529   69.1689   62.5989 H   0  0  0  0  0  0  0  0  0  0  0  0
    0.2728   68.5009   61.4643 H   0  0  0  0  0  0  0  0  0  0  0  0
    0.7652   67.2911   62.7339 H   0  0  0  0  0  0  0  0  0  0  0  0
   -0.9493   69.9476   64.5266 H   0  0  0  0  0  0  0  0  0  0  0  0
   -1.7585   68.3972   65.0262 H   0  0  0  0  0  0  0  0  0  0  0  0
    0.2990   68.7375   66.3099 H   0  0  0  0  0  0  0  0  0  0  0  0
    0.4515   67.3174   65.2120 H   0  0  0  0  0  0  0  0  0  0  0  0
  2  1  2  0
  3  2  1  0
  4  3  2  0
  5  3  1  0
  6  5  2  0
  7  6  1  0
  7  2  1  0
  8  6  1  0
  9  8  2  0
 10  9  1  0
 11  5  1  0
 11 10  2  0
 12  7  1  0
 13 12  1  0
 14 13  1  0
 15 14  1  0
 16 15  1  0
 17 16  1  0
 18 17  1  0
 18 13  1  0
  8 19  1  0
  9 20  1  0
 10 21  1  0
 11 22  1  0
 12 23  1  0
 12 24  1  0
 13 25  1  0
 14 26  1  0
 14 27  1  0
 15 28  1  0
 15 29  1  0
 17 30  1  0
 17 31  1  0
 18 32  1  0
 18 33  1  0
M  CHG  1  13   1
M  END
>  <score>  (6) 
-7.779

$$$$
=
     RDKit          3D

 33 35  0  0  0  0  0  0  0  0999 V2000
   -0.1290   69.3850   63.2190 O   0  0  0  0  0  0  0  0  0  0  0  0
   -0.0740   68.9040   64.3300 C   0  0  0  0  0  0  0  0  0  0  0  0
   -1.2660   68.5740   65.2600 C   0  0  0  0  0  0  0  0  0  0  0  0
   -2.4390   68.7190   65.0130 O   0  0  0  0  0  0  0  0  0  0  0  0
   -0.6630   68.0300   66.4760 C   0  0  0  0  0  0  0  0  0  0  0  0
    0.7230   68.0190   66.2920 C   0  0  0  0  0  0  0  0  0  0  0  0
    1.0600   68.5060   65.0180 N   0  0  0  0  0  0  0  0  0  0  0  0
    1.5560   67.5700   67.3010 C   0  0  0  0  0  0  0  0  0  0  0  0
    0.9600   67.1240   68.4880 C   0  0  0  0  0  0  0  0  0  0  0  0
   -0.4400   67.1330   68.6520 C   0  0  0  0  0  0  0  0  0  0  0  0
   -1.2730   67.5940   67.6340 C   0  0  0  0  0  0  0  0  0  0  0  0
    2.3730   68.7320   64.5120 C   0  0  0  0  0  0  0  0  0  0  0  0
    2.7080   67.6730   63.5080 N   0  0  0  0  0  4  0  0  0  0  0  0
    3.4320   68.2020   62.2630 C   0  0  0  0  0  0  0  0  0  0  0  0
    4.9370   67.9570   62.3730 C   0  0  0  0  0  0  0  0  0  0  0  0
    5.2680   66.5650   62.4790 O   0  0  0  0  0  0  0  0  0  0  0  0
    4.2650   65.7540   63.0960 C   0  0  0  0  0  0  0  0  0  0  0  0
    3.4660   66.5150   64.1530 C   0  0  0  0  0  0  0  0  0  0  0  0
    2.6488   67.5633   67.1757 H   0  0  0  0  0  0  0  0  0  0  0  0
    1.5968   66.7598   69.3077 H   0  0  0  0  0  0  0  0  0  0  0  0
   -0.8798   66.7723   69.5935 H   0  0  0  0  0  0  0  0  0  0  0  0
   -2.3669   67.6095   67.7487 H   0  0  0  0  0  0  0  0  0  0  0  0
    2.4159   69.7204   64.0311 H   0  0  0  0  0  0  0  0  0  0  0  0
    3.0969   68.6961   65.3394 H   0  0  0  0  0  0  0  0  0  0  0  0
    1.8041   67.3164   63.1662 H   0  0  0  0  0  0  0  0  0  0  0  0
    3.0454   67.6848   61.3725 H   0  0  0  0  0  0  0  0  0  0  0  0
    3.2532   69.2843   62.1810 H   0  0  0  0  0  0  0  0  0  0  0  0
    5.4261   68.3672   61.4772 H   0  0  0  0  0  0  0  0  0  0  0  0
    5.2864   68.4511   63.2916 H   0  0  0  0  0  0  0  0  0  0  0  0
    3.5725   65.3975   62.3192 H   0  0  0  0  0  0  0  0  0  0  0  0
    4.7735   64.9182   63.5989 H   0  0  0  0  0  0  0  0  0  0  0  0
    2.7480   65.8306   64.6284 H   0  0  0  0  0  0  0  0  0  0  0  0
    4.1590   66.9154   64.9076 H   0  0  0  0  0  0  0  0  0  0  0  0
  2  1  2  0
  3  2  1  0
  4  3  2  0
  5  3  1  0
  6  5  2  0
  7  6  1  0
  7  2  1  0
  8  6  1  0
  9  8  2  0
 10  9  1  0
 11  5  1  0
 11 10  2  0
 12  7  1  0
 13 12  1  0
 14 13  1  0
 15 14  1  0
 16 15  1  0
 17 16  1  0
 18 17  1  0
 18 13  1  0
  8 19  1  0
  9 20  1  0
 10 21  1  0
 11 22  1  0
 12 23  1  0
 12 24  1  0
 13 25  1  0
 14 26  1  0
 14 27  1  0
 15 28  1  0
 15 29  1  0
 17 30  1  0
 17 31  1  0
 18 32  1  0
 18 33  1  0
M  CHG  1  13   1
M  END
>  <score>  (7) 
-7.499

$$$$
=
     RDKit          3D

 33 35  0  0  0  0  0  0  0  0999 V2000
   -0.7490   68.8020   63.4020 O   0  0  0  0  0  0  0  0  0  0  0  0
    0.4260   68.5720   63.2170 C   0  0  0  0  0  0  0  0  0  0  0  0
    1.2780   69.0040   62.0010 C   0  0  0  0  0  0  0  0  0  0  0  0
    0.9120   69.6620   61.0570 O   0  0  0  0  0  0  0  0  0  0  0  0
    2.6140   68.4670   62.2590 C   0  0  0  0  0  0  0  0  0  0  0  0
    2.5730   67.8070   63.4910 C   0  0  0  0  0  0  0  0  0  0  0  0
    1.2920   67.8980   64.0620 N   0  0  0  0  0  0  0  0  0  0  0  0
    3.7020   67.1790   63.9830 C   0  0  0  0  0  0  0  0  0  0  0  0
    4.8710   67.2420   63.2120 C   0  0  0  0  0  0  0  0  0  0  0  0
    4.8970   67.9210   61.9770 C   0  0  0  0  0  0  0  0  0  0  0  0
    3.7520   68.5460   61.4840 C   0  0  0  0  0  0  0  0  0  0  0  0
    0.8470   67.2690   65.2610 C   0  0  0  0  0  0  0  0  0  0  0  0
    0.7400   68.2910   66.3490 N   0  0  0  0  0  4  0  0  0  0  0  0
    0.0640   67.7730   67.6260 C   0  0  0  0  0  0  0  0  0  0  0  0
    1.1140   67.4050   68.6760 C   0  0  0  0  0  0  0  0  0  0  0  0
    1.9250   68.5210   69.0650 O   0  0  0  0  0  0  0  0  0  0  0  0
    2.1010   69.5200   68.0570 C   0  0  0  0  0  0  0  0  0  0  0  0
    2.0930   68.9320   66.6460 C   0  0  0  0  0  0  0  0  0  0  0  0
    3.6836   66.6482   64.9463 H   0  0  0  0  0  0  0  0  0  0  0  0
    5.7855   66.7522   63.5777 H   0  0  0  0  0  0  0  0  0  0  0  0
    5.8303   67.9583   61.3960 H   0  0  0  0  0  0  0  0  0  0  0  0
    3.7563   69.0777   60.5210 H   0  0  0  0  0  0  0  0  0  0  0  0
   -0.1380   66.8099   65.0907 H   0  0  0  0  0  0  0  0  0  0  0  0
    1.5669   66.4917   65.5569 H   0  0  0  0  0  0  0  0  0  0  0  0
    0.1109   69.0208   65.9849 H   0  0  0  0  0  0  0  0  0  0  0  0
   -0.5938   68.5563   68.0307 H   0  0  0  0  0  0  0  0  0  0  0  0
   -0.5225   66.8757   67.3794 H   0  0  0  0  0  0  0  0  0  0  0  0
    0.5990   67.0172   69.5672 H   0  0  0  0  0  0  0  0  0  0  0  0
    1.7794   66.6516   68.2292 H   0  0  0  0  0  0  0  0  0  0  0  0
    1.2844   70.2524   68.1391 H   0  0  0  0  0  0  0  0  0  0  0  0
    3.0821   69.9904   68.2187 H   0  0  0  0  0  0  0  0  0  0  0  0
    2.2829   69.7338   65.9173 H   0  0  0  0  0  0  0  0  0  0  0  0
    2.8774   68.1642   66.5730 H   0  0  0  0  0  0  0  0  0  0  0  0
  2  1  2  0
  3  2  1  0
  4  3  2  0
  5  3  1  0
  6  5  2  0
  7  6  1  0
  7  2  1  0
  8  6  1  0
  9  8  2  0
 10  9  1  0
 11  5  1  0
 11 10  2  0
 12  7  1  0
 13 12  1  0
 14 13  1  0
 15 14  1  0
 16 15  1  0
 17 16  1  0
 18 17  1  0
 18 13  1  0
  8 19  1  0
  9 20  1  0
 10 21  1  0
 11 22  1  0
 12 23  1  0
 12 24  1  0
 13 25  1  0
 14 26  1  0
 14 27  1  0
 15 28  1  0
 15 29  1  0
 17 30  1  0
 17 31  1  0
 18 32  1  0
 18 33  1  0
M  CHG  1  13   1
M  END
>  <score>  (8) 
-7.092

$$$$
=
     RDKit          3D

 33 35  0  0  0  0  0  0  0  0999 V2000
    5.5840   61.3300   71.9800 O   0  0  0  0  0  0  0  0  0  0  0  0
    4.5660   61.9650   71.8140 C   0  0  0  0  0  0  0  0  0  0  0  0
    4.3240   63.0770   70.7660 C   0  0  0  0  0  0  0  0  0  0  0  0
    5.1030   63.4680   69.9320 O   0  0  0  0  0  0  0  0  0  0  0  0
    2.9490   63.5240   70.9930 C   0  0  0  0  0  0  0  0  0  0  0  0
    2.4240   62.7600   72.0390 C   0  0  0  0  0  0  0  0  0  0  0  0
    3.3690   61.8260   72.4970 N   0  0  0  0  0  0  0  0  0  0  0  0
    1.1340   62.9840   72.4860 C   0  0  0  0  0  0  0  0  0  0  0  0
    0.3880   63.9830   71.8470 C   0  0  0  0  0  0  0  0  0  0  0  0
    0.9300   64.7360   70.7870 C   0  0  0  0  0  0  0  0  0  0  0  0
    2.2330   64.5110   70.3470 C   0  0  0  0  0  0  0  0  0  0  0  0
    3.2280   60.9460   73.6090 C   0  0  0  0  0  0  0  0  0  0  0  0
    3.4670   59.5380   73.1620 N   0  0  0  0  0  4  0  0  0  0  0  0
    3.6180   58.5360   74.3140 C   0  0  0  0  0  0  0  0  0  0  0  0
    2.3100   57.7770   74.5410 C   0  0  0  0  0  0  0  0  0  0  0  0
    1.8990   57.0220   73.3930 O   0  0  0  0  0  0  0  0  0  0  0  0
    2.3190   57.5600   72.1360 C   0  0  0  0  0  0  0  0  0  0  0  0
    2.4110   59.0860   72.1560 C   0  0  0  0  0  0  0  0  0  0  0  0
    0.7089   62.3981   73.3143 H   0  0  0  0  0  0  0  0  0  0  0  0
   -0.6412   64.1833   72.1796 H   0  0  0  0  0  0  0  0  0  0  0  0
    0.3179   65.5102   70.3012 H   0  0  0  0  0  0  0  0  0  0  0  0
    2.6706   65.0933   69.5227 H   0  0  0  0  0  0  0  0  0  0  0  0
    3.9606   61.2142   74.3845 H   0  0  0  0  0  0  0  0  0  0  0  0
    2.2115   61.0334   74.0202 H   0  0  0  0  0  0  0  0  0  0  0  0
    4.3812   59.5480   72.6876 H   0  0  0  0  0  0  0  0  0  0  0  0
    4.4144   57.8184   74.0672 H   0  0  0  0  0  0  0  0  0  0  0  0
    3.8731   59.0861   75.2318 H   0  0  0  0  0  0  0  0  0  0  0  0
    2.4468   57.0857   75.3857 H   0  0  0  0  0  0  0  0  0  0  0  0
    1.5264   58.5214   74.7456 H   0  0  0  0  0  0  0  0  0  0  0  0
    3.3094   57.1497   71.8895 H   0  0  0  0  0  0  0  0  0  0  0  0
    1.5674   57.2794   71.3834 H   0  0  0  0  0  0  0  0  0  0  0  0
    2.6862   59.4465   71.1538 H   0  0  0  0  0  0  0  0  0  0  0  0
    1.4353   59.5004   72.4496 H   0  0  0  0  0  0  0  0  0  0  0  0
  2  1  2  0
  3  2  1  0
  4  3  2  0
  5  3  1  0
  6  5  2  0
  7  6  1  0
  7  2  1  0
  8  6  1  0
  9  8  2  0
 10  9  1  0
 11  5  1  0
 11 10  2  0
 12  7  1  0
 13 12  1  0
 14 13  1  0
 15 14  1  0
 16 15  1  0
 17 16  1  0
 18 17  1  0
 18 13  1  0
  8 19  1  0
  9 20  1  0
 10 21  1  0
 11 22  1  0
 12 23  1  0
 12 24  1  0
 13 25  1  0
 14 26  1  0
 14 27  1  0
 15 28  1  0
 15 29  1  0
 17 30  1  0
 17 31  1  0
 18 32  1  0
 18 33  1  0
M  CHG  1  13   1
M  END
>  <score>  (9) 
-6.869

$$$$
