=
     RDKit          3D

 98101  0  0  0  0  0  0  0  0999 V2000
    0.2870   62.6850   72.9420 C   0  0  1  0  0  0  0  0  0  0  0  0
   -0.5950   62.7220   74.1260 N   0  0  0  0  0  0  0  0  0  0  0  0
   -0.3710   63.5390   75.2120 C   0  0  0  0  0  0  0  0  0  0  0  0
    0.5430   64.3680   75.2420 O   0  0  0  0  0  0  0  0  0  0  0  0
   -1.3980   63.4110   76.3650 C   0  0  1  0  0  0  0  0  0  0  0  0
   -2.4730   62.5790   75.8170 N   0  0  0  0  0  0  0  0  0  0  0  0
   -3.7760   62.8240   76.1620 C   0  0  0  0  0  0  0  0  0  0  0  0
   -4.0620   63.6040   77.0660 O   0  0  0  0  0  0  0  0  0  0  0  0
   -4.7240   62.1310   75.4310 N   0  0  0  0  0  0  0  0  0  0  0  0
   -6.1310   62.3440   75.7260 C   0  0  0  0  0  0  0  0  0  0  0  0
   -4.4260   61.1950   74.3440 C   0  0  0  0  0  0  0  0  0  0  0  0
   -3.6420   60.0020   74.8260 C   0  0  0  0  0  0  0  0  0  0  0  0
   -4.0260   59.0360   75.7390 C   0  0  0  0  0  0  0  0  0  0  0  0
   -2.7860   57.8800   75.9520 S   0  0  0  0  0  0  0  0  0  0  0  0
   -1.8080   58.7310   74.8220 C   0  0  0  0  0  0  0  0  0  0  0  0
   -2.3670   59.8070   74.3040 N   0  0  0  0  0  0  0  0  0  0  0  0
   -0.4110   58.2760   74.4730 C   0  0  0  0  0  0  0  0  0  0  0  0
    0.5610   58.4820   75.6340 C   0  0  0  0  0  0  0  0  0  0  0  0
   -0.3750   56.8320   73.9720 C   0  0  0  0  0  0  0  0  0  0  0  0
   -0.7820   62.7360   77.6130 C   0  0  0  0  0  0  0  0  0  0  0  0
   -1.2670   63.3590   78.9260 C   0  0  0  0  0  0  0  0  0  0  0  0
   -1.1040   61.2360   77.6350 C   0  0  0  0  0  0  0  0  0  0  0  0
    0.3870   61.2380   72.3990 C   0  0  0  0  0  0  0  0  0  0  0  0
    1.7120   60.5650   72.6790 C   0  0  0  0  0  0  0  0  0  0  0  0
    2.6960   61.2210   73.4330 C   0  0  0  0  0  0  0  0  0  0  0  0
    3.9260   60.6100   73.6780 C   0  0  0  0  0  0  0  0  0  0  0  0
    4.1850   59.3370   73.1750 C   0  0  0  0  0  0  0  0  0  0  0  0
    3.2120   58.6720   72.4330 C   0  0  0  0  0  0  0  0  0  0  0  0
    1.9800   59.2800   72.1870 C   0  0  0  0  0  0  0  0  0  0  0  0
   -0.2450   63.6130   71.8200 C   0  0  0  0  0  0  0  0  0  0  0  0
    0.4950   64.9630   71.6330 C   0  0  2  0  0  0  0  0  0  0  0  0
   -0.3900   66.0840   71.6320 O   0  0  0  0  0  0  0  0  0  0  0  0
    1.3840   64.9740   70.3510 C   0  0  1  0  0  0  0  0  0  0  0  0
   -0.7650   65.9760   68.6580 O   0  0  0  0  0  0  0  0  0  0  0  0
    0.2230   66.6480   68.9050 C   0  0  0  0  0  0  0  0  0  0  0  0
    1.2710   66.2640   69.6720 N   0  0  0  0  0  0  0  0  0  0  0  0
    0.4500   67.9030   68.4600 O   0  0  0  0  0  0  0  0  0  0  0  0
    1.5410   68.0100   67.5460 C   0  0  0  0  0  0  0  0  0  0  0  0
    0.9310   68.3040   66.2180 C   0  0  0  0  0  0  0  0  0  0  0  0
   -0.4000   68.4770   65.8900 C   0  0  0  0  0  0  0  0  0  0  0  0
   -0.6640   68.7220   64.5560 N   0  0  0  0  0  0  0  0  0  0  0  0
    0.4680   68.7440   63.8890 C   0  0  0  0  0  0  0  0  0  0  0  0
    1.8910   68.4710   64.8050 S   0  0  0  0  0  0  0  0  0  0  0  0
    2.8680   64.6780   70.6590 C   0  0  0  0  0  0  0  0  0  0  0  0
    3.3000   63.2880   70.2570 C   0  0  0  0  0  0  0  0  0  0  0  0
    2.4450   62.4700   69.5050 C   0  0  0  0  0  0  0  0  0  0  0  0
    2.8370   61.1800   69.1460 C   0  0  0  0  0  0  0  0  0  0  0  0
    4.0850   60.6960   69.5350 C   0  0  0  0  0  0  0  0  0  0  0  0
    4.9420   61.5010   70.2830 C   0  0  0  0  0  0  0  0  0  0  0  0
    4.5520   62.7920   70.6430 C   0  0  0  0  0  0  0  0  0  0  0  0
    1.2818   63.0378   73.2517 H   0  0  0  0  0  0  0  0  0  0  0  0
   -1.4198   62.1053   74.1403 H   0  0  0  0  0  0  0  0  0  0  0  0
   -1.7492   64.3986   76.6986 H   0  0  0  0  0  0  0  0  0  0  0  0
   -2.2484   61.8086   75.1713 H   0  0  0  0  0  0  0  0  0  0  0  0
   -6.2778   62.3662   76.8159 H   0  0  0  0  0  0  0  0  0  0  0  0
   -6.4556   63.3015   75.2927 H   0  0  0  0  0  0  0  0  0  0  0  0
   -6.7245   61.5255   75.2927 H   0  0  0  0  0  0  0  0  0  0  0  0
   -5.3729   60.8449   73.9071 H   0  0  0  0  0  0  0  0  0  0  0  0
   -3.8153   61.7241   73.5976 H   0  0  0  0  0  0  0  0  0  0  0  0
   -4.9964   59.0151   76.2567 H   0  0  0  0  0  0  0  0  0  0  0  0
   -0.0779   58.9138   73.6410 H   0  0  0  0  0  0  0  0  0  0  0  0
    0.0234   58.3681   76.5869 H   0  0  0  0  0  0  0  0  0  0  0  0
    1.3659   57.7345   75.5754 H   0  0  0  0  0  0  0  0  0  0  0  0
    0.9934   59.4917   75.5754 H   0  0  0  0  0  0  0  0  0  0  0  0
   -0.3579   56.1459   74.8317 H   0  0  0  0  0  0  0  0  0  0  0  0
   -1.2685   56.6332   73.3619 H   0  0  0  0  0  0  0  0  0  0  0  0
    0.5273   56.6779   73.3619 H   0  0  0  0  0  0  0  0  0  0  0  0
    0.3039   62.8941   77.5372 H   0  0  0  0  0  0  0  0  0  0  0  0
   -0.8371   62.8068   79.7747 H   0  0  0  0  0  0  0  0  0  0  0  0
   -0.9474   64.4105   78.9730 H   0  0  0  0  0  0  0  0  0  0  0  0
   -2.3648   63.3070   78.9730 H   0  0  0  0  0  0  0  0  0  0  0  0
   -1.1778   60.8921   78.6772 H   0  0  0  0  0  0  0  0  0  0  0  0
   -2.0607   61.0588   77.1218 H   0  0  0  0  0  0  0  0  0  0  0  0
   -0.3044   60.6818   77.1218 H   0  0  0  0  0  0  0  0  0  0  0  0
   -0.4101   60.6387   72.8633 H   0  0  0  0  0  0  0  0  0  0  0  0
    0.2877   61.3014   71.3053 H   0  0  0  0  0  0  0  0  0  0  0  0
    2.4963   62.2255   73.8345 H   0  0  0  0  0  0  0  0  0  0  0  0
    4.6919   61.1338   74.2688 H   0  0  0  0  0  0  0  0  0  0  0  0
    5.1569   58.8576   73.3637 H   0  0  0  0  0  0  0  0  0  0  0  0
    3.4150   57.6649   72.0398 H   0  0  0  0  0  0  0  0  0  0  0  0
    1.2146   58.7475   71.6034 H   0  0  0  0  0  0  0  0  0  0  0  0
   -0.1800   63.0614   70.8705 H   0  0  0  0  0  0  0  0  0  0  0  0
   -1.2683   63.8802   72.1225 H   0  0  0  0  0  0  0  0  0  0  0  0
    1.1528   65.0611   72.5091 H   0  0  0  0  0  0  0  0  0  0  0  0
   -0.5949   66.3435   72.5652 H   0  0  0  0  0  0  0  0  0  0  0  0
    1.0151   64.1705   69.6965 H   0  0  0  0  0  0  0  0  0  0  0  0
    2.0473   66.9313   69.7857 H   0  0  0  0  0  0  0  0  0  0  0  0
    2.2145   68.8259   67.8472 H   0  0  0  0  0  0  0  0  0  0  0  0
    2.1402   67.0878   67.5211 H   0  0  0  0  0  0  0  0  0  0  0  0
   -1.1994   68.4231   66.6437 H   0  0  0  0  0  0  0  0  0  0  0  0
    0.5006   68.9271   62.8048 H   0  0  0  0  0  0  0  0  0  0  0  0
    3.4884   65.4063   70.1161 H   0  0  0  0  0  0  0  0  0  0  0  0
    2.9940   64.7539   71.7491 H   0  0  0  0  0  0  0  0  0  0  0  0
    1.4591   62.8476   69.1961 H   0  0  0  0  0  0  0  0  0  0  0  0
    2.1607   60.5444   68.5555 H   0  0  0  0  0  0  0  0  0  0  0  0
    4.3933   59.6788   69.2516 H   0  0  0  0  0  0  0  0  0  0  0  0
    5.9267   61.1187   70.5900 H   0  0  0  0  0  0  0  0  0  0  0  0
    5.2319   63.4238   71.2334 H   0  0  0  0  0  0  0  0  0  0  0  0
  2  1  1  0
  3  2  1  0
  4  3  2  0
  5  3  1  0
  6  5  1  0
  7  6  1  0
  8  7  2  0
  9  7  1  0
 10  9  1  0
 11  9  1  0
 12 11  1  0
 13 12  2  0
 14 13  1  0
 15 14  1  0
 16 15  2  0
 16 12  1  0
 17 15  1  0
 18 17  1  0
 19 17  1  0
 20  5  1  0
 21 20  1  0
 22 20  1  0
 23  1  1  0
 24 23  1  0
 25 24  2  0
 26 25  1  0
 27 26  2  0
 28 27  1  0
 29 28  2  0
 29 24  1  0
 30  1  1  0
 31 30  1  0
 32 31  1  0
 33 31  1  0
 35 34  2  0
 36 33  1  0
 36 35  1  0
 37 35  1  0
 38 37  1  0
 39 38  1  0
 40 39  2  0
 41 40  1  0
 42 41  2  0
 43 42  1  0
 43 39  1  0
 44 33  1  0
 45 44  1  0
 46 45  2  0
 47 46  1  0
 48 47  2  0
 49 48  1  0
 50 49  2  0
 50 45  1  0
  1 51  1  1
  2 52  1  0
  5 53  1  1
  6 54  1  0
 10 55  1  0
 10 56  1  0
 10 57  1  0
 11 58  1  0
 11 59  1  0
 13 60  1  0
 17 61  1  0
 18 62  1  0
 18 63  1  0
 18 64  1  0
 19 65  1  0
 19 66  1  0
 19 67  1  0
 20 68  1  0
 21 69  1  0
 21 70  1  0
 21 71  1  0
 22 72  1  0
 22 73  1  0
 22 74  1  0
 23 75  1  0
 23 76  1  0
 25 77  1  0
 26 78  1  0
 27 79  1  0
 28 80  1  0
 29 81  1  0
 30 82  1  0
 30 83  1  0
 31 84  1  1
 32 85  1  0
 33 86  1  6
 36 87  1  0
 38 88  1  0
 38 89  1  0
 40 90  1  0
 42 91  1  0
 44 92  1  0
 44 93  1  0
 46 94  1  0
 47 95  1  0
 48 96  1  0
 49 97  1  0
 50 98  1  0
M  END
>  <score>  (1) 
-8.417

$$$$
=
     RDKit          3D

 98101  0  0  0  0  0  0  0  0999 V2000
   -0.1200   62.2400   72.9740 C   0  0  1  0  0  0  0  0  0  0  0  0
   -1.3360   62.1220   73.8040 N   0  0  0  0  0  0  0  0  0  0  0  0
   -1.3470   62.3410   75.1630 C   0  0  0  0  0  0  0  0  0  0  0  0
   -0.3550   62.7370   75.7810 O   0  0  0  0  0  0  0  0  0  0  0  0
   -2.7170   62.1420   75.8590 C   0  0  1  0  0  0  0  0  0  0  0  0
   -3.1990   63.4990   76.1310 N   0  0  0  0  0  0  0  0  0  0  0  0
   -3.1210   64.0160   77.3980 C   0  0  0  0  0  0  0  0  0  0  0  0
   -2.8320   63.3090   78.3600 O   0  0  0  0  0  0  0  0  0  0  0  0
   -3.3970   65.3660   77.5060 N   0  0  0  0  0  0  0  0  0  0  0  0
   -3.3240   65.9950   78.8150 C   0  0  0  0  0  0  0  0  0  0  0  0
   -3.7420   66.2450   76.3860 C   0  0  0  0  0  0  0  0  0  0  0  0
   -5.2030   66.1540   76.0270 C   0  0  0  0  0  0  0  0  0  0  0  0
   -6.2980   66.5210   76.7890 C   0  0  0  0  0  0  0  0  0  0  0  0
   -7.7500   66.2270   75.9390 S   0  0  0  0  0  0  0  0  0  0  0  0
   -6.8420   65.6250   74.6090 C   0  0  0  0  0  0  0  0  0  0  0  0
   -5.5340   65.6480   74.7740 N   0  0  0  0  0  0  0  0  0  0  0  0
   -7.5090   65.1000   73.3600 C   0  0  0  0  0  0  0  0  0  0  0  0
   -8.2430   63.7850   73.6170 C   0  0  0  0  0  0  0  0  0  0  0  0
   -8.4330   66.1310   72.7130 C   0  0  0  0  0  0  0  0  0  0  0  0
   -3.7200   61.3910   74.9520 C   0  0  0  0  0  0  0  0  0  0  0  0
   -3.7180   59.8770   75.1880 C   0  0  0  0  0  0  0  0  0  0  0  0
   -5.1470   61.9170   75.1650 C   0  0  0  0  0  0  0  0  0  0  0  0
    0.2600   60.8570   72.3880 C   0  0  0  0  0  0  0  0  0  0  0  0
    1.6300   60.3690   72.8020 C   0  0  0  0  0  0  0  0  0  0  0  0
    2.4500   61.1620   73.6170 C   0  0  0  0  0  0  0  0  0  0  0  0
    3.7220   60.7220   73.9850 C   0  0  0  0  0  0  0  0  0  0  0  0
    4.1850   59.4830   73.5460 C   0  0  0  0  0  0  0  0  0  0  0  0
    3.3760   58.6830   72.7440 C   0  0  0  0  0  0  0  0  0  0  0  0
    2.1030   59.1200   72.3750 C   0  0  0  0  0  0  0  0  0  0  0  0
   -0.3330   63.2430   71.8100 C   0  0  0  0  0  0  0  0  0  0  0  0
    0.5340   64.5280   71.8410 C   0  0  2  0  0  0  0  0  0  0  0  0
   -0.2470   65.7210   71.9400 O   0  0  0  0  0  0  0  0  0  0  0  0
    1.5000   64.6150   70.6200 C   0  0  1  0  0  0  0  0  0  0  0  0
   -0.4980   65.8260   68.8790 O   0  0  0  0  0  0  0  0  0  0  0  0
    0.4880   66.4420   69.2490 C   0  0  0  0  0  0  0  0  0  0  0  0
    1.4690   65.9610   70.0490 N   0  0  0  0  0  0  0  0  0  0  0  0
    0.7790   67.7220   68.9300 O   0  0  0  0  0  0  0  0  0  0  0  0
    0.5490   68.0490   67.5600 C   0  0  0  0  0  0  0  0  0  0  0  0
    1.8380   68.6000   67.0520 C   0  0  0  0  0  0  0  0  0  0  0  0
    2.7120   69.4770   67.6650 C   0  0  0  0  0  0  0  0  0  0  0  0
    3.8290   69.8260   66.9300 N   0  0  0  0  0  0  0  0  0  0  0  0
    3.7960   69.2020   65.7740 C   0  0  0  0  0  0  0  0  0  0  0  0
    2.4450   68.1820   65.5020 S   0  0  0  0  0  0  0  0  0  0  0  0
    2.9530   64.2410   70.9880 C   0  0  0  0  0  0  0  0  0  0  0  0
    3.3730   62.8850   70.4740 C   0  0  0  0  0  0  0  0  0  0  0  0
    2.5230   62.1490   69.6390 C   0  0  0  0  0  0  0  0  0  0  0  0
    2.9040   60.8890   69.1750 C   0  0  0  0  0  0  0  0  0  0  0  0
    4.1380   60.3540   69.5440 C   0  0  0  0  0  0  0  0  0  0  0  0
    4.9900   61.0780   70.3750 C   0  0  0  0  0  0  0  0  0  0  0  0
    4.6110   62.3380   70.8390 C   0  0  0  0  0  0  0  0  0  0  0  0
    0.6920   62.6100   73.6172 H   0  0  0  0  0  0  0  0  0  0  0  0
   -2.2199   61.8629   73.3430 H   0  0  0  0  0  0  0  0  0  0  0  0
   -2.6172   61.5327   76.7694 H   0  0  0  0  0  0  0  0  0  0  0  0
   -3.5972   64.0654   75.3684 H   0  0  0  0  0  0  0  0  0  0  0  0
   -3.4132   65.2262   79.5967 H   0  0  0  0  0  0  0  0  0  0  0  0
   -2.3596   66.5138   78.9193 H   0  0  0  0  0  0  0  0  0  0  0  0
   -4.1439   66.7208   78.9193 H   0  0  0  0  0  0  0  0  0  0  0  0
   -3.5086   67.2833   76.6643 H   0  0  0  0  0  0  0  0  0  0  0  0
   -3.1563   65.9267   75.5110 H   0  0  0  0  0  0  0  0  0  0  0  0
   -6.2412   66.9440   77.8028 H   0  0  0  0  0  0  0  0  0  0  0  0
   -6.7010   64.8971   72.6417 H   0  0  0  0  0  0  0  0  0  0  0  0
   -8.3341   63.6217   74.7010 H   0  0  0  0  0  0  0  0  0  0  0  0
   -9.2459   63.8310   73.1675 H   0  0  0  0  0  0  0  0  0  0  0  0
   -7.6774   62.9555   73.1675 H   0  0  0  0  0  0  0  0  0  0  0  0
   -8.9477   66.7054   73.4973 H   0  0  0  0  0  0  0  0  0  0  0  0
   -7.8393   66.8143   72.0880 H   0  0  0  0  0  0  0  0  0  0  0  0
   -9.1770   65.6155   72.0880 H   0  0  0  0  0  0  0  0  0  0  0  0
   -3.3916   61.5790   73.9191 H   0  0  0  0  0  0  0  0  0  0  0  0
   -3.7177   59.6744   76.2692 H   0  0  0  0  0  0  0  0  0  0  0  0
   -4.6156   59.4337   74.7321 H   0  0  0  0  0  0  0  0  0  0  0  0
   -2.8193   59.4360   74.7321 H   0  0  0  0  0  0  0  0  0  0  0  0
   -5.3527   61.9928   76.2429 H   0  0  0  0  0  0  0  0  0  0  0  0
   -5.2446   62.9102   74.7023 H   0  0  0  0  0  0  0  0  0  0  0  0
   -5.8658   61.2247   74.7023 H   0  0  0  0  0  0  0  0  0  0  0  0
   -0.4855   60.1218   72.7251 H   0  0  0  0  0  0  0  0  0  0  0  0
    0.2794   60.9694   71.2939 H   0  0  0  0  0  0  0  0  0  0  0  0
    2.0877   62.1391   73.9692 H   0  0  0  0  0  0  0  0  0  0  0  0
    4.3594   61.3532   74.6217 H   0  0  0  0  0  0  0  0  0  0  0  0
    5.1891   59.1375   73.8331 H   0  0  0  0  0  0  0  0  0  0  0  0
    3.7410   57.7039   72.4002 H   0  0  0  0  0  0  0  0  0  0  0  0
    1.4668   58.4807   71.7453 H   0  0  0  0  0  0  0  0  0  0  0  0
   -0.1161   62.7154   70.8695 H   0  0  0  0  0  0  0  0  0  0  0  0
   -1.3725   63.5890   71.9085 H   0  0  0  0  0  0  0  0  0  0  0  0
    1.1400   64.4511   72.7558 H   0  0  0  0  0  0  0  0  0  0  0  0
   -0.3919   65.9423   72.8940 H   0  0  0  0  0  0  0  0  0  0  0  0
    1.1474   63.8831   69.8784 H   0  0  0  0  0  0  0  0  0  0  0  0
    2.2528   66.5909   70.2723 H   0  0  0  0  0  0  0  0  0  0  0  0
    0.2673   67.1492   66.9935 H   0  0  0  0  0  0  0  0  0  0  0  0
   -0.2723   68.7722   67.4487 H   0  0  0  0  0  0  0  0  0  0  0  0
    2.5301   69.8728   68.6751 H   0  0  0  0  0  0  0  0  0  0  0  0
    4.5902   69.3270   65.0233 H   0  0  0  0  0  0  0  0  0  0  0  0
    3.6265   64.9991   70.5618 H   0  0  0  0  0  0  0  0  0  0  0  0
    3.0099   64.2034   72.0859 H   0  0  0  0  0  0  0  0  0  0  0  0
    1.5483   62.5669   69.3468 H   0  0  0  0  0  0  0  0  0  0  0  0
    2.2311   60.3180   68.5184 H   0  0  0  0  0  0  0  0  0  0  0  0
    4.4384   59.3608   69.1790 H   0  0  0  0  0  0  0  0  0  0  0  0
    5.9631   60.6556   70.6658 H   0  0  0  0  0  0  0  0  0  0  0  0
    5.2875   62.9054   71.4950 H   0  0  0  0  0  0  0  0  0  0  0  0
  2  1  1  0
  3  2  1  0
  4  3  2  0
  5  3  1  0
  6  5  1  0
  7  6  1  0
  8  7  2  0
  9  7  1  0
 10  9  1  0
 11  9  1  0
 12 11  1  0
 13 12  2  0
 14 13  1  0
 15 14  1  0
 16 15  2  0
 16 12  1  0
 17 15  1  0
 18 17  1  0
 19 17  1  0
 20  5  1  0
 21 20  1  0
 22 20  1  0
 23  1  1  0
 24 23  1  0
 25 24  2  0
 26 25  1  0
 27 26  2  0
 28 27  1  0
 29 28  2  0
 29 24  1  0
 30  1  1  0
 31 30  1  0
 32 31  1  0
 33 31  1  0
 35 34  2  0
 36 33  1  0
 36 35  1  0
 37 35  1  0
 38 37  1  0
 39 38  1  0
 40 39  2  0
 41 40  1  0
 42 41  2  0
 43 42  1  0
 43 39  1  0
 44 33  1  0
 45 44  1  0
 46 45  2  0
 47 46  1  0
 48 47  2  0
 49 48  1  0
 50 49  2  0
 50 45  1  0
  1 51  1  1
  2 52  1  0
  5 53  1  1
  6 54  1  0
 10 55  1  0
 10 56  1  0
 10 57  1  0
 11 58  1  0
 11 59  1  0
 13 60  1  0
 17 61  1  0
 18 62  1  0
 18 63  1  0
 18 64  1  0
 19 65  1  0
 19 66  1  0
 19 67  1  0
 20 68  1  0
 21 69  1  0
 21 70  1  0
 21 71  1  0
 22 72  1  0
 22 73  1  0
 22 74  1  0
 23 75  1  0
 23 76  1  0
 25 77  1  0
 26 78  1  0
 27 79  1  0
 28 80  1  0
 29 81  1  0
 30 82  1  0
 30 83  1  0
 31 84  1  1
 32 85  1  0
 33 86  1  6
 36 87  1  0
 38 88  1  0
 38 89  1  0
 40 90  1  0
 42 91  1  0
 44 92  1  0
 44 93  1  0
 46 94  1  0
 47 95  1  0
 48 96  1  0
 49 97  1  0
 50 98  1  0
M  END
>  <score>  (2) 
-8.238

$$$$
=
     RDKit          3D

 98101  0  0  0  0  0  0  0  0999 V2000
    0.8070   65.0140   70.2690 C   0  0  1  0  0  0  0  0  0  0  0  0
    0.3980   66.3380   69.7610 N   0  0  0  0  0  0  0  0  0  0  0  0
    0.7770   66.8270   68.5310 C   0  0  0  0  0  0  0  0  0  0  0  0
    1.4230   66.1570   67.7200 O   0  0  0  0  0  0  0  0  0  0  0  0
    0.2640   68.2490   68.1920 C   0  0  1  0  0  0  0  0  0  0  0  0
    1.0840   68.6790   67.0550 N   0  0  0  0  0  0  0  0  0  0  0  0
    2.3690   69.1090   67.2570 C   0  0  0  0  0  0  0  0  0  0  0  0
    2.8020   69.3230   68.3860 O   0  0  0  0  0  0  0  0  0  0  0  0
    3.1230   69.2850   66.1120 N   0  0  0  0  0  0  0  0  0  0  0  0
    4.5030   69.7260   66.2400 C   0  0  0  0  0  0  0  0  0  0  0  0
    2.6480   69.0380   64.7480 C   0  0  0  0  0  0  0  0  0  0  0  0
    3.3150   67.8370   64.1280 C   0  0  0  0  0  0  0  0  0  0  0  0
    4.1260   67.7900   63.0080 C   0  0  0  0  0  0  0  0  0  0  0  0
    4.6450   66.1910   62.7050 S   0  0  0  0  0  0  0  0  0  0  0  0
    3.7590   65.6510   64.0770 C   0  0  0  0  0  0  0  0  0  0  0  0
    3.1210   66.6000   64.7330 N   0  0  0  0  0  0  0  0  0  0  0  0
    3.7150   64.1960   64.4760 C   0  0  0  0  0  0  0  0  0  0  0  0
    4.8260   63.3880   63.8060 C   0  0  0  0  0  0  0  0  0  0  0  0
    3.7300   64.0050   65.9930 C   0  0  0  0  0  0  0  0  0  0  0  0
   -1.2320   68.2440   67.8010 C   0  0  0  0  0  0  0  0  0  0  0  0
   -1.5140   69.0270   66.5140 C   0  0  0  0  0  0  0  0  0  0  0  0
   -1.7420   66.8070   67.6200 C   0  0  0  0  0  0  0  0  0  0  0  0
    2.3260   65.0070   70.5740 C   0  0  0  0  0  0  0  0  0  0  0  0
    3.0170   63.7040   70.2380 C   0  0  0  0  0  0  0  0  0  0  0  0
    4.3430   63.4810   70.6370 C   0  0  0  0  0  0  0  0  0  0  0  0
    4.9880   62.2870   70.3130 C   0  0  0  0  0  0  0  0  0  0  0  0
    4.3140   61.3030   69.5920 C   0  0  0  0  0  0  0  0  0  0  0  0
    2.9940   61.5100   69.1990 C   0  0  0  0  0  0  0  0  0  0  0  0
    2.3460   62.7030   69.5220 C   0  0  0  0  0  0  0  0  0  0  0  0
    0.0300   64.6440   71.5590 C   0  0  0  0  0  0  0  0  0  0  0  0
    0.1160   63.1650   72.0160 C   0  0  2  0  0  0  0  0  0  0  0  0
   -1.1000   62.4470   71.8010 O   0  0  0  0  0  0  0  0  0  0  0  0
    0.5640   63.0350   73.5040 C   0  0  1  0  0  0  0  0  0  0  0  0
    1.2130   64.7920   75.7370 O   0  0  0  0  0  0  0  0  0  0  0  0
    0.0600   64.6000   75.3860 C   0  0  0  0  0  0  0  0  0  0  0  0
   -0.3360   63.7980   74.3690 N   0  0  0  0  0  0  0  0  0  0  0  0
   -1.0350   65.1580   75.9480 O   0  0  0  0  0  0  0  0  0  0  0  0
   -1.9330   64.2170   76.5360 C   0  0  0  0  0  0  0  0  0  0  0  0
   -3.0900   65.0150   77.0310 C   0  0  0  0  0  0  0  0  0  0  0  0
   -3.9510   64.7430   78.0770 C   0  0  0  0  0  0  0  0  0  0  0  0
   -4.9530   65.6700   78.2890 N   0  0  0  0  0  0  0  0  0  0  0  0
   -4.8350   66.6410   77.4110 C   0  0  0  0  0  0  0  0  0  0  0  0
   -3.5410   66.4980   76.2950 S   0  0  0  0  0  0  0  0  0  0  0  0
    0.6180   61.5670   73.9790 C   0  0  0  0  0  0  0  0  0  0  0  0
    1.8040   60.8040   73.4410 C   0  0  0  0  0  0  0  0  0  0  0  0
    3.1090   61.2030   73.7620 C   0  0  0  0  0  0  0  0  0  0  0  0
    4.2060   60.5080   73.2520 C   0  0  0  0  0  0  0  0  0  0  0  0
    4.0100   59.4090   72.4170 C   0  0  0  0  0  0  0  0  0  0  0  0
    2.7170   59.0040   72.0920 C   0  0  0  0  0  0  0  0  0  0  0  0
    1.6180   59.6980   72.6000 C   0  0  0  0  0  0  0  0  0  0  0  0
    0.5772   64.2709   69.4912 H   0  0  0  0  0  0  0  0  0  0  0  0
   -0.2016   66.9262   70.3571 H   0  0  0  0  0  0  0  0  0  0  0  0
    0.3466   68.9213   69.0587 H   0  0  0  0  0  0  0  0  0  0  0  0
    0.6930   68.6577   66.1023 H   0  0  0  0  0  0  0  0  0  0  0  0
    4.7640   69.8094   67.3053 H   0  0  0  0  0  0  0  0  0  0  0  0
    5.1678   68.9955   65.7557 H   0  0  0  0  0  0  0  0  0  0  0  0
    4.6210   70.7066   65.7557 H   0  0  0  0  0  0  0  0  0  0  0  0
    1.5618   68.8665   64.7755 H   0  0  0  0  0  0  0  0  0  0  0  0
    2.8958   69.9183   64.1367 H   0  0  0  0  0  0  0  0  0  0  0  0
    4.3991   68.6626   62.3965 H   0  0  0  0  0  0  0  0  0  0  0  0
    2.7529   63.8060   64.1124 H   0  0  0  0  0  0  0  0  0  0  0  0
    5.4602   62.9268   64.5774 H   0  0  0  0  0  0  0  0  0  0  0  0
    4.3804   62.6015   63.1792 H   0  0  0  0  0  0  0  0  0  0  0  0
    5.4370   64.0542   63.1792 H   0  0  0  0  0  0  0  0  0  0  0  0
    3.6530   64.9850   66.4867 H   0  0  0  0  0  0  0  0  0  0  0  0
    2.8785   63.3760   66.2918 H   0  0  0  0  0  0  0  0  0  0  0  0
    4.6693   63.5166   66.2918 H   0  0  0  0  0  0  0  0  0  0  0  0
   -1.7618   68.7390   68.6282 H   0  0  0  0  0  0  0  0  0  0  0  0
   -1.8766   70.0337   66.7693 H   0  0  0  0  0  0  0  0  0  0  0  0
   -0.5889   69.1090   65.9245 H   0  0  0  0  0  0  0  0  0  0  0  0
   -2.2789   68.5003   65.9245 H   0  0  0  0  0  0  0  0  0  0  0  0
   -1.9047   66.3487   68.6066 H   0  0  0  0  0  0  0  0  0  0  0  0
   -2.6898   66.8219   67.0618 H   0  0  0  0  0  0  0  0  0  0  0  0
   -0.9969   66.2211   67.0618 H   0  0  0  0  0  0  0  0  0  0  0  0
    2.7994   65.8098   69.9898 H   0  0  0  0  0  0  0  0  0  0  0  0
    2.4325   65.1521   71.6592 H   0  0  0  0  0  0  0  0  0  0  0  0
    4.8782   64.2529   71.2094 H   0  0  0  0  0  0  0  0  0  0  0  0
    6.0293   62.1222   70.6269 H   0  0  0  0  0  0  0  0  0  0  0  0
    4.8243   60.3634   69.3335 H   0  0  0  0  0  0  0  0  0  0  0  0
    2.4612   60.7317   68.6330 H   0  0  0  0  0  0  0  0  0  0  0  0
    1.3019   62.8589   69.2127 H   0  0  0  0  0  0  0  0  0  0  0  0
    0.4199   65.2696   72.3754 H   0  0  0  0  0  0  0  0  0  0  0  0
   -1.0301   64.8146   71.3203 H   0  0  0  0  0  0  0  0  0  0  0  0
    0.8885   62.7062   71.3814 H   0  0  0  0  0  0  0  0  0  0  0  0
   -1.5019   62.2097   72.6741 H   0  0  0  0  0  0  0  0  0  0  0  0
    1.5840   63.4418   73.5690 H   0  0  0  0  0  0  0  0  0  0  0  0
   -1.3475   63.7193   74.1911 H   0  0  0  0  0  0  0  0  0  0  0  0
   -2.2657   63.4846   75.7858 H   0  0  0  0  0  0  0  0  0  0  0  0
   -1.4529   63.6525   77.3490 H   0  0  0  0  0  0  0  0  0  0  0  0
   -3.8451   63.8441   78.7021 H   0  0  0  0  0  0  0  0  0  0  0  0
   -5.5266   67.4962   77.3932 H   0  0  0  0  0  0  0  0  0  0  0  0
    0.6675   61.5581   75.0779 H   0  0  0  0  0  0  0  0  0  0  0  0
   -0.2865   61.0700   73.5984 H   0  0  0  0  0  0  0  0  0  0  0  0
    3.2691   62.0697   74.4202 H   0  0  0  0  0  0  0  0  0  0  0  0
    5.2267   60.8276   73.5090 H   0  0  0  0  0  0  0  0  0  0  0  0
    4.8755   58.8619   72.0150 H   0  0  0  0  0  0  0  0  0  0  0  0
    2.5623   58.1361   71.4341 H   0  0  0  0  0  0  0  0  0  0  0  0
    0.5994   59.3751   72.3389 H   0  0  0  0  0  0  0  0  0  0  0  0
  2  1  1  0
  3  2  1  0
  4  3  2  0
  5  3  1  0
  6  5  1  0
  7  6  1  0
  8  7  2  0
  9  7  1  0
 10  9  1  0
 11  9  1  0
 12 11  1  0
 13 12  2  0
 14 13  1  0
 15 14  1  0
 16 15  2  0
 16 12  1  0
 17 15  1  0
 18 17  1  0
 19 17  1  0
 20  5  1  0
 21 20  1  0
 22 20  1  0
 23  1  1  0
 24 23  1  0
 25 24  2  0
 26 25  1  0
 27 26  2  0
 28 27  1  0
 29 28  2  0
 29 24  1  0
 30  1  1  0
 31 30  1  0
 32 31  1  0
 33 31  1  0
 35 34  2  0
 36 33  1  0
 36 35  1  0
 37 35  1  0
 38 37  1  0
 39 38  1  0
 40 39  2  0
 41 40  1  0
 42 41  2  0
 43 42  1  0
 43 39  1  0
 44 33  1  0
 45 44  1  0
 46 45  2  0
 47 46  1  0
 48 47  2  0
 49 48  1  0
 50 49  2  0
 50 45  1  0
  1 51  1  6
  2 52  1  0
  5 53  1  1
  6 54  1  0
 10 55  1  0
 10 56  1  0
 10 57  1  0
 11 58  1  0
 11 59  1  0
 13 60  1  0
 17 61  1  0
 18 62  1  0
 18 63  1  0
 18 64  1  0
 19 65  1  0
 19 66  1  0
 19 67  1  0
 20 68  1  0
 21 69  1  0
 21 70  1  0
 21 71  1  0
 22 72  1  0
 22 73  1  0
 22 74  1  0
 23 75  1  0
 23 76  1  0
 25 77  1  0
 26 78  1  0
 27 79  1  0
 28 80  1  0
 29 81  1  0
 30 82  1  0
 30 83  1  0
 31 84  1  6
 32 85  1  0
 33 86  1  6
 36 87  1  0
 38 88  1  0
 38 89  1  0
 40 90  1  0
 42 91  1  0
 44 92  1  0
 44 93  1  0
 46 94  1  0
 47 95  1  0
 48 96  1  0
 49 97  1  0
 50 98  1  0
M  END
>  <score>  (3) 
-8.011

$$$$
=
     RDKit          3D

 98101  0  0  0  0  0  0  0  0999 V2000
    3.7530   61.2120   73.4120 C   0  0  1  0  0  0  0  0  0  0  0  0
    3.6360   59.7560   73.6290 N   0  0  0  0  0  0  0  0  0  0  0  0
    3.0400   59.2020   74.7390 C   0  0  0  0  0  0  0  0  0  0  0  0
    2.4800   59.8830   75.6030 O   0  0  0  0  0  0  0  0  0  0  0  0
    3.0390   57.6530   74.7930 C   0  0  1  0  0  0  0  0  0  0  0  0
    3.0370   57.3290   76.2220 N   0  0  0  0  0  0  0  0  0  0  0  0
    4.2130   57.0490   76.8660 C   0  0  0  0  0  0  0  0  0  0  0  0
    5.2570   56.8760   76.2430 O   0  0  0  0  0  0  0  0  0  0  0  0
    4.1320   56.9700   78.2440 N   0  0  0  0  0  0  0  0  0  0  0  0
    5.3390   56.6900   79.0040 C   0  0  0  0  0  0  0  0  0  0  0  0
    2.9090   57.1730   79.0250 C   0  0  0  0  0  0  0  0  0  0  0  0
    2.4400   58.6040   78.9780 C   0  0  0  0  0  0  0  0  0  0  0  0
    3.1620   59.7520   79.2480 C   0  0  0  0  0  0  0  0  0  0  0  0
    2.1860   61.1400   79.0500 S   0  0  0  0  0  0  0  0  0  0  0  0
    0.8580   60.1360   78.6200 C   0  0  0  0  0  0  0  0  0  0  0  0
    1.1200   58.8440   78.6110 N   0  0  0  0  0  0  0  0  0  0  0  0
   -0.5020   60.7060   78.2940 C   0  0  0  0  0  0  0  0  0  0  0  0
   -0.4910   61.4850   76.9790 C   0  0  0  0  0  0  0  0  0  0  0  0
   -1.5980   59.6420   78.2980 C   0  0  0  0  0  0  0  0  0  0  0  0
    1.7890   57.0540   74.1070 C   0  0  0  0  0  0  0  0  0  0  0  0
    1.8780   57.0830   72.5770 C   0  0  0  0  0  0  0  0  0  0  0  0
    1.5650   55.6030   74.5560 C   0  0  0  0  0  0  0  0  0  0  0  0
    4.9320   61.5130   72.4520 C   0  0  0  0  0  0  0  0  0  0  0  0
    4.5070   61.8300   71.0360 C   0  0  0  0  0  0  0  0  0  0  0  0
    4.5000   63.1550   70.5760 C   0  0  0  0  0  0  0  0  0  0  0  0
    4.0920   63.4520   69.2760 C   0  0  0  0  0  0  0  0  0  0  0  0
    3.6880   62.4280   68.4210 C   0  0  0  0  0  0  0  0  0  0  0  0
    3.7000   61.1080   68.8630 C   0  0  0  0  0  0  0  0  0  0  0  0
    4.1090   60.8080   70.1640 C   0  0  0  0  0  0  0  0  0  0  0  0
    2.4480   61.7960   72.8130 C   0  0  0  0  0  0  0  0  0  0  0  0
    1.7780   62.9450   73.6080 C   0  0  2  0  0  0  0  0  0  0  0  0
    1.9330   62.8050   75.0220 O   0  0  0  0  0  0  0  0  0  0  0  0
    0.2710   63.1120   73.2440 C   0  0  1  0  0  0  0  0  0  0  0  0
    0.8600   63.6480   70.4410 O   0  0  0  0  0  0  0  0  0  0  0  0
    0.3720   64.4980   71.1670 C   0  0  0  0  0  0  0  0  0  0  0  0
    0.0720   64.3430   72.4790 N   0  0  0  0  0  0  0  0  0  0  0  0
    0.0360   65.7520   70.7930 O   0  0  0  0  0  0  0  0  0  0  0  0
    1.0350   66.4180   70.0210 C   0  0  0  0  0  0  0  0  0  0  0  0
    0.3460   66.8920   68.7880 C   0  0  0  0  0  0  0  0  0  0  0  0
   -0.9690   66.7160   68.4020 C   0  0  0  0  0  0  0  0  0  0  0  0
   -1.3160   67.2610   67.1810 N   0  0  0  0  0  0  0  0  0  0  0  0
   -0.2660   67.8530   66.6590 C   0  0  0  0  0  0  0  0  0  0  0  0
    1.1770   67.7890   67.5830 S   0  0  0  0  0  0  0  0  0  0  0  0
   -0.2800   61.9100   72.4450 C   0  0  0  0  0  0  0  0  0  0  0  0
   -1.0710   60.9400   73.2880 C   0  0  0  0  0  0  0  0  0  0  0  0
   -0.5220   59.7020   73.6480 C   0  0  0  0  0  0  0  0  0  0  0  0
   -1.2580   58.7970   74.4140 C   0  0  0  0  0  0  0  0  0  0  0  0
   -2.5490   59.1230   74.8280 C   0  0  0  0  0  0  0  0  0  0  0  0
   -3.1040   60.3510   74.4760 C   0  0  0  0  0  0  0  0  0  0  0  0
   -2.3700   61.2570   73.7090 C   0  0  0  0  0  0  0  0  0  0  0  0
    3.9354   61.6840   74.3887 H   0  0  0  0  0  0  0  0  0  0  0  0
    4.0200   59.1228   72.9131 H   0  0  0  0  0  0  0  0  0  0  0  0
    3.9057   57.2341   74.2607 H   0  0  0  0  0  0  0  0  0  0  0  0
    2.1490   57.3118   76.7436 H   0  0  0  0  0  0  0  0  0  0  0  0
    5.1152   56.7419   80.0798 H   0  0  0  0  0  0  0  0  0  0  0  0
    5.7046   55.6832   78.7537 H   0  0  0  0  0  0  0  0  0  0  0  0
    6.1105   57.4330   78.7537 H   0  0  0  0  0  0  0  0  0  0  0  0
    2.1171   56.5263   78.6192 H   0  0  0  0  0  0  0  0  0  0  0  0
    3.1297   56.9222   80.0730 H   0  0  0  0  0  0  0  0  0  0  0  0
    4.2199   59.7691   79.5490 H   0  0  0  0  0  0  0  0  0  0  0  0
   -0.7410   61.4150   79.1004 H   0  0  0  0  0  0  0  0  0  0  0  0
   -0.4758   62.5640   77.1922 H   0  0  0  0  0  0  0  0  0  0  0  0
    0.4034   61.2131   76.3992 H   0  0  0  0  0  0  0  0  0  0  0  0
   -1.3927   61.2385   76.3992 H   0  0  0  0  0  0  0  0  0  0  0  0
   -1.8591   59.3885   79.3360 H   0  0  0  0  0  0  0  0  0  0  0  0
   -2.4877   60.0301   77.7804 H   0  0  0  0  0  0  0  0  0  0  0  0
   -1.2365   58.7412   77.7804 H   0  0  0  0  0  0  0  0  0  0  0  0
    0.9433   57.6866   74.4147 H   0  0  0  0  0  0  0  0  0  0  0  0
    2.8835   57.4106   72.2744 H   0  0  0  0  0  0  0  0  0  0  0  0
    1.6854   56.0756   72.1794 H   0  0  0  0  0  0  0  0  0  0  0  0
    1.1289   57.7835   72.1794 H   0  0  0  0  0  0  0  0  0  0  0  0
    1.5578   55.5562   75.6550 H   0  0  0  0  0  0  0  0  0  0  0  0
    0.6007   55.2436   74.1674 H   0  0  0  0  0  0  0  0  0  0  0  0
    2.3760   54.9696   74.1674 H   0  0  0  0  0  0  0  0  0  0  0  0
    5.4884   62.3756   72.8474 H   0  0  0  0  0  0  0  0  0  0  0  0
    5.5439   60.6002   72.4037 H   0  0  0  0  0  0  0  0  0  0  0  0
    4.8190   63.9667   71.2463 H   0  0  0  0  0  0  0  0  0  0  0  0
    4.0890   64.4946   68.9252 H   0  0  0  0  0  0  0  0  0  0  0  0
    3.3599   62.6628   67.3977 H   0  0  0  0  0  0  0  0  0  0  0  0
    3.3866   60.2996   68.1860 H   0  0  0  0  0  0  0  0  0  0  0  0
    4.1188   59.7627   70.5065 H   0  0  0  0  0  0  0  0  0  0  0  0
    2.6824   62.1769   71.8080 H   0  0  0  0  0  0  0  0  0  0  0  0
    1.7234   60.9685   72.8295 H   0  0  0  0  0  0  0  0  0  0  0  0
    2.3093   63.8592   73.3049 H   0  0  0  0  0  0  0  0  0  0  0  0
    1.2836   63.3916   75.4848 H   0  0  0  0  0  0  0  0  0  0  0  0
   -0.2855   63.1633   74.1915 H   0  0  0  0  0  0  0  0  0  0  0  0
   -0.3262   65.1529   72.9753 H   0  0  0  0  0  0  0  0  0  0  0  0
    1.4471   67.2703   70.5812 H   0  0  0  0  0  0  0  0  0  0  0  0
    1.8757   65.7495   69.7835 H   0  0  0  0  0  0  0  0  0  0  0  0
   -1.6943   66.1756   69.0280 H   0  0  0  0  0  0  0  0  0  0  0  0
   -0.3099   68.3610   65.6843 H   0  0  0  0  0  0  0  0  0  0  0  0
   -0.9341   62.2922   71.6474 H   0  0  0  0  0  0  0  0  0  0  0  0
    0.5861   61.3614   72.0464 H   0  0  0  0  0  0  0  0  0  0  0  0
    0.4966   59.4416   73.3244 H   0  0  0  0  0  0  0  0  0  0  0  0
   -0.8199   57.8268   74.6911 H   0  0  0  0  0  0  0  0  0  0  0  0
   -3.1291   58.4103   75.4326 H   0  0  0  0  0  0  0  0  0  0  0  0
   -4.1225   60.6072   74.8031 H   0  0  0  0  0  0  0  0  0  0  0  0
   -2.8133   62.2252   73.4333 H   0  0  0  0  0  0  0  0  0  0  0  0
  2  1  1  0
  3  2  1  0
  4  3  2  0
  5  3  1  0
  6  5  1  0
  7  6  1  0
  8  7  2  0
  9  7  1  0
 10  9  1  0
 11  9  1  0
 12 11  1  0
 13 12  2  0
 14 13  1  0
 15 14  1  0
 16 15  2  0
 16 12  1  0
 17 15  1  0
 18 17  1  0
 19 17  1  0
 20  5  1  0
 21 20  1  0
 22 20  1  0
 23  1  1  0
 24 23  1  0
 25 24  2  0
 26 25  1  0
 27 26  2  0
 28 27  1  0
 29 28  2  0
 29 24  1  0
 30  1  1  0
 31 30  1  0
 32 31  1  0
 33 31  1  0
 35 34  2  0
 36 33  1  0
 36 35  1  0
 37 35  1  0
 38 37  1  0
 39 38  1  0
 40 39  2  0
 41 40  1  0
 42 41  2  0
 43 42  1  0
 43 39  1  0
 44 33  1  0
 45 44  1  0
 46 45  2  0
 47 46  1  0
 48 47  2  0
 49 48  1  0
 50 49  2  0
 50 45  1  0
  1 51  1  1
  2 52  1  0
  5 53  1  6
  6 54  1  0
 10 55  1  0
 10 56  1  0
 10 57  1  0
 11 58  1  0
 11 59  1  0
 13 60  1  0
 17 61  1  0
 18 62  1  0
 18 63  1  0
 18 64  1  0
 19 65  1  0
 19 66  1  0
 19 67  1  0
 20 68  1  0
 21 69  1  0
 21 70  1  0
 21 71  1  0
 22 72  1  0
 22 73  1  0
 22 74  1  0
 23 75  1  0
 23 76  1  0
 25 77  1  0
 26 78  1  0
 27 79  1  0
 28 80  1  0
 29 81  1  0
 30 82  1  0
 30 83  1  0
 31 84  1  6
 32 85  1  0
 33 86  1  1
 36 87  1  0
 38 88  1  0
 38 89  1  0
 40 90  1  0
 42 91  1  0
 44 92  1  0
 44 93  1  0
 46 94  1  0
 47 95  1  0
 48 96  1  0
 49 97  1  0
 50 98  1  0
M  END
>  <score>  (4) 
-7.906

$$$$
=
     RDKit          3D

 98101  0  0  0  0  0  0  0  0999 V2000
   -0.3320   61.9630   73.2950 C   0  0  1  0  0  0  0  0  0  0  0  0
   -1.5000   61.7490   74.1720 N   0  0  0  0  0  0  0  0  0  0  0  0
   -1.7990   62.5590   75.2450 C   0  0  0  0  0  0  0  0  0  0  0  0
   -1.1580   63.5810   75.5050 O   0  0  0  0  0  0  0  0  0  0  0  0
   -3.0530   62.1520   76.0580 C   0  0  1  0  0  0  0  0  0  0  0  0
   -3.9950   63.2600   75.8710 N   0  0  0  0  0  0  0  0  0  0  0  0
   -4.4970   63.9270   76.9570 C   0  0  0  0  0  0  0  0  0  0  0  0
   -4.3300   63.5070   78.0990 O   0  0  0  0  0  0  0  0  0  0  0  0
   -5.2000   65.0830   76.6710 N   0  0  0  0  0  0  0  0  0  0  0  0
   -5.7540   65.8570   77.7700 C   0  0  0  0  0  0  0  0  0  0  0  0
   -5.4200   65.6200   75.3260 C   0  0  0  0  0  0  0  0  0  0  0  0
   -6.7850   65.2700   74.7950 C   0  0  0  0  0  0  0  0  0  0  0  0
   -7.8220   66.1240   74.4630 C   0  0  0  0  0  0  0  0  0  0  0  0
   -9.1730   65.2440   73.8980 S   0  0  0  0  0  0  0  0  0  0  0  0
   -8.3060   63.7770   74.1320 C   0  0  0  0  0  0  0  0  0  0  0  0
   -7.0790   63.9250   74.5910 N   0  0  0  0  0  0  0  0  0  0  0  0
   -8.9220   62.4300   73.8410 C   0  0  0  0  0  0  0  0  0  0  0  0
   -8.0780   61.6180   72.8590 C   0  0  0  0  0  0  0  0  0  0  0  0
   -9.2100   61.6320   75.1120 C   0  0  0  0  0  0  0  0  0  0  0  0
   -3.6720   60.8320   75.5420 C   0  0  0  0  0  0  0  0  0  0  0  0
   -3.9860   59.8420   76.6680 C   0  0  0  0  0  0  0  0  0  0  0  0
   -4.9620   61.1060   74.7570 C   0  0  0  0  0  0  0  0  0  0  0  0
    0.1010   60.6230   72.6490 C   0  0  0  0  0  0  0  0  0  0  0  0
    1.5260   60.2220   72.9580 C   0  0  0  0  0  0  0  0  0  0  0  0
    2.4060   61.1360   73.5560 C   0  0  0  0  0  0  0  0  0  0  0  0
    3.7270   60.7750   73.8270 C   0  0  0  0  0  0  0  0  0  0  0  0
    4.1800   59.4970   73.5050 C   0  0  0  0  0  0  0  0  0  0  0  0
    3.3120   58.5780   72.9200 C   0  0  0  0  0  0  0  0  0  0  0  0
    1.9900   58.9370   72.6490 C   0  0  0  0  0  0  0  0  0  0  0  0
   -0.6540   62.9860   72.1740 C   0  0  0  0  0  0  0  0  0  0  0  0
    0.3590   64.1440   71.9850 C   0  0  2  0  0  0  0  0  0  0  0  0
   -0.2050   65.4250   72.2690 O   0  0  0  0  0  0  0  0  0  0  0  0
    0.9990   64.1380   70.5630 C   0  0  1  0  0  0  0  0  0  0  0  0
    1.9050   66.8980   70.3330 O   0  0  0  0  0  0  0  0  0  0  0  0
    0.9410   66.4850   69.7090 C   0  0  0  0  0  0  0  0  0  0  0  0
    0.4450   65.2260   69.7580 N   0  0  0  0  0  0  0  0  0  0  0  0
    0.1930   67.2110   68.8490 O   0  0  0  0  0  0  0  0  0  0  0  0
   -1.0010   66.5590   68.4200 C   0  0  0  0  0  0  0  0  0  0  0  0
   -1.5790   67.4260   67.3550 C   0  0  0  0  0  0  0  0  0  0  0  0
   -2.9030   67.6300   67.0200 C   0  0  0  0  0  0  0  0  0  0  0  0
   -3.1320   68.4870   65.9620 N   0  0  0  0  0  0  0  0  0  0  0  0
   -1.9810   68.9340   65.5120 C   0  0  0  0  0  0  0  0  0  0  0  0
   -0.5800   68.3580   66.3150 S   0  0  0  0  0  0  0  0  0  0  0  0
    2.5380   64.2580   70.6070 C   0  0  0  0  0  0  0  0  0  0  0  0
    3.2500   62.9420   70.4010 C   0  0  0  0  0  0  0  0  0  0  0  0
    2.5910   61.8690   69.7860 C   0  0  0  0  0  0  0  0  0  0  0  0
    3.2430   60.6480   69.6080 C   0  0  0  0  0  0  0  0  0  0  0  0
    4.5580   60.4890   70.0430 C   0  0  0  0  0  0  0  0  0  0  0  0
    5.2210   61.5500   70.6560 C   0  0  0  0  0  0  0  0  0  0  0  0
    4.5720   62.7720   70.8350 C   0  0  0  0  0  0  0  0  0  0  0  0
    0.4851   62.3611   73.9146 H   0  0  0  0  0  0  0  0  0  0  0  0
   -2.1229   60.9536   73.9713 H   0  0  0  0  0  0  0  0  0  0  0  0
   -2.8032   61.9753   77.1146 H   0  0  0  0  0  0  0  0  0  0  0  0
   -4.2799   63.5374   74.9209 H   0  0  0  0  0  0  0  0  0  0  0  0
   -5.4374   65.4147   78.7261 H   0  0  0  0  0  0  0  0  0  0  0  0
   -5.3915   66.8937   77.7077 H   0  0  0  0  0  0  0  0  0  0  0  0
   -6.8522   65.8482   77.7077 H   0  0  0  0  0  0  0  0  0  0  0  0
   -5.3225   66.7151   75.3605 H   0  0  0  0  0  0  0  0  0  0  0  0
   -4.6702   65.1746   74.6556 H   0  0  0  0  0  0  0  0  0  0  0  0
   -7.7819   67.2198   74.5509 H   0  0  0  0  0  0  0  0  0  0  0  0
   -9.8910   62.6323   73.3614 H   0  0  0  0  0  0  0  0  0  0  0  0
   -7.3953   60.9612   73.4181 H   0  0  0  0  0  0  0  0  0  0  0  0
   -8.7383   61.0070   72.2261 H   0  0  0  0  0  0  0  0  0  0  0  0
   -7.4929   62.3014   72.2261 H   0  0  0  0  0  0  0  0  0  0  0  0
   -8.9863   62.2519   75.9927 H   0  0  0  0  0  0  0  0  0  0  0  0
  -10.2703   61.3397   75.1291 H   0  0  0  0  0  0  0  0  0  0  0  0
   -8.5807   60.7299   75.1291 H   0  0  0  0  0  0  0  0  0  0  0  0
   -2.9135   60.3785   74.8870 H   0  0  0  0  0  0  0  0  0  0  0  0
   -3.8307   60.3317   77.6407 H   0  0  0  0  0  0  0  0  0  0  0  0
   -5.0325   59.5132   76.5859 H   0  0  0  0  0  0  0  0  0  0  0  0
   -3.3203   58.9702   76.5859 H   0  0  0  0  0  0  0  0  0  0  0  0
   -5.7891   61.2817   75.4606 H   0  0  0  0  0  0  0  0  0  0  0  0
   -4.8241   61.9949   74.1239 H   0  0  0  0  0  0  0  0  0  0  0  0
   -5.1974   60.2378   74.1239 H   0  0  0  0  0  0  0  0  0  0  0  0
   -0.5682   59.8305   73.0152 H   0  0  0  0  0  0  0  0  0  0  0  0
    0.0389   60.7608   71.5594 H   0  0  0  0  0  0  0  0  0  0  0  0
    2.0524   62.1453   73.8135 H   0  0  0  0  0  0  0  0  0  0  0  0
    4.4103   61.4992   74.2946 H   0  0  0  0  0  0  0  0  0  0  0  0
    5.2225   59.2141   73.7127 H   0  0  0  0  0  0  0  0  0  0  0  0
    3.6686   57.5676   72.6710 H   0  0  0  0  0  0  0  0  0  0  0  0
    1.3085   58.2058   72.1898 H   0  0  0  0  0  0  0  0  0  0  0  0
   -0.7123   62.4342   71.2242 H   0  0  0  0  0  0  0  0  0  0  0  0
   -1.5944   63.4678   72.4798 H   0  0  0  0  0  0  0  0  0  0  0  0
    1.1548   63.9618   72.7223 H   0  0  0  0  0  0  0  0  0  0  0  0
   -0.2605   65.5511   73.2494 H   0  0  0  0  0  0  0  0  0  0  0  0
    0.7554   63.1681   70.1049 H   0  0  0  0  0  0  0  0  0  0  0  0
   -0.3854   65.0189   69.1849 H   0  0  0  0  0  0  0  0  0  0  0  0
   -0.7692   65.5618   68.0178 H   0  0  0  0  0  0  0  0  0  0  0  0
   -1.7057   66.4176   69.2527 H   0  0  0  0  0  0  0  0  0  0  0  0
   -3.7247   67.1399   67.5627 H   0  0  0  0  0  0  0  0  0  0  0  0
   -1.9200   69.6374   64.6685 H   0  0  0  0  0  0  0  0  0  0  0  0
    2.8559   64.9536   69.8164 H   0  0  0  0  0  0  0  0  0  0  0  0
    2.8064   64.6179   71.6112 H   0  0  0  0  0  0  0  0  0  0  0  0
    1.5534   61.9899   69.4414 H   0  0  0  0  0  0  0  0  0  0  0  0
    2.7190   59.8105   69.1242 H   0  0  0  0  0  0  0  0  0  0  0  0
    5.0717   59.5265   69.9023 H   0  0  0  0  0  0  0  0  0  0  0  0
    6.2583   61.4240   70.9996 H   0  0  0  0  0  0  0  0  0  0  0  0
    5.1005   63.6064   71.3192 H   0  0  0  0  0  0  0  0  0  0  0  0
  2  1  1  0
  3  2  1  0
  4  3  2  0
  5  3  1  0
  6  5  1  0
  7  6  1  0
  8  7  2  0
  9  7  1  0
 10  9  1  0
 11  9  1  0
 12 11  1  0
 13 12  2  0
 14 13  1  0
 15 14  1  0
 16 15  2  0
 16 12  1  0
 17 15  1  0
 18 17  1  0
 19 17  1  0
 20  5  1  0
 21 20  1  0
 22 20  1  0
 23  1  1  0
 24 23  1  0
 25 24  2  0
 26 25  1  0
 27 26  2  0
 28 27  1  0
 29 28  2  0
 29 24  1  0
 30  1  1  0
 31 30  1  0
 32 31  1  0
 33 31  1  0
 35 34  2  0
 36 33  1  0
 36 35  1  0
 37 35  1  0
 38 37  1  0
 39 38  1  0
 40 39  2  0
 41 40  1  0
 42 41  2  0
 43 42  1  0
 43 39  1  0
 44 33  1  0
 45 44  1  0
 46 45  2  0
 47 46  1  0
 48 47  2  0
 49 48  1  0
 50 49  2  0
 50 45  1  0
  1 51  1  1
  2 52  1  0
  5 53  1  1
  6 54  1  0
 10 55  1  0
 10 56  1  0
 10 57  1  0
 11 58  1  0
 11 59  1  0
 13 60  1  0
 17 61  1  0
 18 62  1  0
 18 63  1  0
 18 64  1  0
 19 65  1  0
 19 66  1  0
 19 67  1  0
 20 68  1  0
 21 69  1  0
 21 70  1  0
 21 71  1  0
 22 72  1  0
 22 73  1  0
 22 74  1  0
 23 75  1  0
 23 76  1  0
 25 77  1  0
 26 78  1  0
 27 79  1  0
 28 80  1  0
 29 81  1  0
 30 82  1  0
 30 83  1  0
 31 84  1  1
 32 85  1  0
 33 86  1  6
 36 87  1  0
 38 88  1  0
 38 89  1  0
 40 90  1  0
 42 91  1  0
 44 92  1  0
 44 93  1  0
 46 94  1  0
 47 95  1  0
 48 96  1  0
 49 97  1  0
 50 98  1  0
M  END
>  <score>  (5) 
-7.805

$$$$
=
     RDKit          3D

 98101  0  0  0  0  0  0  0  0999 V2000
    0.7220   65.2330   70.2870 C   0  0  1  0  0  0  0  0  0  0  0  0
    0.3270   66.5330   69.7100 N   0  0  0  0  0  0  0  0  0  0  0  0
    0.7520   66.9740   68.4770 C   0  0  0  0  0  0  0  0  0  0  0  0
    1.4320   66.2760   67.7200 O   0  0  0  0  0  0  0  0  0  0  0  0
    0.2460   68.3780   68.0600 C   0  0  1  0  0  0  0  0  0  0  0  0
    1.1140   68.7720   66.9460 N   0  0  0  0  0  0  0  0  0  0  0  0
    2.4130   69.1390   67.1820 C   0  0  0  0  0  0  0  0  0  0  0  0
    2.8260   69.3300   68.3230 O   0  0  0  0  0  0  0  0  0  0  0  0
    3.2040   69.2820   66.0570 N   0  0  0  0  0  0  0  0  0  0  0  0
    4.5990   69.6560   66.2230 C   0  0  0  0  0  0  0  0  0  0  0  0
    2.7530   69.0600   64.6810 C   0  0  0  0  0  0  0  0  0  0  0  0
    3.3600   67.8190   64.0820 C   0  0  0  0  0  0  0  0  0  0  0  0
    4.1320   67.7080   62.9390 C   0  0  0  0  0  0  0  0  0  0  0  0
    4.5900   66.0830   62.6750 S   0  0  0  0  0  0  0  0  0  0  0  0
    3.7340   65.6190   64.0920 C   0  0  0  0  0  0  0  0  0  0  0  0
    3.1490   66.6090   64.7360 N   0  0  0  0  0  0  0  0  0  0  0  0
    3.6580   64.1800   64.5430 C   0  0  0  0  0  0  0  0  0  0  0  0
    4.7440   63.3220   63.8950 C   0  0  0  0  0  0  0  0  0  0  0  0
    3.6800   64.0420   66.0650 C   0  0  0  0  0  0  0  0  0  0  0  0
   -1.2300   68.3460   67.6010 C   0  0  0  0  0  0  0  0  0  0  0  0
   -1.4730   69.1480   66.3190 C   0  0  0  0  0  0  0  0  0  0  0  0
   -1.6980   66.9020   67.3710 C   0  0  0  0  0  0  0  0  0  0  0  0
    2.2530   65.2000   70.5250 C   0  0  0  0  0  0  0  0  0  0  0  0
    2.8930   63.8620   70.2350 C   0  0  0  0  0  0  0  0  0  0  0  0
    2.1830   62.8720   69.5400 C   0  0  0  0  0  0  0  0  0  0  0  0
    2.7640   61.6290   69.2870 C   0  0  0  0  0  0  0  0  0  0  0  0
    4.0610   61.3640   69.7220 C   0  0  0  0  0  0  0  0  0  0  0  0
    4.7790   62.3430   70.4050 C   0  0  0  0  0  0  0  0  0  0  0  0
    4.2000   63.5870   70.6590 C   0  0  0  0  0  0  0  0  0  0  0  0
   -0.0060   64.9730   71.6310 C   0  0  0  0  0  0  0  0  0  0  0  0
    0.1880   63.5700   72.2610 C   0  0  2  0  0  0  0  0  0  0  0  0
   -0.8910   62.6800   71.9740 O   0  0  0  0  0  0  0  0  0  0  0  0
    0.4330   63.6450   73.7990 C   0  0  1  0  0  0  0  0  0  0  0  0
   -0.6180   64.0830   76.4810 O   0  0  0  0  0  0  0  0  0  0  0  0
   -1.0430   63.1920   75.7640 C   0  0  0  0  0  0  0  0  0  0  0  0
   -0.6120   62.9100   74.5110 N   0  0  0  0  0  0  0  0  0  0  0  0
   -2.0270   62.3250   76.0870 O   0  0  0  0  0  0  0  0  0  0  0  0
   -1.7800   60.9810   75.6760 C   0  0  0  0  0  0  0  0  0  0  0  0
   -3.1090   60.4190   75.3040 C   0  0  0  0  0  0  0  0  0  0  0  0
   -4.2830   61.0820   75.0060 C   0  0  0  0  0  0  0  0  0  0  0  0
   -5.3700   60.2820   74.7140 N   0  0  0  0  0  0  0  0  0  0  0  0
   -5.0070   59.0200   74.7820 C   0  0  0  0  0  0  0  0  0  0  0  0
   -3.3710   58.7250   75.1990 S   0  0  0  0  0  0  0  0  0  0  0  0
    1.8200   63.0970   74.2040 C   0  0  0  0  0  0  0  0  0  0  0  0
    2.1180   61.7330   73.6300 C   0  0  0  0  0  0  0  0  0  0  0  0
    3.4350   61.2570   73.5800 C   0  0  0  0  0  0  0  0  0  0  0  0
    3.7140   60.0030   73.0350 C   0  0  0  0  0  0  0  0  0  0  0  0
    2.6780   59.2130   72.5350 C   0  0  0  0  0  0  0  0  0  0  0  0
    1.3650   59.6780   72.5800 C   0  0  0  0  0  0  0  0  0  0  0  0
    1.0840   60.9320   73.1240 C   0  0  0  0  0  0  0  0  0  0  0  0
    0.4371   64.4472   69.5719 H   0  0  0  0  0  0  0  0  0  0  0  0
   -0.2984   67.1411   70.2577 H   0  0  0  0  0  0  0  0  0  0  0  0
    0.2847   69.0829   68.9036 H   0  0  0  0  0  0  0  0  0  0  0  0
    0.7465   68.7729   65.9838 H   0  0  0  0  0  0  0  0  0  0  0  0
    4.8365   69.7197   67.2952 H   0  0  0  0  0  0  0  0  0  0  0  0
    5.2406   68.8982   65.7497 H   0  0  0  0  0  0  0  0  0  0  0  0
    4.7755   70.6332   65.7497 H   0  0  0  0  0  0  0  0  0  0  0  0
    1.6579   68.9565   64.6785 H   0  0  0  0  0  0  0  0  0  0  0  0
    3.0726   69.9210   64.0755 H   0  0  0  0  0  0  0  0  0  0  0  0
    4.4124   68.5503   62.2894 H   0  0  0  0  0  0  0  0  0  0  0  0
    2.6838   63.8015   64.1999 H   0  0  0  0  0  0  0  0  0  0  0  0
    5.3496   62.8435   64.6788 H   0  0  0  0  0  0  0  0  0  0  0  0
    4.2753   62.5477   63.2699 H   0  0  0  0  0  0  0  0  0  0  0  0
    5.3888   63.9572   63.2699 H   0  0  0  0  0  0  0  0  0  0  0  0
    3.5227   65.0288   66.5249 H   0  0  0  0  0  0  0  0  0  0  0  0
    2.8796   63.3576   66.3827 H   0  0  0  0  0  0  0  0  0  0  0  0
    4.6535   63.6404   66.3827 H   0  0  0  0  0  0  0  0  0  0  0  0
   -1.8079   68.8121   68.4127 H   0  0  0  0  0  0  0  0  0  0  0  0
   -1.7829   70.1708   66.5795 H   0  0  0  0  0  0  0  0  0  0  0  0
   -0.5458   69.1850   65.7284 H   0  0  0  0  0  0  0  0  0  0  0  0
   -2.2649   68.6642   65.7284 H   0  0  0  0  0  0  0  0  0  0  0  0
   -1.8577   66.4093   68.3415 H   0  0  0  0  0  0  0  0  0  0  0  0
   -2.6402   66.9079   66.8034 H   0  0  0  0  0  0  0  0  0  0  0  0
   -0.9314   66.3541   66.8034 H   0  0  0  0  0  0  0  0  0  0  0  0
    2.7201   65.9546   69.8751 H   0  0  0  0  0  0  0  0  0  0  0  0
    2.4126   65.4033   71.5942 H   0  0  0  0  0  0  0  0  0  0  0  0
    1.1600   63.0772   69.1916 H   0  0  0  0  0  0  0  0  0  0  0  0
    2.1980   60.8579   68.7439 H   0  0  0  0  0  0  0  0  0  0  0  0
    4.5175   60.3825   69.5262 H   0  0  0  0  0  0  0  0  0  0  0  0
    5.8043   62.1351   70.7448 H   0  0  0  0  0  0  0  0  0  0  0  0
    4.7735   64.3570   71.1958 H   0  0  0  0  0  0  0  0  0  0  0  0
    0.3540   65.7179   72.3560 H   0  0  0  0  0  0  0  0  0  0  0  0
   -1.0791   65.0431   71.3998 H   0  0  0  0  0  0  0  0  0  0  0  0
    1.0916   63.1582   71.7878 H   0  0  0  0  0  0  0  0  0  0  0  0
   -1.2851   62.3549   72.8220 H   0  0  0  0  0  0  0  0  0  0  0  0
    0.4025   64.7086   74.0781 H   0  0  0  0  0  0  0  0  0  0  0  0
   -1.0537   62.1179   74.0227 H   0  0  0  0  0  0  0  0  0  0  0  0
   -1.1011   60.9638   74.8107 H   0  0  0  0  0  0  0  0  0  0  0  0
   -1.3020   60.3949   76.4748 H   0  0  0  0  0  0  0  0  0  0  0  0
   -4.3483   62.1800   75.0015 H   0  0  0  0  0  0  0  0  0  0  0  0
   -5.7130   58.2004   74.5826 H   0  0  0  0  0  0  0  0  0  0  0  0
    2.5890   63.7995   73.8503 H   0  0  0  0  0  0  0  0  0  0  0  0
    1.8211   62.9951   75.2993 H   0  0  0  0  0  0  0  0  0  0  0  0
    4.2548   61.8762   73.9731 H   0  0  0  0  0  0  0  0  0  0  0  0
    4.7508   59.6372   72.9995 H   0  0  0  0  0  0  0  0  0  0  0  0
    2.8975   58.2243   72.1058 H   0  0  0  0  0  0  0  0  0  0  0  0
    0.5484   59.0552   72.1859 H   0  0  0  0  0  0  0  0  0  0  0  0
    0.0458   61.2942   73.1561 H   0  0  0  0  0  0  0  0  0  0  0  0
  2  1  1  0
  3  2  1  0
  4  3  2  0
  5  3  1  0
  6  5  1  0
  7  6  1  0
  8  7  2  0
  9  7  1  0
 10  9  1  0
 11  9  1  0
 12 11  1  0
 13 12  2  0
 14 13  1  0
 15 14  1  0
 16 15  2  0
 16 12  1  0
 17 15  1  0
 18 17  1  0
 19 17  1  0
 20  5  1  0
 21 20  1  0
 22 20  1  0
 23  1  1  0
 24 23  1  0
 25 24  2  0
 26 25  1  0
 27 26  2  0
 28 27  1  0
 29 28  2  0
 29 24  1  0
 30  1  1  0
 31 30  1  0
 32 31  1  0
 33 31  1  0
 35 34  2  0
 36 33  1  0
 36 35  1  0
 37 35  1  0
 38 37  1  0
 39 38  1  0
 40 39  2  0
 41 40  1  0
 42 41  2  0
 43 42  1  0
 43 39  1  0
 44 33  1  0
 45 44  1  0
 46 45  2  0
 47 46  1  0
 48 47  2  0
 49 48  1  0
 50 49  2  0
 50 45  1  0
  1 51  1  6
  2 52  1  0
  5 53  1  1
  6 54  1  0
 10 55  1  0
 10 56  1  0
 10 57  1  0
 11 58  1  0
 11 59  1  0
 13 60  1  0
 17 61  1  0
 18 62  1  0
 18 63  1  0
 18 64  1  0
 19 65  1  0
 19 66  1  0
 19 67  1  0
 20 68  1  0
 21 69  1  0
 21 70  1  0
 21 71  1  0
 22 72  1  0
 22 73  1  0
 22 74  1  0
 23 75  1  0
 23 76  1  0
 25 77  1  0
 26 78  1  0
 27 79  1  0
 28 80  1  0
 29 81  1  0
 30 82  1  0
 30 83  1  0
 31 84  1  6
 32 85  1  0
 33 86  1  1
 36 87  1  0
 38 88  1  0
 38 89  1  0
 40 90  1  0
 42 91  1  0
 44 92  1  0
 44 93  1  0
 46 94  1  0
 47 95  1  0
 48 96  1  0
 49 97  1  0
 50 98  1  0
M  END
>  <score>  (6) 
-7.692

$$$$
=
     RDKit          3D

 98101  0  0  0  0  0  0  0  0999 V2000
    0.8510   65.0840   70.2290 C   0  0  1  0  0  0  0  0  0  0  0  0
    0.4310   66.3970   69.7000 N   0  0  0  0  0  0  0  0  0  0  0  0
    0.8090   66.8720   68.4640 C   0  0  0  0  0  0  0  0  0  0  0  0
    1.4620   66.1960   67.6640 O   0  0  0  0  0  0  0  0  0  0  0  0
    0.2840   68.2840   68.1030 C   0  0  1  0  0  0  0  0  0  0  0  0
    1.0900   68.6990   66.9520 N   0  0  0  0  0  0  0  0  0  0  0  0
    2.3770   69.1330   67.1340 C   0  0  0  0  0  0  0  0  0  0  0  0
    2.8210   69.3660   68.2560 O   0  0  0  0  0  0  0  0  0  0  0  0
    3.1190   69.2940   65.9790 N   0  0  0  0  0  0  0  0  0  0  0  0
    4.4990   69.7390   66.0870 C   0  0  0  0  0  0  0  0  0  0  0  0
    2.6310   69.0250   64.6240 C   0  0  0  0  0  0  0  0  0  0  0  0
    3.3620   67.8770   63.9790 C   0  0  0  0  0  0  0  0  0  0  0  0
    3.8090   67.7700   62.6740 C   0  0  0  0  0  0  0  0  0  0  0  0
    4.5890   66.2710   62.4230 S   0  0  0  0  0  0  0  0  0  0  0  0
    4.2840   65.8470   64.0620 C   0  0  0  0  0  0  0  0  0  0  0  0
    3.6500   66.7650   64.7640 N   0  0  0  0  0  0  0  0  0  0  0  0
    4.7050   64.5140   64.6330 C   0  0  0  0  0  0  0  0  0  0  0  0
    3.7210   64.0120   65.6890 C   0  0  0  0  0  0  0  0  0  0  0  0
    4.9380   63.4610   63.5500 C   0  0  0  0  0  0  0  0  0  0  0  0
   -1.2160   68.2620   67.7250 C   0  0  0  0  0  0  0  0  0  0  0  0
   -1.5220   69.0670   66.4570 C   0  0  0  0  0  0  0  0  0  0  0  0
   -1.7050   66.8220   67.5200 C   0  0  0  0  0  0  0  0  0  0  0  0
    2.3840   65.0680   70.4560 C   0  0  0  0  0  0  0  0  0  0  0  0
    3.0310   63.7270   70.1960 C   0  0  0  0  0  0  0  0  0  0  0  0
    4.3020   63.4400   70.7160 C   0  0  0  0  0  0  0  0  0  0  0  0
    4.9100   62.2100   70.4630 C   0  0  0  0  0  0  0  0  0  0  0  0
    4.2530   61.2530   69.6900 C   0  0  0  0  0  0  0  0  0  0  0  0
    2.9870   61.5240   69.1770 C   0  0  0  0  0  0  0  0  0  0  0  0
    2.3760   62.7530   69.4300 C   0  0  0  0  0  0  0  0  0  0  0  0
    0.1360   64.7640   71.5670 C   0  0  0  0  0  0  0  0  0  0  0  0
    0.1220   63.2770   72.0020 C   0  0  2  0  0  0  0  0  0  0  0  0
   -1.1400   62.6450   71.7750 O   0  0  0  0  0  0  0  0  0  0  0  0
    0.5570   63.0950   73.4890 C   0  0  1  0  0  0  0  0  0  0  0  0
   -1.5320   63.1340   75.5190 O   0  0  0  0  0  0  0  0  0  0  0  0
   -1.1330   62.0890   75.0310 C   0  0  0  0  0  0  0  0  0  0  0  0
   -0.1650   61.9740   74.0910 N   0  0  0  0  0  0  0  0  0  0  0  0
   -1.5880   60.8550   75.3360 O   0  0  0  0  0  0  0  0  0  0  0  0
   -1.5600   59.9360   74.2450 C   0  0  0  0  0  0  0  0  0  0  0  0
   -0.7850   58.7570   74.7250 C   0  0  0  0  0  0  0  0  0  0  0  0
   -0.9730   57.4180   74.4440 C   0  0  0  0  0  0  0  0  0  0  0  0
   -0.0960   56.5450   75.0580 N   0  0  0  0  0  0  0  0  0  0  0  0
    0.7540   57.2300   75.7890 C   0  0  0  0  0  0  0  0  0  0  0  0
    0.5530   58.9330   75.7870 S   0  0  0  0  0  0  0  0  0  0  0  0
    2.0780   62.8710   73.6360 C   0  0  0  0  0  0  0  0  0  0  0  0
    2.5210   61.4810   73.2470 C   0  0  0  0  0  0  0  0  0  0  0  0
    1.6890   60.6630   72.4710 C   0  0  0  0  0  0  0  0  0  0  0  0
    2.0920   59.3720   72.1250 C   0  0  0  0  0  0  0  0  0  0  0  0
    3.3280   58.8880   72.5510 C   0  0  0  0  0  0  0  0  0  0  0  0
    4.1620   59.6940   73.3240 C   0  0  0  0  0  0  0  0  0  0  0  0
    3.7620   60.9850   73.6710 C   0  0  0  0  0  0  0  0  0  0  0  0
    0.5740   64.3192   69.4885 H   0  0  0  0  0  0  0  0  0  0  0  0
   -0.1760   66.9881   70.2857 H   0  0  0  0  0  0  0  0  0  0  0  0
    0.3703   68.9723   68.9567 H   0  0  0  0  0  0  0  0  0  0  0  0
    0.6884   68.6645   66.0041 H   0  0  0  0  0  0  0  0  0  0  0  0
    4.7737   69.8276   67.1485 H   0  0  0  0  0  0  0  0  0  0  0  0
    5.1593   69.0082   65.5971 H   0  0  0  0  0  0  0  0  0  0  0  0
    4.6080   70.7178   65.5971 H   0  0  0  0  0  0  0  0  0  0  0  0
    1.5597   68.7806   64.6743 H   0  0  0  0  0  0  0  0  0  0  0  0
    2.8056   69.9243   64.0150 H   0  0  0  0  0  0  0  0  0  0  0  0
    3.6798   68.5443   61.9034 H   0  0  0  0  0  0  0  0  0  0  0  0
    5.6718   64.6831   65.1297 H   0  0  0  0  0  0  0  0  0  0  0  0
    4.1233   64.2172   66.6920 H   0  0  0  0  0  0  0  0  0  0  0  0
    2.7576   64.5288   65.5675 H   0  0  0  0  0  0  0  0  0  0  0  0
    3.5739   62.9287   65.5675 H   0  0  0  0  0  0  0  0  0  0  0  0
    5.1527   62.4909   64.0220 H   0  0  0  0  0  0  0  0  0  0  0  0
    4.0376   63.3731   62.9243 H   0  0  0  0  0  0  0  0  0  0  0  0
    5.7914   63.7612   62.9243 H   0  0  0  0  0  0  0  0  0  0  0  0
   -1.7463   68.7309   68.5670 H   0  0  0  0  0  0  0  0  0  0  0  0
   -1.9000   70.0615   66.7364 H   0  0  0  0  0  0  0  0  0  0  0  0
   -0.6032   69.1777   65.8623 H   0  0  0  0  0  0  0  0  0  0  0  0
   -2.2823   68.5395   65.8623 H   0  0  0  0  0  0  0  0  0  0  0  0
   -1.8664   66.3467   68.4988 H   0  0  0  0  0  0  0  0  0  0  0  0
   -2.6500   66.8323   66.9571 H   0  0  0  0  0  0  0  0  0  0  0  0
   -0.9491   66.2547   66.9571 H   0  0  0  0  0  0  0  0  0  0  0  0
    2.8409   65.8085   69.7831 H   0  0  0  0  0  0  0  0  0  0  0  0
    2.5504   65.3006   71.5182 H   0  0  0  0  0  0  0  0  0  0  0  0
    4.8234   64.1907   71.3281 H   0  0  0  0  0  0  0  0  0  0  0  0
    5.9077   61.9950   70.8733 H   0  0  0  0  0  0  0  0  0  0  0  0
    4.7343   60.2852   69.4857 H   0  0  0  0  0  0  0  0  0  0  0  0
    2.4672   60.7674   68.5708 H   0  0  0  0  0  0  0  0  0  0  0  0
    1.3739   62.9586   69.0256 H   0  0  0  0  0  0  0  0  0  0  0  0
    0.6359   65.3399   72.3597 H   0  0  0  0  0  0  0  0  0  0  0  0
   -0.9188   65.0313   71.4059 H   0  0  0  0  0  0  0  0  0  0  0  0
    0.8637   62.7771   71.3616 H   0  0  0  0  0  0  0  0  0  0  0  0
   -1.5638   62.4327   72.6441 H   0  0  0  0  0  0  0  0  0  0  0  0
    0.3073   64.0289   74.0138 H   0  0  0  0  0  0  0  0  0  0  0  0
    0.0818   61.0250   73.7758 H   0  0  0  0  0  0  0  0  0  0  0  0
   -2.5822   59.6362   73.9707 H   0  0  0  0  0  0  0  0  0  0  0  0
   -1.1020   60.3840   73.3508 H   0  0  0  0  0  0  0  0  0  0  0  0
   -1.7714   57.0684   73.7730 H   0  0  0  0  0  0  0  0  0  0  0  0
    1.5492   56.7391   76.3692 H   0  0  0  0  0  0  0  0  0  0  0  0
    2.6005   63.5956   72.9942 H   0  0  0  0  0  0  0  0  0  0  0  0
    2.3239   63.0038   74.6999 H   0  0  0  0  0  0  0  0  0  0  0  0
    0.7127   61.0403   72.1325 H   0  0  0  0  0  0  0  0  0  0  0  0
    1.4334   58.7358   71.5154 H   0  0  0  0  0  0  0  0  0  0  0  0
    3.6448   57.8708   72.2773 H   0  0  0  0  0  0  0  0  0  0  0  0
    5.1369   59.3118   73.6610 H   0  0  0  0  0  0  0  0  0  0  0  0
    4.4242   61.6173   74.2807 H   0  0  0  0  0  0  0  0  0  0  0  0
  2  1  1  0
  3  2  1  0
  4  3  2  0
  5  3  1  0
  6  5  1  0
  7  6  1  0
  8  7  2  0
  9  7  1  0
 10  9  1  0
 11  9  1  0
 12 11  1  0
 13 12  2  0
 14 13  1  0
 15 14  1  0
 16 15  2  0
 16 12  1  0
 17 15  1  0
 18 17  1  0
 19 17  1  0
 20  5  1  0
 21 20  1  0
 22 20  1  0
 23  1  1  0
 24 23  1  0
 25 24  2  0
 26 25  1  0
 27 26  2  0
 28 27  1  0
 29 28  2  0
 29 24  1  0
 30  1  1  0
 31 30  1  0
 32 31  1  0
 33 31  1  0
 35 34  2  0
 36 33  1  0
 36 35  1  0
 37 35  1  0
 38 37  1  0
 39 38  1  0
 40 39  2  0
 41 40  1  0
 42 41  2  0
 43 42  1  0
 43 39  1  0
 44 33  1  0
 45 44  1  0
 46 45  2  0
 47 46  1  0
 48 47  2  0
 49 48  1  0
 50 49  2  0
 50 45  1  0
  1 51  1  6
  2 52  1  0
  5 53  1  1
  6 54  1  0
 10 55  1  0
 10 56  1  0
 10 57  1  0
 11 58  1  0
 11 59  1  0
 13 60  1  0
 17 61  1  0
 18 62  1  0
 18 63  1  0
 18 64  1  0
 19 65  1  0
 19 66  1  0
 19 67  1  0
 20 68  1  0
 21 69  1  0
 21 70  1  0
 21 71  1  0
 22 72  1  0
 22 73  1  0
 22 74  1  0
 23 75  1  0
 23 76  1  0
 25 77  1  0
 26 78  1  0
 27 79  1  0
 28 80  1  0
 29 81  1  0
 30 82  1  0
 30 83  1  0
 31 84  1  6
 32 85  1  0
 33 86  1  1
 36 87  1  0
 38 88  1  0
 38 89  1  0
 40 90  1  0
 42 91  1  0
 44 92  1  0
 44 93  1  0
 46 94  1  0
 47 95  1  0
 48 96  1  0
 49 97  1  0
 50 98  1  0
M  END
>  <score>  (7) 
-7.669

$$$$
=
     RDKit          3D

 98101  0  0  0  0  0  0  0  0999 V2000
    0.1680   62.1360   74.0700 C   0  0  1  0  0  0  0  0  0  0  0  0
   -1.2370   62.3340   74.4760 N   0  0  0  0  0  0  0  0  0  0  0  0
   -1.8270   61.6530   75.5180 C   0  0  0  0  0  0  0  0  0  0  0  0
   -1.1980   60.8830   76.2490 O   0  0  0  0  0  0  0  0  0  0  0  0
   -3.3200   61.9840   75.7700 C   0  0  1  0  0  0  0  0  0  0  0  0
   -3.9390   60.6940   76.0880 N   0  0  0  0  0  0  0  0  0  0  0  0
   -4.8350   60.1280   75.2210 C   0  0  0  0  0  0  0  0  0  0  0  0
   -5.2840   60.7550   74.2650 O   0  0  0  0  0  0  0  0  0  0  0  0
   -5.1940   58.8230   75.5050 N   0  0  0  0  0  0  0  0  0  0  0  0
   -6.1320   58.1450   74.6240 C   0  0  0  0  0  0  0  0  0  0  0  0
   -4.6810   58.0380   76.6300 C   0  0  0  0  0  0  0  0  0  0  0  0
   -3.5260   57.1600   76.2260 C   0  0  0  0  0  0  0  0  0  0  0  0
   -3.3810   55.7960   76.4050 C   0  0  0  0  0  0  0  0  0  0  0  0
   -1.8900   55.2580   75.7680 S   0  0  0  0  0  0  0  0  0  0  0  0
   -1.5190   56.8690   75.2940 C   0  0  0  0  0  0  0  0  0  0  0  0
   -2.4490   57.7590   75.5790 N   0  0  0  0  0  0  0  0  0  0  0  0
   -0.2160   57.2220   74.6170 C   0  0  0  0  0  0  0  0  0  0  0  0
    0.9210   57.3870   75.6240 C   0  0  0  0  0  0  0  0  0  0  0  0
    0.1580   56.2300   73.5160 C   0  0  0  0  0  0  0  0  0  0  0  0
   -3.5010   62.9690   76.9470 C   0  0  0  0  0  0  0  0  0  0  0  0
   -4.5540   64.0460   76.6660 C   0  0  0  0  0  0  0  0  0  0  0  0
   -3.8970   62.2200   78.2280 C   0  0  0  0  0  0  0  0  0  0  0  0
    0.2900   60.8860   73.1630 C   0  0  0  0  0  0  0  0  0  0  0  0
    1.6160   60.1690   73.2750 C   0  0  0  0  0  0  0  0  0  0  0  0
    1.9630   59.1710   72.3530 C   0  0  0  0  0  0  0  0  0  0  0  0
    3.1790   58.4950   72.4650 C   0  0  0  0  0  0  0  0  0  0  0  0
    4.0600   58.8110   73.4970 C   0  0  0  0  0  0  0  0  0  0  0  0
    3.7290   59.8060   74.4130 C   0  0  0  0  0  0  0  0  0  0  0  0
    2.5150   60.4850   74.3030 C   0  0  0  0  0  0  0  0  0  0  0  0
    0.7100   63.3720   73.3070 C   0  0  0  0  0  0  0  0  0  0  0  0
    0.0570   63.6740   71.9330 C   0  0  2  0  0  0  0  0  0  0  0  0
   -1.0180   62.7860   71.6230 O   0  0  0  0  0  0  0  0  0  0  0  0
    1.1020   63.6830   70.7760 C   0  0  1  0  0  0  0  0  0  0  0  0
    0.0730   66.3510   71.3360 O   0  0  0  0  0  0  0  0  0  0  0  0
    0.3380   65.9920   70.2000 C   0  0  0  0  0  0  0  0  0  0  0  0
    0.8130   64.7740   69.8450 N   0  0  0  0  0  0  0  0  0  0  0  0
    0.2120   66.7480   69.0880 O   0  0  0  0  0  0  0  0  0  0  0  0
   -1.0050   66.5370   68.3750 C   0  0  0  0  0  0  0  0  0  0  0  0
   -0.9240   67.4050   67.1660 C   0  0  0  0  0  0  0  0  0  0  0  0
   -1.9300   68.1030   66.5260 C   0  0  0  0  0  0  0  0  0  0  0  0
   -1.5500   68.8150   65.4050 N   0  0  0  0  0  0  0  0  0  0  0  0
   -0.2590   68.6590   65.2120 C   0  0  0  0  0  0  0  0  0  0  0  0
    0.5600   67.6630   66.3420 S   0  0  0  0  0  0  0  0  0  0  0  0
    2.5530   63.8120   71.2900 C   0  0  0  0  0  0  0  0  0  0  0  0
    3.4230   62.6290   70.9380 C   0  0  0  0  0  0  0  0  0  0  0  0
    4.6230   62.4030   71.6240 C   0  0  0  0  0  0  0  0  0  0  0  0
    5.4360   61.3190   71.2890 C   0  0  0  0  0  0  0  0  0  0  0  0
    5.0550   60.4520   70.2660 C   0  0  0  0  0  0  0  0  0  0  0  0
    3.8630   60.6680   69.5770 C   0  0  0  0  0  0  0  0  0  0  0  0
    3.0490   61.7520   69.9100 C   0  0  0  0  0  0  0  0  0  0  0  0
    0.7641   61.9942   74.9835 H   0  0  0  0  0  0  0  0  0  0  0  0
   -1.8053   63.0160   73.9537 H   0  0  0  0  0  0  0  0  0  0  0  0
   -3.7742   62.4730   74.8956 H   0  0  0  0  0  0  0  0  0  0  0  0
   -3.6993   60.2119   76.9661 H   0  0  0  0  0  0  0  0  0  0  0  0
   -6.8775   57.6061   75.2271 H   0  0  0  0  0  0  0  0  0  0  0  0
   -6.6401   58.8860   73.9893 H   0  0  0  0  0  0  0  0  0  0  0  0
   -5.5878   57.4302   73.9893 H   0  0  0  0  0  0  0  0  0  0  0  0
   -4.3445   58.7265   77.4191 H   0  0  0  0  0  0  0  0  0  0  0  0
   -5.4926   57.3877   76.9883 H   0  0  0  0  0  0  0  0  0  0  0  0
   -4.1241   55.1467   76.8910 H   0  0  0  0  0  0  0  0  0  0  0  0
   -0.3745   58.1958   74.1305 H   0  0  0  0  0  0  0  0  0  0  0  0
    0.5174   57.3284   76.6456 H   0  0  0  0  0  0  0  0  0  0  0  0
    1.6611   56.5869   75.4757 H   0  0  0  0  0  0  0  0  0  0  0  0
    1.4031   58.3645   75.4757 H   0  0  0  0  0  0  0  0  0  0  0  0
    0.5113   55.2930   73.9712 H   0  0  0  0  0  0  0  0  0  0  0  0
   -0.7245   56.0247   72.8922 H   0  0  0  0  0  0  0  0  0  0  0  0
    0.9563   56.6584   72.8922 H   0  0  0  0  0  0  0  0  0  0  0  0
   -2.5279   63.4651   77.0774 H   0  0  0  0  0  0  0  0  0  0  0  0
   -4.9389   64.4397   77.6183 H   0  0  0  0  0  0  0  0  0  0  0  0
   -4.0973   64.8636   76.0890 H   0  0  0  0  0  0  0  0  0  0  0  0
   -5.3817   63.6078   76.0890 H   0  0  0  0  0  0  0  0  0  0  0  0
   -3.5872   62.8059   79.1059 H   0  0  0  0  0  0  0  0  0  0  0  0
   -4.9877   62.0786   78.2478 H   0  0  0  0  0  0  0  0  0  0  0  0
   -3.3997   61.2390   78.2478 H   0  0  0  0  0  0  0  0  0  0  0  0
   -0.5083   60.1808   73.4376 H   0  0  0  0  0  0  0  0  0  0  0  0
    0.2069   61.2385   72.1243 H   0  0  0  0  0  0  0  0  0  0  0  0
    1.2717   58.9190   71.5353 H   0  0  0  0  0  0  0  0  0  0  0  0
    3.4419   57.7124   71.7381 H   0  0  0  0  0  0  0  0  0  0  0  0
    5.0162   58.2749   73.5881 H   0  0  0  0  0  0  0  0  0  0  0  0
    4.4265   60.0575   75.2256 H   0  0  0  0  0  0  0  0  0  0  0  0
    2.2619   61.2731   75.0274 H   0  0  0  0  0  0  0  0  0  0  0  0
    0.5622   64.2530   73.9488 H   0  0  0  0  0  0  0  0  0  0  0  0
    1.7626   63.1412   73.0863 H   0  0  0  0  0  0  0  0  0  0  0  0
   -0.3656   64.6855   72.0244 H   0  0  0  0  0  0  0  0  0  0  0  0
   -1.4225   62.4518   72.4625 H   0  0  0  0  0  0  0  0  0  0  0  0
    1.0179   62.7149   70.2605 H   0  0  0  0  0  0  0  0  0  0  0  0
    0.9836   64.6030   68.8437 H   0  0  0  0  0  0  0  0  0  0  0  0
   -1.0992   65.4808   68.0825 H   0  0  0  0  0  0  0  0  0  0  0  0
   -1.8826   66.7824   68.9911 H   0  0  0  0  0  0  0  0  0  0  0  0
   -2.9691   68.0924   66.8868 H   0  0  0  0  0  0  0  0  0  0  0  0
    0.2658   69.1400   64.3734 H   0  0  0  0  0  0  0  0  0  0  0  0
    2.9994   64.7159   70.8499 H   0  0  0  0  0  0  0  0  0  0  0  0
    2.5045   63.8633   72.3877 H   0  0  0  0  0  0  0  0  0  0  0  0
    4.9268   63.0844   72.4323 H   0  0  0  0  0  0  0  0  0  0  0  0
    6.3773   61.1489   71.8322 H   0  0  0  0  0  0  0  0  0  0  0  0
    5.6953   59.5972   70.0026 H   0  0  0  0  0  0  0  0  0  0  0  0
    3.5633   59.9835   68.7698 H   0  0  0  0  0  0  0  0  0  0  0  0
    2.1093   61.9190   69.3631 H   0  0  0  0  0  0  0  0  0  0  0  0
  2  1  1  0
  3  2  1  0
  4  3  2  0
  5  3  1  0
  6  5  1  0
  7  6  1  0
  8  7  2  0
  9  7  1  0
 10  9  1  0
 11  9  1  0
 12 11  1  0
 13 12  2  0
 14 13  1  0
 15 14  1  0
 16 15  2  0
 16 12  1  0
 17 15  1  0
 18 17  1  0
 19 17  1  0
 20  5  1  0
 21 20  1  0
 22 20  1  0
 23  1  1  0
 24 23  1  0
 25 24  2  0
 26 25  1  0
 27 26  2  0
 28 27  1  0
 29 28  2  0
 29 24  1  0
 30  1  1  0
 31 30  1  0
 32 31  1  0
 33 31  1  0
 35 34  2  0
 36 33  1  0
 36 35  1  0
 37 35  1  0
 38 37  1  0
 39 38  1  0
 40 39  2  0
 41 40  1  0
 42 41  2  0
 43 42  1  0
 43 39  1  0
 44 33  1  0
 45 44  1  0
 46 45  2  0
 47 46  1  0
 48 47  2  0
 49 48  1  0
 50 49  2  0
 50 45  1  0
  1 51  1  1
  2 52  1  0
  5 53  1  6
  6 54  1  0
 10 55  1  0
 10 56  1  0
 10 57  1  0
 11 58  1  0
 11 59  1  0
 13 60  1  0
 17 61  1  0
 18 62  1  0
 18 63  1  0
 18 64  1  0
 19 65  1  0
 19 66  1  0
 19 67  1  0
 20 68  1  0
 21 69  1  0
 21 70  1  0
 21 71  1  0
 22 72  1  0
 22 73  1  0
 22 74  1  0
 23 75  1  0
 23 76  1  0
 25 77  1  0
 26 78  1  0
 27 79  1  0
 28 80  1  0
 29 81  1  0
 30 82  1  0
 30 83  1  0
 31 84  1  1
 32 85  1  0
 33 86  1  6
 36 87  1  0
 38 88  1  0
 38 89  1  0
 40 90  1  0
 42 91  1  0
 44 92  1  0
 44 93  1  0
 46 94  1  0
 47 95  1  0
 48 96  1  0
 49 97  1  0
 50 98  1  0
M  END
>  <score>  (8) 
-7.638

$$$$
=
     RDKit          3D

 98101  0  0  0  0  0  0  0  0999 V2000
    0.6370   62.4150   72.6600 C   0  0  1  0  0  0  0  0  0  0  0  0
    0.6750   63.0350   73.9990 N   0  0  0  0  0  0  0  0  0  0  0  0
   -0.4200   63.1060   74.8310 C   0  0  0  0  0  0  0  0  0  0  0  0
   -1.5010   62.5800   74.5530 O   0  0  0  0  0  0  0  0  0  0  0  0
   -0.1820   63.8190   76.1860 C   0  0  1  0  0  0  0  0  0  0  0  0
   -1.5250   64.1160   76.6930 N   0  0  0  0  0  0  0  0  0  0  0  0
   -2.2160   65.1990   76.2160 C   0  0  0  0  0  0  0  0  0  0  0  0
   -1.6730   66.0440   75.5100 O   0  0  0  0  0  0  0  0  0  0  0  0
   -3.5450   65.2680   76.5920 N   0  0  0  0  0  0  0  0  0  0  0  0
   -4.3520   66.3800   76.1180 C   0  0  0  0  0  0  0  0  0  0  0  0
   -4.2320   64.2820   77.4290 C   0  0  0  0  0  0  0  0  0  0  0  0
   -4.8910   63.2050   76.6070 C   0  0  0  0  0  0  0  0  0  0  0  0
   -6.0770   63.2730   75.8970 C   0  0  0  0  0  0  0  0  0  0  0  0
   -6.4010   61.7870   75.1180 S   0  0  0  0  0  0  0  0  0  0  0  0
   -4.9480   61.1370   75.7710 C   0  0  0  0  0  0  0  0  0  0  0  0
   -4.2520   61.9720   76.5160 N   0  0  0  0  0  0  0  0  0  0  0  0
   -4.5250   59.7110   75.5120 C   0  0  0  0  0  0  0  0  0  0  0  0
   -5.6150   58.9160   74.7930 C   0  0  0  0  0  0  0  0  0  0  0  0
   -3.1940   59.6230   74.7660 C   0  0  0  0  0  0  0  0  0  0  0  0
    0.5780   62.9170   77.1860 C   0  0  0  0  0  0  0  0  0  0  0  0
    1.1690   63.6990   78.3640 C   0  0  0  0  0  0  0  0  0  0  0  0
   -0.3430   61.8200   77.7400 C   0  0  0  0  0  0  0  0  0  0  0  0
   -0.1890   61.1050   72.7030 C   0  0  0  0  0  0  0  0  0  0  0  0
    0.6390   59.8630   72.9490 C   0  0  0  0  0  0  0  0  0  0  0  0
    1.9650   59.7930   72.4960 C   0  0  0  0  0  0  0  0  0  0  0  0
    2.7250   58.6420   72.7050 C   0  0  0  0  0  0  0  0  0  0  0  0
    2.1700   57.5510   73.3710 C   0  0  0  0  0  0  0  0  0  0  0  0
    0.8570   57.6130   73.8330 C   0  0  0  0  0  0  0  0  0  0  0  0
    0.0950   58.7640   73.6260 C   0  0  0  0  0  0  0  0  0  0  0  0
    0.0090   63.3760   71.6160 C   0  0  0  0  0  0  0  0  0  0  0  0
    0.6390   64.7880   71.5130 C   0  0  2  0  0  0  0  0  0  0  0  0
   -0.3360   65.8320   71.5140 O   0  0  0  0  0  0  0  0  0  0  0  0
    1.5760   64.9250   70.2740 C   0  0  1  0  0  0  0  0  0  0  0  0
   -0.4540   66.1020   68.5460 O   0  0  0  0  0  0  0  0  0  0  0  0
    0.5070   66.7450   68.9370 C   0  0  0  0  0  0  0  0  0  0  0  0
    1.4990   66.2820   69.7330 N   0  0  0  0  0  0  0  0  0  0  0  0
    0.7530   68.0420   68.6490 O   0  0  0  0  0  0  0  0  0  0  0  0
    0.9640   68.3020   67.2620 C   0  0  0  0  0  0  0  0  0  0  0  0
    2.2960   68.9650   67.1720 C   0  0  0  0  0  0  0  0  0  0  0  0
    3.1690   69.0230   66.1030 C   0  0  0  0  0  0  0  0  0  0  0  0
    4.3510   69.7030   66.3270 N   0  0  0  0  0  0  0  0  0  0  0  0
    4.3570   70.1620   67.5580 C   0  0  0  0  0  0  0  0  0  0  0  0
    2.9720   69.8090   68.5050 S   0  0  0  0  0  0  0  0  0  0  0  0
    3.0450   64.5800   70.6020 C   0  0  0  0  0  0  0  0  0  0  0  0
    3.4130   63.1510   70.2790 C   0  0  0  0  0  0  0  0  0  0  0  0
    2.6340   62.4030   69.3870 C   0  0  0  0  0  0  0  0  0  0  0  0
    2.9650   61.0780   69.0990 C   0  0  0  0  0  0  0  0  0  0  0  0
    4.0770   60.4900   69.7020 C   0  0  0  0  0  0  0  0  0  0  0  0
    4.8570   61.2260   70.5910 C   0  0  0  0  0  0  0  0  0  0  0  0
    4.5280   62.5510   70.8800 C   0  0  0  0  0  0  0  0  0  0  0  0
    1.6728   62.1949   72.3624 H   0  0  0  0  0  0  0  0  0  0  0  0
    1.5656   63.4347   74.3277 H   0  0  0  0  0  0  0  0  0  0  0  0
    0.4372   64.7193   76.0596 H   0  0  0  0  0  0  0  0  0  0  0  0
   -1.9500   63.5096   77.4090 H   0  0  0  0  0  0  0  0  0  0  0  0
   -4.7542   66.9343   76.9788 H   0  0  0  0  0  0  0  0  0  0  0  0
   -3.7294   67.0512   75.5082 H   0  0  0  0  0  0  0  0  0  0  0  0
   -5.1832   65.9961   75.5082 H   0  0  0  0  0  0  0  0  0  0  0  0
   -3.4984   63.8155   78.1030 H   0  0  0  0  0  0  0  0  0  0  0  0
   -5.0166   64.8050   77.9955 H   0  0  0  0  0  0  0  0  0  0  0  0
   -6.7227   64.1619   75.8417 H   0  0  0  0  0  0  0  0  0  0  0  0
   -4.3716   59.2507   76.4992 H   0  0  0  0  0  0  0  0  0  0  0  0
   -6.2705   58.4379   75.5358 H   0  0  0  0  0  0  0  0  0  0  0  0
   -6.2086   59.5947   74.1629 H   0  0  0  0  0  0  0  0  0  0  0  0
   -5.1501   58.1434   74.1629 H   0  0  0  0  0  0  0  0  0  0  0  0
   -2.3696   59.5685   75.4922 H   0  0  0  0  0  0  0  0  0  0  0  0
   -3.1865   58.7224   74.1344 H   0  0  0  0  0  0  0  0  0  0  0  0
   -3.0680   60.5148   74.1344 H   0  0  0  0  0  0  0  0  0  0  0  0
    1.4078   62.4709   76.6182 H   0  0  0  0  0  0  0  0  0  0  0  0
    0.8297   63.2501   79.3092 H   0  0  0  0  0  0  0  0  0  0  0  0
    2.2673   63.6626   78.3142 H   0  0  0  0  0  0  0  0  0  0  0  0
    0.8342   64.7456   78.3142 H   0  0  0  0  0  0  0  0  0  0  0  0
   -0.3223   61.8446   78.8395 H   0  0  0  0  0  0  0  0  0  0  0  0
   -1.3710   61.9923   77.3886 H   0  0  0  0  0  0  0  0  0  0  0  0
    0.0047   60.8373   77.3886 H   0  0  0  0  0  0  0  0  0  0  0  0
   -0.9318   61.1908   73.5098 H   0  0  0  0  0  0  0  0  0  0  0  0
   -0.6515   60.9879   71.7119 H   0  0  0  0  0  0  0  0  0  0  0  0
    2.4088   60.6523   71.9720 H   0  0  0  0  0  0  0  0  0  0  0  0
    3.7630   58.5956   72.3439 H   0  0  0  0  0  0  0  0  0  0  0  0
    2.7679   56.6418   73.5318 H   0  0  0  0  0  0  0  0  0  0  0  0
    0.4200   56.7532   74.3619 H   0  0  0  0  0  0  0  0  0  0  0  0
   -0.9396   58.8083   73.9970 H   0  0  0  0  0  0  0  0  0  0  0  0
    0.0936   62.8989   70.6285 H   0  0  0  0  0  0  0  0  0  0  0  0
   -1.0243   63.5410   71.9551 H   0  0  0  0  0  0  0  0  0  0  0  0
    1.2487   64.9035   72.4213 H   0  0  0  0  0  0  0  0  0  0  0  0
   -0.5608   66.0727   72.4476 H   0  0  0  0  0  0  0  0  0  0  0  0
    1.2257   64.2000   69.5246 H   0  0  0  0  0  0  0  0  0  0  0  0
    2.2575   66.9349   69.9764 H   0  0  0  0  0  0  0  0  0  0  0  0
    0.9648   67.3614   66.6916 H   0  0  0  0  0  0  0  0  0  0  0  0
    0.1675   68.9342   66.8425 H   0  0  0  0  0  0  0  0  0  0  0  0
    2.9377   68.5569   65.1338 H   0  0  0  0  0  0  0  0  0  0  0  0
    5.2028   70.7401   67.9585 H   0  0  0  0  0  0  0  0  0  0  0  0
    3.6979   65.2479   70.0210 H   0  0  0  0  0  0  0  0  0  0  0  0
    3.1746   64.7111   71.6864 H   0  0  0  0  0  0  0  0  0  0  0  0
    1.7557   62.8628   68.9104 H   0  0  0  0  0  0  0  0  0  0  0  0
    2.3490   60.4974   68.3965 H   0  0  0  0  0  0  0  0  0  0  0  0
    4.3378   59.4456   69.4756 H   0  0  0  0  0  0  0  0  0  0  0  0
    5.7339   60.7619   71.0661 H   0  0  0  0  0  0  0  0  0  0  0  0
    5.1470   63.1276   71.5832 H   0  0  0  0  0  0  0  0  0  0  0  0
  2  1  1  0
  3  2  1  0
  4  3  2  0
  5  3  1  0
  6  5  1  0
  7  6  1  0
  8  7  2  0
  9  7  1  0
 10  9  1  0
 11  9  1  0
 12 11  1  0
 13 12  2  0
 14 13  1  0
 15 14  1  0
 16 15  2  0
 16 12  1  0
 17 15  1  0
 18 17  1  0
 19 17  1  0
 20  5  1  0
 21 20  1  0
 22 20  1  0
 23  1  1  0
 24 23  1  0
 25 24  2  0
 26 25  1  0
 27 26  2  0
 28 27  1  0
 29 28  2  0
 29 24  1  0
 30  1  1  0
 31 30  1  0
 32 31  1  0
 33 31  1  0
 35 34  2  0
 36 33  1  0
 36 35  1  0
 37 35  1  0
 38 37  1  0
 39 38  1  0
 40 39  2  0
 41 40  1  0
 42 41  2  0
 43 42  1  0
 43 39  1  0
 44 33  1  0
 45 44  1  0
 46 45  2  0
 47 46  1  0
 48 47  2  0
 49 48  1  0
 50 49  2  0
 50 45  1  0
  1 51  1  6
  2 52  1  0
  5 53  1  6
  6 54  1  0
 10 55  1  0
 10 56  1  0
 10 57  1  0
 11 58  1  0
 11 59  1  0
 13 60  1  0
 17 61  1  0
 18 62  1  0
 18 63  1  0
 18 64  1  0
 19 65  1  0
 19 66  1  0
 19 67  1  0
 20 68  1  0
 21 69  1  0
 21 70  1  0
 21 71  1  0
 22 72  1  0
 22 73  1  0
 22 74  1  0
 23 75  1  0
 23 76  1  0
 25 77  1  0
 26 78  1  0
 27 79  1  0
 28 80  1  0
 29 81  1  0
 30 82  1  0
 30 83  1  0
 31 84  1  1
 32 85  1  0
 33 86  1  6
 36 87  1  0
 38 88  1  0
 38 89  1  0
 40 90  1  0
 42 91  1  0
 44 92  1  0
 44 93  1  0
 46 94  1  0
 47 95  1  0
 48 96  1  0
 49 97  1  0
 50 98  1  0
M  END
>  <score>  (9) 
-7.333

$$$$
