=
     RDKit          3D

 52 55  0  0  0  0  0  0  0  0999 V2000
    3.8570   67.6890   64.1400 C   0  0  0  0  0  0  0  0  0  0  0  0
    2.9600   67.1850   65.2780 C   0  0  0  0  0  0  0  0  0  0  0  0
    1.6040   66.7180   64.7490 C   0  0  0  0  0  0  0  0  0  0  0  0
    0.9280   67.8160   63.9680 N   0  0  0  0  0  4  0  0  0  0  0  0
    1.7880   68.3370   62.8410 C   0  0  0  0  0  0  0  0  0  0  0  0
    3.1460   68.8050   63.3630 C   0  0  0  0  0  0  0  0  0  0  0  0
    5.2800   68.0700   64.6020 C   0  0  0  0  0  0  0  0  0  0  0  0
    5.5770   69.5630   64.7680 C   0  0  0  0  0  0  0  0  0  0  0  0
    7.3040   70.9850   69.0310 C   0  0  0  0  0  0  0  0  0  0  0  0
    6.4540   70.6080   68.1540 N   0  0  0  0  0  4  0  0  0  0  0  0
    6.8970   70.3140   66.7460 N   0  0  0  0  0  0  0  0  0  0  0  0
    5.7420   69.9780   66.2220 C   0  0  0  0  0  0  0  0  0  0  0  0
    4.5660   70.0060   67.1130 C   0  0  0  0  0  0  0  0  0  0  0  0
    5.0390   70.4130   68.3460 C   0  0  0  0  0  0  0  0  0  0  0  0
    4.2240   70.5580   69.4480 C   0  0  0  0  0  0  0  0  0  0  0  0
    2.8690   70.2710   69.2620 C   0  0  0  0  0  0  0  0  0  0  0  0
    2.3780   69.8550   68.0070 C   0  0  0  0  0  0  0  0  0  0  0  0
    3.2330   69.7160   66.9070 C   0  0  0  0  0  0  0  0  0  0  0  0
    0.2940   68.8790   64.8440 C   0  0  0  0  0  0  0  0  0  0  0  0
   -0.6920   68.3210   65.8320 C   0  0  0  0  0  0  0  0  0  0  0  0
   -0.2670   67.4380   66.8390 C   0  0  0  0  0  0  0  0  0  0  0  0
   -1.1870   66.9000   67.7390 C   0  0  0  0  0  0  0  0  0  0  0  0
   -2.5350   67.2330   67.6450 C   0  0  0  0  0  0  0  0  0  0  0  0
   -2.9680   68.1120   66.6550 C   0  0  0  0  0  0  0  0  0  0  0  0
   -2.0530   68.6550   65.7520 C   0  0  0  0  0  0  0  0  0  0  0  0
    4.0209   66.8513   63.4462 H   0  0  0  0  0  0  0  0  0  0  0  0
    3.4580   66.3430   65.7811 H   0  0  0  0  0  0  0  0  0  0  0  0
    2.7922   68.0136   65.9817 H   0  0  0  0  0  0  0  0  0  0  0  0
    1.7530   65.8477   64.0929 H   0  0  0  0  0  0  0  0  0  0  0  0
    0.9658   66.4482   65.6033 H   0  0  0  0  0  0  0  0  0  0  0  0
    0.1188   67.3875   63.4963 H   0  0  0  0  0  0  0  0  0  0  0  0
    1.9422   67.5343   62.1049 H   0  0  0  0  0  0  0  0  0  0  0  0
    1.2767   69.1923   62.3751 H   0  0  0  0  0  0  0  0  0  0  0  0
    3.7738   69.1050   62.5110 H   0  0  0  0  0  0  0  0  0  0  0  0
    2.9836   69.6539   64.0434 H   0  0  0  0  0  0  0  0  0  0  0  0
    5.4546   67.5861   65.5743 H   0  0  0  0  0  0  0  0  0  0  0  0
    5.9445   67.7333   63.7926 H   0  0  0  0  0  0  0  0  0  0  0  0
    6.5067   69.7975   64.2289 H   0  0  0  0  0  0  0  0  0  0  0  0
    4.7169   70.1166   64.3634 H   0  0  0  0  0  0  0  0  0  0  0  0
    6.9757   71.1988   70.0589 H   0  0  0  0  0  0  0  0  0  0  0  0
    8.3638   71.0957   68.7579 H   0  0  0  0  0  0  0  0  0  0  0  0
    4.6191   70.8824   70.4220 H   0  0  0  0  0  0  0  0  0  0  0  0
    2.1738   70.3712   70.1085 H   0  0  0  0  0  0  0  0  0  0  0  0
    1.3063   69.6363   67.8905 H   0  0  0  0  0  0  0  0  0  0  0  0
    2.8595   69.3909   65.9248 H   0  0  0  0  0  0  0  0  0  0  0  0
    1.0909   69.3957   65.3990 H   0  0  0  0  0  0  0  0  0  0  0  0
   -0.2578   69.5622   64.1816 H   0  0  0  0  0  0  0  0  0  0  0  0
    0.7968   67.1696   66.9180 H   0  0  0  0  0  0  0  0  0  0  0  0
   -0.8460   66.2105   68.5253 H   0  0  0  0  0  0  0  0  0  0  0  0
   -3.2586   66.8020   68.3526 H   0  0  0  0  0  0  0  0  0  0  0  0
   -4.0329   68.3786   66.5849 H   0  0  0  0  0  0  0  0  0  0  0  0
   -2.4005   69.3491   64.9726 H   0  0  0  0  0  0  0  0  0  0  0  0
  2  1  1  0
  3  2  1  0
  4  3  1  0
  5  4  1  0
  6  5  1  0
  6  1  1  0
  7  1  1  0
  8  7  1  0
 10  9  2  3
 11 10  1  0
 12  8  1  0
 12 11  2  0
 13 12  1  0
 14 13  2  0
 14 10  1  0
 15 14  1  0
 16 15  2  0
 17 16  1  0
 18 17  2  0
 18 13  1  0
 19  4  1  0
 20 19  1  0
 21 20  2  0
 22 21  1  0
 23 22  2  0
 24 23  1  0
 25 24  2  0
 25 20  1  0
  1 26  1  0
  2 27  1  0
  2 28  1  0
  3 29  1  0
  3 30  1  0
  4 31  1  0
  5 32  1  0
  5 33  1  0
  6 34  1  0
  6 35  1  0
  7 36  1  0
  7 37  1  0
  8 38  1  0
  8 39  1  0
  9 40  1  0
  9 41  1  0
 15 42  1  0
 16 43  1  0
 17 44  1  0
 18 45  1  0
 19 46  1  0
 19 47  1  0
 21 48  1  0
 22 49  1  0
 23 50  1  0
 24 51  1  0
 25 52  1  0
M  CHG  2   4   1  10   1
M  END
>  <score>  (1) 
-10.489

$$$$
=
     RDKit          3D

 52 55  0  0  0  0  0  0  0  0999 V2000
   -0.0230   67.1410   68.7570 C   0  0  0  0  0  0  0  0  0  0  0  0
    1.4770   67.4410   68.6350 C   0  0  0  0  0  0  0  0  0  0  0  0
    1.7180   68.7920   67.9600 C   0  0  0  0  0  0  0  0  0  0  0  0
    1.0410   68.8450   66.6150 N   0  0  0  0  0  4  0  0  0  0  0  0
   -0.4380   68.5490   66.7000 C   0  0  0  0  0  0  0  0  0  0  0  0
   -0.6870   67.2000   67.3740 C   0  0  0  0  0  0  0  0  0  0  0  0
   -0.3290   65.8400   69.5300 C   0  0  0  0  0  0  0  0  0  0  0  0
    0.3550   65.6650   70.8890 C   0  0  0  0  0  0  0  0  0  0  0  0
    0.0800   61.1690   72.5890 C   0  0  0  0  0  0  0  0  0  0  0  0
    0.5510   62.1850   71.9740 N   0  0  0  0  0  4  0  0  0  0  0  0
   -0.2110   63.4830   71.9550 N   0  0  0  0  0  0  0  0  0  0  0  0
    0.6160   64.2090   71.2390 C   0  0  0  0  0  0  0  0  0  0  0  0
    1.8530   63.5540   70.7720 C   0  0  0  0  0  0  0  0  0  0  0  0
    1.7960   62.2580   71.2510 C   0  0  0  0  0  0  0  0  0  0  0  0
    2.7880   61.3310   71.0160 C   0  0  0  0  0  0  0  0  0  0  0  0
    3.8800   61.7650   70.2570 C   0  0  0  0  0  0  0  0  0  0  0  0
    3.9460   63.0860   69.7670 C   0  0  0  0  0  0  0  0  0  0  0  0
    2.9210   64.0040   70.0230 C   0  0  0  0  0  0  0  0  0  0  0  0
    1.7900   68.0950   65.5300 C   0  0  0  0  0  0  0  0  0  0  0  0
    3.1150   68.7180   65.1880 C   0  0  0  0  0  0  0  0  0  0  0  0
    3.5770   68.7230   63.8620 C   0  0  0  0  0  0  0  0  0  0  0  0
    4.8190   69.2770   63.5490 C   0  0  0  0  0  0  0  0  0  0  0  0
    5.6100   69.8300   64.5520 C   0  0  0  0  0  0  0  0  0  0  0  0
    5.1600   69.8380   65.8700 C   0  0  0  0  0  0  0  0  0  0  0  0
    3.9180   69.2860   66.1890 C   0  0  0  0  0  0  0  0  0  0  0  0
   -0.4723   67.9296   69.3784 H   0  0  0  0  0  0  0  0  0  0  0  0
    1.9224   67.4579   69.6406 H   0  0  0  0  0  0  0  0  0  0  0  0
    1.9400   66.6563   68.0187 H   0  0  0  0  0  0  0  0  0  0  0  0
    1.3147   69.5916   68.5988 H   0  0  0  0  0  0  0  0  0  0  0  0
    2.8002   68.9268   67.8162 H   0  0  0  0  0  0  0  0  0  0  0  0
    1.0894   69.8243   66.2997 H   0  0  0  0  0  0  0  0  0  0  0  0
   -0.9305   69.3400   67.2847 H   0  0  0  0  0  0  0  0  0  0  0  0
   -0.8481   68.5130   65.6800 H   0  0  0  0  0  0  0  0  0  0  0  0
   -1.7707   67.0508   67.4893 H   0  0  0  0  0  0  0  0  0  0  0  0
   -0.2523   66.4098   66.7442 H   0  0  0  0  0  0  0  0  0  0  0  0
   -1.4155   65.8004   69.6971 H   0  0  0  0  0  0  0  0  0  0  0  0
    0.0715   65.0314   68.9009 H   0  0  0  0  0  0  0  0  0  0  0  0
    1.3167   66.1986   70.8688 H   0  0  0  0  0  0  0  0  0  0  0  0
   -0.3235   66.0709   71.6538 H   0  0  0  0  0  0  0  0  0  0  0  0
    0.6416   60.2232   72.5993 H   0  0  0  0  0  0  0  0  0  0  0  0
   -0.8871   61.2400   73.1082 H   0  0  0  0  0  0  0  0  0  0  0  0
    2.7246   60.3039   71.4047 H   0  0  0  0  0  0  0  0  0  0  0  0
    4.7001   61.0651   70.0389 H   0  0  0  0  0  0  0  0  0  0  0  0
    4.8175   63.3999   69.1738 H   0  0  0  0  0  0  0  0  0  0  0  0
    2.9647   65.0360   69.6448 H   0  0  0  0  0  0  0  0  0  0  0  0
    1.9660   67.0652   65.8742 H   0  0  0  0  0  0  0  0  0  0  0  0
    1.1694   68.1260   64.6223 H   0  0  0  0  0  0  0  0  0  0  0  0
    2.9562   68.2876   63.0651 H   0  0  0  0  0  0  0  0  0  0  0  0
    5.1736   69.2767   62.5077 H   0  0  0  0  0  0  0  0  0  0  0  0
    6.5911   70.2609   64.3035 H   0  0  0  0  0  0  0  0  0  0  0  0
    5.7841   70.2799   66.6608 H   0  0  0  0  0  0  0  0  0  0  0  0
    3.5667   69.2963   67.2313 H   0  0  0  0  0  0  0  0  0  0  0  0
  2  1  1  0
  3  2  1  0
  4  3  1  0
  5  4  1  0
  6  5  1  0
  6  1  1  0
  7  1  1  0
  8  7  1  0
 10  9  2  3
 11 10  1  0
 12  8  1  0
 12 11  2  0
 13 12  1  0
 14 13  2  0
 14 10  1  0
 15 14  1  0
 16 15  2  0
 17 16  1  0
 18 17  2  0
 18 13  1  0
 19  4  1  0
 20 19  1  0
 21 20  2  0
 22 21  1  0
 23 22  2  0
 24 23  1  0
 25 24  2  0
 25 20  1  0
  1 26  1  0
  2 27  1  0
  2 28  1  0
  3 29  1  0
  3 30  1  0
  4 31  1  0
  5 32  1  0
  5 33  1  0
  6 34  1  0
  6 35  1  0
  7 36  1  0
  7 37  1  0
  8 38  1  0
  8 39  1  0
  9 40  1  0
  9 41  1  0
 15 42  1  0
 16 43  1  0
 17 44  1  0
 18 45  1  0
 19 46  1  0
 19 47  1  0
 21 48  1  0
 22 49  1  0
 23 50  1  0
 24 51  1  0
 25 52  1  0
M  CHG  2   4   1  10   1
M  END
>  <score>  (2) 
-10.154

$$$$
=
     RDKit          3D

 52 55  0  0  0  0  0  0  0  0999 V2000
   -0.1920   67.2050   68.6030 C   0  0  0  0  0  0  0  0  0  0  0  0
    1.2900   67.5990   68.5370 C   0  0  0  0  0  0  0  0  0  0  0  0
    1.4770   68.9310   67.8110 C   0  0  0  0  0  0  0  0  0  0  0  0
    0.8660   68.8800   66.4340 N   0  0  0  0  0  4  0  0  0  0  0  0
   -0.5930   68.4910   66.4640 C   0  0  0  0  0  0  0  0  0  0  0  0
   -0.7890   67.1600   67.1890 C   0  0  0  0  0  0  0  0  0  0  0  0
   -0.4520   65.9230   69.4220 C   0  0  0  0  0  0  0  0  0  0  0  0
    0.4020   65.7170   70.6760 C   0  0  0  0  0  0  0  0  0  0  0  0
    3.8410   62.5050   69.6600 C   0  0  0  0  0  0  0  0  0  0  0  0
    2.7840   62.9950   70.1850 N   0  0  0  0  0  4  0  0  0  0  0  0
    2.3670   64.4070   69.8750 N   0  0  0  0  0  0  0  0  0  0  0  0
    1.2760   64.4750   70.6020 C   0  0  0  0  0  0  0  0  0  0  0  0
    0.9030   63.2700   71.3670 C   0  0  0  0  0  0  0  0  0  0  0  0
    1.8790   62.3310   71.0900 C   0  0  0  0  0  0  0  0  0  0  0  0
    1.8700   61.0630   71.6290 C   0  0  0  0  0  0  0  0  0  0  0  0
    0.8100   60.7580   72.4870 C   0  0  0  0  0  0  0  0  0  0  0  0
   -0.1910   61.7100   72.7750 C   0  0  0  0  0  0  0  0  0  0  0  0
   -0.1540   62.9900   72.2100 C   0  0  0  0  0  0  0  0  0  0  0  0
    1.7140   68.1340   65.4230 C   0  0  0  0  0  0  0  0  0  0  0  0
    3.0680   68.7540   65.2150 C   0  0  0  0  0  0  0  0  0  0  0  0
    3.6510   68.7770   63.9370 C   0  0  0  0  0  0  0  0  0  0  0  0
    4.9190   69.3290   63.7500 C   0  0  0  0  0  0  0  0  0  0  0  0
    5.6160   69.8610   64.8300 C   0  0  0  0  0  0  0  0  0  0  0  0
    5.0460   69.8500   66.1010 C   0  0  0  0  0  0  0  0  0  0  0  0
    3.7780   69.3000   66.2950 C   0  0  0  0  0  0  0  0  0  0  0  0
   -0.7219   67.9880   69.1652 H   0  0  0  0  0  0  0  0  0  0  0  0
    1.6828   67.6901   69.5604 H   0  0  0  0  0  0  0  0  0  0  0  0
    1.8325   66.8204   67.9807 H   0  0  0  0  0  0  0  0  0  0  0  0
    0.9918   69.7295   68.3916 H   0  0  0  0  0  0  0  0  0  0  0  0
    2.5542   69.1305   67.7118 H   0  0  0  0  0  0  0  0  0  0  0  0
    0.8677   69.8453   66.0747 H   0  0  0  0  0  0  0  0  0  0  0  0
   -1.1633   69.2730   66.9867 H   0  0  0  0  0  0  0  0  0  0  0  0
   -0.9486   68.3824   65.4287 H   0  0  0  0  0  0  0  0  0  0  0  0
   -1.8655   66.9455   67.2606 H   0  0  0  0  0  0  0  0  0  0  0  0
   -0.2740   66.3732   66.6182 H   0  0  0  0  0  0  0  0  0  0  0  0
   -1.5060   65.9376   69.7365 H   0  0  0  0  0  0  0  0  0  0  0  0
   -0.1811   65.0943   68.7512 H   0  0  0  0  0  0  0  0  0  0  0  0
    1.0513   66.5953   70.8061 H   0  0  0  0  0  0  0  0  0  0  0  0
   -0.2856   65.5855   71.5245 H   0  0  0  0  0  0  0  0  0  0  0  0
    4.1414   61.4721   69.8900 H   0  0  0  0  0  0  0  0  0  0  0  0
    4.4505   63.1161   68.9781 H   0  0  0  0  0  0  0  0  0  0  0  0
    2.6559   60.3294   71.3962 H   0  0  0  0  0  0  0  0  0  0  0  0
    0.7550   59.7596   72.9453 H   0  0  0  0  0  0  0  0  0  0  0  0
   -1.0135   61.4419   73.4544 H   0  0  0  0  0  0  0  0  0  0  0  0
   -0.9307   63.7379   72.4274 H   0  0  0  0  0  0  0  0  0  0  0  0
    1.8525   67.1016   65.7765 H   0  0  0  0  0  0  0  0  0  0  0  0
    1.1847   68.1726   64.4595 H   0  0  0  0  0  0  0  0  0  0  0  0
    3.1050   68.3576   63.0791 H   0  0  0  0  0  0  0  0  0  0  0  0
    5.3685   69.3435   62.7461 H   0  0  0  0  0  0  0  0  0  0  0  0
    6.6176   70.2905   64.6803 H   0  0  0  0  0  0  0  0  0  0  0  0
    5.5962   70.2755   66.9532 H   0  0  0  0  0  0  0  0  0  0  0  0
    3.3326   69.2946   67.3008 H   0  0  0  0  0  0  0  0  0  0  0  0
  2  1  1  0
  3  2  1  0
  4  3  1  0
  5  4  1  0
  6  5  1  0
  6  1  1  0
  7  1  1  0
  8  7  1  0
 10  9  2  3
 11 10  1  0
 12  8  1  0
 12 11  2  0
 13 12  1  0
 14 13  2  0
 14 10  1  0
 15 14  1  0
 16 15  2  0
 17 16  1  0
 18 17  2  0
 18 13  1  0
 19  4  1  0
 20 19  1  0
 21 20  2  0
 22 21  1  0
 23 22  2  0
 24 23  1  0
 25 24  2  0
 25 20  1  0
  1 26  1  0
  2 27  1  0
  2 28  1  0
  3 29  1  0
  3 30  1  0
  4 31  1  0
  5 32  1  0
  5 33  1  0
  6 34  1  0
  6 35  1  0
  7 36  1  0
  7 37  1  0
  8 38  1  0
  8 39  1  0
  9 40  1  0
  9 41  1  0
 15 42  1  0
 16 43  1  0
 17 44  1  0
 18 45  1  0
 19 46  1  0
 19 47  1  0
 21 48  1  0
 22 49  1  0
 23 50  1  0
 24 51  1  0
 25 52  1  0
M  CHG  2   4   1  10   1
M  END
>  <score>  (3) 
-10.094

$$$$
=
     RDKit          3D

 52 55  0  0  0  0  0  0  0  0999 V2000
    3.7500   67.7570   63.9130 C   0  0  0  0  0  0  0  0  0  0  0  0
    2.9100   67.2410   65.0890 C   0  0  0  0  0  0  0  0  0  0  0  0
    1.5350   66.7640   64.6210 C   0  0  0  0  0  0  0  0  0  0  0  0
    0.8140   67.8590   63.8780 N   0  0  0  0  0  4  0  0  0  0  0  0
    1.6170   68.3930   62.7150 C   0  0  0  0  0  0  0  0  0  0  0  0
    2.9940   68.8710   63.1750 C   0  0  0  0  0  0  0  0  0  0  0  0
    5.1890   68.1500   64.3100 C   0  0  0  0  0  0  0  0  0  0  0  0
    5.4020   69.5770   64.8240 C   0  0  0  0  0  0  0  0  0  0  0  0
    2.5040   70.0010   68.6440 C   0  0  0  0  0  0  0  0  0  0  0  0
    3.5820   70.0060   67.9590 N   0  0  0  0  0  4  0  0  0  0  0  0
    3.5510   69.6740   66.4910 N   0  0  0  0  0  0  0  0  0  0  0  0
    4.8280   69.7990   66.2140 C   0  0  0  0  0  0  0  0  0  0  0  0
    5.7220   70.1810   67.3240 C   0  0  0  0  0  0  0  0  0  0  0  0
    4.9090   70.3090   68.4340 C   0  0  0  0  0  0  0  0  0  0  0  0
    5.3920   70.6610   69.6760 C   0  0  0  0  0  0  0  0  0  0  0  0
    6.7680   70.8880   69.7690 C   0  0  0  0  0  0  0  0  0  0  0  0
    7.6040   70.7600   68.6390 C   0  0  0  0  0  0  0  0  0  0  0  0
    7.0830   70.4010   67.3910 C   0  0  0  0  0  0  0  0  0  0  0  0
    0.2130   68.9140   64.7870 C   0  0  0  0  0  0  0  0  0  0  0  0
   -0.7480   68.3470   65.7940 C   0  0  0  0  0  0  0  0  0  0  0  0
   -0.2870   67.5150   66.8280 C   0  0  0  0  0  0  0  0  0  0  0  0
   -1.1830   66.9680   67.7470 C   0  0  0  0  0  0  0  0  0  0  0  0
   -2.5440   67.2420   67.6440 C   0  0  0  0  0  0  0  0  0  0  0  0
   -3.0140   68.0700   66.6270 C   0  0  0  0  0  0  0  0  0  0  0  0
   -2.1220   68.6210   65.7060 C   0  0  0  0  0  0  0  0  0  0  0  0
    3.8894   66.9228   63.2097 H   0  0  0  0  0  0  0  0  0  0  0  0
    3.4377   66.4016   65.5654 H   0  0  0  0  0  0  0  0  0  0  0  0
    2.7675   68.0658   65.8027 H   0  0  0  0  0  0  0  0  0  0  0  0
    1.6611   65.8982   63.9543 H   0  0  0  0  0  0  0  0  0  0  0  0
    0.9395   66.4844   65.5026 H   0  0  0  0  0  0  0  0  0  0  0  0
   -0.0127   67.4247   63.4435 H   0  0  0  0  0  0  0  0  0  0  0  0
    1.7439   67.5950   61.9686 H   0  0  0  0  0  0  0  0  0  0  0  0
    1.0773   69.2462   62.2782 H   0  0  0  0  0  0  0  0  0  0  0  0
    3.5787   69.1801   62.2960 H   0  0  0  0  0  0  0  0  0  0  0  0
    2.8567   69.7159   63.8659 H   0  0  0  0  0  0  0  0  0  0  0  0
    5.5153   67.4597   65.1018 H   0  0  0  0  0  0  0  0  0  0  0  0
    5.7692   68.0922   63.3772 H   0  0  0  0  0  0  0  0  0  0  0  0
    6.4825   69.7812   64.8541 H   0  0  0  0  0  0  0  0  0  0  0  0
    4.8750   70.2562   64.1378 H   0  0  0  0  0  0  0  0  0  0  0  0
    2.5326   70.2444   69.7164 H   0  0  0  0  0  0  0  0  0  0  0  0
    1.5470   69.7533   68.1616 H   0  0  0  0  0  0  0  0  0  0  0  0
    4.7292   70.7582   70.5485 H   0  0  0  0  0  0  0  0  0  0  0  0
    7.2061   71.1707   70.7376 H   0  0  0  0  0  0  0  0  0  0  0  0
    8.6834   70.9456   68.7412 H   0  0  0  0  0  0  0  0  0  0  0  0
    7.7274   70.2989   66.5054 H   0  0  0  0  0  0  0  0  0  0  0  0
    1.0289   69.4172   65.3265 H   0  0  0  0  0  0  0  0  0  0  0  0
   -0.3520   69.6114   64.1511 H   0  0  0  0  0  0  0  0  0  0  0  0
    0.7871   67.2935   66.9135 H   0  0  0  0  0  0  0  0  0  0  0  0
   -0.8133   66.3190   68.5545 H   0  0  0  0  0  0  0  0  0  0  0  0
   -3.2489   66.8044   68.3662 H   0  0  0  0  0  0  0  0  0  0  0  0
   -4.0891   68.2896   66.5499 H   0  0  0  0  0  0  0  0  0  0  0  0
   -2.4982   69.2747   64.9053 H   0  0  0  0  0  0  0  0  0  0  0  0
  2  1  1  0
  3  2  1  0
  4  3  1  0
  5  4  1  0
  6  5  1  0
  6  1  1  0
  7  1  1  0
  8  7  1  0
 10  9  2  3
 11 10  1  0
 12  8  1  0
 12 11  2  0
 13 12  1  0
 14 13  2  0
 14 10  1  0
 15 14  1  0
 16 15  2  0
 17 16  1  0
 18 17  2  0
 18 13  1  0
 19  4  1  0
 20 19  1  0
 21 20  2  0
 22 21  1  0
 23 22  2  0
 24 23  1  0
 25 24  2  0
 25 20  1  0
  1 26  1  0
  2 27  1  0
  2 28  1  0
  3 29  1  0
  3 30  1  0
  4 31  1  0
  5 32  1  0
  5 33  1  0
  6 34  1  0
  6 35  1  0
  7 36  1  0
  7 37  1  0
  8 38  1  0
  8 39  1  0
  9 40  1  0
  9 41  1  0
 15 42  1  0
 16 43  1  0
 17 44  1  0
 18 45  1  0
 19 46  1  0
 19 47  1  0
 21 48  1  0
 22 49  1  0
 23 50  1  0
 24 51  1  0
 25 52  1  0
M  CHG  2   4   1  10   1
M  END
>  <score>  (4) 
-9.928

$$$$
=
     RDKit          3D

 52 55  0  0  0  0  0  0  0  0999 V2000
    0.0230   67.2140   68.7990 C   0  0  0  0  0  0  0  0  0  0  0  0
    1.4140   67.6280   68.3000 C   0  0  0  0  0  0  0  0  0  0  0  0
    1.3250   68.8010   67.3240 C   0  0  0  0  0  0  0  0  0  0  0  0
    0.4110   68.4710   66.1730 N   0  0  0  0  0  4  0  0  0  0  0  0
   -0.9670   68.0540   66.6310 C   0  0  0  0  0  0  0  0  0  0  0  0
   -0.8870   66.8820   67.6080 C   0  0  0  0  0  0  0  0  0  0  0  0
    0.0600   66.1050   69.8730 C   0  0  0  0  0  0  0  0  0  0  0  0
    1.4360   65.5410   70.2390 C   0  0  0  0  0  0  0  0  0  0  0  0
    0.2880   61.5240   72.6300 C   0  0  0  0  0  0  0  0  0  0  0  0
    0.9060   62.2930   71.8180 N   0  0  0  0  0  4  0  0  0  0  0  0
    0.5010   63.7370   71.6830 N   0  0  0  0  0  0  0  0  0  0  0  0
    1.3710   64.1210   70.7790 C   0  0  0  0  0  0  0  0  0  0  0  0
    2.3230   63.1060   70.2870 C   0  0  0  0  0  0  0  0  0  0  0  0
    2.0110   61.9410   70.9620 C   0  0  0  0  0  0  0  0  0  0  0  0
    2.6930   60.7600   70.7670 C   0  0  0  0  0  0  0  0  0  0  0  0
    3.7370   60.7890   69.8380 C   0  0  0  0  0  0  0  0  0  0  0  0
    4.0620   61.9750   69.1450 C   0  0  0  0  0  0  0  0  0  0  0  0
    3.3490   63.1590   69.3670 C   0  0  0  0  0  0  0  0  0  0  0  0
    1.0470   67.5680   65.1340 C   0  0  0  0  0  0  0  0  0  0  0  0
    1.1580   68.2120   63.7800 C   0  0  0  0  0  0  0  0  0  0  0  0
    2.3610   68.1490   63.0580 C   0  0  0  0  0  0  0  0  0  0  0  0
    2.4710   68.7700   61.8130 C   0  0  0  0  0  0  0  0  0  0  0  0
    1.3860   69.4580   61.2770 C   0  0  0  0  0  0  0  0  0  0  0  0
    0.1850   69.5230   61.9800 C   0  0  0  0  0  0  0  0  0  0  0  0
    0.0690   68.9040   63.2250 C   0  0  0  0  0  0  0  0  0  0  0  0
   -0.4146   68.0756   69.3246 H   0  0  0  0  0  0  0  0  0  0  0  0
    2.0307   67.9241   69.1614 H   0  0  0  0  0  0  0  0  0  0  0  0
    1.8648   66.7724   67.7759 H   0  0  0  0  0  0  0  0  0  0  0  0
    0.9340   69.6821   67.8538 H   0  0  0  0  0  0  0  0  0  0  0  0
    2.3303   69.0072   66.9280 H   0  0  0  0  0  0  0  0  0  0  0  0
    0.2573   69.3499   65.6583 H   0  0  0  0  0  0  0  0  0  0  0  0
   -1.4536   68.9054   67.1294 H   0  0  0  0  0  0  0  0  0  0  0  0
   -1.5484   67.7389   65.7520 H   0  0  0  0  0  0  0  0  0  0  0  0
   -1.8970   66.6554   67.9802 H   0  0  0  0  0  0  0  0  0  0  0  0
   -0.4656   66.0149   67.0784 H   0  0  0  0  0  0  0  0  0  0  0  0
   -0.3855   66.5162   70.7908 H   0  0  0  0  0  0  0  0  0  0  0  0
   -0.4884   65.2597   69.4316 H   0  0  0  0  0  0  0  0  0  0  0  0
    2.0675   65.5451   69.3383 H   0  0  0  0  0  0  0  0  0  0  0  0
    1.8516   66.1771   71.0344 H   0  0  0  0  0  0  0  0  0  0  0  0
    0.5875   60.4698   72.7251 H   0  0  0  0  0  0  0  0  0  0  0  0
   -0.5436   61.9161   73.2339 H   0  0  0  0  0  0  0  0  0  0  0  0
    2.4298   59.8424   71.3136 H   0  0  0  0  0  0  0  0  0  0  0  0
    4.3144   59.8731   69.6439 H   0  0  0  0  0  0  0  0  0  0  0  0
    4.8885   61.9687   68.4191 H   0  0  0  0  0  0  0  0  0  0  0  0
    3.5956   64.0883   68.8326 H   0  0  0  0  0  0  0  0  0  0  0  0
    2.0567   67.2974   65.4766 H   0  0  0  0  0  0  0  0  0  0  0  0
    0.3983   66.6863   65.0252 H   0  0  0  0  0  0  0  0  0  0  0  0
    3.2218   67.6069   63.4764 H   0  0  0  0  0  0  0  0  0  0  0  0
    3.4169   68.7157   61.2542 H   0  0  0  0  0  0  0  0  0  0  0  0
    1.4770   69.9507   60.2977 H   0  0  0  0  0  0  0  0  0  0  0  0
   -0.6729   70.0630   61.5530 H   0  0  0  0  0  0  0  0  0  0  0  0
   -0.8817   68.9583   63.7756 H   0  0  0  0  0  0  0  0  0  0  0  0
  2  1  1  0
  3  2  1  0
  4  3  1  0
  5  4  1  0
  6  5  1  0
  6  1  1  0
  7  1  1  0
  8  7  1  0
 10  9  2  3
 11 10  1  0
 12  8  1  0
 12 11  2  0
 13 12  1  0
 14 13  2  0
 14 10  1  0
 15 14  1  0
 16 15  2  0
 17 16  1  0
 18 17  2  0
 18 13  1  0
 19  4  1  0
 20 19  1  0
 21 20  2  0
 22 21  1  0
 23 22  2  0
 24 23  1  0
 25 24  2  0
 25 20  1  0
  1 26  1  0
  2 27  1  0
  2 28  1  0
  3 29  1  0
  3 30  1  0
  4 31  1  0
  5 32  1  0
  5 33  1  0
  6 34  1  0
  6 35  1  0
  7 36  1  0
  7 37  1  0
  8 38  1  0
  8 39  1  0
  9 40  1  0
  9 41  1  0
 15 42  1  0
 16 43  1  0
 17 44  1  0
 18 45  1  0
 19 46  1  0
 19 47  1  0
 21 48  1  0
 22 49  1  0
 23 50  1  0
 24 51  1  0
 25 52  1  0
M  CHG  2   4   1  10   1
M  END
>  <score>  (5) 
-9.848

$$$$
=
     RDKit          3D

 52 55  0  0  0  0  0  0  0  0999 V2000
    0.9590   66.7580   69.3950 C   0  0  0  0  0  0  0  0  0  0  0  0
   -0.2930   66.0870   69.9770 C   0  0  0  0  0  0  0  0  0  0  0  0
    0.0090   65.4230   71.3210 C   0  0  0  0  0  0  0  0  0  0  0  0
    1.1420   64.4380   71.1880 N   0  0  0  0  0  4  0  0  0  0  0  0
    2.3890   65.0660   70.6130 C   0  0  0  0  0  0  0  0  0  0  0  0
    2.0950   65.7330   69.2690 C   0  0  0  0  0  0  0  0  0  0  0  0
    0.6880   67.5390   68.0910 C   0  0  0  0  0  0  0  0  0  0  0  0
    1.1770   68.9890   68.0380 C   0  0  0  0  0  0  0  0  0  0  0  0
    4.2810   69.0480   64.3590 C   0  0  0  0  0  0  0  0  0  0  0  0
    3.8290   69.2240   65.5410 N   0  0  0  0  0  4  0  0  0  0  0  0
    2.4200   68.8210   65.8830 N   0  0  0  0  0  0  0  0  0  0  0  0
    2.3960   69.1720   67.1480 C   0  0  0  0  0  0  0  0  0  0  0  0
    3.6280   69.7640   67.7050 C   0  0  0  0  0  0  0  0  0  0  0  0
    4.5360   69.7900   66.6630 C   0  0  0  0  0  0  0  0  0  0  0  0
    5.8160   70.2800   66.8010 C   0  0  0  0  0  0  0  0  0  0  0  0
    6.1680   70.7590   68.0670 C   0  0  0  0  0  0  0  0  0  0  0  0
    5.2470   70.7340   69.1350 C   0  0  0  0  0  0  0  0  0  0  0  0
    3.9520   70.2290   68.9620 C   0  0  0  0  0  0  0  0  0  0  0  0
    0.7290   63.1230   70.5560 C   0  0  0  0  0  0  0  0  0  0  0  0
    1.8310   62.1000   70.5460 C   0  0  0  0  0  0  0  0  0  0  0  0
    2.5980   61.8910   69.3880 C   0  0  0  0  0  0  0  0  0  0  0  0
    3.6020   60.9230   69.3720 C   0  0  0  0  0  0  0  0  0  0  0  0
    3.8530   60.1560   70.5060 C   0  0  0  0  0  0  0  0  0  0  0  0
    3.1040   60.3580   71.6630 C   0  0  0  0  0  0  0  0  0  0  0  0
    2.0980   61.3250   71.6860 C   0  0  0  0  0  0  0  0  0  0  0  0
    1.2843   67.5336   70.1040 H   0  0  0  0  0  0  0  0  0  0  0  0
   -1.0741   66.8481   70.1204 H   0  0  0  0  0  0  0  0  0  0  0  0
   -0.6311   65.3116   69.2738 H   0  0  0  0  0  0  0  0  0  0  0  0
    0.2877   66.1970   72.0512 H   0  0  0  0  0  0  0  0  0  0  0  0
   -0.8890   64.8845   71.6582 H   0  0  0  0  0  0  0  0  0  0  0  0
    1.4094   64.1653   72.1446 H   0  0  0  0  0  0  0  0  0  0  0  0
    2.7675   65.8231   71.3155 H   0  0  0  0  0  0  0  0  0  0  0  0
    3.1394   64.2770   70.4567 H   0  0  0  0  0  0  0  0  0  0  0  0
    3.0026   66.2447   68.9162 H   0  0  0  0  0  0  0  0  0  0  0  0
    1.7855   64.9559   68.5546 H   0  0  0  0  0  0  0  0  0  0  0  0
    1.1755   66.9936   67.2695 H   0  0  0  0  0  0  0  0  0  0  0  0
   -0.4077   67.6029   68.0173 H   0  0  0  0  0  0  0  0  0  0  0  0
    0.3628   69.6197   67.6516 H   0  0  0  0  0  0  0  0  0  0  0  0
    1.4688   69.2757   69.0591 H   0  0  0  0  0  0  0  0  0  0  0  0
    5.3117   69.3444   64.1145 H   0  0  0  0  0  0  0  0  0  0  0  0
    3.6394   68.6001   63.5859 H   0  0  0  0  0  0  0  0  0  0  0  0
    6.5243   70.2938   65.9595 H   0  0  0  0  0  0  0  0  0  0  0  0
    7.1784   71.1613   68.2323 H   0  0  0  0  0  0  0  0  0  0  0  0
    5.5508   71.1175   70.1202 H   0  0  0  0  0  0  0  0  0  0  0  0
    3.2279   70.2045   69.7897 H   0  0  0  0  0  0  0  0  0  0  0  0
   -0.1219   62.7151   71.1214 H   0  0  0  0  0  0  0  0  0  0  0  0
    0.4663   63.3315   69.5084 H   0  0  0  0  0  0  0  0  0  0  0  0
    2.4057   62.4943   68.4885 H   0  0  0  0  0  0  0  0  0  0  0  0
    4.1972   60.7653   68.4605 H   0  0  0  0  0  0  0  0  0  0  0  0
    4.6427   59.3904   70.4886 H   0  0  0  0  0  0  0  0  0  0  0  0
    3.3058   59.7543   72.5601 H   0  0  0  0  0  0  0  0  0  0  0  0
    1.5106   61.4810   72.6029 H   0  0  0  0  0  0  0  0  0  0  0  0
  2  1  1  0
  3  2  1  0
  4  3  1  0
  5  4  1  0
  6  5  1  0
  6  1  1  0
  7  1  1  0
  8  7  1  0
 10  9  2  3
 11 10  1  0
 12  8  1  0
 12 11  2  0
 13 12  1  0
 14 13  2  0
 14 10  1  0
 15 14  1  0
 16 15  2  0
 17 16  1  0
 18 17  2  0
 18 13  1  0
 19  4  1  0
 20 19  1  0
 21 20  2  0
 22 21  1  0
 23 22  2  0
 24 23  1  0
 25 24  2  0
 25 20  1  0
  1 26  1  0
  2 27  1  0
  2 28  1  0
  3 29  1  0
  3 30  1  0
  4 31  1  0
  5 32  1  0
  5 33  1  0
  6 34  1  0
  6 35  1  0
  7 36  1  0
  7 37  1  0
  8 38  1  0
  8 39  1  0
  9 40  1  0
  9 41  1  0
 15 42  1  0
 16 43  1  0
 17 44  1  0
 18 45  1  0
 19 46  1  0
 19 47  1  0
 21 48  1  0
 22 49  1  0
 23 50  1  0
 24 51  1  0
 25 52  1  0
M  CHG  2   4   1  10   1
M  END
>  <score>  (6) 
-9.66

$$$$
=
     RDKit          3D

 52 55  0  0  0  0  0  0  0  0999 V2000
    0.0100   67.2030   68.7540 C   0  0  0  0  0  0  0  0  0  0  0  0
    1.3770   67.7120   68.2770 C   0  0  0  0  0  0  0  0  0  0  0  0
    1.2270   68.9190   67.3520 C   0  0  0  0  0  0  0  0  0  0  0  0
    0.3320   68.5910   66.1850 N   0  0  0  0  0  4  0  0  0  0  0  0
   -1.0230   68.0830   66.6210 C   0  0  0  0  0  0  0  0  0  0  0  0
   -0.8810   66.8750   67.5470 C   0  0  0  0  0  0  0  0  0  0  0  0
    0.1050   66.0530   69.7790 C   0  0  0  0  0  0  0  0  0  0  0  0
    1.4950   65.7370   70.3380 C   0  0  0  0  0  0  0  0  0  0  0  0
    3.0930   61.2670   69.5390 C   0  0  0  0  0  0  0  0  0  0  0  0
    2.4620   62.2250   70.1010 N   0  0  0  0  0  4  0  0  0  0  0  0
    2.5570   63.6230   69.5510 N   0  0  0  0  0  0  0  0  0  0  0  0
    1.7820   64.2460   70.4080 C   0  0  0  0  0  0  0  0  0  0  0  0
    1.1700   63.4310   71.4750 C   0  0  0  0  0  0  0  0  0  0  0  0
    1.6160   62.1400   71.2640 C   0  0  0  0  0  0  0  0  0  0  0  0
    1.2500   61.0830   72.0700 C   0  0  0  0  0  0  0  0  0  0  0  0
    0.3910   61.3770   73.1330 C   0  0  0  0  0  0  0  0  0  0  0  0
   -0.0700   62.6920   73.3540 C   0  0  0  0  0  0  0  0  0  0  0  0
    0.3200   63.7440   72.5160 C   0  0  0  0  0  0  0  0  0  0  0  0
    1.0150   67.7690   65.1100 C   0  0  0  0  0  0  0  0  0  0  0  0
    1.0060   68.4340   63.7610 C   0  0  0  0  0  0  0  0  0  0  0  0
   -0.1460   69.0930   63.3010 C   0  0  0  0  0  0  0  0  0  0  0  0
   -0.1630   69.6870   62.0390 C   0  0  0  0  0  0  0  0  0  0  0  0
    0.9640   69.6300   61.2250 C   0  0  0  0  0  0  0  0  0  0  0  0
    2.1150   68.9850   61.6710 C   0  0  0  0  0  0  0  0  0  0  0  0
    2.1390   68.3890   62.9330 C   0  0  0  0  0  0  0  0  0  0  0  0
   -0.4728   68.0165   69.3154 H   0  0  0  0  0  0  0  0  0  0  0  0
    1.9764   68.0033   69.1521 H   0  0  0  0  0  0  0  0  0  0  0  0
    1.8726   66.9049   67.7177 H   0  0  0  0  0  0  0  0  0  0  0  0
    0.7899   69.7549   67.9179 H   0  0  0  0  0  0  0  0  0  0  0  0
    2.2203   69.1944   66.9680 H   0  0  0  0  0  0  0  0  0  0  0  0
    0.1325   69.4818   65.7080 H   0  0  0  0  0  0  0  0  0  0  0  0
   -1.5537   68.8853   67.1545 H   0  0  0  0  0  0  0  0  0  0  0  0
   -1.5873   67.7766   65.7279 H   0  0  0  0  0  0  0  0  0  0  0  0
   -1.8776   66.5792   67.9064 H   0  0  0  0  0  0  0  0  0  0  0  0
   -0.4139   66.0553   66.9815 H   0  0  0  0  0  0  0  0  0  0  0  0
   -0.5443   66.3106   70.6287 H   0  0  0  0  0  0  0  0  0  0  0  0
   -0.1940   65.1503   69.2260 H   0  0  0  0  0  0  0  0  0  0  0  0
    2.2488   66.2091   69.6907 H   0  0  0  0  0  0  0  0  0  0  0  0
    1.5332   66.1281   71.3654 H   0  0  0  0  0  0  0  0  0  0  0  0
    3.0200   60.2473   69.9451 H   0  0  0  0  0  0  0  0  0  0  0  0
    3.7093   61.4617   68.6489 H   0  0  0  0  0  0  0  0  0  0  0  0
    1.6149   60.0617   71.8862 H   0  0  0  0  0  0  0  0  0  0  0  0
    0.0694   60.5702   73.8079 H   0  0  0  0  0  0  0  0  0  0  0  0
   -0.7463   62.8940   74.1977 H   0  0  0  0  0  0  0  0  0  0  0  0
   -0.0348   64.7722   72.6800 H   0  0  0  0  0  0  0  0  0  0  0  0
    2.0598   67.6003   65.4097 H   0  0  0  0  0  0  0  0  0  0  0  0
    0.4557   66.8267   65.0139 H   0  0  0  0  0  0  0  0  0  0  0  0
   -1.0402   69.1410   63.9398 H   0  0  0  0  0  0  0  0  0  0  0  0
   -1.0692   70.2015   61.6866 H   0  0  0  0  0  0  0  0  0  0  0  0
    0.9459   70.0948   60.2282 H   0  0  0  0  0  0  0  0  0  0  0  0
    3.0065   68.9452   61.0278 H   0  0  0  0  0  0  0  0  0  0  0  0
    3.0507   67.8812   63.2808 H   0  0  0  0  0  0  0  0  0  0  0  0
  2  1  1  0
  3  2  1  0
  4  3  1  0
  5  4  1  0
  6  5  1  0
  6  1  1  0
  7  1  1  0
  8  7  1  0
 10  9  2  3
 11 10  1  0
 12  8  1  0
 12 11  2  0
 13 12  1  0
 14 13  2  0
 14 10  1  0
 15 14  1  0
 16 15  2  0
 17 16  1  0
 18 17  2  0
 18 13  1  0
 19  4  1  0
 20 19  1  0
 21 20  2  0
 22 21  1  0
 23 22  2  0
 24 23  1  0
 25 24  2  0
 25 20  1  0
  1 26  1  0
  2 27  1  0
  2 28  1  0
  3 29  1  0
  3 30  1  0
  4 31  1  0
  5 32  1  0
  5 33  1  0
  6 34  1  0
  6 35  1  0
  7 36  1  0
  7 37  1  0
  8 38  1  0
  8 39  1  0
  9 40  1  0
  9 41  1  0
 15 42  1  0
 16 43  1  0
 17 44  1  0
 18 45  1  0
 19 46  1  0
 19 47  1  0
 21 48  1  0
 22 49  1  0
 23 50  1  0
 24 51  1  0
 25 52  1  0
M  CHG  2   4   1  10   1
M  END
>  <score>  (7) 
-9.657

$$$$
=
     RDKit          3D

 52 55  0  0  0  0  0  0  0  0999 V2000
    0.8040   66.9730   69.0850 C   0  0  0  0  0  0  0  0  0  0  0  0
   -0.5010   66.3940   69.6480 C   0  0  0  0  0  0  0  0  0  0  0  0
   -0.2980   65.8440   71.0600 C   0  0  0  0  0  0  0  0  0  0  0  0
    0.8060   64.8180   71.0810 N   0  0  0  0  0  4  0  0  0  0  0  0
    2.1050   65.3560   70.5280 C   0  0  0  0  0  0  0  0  0  0  0  0
    1.9100   65.9080   69.1160 C   0  0  0  0  0  0  0  0  0  0  0  0
    0.6340   67.6420   67.7040 C   0  0  0  0  0  0  0  0  0  0  0  0
    0.8480   69.1560   67.6370 C   0  0  0  0  0  0  0  0  0  0  0  0
    5.1980   70.6980   69.0070 C   0  0  0  0  0  0  0  0  0  0  0  0
    4.2830   70.2310   68.2480 N   0  0  0  0  0  4  0  0  0  0  0  0
    2.8880   70.0270   68.7760 N   0  0  0  0  0  0  0  0  0  0  0  0
    2.3150   69.5510   67.6950 C   0  0  0  0  0  0  0  0  0  0  0  0
    3.1600   69.4120   66.4930 C   0  0  0  0  0  0  0  0  0  0  0  0
    4.4170   69.8510   66.8640 C   0  0  0  0  0  0  0  0  0  0  0  0
    5.4870   69.8710   65.9960 C   0  0  0  0  0  0  0  0  0  0  0  0
    5.2430   69.4200   64.6950 C   0  0  0  0  0  0  0  0  0  0  0  0
    3.9620   68.9720   64.3080 C   0  0  0  0  0  0  0  0  0  0  0  0
    2.8950   68.9640   65.2140 C   0  0  0  0  0  0  0  0  0  0  0  0
    0.3850   63.4640   70.5430 C   0  0  0  0  0  0  0  0  0  0  0  0
    1.4740   62.4310   70.6250 C   0  0  0  0  0  0  0  0  0  0  0  0
    2.2530   62.1290   69.4960 C   0  0  0  0  0  0  0  0  0  0  0  0
    3.2460   61.1510   69.5650 C   0  0  0  0  0  0  0  0  0  0  0  0
    3.4710   60.4670   70.7560 C   0  0  0  0  0  0  0  0  0  0  0  0
    2.7100   60.7610   71.8840 C   0  0  0  0  0  0  0  0  0  0  0  0
    1.7160   61.7390   71.8220 C   0  0  0  0  0  0  0  0  0  0  0  0
    1.1151   67.7985   69.7421 H   0  0  0  0  0  0  0  0  0  0  0  0
   -1.2621   67.1876   69.6780 H   0  0  0  0  0  0  0  0  0  0  0  0
   -0.8259   65.5695   68.9964 H   0  0  0  0  0  0  0  0  0  0  0  0
   -0.0342   66.6716   71.7349 H   0  0  0  0  0  0  0  0  0  0  0  0
   -1.2315   65.3643   71.3892 H   0  0  0  0  0  0  0  0  0  0  0  0
    1.0087   64.6238   72.0720 H   0  0  0  0  0  0  0  0  0  0  0  0
    2.4688   66.1617   71.1826 H   0  0  0  0  0  0  0  0  0  0  0  0
    2.8360   64.5350   70.4864 H   0  0  0  0  0  0  0  0  0  0  0  0
    2.8528   66.3595   68.7737 H   0  0  0  0  0  0  0  0  0  0  0  0
    1.6150   65.0795   68.4553 H   0  0  0  0  0  0  0  0  0  0  0  0
    1.3543   67.1738   67.0170 H   0  0  0  0  0  0  0  0  0  0  0  0
   -0.4229   67.4898   67.4398 H   0  0  0  0  0  0  0  0  0  0  0  0
    0.4214   69.5291   66.6942 H   0  0  0  0  0  0  0  0  0  0  0  0
    0.3530   69.5977   68.5144 H   0  0  0  0  0  0  0  0  0  0  0  0
    6.2155   70.8449   68.6156 H   0  0  0  0  0  0  0  0  0  0  0  0
    4.9686   70.9533   70.0521 H   0  0  0  0  0  0  0  0  0  0  0  0
    6.4807   70.2232   66.3099 H   0  0  0  0  0  0  0  0  0  0  0  0
    6.0627   69.4144   63.9615 H   0  0  0  0  0  0  0  0  0  0  0  0
    3.7993   68.6234   63.2775 H   0  0  0  0  0  0  0  0  0  0  0  0
    1.8930   68.6173   64.9210 H   0  0  0  0  0  0  0  0  0  0  0  0
   -0.4783   63.1092   71.1251 H   0  0  0  0  0  0  0  0  0  0  0  0
    0.1388   63.5965   69.4791 H   0  0  0  0  0  0  0  0  0  0  0  0
    2.0794   62.6664   68.5521 H   0  0  0  0  0  0  0  0  0  0  0  0
    3.8520   60.9203   68.6765 H   0  0  0  0  0  0  0  0  0  0  0  0
    4.2511   59.6931   70.8061 H   0  0  0  0  0  0  0  0  0  0  0  0
    2.8922   60.2219   72.8254 H   0  0  0  0  0  0  0  0  0  0  0  0
    1.1187   61.9688   72.7166 H   0  0  0  0  0  0  0  0  0  0  0  0
  2  1  1  0
  3  2  1  0
  4  3  1  0
  5  4  1  0
  6  5  1  0
  6  1  1  0
  7  1  1  0
  8  7  1  0
 10  9  2  3
 11 10  1  0
 12  8  1  0
 12 11  2  0
 13 12  1  0
 14 13  2  0
 14 10  1  0
 15 14  1  0
 16 15  2  0
 17 16  1  0
 18 17  2  0
 18 13  1  0
 19  4  1  0
 20 19  1  0
 21 20  2  0
 22 21  1  0
 23 22  2  0
 24 23  1  0
 25 24  2  0
 25 20  1  0
  1 26  1  0
  2 27  1  0
  2 28  1  0
  3 29  1  0
  3 30  1  0
  4 31  1  0
  5 32  1  0
  5 33  1  0
  6 34  1  0
  6 35  1  0
  7 36  1  0
  7 37  1  0
  8 38  1  0
  8 39  1  0
  9 40  1  0
  9 41  1  0
 15 42  1  0
 16 43  1  0
 17 44  1  0
 18 45  1  0
 19 46  1  0
 19 47  1  0
 21 48  1  0
 22 49  1  0
 23 50  1  0
 24 51  1  0
 25 52  1  0
M  CHG  2   4   1  10   1
M  END
>  <score>  (8) 
-9.589

$$$$
=
     RDKit          3D

 52 55  0  0  0  0  0  0  0  0999 V2000
    2.2190   64.0660   70.0450 C   0  0  0  0  0  0  0  0  0  0  0  0
    3.6160   64.1540   70.6750 C   0  0  0  0  0  0  0  0  0  0  0  0
    4.5560   63.1030   70.0860 C   0  0  0  0  0  0  0  0  0  0  0  0
    3.9770   61.7200   70.2400 N   0  0  0  0  0  4  0  0  0  0  0  0
    2.5990   61.6010   69.6330 C   0  0  0  0  0  0  0  0  0  0  0  0
    1.6520   62.6500   70.2170 C   0  0  0  0  0  0  0  0  0  0  0  0
    1.2580   65.1750   70.5220 C   0  0  0  0  0  0  0  0  0  0  0  0
    1.4620   66.5720   69.9280 C   0  0  0  0  0  0  0  0  0  0  0  0
   -2.4520   66.9810   67.1550 C   0  0  0  0  0  0  0  0  0  0  0  0
   -1.2360   67.1040   67.5280 N   0  0  0  0  0  4  0  0  0  0  0  0
   -0.7870   66.5450   68.8510 N   0  0  0  0  0  0  0  0  0  0  0  0
    0.4790   66.8910   68.8130 C   0  0  0  0  0  0  0  0  0  0  0  0
    0.9410   67.6180   67.6140 C   0  0  0  0  0  0  0  0  0  0  0  0
   -0.1690   67.7470   66.8020 C   0  0  0  0  0  0  0  0  0  0  0  0
   -0.1290   68.3770   65.5770 C   0  0  0  0  0  0  0  0  0  0  0  0
    1.1090   68.8930   65.1820 C   0  0  0  0  0  0  0  0  0  0  0  0
    2.2470   68.7640   66.0050 C   0  0  0  0  0  0  0  0  0  0  0  0
    2.1730   68.1170   67.2440 C   0  0  0  0  0  0  0  0  0  0  0  0
    4.1180   61.1570   71.6410 C   0  0  0  0  0  0  0  0  0  0  0  0
    3.4010   59.8480   71.8270 C   0  0  0  0  0  0  0  0  0  0  0  0
    3.7890   58.7150   71.0940 C   0  0  0  0  0  0  0  0  0  0  0  0
    3.1070   57.5080   71.2480 C   0  0  0  0  0  0  0  0  0  0  0  0
    2.0340   57.4180   72.1300 C   0  0  0  0  0  0  0  0  0  0  0  0
    1.6430   58.5340   72.8670 C   0  0  0  0  0  0  0  0  0  0  0  0
    2.3220   59.7440   72.7180 C   0  0  0  0  0  0  0  0  0  0  0  0
    2.3254   64.2559   68.9668 H   0  0  0  0  0  0  0  0  0  0  0  0
    4.0326   65.1543   70.4854 H   0  0  0  0  0  0  0  0  0  0  0  0
    3.5225   63.9707   71.7556 H   0  0  0  0  0  0  0  0  0  0  0  0
    4.7076   63.3134   69.0170 H   0  0  0  0  0  0  0  0  0  0  0  0
    5.5142   63.1458   70.6245 H   0  0  0  0  0  0  0  0  0  0  0  0
    4.5634   61.0899   69.6743 H   0  0  0  0  0  0  0  0  0  0  0  0
    2.6710   61.7470   68.5451 H   0  0  0  0  0  0  0  0  0  0  0  0
    2.1999   60.6018   69.8615 H   0  0  0  0  0  0  0  0  0  0  0  0
    0.6831   62.5862   69.7002 H   0  0  0  0  0  0  0  0  0  0  0  0
    1.5317   62.4509   71.2921 H   0  0  0  0  0  0  0  0  0  0  0  0
    0.2344   64.8558   70.2765 H   0  0  0  0  0  0  0  0  0  0  0  0
    1.4620   65.2881   71.5970 H   0  0  0  0  0  0  0  0  0  0  0  0
    1.3372   67.3155   70.7290 H   0  0  0  0  0  0  0  0  0  0  0  0
    2.4728   66.6018   69.4950 H   0  0  0  0  0  0  0  0  0  0  0  0
   -2.7745   67.3916   66.1868 H   0  0  0  0  0  0  0  0  0  0  0  0
   -3.1762   66.4645   67.8021 H   0  0  0  0  0  0  0  0  0  0  0  0
   -1.0236   68.4690   64.9436 H   0  0  0  0  0  0  0  0  0  0  0  0
    1.1968   69.4078   64.2139 H   0  0  0  0  0  0  0  0  0  0  0  0
    3.2084   69.1786   65.6677 H   0  0  0  0  0  0  0  0  0  0  0  0
    3.0555   68.0113   67.8922 H   0  0  0  0  0  0  0  0  0  0  0  0
    5.1869   61.0033   71.8503 H   0  0  0  0  0  0  0  0  0  0  0  0
    3.6623   61.8811   72.3323 H   0  0  0  0  0  0  0  0  0  0  0  0
    4.6354   58.7796   70.3945 H   0  0  0  0  0  0  0  0  0  0  0  0
    3.4180   56.6248   70.6708 H   0  0  0  0  0  0  0  0  0  0  0  0
    1.4948   56.4661   72.2452 H   0  0  0  0  0  0  0  0  0  0  0  0
    0.7979   58.4611   73.5673 H   0  0  0  0  0  0  0  0  0  0  0  0
    2.0094   60.6217   73.3027 H   0  0  0  0  0  0  0  0  0  0  0  0
  2  1  1  0
  3  2  1  0
  4  3  1  0
  5  4  1  0
  6  5  1  0
  6  1  1  0
  7  1  1  0
  8  7  1  0
 10  9  2  3
 11 10  1  0
 12  8  1  0
 12 11  2  0
 13 12  1  0
 14 13  2  0
 14 10  1  0
 15 14  1  0
 16 15  2  0
 17 16  1  0
 18 17  2  0
 18 13  1  0
 19  4  1  0
 20 19  1  0
 21 20  2  0
 22 21  1  0
 23 22  2  0
 24 23  1  0
 25 24  2  0
 25 20  1  0
  1 26  1  0
  2 27  1  0
  2 28  1  0
  3 29  1  0
  3 30  1  0
  4 31  1  0
  5 32  1  0
  5 33  1  0
  6 34  1  0
  6 35  1  0
  7 36  1  0
  7 37  1  0
  8 38  1  0
  8 39  1  0
  9 40  1  0
  9 41  1  0
 15 42  1  0
 16 43  1  0
 17 44  1  0
 18 45  1  0
 19 46  1  0
 19 47  1  0
 21 48  1  0
 22 49  1  0
 23 50  1  0
 24 51  1  0
 25 52  1  0
M  CHG  2   4   1  10   1
M  END
>  <score>  (9) 
-9.248

$$$$
