=
     RDKit          3D

 42 45  0  0  0  0  0  0  0  0999 V2000
    2.9040   67.9150   63.8660 C   0  0  0  0  0  0  0  0  0  0  0  0
    2.9560   66.7300   63.5560 O   0  0  0  0  0  0  0  0  0  0  0  0
    4.0540   68.7130   64.2620 C   0  0  0  0  0  0  0  0  0  0  0  0
    5.1280   69.0560   63.4550 C   0  0  0  0  0  0  0  0  0  0  0  0
    6.0010   69.8110   64.1920 N   0  0  0  0  0  0  0  0  0  0  0  0
    5.5260   69.9730   65.4710 C   0  0  0  0  0  0  0  0  0  0  0  0
    4.3070   69.2980   65.5480 C   0  0  0  0  0  0  0  0  0  0  0  0
    3.6110   69.3160   66.7770 C   0  0  0  0  0  0  0  0  0  0  0  0
    4.1530   70.0010   67.8700 C   0  0  0  0  0  0  0  0  0  0  0  0
    5.3720   70.6630   67.7580 C   0  0  0  0  0  0  0  0  0  0  0  0
    6.0830   70.6620   66.5550 C   0  0  0  0  0  0  0  0  0  0  0  0
    1.7330   68.6320   63.8640 O   0  0  0  0  0  0  0  0  0  0  0  0
   -2.2840   66.8370   67.3370 C   0  0  0  0  0  0  0  0  0  0  0  0
   -1.1970   67.3610   66.4380 N   0  0  2  0  0  4  0  0  0  0  0  0
    0.1900   67.3550   67.0500 C   0  0  2  0  0  0  0  0  0  0  0  0
    0.1760   68.6000   67.9410 C   0  0  0  0  0  0  0  0  0  0  0  0
   -0.8130   69.5590   67.2850 C   0  0  0  0  0  0  0  0  0  0  0  0
   -1.3470   68.8200   66.0530 C   0  0  1  0  0  0  0  0  0  0  0  0
   -0.4750   69.0830   64.8190 C   0  0  0  0  0  0  0  0  0  0  0  0
    0.6520   68.0570   64.6150 C   0  0  2  0  0  0  0  0  0  0  0  0
    1.2220   67.4900   65.9210 C   0  0  0  0  0  0  0  0  0  0  0  0
    5.2570   68.7699   62.4007 H   0  0  0  0  0  0  0  0  0  0  0  0
    6.8862   70.2012   63.8384 H   0  0  0  0  0  0  0  0  0  0  0  0
    2.6476   68.7941   66.8743 H   0  0  0  0  0  0  0  0  0  0  0  0
    3.6105   70.0164   68.8268 H   0  0  0  0  0  0  0  0  0  0  0  0
    5.7819   71.1949   68.6293 H   0  0  0  0  0  0  0  0  0  0  0  0
    7.0467   71.1843   66.4629 H   0  0  0  0  0  0  0  0  0  0  0  0
   -1.9907   66.9784   68.3877 H   0  0  0  0  0  0  0  0  0  0  0  0
   -3.2179   67.3838   67.1402 H   0  0  0  0  0  0  0  0  0  0  0  0
   -2.4379   65.7657   67.1402 H   0  0  0  0  0  0  0  0  0  0  0  0
   -1.2965   66.7127   65.6438 H   0  0  0  0  0  0  0  0  0  0  0  0
    0.4438   66.4435   67.6110 H   0  0  0  0  0  0  0  0  0  0  0  0
   -0.1555   68.3416   68.9575 H   0  0  0  0  0  0  0  0  0  0  0  0
    1.1769   69.0465   68.0344 H   0  0  0  0  0  0  0  0  0  0  0  0
   -1.6347   69.7960   67.9768 H   0  0  0  0  0  0  0  0  0  0  0  0
   -0.3366   70.5126   67.0133 H   0  0  0  0  0  0  0  0  0  0  0  0
   -2.3708   69.1309   65.7979 H   0  0  0  0  0  0  0  0  0  0  0  0
   -1.1218   69.0668   63.9294 H   0  0  0  0  0  0  0  0  0  0  0  0
    0.0091   70.0583   64.9753 H   0  0  0  0  0  0  0  0  0  0  0  0
    0.1859   67.2259   64.0655 H   0  0  0  0  0  0  0  0  0  0  0  0
    1.6378   66.4932   65.7123 H   0  0  0  0  0  0  0  0  0  0  0  0
    1.9827   68.2034   66.2708 H   0  0  0  0  0  0  0  0  0  0  0  0
  2  1  2  0
  3  1  1  0
  4  3  2  0
  5  4  1  0
  6  5  1  0
  7  3  1  0
  7  6  2  0
  8  7  1  0
  9  8  2  0
 10  9  1  0
 11 10  2  0
 11  6  1  0
 12  1  1  0
 14 13  1  0
 15 14  1  0
 16 15  1  0
 17 16  1  0
 18 17  1  0
 18 14  1  0
 19 18  1  0
 20 19  1  0
 20 12  1  0
 21 20  1  0
 21 15  1  0
  4 22  1  0
  5 23  1  0
  8 24  1  0
  9 25  1  0
 10 26  1  0
 11 27  1  0
 13 28  1  0
 13 29  1  0
 13 30  1  0
 14 31  1  6
 15 32  1  1
 16 33  1  0
 16 34  1  0
 17 35  1  0
 17 36  1  0
 18 37  1  6
 19 38  1  0
 19 39  1  0
 20 40  1  6
 21 41  1  0
 21 42  1  0
M  CHG  1  14   1
M  END
>  <score>  (1) 
-9.655

$$$$
=
     RDKit          3D

 42 45  0  0  0  0  0  0  0  0999 V2000
    0.4180   65.6160   70.4270 C   0  0  0  0  0  0  0  0  0  0  0  0
   -0.0800   65.7440   71.5400 O   0  0  0  0  0  0  0  0  0  0  0  0
    0.5920   66.7020   69.4740 C   0  0  0  0  0  0  0  0  0  0  0  0
    1.7010   67.5260   69.3670 C   0  0  0  0  0  0  0  0  0  0  0  0
    1.4830   68.4200   68.3520 N   0  0  0  0  0  0  0  0  0  0  0  0
    0.2490   68.2030   67.7870 C   0  0  0  0  0  0  0  0  0  0  0  0
   -0.3340   67.1330   68.4660 C   0  0  0  0  0  0  0  0  0  0  0  0
   -1.6220   66.7120   68.0660 C   0  0  0  0  0  0  0  0  0  0  0  0
   -2.2700   67.3680   67.0140 C   0  0  0  0  0  0  0  0  0  0  0  0
   -1.6580   68.4330   66.3590 C   0  0  0  0  0  0  0  0  0  0  0  0
   -0.3850   68.8720   66.7330 C   0  0  0  0  0  0  0  0  0  0  0  0
    0.8820   64.4130   69.9560 O   0  0  0  0  0  0  0  0  0  0  0  0
    4.8000   61.3970   72.5970 C   0  0  0  0  0  0  0  0  0  0  0  0
    3.7550   62.1750   71.8450 N   0  0  2  0  0  4  0  0  0  0  0  0
    2.5070   61.3880   71.4950 C   0  0  2  0  0  0  0  0  0  0  0  0
    2.9460   60.5800   70.2700 C   0  0  0  0  0  0  0  0  0  0  0  0
    4.0340   61.4150   69.5990 C   0  0  0  0  0  0  0  0  0  0  0  0
    4.1940   62.6610   70.4760 C   0  0  1  0  0  0  0  0  0  0  0  0
    3.2450   63.7830   70.0380 C   0  0  0  0  0  0  0  0  0  0  0  0
    1.8880   63.7780   70.7600 C   0  0  2  0  0  0  0  0  0  0  0  0
    1.3890   62.3780   71.1370 C   0  0  0  0  0  0  0  0  0  0  0  0
    2.6045   67.4715   69.9920 H   0  0  0  0  0  0  0  0  0  0  0  0
    2.1475   69.1490   68.0554 H   0  0  0  0  0  0  0  0  0  0  0  0
   -2.1130   65.8722   68.5795 H   0  0  0  0  0  0  0  0  0  0  0  0
   -3.2722   67.0393   66.7016 H   0  0  0  0  0  0  0  0  0  0  0  0
   -2.1842   68.9366   65.5347 H   0  0  0  0  0  0  0  0  0  0  0  0
    0.1016   69.7132   66.2176 H   0  0  0  0  0  0  0  0  0  0  0  0
    4.6389   61.5170   73.6785 H   0  0  0  0  0  0  0  0  0  0  0  0
    4.7263   60.3321   72.3312 H   0  0  0  0  0  0  0  0  0  0  0  0
    5.7990   61.7730   72.3312 H   0  0  0  0  0  0  0  0  0  0  0  0
    3.5839   62.9359   72.5178 H   0  0  0  0  0  0  0  0  0  0  0  0
    2.1228   60.7475   72.3025 H   0  0  0  0  0  0  0  0  0  0  0  0
    3.3462   59.6026   70.5774 H   0  0  0  0  0  0  0  0  0  0  0  0
    2.1052   60.3821   69.5889 H   0  0  0  0  0  0  0  0  0  0  0  0
    4.9781   60.8522   69.5550 H   0  0  0  0  0  0  0  0  0  0  0  0
    3.7677   61.6761   68.5642 H   0  0  0  0  0  0  0  0  0  0  0  0
    5.2156   63.0664   70.4316 H   0  0  0  0  0  0  0  0  0  0  0  0
    3.7368   64.7471   70.2345 H   0  0  0  0  0  0  0  0  0  0  0  0
    3.0356   63.6212   68.9703 H   0  0  0  0  0  0  0  0  0  0  0  0
    2.0586   64.3347   71.6933 H   0  0  0  0  0  0  0  0  0  0  0  0
    0.7201   62.4721   72.0052 H   0  0  0  0  0  0  0  0  0  0  0  0
    0.8800   61.9736   70.2496 H   0  0  0  0  0  0  0  0  0  0  0  0
  2  1  2  0
  3  1  1  0
  4  3  2  0
  5  4  1  0
  6  5  1  0
  7  3  1  0
  7  6  2  0
  8  7  1  0
  9  8  2  0
 10  9  1  0
 11 10  2  0
 11  6  1  0
 12  1  1  0
 14 13  1  0
 15 14  1  0
 16 15  1  0
 17 16  1  0
 18 17  1  0
 18 14  1  0
 19 18  1  0
 20 19  1  0
 20 12  1  0
 21 20  1  0
 21 15  1  0
  4 22  1  0
  5 23  1  0
  8 24  1  0
  9 25  1  0
 10 26  1  0
 11 27  1  0
 13 28  1  0
 13 29  1  0
 13 30  1  0
 14 31  1  1
 15 32  1  1
 16 33  1  0
 16 34  1  0
 17 35  1  0
 17 36  1  0
 18 37  1  1
 19 38  1  0
 19 39  1  0
 20 40  1  1
 21 41  1  0
 21 42  1  0
M  CHG  1  14   1
M  END
>  <score>  (2) 
-9.171

$$$$
=
     RDKit          3D

 42 45  0  0  0  0  0  0  0  0999 V2000
    0.2410   64.8200   71.2150 C   0  0  0  0  0  0  0  0  0  0  0  0
   -0.1760   65.6040   72.0610 O   0  0  0  0  0  0  0  0  0  0  0  0
    0.9460   63.5840   71.5160 C   0  0  0  0  0  0  0  0  0  0  0  0
    0.4130   62.4710   72.1480 C   0  0  0  0  0  0  0  0  0  0  0  0
    1.3900   61.5170   72.2450 N   0  0  0  0  0  0  0  0  0  0  0  0
    2.5600   61.9780   71.6910 C   0  0  0  0  0  0  0  0  0  0  0  0
    2.3160   63.2700   71.2230 C   0  0  0  0  0  0  0  0  0  0  0  0
    3.3760   63.9660   70.6030 C   0  0  0  0  0  0  0  0  0  0  0  0
    4.6270   63.3520   70.4740 C   0  0  0  0  0  0  0  0  0  0  0  0
    4.8360   62.0620   70.9520 C   0  0  0  0  0  0  0  0  0  0  0  0
    3.8060   61.3480   71.5700 C   0  0  0  0  0  0  0  0  0  0  0  0
    0.0740   65.0260   69.8680 O   0  0  0  0  0  0  0  0  0  0  0  0
    0.0570   70.1760   67.6540 C   0  0  0  0  0  0  0  0  0  0  0  0
    0.0770   68.7740   68.2000 N   0  0  2  0  0  4  0  0  0  0  0  0
    1.4430   68.1160   68.2110 C   0  0  2  0  0  0  0  0  0  0  0  0
    1.6190   67.6700   66.7570 C   0  0  0  0  0  0  0  0  0  0  0  0
    0.2060   67.4330   66.2300 C   0  0  0  0  0  0  0  0  0  0  0  0
   -0.7300   67.7730   67.3940 C   0  0  1  0  0  0  0  0  0  0  0  0
   -0.9950   66.5480   68.2770 C   0  0  0  0  0  0  0  0  0  0  0  0
   -0.0200   66.3990   69.4560 C   0  0  2  0  0  0  0  0  0  0  0  0
    1.3960   66.9100   69.1610 C   0  0  0  0  0  0  0  0  0  0  0  0
   -0.6208   62.3713   72.5104 H   0  0  0  0  0  0  0  0  0  0  0  0
    1.2660   60.5878   72.6717 H   0  0  0  0  0  0  0  0  0  0  0  0
    3.2195   64.9863   70.2230 H   0  0  0  0  0  0  0  0  0  0  0  0
    5.4528   63.8942   69.9902 H   0  0  0  0  0  0  0  0  0  0  0  0
    5.8269   61.5973   70.8417 H   0  0  0  0  0  0  0  0  0  0  0  0
    3.9674   60.3277   71.9481 H   0  0  0  0  0  0  0  0  0  0  0  0
    0.0468   70.8939   68.4874 H   0  0  0  0  0  0  0  0  0  0  0  0
    0.9529   70.3423   67.0377 H   0  0  0  0  0  0  0  0  0  0  0  0
   -0.8432   70.3167   67.0377 H   0  0  0  0  0  0  0  0  0  0  0  0
   -0.3012   68.9460   69.1425 H   0  0  0  0  0  0  0  0  0  0  0  0
    2.2650   68.7628   68.5517 H   0  0  0  0  0  0  0  0  0  0  0  0
    2.1210   68.4548   66.1721 H   0  0  0  0  0  0  0  0  0  0  0  0
    2.2407   66.7659   66.6796 H   0  0  0  0  0  0  0  0  0  0  0  0
    0.0022   68.0874   65.3696 H   0  0  0  0  0  0  0  0  0  0  0  0
    0.0682   66.3973   65.8860 H   0  0  0  0  0  0  0  0  0  0  0  0
   -1.7073   68.1371   67.0442 H   0  0  0  0  0  0  0  0  0  0  0  0
   -2.0151   66.6279   68.6808 H   0  0  0  0  0  0  0  0  0  0  0  0
   -0.8576   65.6625   67.6390 H   0  0  0  0  0  0  0  0  0  0  0  0
   -0.4416   67.0247   70.2564 H   0  0  0  0  0  0  0  0  0  0  0  0
    1.8631   67.2020   70.1131 H   0  0  0  0  0  0  0  0  0  0  0  0
    1.9306   66.0901   68.6590 H   0  0  0  0  0  0  0  0  0  0  0  0
  2  1  2  0
  3  1  1  0
  4  3  2  0
  5  4  1  0
  6  5  1  0
  7  3  1  0
  7  6  2  0
  8  7  1  0
  9  8  2  0
 10  9  1  0
 11 10  2  0
 11  6  1  0
 12  1  1  0
 14 13  1  0
 15 14  1  0
 16 15  1  0
 17 16  1  0
 18 17  1  0
 18 14  1  0
 19 18  1  0
 20 19  1  0
 20 12  1  0
 21 20  1  0
 21 15  1  0
  4 22  1  0
  5 23  1  0
  8 24  1  0
  9 25  1  0
 10 26  1  0
 11 27  1  0
 13 28  1  0
 13 29  1  0
 13 30  1  0
 14 31  1  1
 15 32  1  1
 16 33  1  0
 16 34  1  0
 17 35  1  0
 17 36  1  0
 18 37  1  6
 19 38  1  0
 19 39  1  0
 20 40  1  1
 21 41  1  0
 21 42  1  0
M  CHG  1  14   1
M  END
>  <score>  (3) 
-8.709

$$$$
=
     RDKit          3D

 42 45  0  0  0  0  0  0  0  0999 V2000
    3.8950   60.0190   70.2390 C   0  0  0  0  0  0  0  0  0  0  0  0
    3.8680   59.1020   69.4260 O   0  0  0  0  0  0  0  0  0  0  0  0
    3.3390   61.3430   70.0040 C   0  0  0  0  0  0  0  0  0  0  0  0
    3.7230   62.2250   69.0060 C   0  0  0  0  0  0  0  0  0  0  0  0
    2.9660   63.3610   69.1160 N   0  0  0  0  0  0  0  0  0  0  0  0
    2.0900   63.2480   70.1680 C   0  0  0  0  0  0  0  0  0  0  0  0
    2.2980   61.9940   70.7460 C   0  0  0  0  0  0  0  0  0  0  0  0
    1.5080   61.6350   71.8600 C   0  0  0  0  0  0  0  0  0  0  0  0
    0.5510   62.5310   72.3490 C   0  0  0  0  0  0  0  0  0  0  0  0
    0.3710   63.7740   71.7490 C   0  0  0  0  0  0  0  0  0  0  0  0
    1.1380   64.1570   70.6460 C   0  0  0  0  0  0  0  0  0  0  0  0
    4.4550   59.8880   71.4860 O   0  0  0  0  0  0  0  0  0  0  0  0
    2.0220   56.0560   74.7750 C   0  0  0  0  0  0  0  0  0  0  0  0
    2.6310   57.1150   73.8960 N   0  0  2  0  0  4  0  0  0  0  0  0
    2.8920   58.4400   74.5880 C   0  0  2  0  0  0  0  0  0  0  0  0
    1.5080   59.0940   74.6060 C   0  0  0  0  0  0  0  0  0  0  0  0
    0.7730   58.5270   73.3940 C   0  0  0  0  0  0  0  0  0  0  0  0
    1.7550   57.5520   72.7370 C   0  0  1  0  0  0  0  0  0  0  0  0
    2.6420   58.2580   71.7050 C   0  0  0  0  0  0  0  0  0  0  0  0
    3.9680   58.7900   72.2730 C   0  0  2  0  0  0  0  0  0  0  0  0
    3.8790   59.2490   73.7340 C   0  0  0  0  0  0  0  0  0  0  0  0
    4.5039   62.0432   68.2529 H   0  0  0  0  0  0  0  0  0  0  0  0
    3.0425   64.1820   68.4987 H   0  0  0  0  0  0  0  0  0  0  0  0
    1.6443   60.6553   72.3412 H   0  0  0  0  0  0  0  0  0  0  0  0
   -0.0651   62.2504   73.2160 H   0  0  0  0  0  0  0  0  0  0  0  0
   -0.3860   64.4646   72.1491 H   0  0  0  0  0  0  0  0  0  0  0  0
    0.9990   65.1386   70.1695 H   0  0  0  0  0  0  0  0  0  0  0  0
    2.1756   56.3231   75.8310 H   0  0  0  0  0  0  0  0  0  0  0  0
    0.9441   55.9832   74.5682 H   0  0  0  0  0  0  0  0  0  0  0  0
    2.5012   55.0877   74.5682 H   0  0  0  0  0  0  0  0  0  0  0  0
    3.4907   56.6294   73.6029 H   0  0  0  0  0  0  0  0  0  0  0  0
    3.3280   58.3586   75.5946 H   0  0  0  0  0  0  0  0  0  0  0  0
    0.9742   58.8387   75.5333 H   0  0  0  0  0  0  0  0  0  0  0  0
    1.5747   60.1913   74.5662 H   0  0  0  0  0  0  0  0  0  0  0  0
   -0.1389   57.9992   73.7100 H   0  0  0  0  0  0  0  0  0  0  0  0
    0.4604   59.3204   72.6992 H   0  0  0  0  0  0  0  0  0  0  0  0
    1.2357   56.7362   72.2129 H   0  0  0  0  0  0  0  0  0  0  0  0
    2.8729   57.5429   70.9017 H   0  0  0  0  0  0  0  0  0  0  0  0
    2.0776   59.1320   71.3480 H   0  0  0  0  0  0  0  0  0  0  0  0
    4.6598   57.9358   72.2314 H   0  0  0  0  0  0  0  0  0  0  0  0
    4.8784   59.1608   74.1850 H   0  0  0  0  0  0  0  0  0  0  0  0
    3.5089   60.2847   73.7183 H   0  0  0  0  0  0  0  0  0  0  0  0
  2  1  2  0
  3  1  1  0
  4  3  2  0
  5  4  1  0
  6  5  1  0
  7  3  1  0
  7  6  2  0
  8  7  1  0
  9  8  2  0
 10  9  1  0
 11 10  2  0
 11  6  1  0
 12  1  1  0
 14 13  1  0
 15 14  1  0
 16 15  1  0
 17 16  1  0
 18 17  1  0
 18 14  1  0
 19 18  1  0
 20 19  1  0
 20 12  1  0
 21 20  1  0
 21 15  1  0
  4 22  1  0
  5 23  1  0
  8 24  1  0
  9 25  1  0
 10 26  1  0
 11 27  1  0
 13 28  1  0
 13 29  1  0
 13 30  1  0
 14 31  1  6
 15 32  1  1
 16 33  1  0
 16 34  1  0
 17 35  1  0
 17 36  1  0
 18 37  1  6
 19 38  1  0
 19 39  1  0
 20 40  1  1
 21 41  1  0
 21 42  1  0
M  CHG  1  14   1
M  END
>  <score>  (4) 
-8.256

$$$$
=
     RDKit          3D

 42 45  0  0  0  0  0  0  0  0999 V2000
    3.6250   58.9080   72.2490 C   0  0  0  0  0  0  0  0  0  0  0  0
    3.3950   58.0220   71.4330 O   0  0  0  0  0  0  0  0  0  0  0  0
    4.2340   60.1880   71.9230 C   0  0  0  0  0  0  0  0  0  0  0  0
    5.2490   60.8150   72.6290 C   0  0  0  0  0  0  0  0  0  0  0  0
    5.5460   61.9970   72.0060 N   0  0  0  0  0  0  0  0  0  0  0  0
    4.7460   62.1660   70.9020 C   0  0  0  0  0  0  0  0  0  0  0  0
    3.9130   61.0490   70.8210 C   0  0  0  0  0  0  0  0  0  0  0  0
    2.9860   60.9850   69.7570 C   0  0  0  0  0  0  0  0  0  0  0  0
    2.9280   62.0260   68.8240 C   0  0  0  0  0  0  0  0  0  0  0  0
    3.7740   63.1260   68.9360 C   0  0  0  0  0  0  0  0  0  0  0  0
    4.7010   63.2170   69.9780 C   0  0  0  0  0  0  0  0  0  0  0  0
    3.3180   58.7860   73.5820 O   0  0  0  0  0  0  0  0  0  0  0  0
   -1.1940   61.8850   74.7950 C   0  0  0  0  0  0  0  0  0  0  0  0
    0.0280   61.0870   74.4280 N   0  0  2  0  0  4  0  0  0  0  0  0
    1.3420   61.8250   74.5960 C   0  0  2  0  0  0  0  0  0  0  0  0
    1.4040   62.7020   73.3430 C   0  0  0  0  0  0  0  0  0  0  0  0
    0.6080   61.9500   72.2800 C   0  0  0  0  0  0  0  0  0  0  0  0
    0.1000   60.6790   72.9690 C   0  0  1  0  0  0  0  0  0  0  0  0
    1.1070   59.5300   72.8400 C   0  0  0  0  0  0  0  0  0  0  0  0
    2.1090   59.4380   74.0020 C   0  0  2  0  0  0  0  0  0  0  0  0
    2.4820   60.7950   74.6120 C   0  0  0  0  0  0  0  0  0  0  0  0
    5.7341   60.4277   73.5371 H   0  0  0  0  0  0  0  0  0  0  0  0
    6.2657   62.6638   72.3197 H   0  0  0  0  0  0  0  0  0  0  0  0
    2.3126   60.1204   69.6624 H   0  0  0  0  0  0  0  0  0  0  0  0
    2.2074   61.9749   67.9944 H   0  0  0  0  0  0  0  0  0  0  0  0
    3.7119   63.9353   68.1936 H   0  0  0  0  0  0  0  0  0  0  0  0
    5.3718   64.0840   70.0690 H   0  0  0  0  0  0  0  0  0  0  0  0
   -1.2800   61.9411   75.8902 H   0  0  0  0  0  0  0  0  0  0  0  0
   -1.1065   62.9006   74.3815 H   0  0  0  0  0  0  0  0  0  0  0  0
   -2.0887   61.3966   74.3815 H   0  0  0  0  0  0  0  0  0  0  0  0
   -0.0804   60.2918   75.0737 H   0  0  0  0  0  0  0  0  0  0  0  0
    1.4267   62.4133   75.5216 H   0  0  0  0  0  0  0  0  0  0  0  0
    0.9510   63.6851   73.5389 H   0  0  0  0  0  0  0  0  0  0  0  0
    2.4406   62.8851   73.0236 H   0  0  0  0  0  0  0  0  0  0  0  0
   -0.2370   62.5607   71.9293 H   0  0  0  0  0  0  0  0  0  0  0  0
    1.2238   61.7172   71.3987 H   0  0  0  0  0  0  0  0  0  0  0  0
   -0.8486   60.3271   72.5373 H   0  0  0  0  0  0  0  0  0  0  0  0
    0.5472   58.5843   72.7913 H   0  0  0  0  0  0  0  0  0  0  0  0
    1.6942   59.7245   71.9304 H   0  0  0  0  0  0  0  0  0  0  0  0
    1.5929   58.8532   74.7776 H   0  0  0  0  0  0  0  0  0  0  0  0
    2.7858   60.6323   75.6566 H   0  0  0  0  0  0  0  0  0  0  0  0
    3.2919   61.2089   73.9933 H   0  0  0  0  0  0  0  0  0  0  0  0
  2  1  2  0
  3  1  1  0
  4  3  2  0
  5  4  1  0
  6  5  1  0
  7  3  1  0
  7  6  2  0
  8  7  1  0
  9  8  2  0
 10  9  1  0
 11 10  2  0
 11  6  1  0
 12  1  1  0
 14 13  1  0
 15 14  1  0
 16 15  1  0
 17 16  1  0
 18 17  1  0
 18 14  1  0
 19 18  1  0
 20 19  1  0
 20 12  1  0
 21 20  1  0
 21 15  1  0
  4 22  1  0
  5 23  1  0
  8 24  1  0
  9 25  1  0
 10 26  1  0
 11 27  1  0
 13 28  1  0
 13 29  1  0
 13 30  1  0
 14 31  1  1
 15 32  1  1
 16 33  1  0
 16 34  1  0
 17 35  1  0
 17 36  1  0
 18 37  1  6
 19 38  1  0
 19 39  1  0
 20 40  1  1
 21 41  1  0
 21 42  1  0
M  CHG  1  14   1
M  END
>  <score>  (5) 
-8.221

$$$$
=
     RDKit          3D

 42 45  0  0  0  0  0  0  0  0999 V2000
    3.3940   58.4810   71.1970 C   0  0  0  0  0  0  0  0  0  0  0  0
    3.9280   57.5430   70.6150 O   0  0  0  0  0  0  0  0  0  0  0  0
    4.0240   59.7710   71.4310 C   0  0  0  0  0  0  0  0  0  0  0  0
    4.8020   60.1150   72.5250 C   0  0  0  0  0  0  0  0  0  0  0  0
    5.2110   61.4130   72.3770 N   0  0  0  0  0  0  0  0  0  0  0  0
    4.7160   61.9360   71.2070 C   0  0  0  0  0  0  0  0  0  0  0  0
    3.9690   60.9320   70.5890 C   0  0  0  0  0  0  0  0  0  0  0  0
    3.3490   61.2260   69.3540 C   0  0  0  0  0  0  0  0  0  0  0  0
    3.4990   62.4970   68.7890 C   0  0  0  0  0  0  0  0  0  0  0  0
    4.2520   63.4750   69.4330 C   0  0  0  0  0  0  0  0  0  0  0  0
    4.8760   63.2130   70.6560 C   0  0  0  0  0  0  0  0  0  0  0  0
    2.1150   58.4130   71.6920 O   0  0  0  0  0  0  0  0  0  0  0  0
    0.9330   56.4680   76.8140 C   0  0  0  0  0  0  0  0  0  0  0  0
    1.2000   56.9740   75.4230 N   0  0  2  0  0  4  0  0  0  0  0  0
    0.3220   58.1320   74.9890 C   0  0  2  0  0  0  0  0  0  0  0  0
   -0.9880   57.4400   74.6030 C   0  0  0  0  0  0  0  0  0  0  0  0
   -0.5910   56.0360   74.1560 C   0  0  0  0  0  0  0  0  0  0  0  0
    0.9300   55.9660   74.3220 C   0  0  1  0  0  0  0  0  0  0  0  0
    1.6560   56.4330   73.0540 C   0  0  0  0  0  0  0  0  0  0  0  0
    1.9950   57.9320   73.0400 C   0  0  2  0  0  0  0  0  0  0  0  0
    0.9730   58.8090   73.7740 C   0  0  0  0  0  0  0  0  0  0  0  0
    5.0493   59.4559   73.3702 H   0  0  0  0  0  0  0  0  0  0  0  0
    5.8043   61.9238   73.0463 H   0  0  0  0  0  0  0  0  0  0  0  0
    2.7513   60.4593   68.8392 H   0  0  0  0  0  0  0  0  0  0  0  0
    3.0174   62.7258   67.8268 H   0  0  0  0  0  0  0  0  0  0  0  0
    4.3574   64.4685   68.9726 H   0  0  0  0  0  0  0  0  0  0  0  0
    5.4719   63.9832   71.1676 H   0  0  0  0  0  0  0  0  0  0  0  0
    1.3155   57.1929   77.5476 H   0  0  0  0  0  0  0  0  0  0  0  0
   -0.1502   56.3397   76.9559 H   0  0  0  0  0  0  0  0  0  0  0  0
    1.4384   55.5014   76.9559 H   0  0  0  0  0  0  0  0  0  0  0  0
    2.1942   57.2266   75.5157 H   0  0  0  0  0  0  0  0  0  0  0  0
    0.1739   58.9115   75.7509 H   0  0  0  0  0  0  0  0  0  0  0  0
   -1.6661   57.3908   75.4677 H   0  0  0  0  0  0  0  0  0  0  0  0
   -1.5196   57.9859   73.8096 H   0  0  0  0  0  0  0  0  0  0  0  0
   -1.0813   55.2793   74.7861 H   0  0  0  0  0  0  0  0  0  0  0  0
   -0.8969   55.8373   73.1182 H   0  0  0  0  0  0  0  0  0  0  0  0
    1.2746   54.9429   74.5330 H   0  0  0  0  0  0  0  0  0  0  0  0
    2.5943   55.8660   72.9647 H   0  0  0  0  0  0  0  0  0  0  0  0
    0.9700   56.2554   72.2126 H   0  0  0  0  0  0  0  0  0  0  0  0
    2.9516   58.0137   73.5769 H   0  0  0  0  0  0  0  0  0  0  0  0
    1.4843   59.7198   74.1191 H   0  0  0  0  0  0  0  0  0  0  0  0
    0.1648   59.0200   73.0583 H   0  0  0  0  0  0  0  0  0  0  0  0
  2  1  2  0
  3  1  1  0
  4  3  2  0
  5  4  1  0
  6  5  1  0
  7  3  1  0
  7  6  2  0
  8  7  1  0
  9  8  2  0
 10  9  1  0
 11 10  2  0
 11  6  1  0
 12  1  1  0
 14 13  1  0
 15 14  1  0
 16 15  1  0
 17 16  1  0
 18 17  1  0
 18 14  1  0
 19 18  1  0
 20 19  1  0
 20 12  1  0
 21 20  1  0
 21 15  1  0
  4 22  1  0
  5 23  1  0
  8 24  1  0
  9 25  1  0
 10 26  1  0
 11 27  1  0
 13 28  1  0
 13 29  1  0
 13 30  1  0
 14 31  1  1
 15 32  1  1
 16 33  1  0
 16 34  1  0
 17 35  1  0
 17 36  1  0
 18 37  1  1
 19 38  1  0
 19 39  1  0
 20 40  1  1
 21 41  1  0
 21 42  1  0
M  CHG  1  14   1
M  END
>  <score>  (6) 
-8.109

$$$$
=
     RDKit          3D

 42 45  0  0  0  0  0  0  0  0999 V2000
    1.9480   68.5710   62.7990 C   0  0  0  0  0  0  0  0  0  0  0  0
    1.1820   68.7900   61.8660 O   0  0  0  0  0  0  0  0  0  0  0  0
    3.1020   67.6890   62.7260 C   0  0  0  0  0  0  0  0  0  0  0  0
    4.2030   67.8500   61.8990 C   0  0  0  0  0  0  0  0  0  0  0  0
    5.0720   66.8150   62.1250 N   0  0  0  0  0  0  0  0  0  0  0  0
    4.5650   65.9720   63.0850 C   0  0  0  0  0  0  0  0  0  0  0  0
    3.3320   66.4920   63.4830 C   0  0  0  0  0  0  0  0  0  0  0  0
    2.6040   65.7960   64.4730 C   0  0  0  0  0  0  0  0  0  0  0  0
    3.1290   64.6220   65.0230 C   0  0  0  0  0  0  0  0  0  0  0  0
    4.3630   64.1310   64.6020 C   0  0  0  0  0  0  0  0  0  0  0  0
    5.1050   64.7980   63.6240 C   0  0  0  0  0  0  0  0  0  0  0  0
    1.7990   69.1540   64.0330 O   0  0  0  0  0  0  0  0  0  0  0  0
   -1.2950   66.8510   68.1000 C   0  0  0  0  0  0  0  0  0  0  0  0
   -0.4820   67.5190   67.0250 N   0  0  2  0  0  4  0  0  0  0  0  0
    0.6410   68.4020   67.5330 C   0  0  2  0  0  0  0  0  0  0  0  0
   -0.0890   69.6870   67.9310 C   0  0  0  0  0  0  0  0  0  0  0  0
   -1.3180   69.7540   67.0280 C   0  0  0  0  0  0  0  0  0  0  0  0
   -1.2590   68.4930   66.1600 C   0  0  1  0  0  0  0  0  0  0  0  0
   -0.4610   68.7350   64.8720 C   0  0  0  0  0  0  0  0  0  0  0  0
    1.0350   68.4010   64.9880 C   0  0  2  0  0  0  0  0  0  0  0  0
    1.6240   68.6540   66.3810 C   0  0  0  0  0  0  0  0  0  0  0  0
    4.3536   68.6706   61.1821 H   0  0  0  0  0  0  0  0  0  0  0  0
    5.9744   66.6872   61.6451 H   0  0  0  0  0  0  0  0  0  0  0  0
    1.6282   66.1756   64.8102 H   0  0  0  0  0  0  0  0  0  0  0  0
    2.5622   64.0813   65.7952 H   0  0  0  0  0  0  0  0  0  0  0  0
    4.7585   63.2054   65.0457 H   0  0  0  0  0  0  0  0  0  0  0  0
    6.0799   64.4140   63.2890 H   0  0  0  0  0  0  0  0  0  0  0  0
   -0.9205   67.1587   69.0875 H   0  0  0  0  0  0  0  0  0  0  0  0
   -2.3497   67.1469   67.9993 H   0  0  0  0  0  0  0  0  0  0  0  0
   -1.2093   65.7590   67.9993 H   0  0  0  0  0  0  0  0  0  0  0  0
   -0.1498   66.6882   66.5147 H   0  0  0  0  0  0  0  0  0  0  0  0
    1.2226   67.9775   68.3646 H   0  0  0  0  0  0  0  0  0  0  0  0
   -0.3904   69.6463   68.9881 H   0  0  0  0  0  0  0  0  0  0  0  0
    0.5519   70.5734   67.8145 H   0  0  0  0  0  0  0  0  0  0  0  0
   -2.2379   69.7626   67.6311 H   0  0  0  0  0  0  0  0  0  0  0  0
   -1.3258   70.6690   66.4175 H   0  0  0  0  0  0  0  0  0  0  0  0
   -2.2608   68.1516   65.8602 H   0  0  0  0  0  0  0  0  0  0  0  0
   -0.8933   68.1115   64.0756 H   0  0  0  0  0  0  0  0  0  0  0  0
   -0.5296   69.8110   64.6540 H   0  0  0  0  0  0  0  0  0  0  0  0
    1.1030   67.3215   64.7879 H   0  0  0  0  0  0  0  0  0  0  0  0
    2.4908   67.9902   66.5152 H   0  0  0  0  0  0  0  0  0  0  0  0
    1.8941   69.7195   66.4222 H   0  0  0  0  0  0  0  0  0  0  0  0
  2  1  2  0
  3  1  1  0
  4  3  2  0
  5  4  1  0
  6  5  1  0
  7  3  1  0
  7  6  2  0
  8  7  1  0
  9  8  2  0
 10  9  1  0
 11 10  2  0
 11  6  1  0
 12  1  1  0
 14 13  1  0
 15 14  1  0
 16 15  1  0
 17 16  1  0
 18 17  1  0
 18 14  1  0
 19 18  1  0
 20 19  1  0
 20 12  1  0
 21 20  1  0
 21 15  1  0
  4 22  1  0
  5 23  1  0
  8 24  1  0
  9 25  1  0
 10 26  1  0
 11 27  1  0
 13 28  1  0
 13 29  1  0
 13 30  1  0
 14 31  1  6
 15 32  1  1
 16 33  1  0
 16 34  1  0
 17 35  1  0
 17 36  1  0
 18 37  1  6
 19 38  1  0
 19 39  1  0
 20 40  1  6
 21 41  1  0
 21 42  1  0
M  CHG  1  14   1
M  END
>  <score>  (7) 
-7.894

$$$$
=
     RDKit          3D

 42 45  0  0  0  0  0  0  0  0999 V2000
   -0.0340   62.1480   72.6780 C   0  0  0  0  0  0  0  0  0  0  0  0
   -0.5610   62.7360   73.6160 O   0  0  0  0  0  0  0  0  0  0  0  0
    0.8140   62.7840   71.6810 C   0  0  0  0  0  0  0  0  0  0  0  0
    0.3930   63.6360   70.6720 C   0  0  0  0  0  0  0  0  0  0  0  0
    1.4870   64.0230   69.9450 N   0  0  0  0  0  0  0  0  0  0  0  0
    2.6240   63.4420   70.4530 C   0  0  0  0  0  0  0  0  0  0  0  0
    2.2370   62.6600   71.5430 C   0  0  0  0  0  0  0  0  0  0  0  0
    3.2380   61.9520   72.2440 C   0  0  0  0  0  0  0  0  0  0  0  0
    4.5720   62.0520   71.8350 C   0  0  0  0  0  0  0  0  0  0  0  0
    4.9230   62.8410   70.7430 C   0  0  0  0  0  0  0  0  0  0  0  0
    3.9540   63.5530   70.0300 C   0  0  0  0  0  0  0  0  0  0  0  0
   -0.1850   60.8000   72.4690 O   0  0  0  0  0  0  0  0  0  0  0  0
    1.4050   56.9290   76.1990 C   0  0  0  0  0  0  0  0  0  0  0  0
    0.9710   57.9280   75.1620 N   0  0  2  0  0  4  0  0  0  0  0  0
   -0.4710   57.7900   74.7110 C   0  0  2  0  0  0  0  0  0  0  0  0
   -0.4080   56.6240   73.7210 C   0  0  0  0  0  0  0  0  0  0  0  0
    1.0040   56.6550   73.1430 C   0  0  0  0  0  0  0  0  0  0  0  0
    1.7070   57.8250   73.8400 C   0  0  1  0  0  0  0  0  0  0  0  0
    1.5070   59.1380   73.0730 C   0  0  0  0  0  0  0  0  0  0  0  0
    0.2840   59.9510   73.5290 C   0  0  2  0  0  0  0  0  0  0  0  0
   -0.8900   59.0920   74.0130 C   0  0  0  0  0  0  0  0  0  0  0  0
   -0.6452   63.9487   70.4865 H   0  0  0  0  0  0  0  0  0  0  0  0
    1.4614   64.6579   69.1344 H   0  0  0  0  0  0  0  0  0  0  0  0
    2.9700   61.3251   73.1072 H   0  0  0  0  0  0  0  0  0  0  0  0
    5.3517   61.5015   72.3818 H   0  0  0  0  0  0  0  0  0  0  0  0
    5.9776   62.9051   70.4369 H   0  0  0  0  0  0  0  0  0  0  0  0
    4.2268   64.1783   69.1671 H   0  0  0  0  0  0  0  0  0  0  0  0
    1.2259   57.3413   77.2029 H   0  0  0  0  0  0  0  0  0  0  0  0
    0.8295   55.9996   76.0763 H   0  0  0  0  0  0  0  0  0  0  0  0
    2.4771   56.7154   76.0763 H   0  0  0  0  0  0  0  0  0  0  0  0
    1.1587   58.8031   75.6717 H   0  0  0  0  0  0  0  0  0  0  0  0
   -1.1944   57.6116   75.5202 H   0  0  0  0  0  0  0  0  0  0  0  0
   -0.5908   55.6705   74.2381 H   0  0  0  0  0  0  0  0  0  0  0  0
   -1.1724   56.7144   72.9352 H   0  0  0  0  0  0  0  0  0  0  0  0
    1.5270   55.7109   73.3553 H   0  0  0  0  0  0  0  0  0  0  0  0
    0.9946   56.7777   72.0499 H   0  0  0  0  0  0  0  0  0  0  0  0
    2.7917   57.6628   73.9240 H   0  0  0  0  0  0  0  0  0  0  0  0
    2.4049   59.7584   73.2100 H   0  0  0  0  0  0  0  0  0  0  0  0
    1.3341   58.8677   72.0208 H   0  0  0  0  0  0  0  0  0  0  0  0
    0.6377   60.5444   74.3851 H   0  0  0  0  0  0  0  0  0  0  0  0
   -1.4842   59.6876   74.7216 H   0  0  0  0  0  0  0  0  0  0  0  0
   -1.4597   58.8018   73.1179 H   0  0  0  0  0  0  0  0  0  0  0  0
  2  1  2  0
  3  1  1  0
  4  3  2  0
  5  4  1  0
  6  5  1  0
  7  3  1  0
  7  6  2  0
  8  7  1  0
  9  8  2  0
 10  9  1  0
 11 10  2  0
 11  6  1  0
 12  1  1  0
 14 13  1  0
 15 14  1  0
 16 15  1  0
 17 16  1  0
 18 17  1  0
 18 14  1  0
 19 18  1  0
 20 19  1  0
 20 12  1  0
 21 20  1  0
 21 15  1  0
  4 22  1  0
  5 23  1  0
  8 24  1  0
  9 25  1  0
 10 26  1  0
 11 27  1  0
 13 28  1  0
 13 29  1  0
 13 30  1  0
 14 31  1  1
 15 32  1  1
 16 33  1  0
 16 34  1  0
 17 35  1  0
 17 36  1  0
 18 37  1  1
 19 38  1  0
 19 39  1  0
 20 40  1  1
 21 41  1  0
 21 42  1  0
M  CHG  1  14   1
M  END
>  <score>  (8) 
-7.794

$$$$
=
     RDKit          3D

 42 45  0  0  0  0  0  0  0  0999 V2000
    1.5050   59.4250   72.7780 C   0  0  0  0  0  0  0  0  0  0  0  0
    0.4320   59.9910   72.9580 O   0  0  0  0  0  0  0  0  0  0  0  0
    2.7700   60.1110   72.5620 C   0  0  0  0  0  0  0  0  0  0  0  0
    3.9430   59.9070   73.2720 C   0  0  0  0  0  0  0  0  0  0  0  0
    4.9060   60.7400   72.7680 N   0  0  0  0  0  0  0  0  0  0  0  0
    4.3920   61.4920   71.7390 C   0  0  0  0  0  0  0  0  0  0  0  0
    3.0560   61.1210   71.5830 C   0  0  0  0  0  0  0  0  0  0  0  0
    2.3000   61.7600   70.5750 C   0  0  0  0  0  0  0  0  0  0  0  0
    2.9010   62.7330   69.7700 C   0  0  0  0  0  0  0  0  0  0  0  0
    4.2380   63.0790   69.9530 C   0  0  0  0  0  0  0  0  0  0  0  0
    5.0100   62.4640   70.9430 C   0  0  0  0  0  0  0  0  0  0  0  0
    1.6310   58.0580   72.7710 O   0  0  0  0  0  0  0  0  0  0  0  0
   -0.4110   54.7770   76.8320 C   0  0  0  0  0  0  0  0  0  0  0  0
    0.1620   55.6150   75.7200 N   0  0  2  0  0  4  0  0  0  0  0  0
   -0.3410   55.2600   74.3350 C   0  0  2  0  0  0  0  0  0  0  0  0
    0.4880   54.0220   73.9780 C   0  0  0  0  0  0  0  0  0  0  0  0
    1.7960   54.1720   74.7500 C   0  0  0  0  0  0  0  0  0  0  0  0
    1.6610   55.4780   75.5380 C   0  0  1  0  0  0  0  0  0  0  0  0
    2.1570   56.6790   74.7230 C   0  0  0  0  0  0  0  0  0  0  0  0
    1.0620   57.3760   73.9000 C   0  0  2  0  0  0  0  0  0  0  0  0
   -0.0310   56.4290   73.3890 C   0  0  0  0  0  0  0  0  0  0  0  0
    4.0775   59.1960   74.1005 H   0  0  0  0  0  0  0  0  0  0  0  0
    5.8757   60.7950   73.1107 H   0  0  0  0  0  0  0  0  0  0  0  0
    1.2435   61.4935   70.4240 H   0  0  0  0  0  0  0  0  0  0  0  0
    2.3123   63.2299   68.9848 H   0  0  0  0  0  0  0  0  0  0  0  0
    4.6925   63.8467   69.3096 H   0  0  0  0  0  0  0  0  0  0  0  0
    6.0659   62.7342   71.0914 H   0  0  0  0  0  0  0  0  0  0  0  0
   -0.1182   55.2052   77.8020 H   0  0  0  0  0  0  0  0  0  0  0  0
   -1.5081   54.7637   76.7532 H   0  0  0  0  0  0  0  0  0  0  0  0
   -0.0253   53.7499   76.7532 H   0  0  0  0  0  0  0  0  0  0  0  0
   -0.1315   56.5511   76.0337 H   0  0  0  0  0  0  0  0  0  0  0  0
   -1.4227   55.0713   74.2699 H   0  0  0  0  0  0  0  0  0  0  0  0
   -0.0372   53.1057   74.2855 H   0  0  0  0  0  0  0  0  0  0  0  0
    0.6599   53.9440   72.8943 H   0  0  0  0  0  0  0  0  0  0  0  0
    1.9372   53.3230   75.4350 H   0  0  0  0  0  0  0  0  0  0  0  0
    2.6661   54.1904   74.0773 H   0  0  0  0  0  0  0  0  0  0  0  0
    2.2427   55.4574   76.4714 H   0  0  0  0  0  0  0  0  0  0  0  0
    2.5867   57.4146   75.4189 H   0  0  0  0  0  0  0  0  0  0  0  0
    2.8944   56.2913   74.0047 H   0  0  0  0  0  0  0  0  0  0  0  0
    0.5903   58.0861   74.5952 H   0  0  0  0  0  0  0  0  0  0  0  0
   -0.9532   57.0113   73.2459 H   0  0  0  0  0  0  0  0  0  0  0  0
    0.3434   55.9886   72.4531 H   0  0  0  0  0  0  0  0  0  0  0  0
  2  1  2  0
  3  1  1  0
  4  3  2  0
  5  4  1  0
  6  5  1  0
  7  3  1  0
  7  6  2  0
  8  7  1  0
  9  8  2  0
 10  9  1  0
 11 10  2  0
 11  6  1  0
 12  1  1  0
 14 13  1  0
 15 14  1  0
 16 15  1  0
 17 16  1  0
 18 17  1  0
 18 14  1  0
 19 18  1  0
 20 19  1  0
 20 12  1  0
 21 20  1  0
 21 15  1  0
  4 22  1  0
  5 23  1  0
  8 24  1  0
  9 25  1  0
 10 26  1  0
 11 27  1  0
 13 28  1  0
 13 29  1  0
 13 30  1  0
 14 31  1  1
 15 32  1  1
 16 33  1  0
 16 34  1  0
 17 35  1  0
 17 36  1  0
 18 37  1  1
 19 38  1  0
 19 39  1  0
 20 40  1  1
 21 41  1  0
 21 42  1  0
M  CHG  1  14   1
M  END
>  <score>  (9) 
-7.389

$$$$
