=
     RDKit          3D

 44 45  0  0  0  0  0  0  0  0999 V2000
    1.4870   67.4410   69.1610 S   0  0  0  0  0  0  0  0  0  0  0  0
    0.5770   68.0260   67.3820 S   0  0  0  0  0  6  0  0  0  0  0  0
   -0.0400   66.8570   66.7890 O   0  0  0  0  0  0  0  0  0  0  0  0
   -0.1920   69.2240   67.6570 O   0  0  0  0  0  0  0  0  0  0  0  0
    5.2590   69.5550   63.8310 C   0  0  0  0  0  0  0  0  0  0  0  0
    4.0900   69.2020   64.7060 C   0  0  0  0  0  0  0  0  0  0  0  0
    4.1060   69.5270   66.0690 C   0  0  0  0  0  0  0  0  0  0  0  0
    3.0340   69.1760   66.8920 C   0  0  0  0  0  0  0  0  0  0  0  0
    1.9500   68.4800   66.3500 C   0  0  0  0  0  0  0  0  0  0  0  0
    1.9210   68.1500   64.9930 C   0  0  0  0  0  0  0  0  0  0  0  0
    2.9970   68.5030   64.1760 C   0  0  0  0  0  0  0  0  0  0  0  0
    0.2440   66.3040   69.8180 C   0  0  0  0  0  0  0  0  0  0  0  0
    0.8670   65.0200   70.3000 C   0  0  0  0  0  0  0  0  0  0  0  0
    2.2510   64.8330   70.2490 C   0  0  0  0  0  0  0  0  0  0  0  0
    2.8320   63.6450   70.7090 C   0  0  0  0  0  0  0  0  0  0  0  0
    2.0500   62.6060   71.2380 C   0  0  0  0  0  0  0  0  0  0  0  0
    0.6590   62.8120   71.2900 C   0  0  0  0  0  0  0  0  0  0  0  0
    0.0750   63.9980   70.8320 C   0  0  0  0  0  0  0  0  0  0  0  0
    2.6560   61.2890   71.7540 C   0  0  0  0  0  0  0  0  0  0  0  0
    3.2870   60.5130   70.5780 C   0  0  0  0  0  0  0  0  0  0  0  0
    3.7610   61.4830   72.8160 C   0  0  0  0  0  0  0  0  0  0  0  0
    1.5500   60.4260   72.3970 C   0  0  0  0  0  0  0  0  0  0  0  0
    6.1226   69.8158   64.4604 H   0  0  0  0  0  0  0  0  0  0  0  0
    5.5148   68.6941   63.1959 H   0  0  0  0  0  0  0  0  0  0  0  0
    4.9956   70.4137   63.1959 H   0  0  0  0  0  0  0  0  0  0  0  0
    4.9685   70.0620   66.4932 H   0  0  0  0  0  0  0  0  0  0  0  0
    3.0426   69.4452   67.9585 H   0  0  0  0  0  0  0  0  0  0  0  0
    1.0569   67.6160   64.5711 H   0  0  0  0  0  0  0  0  0  0  0  0
    2.9867   68.2309   63.1102 H   0  0  0  0  0  0  0  0  0  0  0  0
   -0.2731   66.7879   70.6597 H   0  0  0  0  0  0  0  0  0  0  0  0
   -0.4622   66.0619   69.0101 H   0  0  0  0  0  0  0  0  0  0  0  0
    2.8920   65.6291   69.8424 H   0  0  0  0  0  0  0  0  0  0  0  0
    3.9239   63.5233   70.6548 H   0  0  0  0  0  0  0  0  0  0  0  0
    0.0147   62.0208   71.7010 H   0  0  0  0  0  0  0  0  0  0  0  0
   -1.0158   64.1274   70.8909 H   0  0  0  0  0  0  0  0  0  0  0  0
    3.9353   59.7157   70.9706 H   0  0  0  0  0  0  0  0  0  0  0  0
    2.4908   60.0685   69.9627 H   0  0  0  0  0  0  0  0  0  0  0  0
    3.8845   61.2018   69.9627 H   0  0  0  0  0  0  0  0  0  0  0  0
    3.3211   61.4058   73.8212 H   0  0  0  0  0  0  0  0  0  0  0  0
    4.5297   60.7061   72.6915 H   0  0  0  0  0  0  0  0  0  0  0  0
    4.2191   62.4753   72.6915 H   0  0  0  0  0  0  0  0  0  0  0  0
    1.6279   60.4868   73.4926 H   0  0  0  0  0  0  0  0  0  0  0  0
    0.5644   60.7961   72.0784 H   0  0  0  0  0  0  0  0  0  0  0  0
    1.6694   59.3799   72.0784 H   0  0  0  0  0  0  0  0  0  0  0  0
  2  1  1  0
  3  2  2  0
  4  2  2  0
  6  5  1  0
  7  6  2  0
  8  7  1  0
  9  8  2  0
  9  2  1  0
 10  9  1  0
 11 10  2  0
 11  6  1  0
 12  1  1  0
 13 12  1  0
 14 13  2  0
 15 14  1  0
 16 15  2  0
 17 16  1  0
 18 13  1  0
 18 17  2  0
 19 16  1  0
 20 19  1  0
 21 19  1  0
 22 19  1  0
  5 23  1  0
  5 24  1  0
  5 25  1  0
  7 26  1  0
  8 27  1  0
 10 28  1  0
 11 29  1  0
 12 30  1  0
 12 31  1  0
 14 32  1  0
 15 33  1  0
 17 34  1  0
 18 35  1  0
 20 36  1  0
 20 37  1  0
 20 38  1  0
 21 39  1  0
 21 40  1  0
 21 41  1  0
 22 42  1  0
 22 43  1  0
 22 44  1  0
M  END
>  <score>  (1) 
-9.453

$$$$
=
     RDKit          3D

 44 45  0  0  0  0  0  0  0  0999 V2000
    1.3500   66.8740   67.6340 S   0  0  0  0  0  0  0  0  0  0  0  0
    1.2750   68.8430   66.9600 S   0  0  0  0  0  6  0  0  0  0  0  0
    1.2100   68.8180   65.5130 O   0  0  0  0  0  0  0  0  0  0  0  0
    0.2740   69.5370   67.7470 O   0  0  0  0  0  0  0  0  0  0  0  0
    6.7370   71.0320   68.4580 C   0  0  0  0  0  0  0  0  0  0  0  0
    5.3780   70.5160   68.0810 C   0  0  0  0  0  0  0  0  0  0  0  0
    4.3210   70.5730   69.0000 C   0  0  0  0  0  0  0  0  0  0  0  0
    3.0630   70.0690   68.6630 C   0  0  0  0  0  0  0  0  0  0  0  0
    2.8690   69.4890   67.4070 C   0  0  0  0  0  0  0  0  0  0  0  0
    3.9140   69.4250   66.4810 C   0  0  0  0  0  0  0  0  0  0  0  0
    5.1680   69.9300   66.8250 C   0  0  0  0  0  0  0  0  0  0  0  0
    1.0990   67.1150   69.4080 C   0  0  0  0  0  0  0  0  0  0  0  0
    1.2100   65.8180   70.1650 C   0  0  0  0  0  0  0  0  0  0  0  0
    0.2280   65.4410   71.0860 C   0  0  0  0  0  0  0  0  0  0  0  0
    0.3240   64.2290   71.7820 C   0  0  0  0  0  0  0  0  0  0  0  0
    1.4030   63.3530   71.5800 C   0  0  0  0  0  0  0  0  0  0  0  0
    2.3790   63.7440   70.6440 C   0  0  0  0  0  0  0  0  0  0  0  0
    2.2860   64.9530   69.9460 C   0  0  0  0  0  0  0  0  0  0  0  0
    1.5380   62.0140   72.3250 C   0  0  0  0  0  0  0  0  0  0  0  0
    2.3690   61.0290   71.4750 C   0  0  0  0  0  0  0  0  0  0  0  0
    2.2370   62.1320   73.6980 C   0  0  0  0  0  0  0  0  0  0  0  0
    0.1380   61.4150   72.5750 C   0  0  0  0  0  0  0  0  0  0  0  0
    6.8254   71.0656   69.5539 H   0  0  0  0  0  0  0  0  0  0  0  0
    7.5093   70.3645   68.0481 H   0  0  0  0  0  0  0  0  0  0  0  0
    6.8717   72.0439   68.0481 H   0  0  0  0  0  0  0  0  0  0  0  0
    4.4835   71.0176   69.9929 H   0  0  0  0  0  0  0  0  0  0  0  0
    2.2315   70.1282   69.3807 H   0  0  0  0  0  0  0  0  0  0  0  0
    3.7489   68.9799   65.4887 H   0  0  0  0  0  0  0  0  0  0  0  0
    5.9979   69.8680   66.1056 H   0  0  0  0  0  0  0  0  0  0  0  0
    1.8601   67.8143   69.7844 H   0  0  0  0  0  0  0  0  0  0  0  0
    0.0865   67.5168   69.5607 H   0  0  0  0  0  0  0  0  0  0  0  0
   -0.6307   66.1043   71.2664 H   0  0  0  0  0  0  0  0  0  0  0  0
   -0.4623   63.9577   72.5019 H   0  0  0  0  0  0  0  0  0  0  0  0
    3.2371   63.0818   70.4565 H   0  0  0  0  0  0  0  0  0  0  0  0
    3.0657   65.2249   69.2192 H   0  0  0  0  0  0  0  0  0  0  0  0
    2.9346   60.3586   72.1389 H   0  0  0  0  0  0  0  0  0  0  0  0
    1.6958   60.4341   70.8402 H   0  0  0  0  0  0  0  0  0  0  0  0
    3.0687   61.5924   70.8402 H   0  0  0  0  0  0  0  0  0  0  0  0
    1.4942   62.0066   74.4996 H   0  0  0  0  0  0  0  0  0  0  0  0
    3.0067   61.3511   73.7859 H   0  0  0  0  0  0  0  0  0  0  0  0
    2.7077   63.1223   73.7859 H   0  0  0  0  0  0  0  0  0  0  0  0
   -0.0402   61.3388   73.6578 H   0  0  0  0  0  0  0  0  0  0  0  0
   -0.6252   62.0654   72.1227 H   0  0  0  0  0  0  0  0  0  0  0  0
    0.0814   60.4139   72.1227 H   0  0  0  0  0  0  0  0  0  0  0  0
  2  1  1  0
  3  2  2  0
  4  2  2  0
  6  5  1  0
  7  6  2  0
  8  7  1  0
  9  8  2  0
  9  2  1  0
 10  9  1  0
 11 10  2  0
 11  6  1  0
 12  1  1  0
 13 12  1  0
 14 13  2  0
 15 14  1  0
 16 15  2  0
 17 16  1  0
 18 13  1  0
 18 17  2  0
 19 16  1  0
 20 19  1  0
 21 19  1  0
 22 19  1  0
  5 23  1  0
  5 24  1  0
  5 25  1  0
  7 26  1  0
  8 27  1  0
 10 28  1  0
 11 29  1  0
 12 30  1  0
 12 31  1  0
 14 32  1  0
 15 33  1  0
 17 34  1  0
 18 35  1  0
 20 36  1  0
 20 37  1  0
 20 38  1  0
 21 39  1  0
 21 40  1  0
 21 41  1  0
 22 42  1  0
 22 43  1  0
 22 44  1  0
M  END
>  <score>  (2) 
-9.364

$$$$
=
     RDKit          3D

 44 45  0  0  0  0  0  0  0  0999 V2000
    4.6240   66.7950   63.8610 S   0  0  0  0  0  0  0  0  0  0  0  0
    5.1680   68.8020   63.7560 S   0  0  0  0  0  6  0  0  0  0  0  0
    6.5870   68.8670   63.4710 O   0  0  0  0  0  0  0  0  0  0  0  0
    4.2000   69.4750   62.9110 O   0  0  0  0  0  0  0  0  0  0  0  0
    4.3370   70.7680   69.4410 C   0  0  0  0  0  0  0  0  0  0  0  0
    4.5500   70.2570   68.0450 C   0  0  0  0  0  0  0  0  0  0  0  0
    5.8310   70.2690   67.4760 C   0  0  0  0  0  0  0  0  0  0  0  0
    6.0300   69.8210   66.1690 C   0  0  0  0  0  0  0  0  0  0  0  0
    4.9360   69.3770   65.4220 C   0  0  0  0  0  0  0  0  0  0  0  0
    3.6530   69.3590   65.9750 C   0  0  0  0  0  0  0  0  0  0  0  0
    3.4620   69.8090   67.2830 C   0  0  0  0  0  0  0  0  0  0  0  0
    3.0230   66.8350   63.0230 C   0  0  0  0  0  0  0  0  0  0  0  0
    1.9230   67.2850   63.9480 C   0  0  0  0  0  0  0  0  0  0  0  0
    1.0320   68.2910   63.5640 C   0  0  0  0  0  0  0  0  0  0  0  0
    0.0010   68.7010   64.4190 C   0  0  0  0  0  0  0  0  0  0  0  0
   -0.1750   68.1180   65.6840 C   0  0  0  0  0  0  0  0  0  0  0  0
    0.7260   67.1010   66.0530 C   0  0  0  0  0  0  0  0  0  0  0  0
    1.7560   66.6890   65.2010 C   0  0  0  0  0  0  0  0  0  0  0  0
   -1.2970   68.5430   66.6470 C   0  0  0  0  0  0  0  0  0  0  0  0
   -2.5260   69.0100   65.8370 C   0  0  0  0  0  0  0  0  0  0  0  0
   -1.7740   67.4150   67.5880 C   0  0  0  0  0  0  0  0  0  0  0  0
   -0.8060   69.7040   67.5370 C   0  0  0  0  0  0  0  0  0  0  0  0
    4.6559   70.0029   70.1642 H   0  0  0  0  0  0  0  0  0  0  0  0
    4.9285   71.6832   69.5907 H   0  0  0  0  0  0  0  0  0  0  0  0
    3.2705   70.9921   69.5907 H   0  0  0  0  0  0  0  0  0  0  0  0
    6.6860   70.6342   68.0639 H   0  0  0  0  0  0  0  0  0  0  0  0
    7.0391   69.8176   65.7311 H   0  0  0  0  0  0  0  0  0  0  0  0
    2.8000   68.9932   65.3846 H   0  0  0  0  0  0  0  0  0  0  0  0
    2.4517   69.8120   67.7181 H   0  0  0  0  0  0  0  0  0  0  0  0
    3.0822   67.5315   62.1736 H   0  0  0  0  0  0  0  0  0  0  0  0
    2.7888   65.8162   62.6807 H   0  0  0  0  0  0  0  0  0  0  0  0
    1.1417   68.7666   62.5782 H   0  0  0  0  0  0  0  0  0  0  0  0
   -0.6851   69.4964   64.0925 H   0  0  0  0  0  0  0  0  0  0  0  0
    0.6173   66.6185   67.0355 H   0  0  0  0  0  0  0  0  0  0  0  0
    2.4404   65.8891   65.5199 H   0  0  0  0  0  0  0  0  0  0  0  0
   -3.3263   69.3141   66.5276 H   0  0  0  0  0  0  0  0  0  0  0  0
   -2.2445   69.8638   65.2032 H   0  0  0  0  0  0  0  0  0  0  0  0
   -2.8826   68.1847   65.2032 H   0  0  0  0  0  0  0  0  0  0  0  0
   -1.6411   67.7292   68.6338 H   0  0  0  0  0  0  0  0  0  0  0  0
   -2.8375   67.2060   67.4002 H   0  0  0  0  0  0  0  0  0  0  0  0
   -1.1831   66.5064   67.4002 H   0  0  0  0  0  0  0  0  0  0  0  0
   -0.9223   69.4290   68.5957 H   0  0  0  0  0  0  0  0  0  0  0  0
    0.2544   69.9055   67.3249 H   0  0  0  0  0  0  0  0  0  0  0  0
   -1.4000   70.6052   67.3249 H   0  0  0  0  0  0  0  0  0  0  0  0
  2  1  1  0
  3  2  2  0
  4  2  2  0
  6  5  1  0
  7  6  2  0
  8  7  1  0
  9  8  2  0
  9  2  1  0
 10  9  1  0
 11 10  2  0
 11  6  1  0
 12  1  1  0
 13 12  1  0
 14 13  2  0
 15 14  1  0
 16 15  2  0
 17 16  1  0
 18 13  1  0
 18 17  2  0
 19 16  1  0
 20 19  1  0
 21 19  1  0
 22 19  1  0
  5 23  1  0
  5 24  1  0
  5 25  1  0
  7 26  1  0
  8 27  1  0
 10 28  1  0
 11 29  1  0
 12 30  1  0
 12 31  1  0
 14 32  1  0
 15 33  1  0
 17 34  1  0
 18 35  1  0
 20 36  1  0
 20 37  1  0
 20 38  1  0
 21 39  1  0
 21 40  1  0
 21 41  1  0
 22 42  1  0
 22 43  1  0
 22 44  1  0
M  END
>  <score>  (3) 
-8.675

$$$$
=
     RDKit          3D

 44 45  0  0  0  0  0  0  0  0999 V2000
    1.3370   58.0740   74.1470 S   0  0  0  0  0  0  0  0  0  0  0  0
    0.9100   59.5920   75.5070 S   0  0  0  0  0  6  0  0  0  0  0  0
   -0.3580   59.2860   76.1360 O   0  0  0  0  0  0  0  0  0  0  0  0
    2.1060   59.8230   76.2950 O   0  0  0  0  0  0  0  0  0  0  0  0
    0.0590   64.4640   71.9840 C   0  0  0  0  0  0  0  0  0  0  0  0
    0.2880   63.2490   72.8360 C   0  0  0  0  0  0  0  0  0  0  0  0
   -0.4120   62.0620   72.5780 C   0  0  0  0  0  0  0  0  0  0  0  0
   -0.2240   60.9390   73.3860 C   0  0  0  0  0  0  0  0  0  0  0  0
    0.6560   61.0110   74.4680 C   0  0  0  0  0  0  0  0  0  0  0  0
    1.3610   62.1880   74.7380 C   0  0  0  0  0  0  0  0  0  0  0  0
    1.1670   63.3070   73.9270 C   0  0  0  0  0  0  0  0  0  0  0  0
    3.0940   58.3730   73.8480 C   0  0  0  0  0  0  0  0  0  0  0  0
    3.3080   59.5460   72.9270 C   0  0  0  0  0  0  0  0  0  0  0  0
    2.6200   59.6370   71.7140 C   0  0  0  0  0  0  0  0  0  0  0  0
    2.8090   60.7340   70.8630 C   0  0  0  0  0  0  0  0  0  0  0  0
    3.6880   61.7760   71.1970 C   0  0  0  0  0  0  0  0  0  0  0  0
    4.3670   61.6740   72.4260 C   0  0  0  0  0  0  0  0  0  0  0  0
    4.1800   60.5800   73.2790 C   0  0  0  0  0  0  0  0  0  0  0  0
    3.9170   62.9950   70.2870 C   0  0  0  0  0  0  0  0  0  0  0  0
    3.7600   62.5760   68.8100 C   0  0  0  0  0  0  0  0  0  0  0  0
    2.9300   64.1570   70.5390 C   0  0  0  0  0  0  0  0  0  0  0  0
    5.3400   63.5500   70.5100 C   0  0  0  0  0  0  0  0  0  0  0  0
   -0.1059   65.3390   72.6299 H   0  0  0  0  0  0  0  0  0  0  0  0
    0.9402   64.6379   71.3490 H   0  0  0  0  0  0  0  0  0  0  0  0
   -0.8250   64.3052   71.3490 H   0  0  0  0  0  0  0  0  0  0  0  0
   -1.1145   62.0151   71.7328 H   0  0  0  0  0  0  0  0  0  0  0  0
   -0.7646   60.0052   73.1721 H   0  0  0  0  0  0  0  0  0  0  0  0
    2.0634   62.2316   75.5835 H   0  0  0  0  0  0  0  0  0  0  0  0
    1.7069   64.2403   74.1449 H   0  0  0  0  0  0  0  0  0  0  0  0
    3.5897   58.5780   74.8083 H   0  0  0  0  0  0  0  0  0  0  0  0
    3.5188   57.4781   73.3698 H   0  0  0  0  0  0  0  0  0  0  0  0
    1.9218   58.8380   71.4239 H   0  0  0  0  0  0  0  0  0  0  0  0
    2.2567   60.7795   69.9128 H   0  0  0  0  0  0  0  0  0  0  0  0
    5.0615   62.4736   72.7233 H   0  0  0  0  0  0  0  0  0  0  0  0
    4.7237   60.5337   74.2341 H   0  0  0  0  0  0  0  0  0  0  0  0
    3.3744   61.5470   68.7598 H   0  0  0  0  0  0  0  0  0  0  0  0
    3.0558   63.2563   68.3087 H   0  0  0  0  0  0  0  0  0  0  0  0
    4.7379   62.6260   68.3087 H   0  0  0  0  0  0  0  0  0  0  0  0
    2.8053   64.3038   71.6220 H   0  0  0  0  0  0  0  0  0  0  0  0
    3.3256   65.0786   70.0872 H   0  0  0  0  0  0  0  0  0  0  0  0
    1.9565   63.9157   70.0872 H   0  0  0  0  0  0  0  0  0  0  0  0
    5.5384   63.6274   71.5892 H   0  0  0  0  0  0  0  0  0  0  0  0
    6.0742   62.8723   70.0499 H   0  0  0  0  0  0  0  0  0  0  0  0
    5.4215   64.5458   70.0499 H   0  0  0  0  0  0  0  0  0  0  0  0
  2  1  1  0
  3  2  2  0
  4  2  2  0
  6  5  1  0
  7  6  2  0
  8  7  1  0
  9  8  2  0
  9  2  1  0
 10  9  1  0
 11 10  2  0
 11  6  1  0
 12  1  1  0
 13 12  1  0
 14 13  2  0
 15 14  1  0
 16 15  2  0
 17 16  1  0
 18 13  1  0
 18 17  2  0
 19 16  1  0
 20 19  1  0
 21 19  1  0
 22 19  1  0
  5 23  1  0
  5 24  1  0
  5 25  1  0
  7 26  1  0
  8 27  1  0
 10 28  1  0
 11 29  1  0
 12 30  1  0
 12 31  1  0
 14 32  1  0
 15 33  1  0
 17 34  1  0
 18 35  1  0
 20 36  1  0
 20 37  1  0
 20 38  1  0
 21 39  1  0
 21 40  1  0
 21 41  1  0
 22 42  1  0
 22 43  1  0
 22 44  1  0
M  END
>  <score>  (4) 
-8.514

$$$$
=
     RDKit          3D

 44 45  0  0  0  0  0  0  0  0999 V2000
    0.5160   68.0270   68.1200 S   0  0  0  0  0  0  0  0  0  0  0  0
   -0.4530   67.7820   66.2930 S   0  0  0  0  0  6  0  0  0  0  0  0
   -1.0580   66.4660   66.2800 O   0  0  0  0  0  0  0  0  0  0  0  0
   -1.2430   68.9750   66.0540 O   0  0  0  0  0  0  0  0  0  0  0  0
    4.1280   67.6960   62.3100 C   0  0  0  0  0  0  0  0  0  0  0  0
    2.9790   67.7030   63.2770 C   0  0  0  0  0  0  0  0  0  0  0  0
    1.9740   68.6740   63.1730 C   0  0  0  0  0  0  0  0  0  0  0  0
    0.9190   68.7020   64.0870 C   0  0  0  0  0  0  0  0  0  0  0  0
    0.8810   67.7630   65.1210 C   0  0  0  0  0  0  0  0  0  0  0  0
    1.8770   66.7890   65.2370 C   0  0  0  0  0  0  0  0  0  0  0  0
    2.9280   66.7680   64.3200 C   0  0  0  0  0  0  0  0  0  0  0  0
    0.9010   69.7920   68.0640 C   0  0  0  0  0  0  0  0  0  0  0  0
    2.3850   70.0390   68.1300 C   0  0  0  0  0  0  0  0  0  0  0  0
    3.2250   69.6250   67.0920 C   0  0  0  0  0  0  0  0  0  0  0  0
    4.6040   69.8640   67.1460 C   0  0  0  0  0  0  0  0  0  0  0  0
    5.1890   70.5280   68.2370 C   0  0  0  0  0  0  0  0  0  0  0  0
    4.3280   70.9450   69.2710 C   0  0  0  0  0  0  0  0  0  0  0  0
    2.9510   70.7080   69.2190 C   0  0  0  0  0  0  0  0  0  0  0  0
    6.6990   70.8090   68.3280 C   0  0  0  0  0  0  0  0  0  0  0  0
    6.9730   72.2860   67.9730 C   0  0  0  0  0  0  0  0  0  0  0  0
    7.2980   70.5580   69.7300 C   0  0  0  0  0  0  0  0  0  0  0  0
    7.4570   69.8990   67.3380 C   0  0  0  0  0  0  0  0  0  0  0  0
    5.0763   67.6902   62.8674 H   0  0  0  0  0  0  0  0  0  0  0  0
    4.0692   66.7982   61.6772 H   0  0  0  0  0  0  0  0  0  0  0  0
    4.0801   68.5945   61.6772 H   0  0  0  0  0  0  0  0  0  0  0  0
    2.0166   69.4196   62.3654 H   0  0  0  0  0  0  0  0  0  0  0  0
    0.1244   69.4569   63.9939 H   0  0  0  0  0  0  0  0  0  0  0  0
    1.8323   66.0445   66.0455 H   0  0  0  0  0  0  0  0  0  0  0  0
    3.7219   66.0127   64.4161 H   0  0  0  0  0  0  0  0  0  0  0  0
    0.5107   70.2127   67.1256 H   0  0  0  0  0  0  0  0  0  0  0  0
    0.4334   70.2735   68.9355 H   0  0  0  0  0  0  0  0  0  0  0  0
    2.7976   69.1050   66.2220 H   0  0  0  0  0  0  0  0  0  0  0  0
    5.2423   69.5247   66.3168 H   0  0  0  0  0  0  0  0  0  0  0  0
    4.7494   71.4701   70.1409 H   0  0  0  0  0  0  0  0  0  0  0  0
    2.3074   71.0511   70.0424 H   0  0  0  0  0  0  0  0  0  0  0  0
    7.0816   72.8714   68.8980 H   0  0  0  0  0  0  0  0  0  0  0  0
    7.8994   72.3558   67.3840 H   0  0  0  0  0  0  0  0  0  0  0  0
    6.1333   72.6834   67.3840 H   0  0  0  0  0  0  0  0  0  0  0  0
    6.5722   70.8621   70.4986 H   0  0  0  0  0  0  0  0  0  0  0  0
    7.5270   69.4882   69.8447 H   0  0  0  0  0  0  0  0  0  0  0  0
    8.2212   71.1450   69.8447 H   0  0  0  0  0  0  0  0  0  0  0  0
    8.0628   69.1718   67.8985 H   0  0  0  0  0  0  0  0  0  0  0  0
    6.7341   69.3635   66.7050 H   0  0  0  0  0  0  0  0  0  0  0  0
    8.1143   70.5132   66.7050 H   0  0  0  0  0  0  0  0  0  0  0  0
  2  1  1  0
  3  2  2  0
  4  2  2  0
  6  5  1  0
  7  6  2  0
  8  7  1  0
  9  8  2  0
  9  2  1  0
 10  9  1  0
 11 10  2  0
 11  6  1  0
 12  1  1  0
 13 12  1  0
 14 13  2  0
 15 14  1  0
 16 15  2  0
 17 16  1  0
 18 13  1  0
 18 17  2  0
 19 16  1  0
 20 19  1  0
 21 19  1  0
 22 19  1  0
  5 23  1  0
  5 24  1  0
  5 25  1  0
  7 26  1  0
  8 27  1  0
 10 28  1  0
 11 29  1  0
 12 30  1  0
 12 31  1  0
 14 32  1  0
 15 33  1  0
 17 34  1  0
 18 35  1  0
 20 36  1  0
 20 37  1  0
 20 38  1  0
 21 39  1  0
 21 40  1  0
 21 41  1  0
 22 42  1  0
 22 43  1  0
 22 44  1  0
M  END
>  <score>  (5) 
-8.279

$$$$
=
     RDKit          3D

 44 45  0  0  0  0  0  0  0  0999 V2000
    0.6000   60.7670   76.3190 S   0  0  0  0  0  0  0  0  0  0  0  0
   -1.1190   61.0710   75.1840 S   0  0  0  0  0  6  0  0  0  0  0  0
   -1.4640   59.8150   74.5500 O   0  0  0  0  0  0  0  0  0  0  0  0
   -2.0720   61.7810   76.0150 O   0  0  0  0  0  0  0  0  0  0  0  0
    0.7470   64.8790   70.8390 C   0  0  0  0  0  0  0  0  0  0  0  0
    0.3090   63.9230   71.9100 C   0  0  0  0  0  0  0  0  0  0  0  0
   -0.3500   62.7330   71.5680 C   0  0  0  0  0  0  0  0  0  0  0  0
   -0.7840   61.8540   72.5620 C   0  0  0  0  0  0  0  0  0  0  0  0
   -0.5740   62.1770   73.9050 C   0  0  0  0  0  0  0  0  0  0  0  0
    0.0810   63.3590   74.2610 C   0  0  0  0  0  0  0  0  0  0  0  0
    0.5120   64.2340   73.2620 C   0  0  0  0  0  0  0  0  0  0  0  0
    1.4330   59.4980   75.3380 C   0  0  0  0  0  0  0  0  0  0  0  0
    2.0230   60.0710   74.0760 C   0  0  0  0  0  0  0  0  0  0  0  0
    1.7620   59.4850   72.8340 C   0  0  0  0  0  0  0  0  0  0  0  0
    2.3010   60.0230   71.6590 C   0  0  0  0  0  0  0  0  0  0  0  0
    3.1150   61.1670   71.6850 C   0  0  0  0  0  0  0  0  0  0  0  0
    3.3620   61.7510   72.9420 C   0  0  0  0  0  0  0  0  0  0  0  0
    2.8250   61.2150   74.1180 C   0  0  0  0  0  0  0  0  0  0  0  0
    3.7200   61.7870   70.4130 C   0  0  0  0  0  0  0  0  0  0  0  0
    2.6120   61.9910   69.3580 C   0  0  0  0  0  0  0  0  0  0  0  0
    4.3890   63.1600   70.6450 C   0  0  0  0  0  0  0  0  0  0  0  0
    4.8010   60.8450   69.8410 C   0  0  0  0  0  0  0  0  0  0  0  0
    1.1622   65.7853   71.3040 H   0  0  0  0  0  0  0  0  0  0  0  0
    1.5164   64.4021   70.2141 H   0  0  0  0  0  0  0  0  0  0  0  0
   -0.1166   65.1503   70.2141 H   0  0  0  0  0  0  0  0  0  0  0  0
   -0.5260   62.4907   70.5096 H   0  0  0  0  0  0  0  0  0  0  0  0
   -1.2873   60.9145   72.2900 H   0  0  0  0  0  0  0  0  0  0  0  0
    0.2557   63.5982   75.3204 H   0  0  0  0  0  0  0  0  0  0  0  0
    1.0140   65.1733   73.5374 H   0  0  0  0  0  0  0  0  0  0  0  0
    2.2398   59.0541   75.9397 H   0  0  0  0  0  0  0  0  0  0  0  0
    0.6895   58.7380   75.0559 H   0  0  0  0  0  0  0  0  0  0  0  0
    1.1251   58.5898   72.7790 H   0  0  0  0  0  0  0  0  0  0  0  0
    2.0823   59.5395   70.6955 H   0  0  0  0  0  0  0  0  0  0  0  0
    3.9924   62.6505   73.0012 H   0  0  0  0  0  0  0  0  0  0  0  0
    3.0359   61.6981   75.0835 H   0  0  0  0  0  0  0  0  0  0  0  0
    1.6516   62.1678   69.8644 H   0  0  0  0  0  0  0  0  0  0  0  0
    2.8600   62.8586   68.7289 H   0  0  0  0  0  0  0  0  0  0  0  0
    2.5347   61.0920   68.7289 H   0  0  0  0  0  0  0  0  0  0  0  0
    4.4796   63.3459   71.7254 H   0  0  0  0  0  0  0  0  0  0  0  0
    5.3893   63.1625   70.1874 H   0  0  0  0  0  0  0  0  0  0  0  0
    3.7745   63.9493   70.1874 H   0  0  0  0  0  0  0  0  0  0  0  0
    5.3475   60.3688   70.6684 H   0  0  0  0  0  0  0  0  0  0  0  0
    4.3228   60.0704   69.2235 H   0  0  0  0  0  0  0  0  0  0  0  0
    5.5030   61.4246   69.2235 H   0  0  0  0  0  0  0  0  0  0  0  0
  2  1  1  0
  3  2  2  0
  4  2  2  0
  6  5  1  0
  7  6  2  0
  8  7  1  0
  9  8  2  0
  9  2  1  0
 10  9  1  0
 11 10  2  0
 11  6  1  0
 12  1  1  0
 13 12  1  0
 14 13  2  0
 15 14  1  0
 16 15  2  0
 17 16  1  0
 18 13  1  0
 18 17  2  0
 19 16  1  0
 20 19  1  0
 21 19  1  0
 22 19  1  0
  5 23  1  0
  5 24  1  0
  5 25  1  0
  7 26  1  0
  8 27  1  0
 10 28  1  0
 11 29  1  0
 12 30  1  0
 12 31  1  0
 14 32  1  0
 15 33  1  0
 17 34  1  0
 18 35  1  0
 20 36  1  0
 20 37  1  0
 20 38  1  0
 21 39  1  0
 21 40  1  0
 21 41  1  0
 22 42  1  0
 22 43  1  0
 22 44  1  0
M  END
>  <score>  (6) 
-8.278

$$$$
=
     RDKit          3D

 44 45  0  0  0  0  0  0  0  0999 V2000
    0.2930   58.5190   75.0800 S   0  0  0  0  0  0  0  0  0  0  0  0
    2.3260   58.0950   75.2330 S   0  0  0  0  0  6  0  0  0  0  0  0
    2.8720   58.8980   76.3070 O   0  0  0  0  0  0  0  0  0  0  0  0
    2.4740   56.6520   75.2230 O   0  0  0  0  0  0  0  0  0  0  0  0
    4.6150   60.2740   70.0490 C   0  0  0  0  0  0  0  0  0  0  0  0
    4.0660   59.7130   71.3280 C   0  0  0  0  0  0  0  0  0  0  0  0
    3.0190   58.7810   71.2990 C   0  0  0  0  0  0  0  0  0  0  0  0
    2.4860   58.2780   72.4870 C   0  0  0  0  0  0  0  0  0  0  0  0
    2.9910   58.7240   73.7110 C   0  0  0  0  0  0  0  0  0  0  0  0
    4.0340   59.6530   73.7560 C   0  0  0  0  0  0  0  0  0  0  0  0
    4.5620   60.1520   72.5640 C   0  0  0  0  0  0  0  0  0  0  0  0
    0.2900   60.2890   75.4470 C   0  0  0  0  0  0  0  0  0  0  0  0
    0.7460   61.1020   74.2630 C   0  0  0  0  0  0  0  0  0  0  0  0
    1.7150   62.0990   74.4120 C   0  0  0  0  0  0  0  0  0  0  0  0
    2.1490   62.8470   73.3110 C   0  0  0  0  0  0  0  0  0  0  0  0
    1.6320   62.6220   72.0240 C   0  0  0  0  0  0  0  0  0  0  0  0
    0.6640   61.6090   71.8900 C   0  0  0  0  0  0  0  0  0  0  0  0
    0.2280   60.8600   72.9880 C   0  0  0  0  0  0  0  0  0  0  0  0
    2.0890   63.4230   70.7930 C   0  0  0  0  0  0  0  0  0  0  0  0
    1.2350   64.7030   70.6610 C   0  0  0  0  0  0  0  0  0  0  0  0
    3.5680   63.8660   70.8480 C   0  0  0  0  0  0  0  0  0  0  0  0
    1.9170   62.5650   69.5220 C   0  0  0  0  0  0  0  0  0  0  0  0
    5.3674   61.0428   70.2790 H   0  0  0  0  0  0  0  0  0  0  0  0
    5.0819   59.4670   69.4653 H   0  0  0  0  0  0  0  0  0  0  0  0
    3.7981   60.7234   69.4653 H   0  0  0  0  0  0  0  0  0  0  0  0
    2.6147   58.4438   70.3332 H   0  0  0  0  0  0  0  0  0  0  0  0
    1.6744   57.5360   72.4597 H   0  0  0  0  0  0  0  0  0  0  0  0
    4.4359   59.9885   74.7234 H   0  0  0  0  0  0  0  0  0  0  0  0
    5.3728   60.8948   72.5945 H   0  0  0  0  0  0  0  0  0  0  0  0
   -0.7309   60.5955   75.7185 H   0  0  0  0  0  0  0  0  0  0  0  0
    0.9884   60.4693   76.2775 H   0  0  0  0  0  0  0  0  0  0  0  0
    2.1414   62.2980   75.4063 H   0  0  0  0  0  0  0  0  0  0  0  0
    2.9107   63.6272   73.4565 H   0  0  0  0  0  0  0  0  0  0  0  0
    0.2396   61.4011   70.8967 H   0  0  0  0  0  0  0  0  0  0  0  0
   -0.5287   60.0742   72.8466 H   0  0  0  0  0  0  0  0  0  0  0  0
    0.9831   65.0806   71.6630 H   0  0  0  0  0  0  0  0  0  0  0  0
    1.8040   65.4685   70.1130 H   0  0  0  0  0  0  0  0  0  0  0  0
    0.3097   64.4716   70.1130 H   0  0  0  0  0  0  0  0  0  0  0  0
    3.8837   63.9605   71.8975 H   0  0  0  0  0  0  0  0  0  0  0  0
    4.1944   63.1161   70.3428 H   0  0  0  0  0  0  0  0  0  0  0  0
    3.6790   64.8368   70.3428 H   0  0  0  0  0  0  0  0  0  0  0  0
    1.7082   61.5236   69.8081 H   0  0  0  0  0  0  0  0  0  0  0  0
    1.0795   62.9564   68.9259 H   0  0  0  0  0  0  0  0  0  0  0  0
    2.8407   62.6034   68.9259 H   0  0  0  0  0  0  0  0  0  0  0  0
  2  1  1  0
  3  2  2  0
  4  2  2  0
  6  5  1  0
  7  6  2  0
  8  7  1  0
  9  8  2  0
  9  2  1  0
 10  9  1  0
 11 10  2  0
 11  6  1  0
 12  1  1  0
 13 12  1  0
 14 13  2  0
 15 14  1  0
 16 15  2  0
 17 16  1  0
 18 13  1  0
 18 17  2  0
 19 16  1  0
 20 19  1  0
 21 19  1  0
 22 19  1  0
  5 23  1  0
  5 24  1  0
  5 25  1  0
  7 26  1  0
  8 27  1  0
 10 28  1  0
 11 29  1  0
 12 30  1  0
 12 31  1  0
 14 32  1  0
 15 33  1  0
 17 34  1  0
 18 35  1  0
 20 36  1  0
 20 37  1  0
 20 38  1  0
 21 39  1  0
 21 40  1  0
 21 41  1  0
 22 42  1  0
 22 43  1  0
 22 44  1  0
M  END
>  <score>  (7) 
-8.141

$$$$
=
     RDKit          3D

 44 45  0  0  0  0  0  0  0  0999 V2000
    3.8710   59.5070   72.7430 S   0  0  0  0  0  0  0  0  0  0  0  0
    4.4640   60.2300   70.8820 S   0  0  0  0  0  6  0  0  0  0  0  0
    5.8650   60.5860   70.9660 O   0  0  0  0  0  0  0  0  0  0  0  0
    3.9840   59.3000   69.8770 O   0  0  0  0  0  0  0  0  0  0  0  0
    1.2840   65.3700   70.3070 C   0  0  0  0  0  0  0  0  0  0  0  0
    2.0710   64.1030   70.4770 C   0  0  0  0  0  0  0  0  0  0  0  0
    3.4690   64.1460   70.5700 C   0  0  0  0  0  0  0  0  0  0  0  0
    4.2070   62.9680   70.7000 C   0  0  0  0  0  0  0  0  0  0  0  0
    3.5430   61.7400   70.7170 C   0  0  0  0  0  0  0  0  0  0  0  0
    2.1490   61.6800   70.6250 C   0  0  0  0  0  0  0  0  0  0  0  0
    1.4180   62.8620   70.4950 C   0  0  0  0  0  0  0  0  0  0  0  0
    2.5310   58.3940   72.2610 C   0  0  0  0  0  0  0  0  0  0  0  0
    1.2410   58.7460   72.9550 C   0  0  0  0  0  0  0  0  0  0  0  0
    0.5250   57.7780   73.6650 C   0  0  0  0  0  0  0  0  0  0  0  0
   -0.6680   58.1060   74.3220 C   0  0  0  0  0  0  0  0  0  0  0  0
   -1.1830   59.4120   74.2930 C   0  0  0  0  0  0  0  0  0  0  0  0
   -0.4460   60.3770   73.5800 C   0  0  0  0  0  0  0  0  0  0  0  0
    0.7460   60.0520   72.9240 C   0  0  0  0  0  0  0  0  0  0  0  0
   -2.4890   59.8070   75.0040 C   0  0  0  0  0  0  0  0  0  0  0  0
   -3.2070   60.9090   74.1960 C   0  0  0  0  0  0  0  0  0  0  0  0
   -3.4880   58.6400   75.1700 C   0  0  0  0  0  0  0  0  0  0  0  0
   -2.1700   60.3390   76.4170 C   0  0  0  0  0  0  0  0  0  0  0  0
    1.0298   65.7792   71.2959 H   0  0  0  0  0  0  0  0  0  0  0  0
    1.8857   66.1035   69.7503 H   0  0  0  0  0  0  0  0  0  0  0  0
    0.3598   65.1557   69.7503 H   0  0  0  0  0  0  0  0  0  0  0  0
    3.9885   65.1151   70.5403 H   0  0  0  0  0  0  0  0  0  0  0  0
    5.3028   63.0071   70.7883 H   0  0  0  0  0  0  0  0  0  0  0  0
    1.6326   60.7092   70.6548 H   0  0  0  0  0  0  0  0  0  0  0  0
    0.3224   62.8198   70.4061 H   0  0  0  0  0  0  0  0  0  0  0  0
    2.3821   58.4646   71.1734 H   0  0  0  0  0  0  0  0  0  0  0  0
    2.8111   57.3713   72.5536 H   0  0  0  0  0  0  0  0  0  0  0  0
    0.9030   56.7459   73.7084 H   0  0  0  0  0  0  0  0  0  0  0  0
   -1.2126   57.3243   74.8720 H   0  0  0  0  0  0  0  0  0  0  0  0
   -0.8167   61.4118   73.5378 H   0  0  0  0  0  0  0  0  0  0  0  0
    1.2984   60.8316   72.3790 H   0  0  0  0  0  0  0  0  0  0  0  0
   -3.6739   61.6256   74.8877 H   0  0  0  0  0  0  0  0  0  0  0  0
   -2.4769   61.4336   73.5622 H   0  0  0  0  0  0  0  0  0  0  0  0
   -3.9819   60.4531   73.5622 H   0  0  0  0  0  0  0  0  0  0  0  0
   -3.6526   58.4477   76.2405 H   0  0  0  0  0  0  0  0  0  0  0  0
   -4.4436   58.9048   74.6938 H   0  0  0  0  0  0  0  0  0  0  0  0
   -3.0790   57.7367   74.6938 H   0  0  0  0  0  0  0  0  0  0  0  0
   -2.5826   59.6510   77.1696 H   0  0  0  0  0  0  0  0  0  0  0  0
   -1.0797   60.4107   76.5443 H   0  0  0  0  0  0  0  0  0  0  0  0
   -2.6203   61.3345   76.5443 H   0  0  0  0  0  0  0  0  0  0  0  0
  2  1  1  0
  3  2  2  0
  4  2  2  0
  6  5  1  0
  7  6  2  0
  8  7  1  0
  9  8  2  0
  9  2  1  0
 10  9  1  0
 11 10  2  0
 11  6  1  0
 12  1  1  0
 13 12  1  0
 14 13  2  0
 15 14  1  0
 16 15  2  0
 17 16  1  0
 18 13  1  0
 18 17  2  0
 19 16  1  0
 20 19  1  0
 21 19  1  0
 22 19  1  0
  5 23  1  0
  5 24  1  0
  5 25  1  0
  7 26  1  0
  8 27  1  0
 10 28  1  0
 11 29  1  0
 12 30  1  0
 12 31  1  0
 14 32  1  0
 15 33  1  0
 17 34  1  0
 18 35  1  0
 20 36  1  0
 20 37  1  0
 20 38  1  0
 21 39  1  0
 21 40  1  0
 21 41  1  0
 22 42  1  0
 22 43  1  0
 22 44  1  0
M  END
>  <score>  (8) 
-8.019

$$$$
=
     RDKit          3D

 44 45  0  0  0  0  0  0  0  0999 V2000
    4.8810   62.0130   71.7600 S   0  0  0  0  0  0  0  0  0  0  0  0
    3.0310   62.6100   71.0130 S   0  0  0  0  0  6  0  0  0  0  0  0
    3.0260   64.0570   70.9350 O   0  0  0  0  0  0  0  0  0  0  0  0
    2.7440   61.7930   69.8490 O   0  0  0  0  0  0  0  0  0  0  0  0
   -0.8580   61.0070   75.3910 C   0  0  0  0  0  0  0  0  0  0  0  0
    0.1220   61.3850   74.3180 C   0  0  0  0  0  0  0  0  0  0  0  0
    1.1580   62.2880   74.5920 C   0  0  0  0  0  0  0  0  0  0  0  0
    2.0540   62.6630   73.5900 C   0  0  0  0  0  0  0  0  0  0  0  0
    1.9000   62.1450   72.3020 C   0  0  0  0  0  0  0  0  0  0  0  0
    0.8720   61.2440   72.0130 C   0  0  0  0  0  0  0  0  0  0  0  0
   -0.0200   60.8740   73.0200 C   0  0  0  0  0  0  0  0  0  0  0  0
    4.9290   60.2930   71.2050 C   0  0  0  0  0  0  0  0  0  0  0  0
    3.9720   59.4310   71.9870 C   0  0  0  0  0  0  0  0  0  0  0  0
    3.1540   58.5020   71.3380 C   0  0  0  0  0  0  0  0  0  0  0  0
    2.2730   57.6910   72.0640 C   0  0  0  0  0  0  0  0  0  0  0  0
    2.1820   57.7800   73.4630 C   0  0  0  0  0  0  0  0  0  0  0  0
    3.0180   58.7160   74.1020 C   0  0  0  0  0  0  0  0  0  0  0  0
    3.9000   59.5260   73.3790 C   0  0  0  0  0  0  0  0  0  0  0  0
    1.2260   56.9040   74.2920 C   0  0  0  0  0  0  0  0  0  0  0  0
   -0.2350   57.2930   73.9800 C   0  0  0  0  0  0  0  0  0  0  0  0
    1.3660   55.3910   74.0120 C   0  0  0  0  0  0  0  0  0  0  0  0
    1.5000   57.1170   75.7960 C   0  0  0  0  0  0  0  0  0  0  0  0
   -0.4059   61.1814   76.3785 H   0  0  0  0  0  0  0  0  0  0  0  0
   -1.7663   61.6193   75.2903 H   0  0  0  0  0  0  0  0  0  0  0  0
   -1.1198   59.9434   75.2903 H   0  0  0  0  0  0  0  0  0  0  0  0
    1.2658   62.7043   75.6045 H   0  0  0  0  0  0  0  0  0  0  0  0
    2.8747   63.3607   73.8127 H   0  0  0  0  0  0  0  0  0  0  0  0
    0.7667   60.8296   70.9995 H   0  0  0  0  0  0  0  0  0  0  0  0
   -0.8402   60.1767   72.7941 H   0  0  0  0  0  0  0  0  0  0  0  0
    4.6562   60.2538   70.1401 H   0  0  0  0  0  0  0  0  0  0  0  0
    5.9472   59.9084   71.3641 H   0  0  0  0  0  0  0  0  0  0  0  0
    3.2029   58.4067   70.2432 H   0  0  0  0  0  0  0  0  0  0  0  0
    1.6392   56.9694   71.5278 H   0  0  0  0  0  0  0  0  0  0  0  0
    2.9764   58.8125   75.1970 H   0  0  0  0  0  0  0  0  0  0  0  0
    4.5421   60.2436   73.9108 H   0  0  0  0  0  0  0  0  0  0  0  0
   -0.7846   57.4393   74.9216 H   0  0  0  0  0  0  0  0  0  0  0  0
   -0.2497   58.2263   73.3980 H   0  0  0  0  0  0  0  0  0  0  0  0
   -0.7118   56.4905   73.3980 H   0  0  0  0  0  0  0  0  0  0  0  0
    1.4165   54.8448   74.9655 H   0  0  0  0  0  0  0  0  0  0  0  0
    0.4962   55.0428   73.4356 H   0  0  0  0  0  0  0  0  0  0  0  0
    2.2849   55.2083   73.4356 H   0  0  0  0  0  0  0  0  0  0  0  0
    0.7673   56.5474   76.3865 H   0  0  0  0  0  0  0  0  0  0  0  0
    2.5152   56.7686   76.0367 H   0  0  0  0  0  0  0  0  0  0  0  0
    1.4128   58.1868   76.0367 H   0  0  0  0  0  0  0  0  0  0  0  0
  2  1  1  0
  3  2  2  0
  4  2  2  0
  6  5  1  0
  7  6  2  0
  8  7  1  0
  9  8  2  0
  9  2  1  0
 10  9  1  0
 11 10  2  0
 11  6  1  0
 12  1  1  0
 13 12  1  0
 14 13  2  0
 15 14  1  0
 16 15  2  0
 17 16  1  0
 18 13  1  0
 18 17  2  0
 19 16  1  0
 20 19  1  0
 21 19  1  0
 22 19  1  0
  5 23  1  0
  5 24  1  0
  5 25  1  0
  7 26  1  0
  8 27  1  0
 10 28  1  0
 11 29  1  0
 12 30  1  0
 12 31  1  0
 14 32  1  0
 15 33  1  0
 17 34  1  0
 18 35  1  0
 20 36  1  0
 20 37  1  0
 20 38  1  0
 21 39  1  0
 21 40  1  0
 21 41  1  0
 22 42  1  0
 22 43  1  0
 22 44  1  0
M  END
>  <score>  (9) 
-7.949

$$$$
