=
     RDKit          3D

 44 45  0  0  0  0  0  0  0  0999 V2000
    2.0770   68.6730   63.2000 C   0  0  0  0  0  0  0  0  0  0  0  0
    0.8950   68.7140   62.4720 C   0  0  0  0  0  0  0  0  0  0  0  0
   -0.3320   68.8190   63.0290 N   0  0  0  0  0  0  0  0  0  0  0  0
   -0.3740   68.8510   64.3760 C   0  0  0  0  0  0  0  0  0  0  0  0
    0.7520   68.7940   65.1820 C   0  0  0  0  0  0  0  0  0  0  0  0
    2.0270   68.7190   64.5970 C   0  0  0  0  0  0  0  0  0  0  0  0
    3.5660   68.5540   62.2820 S   0  0  0  0  0  6  0  0  0  0  0  0
    4.6260   69.1050   63.1030 O   0  0  0  0  0  0  0  0  0  0  0  0
    3.3520   69.0420   60.9360 O   0  0  0  0  0  0  0  0  0  0  0  0
    4.4860   64.8490   62.9510 N   0  0  0  0  0  0  0  0  0  0  0  0
    4.3400   66.1660   63.2730 C   0  0  0  0  0  0  0  0  0  0  0  0
    4.6130   66.6420   64.3610 O   0  0  0  0  0  0  0  0  0  0  0  0
    3.8780   66.9220   62.2090 N   0  0  0  0  0  0  0  0  0  0  0  0
    4.0670   63.4990   64.9430 C   0  0  0  0  0  0  0  0  0  0  0  0
    5.0810   63.8950   63.8760 C   0  0  0  0  0  0  0  0  0  0  0  0
    5.5870   62.6650   63.1250 C   0  0  0  0  0  0  0  0  0  0  0  0
    3.1670   68.5890   65.4270 N   0  0  0  0  0  0  0  0  0  0  0  0
    3.4180   69.2660   66.6480 C   0  0  0  0  0  0  0  0  0  0  0  0
    2.4170   69.4950   67.5980 C   0  0  0  0  0  0  0  0  0  0  0  0
    2.6920   70.2250   68.7550 C   0  0  0  0  0  0  0  0  0  0  0  0
    3.9670   70.7500   68.9660 C   0  0  0  0  0  0  0  0  0  0  0  0
    4.9770   70.5500   68.0190 C   0  0  0  0  0  0  0  0  0  0  0  0
    4.6840   69.8280   66.8530 C   0  0  0  0  0  0  0  0  0  0  0  0
    6.3350   71.1560   68.2130 C   0  0  0  0  0  0  0  0  0  0  0  0
    0.9614   68.6576   61.3755 H   0  0  0  0  0  0  0  0  0  0  0  0
   -1.3575   68.9266   64.8629 H   0  0  0  0  0  0  0  0  0  0  0  0
    0.6476   68.8075   66.2770 H   0  0  0  0  0  0  0  0  0  0  0  0
    4.1667   64.5203   62.0285 H   0  0  0  0  0  0  0  0  0  0  0  0
    3.7168   66.4416   61.3123 H   0  0  0  0  0  0  0  0  0  0  0  0
    4.4993   63.6678   65.9403 H   0  0  0  0  0  0  0  0  0  0  0  0
    3.1583   64.1083   64.8293 H   0  0  0  0  0  0  0  0  0  0  0  0
    3.8117   62.4351   64.8293 H   0  0  0  0  0  0  0  0  0  0  0  0
    5.9412   64.3697   64.3706 H   0  0  0  0  0  0  0  0  0  0  0  0
    5.9025   61.8982   63.8478 H   0  0  0  0  0  0  0  0  0  0  0  0
    4.7809   62.2638   62.4932 H   0  0  0  0  0  0  0  0  0  0  0  0
    6.4421   62.9472   62.4932 H   0  0  0  0  0  0  0  0  0  0  0  0
    3.8931   67.9311   65.1095 H   0  0  0  0  0  0  0  0  0  0  0  0
    1.4053   69.0965   67.4317 H   0  0  0  0  0  0  0  0  0  0  0  0
    1.9014   70.3868   69.5025 H   0  0  0  0  0  0  0  0  0  0  0  0
    4.1790   71.3234   69.8805 H   0  0  0  0  0  0  0  0  0  0  0  0
    5.4623   69.7010   66.0861 H   0  0  0  0  0  0  0  0  0  0  0  0
    6.5445   71.2495   69.2888 H   0  0  0  0  0  0  0  0  0  0  0  0
    7.0943   70.5113   67.7462 H   0  0  0  0  0  0  0  0  0  0  0  0
    6.3623   72.1517   67.7462 H   0  0  0  0  0  0  0  0  0  0  0  0
  2  1  2  0
  3  2  1  0
  4  3  2  0
  5  4  1  0
  6  5  2  0
  6  1  1  0
  7  1  1  0
  8  7  2  0
  9  7  2  0
 11 10  1  0
 12 11  2  0
 13 11  1  0
 13  7  1  0
 15 14  1  0
 15 10  1  0
 16 15  1  0
 17  6  1  0
 18 17  1  0
 19 18  2  0
 20 19  1  0
 21 20  2  0
 22 21  1  0
 23 22  2  0
 23 18  1  0
 24 22  1  0
  2 25  1  0
  4 26  1  0
  5 27  1  0
 10 28  1  0
 13 29  1  0
 14 30  1  0
 14 31  1  0
 14 32  1  0
 15 33  1  0
 16 34  1  0
 16 35  1  0
 16 36  1  0
 17 37  1  0
 19 38  1  0
 20 39  1  0
 21 40  1  0
 23 41  1  0
 24 42  1  0
 24 43  1  0
 24 44  1  0
M  END
>  <score>  (1) 
-10.691

$$$$
=
     RDKit          3D

 44 45  0  0  0  0  0  0  0  0999 V2000
    4.3130   69.4180   65.4560 C   0  0  0  0  0  0  0  0  0  0  0  0
    5.4150   69.9620   66.1030 C   0  0  0  0  0  0  0  0  0  0  0  0
    5.4290   70.3080   67.4090 N   0  0  0  0  0  0  0  0  0  0  0  0
    4.2760   70.1300   68.0860 C   0  0  0  0  0  0  0  0  0  0  0  0
    3.1220   69.6150   67.5150 C   0  0  0  0  0  0  0  0  0  0  0  0
    3.1230   69.2260   66.1660 C   0  0  0  0  0  0  0  0  0  0  0  0
    4.5100   69.0220   63.7580 S   0  0  0  0  0  6  0  0  0  0  0  0
    5.6200   69.8080   63.2570 O   0  0  0  0  0  0  0  0  0  0  0  0
    3.2250   69.0610   63.0940 O   0  0  0  0  0  0  0  0  0  0  0  0
    4.9420   65.1710   63.8060 N   0  0  0  0  0  0  0  0  0  0  0  0
    4.2390   66.3390   63.8520 C   0  0  0  0  0  0  0  0  0  0  0  0
    3.0300   66.4090   63.9910 O   0  0  0  0  0  0  0  0  0  0  0  0
    5.0580   67.4510   63.7620 N   0  0  0  0  0  0  0  0  0  0  0  0
    5.2040   62.7600   63.5130 C   0  0  0  0  0  0  0  0  0  0  0  0
    4.3000   63.8810   64.0140 C   0  0  0  0  0  0  0  0  0  0  0  0
    3.9580   63.6840   65.4890 C   0  0  0  0  0  0  0  0  0  0  0  0
    1.9210   68.7670   65.5720 N   0  0  0  0  0  0  0  0  0  0  0  0
    0.7400   68.3580   66.2410 C   0  0  0  0  0  0  0  0  0  0  0  0
    0.7580   67.4630   67.3160 C   0  0  0  0  0  0  0  0  0  0  0  0
   -0.4340   67.0340   67.9020 C   0  0  0  0  0  0  0  0  0  0  0  0
   -1.6580   67.4810   67.4060 C   0  0  0  0  0  0  0  0  0  0  0  0
   -1.7000   68.3590   66.3180 C   0  0  0  0  0  0  0  0  0  0  0  0
   -0.4960   68.7710   65.7280 C   0  0  0  0  0  0  0  0  0  0  0  0
   -3.0140   68.8030   65.7450 C   0  0  0  0  0  0  0  0  0  0  0  0
    6.3320   70.1208   65.5166 H   0  0  0  0  0  0  0  0  0  0  0  0
    4.2497   70.4087   69.1498 H   0  0  0  0  0  0  0  0  0  0  0  0
    2.2077   69.5115   68.1178 H   0  0  0  0  0  0  0  0  0  0  0  0
    5.9544   65.2025   63.6191 H   0  0  0  0  0  0  0  0  0  0  0  0
    6.0739   67.2958   63.6929 H   0  0  0  0  0  0  0  0  0  0  0  0
    5.6353   62.2252   64.3720 H   0  0  0  0  0  0  0  0  0  0  0  0
    4.6153   62.0593   62.9028 H   0  0  0  0  0  0  0  0  0  0  0  0
    6.0136   63.1869   62.9028 H   0  0  0  0  0  0  0  0  0  0  0  0
    3.3615   63.8557   63.4409 H   0  0  0  0  0  0  0  0  0  0  0  0
    4.7440   64.1368   66.1113 H   0  0  0  0  0  0  0  0  0  0  0  0
    2.9935   64.1649   65.7092 H   0  0  0  0  0  0  0  0  0  0  0  0
    3.8901   62.6084   65.7092 H   0  0  0  0  0  0  0  0  0  0  0  0
    1.9036   68.7261   64.5430 H   0  0  0  0  0  0  0  0  0  0  0  0
    1.7195   67.0943   67.7027 H   0  0  0  0  0  0  0  0  0  0  0  0
   -0.4077   66.3420   68.7567 H   0  0  0  0  0  0  0  0  0  0  0  0
   -2.5947   67.1417   67.8724 H   0  0  0  0  0  0  0  0  0  0  0  0
   -0.5230   69.4297   64.8474 H   0  0  0  0  0  0  0  0  0  0  0  0
   -3.7102   69.0382   66.5635 H   0  0  0  0  0  0  0  0  0  0  0  0
   -2.8600   69.6990   65.1257 H   0  0  0  0  0  0  0  0  0  0  0  0
   -3.4350   67.9972   65.1257 H   0  0  0  0  0  0  0  0  0  0  0  0
  2  1  2  0
  3  2  1  0
  4  3  2  0
  5  4  1  0
  6  5  2  0
  6  1  1  0
  7  1  1  0
  8  7  2  0
  9  7  2  0
 11 10  1  0
 12 11  2  0
 13 11  1  0
 13  7  1  0
 15 14  1  0
 15 10  1  0
 16 15  1  0
 17  6  1  0
 18 17  1  0
 19 18  2  0
 20 19  1  0
 21 20  2  0
 22 21  1  0
 23 22  2  0
 23 18  1  0
 24 22  1  0
  2 25  1  0
  4 26  1  0
  5 27  1  0
 10 28  1  0
 13 29  1  0
 14 30  1  0
 14 31  1  0
 14 32  1  0
 15 33  1  0
 16 34  1  0
 16 35  1  0
 16 36  1  0
 17 37  1  0
 19 38  1  0
 20 39  1  0
 21 40  1  0
 23 41  1  0
 24 42  1  0
 24 43  1  0
 24 44  1  0
M  END
>  <score>  (2) 
-10.123

$$$$
=
     RDKit          3D

 44 45  0  0  0  0  0  0  0  0999 V2000
    3.7220   67.1510   64.1370 C   0  0  0  0  0  0  0  0  0  0  0  0
    4.4310   66.5610   63.0990 C   0  0  0  0  0  0  0  0  0  0  0  0
    5.3850   67.1930   62.3800 N   0  0  0  0  0  0  0  0  0  0  0  0
    5.6140   68.4840   62.6970 C   0  0  0  0  0  0  0  0  0  0  0  0
    4.9390   69.1590   63.7030 C   0  0  0  0  0  0  0  0  0  0  0  0
    3.9730   68.4870   64.4690 C   0  0  0  0  0  0  0  0  0  0  0  0
    2.5380   66.1490   64.9540 S   0  0  0  0  0  6  0  0  0  0  0  0
    2.8460   66.1830   66.3700 O   0  0  0  0  0  0  0  0  0  0  0  0
    2.4060   64.8840   64.2620 O   0  0  0  0  0  0  0  0  0  0  0  0
   -0.7710   68.1010   65.4610 N   0  0  0  0  0  0  0  0  0  0  0  0
    0.3350   67.4130   65.8660 C   0  0  0  0  0  0  0  0  0  0  0  0
    0.6040   67.1650   67.0280 O   0  0  0  0  0  0  0  0  0  0  0  0
    1.1100   66.9870   64.8010 N   0  0  0  0  0  0  0  0  0  0  0  0
   -1.3290   69.7730   67.1530 C   0  0  0  0  0  0  0  0  0  0  0  0
   -1.7950   68.5290   66.4050 C   0  0  0  0  0  0  0  0  0  0  0  0
   -3.1140   68.7930   65.6810 C   0  0  0  0  0  0  0  0  0  0  0  0
    3.2380   69.2020   65.4460 N   0  0  0  0  0  0  0  0  0  0  0  0
    3.6900   69.6100   66.7260 C   0  0  0  0  0  0  0  0  0  0  0  0
    2.8240   69.7780   67.8120 C   0  0  0  0  0  0  0  0  0  0  0  0
    3.3020   70.2450   69.0360 C   0  0  0  0  0  0  0  0  0  0  0  0
    4.6510   70.5690   69.1830 C   0  0  0  0  0  0  0  0  0  0  0  0
    5.5320   70.4300   68.1050 C   0  0  0  0  0  0  0  0  0  0  0  0
    5.0350   69.9730   66.8750 C   0  0  0  0  0  0  0  0  0  0  0  0
    6.9710   70.8260   68.2410 C   0  0  0  0  0  0  0  0  0  0  0  0
    4.2021   65.5151   62.8465 H   0  0  0  0  0  0  0  0  0  0  0  0
    6.3783   69.0316   62.1261 H   0  0  0  0  0  0  0  0  0  0  0  0
    5.1599   70.2184   63.9004 H   0  0  0  0  0  0  0  0  0  0  0  0
   -0.8852   68.3237   64.4619 H   0  0  0  0  0  0  0  0  0  0  0  0
    0.7798   67.2037   63.8497 H   0  0  0  0  0  0  0  0  0  0  0  0
   -1.3954   69.5957   68.2366 H   0  0  0  0  0  0  0  0  0  0  0  0
   -0.2866   69.9954   66.8811 H   0  0  0  0  0  0  0  0  0  0  0  0
   -1.9687   70.6255   66.8811 H   0  0  0  0  0  0  0  0  0  0  0  0
   -1.9629   67.7242   67.1358 H   0  0  0  0  0  0  0  0  0  0  0  0
   -3.9125   68.9528   66.4204 H   0  0  0  0  0  0  0  0  0  0  0  0
   -3.0133   69.6888   65.0506 H   0  0  0  0  0  0  0  0  0  0  0  0
   -3.3659   67.9275   65.0506 H   0  0  0  0  0  0  0  0  0  0  0  0
    2.2698   69.4527   65.1996 H   0  0  0  0  0  0  0  0  0  0  0  0
    1.7561   69.5395   67.6993 H   0  0  0  0  0  0  0  0  0  0  0  0
    2.6143   70.3581   69.8870 H   0  0  0  0  0  0  0  0  0  0  0  0
    5.0237   70.9354   70.1509 H   0  0  0  0  0  0  0  0  0  0  0  0
    5.7134   69.8984   66.0123 H   0  0  0  0  0  0  0  0  0  0  0  0
    7.2323   70.8979   69.3071 H   0  0  0  0  0  0  0  0  0  0  0  0
    7.6067   70.0694   67.7579 H   0  0  0  0  0  0  0  0  0  0  0  0
    7.1301   71.8013   67.7579 H   0  0  0  0  0  0  0  0  0  0  0  0
  2  1  2  0
  3  2  1  0
  4  3  2  0
  5  4  1  0
  6  5  2  0
  6  1  1  0
  7  1  1  0
  8  7  2  0
  9  7  2  0
 11 10  1  0
 12 11  2  0
 13 11  1  0
 13  7  1  0
 15 14  1  0
 15 10  1  0
 16 15  1  0
 17  6  1  0
 18 17  1  0
 19 18  2  0
 20 19  1  0
 21 20  2  0
 22 21  1  0
 23 22  2  0
 23 18  1  0
 24 22  1  0
  2 25  1  0
  4 26  1  0
  5 27  1  0
 10 28  1  0
 13 29  1  0
 14 30  1  0
 14 31  1  0
 14 32  1  0
 15 33  1  0
 16 34  1  0
 16 35  1  0
 16 36  1  0
 17 37  1  0
 19 38  1  0
 20 39  1  0
 21 40  1  0
 23 41  1  0
 24 42  1  0
 24 43  1  0
 24 44  1  0
M  END
>  <score>  (3) 
-9.964

$$$$
=
     RDKit          3D

 44 45  0  0  0  0  0  0  0  0999 V2000
    0.0100   67.2510   68.5010 C   0  0  0  0  0  0  0  0  0  0  0  0
   -1.1190   66.5600   68.0820 C   0  0  0  0  0  0  0  0  0  0  0  0
   -1.8750   66.9210   67.0210 N   0  0  0  0  0  0  0  0  0  0  0  0
   -1.4980   68.0430   66.3740 C   0  0  0  0  0  0  0  0  0  0  0  0
   -0.3980   68.8060   66.7360 C   0  0  0  0  0  0  0  0  0  0  0  0
    0.4020   68.4070   67.8190 C   0  0  0  0  0  0  0  0  0  0  0  0
    0.8600   66.6030   69.8920 S   0  0  0  0  0  6  0  0  0  0  0  0
   -0.1390   66.2430   70.8790 O   0  0  0  0  0  0  0  0  0  0  0  0
    1.9580   67.4780   70.2450 O   0  0  0  0  0  0  0  0  0  0  0  0
    2.4600   63.0970   69.4910 N   0  0  0  0  0  0  0  0  0  0  0  0
    2.0490   64.1990   70.1820 C   0  0  0  0  0  0  0  0  0  0  0  0
    2.1880   64.3480   71.3830 O   0  0  0  0  0  0  0  0  0  0  0  0
    1.4850   65.1580   69.3580 N   0  0  0  0  0  0  0  0  0  0  0  0
    3.1630   60.7680   69.2640 C   0  0  0  0  0  0  0  0  0  0  0  0
    3.1980   62.0190   70.1350 C   0  0  0  0  0  0  0  0  0  0  0  0
    4.6370   62.4470   70.4130 C   0  0  0  0  0  0  0  0  0  0  0  0
    1.4810   69.2300   68.2270 N   0  0  0  0  0  0  0  0  0  0  0  0
    2.6980   69.4490   67.5330 C   0  0  0  0  0  0  0  0  0  0  0  0
    2.9050   69.0090   66.2220 C   0  0  0  0  0  0  0  0  0  0  0  0
    4.1420   69.1860   65.6010 C   0  0  0  0  0  0  0  0  0  0  0  0
    5.1920   69.7910   66.2910 C   0  0  0  0  0  0  0  0  0  0  0  0
    5.0140   70.2200   67.6110 C   0  0  0  0  0  0  0  0  0  0  0  0
    3.7700   70.0220   68.2290 C   0  0  0  0  0  0  0  0  0  0  0  0
    6.1530   70.8230   68.3770 C   0  0  0  0  0  0  0  0  0  0  0  0
   -1.4163   65.6646   68.6476 H   0  0  0  0  0  0  0  0  0  0  0  0
   -2.0964   68.3710   65.5112 H   0  0  0  0  0  0  0  0  0  0  0  0
   -0.1529   69.7209   66.1766 H   0  0  0  0  0  0  0  0  0  0  0  0
    2.2426   63.0253   68.4868 H   0  0  0  0  0  0  0  0  0  0  0  0
    1.4503   64.9633   68.3472 H   0  0  0  0  0  0  0  0  0  0  0  0
    3.1380   59.8750   69.9058 H   0  0  0  0  0  0  0  0  0  0  0  0
    2.2651   60.7884   68.6289 H   0  0  0  0  0  0  0  0  0  0  0  0
    4.0607   60.7381   68.6289 H   0  0  0  0  0  0  0  0  0  0  0  0
    2.7197   61.7873   71.0981 H   0  0  0  0  0  0  0  0  0  0  0  0
    4.8016   62.4960   71.4995 H   0  0  0  0  0  0  0  0  0  0  0  0
    5.3291   61.7158   69.9699 H   0  0  0  0  0  0  0  0  0  0  0  0
    4.8170   63.4376   69.9699 H   0  0  0  0  0  0  0  0  0  0  0  0
    1.3692   69.7224   69.1248 H   0  0  0  0  0  0  0  0  0  0  0  0
    2.0857   68.5191   65.6755 H   0  0  0  0  0  0  0  0  0  0  0  0
    4.2892   68.8475   64.5648 H   0  0  0  0  0  0  0  0  0  0  0  0
    6.1641   69.9316   65.7957 H   0  0  0  0  0  0  0  0  0  0  0  0
    3.6342   70.3220   69.2785 H   0  0  0  0  0  0  0  0  0  0  0  0
    5.9633   70.7225   69.4558 H   0  0  0  0  0  0  0  0  0  0  0  0
    7.0859   70.3007   68.1186 H   0  0  0  0  0  0  0  0  0  0  0  0
    6.2455   71.8882   68.1186 H   0  0  0  0  0  0  0  0  0  0  0  0
  2  1  2  0
  3  2  1  0
  4  3  2  0
  5  4  1  0
  6  5  2  0
  6  1  1  0
  7  1  1  0
  8  7  2  0
  9  7  2  0
 11 10  1  0
 12 11  2  0
 13 11  1  0
 13  7  1  0
 15 14  1  0
 15 10  1  0
 16 15  1  0
 17  6  1  0
 18 17  1  0
 19 18  2  0
 20 19  1  0
 21 20  2  0
 22 21  1  0
 23 22  2  0
 23 18  1  0
 24 22  1  0
  2 25  1  0
  4 26  1  0
  5 27  1  0
 10 28  1  0
 13 29  1  0
 14 30  1  0
 14 31  1  0
 14 32  1  0
 15 33  1  0
 16 34  1  0
 16 35  1  0
 16 36  1  0
 17 37  1  0
 19 38  1  0
 20 39  1  0
 21 40  1  0
 23 41  1  0
 24 42  1  0
 24 43  1  0
 24 44  1  0
M  END
>  <score>  (4) 
-9.901

$$$$
=
     RDKit          3D

 44 45  0  0  0  0  0  0  0  0999 V2000
    2.3520   63.3610   71.0890 C   0  0  0  0  0  0  0  0  0  0  0  0
    3.3810   63.4620   70.1620 C   0  0  0  0  0  0  0  0  0  0  0  0
    4.5540   62.7980   70.2590 N   0  0  0  0  0  0  0  0  0  0  0  0
    4.7120   62.0240   71.3520 C   0  0  0  0  0  0  0  0  0  0  0  0
    3.7480   61.8810   72.3380 C   0  0  0  0  0  0  0  0  0  0  0  0
    2.5180   62.5470   72.2150 C   0  0  0  0  0  0  0  0  0  0  0  0
    0.9030   64.2950   70.7660 S   0  0  0  0  0  6  0  0  0  0  0  0
    0.4220   64.8000   72.0370 O   0  0  0  0  0  0  0  0  0  0  0  0
    0.0230   63.5460   69.8940 O   0  0  0  0  0  0  0  0  0  0  0  0
    1.3300   67.5650   68.7320 N   0  0  0  0  0  0  0  0  0  0  0  0
    0.6270   66.5460   69.3050 C   0  0  0  0  0  0  0  0  0  0  0  0
   -0.5840   66.4240   69.2400 O   0  0  0  0  0  0  0  0  0  0  0  0
    1.4480   65.6340   69.9450 N   0  0  0  0  0  0  0  0  0  0  0  0
    1.4410   69.8880   67.9840 C   0  0  0  0  0  0  0  0  0  0  0  0
    0.6830   68.5680   67.8970 C   0  0  0  0  0  0  0  0  0  0  0  0
    0.5960   68.0860   66.4510 C   0  0  0  0  0  0  0  0  0  0  0  0
    1.5670   62.4530   73.2610 N   0  0  0  0  0  0  0  0  0  0  0  0
    0.5080   61.5170   73.3700 C   0  0  0  0  0  0  0  0  0  0  0  0
   -0.8350   61.9060   73.4310 C   0  0  0  0  0  0  0  0  0  0  0  0
   -1.8410   60.9560   73.6070 C   0  0  0  0  0  0  0  0  0  0  0  0
   -1.5150   59.6070   73.7410 C   0  0  0  0  0  0  0  0  0  0  0  0
   -0.1780   59.1970   73.7050 C   0  0  0  0  0  0  0  0  0  0  0  0
    0.8260   60.1640   73.5430 C   0  0  0  0  0  0  0  0  0  0  0  0
    0.1850   57.7560   73.9020 C   0  0  0  0  0  0  0  0  0  0  0  0
    3.2322   64.1231   69.2955 H   0  0  0  0  0  0  0  0  0  0  0  0
    5.6585   61.4756   71.4676 H   0  0  0  0  0  0  0  0  0  0  0  0
    3.9463   61.2471   73.2149 H   0  0  0  0  0  0  0  0  0  0  0  0
    2.3453   67.6268   68.8941 H   0  0  0  0  0  0  0  0  0  0  0  0
    2.4646   65.7956   69.9104 H   0  0  0  0  0  0  0  0  0  0  0  0
    1.5938   70.1541   69.0403 H   0  0  0  0  0  0  0  0  0  0  0  0
    2.4169   69.7839   67.4872 H   0  0  0  0  0  0  0  0  0  0  0  0
    0.8592   70.6784   67.4872 H   0  0  0  0  0  0  0  0  0  0  0  0
   -0.3415   68.7284   68.2640 H   0  0  0  0  0  0  0  0  0  0  0  0
    0.4006   67.0036   66.4364 H   0  0  0  0  0  0  0  0  0  0  0  0
   -0.2215   68.6131   65.9374 H   0  0  0  0  0  0  0  0  0  0  0  0
    1.5462   68.2940   65.9374 H   0  0  0  0  0  0  0  0  0  0  0  0
    1.6546   63.1387   74.0246 H   0  0  0  0  0  0  0  0  0  0  0  0
   -1.0994   62.9698   73.3394 H   0  0  0  0  0  0  0  0  0  0  0  0
   -2.8942   61.2718   73.6402 H   0  0  0  0  0  0  0  0  0  0  0  0
   -2.3128   58.8617   73.8756 H   0  0  0  0  0  0  0  0  0  0  0  0
    1.8813   59.8539   73.5520 H   0  0  0  0  0  0  0  0  0  0  0  0
    0.2405   57.5357   74.9783 H   0  0  0  0  0  0  0  0  0  0  0  0
   -0.5805   57.1180   73.4361 H   0  0  0  0  0  0  0  0  0  0  0  0
    1.1614   57.5568   73.4361 H   0  0  0  0  0  0  0  0  0  0  0  0
  2  1  2  0
  3  2  1  0
  4  3  2  0
  5  4  1  0
  6  5  2  0
  6  1  1  0
  7  1  1  0
  8  7  2  0
  9  7  2  0
 11 10  1  0
 12 11  2  0
 13 11  1  0
 13  7  1  0
 15 14  1  0
 15 10  1  0
 16 15  1  0
 17  6  1  0
 18 17  1  0
 19 18  2  0
 20 19  1  0
 21 20  2  0
 22 21  1  0
 23 22  2  0
 23 18  1  0
 24 22  1  0
  2 25  1  0
  4 26  1  0
  5 27  1  0
 10 28  1  0
 13 29  1  0
 14 30  1  0
 14 31  1  0
 14 32  1  0
 15 33  1  0
 16 34  1  0
 16 35  1  0
 16 36  1  0
 17 37  1  0
 19 38  1  0
 20 39  1  0
 21 40  1  0
 23 41  1  0
 24 42  1  0
 24 43  1  0
 24 44  1  0
M  END
>  <score>  (5) 
-8.47

$$$$
=
     RDKit          3D

 44 45  0  0  0  0  0  0  0  0999 V2000
    2.2070   61.2880   71.2360 C   0  0  0  0  0  0  0  0  0  0  0  0
    2.8400   61.4050   70.0060 C   0  0  0  0  0  0  0  0  0  0  0  0
    3.5840   60.4260   69.4440 N   0  0  0  0  0  0  0  0  0  0  0  0
    3.7240   59.2950   70.1640 C   0  0  0  0  0  0  0  0  0  0  0  0
    3.1450   59.1000   71.4090 C   0  0  0  0  0  0  0  0  0  0  0  0
    2.3460   60.1070   71.9730 C   0  0  0  0  0  0  0  0  0  0  0  0
    1.2730   62.6710   71.7780 S   0  0  0  0  0  6  0  0  0  0  0  0
    1.9950   63.2750   72.8800 O   0  0  0  0  0  0  0  0  0  0  0  0
   -0.1170   62.2940   71.9290 O   0  0  0  0  0  0  0  0  0  0  0  0
    1.0920   65.7260   69.4010 N   0  0  0  0  0  0  0  0  0  0  0  0
    0.8190   65.0240   70.5380 C   0  0  0  0  0  0  0  0  0  0  0  0
    0.1220   65.4350   71.4490 O   0  0  0  0  0  0  0  0  0  0  0  0
    1.3920   63.7640   70.5300 N   0  0  0  0  0  0  0  0  0  0  0  0
    1.4770   67.9270   68.4120 C   0  0  0  0  0  0  0  0  0  0  0  0
    0.4850   67.0230   69.1360 C   0  0  0  0  0  0  0  0  0  0  0  0
   -0.7950   66.8590   68.3200 C   0  0  0  0  0  0  0  0  0  0  0  0
    1.8170   59.9300   73.2760 N   0  0  0  0  0  0  0  0  0  0  0  0
    0.6780   59.1670   73.6380 C   0  0  0  0  0  0  0  0  0  0  0  0
   -0.4800   59.7500   74.1630 C   0  0  0  0  0  0  0  0  0  0  0  0
   -1.5520   58.9560   74.5700 C   0  0  0  0  0  0  0  0  0  0  0  0
   -1.4710   57.5670   74.4740 C   0  0  0  0  0  0  0  0  0  0  0  0
   -0.3140   56.9610   73.9720 C   0  0  0  0  0  0  0  0  0  0  0  0
    0.7630   57.7700   73.5800 C   0  0  0  0  0  0  0  0  0  0  0  0
   -0.1990   55.4670   73.9150 C   0  0  0  0  0  0  0  0  0  0  0  0
    2.7296   62.3510   69.4556 H   0  0  0  0  0  0  0  0  0  0  0  0
    4.3313   58.4815   69.7405 H   0  0  0  0  0  0  0  0  0  0  0  0
    3.3114   58.1586   71.9532 H   0  0  0  0  0  0  0  0  0  0  0  0
    1.7451   65.3281   68.7111 H   0  0  0  0  0  0  0  0  0  0  0  0
    1.9277   63.4847   69.6958 H   0  0  0  0  0  0  0  0  0  0  0  0
    2.0795   68.4760   69.1507 H   0  0  0  0  0  0  0  0  0  0  0  0
    2.1385   67.3147   67.7815 H   0  0  0  0  0  0  0  0  0  0  0  0
    0.9286   68.6424   67.7815 H   0  0  0  0  0  0  0  0  0  0  0  0
    0.2197   67.4926   70.0947 H   0  0  0  0  0  0  0  0  0  0  0  0
   -1.6522   66.7492   69.0006 H   0  0  0  0  0  0  0  0  0  0  0  0
   -0.9416   67.7457   67.6858 H   0  0  0  0  0  0  0  0  0  0  0  0
   -0.7134   65.9640   67.6858 H   0  0  0  0  0  0  0  0  0  0  0  0
    2.3133   60.4069   74.0423 H   0  0  0  0  0  0  0  0  0  0  0  0
   -0.5458   60.8441   74.2557 H   0  0  0  0  0  0  0  0  0  0  0  0
   -2.4634   59.4264   74.9676 H   0  0  0  0  0  0  0  0  0  0  0  0
   -2.3201   56.9453   74.7942 H   0  0  0  0  0  0  0  0  0  0  0  0
    1.6901   57.2993   73.2209 H   0  0  0  0  0  0  0  0  0  0  0  0
   -0.1679   55.0624   74.9374 H   0  0  0  0  0  0  0  0  0  0  0  0
   -1.0679   55.0524   73.3829 H   0  0  0  0  0  0  0  0  0  0  0  0
    0.7231   55.1903   73.3829 H   0  0  0  0  0  0  0  0  0  0  0  0
  2  1  2  0
  3  2  1  0
  4  3  2  0
  5  4  1  0
  6  5  2  0
  6  1  1  0
  7  1  1  0
  8  7  2  0
  9  7  2  0
 11 10  1  0
 12 11  2  0
 13 11  1  0
 13  7  1  0
 15 14  1  0
 15 10  1  0
 16 15  1  0
 17  6  1  0
 18 17  1  0
 19 18  2  0
 20 19  1  0
 21 20  2  0
 22 21  1  0
 23 22  2  0
 23 18  1  0
 24 22  1  0
  2 25  1  0
  4 26  1  0
  5 27  1  0
 10 28  1  0
 13 29  1  0
 14 30  1  0
 14 31  1  0
 14 32  1  0
 15 33  1  0
 16 34  1  0
 16 35  1  0
 16 36  1  0
 17 37  1  0
 19 38  1  0
 20 39  1  0
 21 40  1  0
 23 41  1  0
 24 42  1  0
 24 43  1  0
 24 44  1  0
M  END
>  <score>  (6) 
-8.074

$$$$
=
     RDKit          3D

 44 45  0  0  0  0  0  0  0  0999 V2000
    0.3160   61.0130   74.0440 C   0  0  0  0  0  0  0  0  0  0  0  0
   -0.8150   60.2070   74.0440 C   0  0  0  0  0  0  0  0  0  0  0  0
   -0.7820   58.8590   73.9490 N   0  0  0  0  0  0  0  0  0  0  0  0
    0.4390   58.3000   73.8160 C   0  0  0  0  0  0  0  0  0  0  0  0
    1.6180   59.0290   73.7840 C   0  0  0  0  0  0  0  0  0  0  0  0
    1.5800   60.4260   73.9170 C   0  0  0  0  0  0  0  0  0  0  0  0
    0.0540   62.7410   74.1950 S   0  0  0  0  0  6  0  0  0  0  0  0
    1.1510   63.2770   74.9770 O   0  0  0  0  0  0  0  0  0  0  0  0
   -1.3170   62.9950   74.5830 O   0  0  0  0  0  0  0  0  0  0  0  0
    0.4120   64.8760   70.9810 N   0  0  0  0  0  0  0  0  0  0  0  0
    0.1330   64.6580   72.2980 C   0  0  0  0  0  0  0  0  0  0  0  0
   -0.2430   65.5200   73.0730 O   0  0  0  0  0  0  0  0  0  0  0  0
    0.2880   63.3300   72.6580 N   0  0  0  0  0  0  0  0  0  0  0  0
    1.5210   66.7730   69.9140 C   0  0  0  0  0  0  0  0  0  0  0  0
    0.1910   66.1720   70.3540 C   0  0  0  0  0  0  0  0  0  0  0  0
   -0.7640   66.0390   69.1700 C   0  0  0  0  0  0  0  0  0  0  0  0
    2.7820   61.1690   73.8120 N   0  0  0  0  0  0  0  0  0  0  0  0
    3.6140   61.2900   72.6700 C   0  0  0  0  0  0  0  0  0  0  0  0
    4.8860   60.7130   72.6030 C   0  0  0  0  0  0  0  0  0  0  0  0
    5.6980   60.9140   71.4860 C   0  0  0  0  0  0  0  0  0  0  0  0
    5.2540   61.7120   70.4320 C   0  0  0  0  0  0  0  0  0  0  0  0
    3.9940   62.3160   70.4870 C   0  0  0  0  0  0  0  0  0  0  0  0
    3.1930   62.1190   71.6220 C   0  0  0  0  0  0  0  0  0  0  0  0
    3.5310   63.2180   69.3820 C   0  0  0  0  0  0  0  0  0  0  0  0
   -1.7973   60.6952   74.1263 H   0  0  0  0  0  0  0  0  0  0  0  0
    0.5025   57.2054   73.7281 H   0  0  0  0  0  0  0  0  0  0  0  0
    2.5812   58.5137   73.6547 H   0  0  0  0  0  0  0  0  0  0  0  0
    0.7893   64.1031   70.4142 H   0  0  0  0  0  0  0  0  0  0  0  0
    0.5668   62.6626   71.9247 H   0  0  0  0  0  0  0  0  0  0  0  0
    2.1137   67.0408   70.8011 H   0  0  0  0  0  0  0  0  0  0  0  0
    2.0744   66.0375   69.3117 H   0  0  0  0  0  0  0  0  0  0  0  0
    1.3347   67.6744   69.3117 H   0  0  0  0  0  0  0  0  0  0  0  0
   -0.2714   66.8476   71.0887 H   0  0  0  0  0  0  0  0  0  0  0  0
   -1.7898   65.8961   69.5406 H   0  0  0  0  0  0  0  0  0  0  0  0
   -0.7190   66.9521   68.5582 H   0  0  0  0  0  0  0  0  0  0  0  0
   -0.4712   65.1730   68.5582 H   0  0  0  0  0  0  0  0  0  0  0  0
    3.0840   61.6759   74.6562 H   0  0  0  0  0  0  0  0  0  0  0  0
    5.2495   60.0956   73.4376 H   0  0  0  0  0  0  0  0  0  0  0  0
    6.6904   60.4420   71.4368 H   0  0  0  0  0  0  0  0  0  0  0  0
    5.8977   61.8670   69.5536 H   0  0  0  0  0  0  0  0  0  0  0  0
    2.2181   62.6239   71.6901 H   0  0  0  0  0  0  0  0  0  0  0  0
    3.0688   64.1184   69.8130 H   0  0  0  0  0  0  0  0  0  0  0  0
    4.3913   63.5088   68.7613 H   0  0  0  0  0  0  0  0  0  0  0  0
    2.7932   62.6885   68.7613 H   0  0  0  0  0  0  0  0  0  0  0  0
  2  1  2  0
  3  2  1  0
  4  3  2  0
  5  4  1  0
  6  5  2  0
  6  1  1  0
  7  1  1  0
  8  7  2  0
  9  7  2  0
 11 10  1  0
 12 11  2  0
 13 11  1  0
 13  7  1  0
 15 14  1  0
 15 10  1  0
 16 15  1  0
 17  6  1  0
 18 17  1  0
 19 18  2  0
 20 19  1  0
 21 20  2  0
 22 21  1  0
 23 22  2  0
 23 18  1  0
 24 22  1  0
  2 25  1  0
  4 26  1  0
  5 27  1  0
 10 28  1  0
 13 29  1  0
 14 30  1  0
 14 31  1  0
 14 32  1  0
 15 33  1  0
 16 34  1  0
 16 35  1  0
 16 36  1  0
 17 37  1  0
 19 38  1  0
 20 39  1  0
 21 40  1  0
 23 41  1  0
 24 42  1  0
 24 43  1  0
 24 44  1  0
M  END
>  <score>  (7) 
-7.955

$$$$
=
     RDKit          3D

 44 45  0  0  0  0  0  0  0  0999 V2000
    3.8450   61.9700   70.9490 C   0  0  0  0  0  0  0  0  0  0  0  0
    3.9620   62.2210   69.5880 C   0  0  0  0  0  0  0  0  0  0  0  0
    3.2340   63.1470   68.9250 N   0  0  0  0  0  0  0  0  0  0  0  0
    2.3260   63.8270   69.6560 C   0  0  0  0  0  0  0  0  0  0  0  0
    2.1280   63.6270   71.0130 C   0  0  0  0  0  0  0  0  0  0  0  0
    2.9100   62.6870   71.7030 C   0  0  0  0  0  0  0  0  0  0  0  0
    4.8980   60.7370   71.6170 S   0  0  0  0  0  6  0  0  0  0  0  0
    5.1770   61.1050   72.9910 O   0  0  0  0  0  0  0  0  0  0  0  0
    5.9810   60.4660   70.6950 O   0  0  0  0  0  0  0  0  0  0  0  0
    2.4950   57.8760   72.6470 N   0  0  0  0  0  0  0  0  0  0  0  0
    3.2210   59.0150   72.8430 C   0  0  0  0  0  0  0  0  0  0  0  0
    3.2680   59.6280   73.8950 O   0  0  0  0  0  0  0  0  0  0  0  0
    3.9380   59.3830   71.7170 N   0  0  0  0  0  0  0  0  0  0  0  0
    0.2980   57.6330   73.6880 C   0  0  0  0  0  0  0  0  0  0  0  0
    1.7690   57.2340   73.7340 C   0  0  0  0  0  0  0  0  0  0  0  0
    1.9230   55.7170   73.6580 C   0  0  0  0  0  0  0  0  0  0  0  0
    2.6520   62.4370   73.0740 N   0  0  0  0  0  0  0  0  0  0  0  0
    1.4110   62.5680   73.7470 C   0  0  0  0  0  0  0  0  0  0  0  0
    1.2290   63.4410   74.8240 C   0  0  0  0  0  0  0  0  0  0  0  0
    0.0100   63.4880   75.5000 C   0  0  0  0  0  0  0  0  0  0  0  0
   -1.0360   62.6480   75.1190 C   0  0  0  0  0  0  0  0  0  0  0  0
   -0.8690   61.7510   74.0580 C   0  0  0  0  0  0  0  0  0  0  0  0
    0.3670   61.7030   73.3960 C   0  0  0  0  0  0  0  0  0  0  0  0
   -1.9700   60.8080   73.6770 C   0  0  0  0  0  0  0  0  0  0  0  0
    4.6916   61.6302   69.0147 H   0  0  0  0  0  0  0  0  0  0  0  0
    1.7089   64.5818   69.1466 H   0  0  0  0  0  0  0  0  0  0  0  0
    1.3595   64.2037   71.5485 H   0  0  0  0  0  0  0  0  0  0  0  0
    2.4597   57.4596   71.7056 H   0  0  0  0  0  0  0  0  0  0  0  0
    3.8723   58.7778   70.8862 H   0  0  0  0  0  0  0  0  0  0  0  0
   -0.0859   57.7371   74.7136 H   0  0  0  0  0  0  0  0  0  0  0  0
    0.1945   58.5917   73.1586 H   0  0  0  0  0  0  0  0  0  0  0  0
   -0.2757   56.8580   73.1586 H   0  0  0  0  0  0  0  0  0  0  0  0
    2.1923   57.5714   74.6916 H   0  0  0  0  0  0  0  0  0  0  0  0
    1.9652   55.3013   74.6756 H   0  0  0  0  0  0  0  0  0  0  0  0
    1.0638   55.2876   73.1218 H   0  0  0  0  0  0  0  0  0  0  0  0
    2.8509   55.4691   73.1218 H   0  0  0  0  0  0  0  0  0  0  0  0
    3.4526   62.1266   73.6429 H   0  0  0  0  0  0  0  0  0  0  0  0
    2.0540   64.0961   75.1407 H   0  0  0  0  0  0  0  0  0  0  0  0
   -0.1268   64.1896   76.3361 H   0  0  0  0  0  0  0  0  0  0  0  0
   -1.9959   62.6907   75.6545 H   0  0  0  0  0  0  0  0  0  0  0  0
    0.5188   60.9732   72.5871 H   0  0  0  0  0  0  0  0  0  0  0  0
   -2.4396   60.4058   74.5868 H   0  0  0  0  0  0  0  0  0  0  0  0
   -2.7235   61.3452   73.0823 H   0  0  0  0  0  0  0  0  0  0  0  0
   -1.5550   59.9809   73.0823 H   0  0  0  0  0  0  0  0  0  0  0  0
  2  1  2  0
  3  2  1  0
  4  3  2  0
  5  4  1  0
  6  5  2  0
  6  1  1  0
  7  1  1  0
  8  7  2  0
  9  7  2  0
 11 10  1  0
 12 11  2  0
 13 11  1  0
 13  7  1  0
 15 14  1  0
 15 10  1  0
 16 15  1  0
 17  6  1  0
 18 17  1  0
 19 18  2  0
 20 19  1  0
 21 20  2  0
 22 21  1  0
 23 22  2  0
 23 18  1  0
 24 22  1  0
  2 25  1  0
  4 26  1  0
  5 27  1  0
 10 28  1  0
 13 29  1  0
 14 30  1  0
 14 31  1  0
 14 32  1  0
 15 33  1  0
 16 34  1  0
 16 35  1  0
 16 36  1  0
 17 37  1  0
 19 38  1  0
 20 39  1  0
 21 40  1  0
 23 41  1  0
 24 42  1  0
 24 43  1  0
 24 44  1  0
M  END
>  <score>  (8) 
-7.883

$$$$
=
     RDKit          3D

 44 45  0  0  0  0  0  0  0  0999 V2000
    0.6760   58.0530   74.4140 C   0  0  0  0  0  0  0  0  0  0  0  0
   -0.5370   57.3970   74.5750 C   0  0  0  0  0  0  0  0  0  0  0  0
   -0.7190   56.0770   74.3460 N   0  0  0  0  0  0  0  0  0  0  0  0
    0.3580   55.3950   73.9050 C   0  0  0  0  0  0  0  0  0  0  0  0
    1.6010   55.9730   73.6960 C   0  0  0  0  0  0  0  0  0  0  0  0
    1.7920   57.3370   73.9680 C   0  0  0  0  0  0  0  0  0  0  0  0
    0.7010   59.7680   74.7820 S   0  0  0  0  0  6  0  0  0  0  0  0
    1.9640   60.0510   75.4360 O   0  0  0  0  0  0  0  0  0  0  0  0
   -0.5490   60.1530   75.4030 O   0  0  0  0  0  0  0  0  0  0  0  0
    1.1580   62.1880   71.7910 N   0  0  0  0  0  0  0  0  0  0  0  0
    1.1120   61.8450   73.1100 C   0  0  0  0  0  0  0  0  0  0  0  0
    1.2870   62.6250   74.0300 O   0  0  0  0  0  0  0  0  0  0  0  0
    0.8050   60.5080   73.2970 N   0  0  0  0  0  0  0  0  0  0  0  0
    2.6530   63.7200   70.6130 C   0  0  0  0  0  0  0  0  0  0  0  0
    1.3350   63.5690   71.3630 C   0  0  0  0  0  0  0  0  0  0  0  0
    0.1610   64.0160   70.4940 C   0  0  0  0  0  0  0  0  0  0  0  0
    3.0450   57.9350   73.6840 N   0  0  0  0  0  0  0  0  0  0  0  0
    3.3940   58.6780   72.5280 C   0  0  0  0  0  0  0  0  0  0  0  0
    3.0640   58.2560   71.2360 C   0  0  0  0  0  0  0  0  0  0  0  0
    3.4860   58.9830   70.1230 C   0  0  0  0  0  0  0  0  0  0  0  0
    4.2610   60.1320   70.2890 C   0  0  0  0  0  0  0  0  0  0  0  0
    4.6210   60.5600   71.5710 C   0  0  0  0  0  0  0  0  0  0  0  0
    4.2030   59.8110   72.6820 C   0  0  0  0  0  0  0  0  0  0  0  0
    5.4970   61.7630   71.7550 C   0  0  0  0  0  0  0  0  0  0  0  0
   -1.4029   57.9873   74.9093 H   0  0  0  0  0  0  0  0  0  0  0  0
    0.2439   54.3204   73.6997 H   0  0  0  0  0  0  0  0  0  0  0  0
    2.4355   55.3642   73.3179 H   0  0  0  0  0  0  0  0  0  0  0  0
    1.0651   61.4505   71.0780 H   0  0  0  0  0  0  0  0  0  0  0  0
    0.6293   59.9335   72.4603 H   0  0  0  0  0  0  0  0  0  0  0  0
    3.4772   63.8144   71.3354 H   0  0  0  0  0  0  0  0  0  0  0  0
    2.8188   62.8350   69.9811 H   0  0  0  0  0  0  0  0  0  0  0  0
    2.6143   64.6196   69.9811 H   0  0  0  0  0  0  0  0  0  0  0  0
    1.3643   64.2146   72.2532 H   0  0  0  0  0  0  0  0  0  0  0  0
   -0.6722   64.3332   71.1383 H   0  0  0  0  0  0  0  0  0  0  0  0
    0.4745   64.8577   69.8589 H   0  0  0  0  0  0  0  0  0  0  0  0
   -0.1647   63.1790   69.8589 H   0  0  0  0  0  0  0  0  0  0  0  0
    3.7817   57.8171   74.3941 H   0  0  0  0  0  0  0  0  0  0  0  0
    2.4666   57.3430   71.0965 H   0  0  0  0  0  0  0  0  0  0  0  0
    3.2075   58.6502   69.1122 H   0  0  0  0  0  0  0  0  0  0  0  0
    4.5899   60.7030   69.4082 H   0  0  0  0  0  0  0  0  0  0  0  0
    4.5160   60.1190   73.6906 H   0  0  0  0  0  0  0  0  0  0  0  0
    5.6363   61.9543   72.8292 H   0  0  0  0  0  0  0  0  0  0  0  0
    6.4747   61.5799   71.2854 H   0  0  0  0  0  0  0  0  0  0  0  0
    5.0226   62.6373   71.2854 H   0  0  0  0  0  0  0  0  0  0  0  0
  2  1  2  0
  3  2  1  0
  4  3  2  0
  5  4  1  0
  6  5  2  0
  6  1  1  0
  7  1  1  0
  8  7  2  0
  9  7  2  0
 11 10  1  0
 12 11  2  0
 13 11  1  0
 13  7  1  0
 15 14  1  0
 15 10  1  0
 16 15  1  0
 17  6  1  0
 18 17  1  0
 19 18  2  0
 20 19  1  0
 21 20  2  0
 22 21  1  0
 23 22  2  0
 23 18  1  0
 24 22  1  0
  2 25  1  0
  4 26  1  0
  5 27  1  0
 10 28  1  0
 13 29  1  0
 14 30  1  0
 14 31  1  0
 14 32  1  0
 15 33  1  0
 16 34  1  0
 16 35  1  0
 16 36  1  0
 17 37  1  0
 19 38  1  0
 20 39  1  0
 21 40  1  0
 23 41  1  0
 24 42  1  0
 24 43  1  0
 24 44  1  0
M  END
>  <score>  (9) 
-7.805

$$$$
