=
     RDKit          3D

 41 42  0  0  0  0  0  0  0  0999 V2000
    2.8860   68.7480   63.4080 C   0  0  0  0  0  0  0  0  0  0  0  0
    3.4990   67.8830   62.3010 C   0  0  1  0  0  0  0  0  0  0  0  0
    3.8640   68.7240   61.1830 O   0  0  0  0  0  0  0  0  0  0  0  0
    4.7780   67.1630   62.7470 C   0  0  0  0  0  0  0  0  0  0  0  0
    4.4990   65.6810   62.7560 N   0  0  0  0  0  4  0  0  0  0  0  0
    4.4990   64.9980   64.0870 C   0  0  0  0  0  0  0  0  0  0  0  0
    3.1240   65.1930   64.7140 C   0  0  0  0  0  0  0  0  0  0  0  0
    4.8200   63.5210   63.9000 C   0  0  0  0  0  0  0  0  0  0  0  0
    3.8560   68.8140   64.4530 O   0  0  0  0  0  0  0  0  0  0  0  0
    3.4160   69.1190   65.7190 C   0  0  0  0  0  0  0  0  0  0  0  0
    2.1100   68.8900   66.1670 C   0  0  0  0  0  0  0  0  0  0  0  0
    1.7470   69.2220   67.4720 C   0  0  0  0  0  0  0  0  0  0  0  0
    2.6800   69.7890   68.3350 C   0  0  0  0  0  0  0  0  0  0  0  0
    3.9910   70.0400   67.9090 C   0  0  0  0  0  0  0  0  0  0  0  0
    4.3740   69.7100   66.5860 C   0  0  0  0  0  0  0  0  0  0  0  0
    5.7030   69.9870   66.1940 C   0  0  0  0  0  0  0  0  0  0  0  0
    6.6190   70.5640   67.0740 C   0  0  0  0  0  0  0  0  0  0  0  0
    6.2310   70.8770   68.3710 C   0  0  0  0  0  0  0  0  0  0  0  0
    4.9250   70.6180   68.7850 C   0  0  0  0  0  0  0  0  0  0  0  0
    2.6691   69.7566   63.0263 H   0  0  0  0  0  0  0  0  0  0  0  0
    1.9394   68.3201   63.7697 H   0  0  0  0  0  0  0  0  0  0  0  0
    2.7389   67.1335   62.0355 H   0  0  0  0  0  0  0  0  0  0  0  0
    4.2347   69.5780   61.5197 H   0  0  0  0  0  0  0  0  0  0  0  0
    5.5954   67.3848   62.0451 H   0  0  0  0  0  0  0  0  0  0  0  0
    5.0775   67.5017   63.7498 H   0  0  0  0  0  0  0  0  0  0  0  0
    3.5711   65.5369   62.3328 H   0  0  0  0  0  0  0  0  0  0  0  0
    5.2827   65.2581   62.2384 H   0  0  0  0  0  0  0  0  0  0  0  0
    5.2644   65.4244   64.7521 H   0  0  0  0  0  0  0  0  0  0  0  0
    3.2157   65.1800   65.8101 H   0  0  0  0  0  0  0  0  0  0  0  0
    2.7080   66.1591   64.3923 H   0  0  0  0  0  0  0  0  0  0  0  0
    2.4558   64.3806   64.3923 H   0  0  0  0  0  0  0  0  0  0  0  0
    4.9243   63.0410   64.8842 H   0  0  0  0  0  0  0  0  0  0  0  0
    4.0061   63.0369   63.3404 H   0  0  0  0  0  0  0  0  0  0  0  0
    5.7614   63.4184   63.3404 H   0  0  0  0  0  0  0  0  0  0  0  0
    1.3673   68.4466   65.4875 H   0  0  0  0  0  0  0  0  0  0  0  0
    0.7204   69.0352   67.8201 H   0  0  0  0  0  0  0  0  0  0  0  0
    2.3847   70.0431   69.3637 H   0  0  0  0  0  0  0  0  0  0  0  0
    6.0230   69.7418   65.1705 H   0  0  0  0  0  0  0  0  0  0  0  0
    7.6469   70.7709   66.7415 H   0  0  0  0  0  0  0  0  0  0  0  0
    6.9519   71.3277   69.0690 H   0  0  0  0  0  0  0  0  0  0  0  0
    4.6217   70.8698   69.8119 H   0  0  0  0  0  0  0  0  0  0  0  0
  2  1  1  0
  3  2  1  0
  4  2  1  0
  5  4  1  0
  6  5  1  0
  7  6  1  0
  8  6  1  0
  9  1  1  0
 10  9  1  0
 11 10  2  0
 12 11  1  0
 13 12  2  0
 14 13  1  0
 15 14  2  0
 15 10  1  0
 16 15  1  0
 17 16  2  0
 18 17  1  0
 19 14  1  0
 19 18  2  0
  1 20  1  0
  1 21  1  0
  2 22  1  6
  3 23  1  0
  4 24  1  0
  4 25  1  0
  5 26  1  0
  5 27  1  0
  6 28  1  0
  7 29  1  0
  7 30  1  0
  7 31  1  0
  8 32  1  0
  8 33  1  0
  8 34  1  0
 11 35  1  0
 12 36  1  0
 13 37  1  0
 16 38  1  0
 17 39  1  0
 18 40  1  0
 19 41  1  0
M  CHG  1   5   1
M  END
>  <score>  (1) 
-9.407

$$$$
=
     RDKit          3D

 41 42  0  0  0  0  0  0  0  0999 V2000
    4.1190   67.6610   64.0750 C   0  0  0  0  0  0  0  0  0  0  0  0
    4.2310   67.7650   62.5500 C   0  0  1  0  0  0  0  0  0  0  0  0
    4.1780   66.4400   61.9750 O   0  0  0  0  0  0  0  0  0  0  0  0
    3.0830   68.5650   61.9210 C   0  0  0  0  0  0  0  0  0  0  0  0
    1.8250   68.2580   62.6940 N   0  0  0  0  0  4  0  0  0  0  0  0
    0.8170   69.3570   62.8140 C   0  0  0  0  0  0  0  0  0  0  0  0
    0.3400   69.7110   61.4110 C   0  0  0  0  0  0  0  0  0  0  0  0
   -0.3380   68.8950   63.6930 C   0  0  0  0  0  0  0  0  0  0  0  0
    4.2100   68.9940   64.5780 O   0  0  0  0  0  0  0  0  0  0  0  0
    3.6940   69.2450   65.8280 C   0  0  0  0  0  0  0  0  0  0  0  0
    2.3720   68.9720   66.1940 C   0  0  0  0  0  0  0  0  0  0  0  0
    1.9290   69.2500   67.4870 C   0  0  0  0  0  0  0  0  0  0  0  0
    2.8000   69.8070   68.4190 C   0  0  0  0  0  0  0  0  0  0  0  0
    4.1260   70.1010   68.0760 C   0  0  0  0  0  0  0  0  0  0  0  0
    4.5880   69.8250   66.7660 C   0  0  0  0  0  0  0  0  0  0  0  0
    5.9300   70.1450   66.4580 C   0  0  0  0  0  0  0  0  0  0  0  0
    6.7830   70.7100   67.4080 C   0  0  0  0  0  0  0  0  0  0  0  0
    6.3170   70.9690   68.6900 C   0  0  0  0  0  0  0  0  0  0  0  0
    4.9960   70.6670   69.0220 C   0  0  0  0  0  0  0  0  0  0  0  0
    3.1542   67.2135   64.3559 H   0  0  0  0  0  0  0  0  0  0  0  0
    4.9130   67.0231   64.4904 H   0  0  0  0  0  0  0  0  0  0  0  0
    5.1816   68.2781   62.3426 H   0  0  0  0  0  0  0  0  0  0  0  0
    4.1511   65.7665   62.7001 H   0  0  0  0  0  0  0  0  0  0  0  0
    3.3029   69.6413   61.9774 H   0  0  0  0  0  0  0  0  0  0  0  0
    2.9591   68.2897   60.8632 H   0  0  0  0  0  0  0  0  0  0  0  0
    1.3630   67.4616   62.2323 H   0  0  0  0  0  0  0  0  0  0  0  0
    2.1403   68.0775   63.6578 H   0  0  0  0  0  0  0  0  0  0  0  0
    1.2573   70.2490   63.2835 H   0  0  0  0  0  0  0  0  0  0  0  0
   -0.5417   70.3653   61.4777 H   0  0  0  0  0  0  0  0  0  0  0  0
    1.1439   70.2329   60.8712 H   0  0  0  0  0  0  0  0  0  0  0  0
    0.0734   68.7904   60.8712 H   0  0  0  0  0  0  0  0  0  0  0  0
   -0.0604   69.0061   64.7516 H   0  0  0  0  0  0  0  0  0  0  0  0
   -1.2274   69.5066   63.4811 H   0  0  0  0  0  0  0  0  0  0  0  0
   -0.5603   67.8387   63.4811 H   0  0  0  0  0  0  0  0  0  0  0  0
    1.6789   68.5363   65.4592 H   0  0  0  0  0  0  0  0  0  0  0  0
    0.8895   69.0287   67.7707 H   0  0  0  0  0  0  0  0  0  0  0  0
    2.4426   70.0189   69.4375 H   0  0  0  0  0  0  0  0  0  0  0  0
    6.3113   69.9441   65.4459 H   0  0  0  0  0  0  0  0  0  0  0  0
    7.8229   70.9496   67.1411 H   0  0  0  0  0  0  0  0  0  0  0  0
    6.9874   71.4110   69.4418 H   0  0  0  0  0  0  0  0  0  0  0  0
    4.6310   70.8751   70.0386 H   0  0  0  0  0  0  0  0  0  0  0  0
  2  1  1  0
  3  2  1  0
  4  2  1  0
  5  4  1  0
  6  5  1  0
  7  6  1  0
  8  6  1  0
  9  1  1  0
 10  9  1  0
 11 10  2  0
 12 11  1  0
 13 12  2  0
 14 13  1  0
 15 14  2  0
 15 10  1  0
 16 15  1  0
 17 16  2  0
 18 17  1  0
 19 14  1  0
 19 18  2  0
  1 20  1  0
  1 21  1  0
  2 22  1  1
  3 23  1  0
  4 24  1  0
  4 25  1  0
  5 26  1  0
  5 27  1  0
  6 28  1  0
  7 29  1  0
  7 30  1  0
  7 31  1  0
  8 32  1  0
  8 33  1  0
  8 34  1  0
 11 35  1  0
 12 36  1  0
 13 37  1  0
 16 38  1  0
 17 39  1  0
 18 40  1  0
 19 41  1  0
M  CHG  1   5   1
M  END
>  <score>  (2) 
-9.094

$$$$
=
     RDKit          3D

 41 42  0  0  0  0  0  0  0  0999 V2000
    0.7740   67.6620   66.4880 C   0  0  0  0  0  0  0  0  0  0  0  0
   -0.5210   67.6780   67.3080 C   0  0  1  0  0  0  0  0  0  0  0  0
   -1.6060   67.1690   66.5000 O   0  0  0  0  0  0  0  0  0  0  0  0
   -0.4460   66.7900   68.5570 C   0  0  0  0  0  0  0  0  0  0  0  0
    1.0080   66.5840   68.8940 N   0  0  0  0  0  4  0  0  0  0  0  0
    1.3210   66.0660   70.2630 C   0  0  0  0  0  0  0  0  0  0  0  0
    0.0070   65.9180   71.0190 C   0  0  0  0  0  0  0  0  0  0  0  0
    2.0480   64.7330   70.1490 C   0  0  0  0  0  0  0  0  0  0  0  0
    1.4610   68.8750   66.7930 O   0  0  0  0  0  0  0  0  0  0  0  0
    2.6960   69.0750   66.2240 C   0  0  0  0  0  0  0  0  0  0  0  0
    3.0100   68.7330   64.9030 C   0  0  0  0  0  0  0  0  0  0  0  0
    4.2880   68.9750   64.3990 C   0  0  0  0  0  0  0  0  0  0  0  0
    5.2600   69.5550   65.2090 C   0  0  0  0  0  0  0  0  0  0  0  0
    4.9770   69.8980   66.5370 C   0  0  0  0  0  0  0  0  0  0  0  0
    3.6840   69.6550   67.0630 C   0  0  0  0  0  0  0  0  0  0  0  0
    3.4420   70.0060   68.4110 C   0  0  0  0  0  0  0  0  0  0  0  0
    4.4350   70.5800   69.2060 C   0  0  0  0  0  0  0  0  0  0  0  0
    5.6960   70.8170   68.6750 C   0  0  0  0  0  0  0  0  0  0  0  0
    5.9650   70.4770   67.3490 C   0  0  0  0  0  0  0  0  0  0  0  0
    1.3906   66.7952   66.7681 H   0  0  0  0  0  0  0  0  0  0  0  0
    0.5625   67.5843   65.4113 H   0  0  0  0  0  0  0  0  0  0  0  0
   -0.6795   68.7214   67.6183 H   0  0  0  0  0  0  0  0  0  0  0  0
   -2.3261   66.8312   67.0894 H   0  0  0  0  0  0  0  0  0  0  0  0
   -0.9578   67.2827   69.3968 H   0  0  0  0  0  0  0  0  0  0  0  0
   -0.9358   65.8232   68.3690 H   0  0  0  0  0  0  0  0  0  0  0  0
    1.3931   65.9143   68.2127 H   0  0  0  0  0  0  0  0  0  0  0  0
    1.4261   67.5247   68.8617 H   0  0  0  0  0  0  0  0  0  0  0  0
    1.9784   66.7590   70.8085 H   0  0  0  0  0  0  0  0  0  0  0  0
    0.2022   65.9400   72.1013 H   0  0  0  0  0  0  0  0  0  0  0  0
   -0.6656   66.7461   70.7508 H   0  0  0  0  0  0  0  0  0  0  0  0
   -0.4645   64.9611   70.7508 H   0  0  0  0  0  0  0  0  0  0  0  0
    2.2602   64.3438   71.1557 H   0  0  0  0  0  0  0  0  0  0  0  0
    1.4160   64.0160   69.6045 H   0  0  0  0  0  0  0  0  0  0  0  0
    2.9930   64.8761   69.6045 H   0  0  0  0  0  0  0  0  0  0  0  0
    2.2459   68.2717   64.2601 H   0  0  0  0  0  0  0  0  0  0  0  0
    4.5280   68.7070   63.3595 H   0  0  0  0  0  0  0  0  0  0  0  0
    6.2634   69.7464   64.8008 H   0  0  0  0  0  0  0  0  0  0  0  0
    2.4474   69.8223   68.8434 H   0  0  0  0  0  0  0  0  0  0  0  0
    4.2191   70.8443   70.2517 H   0  0  0  0  0  0  0  0  0  0  0  0
    6.4804   71.2715   69.2980 H   0  0  0  0  0  0  0  0  0  0  0  0
    6.9660   70.6654   66.9336 H   0  0  0  0  0  0  0  0  0  0  0  0
  2  1  1  0
  3  2  1  0
  4  2  1  0
  5  4  1  0
  6  5  1  0
  7  6  1  0
  8  6  1  0
  9  1  1  0
 10  9  1  0
 11 10  2  0
 12 11  1  0
 13 12  2  0
 14 13  1  0
 15 14  2  0
 15 10  1  0
 16 15  1  0
 17 16  2  0
 18 17  1  0
 19 14  1  0
 19 18  2  0
  1 20  1  0
  1 21  1  0
  2 22  1  1
  3 23  1  0
  4 24  1  0
  4 25  1  0
  5 26  1  0
  5 27  1  0
  6 28  1  0
  7 29  1  0
  7 30  1  0
  7 31  1  0
  8 32  1  0
  8 33  1  0
  8 34  1  0
 11 35  1  0
 12 36  1  0
 13 37  1  0
 16 38  1  0
 17 39  1  0
 18 40  1  0
 19 41  1  0
M  CHG  1   5   1
M  END
>  <score>  (3) 
-8.824

$$$$
=
     RDKit          3D

 41 42  0  0  0  0  0  0  0  0999 V2000
    1.5070   67.7430   66.9310 C   0  0  0  0  0  0  0  0  0  0  0  0
    0.3630   67.5130   65.9370 C   0  0  1  0  0  0  0  0  0  0  0  0
   -0.7060   66.7960   66.5940 O   0  0  0  0  0  0  0  0  0  0  0  0
   -0.2410   68.8210   65.4100 C   0  0  0  0  0  0  0  0  0  0  0  0
   -0.5070   68.6510   63.9360 N   0  0  0  0  0  4  0  0  0  0  0  0
    0.4270   69.3420   62.9930 C   0  0  0  0  0  0  0  0  0  0  0  0
    1.4210   68.3090   62.4770 C   0  0  0  0  0  0  0  0  0  0  0  0
   -0.3690   69.9640   61.8540 C   0  0  0  0  0  0  0  0  0  0  0  0
    1.9430   69.0890   66.7410 O   0  0  0  0  0  0  0  0  0  0  0  0
    3.2040   69.2890   66.2300 C   0  0  0  0  0  0  0  0  0  0  0  0
    3.5690   68.9840   64.9140 C   0  0  0  0  0  0  0  0  0  0  0  0
    4.8700   69.2250   64.4720 C   0  0  0  0  0  0  0  0  0  0  0  0
    5.8140   69.7660   65.3390 C   0  0  0  0  0  0  0  0  0  0  0  0
    5.4780   70.0720   66.6650 C   0  0  0  0  0  0  0  0  0  0  0  0
    4.1620   69.8300   67.1280 C   0  0  0  0  0  0  0  0  0  0  0  0
    3.8670   70.1430   68.4740 C   0  0  0  0  0  0  0  0  0  0  0  0
    4.8320   70.6790   69.3280 C   0  0  0  0  0  0  0  0  0  0  0  0
    6.1170   70.9150   68.8580 C   0  0  0  0  0  0  0  0  0  0  0  0
    6.4390   70.6130   67.5350 C   0  0  0  0  0  0  0  0  0  0  0  0
    1.1496   67.6010   67.9616 H   0  0  0  0  0  0  0  0  0  0  0  0
    2.3287   67.0309   66.7643 H   0  0  0  0  0  0  0  0  0  0  0  0
    0.7924   66.9511   65.0945 H   0  0  0  0  0  0  0  0  0  0  0  0
   -0.5977   66.8686   67.5754 H   0  0  0  0  0  0  0  0  0  0  0  0
   -1.1824   69.0363   65.9368 H   0  0  0  0  0  0  0  0  0  0  0  0
    0.4530   69.6576   65.5789 H   0  0  0  0  0  0  0  0  0  0  0  0
   -0.4693   67.6430   63.7277 H   0  0  0  0  0  0  0  0  0  0  0  0
   -1.4235   69.0933   63.7768 H   0  0  0  0  0  0  0  0  0  0  0  0
    0.9744   70.1513   63.4984 H   0  0  0  0  0  0  0  0  0  0  0  0
    1.9037   67.8073   63.3286 H   0  0  0  0  0  0  0  0  0  0  0  0
    0.8913   67.5642   61.8649 H   0  0  0  0  0  0  0  0  0  0  0  0
    2.1856   68.8097   61.8649 H   0  0  0  0  0  0  0  0  0  0  0  0
   -1.1721   70.5915   62.2678 H   0  0  0  0  0  0  0  0  0  0  0  0
    0.2980   70.5826   61.2356 H   0  0  0  0  0  0  0  0  0  0  0  0
   -0.8080   69.1672   61.2356 H   0  0  0  0  0  0  0  0  0  0  0  0
    2.8274   68.5527   64.2256 H   0  0  0  0  0  0  0  0  0  0  0  0
    5.1502   68.9867   63.4353 H   0  0  0  0  0  0  0  0  0  0  0  0
    6.8362   69.9559   64.9797 H   0  0  0  0  0  0  0  0  0  0  0  0
    2.8526   69.9598   68.8579 H   0  0  0  0  0  0  0  0  0  0  0  0
    4.5750   70.9140   70.3714 H   0  0  0  0  0  0  0  0  0  0  0  0
    6.8795   71.3393   69.5277 H   0  0  0  0  0  0  0  0  0  0  0  0
    7.4588   70.8009   67.1681 H   0  0  0  0  0  0  0  0  0  0  0  0
  2  1  1  0
  3  2  1  0
  4  2  1  0
  5  4  1  0
  6  5  1  0
  7  6  1  0
  8  6  1  0
  9  1  1  0
 10  9  1  0
 11 10  2  0
 12 11  1  0
 13 12  2  0
 14 13  1  0
 15 14  2  0
 15 10  1  0
 16 15  1  0
 17 16  2  0
 18 17  1  0
 19 14  1  0
 19 18  2  0
  1 20  1  0
  1 21  1  0
  2 22  1  6
  3 23  1  0
  4 24  1  0
  4 25  1  0
  5 26  1  0
  5 27  1  0
  6 28  1  0
  7 29  1  0
  7 30  1  0
  7 31  1  0
  8 32  1  0
  8 33  1  0
  8 34  1  0
 11 35  1  0
 12 36  1  0
 13 37  1  0
 16 38  1  0
 17 39  1  0
 18 40  1  0
 19 41  1  0
M  CHG  1   5   1
M  END
>  <score>  (4) 
-8.749

$$$$
=
     RDKit          3D

 41 42  0  0  0  0  0  0  0  0999 V2000
    0.2330   68.9420   67.8570 C   0  0  0  0  0  0  0  0  0  0  0  0
   -0.1260   67.4620   68.0260 C   0  0  1  0  0  0  0  0  0  0  0  0
   -0.0390   66.7990   66.7450 O   0  0  0  0  0  0  0  0  0  0  0  0
    0.8300   66.7210   68.9710 C   0  0  0  0  0  0  0  0  0  0  0  0
    0.0670   65.5900   69.6120 N   0  0  0  0  0  4  0  0  0  0  0  0
    0.7470   64.8560   70.7250 C   0  0  0  0  0  0  0  0  0  0  0  0
    0.0500   63.5120   70.8940 C   0  0  0  0  0  0  0  0  0  0  0  0
    2.2220   64.6780   70.3890 C   0  0  0  0  0  0  0  0  0  0  0  0
    1.2030   69.0060   66.8120 O   0  0  0  0  0  0  0  0  0  0  0  0
    2.4670   69.4430   67.1340 C   0  0  0  0  0  0  0  0  0  0  0  0
    2.8280   69.9190   68.4000 C   0  0  0  0  0  0  0  0  0  0  0  0
    4.1360   70.3360   68.6460 C   0  0  0  0  0  0  0  0  0  0  0  0
    5.0880   70.2860   67.6330 C   0  0  0  0  0  0  0  0  0  0  0  0
    4.7520   69.8240   66.3540 C   0  0  0  0  0  0  0  0  0  0  0  0
    3.4260   69.4000   66.0880 C   0  0  0  0  0  0  0  0  0  0  0  0
    3.1260   68.9490   64.7830 C   0  0  0  0  0  0  0  0  0  0  0  0
    4.0960   68.9150   63.7800 C   0  0  0  0  0  0  0  0  0  0  0  0
    5.3920   69.3300   64.0570 C   0  0  0  0  0  0  0  0  0  0  0  0
    5.7170   69.7830   65.3350 C   0  0  0  0  0  0  0  0  0  0  0  0
   -0.6609   69.5210   67.5819 H   0  0  0  0  0  0  0  0  0  0  0  0
    0.6271   69.3655   68.7926 H   0  0  0  0  0  0  0  0  0  0  0  0
   -1.1415   67.4351   68.4479 H   0  0  0  0  0  0  0  0  0  0  0  0
    0.0885   65.8272   66.8844 H   0  0  0  0  0  0  0  0  0  0  0  0
    1.6822   66.3212   68.4018 H   0  0  0  0  0  0  0  0  0  0  0  0
    1.2150   67.4067   69.7401 H   0  0  0  0  0  0  0  0  0  0  0  0
   -0.8096   65.9798   69.9869 H   0  0  0  0  0  0  0  0  0  0  0  0
   -0.0529   64.8912   68.8649 H   0  0  0  0  0  0  0  0  0  0  0  0
    0.6846   65.4183   71.6683 H   0  0  0  0  0  0  0  0  0  0  0  0
   -0.0648   63.2906   71.9654 H   0  0  0  0  0  0  0  0  0  0  0  0
   -0.9416   63.5509   70.4193 H   0  0  0  0  0  0  0  0  0  0  0  0
    0.6531   62.7240   70.4193 H   0  0  0  0  0  0  0  0  0  0  0  0
    2.8042   64.6077   71.3197 H   0  0  0  0  0  0  0  0  0  0  0  0
    2.3559   63.7572   69.8023 H   0  0  0  0  0  0  0  0  0  0  0  0
    2.5711   65.5405   69.8023 H   0  0  0  0  0  0  0  0  0  0  0  0
    2.0778   69.9643   69.2032 H   0  0  0  0  0  0  0  0  0  0  0  0
    4.4155   70.7054   69.6437 H   0  0  0  0  0  0  0  0  0  0  0  0
    6.1178   70.6134   67.8389 H   0  0  0  0  0  0  0  0  0  0  0  0
    2.1032   68.6166   64.5519 H   0  0  0  0  0  0  0  0  0  0  0  0
    3.8345   68.5602   62.7722 H   0  0  0  0  0  0  0  0  0  0  0  0
    6.1602   69.3014   63.2702 H   0  0  0  0  0  0  0  0  0  0  0  0
    6.7445   70.1131   65.5480 H   0  0  0  0  0  0  0  0  0  0  0  0
  2  1  1  0
  3  2  1  0
  4  2  1  0
  5  4  1  0
  6  5  1  0
  7  6  1  0
  8  6  1  0
  9  1  1  0
 10  9  1  0
 11 10  2  0
 12 11  1  0
 13 12  2  0
 14 13  1  0
 15 14  2  0
 15 10  1  0
 16 15  1  0
 17 16  2  0
 18 17  1  0
 19 14  1  0
 19 18  2  0
  1 20  1  0
  1 21  1  0
  2 22  1  1
  3 23  1  0
  4 24  1  0
  4 25  1  0
  5 26  1  0
  5 27  1  0
  6 28  1  0
  7 29  1  0
  7 30  1  0
  7 31  1  0
  8 32  1  0
  8 33  1  0
  8 34  1  0
 11 35  1  0
 12 36  1  0
 13 37  1  0
 16 38  1  0
 17 39  1  0
 18 40  1  0
 19 41  1  0
M  CHG  1   5   1
M  END
>  <score>  (5) 
-8.427

$$$$
=
     RDKit          3D

 41 42  0  0  0  0  0  0  0  0999 V2000
    1.4060   67.4960   66.7070 C   0  0  0  0  0  0  0  0  0  0  0  0
   -0.0390   67.5370   67.2170 C   0  0  1  0  0  0  0  0  0  0  0  0
   -0.1810   66.6230   68.3280 O   0  0  0  0  0  0  0  0  0  0  0  0
   -0.4510   68.9220   67.7310 C   0  0  0  0  0  0  0  0  0  0  0  0
   -1.4020   69.5270   66.7290 N   0  0  0  0  0  4  0  0  0  0  0  0
   -2.0510   68.5900   65.7590 C   0  0  0  0  0  0  0  0  0  0  0  0
   -3.5570   68.8120   65.8300 C   0  0  0  0  0  0  0  0  0  0  0  0
   -1.5170   68.8580   64.3580 C   0  0  0  0  0  0  0  0  0  0  0  0
    1.6440   68.7490   66.0660 O   0  0  0  0  0  0  0  0  0  0  0  0
    2.9330   69.0430   65.6880 C   0  0  0  0  0  0  0  0  0  0  0  0
    3.4320   68.8360   64.3960 C   0  0  0  0  0  0  0  0  0  0  0  0
    4.7520   69.1680   64.0920 C   0  0  0  0  0  0  0  0  0  0  0  0
    5.5820   69.7020   65.0730 C   0  0  0  0  0  0  0  0  0  0  0  0
    5.1120   69.9100   66.3760 C   0  0  0  0  0  0  0  0  0  0  0  0
    3.7740   69.5750   66.7000 C   0  0  0  0  0  0  0  0  0  0  0  0
    3.3420   69.7910   68.0280 C   0  0  0  0  0  0  0  0  0  0  0  0
    4.1950   70.3210   68.9970 C   0  0  0  0  0  0  0  0  0  0  0  0
    5.5020   70.6500   68.6630 C   0  0  0  0  0  0  0  0  0  0  0  0
    5.9580   70.4440   67.3610 C   0  0  0  0  0  0  0  0  0  0  0  0
    2.1023   67.3607   67.5478 H   0  0  0  0  0  0  0  0  0  0  0  0
    1.5594   66.6575   66.0118 H   0  0  0  0  0  0  0  0  0  0  0  0
   -0.6770   67.2666   66.3627 H   0  0  0  0  0  0  0  0  0  0  0  0
   -0.1033   67.1232   69.1788 H   0  0  0  0  0  0  0  0  0  0  0  0
   -0.9490   68.8250   68.7070 H   0  0  0  0  0  0  0  0  0  0  0  0
    0.4344   69.5633   67.8530 H   0  0  0  0  0  0  0  0  0  0  0  0
   -2.1516   69.9972   67.2562 H   0  0  0  0  0  0  0  0  0  0  0  0
   -0.8213   70.1514   66.1512 H   0  0  0  0  0  0  0  0  0  0  0  0
   -1.8255   67.5425   66.0079 H   0  0  0  0  0  0  0  0  0  0  0  0
   -3.8715   68.8584   66.8830 H   0  0  0  0  0  0  0  0  0  0  0  0
   -3.8123   69.7575   65.3291 H   0  0  0  0  0  0  0  0  0  0  0  0
   -4.0742   67.9804   65.3291 H   0  0  0  0  0  0  0  0  0  0  0  0
   -0.5358   69.3504   64.4276 H   0  0  0  0  0  0  0  0  0  0  0  0
   -1.4119   67.9058   63.8173 H   0  0  0  0  0  0  0  0  0  0  0  0
   -2.2176   69.5113   63.8173 H   0  0  0  0  0  0  0  0  0  0  0  0
    2.7808   68.4102   63.6184 H   0  0  0  0  0  0  0  0  0  0  0  0
    5.1379   69.0074   63.0745 H   0  0  0  0  0  0  0  0  0  0  0  0
    6.6204   69.9641   64.8220 H   0  0  0  0  0  0  0  0  0  0  0  0
    2.3085   69.5352   68.3046 H   0  0  0  0  0  0  0  0  0  0  0  0
    3.8326   70.4779   70.0237 H   0  0  0  0  0  0  0  0  0  0  0  0
    6.1759   71.0719   69.4231 H   0  0  0  0  0  0  0  0  0  0  0  0
    6.9951   70.7036   67.1023 H   0  0  0  0  0  0  0  0  0  0  0  0
  2  1  1  0
  3  2  1  0
  4  2  1  0
  5  4  1  0
  6  5  1  0
  7  6  1  0
  8  6  1  0
  9  1  1  0
 10  9  1  0
 11 10  2  0
 12 11  1  0
 13 12  2  0
 14 13  1  0
 15 14  2  0
 15 10  1  0
 16 15  1  0
 17 16  2  0
 18 17  1  0
 19 14  1  0
 19 18  2  0
  1 20  1  0
  1 21  1  0
  2 22  1  6
  3 23  1  0
  4 24  1  0
  4 25  1  0
  5 26  1  0
  5 27  1  0
  6 28  1  0
  7 29  1  0
  7 30  1  0
  7 31  1  0
  8 32  1  0
  8 33  1  0
  8 34  1  0
 11 35  1  0
 12 36  1  0
 13 37  1  0
 16 38  1  0
 17 39  1  0
 18 40  1  0
 19 41  1  0
M  CHG  1   5   1
M  END
>  <score>  (6) 
-8.284

$$$$
=
     RDKit          3D

 41 42  0  0  0  0  0  0  0  0999 V2000
    1.4900   67.5970   67.0790 C   0  0  0  0  0  0  0  0  0  0  0  0
   -0.0140   67.5290   67.3680 C   0  0  1  0  0  0  0  0  0  0  0  0
   -0.2580   66.5580   68.4100 O   0  0  0  0  0  0  0  0  0  0  0  0
   -0.5860   68.8630   67.8660 C   0  0  0  0  0  0  0  0  0  0  0  0
   -1.3350   69.5040   66.7250 N   0  0  0  0  0  4  0  0  0  0  0  0
   -1.8120   68.5980   65.6330 C   0  0  0  0  0  0  0  0  0  0  0  0
   -3.3200   68.7790   65.5010 C   0  0  0  0  0  0  0  0  0  0  0  0
   -1.0960   68.9440   64.3350 C   0  0  0  0  0  0  0  0  0  0  0  0
    1.7590   68.9320   66.6520 O   0  0  0  0  0  0  0  0  0  0  0  0
    3.0750   69.3190   66.5460 C   0  0  0  0  0  0  0  0  0  0  0  0
    3.8390   69.7850   67.6230 C   0  0  0  0  0  0  0  0  0  0  0  0
    5.1710   70.1510   67.4320 C   0  0  0  0  0  0  0  0  0  0  0  0
    5.7470   70.0600   66.1680 C   0  0  0  0  0  0  0  0  0  0  0  0
    5.0020   69.6070   65.0710 C   0  0  0  0  0  0  0  0  0  0  0  0
    3.6470   69.2340   65.2500 C   0  0  0  0  0  0  0  0  0  0  0  0
    2.9290   68.7920   64.1160 C   0  0  0  0  0  0  0  0  0  0  0  0
    3.5250   68.7160   62.8560 C   0  0  0  0  0  0  0  0  0  0  0  0
    4.8560   69.0800   62.6980 C   0  0  0  0  0  0  0  0  0  0  0  0
    5.5890   69.5240   63.7980 C   0  0  0  0  0  0  0  0  0  0  0  0
    2.0630   67.3661   67.9891 H   0  0  0  0  0  0  0  0  0  0  0  0
    1.7815   66.8663   66.3101 H   0  0  0  0  0  0  0  0  0  0  0  0
   -0.5008   67.2612   66.4186 H   0  0  0  0  0  0  0  0  0  0  0  0
   -0.1497   66.9890   69.2946 H   0  0  0  0  0  0  0  0  0  0  0  0
   -1.2705   68.6844   68.7083 H   0  0  0  0  0  0  0  0  0  0  0  0
    0.2251   69.5223   68.2089 H   0  0  0  0  0  0  0  0  0  0  0  0
   -2.1608   69.9754   67.1209 H   0  0  0  0  0  0  0  0  0  0  0  0
   -0.6527   70.1305   66.2747 H   0  0  0  0  0  0  0  0  0  0  0  0
   -1.5906   67.5458   65.8651 H   0  0  0  0  0  0  0  0  0  0  0  0
   -3.7718   68.8332   66.5024 H   0  0  0  0  0  0  0  0  0  0  0  0
   -3.5311   69.7089   64.9527 H   0  0  0  0  0  0  0  0  0  0  0  0
   -3.7451   67.9254   64.9527 H   0  0  0  0  0  0  0  0  0  0  0  0
   -0.1273   69.4121   64.5641 H   0  0  0  0  0  0  0  0  0  0  0  0
   -0.9309   68.0263   63.7515 H   0  0  0  0  0  0  0  0  0  0  0  0
   -1.7124   69.6436   63.7515 H   0  0  0  0  0  0  0  0  0  0  0  0
    3.3871   69.8626   68.6229 H   0  0  0  0  0  0  0  0  0  0  0  0
    5.7680   70.5125   68.2822 H   0  0  0  0  0  0  0  0  0  0  0  0
    6.7997   70.3472   66.0286 H   0  0  0  0  0  0  0  0  0  0  0  0
    1.8743   68.5006   64.2289 H   0  0  0  0  0  0  0  0  0  0  0  0
    2.9419   68.3687   61.9903 H   0  0  0  0  0  0  0  0  0  0  0  0
    5.3307   69.0182   61.7076 H   0  0  0  0  0  0  0  0  0  0  0  0
    6.6421   69.8134   63.6667 H   0  0  0  0  0  0  0  0  0  0  0  0
  2  1  1  0
  3  2  1  0
  4  2  1  0
  5  4  1  0
  6  5  1  0
  7  6  1  0
  8  6  1  0
  9  1  1  0
 10  9  1  0
 11 10  2  0
 12 11  1  0
 13 12  2  0
 14 13  1  0
 15 14  2  0
 15 10  1  0
 16 15  1  0
 17 16  2  0
 18 17  1  0
 19 14  1  0
 19 18  2  0
  1 20  1  0
  1 21  1  0
  2 22  1  6
  3 23  1  0
  4 24  1  0
  4 25  1  0
  5 26  1  0
  5 27  1  0
  6 28  1  0
  7 29  1  0
  7 30  1  0
  7 31  1  0
  8 32  1  0
  8 33  1  0
  8 34  1  0
 11 35  1  0
 12 36  1  0
 13 37  1  0
 16 38  1  0
 17 39  1  0
 18 40  1  0
 19 41  1  0
M  CHG  1   5   1
M  END
>  <score>  (7) 
-8.233

$$$$
=
     RDKit          3D

 41 42  0  0  0  0  0  0  0  0999 V2000
    1.7820   68.5860   65.2630 C   0  0  0  0  0  0  0  0  0  0  0  0
    1.6290   67.1390   65.7460 C   0  0  1  0  0  0  0  0  0  0  0  0
    0.2440   66.8890   66.0750 O   0  0  0  0  0  0  0  0  0  0  0  0
    2.0210   66.1110   64.6770 C   0  0  0  0  0  0  0  0  0  0  0  0
    2.8410   66.8190   63.6280 N   0  0  0  0  0  4  0  0  0  0  0  0
    4.3100   66.5350   63.6080 C   0  0  0  0  0  0  0  0  0  0  0  0
    4.4930   65.0220   63.5610 C   0  0  0  0  0  0  0  0  0  0  0  0
    4.9410   67.2080   62.3980 C   0  0  0  0  0  0  0  0  0  0  0  0
    3.0780   69.0170   65.6810 O   0  0  0  0  0  0  0  0  0  0  0  0
    3.1940   69.5890   66.9260 C   0  0  0  0  0  0  0  0  0  0  0  0
    2.1120   69.8060   67.7880 C   0  0  0  0  0  0  0  0  0  0  0  0
    2.3170   70.3860   69.0400 C   0  0  0  0  0  0  0  0  0  0  0  0
    3.5980   70.7580   69.4360 C   0  0  0  0  0  0  0  0  0  0  0  0
    4.6970   70.5620   68.5900 C   0  0  0  0  0  0  0  0  0  0  0  0
    4.5030   69.9760   67.3140 C   0  0  0  0  0  0  0  0  0  0  0  0
    5.6360   69.8040   66.4870 C   0  0  0  0  0  0  0  0  0  0  0  0
    6.9110   70.1920   66.9030 C   0  0  0  0  0  0  0  0  0  0  0  0
    7.0860   70.7600   68.1590 C   0  0  0  0  0  0  0  0  0  0  0  0
    5.9860   70.9450   68.9960 C   0  0  0  0  0  0  0  0  0  0  0  0
    1.7014   68.6315   64.1669 H   0  0  0  0  0  0  0  0  0  0  0  0
    0.9942   69.2305   65.6801 H   0  0  0  0  0  0  0  0  0  0  0  0
    2.2960   67.0276   66.6136 H   0  0  0  0  0  0  0  0  0  0  0  0
    0.1369   66.8697   67.0590 H   0  0  0  0  0  0  0  0  0  0  0  0
    2.6145   65.3053   65.1338 H   0  0  0  0  0  0  0  0  0  0  0  0
    1.1214   65.6685   64.2244 H   0  0  0  0  0  0  0  0  0  0  0  0
    2.4612   66.5565   62.7073 H   0  0  0  0  0  0  0  0  0  0  0  0
    2.7652   67.8197   63.8597 H   0  0  0  0  0  0  0  0  0  0  0  0
    4.8042   66.9332   64.5065 H   0  0  0  0  0  0  0  0  0  0  0  0
    4.5408   64.6264   64.5863 H   0  0  0  0  0  0  0  0  0  0  0  0
    3.6434   64.5662   63.0314 H   0  0  0  0  0  0  0  0  0  0  0  0
    5.4267   64.7819   63.0314 H   0  0  0  0  0  0  0  0  0  0  0  0
    5.6571   67.9718   62.7352 H   0  0  0  0  0  0  0  0  0  0  0  0
    5.4662   66.4550   61.7920 H   0  0  0  0  0  0  0  0  0  0  0  0
    4.1558   67.6837   61.7920 H   0  0  0  0  0  0  0  0  0  0  0  0
    1.0970   69.5181   67.4768 H   0  0  0  0  0  0  0  0  0  0  0  0
    1.4644   70.5496   69.7155 H   0  0  0  0  0  0  0  0  0  0  0  0
    3.7496   71.2120   70.4264 H   0  0  0  0  0  0  0  0  0  0  0  0
    5.5103   69.3535   65.4914 H   0  0  0  0  0  0  0  0  0  0  0  0
    7.7752   70.0483   66.2378 H   0  0  0  0  0  0  0  0  0  0  0  0
    8.0896   71.0629   68.4922 H   0  0  0  0  0  0  0  0  0  0  0  0
    6.1298   71.3973   69.9883 H   0  0  0  0  0  0  0  0  0  0  0  0
  2  1  1  0
  3  2  1  0
  4  2  1  0
  5  4  1  0
  6  5  1  0
  7  6  1  0
  8  6  1  0
  9  1  1  0
 10  9  1  0
 11 10  2  0
 12 11  1  0
 13 12  2  0
 14 13  1  0
 15 14  2  0
 15 10  1  0
 16 15  1  0
 17 16  2  0
 18 17  1  0
 19 14  1  0
 19 18  2  0
  1 20  1  0
  1 21  1  0
  2 22  1  1
  3 23  1  0
  4 24  1  0
  4 25  1  0
  5 26  1  0
  5 27  1  0
  6 28  1  0
  7 29  1  0
  7 30  1  0
  7 31  1  0
  8 32  1  0
  8 33  1  0
  8 34  1  0
 11 35  1  0
 12 36  1  0
 13 37  1  0
 16 38  1  0
 17 39  1  0
 18 40  1  0
 19 41  1  0
M  CHG  1   5   1
M  END
>  <score>  (8) 
-8.197

$$$$
=
     RDKit          3D

 41 42  0  0  0  0  0  0  0  0999 V2000
    1.0030   68.2870   67.8480 C   0  0  0  0  0  0  0  0  0  0  0  0
    0.1480   67.6650   66.7380 C   0  0  1  0  0  0  0  0  0  0  0  0
   -0.8970   68.5900   66.3640 O   0  0  0  0  0  0  0  0  0  0  0  0
    0.9510   67.3680   65.4650 C   0  0  0  0  0  0  0  0  0  0  0  0
    0.9040   68.5940   64.5880 N   0  0  0  0  0  4  0  0  0  0  0  0
    0.8080   68.3700   63.1120 C   0  0  0  0  0  0  0  0  0  0  0  0
   -0.2290   69.3400   62.5580 C   0  0  0  0  0  0  0  0  0  0  0  0
    2.1720   68.5930   62.4740 C   0  0  0  0  0  0  0  0  0  0  0  0
    1.6330   69.4340   67.2790 O   0  0  0  0  0  0  0  0  0  0  0  0
    2.8120   69.8640   67.8410 C   0  0  0  0  0  0  0  0  0  0  0  0
    2.9280   70.3160   69.1610 C   0  0  0  0  0  0  0  0  0  0  0  0
    4.1640   70.7280   69.6560 C   0  0  0  0  0  0  0  0  0  0  0  0
    5.2910   70.6970   68.8390 C   0  0  0  0  0  0  0  0  0  0  0  0
    5.2020   70.2600   67.5110 C   0  0  0  0  0  0  0  0  0  0  0  0
    3.9520   69.8400   66.9940 C   0  0  0  0  0  0  0  0  0  0  0  0
    3.9040   69.4150   65.6470 C   0  0  0  0  0  0  0  0  0  0  0  0
    5.0450   69.4000   64.8440 C   0  0  0  0  0  0  0  0  0  0  0  0
    6.2650   69.8090   65.3670 C   0  0  0  0  0  0  0  0  0  0  0  0
    6.3420   70.2370   66.6920 C   0  0  0  0  0  0  0  0  0  0  0  0
    0.3680   68.5835   68.6959 H   0  0  0  0  0  0  0  0  0  0  0  0
    1.7473   67.5705   68.2258 H   0  0  0  0  0  0  0  0  0  0  0  0
   -0.2482   66.7215   67.1415 H   0  0  0  0  0  0  0  0  0  0  0  0
   -1.3166   68.9614   67.1801 H   0  0  0  0  0  0  0  0  0  0  0  0
    1.9939   67.1362   65.7270 H   0  0  0  0  0  0  0  0  0  0  0  0
    0.5234   66.5033   64.9364 H   0  0  0  0  0  0  0  0  0  0  0  0
    0.0835   69.1480   64.8722 H   0  0  0  0  0  0  0  0  0  0  0  0
    1.8121   69.0590   64.7294 H   0  0  0  0  0  0  0  0  0  0  0  0
    0.4986   67.3388   62.8864 H   0  0  0  0  0  0  0  0  0  0  0  0
   -0.7538   69.8308   63.3909 H   0  0  0  0  0  0  0  0  0  0  0  0
    0.2727   70.1005   61.9416 H   0  0  0  0  0  0  0  0  0  0  0  0
   -0.9544   68.7887   61.9416 H   0  0  0  0  0  0  0  0  0  0  0  0
    2.9295   68.7168   63.2619 H   0  0  0  0  0  0  0  0  0  0  0  0
    2.4310   67.7253   61.8495 H   0  0  0  0  0  0  0  0  0  0  0  0
    2.1412   69.4980   61.8495 H   0  0  0  0  0  0  0  0  0  0  0  0
    2.0403   70.3461   69.8099 H   0  0  0  0  0  0  0  0  0  0  0  0
    4.2494   71.0787   70.6951 H   0  0  0  0  0  0  0  0  0  0  0  0
    6.2628   71.0195   69.2411 H   0  0  0  0  0  0  0  0  0  0  0  0
    2.9438   69.0881   65.2213 H   0  0  0  0  0  0  0  0  0  0  0  0
    4.9784   69.0648   63.7984 H   0  0  0  0  0  0  0  0  0  0  0  0
    7.1674   69.7954   64.7382 H   0  0  0  0  0  0  0  0  0  0  0  0
    7.3101   70.5613   67.1014 H   0  0  0  0  0  0  0  0  0  0  0  0
  2  1  1  0
  3  2  1  0
  4  2  1  0
  5  4  1  0
  6  5  1  0
  7  6  1  0
  8  6  1  0
  9  1  1  0
 10  9  1  0
 11 10  2  0
 12 11  1  0
 13 12  2  0
 14 13  1  0
 15 14  2  0
 15 10  1  0
 16 15  1  0
 17 16  2  0
 18 17  1  0
 19 14  1  0
 19 18  2  0
  1 20  1  0
  1 21  1  0
  2 22  1  1
  3 23  1  0
  4 24  1  0
  4 25  1  0
  5 26  1  0
  5 27  1  0
  6 28  1  0
  7 29  1  0
  7 30  1  0
  7 31  1  0
  8 32  1  0
  8 33  1  0
  8 34  1  0
 11 35  1  0
 12 36  1  0
 13 37  1  0
 16 38  1  0
 17 39  1  0
 18 40  1  0
 19 41  1  0
M  CHG  1   5   1
M  END
>  <score>  (9) 
-8.164

$$$$
