=
     RDKit          3D

 73 76  0  0  0  0  0  0  0  0999 V2000
    0.4420   67.2790   67.9620 C   0  0  0  0  0  0  0  0  0  0  0  0
    1.2350   67.1970   69.2620 C   0  0  0  0  0  0  0  0  0  0  0  0
    1.0840   65.0530   70.4860 C   0  0  0  0  0  0  0  0  0  0  0  0
    2.0380   64.5380   69.9040 O   0  0  0  0  0  0  0  0  0  0  0  0
    0.5990   66.3040   70.2200 N   0  0  0  0  0  0  0  0  0  0  0  0
    0.3000   64.2810   71.5210 C   0  0  0  0  0  0  0  0  0  0  0  0
    1.2170   63.3490   72.3190 C   0  0  0  0  0  0  0  0  0  0  0  0
    1.1870   61.9030   71.8100 N   0  0  1  0  0  4  0  0  0  0  0  0
    2.5810   61.3050   71.5380 C   0  0  0  0  0  0  0  0  0  0  0  0
    3.6820   62.1980   72.1500 C   0  0  0  0  0  0  0  0  0  0  0  0
    5.0410   62.0850   71.4530 C   0  0  0  0  0  0  0  0  0  0  0  0
    5.2310   60.7250   70.8010 C   0  0  0  0  0  0  0  0  0  0  0  0
    4.1660   60.4670   69.7380 C   0  0  0  0  0  0  0  0  0  0  0  0
    2.8260   61.1520   70.0300 C   0  0  0  0  0  0  0  0  0  0  0  0
    0.9880   59.6890   72.9350 C   0  0  0  0  0  0  0  0  0  0  0  0
    0.3100   61.0230   72.6920 C   0  0  0  0  0  0  0  0  0  0  0  0
    1.3340   67.5810   66.7600 C   0  0  0  0  0  0  0  0  0  0  0  0
    1.6460   69.0180   66.6560 N   0  0  0  0  0  0  0  0  0  0  0  0
    2.9370   69.2660   66.0950 C   0  0  0  0  0  0  0  0  0  0  0  0
    3.9690   69.6940   66.9410 C   0  0  0  0  0  0  0  0  0  0  0  0
    3.7970   70.0150   68.4010 C   0  0  0  0  0  0  0  0  0  0  0  0
    4.5580   71.2860   68.7910 C   0  0  0  0  0  0  0  0  0  0  0  0
    5.9700   71.3980   68.2010 C   0  0  0  0  0  0  0  0  0  0  0  0
    6.3760   70.2220   67.3170 C   0  0  0  0  0  0  0  0  0  0  0  0
    5.2470   69.8240   66.4020 C   0  0  0  0  0  0  0  0  0  0  0  0
    5.5430   69.5860   65.1100 N   0  0  0  0  0  0  0  0  0  0  0  0
    4.5510   69.2330   64.2820 C   0  0  0  0  0  0  0  0  0  0  0  0
    3.2150   69.0570   64.7100 C   0  0  0  0  0  0  0  0  0  0  0  0
    2.2440   68.6930   63.7410 C   0  0  0  0  0  0  0  0  0  0  0  0
    2.5860   68.5010   62.4020 C   0  0  0  0  0  0  0  0  0  0  0  0
    3.9020   68.6690   62.0030 C   0  0  0  0  0  0  0  0  0  0  0  0
    4.8650   69.0320   62.9450 C   0  0  0  0  0  0  0  0  0  0  0  0
   -0.0642   66.3168   67.7946 H   0  0  0  0  0  0  0  0  0  0  0  0
   -0.2824   68.1010   68.0598 H   0  0  0  0  0  0  0  0  0  0  0  0
    2.2456   66.8229   69.0411 H   0  0  0  0  0  0  0  0  0  0  0  0
    1.2776   68.2033   69.7041 H   0  0  0  0  0  0  0  0  0  0  0  0
   -0.2454   66.6254   70.7146 H   0  0  0  0  0  0  0  0  0  0  0  0
   -0.1812   64.9900   72.2108 H   0  0  0  0  0  0  0  0  0  0  0  0
   -0.4573   63.6719   71.0057 H   0  0  0  0  0  0  0  0  0  0  0  0
    2.2482   63.7251   72.2470 H   0  0  0  0  0  0  0  0  0  0  0  0
    0.8558   63.3408   73.3580 H   0  0  0  0  0  0  0  0  0  0  0  0
    0.7455   61.9315   70.8798 H   0  0  0  0  0  0  0  0  0  0  0  0
    2.6177   60.3109   72.0074 H   0  0  0  0  0  0  0  0  0  0  0  0
    3.3498   63.2449   72.0906 H   0  0  0  0  0  0  0  0  0  0  0  0
    3.8280   61.8555   73.1851 H   0  0  0  0  0  0  0  0  0  0  0  0
    5.1097   62.8635   70.6789 H   0  0  0  0  0  0  0  0  0  0  0  0
    5.8261   62.2119   72.2130 H   0  0  0  0  0  0  0  0  0  0  0  0
    6.2242   60.6890   70.3296 H   0  0  0  0  0  0  0  0  0  0  0  0
    5.1413   59.9514   71.5779 H   0  0  0  0  0  0  0  0  0  0  0  0
    4.5420   60.8367   68.7726 H   0  0  0  0  0  0  0  0  0  0  0  0
    3.9778   59.3833   69.7276 H   0  0  0  0  0  0  0  0  0  0  0  0
    2.8275   62.1495   69.5664 H   0  0  0  0  0  0  0  0  0  0  0  0
    2.0235   60.5246   69.6149 H   0  0  0  0  0  0  0  0  0  0  0  0
    1.0767   59.5146   74.0175 H   0  0  0  0  0  0  0  0  0  0  0  0
    0.3890   58.8853   72.4819 H   0  0  0  0  0  0  0  0  0  0  0  0
    1.9903   59.6992   72.4819 H   0  0  0  0  0  0  0  0  0  0  0  0
   -0.6556   60.8548   72.1926 H   0  0  0  0  0  0  0  0  0  0  0  0
    0.1496   61.5264   73.6568 H   0  0  0  0  0  0  0  0  0  0  0  0
    2.2740   67.0194   66.8644 H   0  0  0  0  0  0  0  0  0  0  0  0
    0.7933   67.2822   65.8498 H   0  0  0  0  0  0  0  0  0  0  0  0
    1.0021   69.7640   66.9557 H   0  0  0  0  0  0  0  0  0  0  0  0
    2.7271   70.1606   68.6111 H   0  0  0  0  0  0  0  0  0  0  0  0
    4.2015   69.1773   68.9880 H   0  0  0  0  0  0  0  0  0  0  0  0
    3.9743   72.1530   68.4481 H   0  0  0  0  0  0  0  0  0  0  0  0
    4.6812   71.2498   69.8835 H   0  0  0  0  0  0  0  0  0  0  0  0
    6.0193   72.3161   67.5971 H   0  0  0  0  0  0  0  0  0  0  0  0
    6.6672   71.4082   69.0518 H   0  0  0  0  0  0  0  0  0  0  0  0
    7.2468   70.5110   66.7103 H   0  0  0  0  0  0  0  0  0  0  0  0
    6.6248   69.3663   67.9619 H   0  0  0  0  0  0  0  0  0  0  0  0
    1.1976   68.5592   64.0528 H   0  0  0  0  0  0  0  0  0  0  0  0
    1.8164   68.2183   61.6686 H   0  0  0  0  0  0  0  0  0  0  0  0
    4.1856   68.5173   60.9511 H   0  0  0  0  0  0  0  0  0  0  0  0
    5.9069   69.1632   62.6175 H   0  0  0  0  0  0  0  0  0  0  0  0
  2  1  1  0
  4  3  2  0
  5  3  1  0
  5  2  1  0
  6  3  1  0
  7  6  1  0
  8  7  1  0
  9  8  1  0
 10  9  1  0
 11 10  1  0
 12 11  1  0
 13 12  1  0
 14 13  1  0
 14  9  1  0
 16 15  1  0
 16  8  1  0
 17  1  1  0
 18 17  1  0
 19 18  1  0
 20 19  1  0
 21 20  1  0
 22 21  1  0
 23 22  1  0
 24 23  1  0
 25 20  2  0
 25 24  1  0
 26 25  1  0
 27 26  2  0
 28 27  1  0
 28 19  2  0
 29 28  1  0
 30 29  2  0
 31 30  1  0
 32 31  2  0
 32 27  1  0
  1 33  1  0
  1 34  1  0
  2 35  1  0
  2 36  1  0
  5 37  1  0
  6 38  1  0
  6 39  1  0
  7 40  1  0
  7 41  1  0
  8 42  1  6
  9 43  1  0
 10 44  1  0
 10 45  1  0
 11 46  1  0
 11 47  1  0
 12 48  1  0
 12 49  1  0
 13 50  1  0
 13 51  1  0
 14 52  1  0
 14 53  1  0
 15 54  1  0
 15 55  1  0
 15 56  1  0
 16 57  1  0
 16 58  1  0
 17 59  1  0
 17 60  1  0
 18 61  1  0
 21 62  1  0
 21 63  1  0
 22 64  1  0
 22 65  1  0
 23 66  1  0
 23 67  1  0
 24 68  1  0
 24 69  1  0
 29 70  1  0
 30 71  1  0
 31 72  1  0
 32 73  1  0
M  CHG  1   8   1
M  END
>  <score>  (1) 
-11.276

$$$$
=
     RDKit          3D

 73 76  0  0  0  0  0  0  0  0999 V2000
   -0.6660   68.8040   67.0430 C   0  0  0  0  0  0  0  0  0  0  0  0
   -1.0860   67.3430   67.1700 C   0  0  0  0  0  0  0  0  0  0  0  0
    0.2810   66.4950   69.0470 C   0  0  0  0  0  0  0  0  0  0  0  0
    1.3290   66.4680   68.4040 O   0  0  0  0  0  0  0  0  0  0  0  0
   -0.9340   66.8590   68.5340 N   0  0  0  0  0  0  0  0  0  0  0  0
    0.2430   66.0340   70.4860 C   0  0  0  0  0  0  0  0  0  0  0  0
    1.4050   65.0810   70.7850 C   0  0  0  0  0  0  0  0  0  0  0  0
    1.1490   63.6530   70.2900 N   0  0  1  0  0  4  0  0  0  0  0  0
    2.3340   62.6930   70.5040 C   0  0  0  0  0  0  0  0  0  0  0  0
    3.5600   63.4600   71.0460 C   0  0  0  0  0  0  0  0  0  0  0  0
    4.9060   62.8060   70.7150 C   0  0  0  0  0  0  0  0  0  0  0  0
    4.7760   61.3010   70.5440 C   0  0  0  0  0  0  0  0  0  0  0  0
    3.8230   60.9530   69.4030 C   0  0  0  0  0  0  0  0  0  0  0  0
    2.7100   61.9860   69.1940 C   0  0  0  0  0  0  0  0  0  0  0  0
   -0.0400   62.7470   72.2830 C   0  0  0  0  0  0  0  0  0  0  0  0
   -0.1750   63.1120   70.8170 C   0  0  0  0  0  0  0  0  0  0  0  0
    0.3910   69.0090   65.9610 C   0  0  0  0  0  0  0  0  0  0  0  0
    1.5420   68.1060   66.1420 N   0  0  0  0  0  0  0  0  0  0  0  0
    2.7960   68.7550   65.9150 C   0  0  0  0  0  0  0  0  0  0  0  0
    3.4640   69.3310   67.0030 C   0  0  0  0  0  0  0  0  0  0  0  0
    2.9100   69.4090   68.4000 C   0  0  0  0  0  0  0  0  0  0  0  0
    3.1790   70.7770   69.0340 C   0  0  0  0  0  0  0  0  0  0  0  0
    4.5910   71.3310   68.7990 C   0  0  0  0  0  0  0  0  0  0  0  0
    5.4890   70.4240   67.9620 C   0  0  0  0  0  0  0  0  0  0  0  0
    4.7350   69.8600   66.7870 C   0  0  0  0  0  0  0  0  0  0  0  0
    5.3480   69.8710   65.5860 N   0  0  0  0  0  0  0  0  0  0  0  0
    4.6900   69.3750   64.5300 C   0  0  0  0  0  0  0  0  0  0  0  0
    3.4020   68.8010   64.6220 C   0  0  0  0  0  0  0  0  0  0  0  0
    2.7970   68.3180   63.4330 C   0  0  0  0  0  0  0  0  0  0  0  0
    3.4490   68.3920   62.2010 C   0  0  0  0  0  0  0  0  0  0  0  0
    4.7160   68.9490   62.1320 C   0  0  0  0  0  0  0  0  0  0  0  0
    5.3180   69.4330   63.2930 C   0  0  0  0  0  0  0  0  0  0  0  0
   -1.5514   69.4064   66.7917 H   0  0  0  0  0  0  0  0  0  0  0  0
   -0.2297   69.1143   68.0039 H   0  0  0  0  0  0  0  0  0  0  0  0
   -2.1408   67.2476   66.8727 H   0  0  0  0  0  0  0  0  0  0  0  0
   -0.4379   66.7404   66.5167 H   0  0  0  0  0  0  0  0  0  0  0  0
   -1.7688   66.7881   69.1331 H   0  0  0  0  0  0  0  0  0  0  0  0
    0.3164   66.9101   71.1470 H   0  0  0  0  0  0  0  0  0  0  0  0
   -0.7031   65.5004   70.6595 H   0  0  0  0  0  0  0  0  0  0  0  0
    2.3101   65.4660   70.2925 H   0  0  0  0  0  0  0  0  0  0  0  0
    1.5210   65.0353   71.8779 H   0  0  0  0  0  0  0  0  0  0  0  0
    1.0629   63.7123   69.2653 H   0  0  0  0  0  0  0  0  0  0  0  0
    2.0250   61.9361   71.2399 H   0  0  0  0  0  0  0  0  0  0  0  0
    3.5525   64.4718   70.6144 H   0  0  0  0  0  0  0  0  0  0  0  0
    3.4713   63.4641   72.1424 H   0  0  0  0  0  0  0  0  0  0  0  0
    5.2916   63.2385   69.7800 H   0  0  0  0  0  0  0  0  0  0  0  0
    5.5936   62.9967   71.5521 H   0  0  0  0  0  0  0  0  0  0  0  0
    5.7675   60.8783   70.3244 H   0  0  0  0  0  0  0  0  0  0  0  0
    4.3710   60.8792   71.4757 H   0  0  0  0  0  0  0  0  0  0  0  0
    4.4065   60.8782   68.4735 H   0  0  0  0  0  0  0  0  0  0  0  0
    3.3351   60.0038   69.6694 H   0  0  0  0  0  0  0  0  0  0  0  0
    3.0544   62.7386   68.4695 H   0  0  0  0  0  0  0  0  0  0  0  0
    1.8192   61.4580   68.8229 H   0  0  0  0  0  0  0  0  0  0  0  0
   -0.3551   63.5989   72.9035 H   0  0  0  0  0  0  0  0  0  0  0  0
   -0.6759   61.8771   72.5043 H   0  0  0  0  0  0  0  0  0  0  0  0
    1.0089   62.5003   72.5043 H   0  0  0  0  0  0  0  0  0  0  0  0
   -0.4569   62.2168   70.2433 H   0  0  0  0  0  0  0  0  0  0  0  0
   -0.9500   63.8849   70.7074 H   0  0  0  0  0  0  0  0  0  0  0  0
   -0.0631   68.8144   64.9782 H   0  0  0  0  0  0  0  0  0  0  0  0
    0.7548   70.0448   66.0303 H   0  0  0  0  0  0  0  0  0  0  0  0
    1.4527   67.1139   66.4039 H   0  0  0  0  0  0  0  0  0  0  0  0
    1.8238   69.2389   68.3640 H   0  0  0  0  0  0  0  0  0  0  0  0
    3.4061   68.6411   69.0118 H   0  0  0  0  0  0  0  0  0  0  0  0
    2.4566   71.4946   68.6179 H   0  0  0  0  0  0  0  0  0  0  0  0
    3.0783   70.6389   70.1206 H   0  0  0  0  0  0  0  0  0  0  0  0
    4.5004   72.2980   68.2826 H   0  0  0  0  0  0  0  0  0  0  0  0
    5.0645   71.4180   69.7881 H   0  0  0  0  0  0  0  0  0  0  0  0
    6.3467   71.0062   67.5940 H   0  0  0  0  0  0  0  0  0  0  0  0
    5.8332   69.5907   68.5922 H   0  0  0  0  0  0  0  0  0  0  0  0
    1.7913   67.8752   63.4832 H   0  0  0  0  0  0  0  0  0  0  0  0
    2.9608   68.0111   61.2918 H   0  0  0  0  0  0  0  0  0  0  0  0
    5.2431   69.0089   61.1684 H   0  0  0  0  0  0  0  0  0  0  0  0
    6.3231   69.8751   63.2267 H   0  0  0  0  0  0  0  0  0  0  0  0
  2  1  1  0
  4  3  2  0
  5  3  1  0
  5  2  1  0
  6  3  1  0
  7  6  1  0
  8  7  1  0
  9  8  1  0
 10  9  1  0
 11 10  1  0
 12 11  1  0
 13 12  1  0
 14 13  1  0
 14  9  1  0
 16 15  1  0
 16  8  1  0
 17  1  1  0
 18 17  1  0
 19 18  1  0
 20 19  1  0
 21 20  1  0
 22 21  1  0
 23 22  1  0
 24 23  1  0
 25 20  2  0
 25 24  1  0
 26 25  1  0
 27 26  2  0
 28 27  1  0
 28 19  2  0
 29 28  1  0
 30 29  2  0
 31 30  1  0
 32 31  2  0
 32 27  1  0
  1 33  1  0
  1 34  1  0
  2 35  1  0
  2 36  1  0
  5 37  1  0
  6 38  1  0
  6 39  1  0
  7 40  1  0
  7 41  1  0
  8 42  1  6
  9 43  1  0
 10 44  1  0
 10 45  1  0
 11 46  1  0
 11 47  1  0
 12 48  1  0
 12 49  1  0
 13 50  1  0
 13 51  1  0
 14 52  1  0
 14 53  1  0
 15 54  1  0
 15 55  1  0
 15 56  1  0
 16 57  1  0
 16 58  1  0
 17 59  1  0
 17 60  1  0
 18 61  1  0
 21 62  1  0
 21 63  1  0
 22 64  1  0
 22 65  1  0
 23 66  1  0
 23 67  1  0
 24 68  1  0
 24 69  1  0
 29 70  1  0
 30 71  1  0
 31 72  1  0
 32 73  1  0
M  CHG  1   8   1
M  END
>  <score>  (2) 
-11.243

$$$$
=
     RDKit          3D

 73 76  0  0  0  0  0  0  0  0999 V2000
    0.3260   67.1040   67.9420 C   0  0  0  0  0  0  0  0  0  0  0  0
    1.0970   67.1130   69.2580 C   0  0  0  0  0  0  0  0  0  0  0  0
    0.4960   65.3660   70.9020 C   0  0  0  0  0  0  0  0  0  0  0  0
   -0.2570   66.0920   71.5490 O   0  0  0  0  0  0  0  0  0  0  0  0
    1.2200   65.7740   69.8150 N   0  0  0  0  0  0  0  0  0  0  0  0
    0.7460   63.9370   71.3240 C   0  0  0  0  0  0  0  0  0  0  0  0
    1.4540   63.1550   70.2130 C   0  0  0  0  0  0  0  0  0  0  0  0
    2.8210   62.6110   70.6450 N   0  0  1  0  0  4  0  0  0  0  0  0
    2.8150   61.1120   71.0010 C   0  0  0  0  0  0  0  0  0  0  0  0
    3.5460   60.8710   72.3400 C   0  0  0  0  0  0  0  0  0  0  0  0
    4.1430   59.4680   72.4860 C   0  0  0  0  0  0  0  0  0  0  0  0
    3.3760   58.4400   71.6710 C   0  0  0  0  0  0  0  0  0  0  0  0
    3.4040   58.7800   70.1820 C   0  0  0  0  0  0  0  0  0  0  0  0
    3.4860   60.2840   69.8960 C   0  0  0  0  0  0  0  0  0  0  0  0
    5.0990   63.5860   70.3810 C   0  0  0  0  0  0  0  0  0  0  0  0
    3.9090   62.9940   69.6490 C   0  0  0  0  0  0  0  0  0  0  0  0
    1.2230   67.4120   66.7460 C   0  0  0  0  0  0  0  0  0  0  0  0
    1.4300   68.8610   66.5740 N   0  0  0  0  0  0  0  0  0  0  0  0
    2.7350   69.1800   66.0850 C   0  0  0  0  0  0  0  0  0  0  0  0
    3.7090   69.6130   66.9940 C   0  0  0  0  0  0  0  0  0  0  0  0
    3.4580   69.8670   68.4560 C   0  0  0  0  0  0  0  0  0  0  0  0
    4.1490   71.1500   68.9300 C   0  0  0  0  0  0  0  0  0  0  0  0
    5.5810   71.3390   68.4130 C   0  0  0  0  0  0  0  0  0  0  0  0
    6.0730   70.2160   67.5040 C   0  0  0  0  0  0  0  0  0  0  0  0
    5.0040   69.8130   66.5220 C   0  0  0  0  0  0  0  0  0  0  0  0
    5.3680   69.6390   65.2370 N   0  0  0  0  0  0  0  0  0  0  0  0
    4.4300   69.2820   64.3500 C   0  0  0  0  0  0  0  0  0  0  0  0
    3.0840   69.0380   64.7080 C   0  0  0  0  0  0  0  0  0  0  0  0
    2.1730   68.6770   63.6800 C   0  0  0  0  0  0  0  0  0  0  0  0
    2.5830   68.5530   62.3530 C   0  0  0  0  0  0  0  0  0  0  0  0
    3.9090   68.7860   62.0230 C   0  0  0  0  0  0  0  0  0  0  0  0
    4.8120   69.1480   63.0230 C   0  0  0  0  0  0  0  0  0  0  0  0
   -0.1230   66.1097   67.8013 H   0  0  0  0  0  0  0  0  0  0  0  0
   -0.4445   67.8871   67.9967 H   0  0  0  0  0  0  0  0  0  0  0  0
    2.1035   67.5194   69.0795 H   0  0  0  0  0  0  0  0  0  0  0  0
    0.5442   67.7357   69.9768 H   0  0  0  0  0  0  0  0  0  0  0  0
    1.8744   65.1108   69.3759 H   0  0  0  0  0  0  0  0  0  0  0  0
    1.3764   63.9327   72.2254 H   0  0  0  0  0  0  0  0  0  0  0  0
   -0.2220   63.4568   71.5299 H   0  0  0  0  0  0  0  0  0  0  0  0
    0.8164   62.3084   69.9184 H   0  0  0  0  0  0  0  0  0  0  0  0
    1.6240   63.8494   69.3770 H   0  0  0  0  0  0  0  0  0  0  0  0
    3.0505   63.0749   71.5355 H   0  0  0  0  0  0  0  0  0  0  0  0
    1.7665   60.7937   71.0972 H   0  0  0  0  0  0  0  0  0  0  0  0
    4.3622   61.6036   72.4241 H   0  0  0  0  0  0  0  0  0  0  0  0
    2.7932   60.9784   73.1348 H   0  0  0  0  0  0  0  0  0  0  0  0
    5.1875   59.4880   72.1415 H   0  0  0  0  0  0  0  0  0  0  0  0
    4.0813   59.1790   73.5456 H   0  0  0  0  0  0  0  0  0  0  0  0
    3.8323   57.4505   71.8214 H   0  0  0  0  0  0  0  0  0  0  0  0
    2.3289   58.4406   72.0079 H   0  0  0  0  0  0  0  0  0  0  0  0
    4.2805   58.2921   69.7306 H   0  0  0  0  0  0  0  0  0  0  0  0
    2.4571   58.4216   69.7520 H   0  0  0  0  0  0  0  0  0  0  0  0
    4.5442   60.5758   69.8253 H   0  0  0  0  0  0  0  0  0  0  0  0
    2.9574   60.4818   68.9518 H   0  0  0  0  0  0  0  0  0  0  0  0
    4.9386   63.5062   71.4663 H   0  0  0  0  0  0  0  0  0  0  0  0
    6.0106   63.0363   70.1037 H   0  0  0  0  0  0  0  0  0  0  0  0
    5.2105   64.6446   70.1037 H   0  0  0  0  0  0  0  0  0  0  0  0
    3.5104   63.7364   68.9419 H   0  0  0  0  0  0  0  0  0  0  0  0
    4.2318   62.0947   69.1040 H   0  0  0  0  0  0  0  0  0  0  0  0
    2.1992   66.9289   66.8997 H   0  0  0  0  0  0  0  0  0  0  0  0
    0.7291   67.0281   65.8412 H   0  0  0  0  0  0  0  0  0  0  0  0
    0.7112   69.5683   66.7837 H   0  0  0  0  0  0  0  0  0  0  0  0
    2.3747   69.9625   68.6213 H   0  0  0  0  0  0  0  0  0  0  0  0
    3.8686   69.0222   69.0285 H   0  0  0  0  0  0  0  0  0  0  0  0
    3.5476   72.0071   68.5927 H   0  0  0  0  0  0  0  0  0  0  0  0
    4.2228   71.0752   70.0250 H   0  0  0  0  0  0  0  0  0  0  0  0
    5.6220   72.2823   67.8486 H   0  0  0  0  0  0  0  0  0  0  0  0
    6.2374   71.3407   69.2957 H   0  0  0  0  0  0  0  0  0  0  0  0
    6.9585   70.5621   66.9507 H   0  0  0  0  0  0  0  0  0  0  0  0
    6.3255   69.3448   68.1263 H   0  0  0  0  0  0  0  0  0  0  0  0
    1.1196   68.4909   63.9365 H   0  0  0  0  0  0  0  0  0  0  0  0
    1.8593   68.2723   61.5736 H   0  0  0  0  0  0  0  0  0  0  0  0
    4.2466   68.6863   60.9809 H   0  0  0  0  0  0  0  0  0  0  0  0
    5.8614   69.3333   62.7503 H   0  0  0  0  0  0  0  0  0  0  0  0
  2  1  1  0
  4  3  2  0
  5  3  1  0
  5  2  1  0
  6  3  1  0
  7  6  1  0
  8  7  1  0
  9  8  1  0
 10  9  1  0
 11 10  1  0
 12 11  1  0
 13 12  1  0
 14 13  1  0
 14  9  1  0
 16 15  1  0
 16  8  1  0
 17  1  1  0
 18 17  1  0
 19 18  1  0
 20 19  1  0
 21 20  1  0
 22 21  1  0
 23 22  1  0
 24 23  1  0
 25 20  2  0
 25 24  1  0
 26 25  1  0
 27 26  2  0
 28 27  1  0
 28 19  2  0
 29 28  1  0
 30 29  2  0
 31 30  1  0
 32 31  2  0
 32 27  1  0
  1 33  1  0
  1 34  1  0
  2 35  1  0
  2 36  1  0
  5 37  1  0
  6 38  1  0
  6 39  1  0
  7 40  1  0
  7 41  1  0
  8 42  1  1
  9 43  1  0
 10 44  1  0
 10 45  1  0
 11 46  1  0
 11 47  1  0
 12 48  1  0
 12 49  1  0
 13 50  1  0
 13 51  1  0
 14 52  1  0
 14 53  1  0
 15 54  1  0
 15 55  1  0
 15 56  1  0
 16 57  1  0
 16 58  1  0
 17 59  1  0
 17 60  1  0
 18 61  1  0
 21 62  1  0
 21 63  1  0
 22 64  1  0
 22 65  1  0
 23 66  1  0
 23 67  1  0
 24 68  1  0
 24 69  1  0
 29 70  1  0
 30 71  1  0
 31 72  1  0
 32 73  1  0
M  CHG  1   8   1
M  END
>  <score>  (3) 
-11.236

$$$$
=
     RDKit          3D

 73 76  0  0  0  0  0  0  0  0999 V2000
    0.5290   67.4550   68.0560 C   0  0  0  0  0  0  0  0  0  0  0  0
    1.3350   67.2180   69.3290 C   0  0  0  0  0  0  0  0  0  0  0  0
    1.1240   65.0580   70.5150 C   0  0  0  0  0  0  0  0  0  0  0  0
    2.1140   64.5560   69.9860 O   0  0  0  0  0  0  0  0  0  0  0  0
    0.6480   66.3100   70.2360 N   0  0  0  0  0  0  0  0  0  0  0  0
    0.2830   64.2700   71.4920 C   0  0  0  0  0  0  0  0  0  0  0  0
    1.1510   63.3050   72.3060 C   0  0  0  0  0  0  0  0  0  0  0  0
    1.1410   61.8770   71.7490 N   0  0  1  0  0  4  0  0  0  0  0  0
    2.5410   61.3160   71.4380 C   0  0  0  0  0  0  0  0  0  0  0  0
    3.6320   62.1760   72.1130 C   0  0  0  0  0  0  0  0  0  0  0  0
    4.9930   62.1280   71.4120 C   0  0  0  0  0  0  0  0  0  0  0  0
    5.1990   60.8200   70.6660 C   0  0  0  0  0  0  0  0  0  0  0  0
    4.1380   60.6250   69.5850 C   0  0  0  0  0  0  0  0  0  0  0  0
    2.7900   61.2720   69.9230 C   0  0  0  0  0  0  0  0  0  0  0  0
   -1.0730   61.5670   72.8500 C   0  0  0  0  0  0  0  0  0  0  0  0
    0.2930   60.9510   72.6120 C   0  0  0  0  0  0  0  0  0  0  0  0
    1.4230   67.6000   66.8260 C   0  0  0  0  0  0  0  0  0  0  0  0
    1.6740   69.0150   66.4960 N   0  0  0  0  0  0  0  0  0  0  0  0
    3.0500   69.2820   66.2130 C   0  0  0  0  0  0  0  0  0  0  0  0
    3.5270   69.0600   64.9150 C   0  0  0  0  0  0  0  0  0  0  0  0
    2.7160   68.4580   63.7990 C   0  0  0  0  0  0  0  0  0  0  0  0
    3.5330   67.4420   62.9960 C   0  0  0  0  0  0  0  0  0  0  0  0
    4.9680   67.8790   62.6730 C   0  0  0  0  0  0  0  0  0  0  0  0
    5.3420   69.2550   63.2170 C   0  0  0  0  0  0  0  0  0  0  0  0
    4.8390   69.4300   64.6260 C   0  0  0  0  0  0  0  0  0  0  0  0
    5.6830   69.9660   65.5300 N   0  0  0  0  0  0  0  0  0  0  0  0
    5.2520   70.1260   66.7880 C   0  0  0  0  0  0  0  0  0  0  0  0
    3.9400   69.8010   67.2020 C   0  0  0  0  0  0  0  0  0  0  0  0
    3.5990   70.0020   68.5650 C   0  0  0  0  0  0  0  0  0  0  0  0
    4.5190   70.5160   69.4790 C   0  0  0  0  0  0  0  0  0  0  0  0
    5.7970   70.8390   69.0520 C   0  0  0  0  0  0  0  0  0  0  0  0
    6.1470   70.6400   67.7160 C   0  0  0  0  0  0  0  0  0  0  0  0
   -0.1494   66.6029   67.9024 H   0  0  0  0  0  0  0  0  0  0  0  0
   -0.0299   68.3943   68.1800 H   0  0  0  0  0  0  0  0  0  0  0  0
    2.3092   66.7841   69.0593 H   0  0  0  0  0  0  0  0  0  0  0  0
    1.4634   68.1835   69.8401 H   0  0  0  0  0  0  0  0  0  0  0  0
   -0.2264   66.6207   70.6830 H   0  0  0  0  0  0  0  0  0  0  0  0
   -0.2207   64.9672   72.1777 H   0  0  0  0  0  0  0  0  0  0  0  0
   -0.4574   63.6851   70.9266 H   0  0  0  0  0  0  0  0  0  0  0  0
    2.1866   63.6759   72.3016 H   0  0  0  0  0  0  0  0  0  0  0  0
    0.7341   63.2649   73.3231 H   0  0  0  0  0  0  0  0  0  0  0  0
    0.6859   61.9283   70.8264 H   0  0  0  0  0  0  0  0  0  0  0  0
    2.5876   60.2918   71.8366 H   0  0  0  0  0  0  0  0  0  0  0  0
    3.2880   63.2207   72.1271 H   0  0  0  0  0  0  0  0  0  0  0  0
    3.7813   61.7625   73.1213 H   0  0  0  0  0  0  0  0  0  0  0  0
    5.0535   62.9600   70.6949 H   0  0  0  0  0  0  0  0  0  0  0  0
    5.7759   62.2098   72.1803 H   0  0  0  0  0  0  0  0  0  0  0  0
    6.1930   60.8288   70.1951 H   0  0  0  0  0  0  0  0  0  0  0  0
    5.1170   59.9927   71.3863 H   0  0  0  0  0  0  0  0  0  0  0  0
    4.5104   61.0664   68.6488 H   0  0  0  0  0  0  0  0  0  0  0  0
    3.9628   59.5426   69.4971 H   0  0  0  0  0  0  0  0  0  0  0  0
    2.7802   62.2997   69.5308 H   0  0  0  0  0  0  0  0  0  0  0  0
    1.9955   60.6654   69.4639 H   0  0  0  0  0  0  0  0  0  0  0  0
   -1.2548   61.6490   73.9318 H   0  0  0  0  0  0  0  0  0  0  0  0
   -1.1081   62.5681   72.3954 H   0  0  0  0  0  0  0  0  0  0  0  0
   -1.8465   60.9306   72.3954 H   0  0  0  0  0  0  0  0  0  0  0  0
    0.7945   60.7934   73.5782 H   0  0  0  0  0  0  0  0  0  0  0  0
    0.1690   59.9887   72.0937 H   0  0  0  0  0  0  0  0  0  0  0  0
    2.3848   67.1045   67.0244 H   0  0  0  0  0  0  0  0  0  0  0  0
    0.9081   67.1356   65.9721 H   0  0  0  0  0  0  0  0  0  0  0  0
    0.9370   69.7342   66.4719 H   0  0  0  0  0  0  0  0  0  0  0  0
    1.8384   67.9520   64.2277 H   0  0  0  0  0  0  0  0  0  0  0  0
    2.4089   69.2674   63.1203 H   0  0  0  0  0  0  0  0  0  0  0  0
    3.5822   66.5083   63.5755 H   0  0  0  0  0  0  0  0  0  0  0  0
    3.0200   67.3276   62.0297 H   0  0  0  0  0  0  0  0  0  0  0  0
    5.6588   67.1389   63.1032 H   0  0  0  0  0  0  0  0  0  0  0  0
    5.0391   67.9431   61.5772 H   0  0  0  0  0  0  0  0  0  0  0  0
    6.4370   69.3599   63.2097 H   0  0  0  0  0  0  0  0  0  0  0  0
    4.8786   70.0229   62.5801 H   0  0  0  0  0  0  0  0  0  0  0  0
    2.5857   69.7465   68.9086 H   0  0  0  0  0  0  0  0  0  0  0  0
    4.2321   70.6637   70.5306 H   0  0  0  0  0  0  0  0  0  0  0  0
    6.5306   71.2495   69.7614 H   0  0  0  0  0  0  0  0  0  0  0  0
    7.1645   70.8987   67.3878 H   0  0  0  0  0  0  0  0  0  0  0  0
  2  1  1  0
  4  3  2  0
  5  3  1  0
  5  2  1  0
  6  3  1  0
  7  6  1  0
  8  7  1  0
  9  8  1  0
 10  9  1  0
 11 10  1  0
 12 11  1  0
 13 12  1  0
 14 13  1  0
 14  9  1  0
 16 15  1  0
 16  8  1  0
 17  1  1  0
 18 17  1  0
 19 18  1  0
 20 19  1  0
 21 20  1  0
 22 21  1  0
 23 22  1  0
 24 23  1  0
 25 20  2  0
 25 24  1  0
 26 25  1  0
 27 26  2  0
 28 27  1  0
 28 19  2  0
 29 28  1  0
 30 29  2  0
 31 30  1  0
 32 31  2  0
 32 27  1  0
  1 33  1  0
  1 34  1  0
  2 35  1  0
  2 36  1  0
  5 37  1  0
  6 38  1  0
  6 39  1  0
  7 40  1  0
  7 41  1  0
  8 42  1  6
  9 43  1  0
 10 44  1  0
 10 45  1  0
 11 46  1  0
 11 47  1  0
 12 48  1  0
 12 49  1  0
 13 50  1  0
 13 51  1  0
 14 52  1  0
 14 53  1  0
 15 54  1  0
 15 55  1  0
 15 56  1  0
 16 57  1  0
 16 58  1  0
 17 59  1  0
 17 60  1  0
 18 61  1  0
 21 62  1  0
 21 63  1  0
 22 64  1  0
 22 65  1  0
 23 66  1  0
 23 67  1  0
 24 68  1  0
 24 69  1  0
 29 70  1  0
 30 71  1  0
 31 72  1  0
 32 73  1  0
M  CHG  1   8   1
M  END
>  <score>  (4) 
-11.138

$$$$
=
     RDKit          3D

 73 76  0  0  0  0  0  0  0  0999 V2000
    0.4620   67.4420   68.0390 C   0  0  0  0  0  0  0  0  0  0  0  0
    1.2990   67.1380   69.2780 C   0  0  0  0  0  0  0  0  0  0  0  0
    0.6210   65.1740   70.6190 C   0  0  0  0  0  0  0  0  0  0  0  0
   -0.0160   65.8300   71.4420 O   0  0  0  0  0  0  0  0  0  0  0  0
    1.3190   65.7130   69.5730 N   0  0  0  0  0  0  0  0  0  0  0  0
    0.7510   63.6750   70.7570 C   0  0  0  0  0  0  0  0  0  0  0  0
    1.9200   63.3090   71.6760 C   0  0  0  0  0  0  0  0  0  0  0  0
    2.8920   62.3090   71.0380 N   0  0  1  0  0  4  0  0  0  0  0  0
    2.9520   60.9480   71.7570 C   0  0  0  0  0  0  0  0  0  0  0  0
    3.5490   59.8700   70.8260 C   0  0  0  0  0  0  0  0  0  0  0  0
    3.1020   58.4420   71.1530 C   0  0  0  0  0  0  0  0  0  0  0  0
    2.7510   58.2810   72.6220 C   0  0  0  0  0  0  0  0  0  0  0  0
    1.6030   59.2060   73.0230 C   0  0  0  0  0  0  0  0  0  0  0  0
    1.5550   60.5100   72.2180 C   0  0  0  0  0  0  0  0  0  0  0  0
    3.7480   62.9350   68.7830 C   0  0  0  0  0  0  0  0  0  0  0  0
    2.6600   62.1930   69.5360 C   0  0  0  0  0  0  0  0  0  0  0  0
    1.3250   67.6430   66.7960 C   0  0  0  0  0  0  0  0  0  0  0  0
    1.6310   69.0660   66.5650 N   0  0  0  0  0  0  0  0  0  0  0  0
    3.0110   69.2960   66.2680 C   0  0  0  0  0  0  0  0  0  0  0  0
    3.4700   69.0520   64.9680 C   0  0  0  0  0  0  0  0  0  0  0  0
    2.6330   68.4630   63.8640 C   0  0  0  0  0  0  0  0  0  0  0  0
    3.4170   67.4190   63.0610 C   0  0  0  0  0  0  0  0  0  0  0  0
    4.8600   67.8160   62.7230 C   0  0  0  0  0  0  0  0  0  0  0  0
    5.2740   69.1870   63.2530 C   0  0  0  0  0  0  0  0  0  0  0  0
    4.7880   69.3850   64.6640 C   0  0  0  0  0  0  0  0  0  0  0  0
    5.6540   69.9060   65.5560 N   0  0  0  0  0  0  0  0  0  0  0  0
    5.2390   70.0870   66.8170 C   0  0  0  0  0  0  0  0  0  0  0  0
    3.9230   69.7980   67.2450 C   0  0  0  0  0  0  0  0  0  0  0  0
    3.5990   70.0190   68.6090 C   0  0  0  0  0  0  0  0  0  0  0  0
    4.5400   70.5160   69.5110 C   0  0  0  0  0  0  0  0  0  0  0  0
    5.8220   70.8030   69.0710 C   0  0  0  0  0  0  0  0  0  0  0  0
    6.1550   70.5840   67.7340 C   0  0  0  0  0  0  0  0  0  0  0  0
   -0.2256   66.6020   67.8610 H   0  0  0  0  0  0  0  0  0  0  0  0
   -0.0877   68.3767   68.2235 H   0  0  0  0  0  0  0  0  0  0  0  0
    2.3297   67.4817   69.1060 H   0  0  0  0  0  0  0  0  0  0  0  0
    0.8490   67.6610   70.1347 H   0  0  0  0  0  0  0  0  0  0  0  0
    1.8778   65.0889   68.9738 H   0  0  0  0  0  0  0  0  0  0  0  0
   -0.1801   63.2704   71.1805 H   0  0  0  0  0  0  0  0  0  0  0  0
    0.9393   63.2460   69.7618 H   0  0  0  0  0  0  0  0  0  0  0  0
    2.4732   64.2273   71.9225 H   0  0  0  0  0  0  0  0  0  0  0  0
    1.4975   62.8317   72.5725 H   0  0  0  0  0  0  0  0  0  0  0  0
    3.8369   62.6980   71.1678 H   0  0  0  0  0  0  0  0  0  0  0  0
    3.5978   61.0626   72.6401 H   0  0  0  0  0  0  0  0  0  0  0  0
    3.2455   60.0989   69.7938 H   0  0  0  0  0  0  0  0  0  0  0  0
    4.6397   59.9000   70.9655 H   0  0  0  0  0  0  0  0  0  0  0  0
    2.2167   58.1989   70.5471 H   0  0  0  0  0  0  0  0  0  0  0  0
    3.9368   57.7628   70.9255 H   0  0  0  0  0  0  0  0  0  0  0  0
    2.4525   57.2385   72.8069 H   0  0  0  0  0  0  0  0  0  0  0  0
    3.6350   58.5448   73.2211 H   0  0  0  0  0  0  0  0  0  0  0  0
    0.6549   58.6691   72.8719 H   0  0  0  0  0  0  0  0  0  0  0  0
    1.7644   59.4826   74.0754 H   0  0  0  0  0  0  0  0  0  0  0  0
    0.9194   60.3588   71.3331 H   0  0  0  0  0  0  0  0  0  0  0  0
    1.1472   61.2980   72.8682 H   0  0  0  0  0  0  0  0  0  0  0  0
    4.4363   63.4044   69.5013 H   0  0  0  0  0  0  0  0  0  0  0  0
    4.3044   62.2273   68.1508 H   0  0  0  0  0  0  0  0  0  0  0  0
    3.2923   63.7113   68.1508 H   0  0  0  0  0  0  0  0  0  0  0  0
    1.6815   62.6278   69.2841 H   0  0  0  0  0  0  0  0  0  0  0  0
    2.6823   61.1314   69.2486 H   0  0  0  0  0  0  0  0  0  0  0  0
    2.2686   67.0925   66.9251 H   0  0  0  0  0  0  0  0  0  0  0  0
    0.7641   67.2690   65.9268 H   0  0  0  0  0  0  0  0  0  0  0  0
    0.9259   69.8153   66.6124 H   0  0  0  0  0  0  0  0  0  0  0  0
    1.7465   67.9833   64.3045 H   0  0  0  0  0  0  0  0  0  0  0  0
    2.3404   69.2749   63.1819 H   0  0  0  0  0  0  0  0  0  0  0  0
    3.4467   66.4885   63.6470 H   0  0  0  0  0  0  0  0  0  0  0  0
    2.8930   67.3110   62.0999 H   0  0  0  0  0  0  0  0  0  0  0  0
    5.5349   67.0617   63.1538 H   0  0  0  0  0  0  0  0  0  0  0  0
    4.9238   67.8694   61.6262 H   0  0  0  0  0  0  0  0  0  0  0  0
    6.3712   69.2639   63.2356 H   0  0  0  0  0  0  0  0  0  0  0  0
    4.8251   69.9617   62.6140 H   0  0  0  0  0  0  0  0  0  0  0  0
    2.5823   69.7932   68.9631 H   0  0  0  0  0  0  0  0  0  0  0  0
    4.2661   70.6788   70.5638 H   0  0  0  0  0  0  0  0  0  0  0  0
    6.5718   71.2006   69.7707 H   0  0  0  0  0  0  0  0  0  0  0  0
    7.1764   70.8125   67.3956 H   0  0  0  0  0  0  0  0  0  0  0  0
  2  1  1  0
  4  3  2  0
  5  3  1  0
  5  2  1  0
  6  3  1  0
  7  6  1  0
  8  7  1  0
  9  8  1  0
 10  9  1  0
 11 10  1  0
 12 11  1  0
 13 12  1  0
 14 13  1  0
 14  9  1  0
 16 15  1  0
 16  8  1  0
 17  1  1  0
 18 17  1  0
 19 18  1  0
 20 19  1  0
 21 20  1  0
 22 21  1  0
 23 22  1  0
 24 23  1  0
 25 20  2  0
 25 24  1  0
 26 25  1  0
 27 26  2  0
 28 27  1  0
 28 19  2  0
 29 28  1  0
 30 29  2  0
 31 30  1  0
 32 31  2  0
 32 27  1  0
  1 33  1  0
  1 34  1  0
  2 35  1  0
  2 36  1  0
  5 37  1  0
  6 38  1  0
  6 39  1  0
  7 40  1  0
  7 41  1  0
  8 42  1  6
  9 43  1  0
 10 44  1  0
 10 45  1  0
 11 46  1  0
 11 47  1  0
 12 48  1  0
 12 49  1  0
 13 50  1  0
 13 51  1  0
 14 52  1  0
 14 53  1  0
 15 54  1  0
 15 55  1  0
 15 56  1  0
 16 57  1  0
 16 58  1  0
 17 59  1  0
 17 60  1  0
 18 61  1  0
 21 62  1  0
 21 63  1  0
 22 64  1  0
 22 65  1  0
 23 66  1  0
 23 67  1  0
 24 68  1  0
 24 69  1  0
 29 70  1  0
 30 71  1  0
 31 72  1  0
 32 73  1  0
M  CHG  1   8   1
M  END
>  <score>  (5) 
-11.103

$$$$
=
     RDKit          3D

 73 76  0  0  0  0  0  0  0  0999 V2000
    0.8880   66.0830   70.6170 C   0  0  0  0  0  0  0  0  0  0  0  0
   -0.1380   66.0740   69.4880 C   0  0  0  0  0  0  0  0  0  0  0  0
   -0.5170   67.3900   67.4290 C   0  0  0  0  0  0  0  0  0  0  0  0
   -1.7420   67.2830   67.4670 O   0  0  0  0  0  0  0  0  0  0  0  0
    0.3380   66.8120   68.3280 N   0  0  0  0  0  0  0  0  0  0  0  0
    0.1620   68.1280   66.3000 C   0  0  0  0  0  0  0  0  0  0  0  0
    1.5250   67.5060   65.9820 C   0  0  0  0  0  0  0  0  0  0  0  0
    2.5090   68.5070   65.3640 N   0  0  1  0  0  4  0  0  0  0  0  0
    3.6730   68.8970   66.2940 C   0  0  0  0  0  0  0  0  0  0  0  0
    3.1450   69.6350   67.5440 C   0  0  0  0  0  0  0  0  0  0  0  0
    4.1610   70.5840   68.1880 C   0  0  0  0  0  0  0  0  0  0  0  0
    5.5910   70.1420   67.9300 C   0  0  0  0  0  0  0  0  0  0  0  0
    5.9010   70.1120   66.4350 C   0  0  0  0  0  0  0  0  0  0  0  0
    4.6830   69.7920   65.5610 C   0  0  0  0  0  0  0  0  0  0  0  0
    2.0350   68.6260   62.9210 C   0  0  0  0  0  0  0  0  0  0  0  0
    2.9600   68.0580   63.9800 C   0  0  0  0  0  0  0  0  0  0  0  0
    0.7460   64.8730   71.5360 C   0  0  0  0  0  0  0  0  0  0  0  0
    0.2520   63.6890   70.8100 N   0  0  0  0  0  0  0  0  0  0  0  0
    0.8490   62.4710   71.2640 C   0  0  0  0  0  0  0  0  0  0  0  0
    2.1390   62.1470   70.8250 C   0  0  0  0  0  0  0  0  0  0  0  0
    2.9210   62.9450   69.8160 C   0  0  0  0  0  0  0  0  0  0  0  0
    3.6370   62.0340   68.8140 C   0  0  0  0  0  0  0  0  0  0  0  0
    4.3190   60.8060   69.4300 C   0  0  0  0  0  0  0  0  0  0  0  0
    4.1610   60.6950   70.9440 C   0  0  0  0  0  0  0  0  0  0  0  0
    2.7500   61.0160   71.3620 C   0  0  0  0  0  0  0  0  0  0  0  0
    2.1620   60.2030   72.2610 N   0  0  0  0  0  0  0  0  0  0  0  0
    0.9070   60.4730   72.6410 C   0  0  0  0  0  0  0  0  0  0  0  0
    0.1850   61.5960   72.1770 C   0  0  0  0  0  0  0  0  0  0  0  0
   -1.1450   61.7750   72.6400 C   0  0  0  0  0  0  0  0  0  0  0  0
   -1.7320   60.8820   73.5360 C   0  0  0  0  0  0  0  0  0  0  0  0
   -1.0050   59.7920   73.9880 C   0  0  0  0  0  0  0  0  0  0  0  0
    0.3010   59.6010   73.5360 C   0  0  0  0  0  0  0  0  0  0  0  0
    1.8969   66.0782   70.1786 H   0  0  0  0  0  0  0  0  0  0  0  0
    0.7175   66.9867   71.2205 H   0  0  0  0  0  0  0  0  0  0  0  0
   -0.3353   65.0329   69.1928 H   0  0  0  0  0  0  0  0  0  0  0  0
   -1.0558   66.5588   69.8523 H   0  0  0  0  0  0  0  0  0  0  0  0
    1.3530   66.9026   68.1782 H   0  0  0  0  0  0  0  0  0  0  0  0
   -0.4740   68.0791   65.4039 H   0  0  0  0  0  0  0  0  0  0  0  0
    0.3155   69.1734   66.6057 H   0  0  0  0  0  0  0  0  0  0  0  0
    1.9595   67.1172   66.9148 H   0  0  0  0  0  0  0  0  0  0  0  0
    1.3591   66.7078   65.2435 H   0  0  0  0  0  0  0  0  0  0  0  0
    1.9888   69.3872   65.2394 H   0  0  0  0  0  0  0  0  0  0  0  0
    4.1777   67.9708   66.6060 H   0  0  0  0  0  0  0  0  0  0  0  0
    2.2620   70.2220   67.2510 H   0  0  0  0  0  0  0  0  0  0  0  0
    2.9138   68.8633   68.2930 H   0  0  0  0  0  0  0  0  0  0  0  0
    4.0197   71.5922   67.7714 H   0  0  0  0  0  0  0  0  0  0  0  0
    3.9928   70.5771   69.2750 H   0  0  0  0  0  0  0  0  0  0  0  0
    6.2780   70.8446   68.4244 H   0  0  0  0  0  0  0  0  0  0  0  0
    5.7183   69.1259   68.3316 H   0  0  0  0  0  0  0  0  0  0  0  0
    6.2904   71.0978   66.1409 H   0  0  0  0  0  0  0  0  0  0  0  0
    6.6334   69.3072   66.2740 H   0  0  0  0  0  0  0  0  0  0  0  0
    4.1875   70.7338   65.2826 H   0  0  0  0  0  0  0  0  0  0  0  0
    5.0347   69.2512   64.6700 H   0  0  0  0  0  0  0  0  0  0  0  0
    1.1942   69.1423   63.4073 H   0  0  0  0  0  0  0  0  0  0  0  0
    2.5899   69.3392   62.2938 H   0  0  0  0  0  0  0  0  0  0  0  0
    1.6499   67.8085   62.2938 H   0  0  0  0  0  0  0  0  0  0  0  0
    2.9399   66.9593   63.9294 H   0  0  0  0  0  0  0  0  0  0  0  0
    3.9819   68.4223   63.7985 H   0  0  0  0  0  0  0  0  0  0  0  0
    1.7288   64.6393   71.9713 H   0  0  0  0  0  0  0  0  0  0  0  0
    0.0156   65.1228   72.3197 H   0  0  0  0  0  0  0  0  0  0  0  0
   -0.4484   63.7340   70.0561 H   0  0  0  0  0  0  0  0  0  0  0  0
    2.2311   63.6049   69.2697 H   0  0  0  0  0  0  0  0  0  0  0  0
    3.6805   63.5319   70.3533 H   0  0  0  0  0  0  0  0  0  0  0  0
    2.8953   61.6816   68.0821 H   0  0  0  0  0  0  0  0  0  0  0  0
    4.4385   62.6391   68.3652 H   0  0  0  0  0  0  0  0  0  0  0  0
    3.8861   59.9048   68.9712 H   0  0  0  0  0  0  0  0  0  0  0  0
    5.3960   60.9105   69.2319 H   0  0  0  0  0  0  0  0  0  0  0  0
    4.4049   59.6692   71.2573 H   0  0  0  0  0  0  0  0  0  0  0  0
    4.8416   61.4148   71.4221 H   0  0  0  0  0  0  0  0  0  0  0  0
   -1.7262   62.6383   72.2837 H   0  0  0  0  0  0  0  0  0  0  0  0
   -2.7641   61.0415   73.8814 H   0  0  0  0  0  0  0  0  0  0  0  0
   -1.4546   59.0824   74.6982 H   0  0  0  0  0  0  0  0  0  0  0  0
    0.8688   58.7321   73.9001 H   0  0  0  0  0  0  0  0  0  0  0  0
  2  1  1  0
  4  3  2  0
  5  3  1  0
  5  2  1  0
  6  3  1  0
  7  6  1  0
  8  7  1  0
  9  8  1  0
 10  9  1  0
 11 10  1  0
 12 11  1  0
 13 12  1  0
 14 13  1  0
 14  9  1  0
 16 15  1  0
 16  8  1  0
 17  1  1  0
 18 17  1  0
 19 18  1  0
 20 19  1  0
 21 20  1  0
 22 21  1  0
 23 22  1  0
 24 23  1  0
 25 20  2  0
 25 24  1  0
 26 25  1  0
 27 26  2  0
 28 27  1  0
 28 19  2  0
 29 28  1  0
 30 29  2  0
 31 30  1  0
 32 31  2  0
 32 27  1  0
  1 33  1  0
  1 34  1  0
  2 35  1  0
  2 36  1  0
  5 37  1  0
  6 38  1  0
  6 39  1  0
  7 40  1  0
  7 41  1  0
  8 42  1  6
  9 43  1  0
 10 44  1  0
 10 45  1  0
 11 46  1  0
 11 47  1  0
 12 48  1  0
 12 49  1  0
 13 50  1  0
 13 51  1  0
 14 52  1  0
 14 53  1  0
 15 54  1  0
 15 55  1  0
 15 56  1  0
 16 57  1  0
 16 58  1  0
 17 59  1  0
 17 60  1  0
 18 61  1  0
 21 62  1  0
 21 63  1  0
 22 64  1  0
 22 65  1  0
 23 66  1  0
 23 67  1  0
 24 68  1  0
 24 69  1  0
 29 70  1  0
 30 71  1  0
 31 72  1  0
 32 73  1  0
M  CHG  1   8   1
M  END
>  <score>  (6) 
-10.086

$$$$
=
     RDKit          3D

 73 76  0  0  0  0  0  0  0  0999 V2000
    0.0150   66.0770   69.8270 C   0  0  0  0  0  0  0  0  0  0  0  0
    1.0600   67.1470   69.5230 C   0  0  0  0  0  0  0  0  0  0  0  0
    0.8420   68.3170   67.3550 C   0  0  0  0  0  0  0  0  0  0  0  0
    0.1240   69.2120   67.7970 O   0  0  0  0  0  0  0  0  0  0  0  0
    1.3060   67.2620   68.0930 N   0  0  0  0  0  0  0  0  0  0  0  0
    1.2120   68.2710   65.8910 C   0  0  0  0  0  0  0  0  0  0  0  0
    2.6960   67.9340   65.7130 C   0  0  0  0  0  0  0  0  0  0  0  0
    3.5670   69.1760   65.4900 N   0  0  1  0  0  4  0  0  0  0  0  0
    4.5610   69.4570   66.6330 C   0  0  0  0  0  0  0  0  0  0  0  0
    3.8460   70.1470   67.8150 C   0  0  0  0  0  0  0  0  0  0  0  0
    4.7650   71.0100   68.6880 C   0  0  0  0  0  0  0  0  0  0  0  0
    6.2010   70.5150   68.6570 C   0  0  0  0  0  0  0  0  0  0  0  0
    6.7710   70.5550   67.2410 C   0  0  0  0  0  0  0  0  0  0  0  0
    5.7180   70.3430   66.1480 C   0  0  0  0  0  0  0  0  0  0  0  0
    4.3430   67.7310   63.6150 C   0  0  0  0  0  0  0  0  0  0  0  0
    4.2150   69.1580   64.1120 C   0  0  0  0  0  0  0  0  0  0  0  0
    0.5060   65.0690   70.8630 C   0  0  0  0  0  0  0  0  0  0  0  0
    0.4080   63.6840   70.3690 N   0  0  0  0  0  0  0  0  0  0  0  0
    1.1530   62.7580   71.1650 C   0  0  0  0  0  0  0  0  0  0  0  0
    0.4570   61.8760   72.0010 C   0  0  0  0  0  0  0  0  0  0  0  0
   -1.0340   61.8930   72.2070 C   0  0  0  0  0  0  0  0  0  0  0  0
   -1.4000   61.7000   73.6820 C   0  0  0  0  0  0  0  0  0  0  0  0
   -0.5960   60.6140   74.4090 C   0  0  0  0  0  0  0  0  0  0  0  0
    0.4420   59.9120   73.5370 C   0  0  0  0  0  0  0  0  0  0  0  0
    1.1870   60.9060   72.6850 C   0  0  0  0  0  0  0  0  0  0  0  0
    2.5270   60.7840   72.6070 N   0  0  0  0  0  0  0  0  0  0  0  0
    3.2050   61.6610   71.8550 C   0  0  0  0  0  0  0  0  0  0  0  0
    2.5770   62.6820   71.1050 C   0  0  0  0  0  0  0  0  0  0  0  0
    3.3990   63.5620   70.3540 C   0  0  0  0  0  0  0  0  0  0  0  0
    4.7880   63.4280   70.3380 C   0  0  0  0  0  0  0  0  0  0  0  0
    5.3840   62.4150   71.0710 C   0  0  0  0  0  0  0  0  0  0  0  0
    4.5880   61.5470   71.8190 C   0  0  0  0  0  0  0  0  0  0  0  0
   -0.8919   66.5667   70.2113 H   0  0  0  0  0  0  0  0  0  0  0  0
   -0.1896   65.5304   68.8946 H   0  0  0  0  0  0  0  0  0  0  0  0
    0.7013   68.1150   69.9029 H   0  0  0  0  0  0  0  0  0  0  0  0
    2.0017   66.8585   70.0129 H   0  0  0  0  0  0  0  0  0  0  0  0
    1.8477   66.5243   67.6205 H   0  0  0  0  0  0  0  0  0  0  0  0
    0.6054   67.5021   65.3901 H   0  0  0  0  0  0  0  0  0  0  0  0
    1.0204   69.2597   65.4486 H   0  0  0  0  0  0  0  0  0  0  0  0
    3.0490   67.4153   66.6165 H   0  0  0  0  0  0  0  0  0  0  0  0
    2.7860   67.3023   64.8170 H   0  0  0  0  0  0  0  0  0  0  0  0
    2.9306   69.9856   65.5122 H   0  0  0  0  0  0  0  0  0  0  0  0
    4.9682   68.4917   66.9683 H   0  0  0  0  0  0  0  0  0  0  0  0
    3.0514   70.7905   67.4094 H   0  0  0  0  0  0  0  0  0  0  0  0
    3.4574   69.3457   68.4607 H   0  0  0  0  0  0  0  0  0  0  0  0
    4.7374   72.0457   68.3186 H   0  0  0  0  0  0  0  0  0  0  0  0
    4.4053   70.9506   69.7258 H   0  0  0  0  0  0  0  0  0  0  0  0
    6.8146   71.1545   69.3085 H   0  0  0  0  0  0  0  0  0  0  0  0
    6.2167   69.4727   69.0084 H   0  0  0  0  0  0  0  0  0  0  0  0
    7.2423   71.5364   67.0838 H   0  0  0  0  0  0  0  0  0  0  0  0
    7.4903   69.7267   67.1600 H   0  0  0  0  0  0  0  0  0  0  0  0
    5.3151   71.3215   65.8475 H   0  0  0  0  0  0  0  0  0  0  0  0
    6.2031   69.8372   65.3002 H   0  0  0  0  0  0  0  0  0  0  0  0
    4.4043   67.0474   64.4746 H   0  0  0  0  0  0  0  0  0  0  0  0
    3.4642   67.4750   63.0049 H   0  0  0  0  0  0  0  0  0  0  0  0
    5.2533   67.6355   63.0049 H   0  0  0  0  0  0  0  0  0  0  0  0
    5.2147   69.6127   64.1741 H   0  0  0  0  0  0  0  0  0  0  0  0
    3.5873   69.7283   63.4115 H   0  0  0  0  0  0  0  0  0  0  0  0
    1.5570   65.2880   71.1025 H   0  0  0  0  0  0  0  0  0  0  0  0
   -0.1302   65.1592   71.7558 H   0  0  0  0  0  0  0  0  0  0  0  0
   -0.1384   63.4119   69.5394 H   0  0  0  0  0  0  0  0  0  0  0  0
   -1.4311   62.8597   71.8639 H   0  0  0  0  0  0  0  0  0  0  0  0
   -1.4710   61.0634   71.6319 H   0  0  0  0  0  0  0  0  0  0  0  0
   -1.2345   62.6545   74.2031 H   0  0  0  0  0  0  0  0  0  0  0  0
   -2.4496   61.3714   73.6996 H   0  0  0  0  0  0  0  0  0  0  0  0
   -0.0743   61.0812   75.2573 H   0  0  0  0  0  0  0  0  0  0  0  0
   -1.3169   59.8445   74.7223 H   0  0  0  0  0  0  0  0  0  0  0  0
    1.1579   59.3835   74.1837 H   0  0  0  0  0  0  0  0  0  0  0  0
   -0.0759   59.2007   72.8768 H   0  0  0  0  0  0  0  0  0  0  0  0
    2.9304   64.3685   69.7709 H   0  0  0  0  0  0  0  0  0  0  0  0
    5.4049   64.1216   69.7478 H   0  0  0  0  0  0  0  0  0  0  0  0
    6.4775   62.2957   71.0634 H   0  0  0  0  0  0  0  0  0  0  0  0
    5.0717   60.7469   72.3986 H   0  0  0  0  0  0  0  0  0  0  0  0
  2  1  1  0
  4  3  2  0
  5  3  1  0
  5  2  1  0
  6  3  1  0
  7  6  1  0
  8  7  1  0
  9  8  1  0
 10  9  1  0
 11 10  1  0
 12 11  1  0
 13 12  1  0
 14 13  1  0
 14  9  1  0
 16 15  1  0
 16  8  1  0
 17  1  1  0
 18 17  1  0
 19 18  1  0
 20 19  1  0
 21 20  1  0
 22 21  1  0
 23 22  1  0
 24 23  1  0
 25 20  2  0
 25 24  1  0
 26 25  1  0
 27 26  2  0
 28 27  1  0
 28 19  2  0
 29 28  1  0
 30 29  2  0
 31 30  1  0
 32 31  2  0
 32 27  1  0
  1 33  1  0
  1 34  1  0
  2 35  1  0
  2 36  1  0
  5 37  1  0
  6 38  1  0
  6 39  1  0
  7 40  1  0
  7 41  1  0
  8 42  1  6
  9 43  1  0
 10 44  1  0
 10 45  1  0
 11 46  1  0
 11 47  1  0
 12 48  1  0
 12 49  1  0
 13 50  1  0
 13 51  1  0
 14 52  1  0
 14 53  1  0
 15 54  1  0
 15 55  1  0
 15 56  1  0
 16 57  1  0
 16 58  1  0
 17 59  1  0
 17 60  1  0
 18 61  1  0
 21 62  1  0
 21 63  1  0
 22 64  1  0
 22 65  1  0
 23 66  1  0
 23 67  1  0
 24 68  1  0
 24 69  1  0
 29 70  1  0
 30 71  1  0
 31 72  1  0
 32 73  1  0
M  CHG  1   8   1
M  END
>  <score>  (7) 
-10.0

$$$$
=
     RDKit          3D

 73 76  0  0  0  0  0  0  0  0999 V2000
    1.5760   67.3160   69.4490 C   0  0  0  0  0  0  0  0  0  0  0  0
    1.2140   65.9560   70.0370 C   0  0  0  0  0  0  0  0  0  0  0  0
    2.3290   63.7590   70.2530 C   0  0  0  0  0  0  0  0  0  0  0  0
    1.8800   63.5290   71.3740 O   0  0  0  0  0  0  0  0  0  0  0  0
    2.1010   64.9100   69.5490 N   0  0  0  0  0  0  0  0  0  0  0  0
    3.2660   62.7850   69.5780 C   0  0  0  0  0  0  0  0  0  0  0  0
    2.8280   61.3390   69.8340 C   0  0  0  0  0  0  0  0  0  0  0  0
    3.3070   60.8000   71.1870 N   0  0  1  0  0  4  0  0  0  0  0  0
    2.4930   59.6010   71.7080 C   0  0  0  0  0  0  0  0  0  0  0  0
    2.2310   59.7410   73.2230 C   0  0  0  0  0  0  0  0  0  0  0  0
    2.0150   58.4090   73.9490 C   0  0  0  0  0  0  0  0  0  0  0  0
    1.4470   57.3470   73.0220 C   0  0  0  0  0  0  0  0  0  0  0  0
    2.3920   57.0660   71.8560 C   0  0  0  0  0  0  0  0  0  0  0  0
    3.2280   58.2800   71.4360 C   0  0  0  0  0  0  0  0  0  0  0  0
    5.4660   61.3420   72.3070 C   0  0  0  0  0  0  0  0  0  0  0  0
    4.8110   60.5580   71.1850 C   0  0  0  0  0  0  0  0  0  0  0  0
    0.5620   67.7830   68.4090 C   0  0  0  0  0  0  0  0  0  0  0  0
    0.9120   69.1040   67.8550 N   0  0  0  0  0  0  0  0  0  0  0  0
    2.1920   69.1170   67.2180 C   0  0  0  0  0  0  0  0  0  0  0  0
    2.3340   68.4790   65.9790 C   0  0  0  0  0  0  0  0  0  0  0  0
    1.2520   67.6830   65.3000 C   0  0  0  0  0  0  0  0  0  0  0  0
    1.8050   66.3910   64.6890 C   0  0  0  0  0  0  0  0  0  0  0  0
    3.1410   66.5470   63.9510 C   0  0  0  0  0  0  0  0  0  0  0  0
    3.6990   67.9680   63.9560 C   0  0  0  0  0  0  0  0  0  0  0  0
    3.5550   68.5950   65.3180 C   0  0  0  0  0  0  0  0  0  0  0  0
    4.6150   69.2640   65.8140 N   0  0  0  0  0  0  0  0  0  0  0  0
    4.5050   69.8260   67.0250 C   0  0  0  0  0  0  0  0  0  0  0  0
    3.3150   69.7880   67.7880 C   0  0  0  0  0  0  0  0  0  0  0  0
    3.3190   70.4080   69.0650 C   0  0  0  0  0  0  0  0  0  0  0  0
    4.4540   71.0510   69.5610 C   0  0  0  0  0  0  0  0  0  0  0  0
    5.6080   71.0870   68.7940 C   0  0  0  0  0  0  0  0  0  0  0  0
    5.6190   70.4750   67.5400 C   0  0  0  0  0  0  0  0  0  0  0  0
    1.6144   68.0549   70.2630 H   0  0  0  0  0  0  0  0  0  0  0  0
    2.5514   67.2191   68.9497 H   0  0  0  0  0  0  0  0  0  0  0  0
    1.2922   66.0083   71.1330 H   0  0  0  0  0  0  0  0  0  0  0  0
    0.1873   65.7092   69.7287 H   0  0  0  0  0  0  0  0  0  0  0  0
    2.5731   65.0407   68.6429 H   0  0  0  0  0  0  0  0  0  0  0  0
    3.2644   62.9755   68.4946 H   0  0  0  0  0  0  0  0  0  0  0  0
    4.2759   62.9249   69.9909 H   0  0  0  0  0  0  0  0  0  0  0  0
    1.7292   61.2955   69.8082 H   0  0  0  0  0  0  0  0  0  0  0  0
    3.2815   60.7137   69.0508 H   0  0  0  0  0  0  0  0  0  0  0  0
    3.1218   61.5415   71.8774 H   0  0  0  0  0  0  0  0  0  0  0  0
    1.5318   59.5904   71.1732 H   0  0  0  0  0  0  0  0  0  0  0  0
    3.0965   60.2452   73.6776 H   0  0  0  0  0  0  0  0  0  0  0  0
    1.2985   60.3145   73.3308 H   0  0  0  0  0  0  0  0  0  0  0  0
    2.9799   58.0580   74.3438 H   0  0  0  0  0  0  0  0  0  0  0  0
    1.2926   58.5756   74.7616 H   0  0  0  0  0  0  0  0  0  0  0  0
    1.2946   56.4184   73.5916 H   0  0  0  0  0  0  0  0  0  0  0  0
    0.4934   57.7148   72.6154 H   0  0  0  0  0  0  0  0  0  0  0  0
    3.0771   56.2575   72.1509 H   0  0  0  0  0  0  0  0  0  0  0  0
    1.7667   56.7916   70.9936 H   0  0  0  0  0  0  0  0  0  0  0  0
    4.1718   58.2749   72.0010 H   0  0  0  0  0  0  0  0  0  0  0  0
    3.4141   58.2090   70.3542 H   0  0  0  0  0  0  0  0  0  0  0  0
    5.1326   60.9430   73.2763 H   0  0  0  0  0  0  0  0  0  0  0  0
    6.5594   61.2498   72.2290 H   0  0  0  0  0  0  0  0  0  0  0  0
    5.1808   62.4015   72.2290 H   0  0  0  0  0  0  0  0  0  0  0  0
    5.2305   60.8823   70.2212 H   0  0  0  0  0  0  0  0  0  0  0  0
    5.0036   59.4854   71.3347 H   0  0  0  0  0  0  0  0  0  0  0  0
    0.5303   67.0504   67.5890 H   0  0  0  0  0  0  0  0  0  0  0  0
   -0.4176   67.8685   68.9020 H   0  0  0  0  0  0  0  0  0  0  0  0
    0.2995   69.9296   67.9200 H   0  0  0  0  0  0  0  0  0  0  0  0
    0.4793   67.4265   66.0397 H   0  0  0  0  0  0  0  0  0  0  0  0
    0.8301   68.2952   64.4894 H   0  0  0  0  0  0  0  0  0  0  0  0
    1.9458   65.6619   65.5006 H   0  0  0  0  0  0  0  0  0  0  0  0
    1.0719   66.0669   63.9357 H   0  0  0  0  0  0  0  0  0  0  0  0
    3.8783   65.8856   64.4296 H   0  0  0  0  0  0  0  0  0  0  0  0
    2.9523   66.2863   62.8991 H   0  0  0  0  0  0  0  0  0  0  0  0
    4.7644   67.9379   63.6837 H   0  0  0  0  0  0  0  0  0  0  0  0
    3.1346   68.5707   63.2292 H   0  0  0  0  0  0  0  0  0  0  0  0
    2.4060   70.3810   69.6780 H   0  0  0  0  0  0  0  0  0  0  0  0
    4.4330   71.5256   70.5531 H   0  0  0  0  0  0  0  0  0  0  0  0
    6.5083   71.5942   69.1710 H   0  0  0  0  0  0  0  0  0  0  0  0
    6.5403   70.5079   66.9400 H   0  0  0  0  0  0  0  0  0  0  0  0
  2  1  1  0
  4  3  2  0
  5  3  1  0
  5  2  1  0
  6  3  1  0
  7  6  1  0
  8  7  1  0
  9  8  1  0
 10  9  1  0
 11 10  1  0
 12 11  1  0
 13 12  1  0
 14 13  1  0
 14  9  1  0
 16 15  1  0
 16  8  1  0
 17  1  1  0
 18 17  1  0
 19 18  1  0
 20 19  1  0
 21 20  1  0
 22 21  1  0
 23 22  1  0
 24 23  1  0
 25 20  2  0
 25 24  1  0
 26 25  1  0
 27 26  2  0
 28 27  1  0
 28 19  2  0
 29 28  1  0
 30 29  2  0
 31 30  1  0
 32 31  2  0
 32 27  1  0
  1 33  1  0
  1 34  1  0
  2 35  1  0
  2 36  1  0
  5 37  1  0
  6 38  1  0
  6 39  1  0
  7 40  1  0
  7 41  1  0
  8 42  1  1
  9 43  1  0
 10 44  1  0
 10 45  1  0
 11 46  1  0
 11 47  1  0
 12 48  1  0
 12 49  1  0
 13 50  1  0
 13 51  1  0
 14 52  1  0
 14 53  1  0
 15 54  1  0
 15 55  1  0
 15 56  1  0
 16 57  1  0
 16 58  1  0
 17 59  1  0
 17 60  1  0
 18 61  1  0
 21 62  1  0
 21 63  1  0
 22 64  1  0
 22 65  1  0
 23 66  1  0
 23 67  1  0
 24 68  1  0
 24 69  1  0
 29 70  1  0
 30 71  1  0
 31 72  1  0
 32 73  1  0
M  CHG  1   8   1
M  END
>  <score>  (8) 
-9.947

$$$$
=
     RDKit          3D

 73 76  0  0  0  0  0  0  0  0999 V2000
    1.0760   66.9810   68.3070 C   0  0  0  0  0  0  0  0  0  0  0  0
    0.8340   66.4200   69.7040 C   0  0  0  0  0  0  0  0  0  0  0  0
    1.9880   64.3010   70.2470 C   0  0  0  0  0  0  0  0  0  0  0  0
    1.0210   63.5890   69.9810 O   0  0  0  0  0  0  0  0  0  0  0  0
    1.9840   65.6680   70.1850 N   0  0  0  0  0  0  0  0  0  0  0  0
    3.2770   63.6990   70.7560 C   0  0  0  0  0  0  0  0  0  0  0  0
    3.0850   62.2220   71.1170 C   0  0  0  0  0  0  0  0  0  0  0  0
    3.3970   61.9220   72.5880 N   0  0  1  0  0  4  0  0  0  0  0  0
    2.1660   61.5080   73.4170 C   0  0  0  0  0  0  0  0  0  0  0  0
    1.4860   60.2690   72.7950 C   0  0  0  0  0  0  0  0  0  0  0  0
   -0.0080   60.1470   73.1120 C   0  0  0  0  0  0  0  0  0  0  0  0
   -0.3610   60.8120   74.4320 C   0  0  0  0  0  0  0  0  0  0  0  0
   -0.0350   62.3030   74.4070 C   0  0  0  0  0  0  0  0  0  0  0  0
    1.1520   62.6580   73.5050 C   0  0  0  0  0  0  0  0  0  0  0  0
    5.2980   60.8410   71.3950 C   0  0  0  0  0  0  0  0  0  0  0  0
    4.5710   60.9610   72.7210 C   0  0  0  0  0  0  0  0  0  0  0  0
    1.4450   68.4620   68.3370 C   0  0  0  0  0  0  0  0  0  0  0  0
    1.3670   69.0740   66.9980 N   0  0  0  0  0  0  0  0  0  0  0  0
    2.6530   69.3100   66.4200 C   0  0  0  0  0  0  0  0  0  0  0  0
    3.6970   69.7380   67.2500 C   0  0  0  0  0  0  0  0  0  0  0  0
    3.5450   70.0710   68.7100 C   0  0  0  0  0  0  0  0  0  0  0  0
    4.3180   71.3410   69.0800 C   0  0  0  0  0  0  0  0  0  0  0  0
    5.7240   71.4400   68.4730 C   0  0  0  0  0  0  0  0  0  0  0  0
    6.1120   70.2540   67.5930 C   0  0  0  0  0  0  0  0  0  0  0  0
    4.9700   69.8560   66.6950 C   0  0  0  0  0  0  0  0  0  0  0  0
    5.2490   69.6060   65.4010 N   0  0  0  0  0  0  0  0  0  0  0  0
    4.2450   69.2530   64.5880 C   0  0  0  0  0  0  0  0  0  0  0  0
    2.9130   69.0880   65.0330 C   0  0  0  0  0  0  0  0  0  0  0  0
    1.9290   68.7230   64.0790 C   0  0  0  0  0  0  0  0  0  0  0  0
    2.2530   68.5190   62.7370 C   0  0  0  0  0  0  0  0  0  0  0  0
    3.5660   68.6750   62.3210 C   0  0  0  0  0  0  0  0  0  0  0  0
    4.5420   69.0400   63.2490 C   0  0  0  0  0  0  0  0  0  0  0  0
    1.8978   66.4205   67.8375 H   0  0  0  0  0  0  0  0  0  0  0  0
    0.1425   66.8768   67.7346 H   0  0  0  0  0  0  0  0  0  0  0  0
    0.6380   67.2535   70.3946 H   0  0  0  0  0  0  0  0  0  0  0  0
   -0.0281   65.7385   69.6570 H   0  0  0  0  0  0  0  0  0  0  0  0
    2.8231   66.1823   70.4889 H   0  0  0  0  0  0  0  0  0  0  0  0
    4.0466   63.7817   69.9744 H   0  0  0  0  0  0  0  0  0  0  0  0
    3.5872   64.2444   71.6595 H   0  0  0  0  0  0  0  0  0  0  0  0
    2.0397   61.9446   70.9163 H   0  0  0  0  0  0  0  0  0  0  0  0
    3.7881   61.6384   70.5047 H   0  0  0  0  0  0  0  0  0  0  0  0
    3.6904   62.8141   73.0111 H   0  0  0  0  0  0  0  0  0  0  0  0
    2.5124   61.2610   74.4314 H   0  0  0  0  0  0  0  0  0  0  0  0
    1.6036   60.3230   71.7026 H   0  0  0  0  0  0  0  0  0  0  0  0
    1.9752   59.3866   73.2333 H   0  0  0  0  0  0  0  0  0  0  0  0
   -0.5832   60.6269   72.3065 H   0  0  0  0  0  0  0  0  0  0  0  0
   -0.2545   59.0779   73.1911 H   0  0  0  0  0  0  0  0  0  0  0  0
   -1.4370   60.6837   74.6213 H   0  0  0  0  0  0  0  0  0  0  0  0
    0.2335   60.3401   75.2282 H   0  0  0  0  0  0  0  0  0  0  0  0
   -0.9206   62.8463   74.0457 H   0  0  0  0  0  0  0  0  0  0  0  0
    0.2429   62.5890   75.4322 H   0  0  0  0  0  0  0  0  0  0  0  0
    0.7775   62.8804   72.4949 H   0  0  0  0  0  0  0  0  0  0  0  0
    1.6619   63.5307   73.9390 H   0  0  0  0  0  0  0  0  0  0  0  0
    6.3681   60.6644   71.5782 H   0  0  0  0  0  0  0  0  0  0  0  0
    4.8802   59.9997   70.8226 H   0  0  0  0  0  0  0  0  0  0  0  0
    5.1728   61.7720   70.8226 H   0  0  0  0  0  0  0  0  0  0  0  0
    4.1986   59.9709   73.0228 H   0  0  0  0  0  0  0  0  0  0  0  0
    5.2676   61.3458   73.4804 H   0  0  0  0  0  0  0  0  0  0  0  0
    0.7515   68.9880   69.0096 H   0  0  0  0  0  0  0  0  0  0  0  0
    2.4826   68.5482   68.6919 H   0  0  0  0  0  0  0  0  0  0  0  0
    0.4801   69.3068   66.5288 H   0  0  0  0  0  0  0  0  0  0  0  0
    2.4787   70.2241   68.9325 H   0  0  0  0  0  0  0  0  0  0  0  0
    3.9520   69.2356   69.2986 H   0  0  0  0  0  0  0  0  0  0  0  0
    3.7353   72.2083   68.7362 H   0  0  0  0  0  0  0  0  0  0  0  0
    4.4537   71.3133   70.1712 H   0  0  0  0  0  0  0  0  0  0  0  0
    5.7721   72.3532   67.8616 H   0  0  0  0  0  0  0  0  0  0  0  0
    6.4313   71.4526   69.3154 H   0  0  0  0  0  0  0  0  0  0  0  0
    6.9772   70.5327   66.9736 H   0  0  0  0  0  0  0  0  0  0  0  0
    6.3631   69.4018   68.2416 H   0  0  0  0  0  0  0  0  0  0  0  0
    0.8858   68.5978   64.4046 H   0  0  0  0  0  0  0  0  0  0  0  0
    1.4726   68.2366   62.0150 H   0  0  0  0  0  0  0  0  0  0  0  0
    3.8365   68.5123   61.2673 H   0  0  0  0  0  0  0  0  0  0  0  0
    5.5807   69.1629   62.9083 H   0  0  0  0  0  0  0  0  0  0  0  0
  2  1  1  0
  4  3  2  0
  5  3  1  0
  5  2  1  0
  6  3  1  0
  7  6  1  0
  8  7  1  0
  9  8  1  0
 10  9  1  0
 11 10  1  0
 12 11  1  0
 13 12  1  0
 14 13  1  0
 14  9  1  0
 16 15  1  0
 16  8  1  0
 17  1  1  0
 18 17  1  0
 19 18  1  0
 20 19  1  0
 21 20  1  0
 22 21  1  0
 23 22  1  0
 24 23  1  0
 25 20  2  0
 25 24  1  0
 26 25  1  0
 27 26  2  0
 28 27  1  0
 28 19  2  0
 29 28  1  0
 30 29  2  0
 31 30  1  0
 32 31  2  0
 32 27  1  0
  1 33  1  0
  1 34  1  0
  2 35  1  0
  2 36  1  0
  5 37  1  0
  6 38  1  0
  6 39  1  0
  7 40  1  0
  7 41  1  0
  8 42  1  1
  9 43  1  0
 10 44  1  0
 10 45  1  0
 11 46  1  0
 11 47  1  0
 12 48  1  0
 12 49  1  0
 13 50  1  0
 13 51  1  0
 14 52  1  0
 14 53  1  0
 15 54  1  0
 15 55  1  0
 15 56  1  0
 16 57  1  0
 16 58  1  0
 17 59  1  0
 17 60  1  0
 18 61  1  0
 21 62  1  0
 21 63  1  0
 22 64  1  0
 22 65  1  0
 23 66  1  0
 23 67  1  0
 24 68  1  0
 24 69  1  0
 29 70  1  0
 30 71  1  0
 31 72  1  0
 32 73  1  0
M  CHG  1   8   1
M  END
>  <score>  (9) 
-9.659

$$$$
