=
     RDKit          3D

 32 33  0  0  0  0  0  0  0  0999 V2000
    1.1890   67.2350   65.9570 S   0  0  0  0  0  6  0  0  0  0  0  0
    2.2590   66.2830   65.7310 O   0  0  0  0  0  0  0  0  0  0  0  0
   -0.0850   66.8170   66.5060 O   0  0  0  0  0  0  0  0  0  0  0  0
    0.1070   70.0710   60.6980 C   0  0  0  0  0  0  0  0  0  0  0  0
    0.3650   69.3440   61.9850 C   0  0  0  0  0  0  0  0  0  0  0  0
   -0.5960   69.3480   63.0060 C   0  0  0  0  0  0  0  0  0  0  0  0
   -0.3440   68.7030   64.2180 C   0  0  0  0  0  0  0  0  0  0  0  0
    0.8770   68.0510   64.4090 C   0  0  0  0  0  0  0  0  0  0  0  0
    1.8570   68.0630   63.4130 C   0  0  0  0  0  0  0  0  0  0  0  0
    1.5970   68.7100   62.2040 C   0  0  0  0  0  0  0  0  0  0  0  0
    1.9370   68.7640   67.1600 S   0  0  0  0  0  0  0  0  0  0  0  0
    3.3090   69.3930   66.1680 C   0  0  0  0  0  0  0  0  0  0  0  0
    4.4610   69.8550   67.0260 C   0  0  0  0  0  0  0  0  0  0  0  0
    5.7720   69.8500   66.5230 C   0  0  0  0  0  0  0  0  0  0  0  0
    6.8360   70.2910   67.3120 C   0  0  0  0  0  0  0  0  0  0  0  0
    6.5960   70.7460   68.6060 C   0  0  0  0  0  0  0  0  0  0  0  0
    5.3010   70.7660   69.1180 C   0  0  0  0  0  0  0  0  0  0  0  0
    4.2360   70.3240   68.3290 C   0  0  0  0  0  0  0  0  0  0  0  0
    7.9080   71.2890   69.5790 Cl  0  0  0  0  0  0  0  0  0  0  0  0
   -0.2535   71.0870   60.9167 H   0  0  0  0  0  0  0  0  0  0  0  0
    1.0391   70.1299   60.1169 H   0  0  0  0  0  0  0  0  0  0  0  0
   -0.6537   69.5291   60.1169 H   0  0  0  0  0  0  0  0  0  0  0  0
   -1.5554   69.8631   62.8508 H   0  0  0  0  0  0  0  0  0  0  0  0
   -1.1006   68.7080   65.0164 H   0  0  0  0  0  0  0  0  0  0  0  0
    2.8245   67.5671   63.5803 H   0  0  0  0  0  0  0  0  0  0  0  0
    2.3646   68.7229   61.4162 H   0  0  0  0  0  0  0  0  0  0  0  0
    3.6615   68.5924   65.5011 H   0  0  0  0  0  0  0  0  0  0  0  0
    2.9449   70.2575   65.5935 H   0  0  0  0  0  0  0  0  0  0  0  0
    5.9622   69.4958   65.4991 H   0  0  0  0  0  0  0  0  0  0  0  0
    7.8609   70.2791   66.9127 H   0  0  0  0  0  0  0  0  0  0  0  0
    5.1172   71.1286   70.1401 H   0  0  0  0  0  0  0  0  0  0  0  0
    3.2129   70.3439   68.7326 H   0  0  0  0  0  0  0  0  0  0  0  0
  2  1  2  0
  3  1  2  0
  5  4  1  0
  6  5  2  0
  7  6  1  0
  8  7  2  0
  8  1  1  0
  9  8  1  0
 10  9  2  0
 10  5  1  0
 11  1  1  0
 12 11  1  0
 13 12  1  0
 14 13  2  0
 15 14  1  0
 16 15  2  0
 17 16  1  0
 18 17  2  0
 18 13  1  0
 19 16  1  0
  4 20  1  0
  4 21  1  0
  4 22  1  0
  6 23  1  0
  7 24  1  0
  9 25  1  0
 10 26  1  0
 12 27  1  0
 12 28  1  0
 14 29  1  0
 15 30  1  0
 17 31  1  0
 18 32  1  0
M  END
>  <score>  (1) 
-9.643

$$$$
=
     RDKit          3D

 32 33  0  0  0  0  0  0  0  0999 V2000
   -0.2830   68.1030   66.5220 S   0  0  0  0  0  6  0  0  0  0  0  0
   -0.8350   66.7620   66.5030 O   0  0  0  0  0  0  0  0  0  0  0  0
   -1.1380   69.2640   66.6700 O   0  0  0  0  0  0  0  0  0  0  0  0
    2.9530   68.7350   61.4240 C   0  0  0  0  0  0  0  0  0  0  0  0
    2.1610   68.6070   62.6920 C   0  0  0  0  0  0  0  0  0  0  0  0
    2.7150   67.9670   63.8110 C   0  0  0  0  0  0  0  0  0  0  0  0
    1.9680   67.8140   64.9800 C   0  0  0  0  0  0  0  0  0  0  0  0
    0.6600   68.3050   65.0300 C   0  0  0  0  0  0  0  0  0  0  0  0
    0.0850   68.9180   63.9150 C   0  0  0  0  0  0  0  0  0  0  0  0
    0.8380   69.0670   62.7490 C   0  0  0  0  0  0  0  0  0  0  0  0
    1.1660   68.1770   68.0180 S   0  0  0  0  0  0  0  0  0  0  0  0
    1.6140   69.9270   68.0280 C   0  0  0  0  0  0  0  0  0  0  0  0
    3.1000   70.1290   68.1960 C   0  0  0  0  0  0  0  0  0  0  0  0
    3.9830   69.8320   67.1460 C   0  0  0  0  0  0  0  0  0  0  0  0
    5.3560   70.0320   67.2970 C   0  0  0  0  0  0  0  0  0  0  0  0
    5.8560   70.5350   68.4950 C   0  0  0  0  0  0  0  0  0  0  0  0
    4.9930   70.8430   69.5450 C   0  0  0  0  0  0  0  0  0  0  0  0
    3.6180   70.6430   69.3940 C   0  0  0  0  0  0  0  0  0  0  0  0
    7.5480   70.7810   68.6810 Cl  0  0  0  0  0  0  0  0  0  0  0  0
    4.0117   68.9061   61.6687 H   0  0  0  0  0  0  0  0  0  0  0  0
    2.8572   67.8097   60.8369 H   0  0  0  0  0  0  0  0  0  0  0  0
    2.5707   69.5830   60.8369 H   0  0  0  0  0  0  0  0  0  0  0  0
    3.7449   67.5833   63.7666 H   0  0  0  0  0  0  0  0  0  0  0  0
    2.4050   67.3110   65.8552 H   0  0  0  0  0  0  0  0  0  0  0  0
   -0.9528   69.2805   63.9550 H   0  0  0  0  0  0  0  0  0  0  0  0
    0.3896   69.5492   61.8679 H   0  0  0  0  0  0  0  0  0  0  0  0
    1.2994   70.3796   67.0761 H   0  0  0  0  0  0  0  0  0  0  0  0
    1.1078   70.4025   68.8810 H   0  0  0  0  0  0  0  0  0  0  0  0
    3.5898   69.4386   66.1970 H   0  0  0  0  0  0  0  0  0  0  0  0
    6.0418   69.7926   66.4709 H   0  0  0  0  0  0  0  0  0  0  0  0
    5.3925   71.2420   70.4890 H   0  0  0  0  0  0  0  0  0  0  0  0
    2.9366   70.8906   70.2212 H   0  0  0  0  0  0  0  0  0  0  0  0
  2  1  2  0
  3  1  2  0
  5  4  1  0
  6  5  2  0
  7  6  1  0
  8  7  2  0
  8  1  1  0
  9  8  1  0
 10  9  2  0
 10  5  1  0
 11  1  1  0
 12 11  1  0
 13 12  1  0
 14 13  2  0
 15 14  1  0
 16 15  2  0
 17 16  1  0
 18 17  2  0
 18 13  1  0
 19 16  1  0
  4 20  1  0
  4 21  1  0
  4 22  1  0
  6 23  1  0
  7 24  1  0
  9 25  1  0
 10 26  1  0
 12 27  1  0
 12 28  1  0
 14 29  1  0
 15 30  1  0
 17 31  1  0
 18 32  1  0
M  END
>  <score>  (2) 
-9.578

$$$$
=
     RDKit          3D

 32 33  0  0  0  0  0  0  0  0999 V2000
    4.0140   66.9210   62.6820 S   0  0  0  0  0  6  0  0  0  0  0  0
    3.8200   67.5860   61.4090 O   0  0  0  0  0  0  0  0  0  0  0  0
    4.1840   65.4830   62.7600 O   0  0  0  0  0  0  0  0  0  0  0  0
   -0.7050   68.4370   66.1900 C   0  0  0  0  0  0  0  0  0  0  0  0
    0.4790   68.0800   65.3390 C   0  0  0  0  0  0  0  0  0  0  0  0
    0.7060   68.7460   64.1270 C   0  0  0  0  0  0  0  0  0  0  0  0
    1.7860   68.3920   63.3160 C   0  0  0  0  0  0  0  0  0  0  0  0
    2.6430   67.3660   63.7220 C   0  0  0  0  0  0  0  0  0  0  0  0
    2.4140   66.6730   64.9140 C   0  0  0  0  0  0  0  0  0  0  0  0
    1.3320   67.0330   65.7190 C   0  0  0  0  0  0  0  0  0  0  0  0
    5.6420   67.8120   63.6300 S   0  0  0  0  0  0  0  0  0  0  0  0
    5.0220   69.4750   63.9670 C   0  0  0  0  0  0  0  0  0  0  0  0
    4.9910   69.7770   65.4450 C   0  0  0  0  0  0  0  0  0  0  0  0
    3.8150   69.5850   66.1880 C   0  0  0  0  0  0  0  0  0  0  0  0
    3.7910   69.8510   67.5580 C   0  0  0  0  0  0  0  0  0  0  0  0
    4.9420   70.3040   68.1970 C   0  0  0  0  0  0  0  0  0  0  0  0
    6.1200   70.4920   67.4770 C   0  0  0  0  0  0  0  0  0  0  0  0
    6.1450   70.2260   66.1060 C   0  0  0  0  0  0  0  0  0  0  0  0
    4.9110   70.6310   69.8860 Cl  0  0  0  0  0  0  0  0  0  0  0  0
   -0.4313   68.3545   67.2522 H   0  0  0  0  0  0  0  0  0  0  0  0
   -1.0164   69.4690   65.9707 H   0  0  0  0  0  0  0  0  0  0  0  0
   -1.5349   67.7492   65.9707 H   0  0  0  0  0  0  0  0  0  0  0  0
    0.0285   69.5534   63.8124 H   0  0  0  0  0  0  0  0  0  0  0  0
    1.9607   68.9167   62.3651 H   0  0  0  0  0  0  0  0  0  0  0  0
    3.0805   65.8513   65.2150 H   0  0  0  0  0  0  0  0  0  0  0  0
    1.1467   66.4917   66.6585 H   0  0  0  0  0  0  0  0  0  0  0  0
    5.6760   70.2058   63.4687 H   0  0  0  0  0  0  0  0  0  0  0  0
    3.9923   69.5380   63.5853 H   0  0  0  0  0  0  0  0  0  0  0  0
    2.9057   69.2222   65.6865 H   0  0  0  0  0  0  0  0  0  0  0  0
    2.8643   69.7030   68.1318 H   0  0  0  0  0  0  0  0  0  0  0  0
    7.0273   70.8487   67.9866 H   0  0  0  0  0  0  0  0  0  0  0  0
    7.0769   70.3696   65.5395 H   0  0  0  0  0  0  0  0  0  0  0  0
  2  1  2  0
  3  1  2  0
  5  4  1  0
  6  5  2  0
  7  6  1  0
  8  7  2  0
  8  1  1  0
  9  8  1  0
 10  9  2  0
 10  5  1  0
 11  1  1  0
 12 11  1  0
 13 12  1  0
 14 13  2  0
 15 14  1  0
 16 15  2  0
 17 16  1  0
 18 17  2  0
 18 13  1  0
 19 16  1  0
  4 20  1  0
  4 21  1  0
  4 22  1  0
  6 23  1  0
  7 24  1  0
  9 25  1  0
 10 26  1  0
 12 27  1  0
 12 28  1  0
 14 29  1  0
 15 30  1  0
 17 31  1  0
 18 32  1  0
M  END
>  <score>  (3) 
-9.514

$$$$
=
     RDKit          3D

 32 33  0  0  0  0  0  0  0  0999 V2000
    1.7030   67.3450   65.0770 S   0  0  0  0  0  6  0  0  0  0  0  0
    1.1900   67.0190   66.3930 O   0  0  0  0  0  0  0  0  0  0  0  0
    0.8110   67.5780   63.9590 O   0  0  0  0  0  0  0  0  0  0  0  0
    5.5970   62.9600   63.5050 C   0  0  0  0  0  0  0  0  0  0  0  0
    4.6130   64.0290   63.8790 C   0  0  0  0  0  0  0  0  0  0  0  0
    4.5480   65.2200   63.1410 C   0  0  0  0  0  0  0  0  0  0  0  0
    3.6590   66.2320   63.5070 C   0  0  0  0  0  0  0  0  0  0  0  0
    2.8300   66.0500   64.6170 C   0  0  0  0  0  0  0  0  0  0  0  0
    2.9040   64.8820   65.3800 C   0  0  0  0  0  0  0  0  0  0  0  0
    3.7960   63.8750   65.0080 C   0  0  0  0  0  0  0  0  0  0  0  0
    2.9420   69.0110   65.2680 S   0  0  0  0  0  0  0  0  0  0  0  0
    2.7420   69.4360   67.0130 C   0  0  0  0  0  0  0  0  0  0  0  0
    4.0350   69.9060   67.6310 C   0  0  0  0  0  0  0  0  0  0  0  0
    5.2270   69.8920   66.8890 C   0  0  0  0  0  0  0  0  0  0  0  0
    6.4210   70.3400   67.4570 C   0  0  0  0  0  0  0  0  0  0  0  0
    6.4310   70.8110   68.7670 C   0  0  0  0  0  0  0  0  0  0  0  0
    5.2560   70.8400   69.5160 C   0  0  0  0  0  0  0  0  0  0  0  0
    4.0610   70.3910   68.9480 C   0  0  0  0  0  0  0  0  0  0  0  0
    7.9030   71.3630   69.4670 Cl  0  0  0  0  0  0  0  0  0  0  0  0
    6.0126   62.5085   64.4179 H   0  0  0  0  0  0  0  0  0  0  0  0
    5.0891   62.1856   62.9114 H   0  0  0  0  0  0  0  0  0  0  0  0
    6.4108   63.4021   62.9114 H   0  0  0  0  0  0  0  0  0  0  0  0
    5.2023   65.3575   62.2675 H   0  0  0  0  0  0  0  0  0  0  0  0
    3.6114   67.1651   62.9264 H   0  0  0  0  0  0  0  0  0  0  0  0
    2.2647   64.7571   66.2664 H   0  0  0  0  0  0  0  0  0  0  0  0
    3.8585   62.9534   65.6052 H   0  0  0  0  0  0  0  0  0  0  0  0
    1.9944   70.2383   67.0999 H   0  0  0  0  0  0  0  0  0  0  0  0
    2.4182   68.5313   67.5484 H   0  0  0  0  0  0  0  0  0  0  0  0
    5.2200   69.5251   65.8520 H   0  0  0  0  0  0  0  0  0  0  0  0
    7.3516   70.3209   66.8709 H   0  0  0  0  0  0  0  0  0  0  0  0
    5.2694   71.2148   70.5501 H   0  0  0  0  0  0  0  0  0  0  0  0
    3.1329   70.4178   69.5378 H   0  0  0  0  0  0  0  0  0  0  0  0
  2  1  2  0
  3  1  2  0
  5  4  1  0
  6  5  2  0
  7  6  1  0
  8  7  2  0
  8  1  1  0
  9  8  1  0
 10  9  2  0
 10  5  1  0
 11  1  1  0
 12 11  1  0
 13 12  1  0
 14 13  2  0
 15 14  1  0
 16 15  2  0
 17 16  1  0
 18 17  2  0
 18 13  1  0
 19 16  1  0
  4 20  1  0
  4 21  1  0
  4 22  1  0
  6 23  1  0
  7 24  1  0
  9 25  1  0
 10 26  1  0
 12 27  1  0
 12 28  1  0
 14 29  1  0
 15 30  1  0
 17 31  1  0
 18 32  1  0
M  END
>  <score>  (4) 
-9.354

$$$$
=
     RDKit          3D

 32 33  0  0  0  0  0  0  0  0999 V2000
    0.4450   68.0110   67.1490 S   0  0  0  0  0  6  0  0  0  0  0  0
   -0.1520   66.8340   66.5510 O   0  0  0  0  0  0  0  0  0  0  0  0
   -0.3370   69.2070   67.3950 O   0  0  0  0  0  0  0  0  0  0  0  0
    5.2320   69.5350   63.7380 C   0  0  0  0  0  0  0  0  0  0  0  0
    4.0350   69.1830   64.5720 C   0  0  0  0  0  0  0  0  0  0  0  0
    4.0140   69.4830   65.9420 C   0  0  0  0  0  0  0  0  0  0  0  0
    2.9170   69.1260   66.7280 C   0  0  0  0  0  0  0  0  0  0  0  0
    1.8360   68.4650   66.1390 C   0  0  0  0  0  0  0  0  0  0  0  0
    1.8540   68.1330   64.7820 C   0  0  0  0  0  0  0  0  0  0  0  0
    2.9540   68.4940   64.0030 C   0  0  0  0  0  0  0  0  0  0  0  0
    1.3270   67.4380   68.9480 S   0  0  0  0  0  0  0  0  0  0  0  0
    0.1240   66.2610   69.6040 C   0  0  0  0  0  0  0  0  0  0  0  0
    0.7720   65.2260   70.4910 C   0  0  0  0  0  0  0  0  0  0  0  0
    0.0980   64.7300   71.6170 C   0  0  0  0  0  0  0  0  0  0  0  0
    0.6920   63.7620   72.4300 C   0  0  0  0  0  0  0  0  0  0  0  0
    1.9610   63.2810   72.1190 C   0  0  0  0  0  0  0  0  0  0  0  0
    2.6420   63.7560   71.0000 C   0  0  0  0  0  0  0  0  0  0  0  0
    2.0470   64.7250   70.1870 C   0  0  0  0  0  0  0  0  0  0  0  0
    2.6930   62.0880   73.1210 Cl  0  0  0  0  0  0  0  0  0  0  0  0
    6.0774   69.7836   64.3964 H   0  0  0  0  0  0  0  0  0  0  0  0
    5.5014   68.6780   63.1031 H   0  0  0  0  0  0  0  0  0  0  0  0
    4.9946   70.4014   63.1031 H   0  0  0  0  0  0  0  0  0  0  0  0
    4.8680   70.0033   66.4003 H   0  0  0  0  0  0  0  0  0  0  0  0
    2.9037   69.3631   67.8021 H   0  0  0  0  0  0  0  0  0  0  0  0
    1.0087   67.5919   64.3318 H   0  0  0  0  0  0  0  0  0  0  0  0
    2.9735   68.2361   62.9338 H   0  0  0  0  0  0  0  0  0  0  0  0
   -0.6275   66.8105   70.1898 H   0  0  0  0  0  0  0  0  0  0  0  0
   -0.3388   65.7384   68.7538 H   0  0  0  0  0  0  0  0  0  0  0  0
   -0.9062   65.1064   71.8615 H   0  0  0  0  0  0  0  0  0  0  0  0
    0.1588   63.3808   73.3134 H   0  0  0  0  0  0  0  0  0  0  0  0
    3.6432   63.3702   70.7575 H   0  0  0  0  0  0  0  0  0  0  0  0
    2.5827   65.0979   69.3016 H   0  0  0  0  0  0  0  0  0  0  0  0
  2  1  2  0
  3  1  2  0
  5  4  1  0
  6  5  2  0
  7  6  1  0
  8  7  2  0
  8  1  1  0
  9  8  1  0
 10  9  2  0
 10  5  1  0
 11  1  1  0
 12 11  1  0
 13 12  1  0
 14 13  2  0
 15 14  1  0
 16 15  2  0
 17 16  1  0
 18 17  2  0
 18 13  1  0
 19 16  1  0
  4 20  1  0
  4 21  1  0
  4 22  1  0
  6 23  1  0
  7 24  1  0
  9 25  1  0
 10 26  1  0
 12 27  1  0
 12 28  1  0
 14 29  1  0
 15 30  1  0
 17 31  1  0
 18 32  1  0
M  END
>  <score>  (5) 
-8.805

$$$$
=
     RDKit          3D

 32 33  0  0  0  0  0  0  0  0999 V2000
    1.0900   68.8610   67.0640 S   0  0  0  0  0  6  0  0  0  0  0  0
    0.9450   68.8240   65.6230 O   0  0  0  0  0  0  0  0  0  0  0  0
    0.1400   69.5730   67.8960 O   0  0  0  0  0  0  0  0  0  0  0  0
    6.6290   71.0170   68.3060 C   0  0  0  0  0  0  0  0  0  0  0  0
    5.2530   70.5100   67.9850 C   0  0  0  0  0  0  0  0  0  0  0  0
    4.2250   70.6050   68.9330 C   0  0  0  0  0  0  0  0  0  0  0  0
    2.9530   70.1020   68.6510 C   0  0  0  0  0  0  0  0  0  0  0  0
    2.7110   69.5010   67.4130 C   0  0  0  0  0  0  0  0  0  0  0  0
    3.7330   69.3720   66.4690 C   0  0  0  0  0  0  0  0  0  0  0  0
    5.0010   69.8770   66.7590 C   0  0  0  0  0  0  0  0  0  0  0  0
    1.1950   66.8950   67.7480 S   0  0  0  0  0  0  0  0  0  0  0  0
    1.1590   67.1130   69.5410 C   0  0  0  0  0  0  0  0  0  0  0  0
    1.1930   65.7930   70.2720 C   0  0  0  0  0  0  0  0  0  0  0  0
    2.2900   64.9290   70.1300 C   0  0  0  0  0  0  0  0  0  0  0  0
    2.3280   63.7140   70.8170 C   0  0  0  0  0  0  0  0  0  0  0  0
    1.2740   63.3570   71.6540 C   0  0  0  0  0  0  0  0  0  0  0  0
    0.1810   64.2070   71.8120 C   0  0  0  0  0  0  0  0  0  0  0  0
    0.1420   65.4230   71.1240 C   0  0  0  0  0  0  0  0  0  0  0  0
    1.3210   61.8600   72.4990 Cl  0  0  0  0  0  0  0  0  0  0  0  0
    6.7570   71.0642   69.3975 H   0  0  0  0  0  0  0  0  0  0  0  0
    7.3797   70.3364   67.8779 H   0  0  0  0  0  0  0  0  0  0  0  0
    6.7586   72.0219   67.8779 H   0  0  0  0  0  0  0  0  0  0  0  0
    4.4215   71.0791   69.9060 H   0  0  0  0  0  0  0  0  0  0  0  0
    2.1484   70.1783   69.3972 H   0  0  0  0  0  0  0  0  0  0  0  0
    3.5397   68.8768   65.5060 H   0  0  0  0  0  0  0  0  0  0  0  0
    5.8097   69.7779   66.0200 H   0  0  0  0  0  0  0  0  0  0  0  0
    2.0324   67.7092   69.8438 H   0  0  0  0  0  0  0  0  0  0  0  0
    0.2196   67.6220   69.8025 H   0  0  0  0  0  0  0  0  0  0  0  0
    3.1258   65.2111   69.4728 H   0  0  0  0  0  0  0  0  0  0  0  0
    3.1891   63.0400   70.6972 H   0  0  0  0  0  0  0  0  0  0  0  0
   -0.6483   63.9218   72.4760 H   0  0  0  0  0  0  0  0  0  0  0  0
   -0.7195   66.0950   71.2517 H   0  0  0  0  0  0  0  0  0  0  0  0
  2  1  2  0
  3  1  2  0
  5  4  1  0
  6  5  2  0
  7  6  1  0
  8  7  2  0
  8  1  1  0
  9  8  1  0
 10  9  2  0
 10  5  1  0
 11  1  1  0
 12 11  1  0
 13 12  1  0
 14 13  2  0
 15 14  1  0
 16 15  2  0
 17 16  1  0
 18 17  2  0
 18 13  1  0
 19 16  1  0
  4 20  1  0
  4 21  1  0
  4 22  1  0
  6 23  1  0
  7 24  1  0
  9 25  1  0
 10 26  1  0
 12 27  1  0
 12 28  1  0
 14 29  1  0
 15 30  1  0
 17 31  1  0
 18 32  1  0
M  END
>  <score>  (6) 
-8.528

$$$$
=
     RDKit          3D

 32 33  0  0  0  0  0  0  0  0999 V2000
    0.0260   68.3240   67.0880 S   0  0  0  0  0  6  0  0  0  0  0  0
   -1.3150   68.8680   67.1710 O   0  0  0  0  0  0  0  0  0  0  0  0
    0.5040   67.6870   65.8770 O   0  0  0  0  0  0  0  0  0  0  0  0
    0.6580   64.4110   71.6880 C   0  0  0  0  0  0  0  0  0  0  0  0
    0.5110   65.3570   70.5320 C   0  0  0  0  0  0  0  0  0  0  0  0
    1.5410   66.2540   70.2160 C   0  0  0  0  0  0  0  0  0  0  0  0
    1.3920   67.1590   69.1630 C   0  0  0  0  0  0  0  0  0  0  0  0
    0.2070   67.1660   68.4240 C   0  0  0  0  0  0  0  0  0  0  0  0
   -0.8400   66.2980   68.7450 C   0  0  0  0  0  0  0  0  0  0  0  0
   -0.6840   65.3960   69.7990 C   0  0  0  0  0  0  0  0  0  0  0  0
    1.3640   69.8420   67.5870 S   0  0  0  0  0  0  0  0  0  0  0  0
    2.8460   69.3580   66.6740 C   0  0  0  0  0  0  0  0  0  0  0  0
    4.1060   69.8520   67.3410 C   0  0  0  0  0  0  0  0  0  0  0  0
    4.0840   70.2840   68.6760 C   0  0  0  0  0  0  0  0  0  0  0  0
    5.2530   70.7280   69.2980 C   0  0  0  0  0  0  0  0  0  0  0  0
    6.4530   70.7360   68.5910 C   0  0  0  0  0  0  0  0  0  0  0  0
    6.4950   70.3030   67.2680 C   0  0  0  0  0  0  0  0  0  0  0  0
    5.3250   69.8590   66.6460 C   0  0  0  0  0  0  0  0  0  0  0  0
    7.8930   71.2830   69.3570 Cl  0  0  0  0  0  0  0  0  0  0  0  0
    0.5713   64.9692   72.6319 H   0  0  0  0  0  0  0  0  0  0  0  0
   -0.1323   63.6474   71.6397 H   0  0  0  0  0  0  0  0  0  0  0  0
    1.6427   63.9232   71.6397 H   0  0  0  0  0  0  0  0  0  0  0  0
    2.4724   66.2449   70.8012 H   0  0  0  0  0  0  0  0  0  0  0  0
    2.2022   67.8613   68.9174 H   0  0  0  0  0  0  0  0  0  0  0  0
   -1.7787   66.3252   68.1723 H   0  0  0  0  0  0  0  0  0  0  0  0
   -1.5048   64.7105   70.0566 H   0  0  0  0  0  0  0  0  0  0  0  0
    2.8831   68.2603   66.6130 H   0  0  0  0  0  0  0  0  0  0  0  0
    2.7915   69.8100   65.6726 H   0  0  0  0  0  0  0  0  0  0  0  0
    3.1380   70.2728   69.2373 H   0  0  0  0  0  0  0  0  0  0  0  0
    5.2261   71.0703   70.3430 H   0  0  0  0  0  0  0  0  0  0  0  0
    7.4457   70.3105   66.7147 H   0  0  0  0  0  0  0  0  0  0  0  0
    5.3599   69.5121   65.6027 H   0  0  0  0  0  0  0  0  0  0  0  0
  2  1  2  0
  3  1  2  0
  5  4  1  0
  6  5  2  0
  7  6  1  0
  8  7  2  0
  8  1  1  0
  9  8  1  0
 10  9  2  0
 10  5  1  0
 11  1  1  0
 12 11  1  0
 13 12  1  0
 14 13  2  0
 15 14  1  0
 16 15  2  0
 17 16  1  0
 18 17  2  0
 18 13  1  0
 19 16  1  0
  4 20  1  0
  4 21  1  0
  4 22  1  0
  6 23  1  0
  7 24  1  0
  9 25  1  0
 10 26  1  0
 12 27  1  0
 12 28  1  0
 14 29  1  0
 15 30  1  0
 17 31  1  0
 18 32  1  0
M  END
>  <score>  (7) 
-8.458

$$$$
=
     RDKit          3D

 32 33  0  0  0  0  0  0  0  0999 V2000
    0.0690   68.6740   66.7610 S   0  0  0  0  0  6  0  0  0  0  0  0
   -0.5200   69.8920   67.2810 O   0  0  0  0  0  0  0  0  0  0  0  0
   -0.5280   67.9680   65.6450 O   0  0  0  0  0  0  0  0  0  0  0  0
    0.5200   64.7420   71.3650 C   0  0  0  0  0  0  0  0  0  0  0  0
    0.4010   65.7350   70.2470 C   0  0  0  0  0  0  0  0  0  0  0  0
   -0.7680   65.7940   69.4740 C   0  0  0  0  0  0  0  0  0  0  0  0
   -0.8690   66.6930   68.4110 C   0  0  0  0  0  0  0  0  0  0  0  0
    0.2060   67.5360   68.1190 C   0  0  0  0  0  0  0  0  0  0  0  0
    1.3880   67.4690   68.8610 C   0  0  0  0  0  0  0  0  0  0  0  0
    1.4820   66.5680   69.9230 C   0  0  0  0  0  0  0  0  0  0  0  0
    2.0550   69.0800   66.2760 S   0  0  0  0  0  0  0  0  0  0  0  0
    2.1190   68.6330   64.5270 C   0  0  0  0  0  0  0  0  0  0  0  0
    2.8310   67.3210   64.3060 C   0  0  0  0  0  0  0  0  0  0  0  0
    3.8840   67.2280   63.3820 C   0  0  0  0  0  0  0  0  0  0  0  0
    4.5520   66.0180   63.1880 C   0  0  0  0  0  0  0  0  0  0  0  0
    4.1760   64.8940   63.9180 C   0  0  0  0  0  0  0  0  0  0  0  0
    3.1380   64.9690   64.8450 C   0  0  0  0  0  0  0  0  0  0  0  0
    2.4690   66.1810   65.0400 C   0  0  0  0  0  0  0  0  0  0  0  0
    4.9980   63.4020   63.6780 Cl  0  0  0  0  0  0  0  0  0  0  0  0
    0.4571   65.2667   72.3297 H   0  0  0  0  0  0  0  0  0  0  0  0
   -0.2967   64.0087   71.2926 H   0  0  0  0  0  0  0  0  0  0  0  0
    1.4868   64.2224   71.2926 H   0  0  0  0  0  0  0  0  0  0  0  0
   -1.6111   65.1271   69.7072 H   0  0  0  0  0  0  0  0  0  0  0  0
   -1.7879   66.7373   67.8079 H   0  0  0  0  0  0  0  0  0  0  0  0
    2.2377   68.1210   68.6103 H   0  0  0  0  0  0  0  0  0  0  0  0
    2.4105   66.5108   70.5100 H   0  0  0  0  0  0  0  0  0  0  0  0
    1.0913   68.5486   64.1439 H   0  0  0  0  0  0  0  0  0  0  0  0
    2.6778   69.4173   63.9955 H   0  0  0  0  0  0  0  0  0  0  0  0
    4.1849   68.1158   62.8064 H   0  0  0  0  0  0  0  0  0  0  0  0
    5.3739   65.9527   62.4598 H   0  0  0  0  0  0  0  0  0  0  0  0
    2.8463   64.0783   65.4208 H   0  0  0  0  0  0  0  0  0  0  0  0
    1.6524   66.2415   65.7746 H   0  0  0  0  0  0  0  0  0  0  0  0
  2  1  2  0
  3  1  2  0
  5  4  1  0
  6  5  2  0
  7  6  1  0
  8  7  2  0
  8  1  1  0
  9  8  1  0
 10  9  2  0
 10  5  1  0
 11  1  1  0
 12 11  1  0
 13 12  1  0
 14 13  2  0
 15 14  1  0
 16 15  2  0
 17 16  1  0
 18 17  2  0
 18 13  1  0
 19 16  1  0
  4 20  1  0
  4 21  1  0
  4 22  1  0
  6 23  1  0
  7 24  1  0
  9 25  1  0
 10 26  1  0
 12 27  1  0
 12 28  1  0
 14 29  1  0
 15 30  1  0
 17 31  1  0
 18 32  1  0
M  END
>  <score>  (8) 
-7.98

$$$$
=
     RDKit          3D

 32 33  0  0  0  0  0  0  0  0999 V2000
    1.1570   68.7240   66.9230 S   0  0  0  0  0  6  0  0  0  0  0  0
    0.8020   69.2830   65.6340 O   0  0  0  0  0  0  0  0  0  0  0  0
    0.2510   68.8040   68.0520 O   0  0  0  0  0  0  0  0  0  0  0  0
    6.4320   71.2020   68.6240 C   0  0  0  0  0  0  0  0  0  0  0  0
    5.1200   70.6160   68.1910 C   0  0  0  0  0  0  0  0  0  0  0  0
    4.0460   70.5450   69.0900 C   0  0  0  0  0  0  0  0  0  0  0  0
    2.8360   69.9680   68.7020 C   0  0  0  0  0  0  0  0  0  0  0  0
    2.7000   69.4590   67.4070 C   0  0  0  0  0  0  0  0  0  0  0  0
    3.7710   69.4970   66.5100 C   0  0  0  0  0  0  0  0  0  0  0  0
    4.9780   70.0750   66.9050 C   0  0  0  0  0  0  0  0  0  0  0  0
    1.6510   66.7190   66.6380 S   0  0  0  0  0  0  0  0  0  0  0  0
    1.5030   66.5420   64.8460 C   0  0  0  0  0  0  0  0  0  0  0  0
    2.6110   67.2580   64.1140 C   0  0  0  0  0  0  0  0  0  0  0  0
    2.3200   68.3130   63.2350 C   0  0  0  0  0  0  0  0  0  0  0  0
    3.3470   68.9840   62.5690 C   0  0  0  0  0  0  0  0  0  0  0  0
    4.6710   68.6100   62.7810 C   0  0  0  0  0  0  0  0  0  0  0  0
    4.9790   67.5710   63.6560 C   0  0  0  0  0  0  0  0  0  0  0  0
    3.9520   66.8980   64.3230 C   0  0  0  0  0  0  0  0  0  0  0  0
    5.9360   69.4380   61.9590 Cl  0  0  0  0  0  0  0  0  0  0  0  0
    6.4793   71.2231   69.7228 H   0  0  0  0  0  0  0  0  0  0  0  0
    7.2554   70.5861   68.2333 H   0  0  0  0  0  0  0  0  0  0  0  0
    6.5229   72.2263   68.2333 H   0  0  0  0  0  0  0  0  0  0  0  0
    4.1581   70.9468   70.1078 H   0  0  0  0  0  0  0  0  0  0  0  0
    1.9956   69.9141   69.4097 H   0  0  0  0  0  0  0  0  0  0  0  0
    3.6633   69.0744   65.5001 H   0  0  0  0  0  0  0  0  0  0  0  0
    5.8241   70.1065   66.2027 H   0  0  0  0  0  0  0  0  0  0  0  0
    1.5414   65.4728   64.5904 H   0  0  0  0  0  0  0  0  0  0  0  0
    0.5470   66.9906   64.5380 H   0  0  0  0  0  0  0  0  0  0  0  0
    1.2748   68.6133   63.0697 H   0  0  0  0  0  0  0  0  0  0  0  0
    3.1106   69.8066   61.8781 H   0  0  0  0  0  0  0  0  0  0  0  0
    6.0272   67.2812   63.8214 H   0  0  0  0  0  0  0  0  0  0  0  0
    4.1959   66.0801   65.0170 H   0  0  0  0  0  0  0  0  0  0  0  0
  2  1  2  0
  3  1  2  0
  5  4  1  0
  6  5  2  0
  7  6  1  0
  8  7  2  0
  8  1  1  0
  9  8  1  0
 10  9  2  0
 10  5  1  0
 11  1  1  0
 12 11  1  0
 13 12  1  0
 14 13  2  0
 15 14  1  0
 16 15  2  0
 17 16  1  0
 18 17  2  0
 18 13  1  0
 19 16  1  0
  4 20  1  0
  4 21  1  0
  4 22  1  0
  6 23  1  0
  7 24  1  0
  9 25  1  0
 10 26  1  0
 12 27  1  0
 12 28  1  0
 14 29  1  0
 15 30  1  0
 17 31  1  0
 18 32  1  0
M  END
>  <score>  (9) 
-7.397

$$$$
