=
     RDKit          3D

 66 66  0  0  0  0  0  0  0  0999 V2000
    3.7150   67.0710   64.1490 C   0  0  0  0  0  0  0  0  0  0  0  0
    4.8970   66.3410   63.9510 C   0  0  0  0  0  0  0  0  0  0  0  0
    4.9070   64.9560   64.1280 C   0  0  0  0  0  0  0  0  0  0  0  0
    3.7400   64.2890   64.4990 C   0  0  0  0  0  0  0  0  0  0  0  0
    2.5560   65.0050   64.6800 C   0  0  0  0  0  0  0  0  0  0  0  0
    2.5400   66.3970   64.5000 C   0  0  0  0  0  0  0  0  0  0  0  0
    1.2550   67.1110   64.6080 C   0  0  0  0  0  0  0  0  0  0  0  0
    0.7620   67.7710   63.7120 O   0  0  0  0  0  0  0  0  0  0  0  0
    0.7610   66.9180   65.8550 O   0  0  0  0  0  0  0  0  0  0  0  0
    0.5090   68.1310   66.5810 C   0  0  0  0  0  0  0  0  0  0  0  0
   -0.0070   67.7750   67.9890 C   0  0  1  0  0  0  0  0  0  0  0  0
   -1.1690   66.7630   67.9270 C   0  0  0  0  0  0  0  0  0  0  0  0
   -2.4620   67.3450   67.3680 C   0  0  0  0  0  0  0  0  0  0  0  0
    1.1650   67.2500   68.8550 C   0  0  0  0  0  0  0  0  0  0  0  0
    0.7140   66.4970   70.1120 C   0  0  0  0  0  0  0  0  0  0  0  0
    1.5020   65.1980   70.2900 C   0  0  0  0  0  0  0  0  0  0  0  0
    0.6080   64.0640   70.7650 C   0  0  0  0  0  0  0  0  0  0  0  0
    3.7990   68.5400   64.0020 C   0  0  0  0  0  0  0  0  0  0  0  0
    4.0180   69.1010   62.9410 O   0  0  0  0  0  0  0  0  0  0  0  0
    3.7200   69.1200   65.2220 O   0  0  0  0  0  0  0  0  0  0  0  0
    4.9070   69.8000   65.6480 C   0  0  0  0  0  0  0  0  0  0  0  0
    4.9540   69.8330   67.1890 C   0  0  2  0  0  0  0  0  0  0  0  0
    3.5100   69.9070   67.7310 C   0  0  0  0  0  0  0  0  0  0  0  0
    3.3860   70.6090   69.0760 C   0  0  0  0  0  0  0  0  0  0  0  0
    5.8170   70.9920   67.7470 C   0  0  0  0  0  0  0  0  0  0  0  0
    7.2560   70.6120   68.1030 C   0  0  0  0  0  0  0  0  0  0  0  0
    7.0660   70.3750   70.6040 C   0  0  0  0  0  0  0  0  0  0  0  0
    7.6680   71.1790   69.4620 C   0  0  0  0  0  0  0  0  0  0  0  0
    5.8195   66.8620   63.6551 H   0  0  0  0  0  0  0  0  0  0  0  0
    5.8375   64.3898   63.9744 H   0  0  0  0  0  0  0  0  0  0  0  0
    3.7527   63.1993   64.6489 H   0  0  0  0  0  0  0  0  0  0  0  0
    1.6335   64.4776   64.9643 H   0  0  0  0  0  0  0  0  0  0  0  0
    1.4401   68.7107   66.6651 H   0  0  0  0  0  0  0  0  0  0  0  0
   -0.2439   68.7322   66.0503 H   0  0  0  0  0  0  0  0  0  0  0  0
   -0.4093   68.6847   68.4588 H   0  0  0  0  0  0  0  0  0  0  0  0
   -0.8626   65.9217   67.2880 H   0  0  0  0  0  0  0  0  0  0  0  0
   -1.3784   66.4516   68.9610 H   0  0  0  0  0  0  0  0  0  0  0  0
   -3.1199   67.6411   68.1983 H   0  0  0  0  0  0  0  0  0  0  0  0
   -2.2310   68.2260   66.7511 H   0  0  0  0  0  0  0  0  0  0  0  0
   -2.9683   66.5879   66.7511 H   0  0  0  0  0  0  0  0  0  0  0  0
    1.7722   66.5685   68.2411 H   0  0  0  0  0  0  0  0  0  0  0  0
    1.7331   68.1290   69.1936 H   0  0  0  0  0  0  0  0  0  0  0  0
    0.8749   67.1378   70.9915 H   0  0  0  0  0  0  0  0  0  0  0  0
   -0.3517   66.2465   70.0050 H   0  0  0  0  0  0  0  0  0  0  0  0
    1.9523   64.9183   69.3261 H   0  0  0  0  0  0  0  0  0  0  0  0
    2.2782   65.3670   71.0508 H   0  0  0  0  0  0  0  0  0  0  0  0
    0.5930   64.0450   71.8647 H   0  0  0  0  0  0  0  0  0  0  0  0
   -0.4133   64.2193   70.3870 H   0  0  0  0  0  0  0  0  0  0  0  0
    0.9974   63.1072   70.3870 H   0  0  0  0  0  0  0  0  0  0  0  0
    5.7912   69.2693   65.2653 H   0  0  0  0  0  0  0  0  0  0  0  0
    4.9005   70.8288   65.2587 H   0  0  0  0  0  0  0  0  0  0  0  0
    5.4414   68.9087   67.5327 H   0  0  0  0  0  0  0  0  0  0  0  0
    2.8940   70.4506   66.9996 H   0  0  0  0  0  0  0  0  0  0  0  0
    3.1745   68.8704   67.8822 H   0  0  0  0  0  0  0  0  0  0  0  0
    3.5155   69.8757   69.8856 H   0  0  0  0  0  0  0  0  0  0  0  0
    4.1609   71.3855   69.1571 H   0  0  0  0  0  0  0  0  0  0  0  0
    2.3920   71.0731   69.1571 H   0  0  0  0  0  0  0  0  0  0  0  0
    5.8517   71.7878   66.9883 H   0  0  0  0  0  0  0  0  0  0  0  0
    5.3399   71.3062   68.6871 H   0  0  0  0  0  0  0  0  0  0  0  0
    7.3385   69.5155   68.1338 H   0  0  0  0  0  0  0  0  0  0  0  0
    7.9230   71.0347   67.3372 H   0  0  0  0  0  0  0  0  0  0  0  0
    7.3876   70.8045   71.5642 H   0  0  0  0  0  0  0  0  0  0  0  0
    5.9685   70.4078   70.5369 H   0  0  0  0  0  0  0  0  0  0  0  0
    7.4064   69.3312   70.5369 H   0  0  0  0  0  0  0  0  0  0  0  0
    7.3210   72.2203   69.5355 H   0  0  0  0  0  0  0  0  0  0  0  0
    8.7639   71.1263   69.5414 H   0  0  0  0  0  0  0  0  0  0  0  0
  2  1  2  0
  3  2  1  0
  4  3  2  0
  5  4  1  0
  6  5  2  0
  6  1  1  0
  7  6  1  0
  8  7  2  0
  9  7  1  0
 10  9  1  0
 11 10  1  0
 12 11  1  0
 13 12  1  0
 14 11  1  0
 15 14  1  0
 16 15  1  0
 17 16  1  0
 18  1  1  0
 19 18  2  0
 20 18  1  0
 21 20  1  0
 22 21  1  0
 23 22  1  0
 24 23  1  0
 25 22  1  0
 26 25  1  0
 28 27  1  0
 28 26  1  0
  2 29  1  0
  3 30  1  0
  4 31  1  0
  5 32  1  0
 10 33  1  0
 10 34  1  0
 11 35  1  1
 12 36  1  0
 12 37  1  0
 13 38  1  0
 13 39  1  0
 13 40  1  0
 14 41  1  0
 14 42  1  0
 15 43  1  0
 15 44  1  0
 16 45  1  0
 16 46  1  0
 17 47  1  0
 17 48  1  0
 17 49  1  0
 21 50  1  0
 21 51  1  0
 22 52  1  1
 23 53  1  0
 23 54  1  0
 24 55  1  0
 24 56  1  0
 24 57  1  0
 25 58  1  0
 25 59  1  0
 26 60  1  0
 26 61  1  0
 27 62  1  0
 27 63  1  0
 27 64  1  0
 28 65  1  0
 28 66  1  0
M  END
>  <score>  (1) 
-8.7

$$$$
=
     RDKit          3D

 66 66  0  0  0  0  0  0  0  0999 V2000
    1.7760   67.6760   63.4960 C   0  0  0  0  0  0  0  0  0  0  0  0
    0.6550   68.3240   62.9560 C   0  0  0  0  0  0  0  0  0  0  0  0
    0.7850   69.1350   61.8280 C   0  0  0  0  0  0  0  0  0  0  0  0
    2.0330   69.3030   61.2270 C   0  0  0  0  0  0  0  0  0  0  0  0
    3.1500   68.6480   61.7460 C   0  0  0  0  0  0  0  0  0  0  0  0
    3.0230   67.8290   62.8790 C   0  0  0  0  0  0  0  0  0  0  0  0
    4.2020   67.0780   63.3470 C   0  0  0  0  0  0  0  0  0  0  0  0
    4.7310   66.1760   62.7240 O   0  0  0  0  0  0  0  0  0  0  0  0
    4.5550   67.5520   64.5670 O   0  0  0  0  0  0  0  0  0  0  0  0
    5.4900   68.6410   64.5270 C   0  0  0  0  0  0  0  0  0  0  0  0
    5.1000   69.6760   65.6000 C   0  0  1  0  0  0  0  0  0  0  0  0
    3.7010   69.3880   66.1830 C   0  0  0  0  0  0  0  0  0  0  0  0
    3.5580   69.7610   67.6540 C   0  0  0  0  0  0  0  0  0  0  0  0
    6.1840   69.7140   66.7050 C   0  0  0  0  0  0  0  0  0  0  0  0
    6.7020   71.1230   67.0140 C   0  0  0  0  0  0  0  0  0  0  0  0
    6.4530   71.4950   68.4770 C   0  0  0  0  0  0  0  0  0  0  0  0
    7.5330   70.9310   69.3860 C   0  0  0  0  0  0  0  0  0  0  0  0
    1.5680   66.8840   64.7270 C   0  0  0  0  0  0  0  0  0  0  0  0
    1.4360   65.6710   64.7350 O   0  0  0  0  0  0  0  0  0  0  0  0
    1.4280   67.7190   65.7830 O   0  0  0  0  0  0  0  0  0  0  0  0
    0.0830   67.8930   66.2450 C   0  0  0  0  0  0  0  0  0  0  0  0
   -0.1230   67.0820   67.5400 C   0  0  2  0  0  0  0  0  0  0  0  0
   -1.6370   66.9470   67.8090 C   0  0  0  0  0  0  0  0  0  0  0  0
   -2.5000   67.9070   67.0010 C   0  0  0  0  0  0  0  0  0  0  0  0
    0.6070   67.6900   68.7630 C   0  0  0  0  0  0  0  0  0  0  0  0
    1.3560   66.6790   69.6360 C   0  0  0  0  0  0  0  0  0  0  0  0
    0.9810   64.4870   70.8190 C   0  0  0  0  0  0  0  0  0  0  0  0
    0.3920   65.8480   70.4850 C   0  0  0  0  0  0  0  0  0  0  0  0
   -0.3316   68.1921   63.4243 H   0  0  0  0  0  0  0  0  0  0  0  0
   -0.0977   69.6427   61.4119 H   0  0  0  0  0  0  0  0  0  0  0  0
    2.1360   69.9515   60.3445 H   0  0  0  0  0  0  0  0  0  0  0  0
    4.1320   68.7735   61.2666 H   0  0  0  0  0  0  0  0  0  0  0  0
    6.5037   68.2645   64.7288 H   0  0  0  0  0  0  0  0  0  0  0  0
    5.4711   69.1110   63.5327 H   0  0  0  0  0  0  0  0  0  0  0  0
    5.0448   70.6687   65.1294 H   0  0  0  0  0  0  0  0  0  0  0  0
    2.9603   69.9615   65.6064 H   0  0  0  0  0  0  0  0  0  0  0  0
    3.5418   68.3020   66.1113 H   0  0  0  0  0  0  0  0  0  0  0  0
    3.8819   68.9162   68.2796 H   0  0  0  0  0  0  0  0  0  0  0  0
    4.1831   70.6395   67.8720 H   0  0  0  0  0  0  0  0  0  0  0  0
    2.5058   69.9965   67.8720 H   0  0  0  0  0  0  0  0  0  0  0  0
    5.7555   69.2921   67.6261 H   0  0  0  0  0  0  0  0  0  0  0  0
    7.0404   69.1315   66.3344 H   0  0  0  0  0  0  0  0  0  0  0  0
    7.7829   71.1601   66.8132 H   0  0  0  0  0  0  0  0  0  0  0  0
    6.1644   71.8397   66.3758 H   0  0  0  0  0  0  0  0  0  0  0  0
    6.4432   72.5910   68.5706 H   0  0  0  0  0  0  0  0  0  0  0  0
    5.4865   71.0677   68.7824 H   0  0  0  0  0  0  0  0  0  0  0  0
    7.2438   71.0820   70.4365 H   0  0  0  0  0  0  0  0  0  0  0  0
    7.6526   69.8553   69.1896 H   0  0  0  0  0  0  0  0  0  0  0  0
    8.4841   71.4475   69.1896 H   0  0  0  0  0  0  0  0  0  0  0  0
   -0.1009   68.9587   66.4463 H   0  0  0  0  0  0  0  0  0  0  0  0
   -0.6185   67.5397   65.4749 H   0  0  0  0  0  0  0  0  0  0  0  0
    0.3261   66.0888   67.3917 H   0  0  0  0  0  0  0  0  0  0  0  0
   -1.9412   65.9188   67.5634 H   0  0  0  0  0  0  0  0  0  0  0  0
   -1.7942   67.1947   68.8692 H   0  0  0  0  0  0  0  0  0  0  0  0
   -3.0756   68.5473   67.6855 H   0  0  0  0  0  0  0  0  0  0  0  0
   -1.8559   68.5340   66.3669 H   0  0  0  0  0  0  0  0  0  0  0  0
   -3.1918   67.3331   66.3669 H   0  0  0  0  0  0  0  0  0  0  0  0
    1.3346   68.4280   68.3943 H   0  0  0  0  0  0  0  0  0  0  0  0
   -0.1740   68.1291   69.4011 H   0  0  0  0  0  0  0  0  0  0  0  0
    1.9328   66.0042   68.9865 H   0  0  0  0  0  0  0  0  0  0  0  0
    2.0213   67.2344   70.3134 H   0  0  0  0  0  0  0  0  0  0  0  0
    1.0326   64.3678   71.9113 H   0  0  0  0  0  0  0  0  0  0  0  0
    0.3441   63.6974   70.3937 H   0  0  0  0  0  0  0  0  0  0  0  0
    1.9926   64.4109   70.3937 H   0  0  0  0  0  0  0  0  0  0  0  0
   -0.5451   65.7055   69.9268 H   0  0  0  0  0  0  0  0  0  0  0  0
    0.2069   66.3862   71.4263 H   0  0  0  0  0  0  0  0  0  0  0  0
  2  1  2  0
  3  2  1  0
  4  3  2  0
  5  4  1  0
  6  5  2  0
  6  1  1  0
  7  6  1  0
  8  7  2  0
  9  7  1  0
 10  9  1  0
 11 10  1  0
 12 11  1  0
 13 12  1  0
 14 11  1  0
 15 14  1  0
 16 15  1  0
 17 16  1  0
 18  1  1  0
 19 18  2  0
 20 18  1  0
 21 20  1  0
 22 21  1  0
 23 22  1  0
 24 23  1  0
 25 22  1  0
 26 25  1  0
 28 27  1  0
 28 26  1  0
  2 29  1  0
  3 30  1  0
  4 31  1  0
  5 32  1  0
 10 33  1  0
 10 34  1  0
 11 35  1  6
 12 36  1  0
 12 37  1  0
 13 38  1  0
 13 39  1  0
 13 40  1  0
 14 41  1  0
 14 42  1  0
 15 43  1  0
 15 44  1  0
 16 45  1  0
 16 46  1  0
 17 47  1  0
 17 48  1  0
 17 49  1  0
 21 50  1  0
 21 51  1  0
 22 52  1  6
 23 53  1  0
 23 54  1  0
 24 55  1  0
 24 56  1  0
 24 57  1  0
 25 58  1  0
 25 59  1  0
 26 60  1  0
 26 61  1  0
 27 62  1  0
 27 63  1  0
 27 64  1  0
 28 65  1  0
 28 66  1  0
M  END
>  <score>  (2) 
-8.097

$$$$
=
     RDKit          3D

 66 66  0  0  0  0  0  0  0  0999 V2000
    1.7590   67.4830   63.8040 C   0  0  0  0  0  0  0  0  0  0  0  0
    0.5400   68.0580   63.4120 C   0  0  0  0  0  0  0  0  0  0  0  0
    0.4950   68.9510   62.3390 C   0  0  0  0  0  0  0  0  0  0  0  0
    1.6620   69.2730   61.6470 C   0  0  0  0  0  0  0  0  0  0  0  0
    2.8750   68.6920   62.0180 C   0  0  0  0  0  0  0  0  0  0  0  0
    2.9250   67.7920   63.0930 C   0  0  0  0  0  0  0  0  0  0  0  0
    4.2030   67.1250   63.4010 C   0  0  0  0  0  0  0  0  0  0  0  0
    4.6840   66.2270   62.7340 O   0  0  0  0  0  0  0  0  0  0  0  0
    4.7060   67.6660   64.5370 O   0  0  0  0  0  0  0  0  0  0  0  0
    5.2190   68.9970   64.3770 C   0  0  0  0  0  0  0  0  0  0  0  0
    4.8820   69.8190   65.6360 C   0  0  1  0  0  0  0  0  0  0  0  0
    3.5730   69.3360   66.2940 C   0  0  0  0  0  0  0  0  0  0  0  0
    3.4250   69.7550   67.7520 C   0  0  0  0  0  0  0  0  0  0  0  0
    6.0730   69.7690   66.6250 C   0  0  0  0  0  0  0  0  0  0  0  0
    6.7000   71.1390   66.9050 C   0  0  0  0  0  0  0  0  0  0  0  0
    6.4470   71.5780   68.3490 C   0  0  0  0  0  0  0  0  0  0  0  0
    7.3840   70.8750   69.3170 C   0  0  0  0  0  0  0  0  0  0  0  0
    1.7350   66.5950   64.9850 C   0  0  0  0  0  0  0  0  0  0  0  0
    2.4170   65.5900   65.0880 O   0  0  0  0  0  0  0  0  0  0  0  0
    0.7700   67.0090   65.8400 O   0  0  0  0  0  0  0  0  0  0  0  0
    1.1200   66.9420   67.2280 C   0  0  0  0  0  0  0  0  0  0  0  0
   -0.1370   67.1910   68.0860 C   0  0  2  0  0  0  0  0  0  0  0  0
    0.0220   66.4500   69.4310 C   0  0  0  0  0  0  0  0  0  0  0  0
    1.4620   66.3370   69.9120 C   0  0  0  0  0  0  0  0  0  0  0  0
   -1.4500   66.7790   67.3760 C   0  0  0  0  0  0  0  0  0  0  0  0
   -2.4730   67.9060   67.2070 C   0  0  0  0  0  0  0  0  0  0  0  0
   -3.5470   69.0450   65.2330 C   0  0  0  0  0  0  0  0  0  0  0  0
   -2.2350   68.6930   65.9180 C   0  0  0  0  0  0  0  0  0  0  0  0
   -0.3840   67.8042   63.9523 H   0  0  0  0  0  0  0  0  0  0  0  0
   -0.4629   69.4011   62.0393 H   0  0  0  0  0  0  0  0  0  0  0  0
    1.6263   69.9847   60.8090 H   0  0  0  0  0  0  0  0  0  0  0  0
    3.7939   68.9401   61.4666 H   0  0  0  0  0  0  0  0  0  0  0  0
    6.3101   68.9581   64.2430 H   0  0  0  0  0  0  0  0  0  0  0  0
    4.7634   69.4672   63.4931 H   0  0  0  0  0  0  0  0  0  0  0  0
    4.7164   70.8656   65.3407 H   0  0  0  0  0  0  0  0  0  0  0  0
    2.7265   69.7503   65.7267 H   0  0  0  0  0  0  0  0  0  0  0  0
    3.5936   68.2363   66.2777 H   0  0  0  0  0  0  0  0  0  0  0  0
    3.7198   68.9204   68.4051 H   0  0  0  0  0  0  0  0  0  0  0  0
    4.0711   70.6226   67.9516 H   0  0  0  0  0  0  0  0  0  0  0  0
    2.3773   70.0244   67.9516 H   0  0  0  0  0  0  0  0  0  0  0  0
    5.7162   69.3494   67.5772 H   0  0  0  0  0  0  0  0  0  0  0  0
    6.8522   69.1485   66.1583 H   0  0  0  0  0  0  0  0  0  0  0  0
    7.7848   71.0792   66.7329 H   0  0  0  0  0  0  0  0  0  0  0  0
    6.2407   71.8769   66.2308 H   0  0  0  0  0  0  0  0  0  0  0  0
    6.6036   72.6641   68.4251 H   0  0  0  0  0  0  0  0  0  0  0  0
    5.4132   71.3119   68.6146 H   0  0  0  0  0  0  0  0  0  0  0  0
    7.0816   71.1018   70.3500 H   0  0  0  0  0  0  0  0  0  0  0  0
    7.3353   69.7887   69.1508 H   0  0  0  0  0  0  0  0  0  0  0  0
    8.4133   71.2256   69.1508 H   0  0  0  0  0  0  0  0  0  0  0  0
    1.5285   65.9464   67.4558 H   0  0  0  0  0  0  0  0  0  0  0  0
    1.8764   67.7082   67.4535 H   0  0  0  0  0  0  0  0  0  0  0  0
   -0.2208   68.2743   68.2575 H   0  0  0  0  0  0  0  0  0  0  0  0
   -0.5557   66.9919   70.1943 H   0  0  0  0  0  0  0  0  0  0  0  0
   -0.3410   65.4238   69.2726 H   0  0  0  0  0  0  0  0  0  0  0  0
    1.4822   66.3354   71.0118 H   0  0  0  0  0  0  0  0  0  0  0  0
    1.9019   65.4016   69.5359 H   0  0  0  0  0  0  0  0  0  0  0  0
    2.0424   67.1924   69.5359 H   0  0  0  0  0  0  0  0  0  0  0  0
   -1.1930   66.3982   66.3765 H   0  0  0  0  0  0  0  0  0  0  0  0
   -1.9255   66.0249   68.0204 H   0  0  0  0  0  0  0  0  0  0  0  0
   -3.4826   67.4704   67.1781 H   0  0  0  0  0  0  0  0  0  0  0  0
   -2.3676   68.5968   68.0565 H   0  0  0  0  0  0  0  0  0  0  0  0
   -4.3142   69.2508   65.9939 H   0  0  0  0  0  0  0  0  0  0  0  0
   -3.4050   69.9368   64.6049 H   0  0  0  0  0  0  0  0  0  0  0  0
   -3.8704   68.2019   64.6049 H   0  0  0  0  0  0  0  0  0  0  0  0
   -1.6261   68.0838   65.2338 H   0  0  0  0  0  0  0  0  0  0  0  0
   -1.7160   69.6284   66.1740 H   0  0  0  0  0  0  0  0  0  0  0  0
  2  1  2  0
  3  2  1  0
  4  3  2  0
  5  4  1  0
  6  5  2  0
  6  1  1  0
  7  6  1  0
  8  7  2  0
  9  7  1  0
 10  9  1  0
 11 10  1  0
 12 11  1  0
 13 12  1  0
 14 11  1  0
 15 14  1  0
 16 15  1  0
 17 16  1  0
 18  1  1  0
 19 18  2  0
 20 18  1  0
 21 20  1  0
 22 21  1  0
 23 22  1  0
 24 23  1  0
 25 22  1  0
 26 25  1  0
 28 27  1  0
 28 26  1  0
  2 29  1  0
  3 30  1  0
  4 31  1  0
  5 32  1  0
 10 33  1  0
 10 34  1  0
 11 35  1  6
 12 36  1  0
 12 37  1  0
 13 38  1  0
 13 39  1  0
 13 40  1  0
 14 41  1  0
 14 42  1  0
 15 43  1  0
 15 44  1  0
 16 45  1  0
 16 46  1  0
 17 47  1  0
 17 48  1  0
 17 49  1  0
 21 50  1  0
 21 51  1  0
 22 52  1  1
 23 53  1  0
 23 54  1  0
 24 55  1  0
 24 56  1  0
 24 57  1  0
 25 58  1  0
 25 59  1  0
 26 60  1  0
 26 61  1  0
 27 62  1  0
 27 63  1  0
 27 64  1  0
 28 65  1  0
 28 66  1  0
M  END
>  <score>  (3) 
-8.077

$$$$
=
     RDKit          3D

 66 66  0  0  0  0  0  0  0  0999 V2000
    1.6490   68.2950   67.8550 C   0  0  0  0  0  0  0  0  0  0  0  0
    2.3750   69.1060   68.7400 C   0  0  0  0  0  0  0  0  0  0  0  0
    3.4280   69.8940   68.2720 C   0  0  0  0  0  0  0  0  0  0  0  0
    3.7610   69.8840   66.9180 C   0  0  0  0  0  0  0  0  0  0  0  0
    3.0320   69.0950   66.0260 C   0  0  0  0  0  0  0  0  0  0  0  0
    1.9710   68.3040   66.4930 C   0  0  0  0  0  0  0  0  0  0  0  0
    1.1620   67.5540   65.5150 C   0  0  0  0  0  0  0  0  0  0  0  0
    0.2640   68.0410   64.8530 O   0  0  0  0  0  0  0  0  0  0  0  0
    1.5800   66.2640   65.5120 O   0  0  0  0  0  0  0  0  0  0  0  0
    2.1600   65.8370   64.2700 C   0  0  0  0  0  0  0  0  0  0  0  0
    3.6500   65.5150   64.4980 C   0  0  1  0  0  0  0  0  0  0  0  0
    3.8930   63.9950   64.5860 C   0  0  0  0  0  0  0  0  0  0  0  0
    5.1190   63.5220   63.8120 C   0  0  0  0  0  0  0  0  0  0  0  0
    4.5000   66.1680   63.3810 C   0  0  0  0  0  0  0  0  0  0  0  0
    3.7900   67.3180   62.6570 C   0  0  0  0  0  0  0  0  0  0  0  0
    4.7610   68.4590   62.3470 C   0  0  0  0  0  0  0  0  0  0  0  0
    5.6750   68.7490   63.5260 C   0  0  0  0  0  0  0  0  0  0  0  0
    0.5890   67.4440   68.4370 C   0  0  0  0  0  0  0  0  0  0  0  0
   -0.6010   67.6000   68.2140 O   0  0  0  0  0  0  0  0  0  0  0  0
    1.1390   66.5810   69.3220 O   0  0  0  0  0  0  0  0  0  0  0  0
    0.2020   65.7720   70.0440 C   0  0  0  0  0  0  0  0  0  0  0  0
    0.8360   64.3990   70.3460 C   0  0  2  0  0  0  0  0  0  0  0  0
    0.1460   63.7930   71.5870 C   0  0  0  0  0  0  0  0  0  0  0  0
    1.0190   63.7730   72.8350 C   0  0  0  0  0  0  0  0  0  0  0  0
    2.3710   64.4660   70.5400 C   0  0  0  0  0  0  0  0  0  0  0  0
    3.1500   63.2980   69.9300 C   0  0  0  0  0  0  0  0  0  0  0  0
    5.0410   62.1600   71.1450 C   0  0  0  0  0  0  0  0  0  0  0  0
    4.6330   63.3570   70.3000 C   0  0  0  0  0  0  0  0  0  0  0  0
    2.1132   69.1211   69.8083 H   0  0  0  0  0  0  0  0  0  0  0  0
    3.9960   70.5238   68.9725 H   0  0  0  0  0  0  0  0  0  0  0  0
    4.5978   70.4975   66.5527 H   0  0  0  0  0  0  0  0  0  0  0  0
    3.2895   69.0934   64.9566 H   0  0  0  0  0  0  0  0  0  0  0  0
    1.6391   64.9378   63.9093 H   0  0  0  0  0  0  0  0  0  0  0  0
    2.0623   66.6354   63.5197 H   0  0  0  0  0  0  0  0  0  0  0  0
    3.9596   65.9378   65.4652 H   0  0  0  0  0  0  0  0  0  0  0  0
    4.0257   63.7257   65.6442 H   0  0  0  0  0  0  0  0  0  0  0  0
    3.0190   63.5040   64.1331 H   0  0  0  0  0  0  0  0  0  0  0  0
    5.9048   63.2188   64.5195 H   0  0  0  0  0  0  0  0  0  0  0  0
    4.8449   62.6651   63.1791 H   0  0  0  0  0  0  0  0  0  0  0  0
    5.4915   64.3410   63.1791 H   0  0  0  0  0  0  0  0  0  0  0  0
    5.4238   66.5595   63.8319 H   0  0  0  0  0  0  0  0  0  0  0  0
    4.6963   65.3886   62.6300 H   0  0  0  0  0  0  0  0  0  0  0  0
    3.3660   66.9414   61.7144 H   0  0  0  0  0  0  0  0  0  0  0  0
    2.9954   67.7047   63.3121 H   0  0  0  0  0  0  0  0  0  0  0  0
    5.3757   68.1792   61.4787 H   0  0  0  0  0  0  0  0  0  0  0  0
    4.1731   69.3643   62.1355 H   0  0  0  0  0  0  0  0  0  0  0  0
    5.1286   68.5756   64.4648 H   0  0  0  0  0  0  0  0  0  0  0  0
    6.5506   68.0845   63.4833 H   0  0  0  0  0  0  0  0  0  0  0  0
    6.0074   69.7967   63.4833 H   0  0  0  0  0  0  0  0  0  0  0  0
   -0.0615   66.2702   70.9886 H   0  0  0  0  0  0  0  0  0  0  0  0
   -0.7056   65.6322   69.4384 H   0  0  0  0  0  0  0  0  0  0  0  0
    0.6770   63.7528   69.4702 H   0  0  0  0  0  0  0  0  0  0  0  0
   -0.7551   64.3850   71.8050 H   0  0  0  0  0  0  0  0  0  0  0  0
   -0.0834   62.7452   71.3430 H   0  0  0  0  0  0  0  0  0  0  0  0
    0.3796   63.7876   73.7300 H   0  0  0  0  0  0  0  0  0  0  0  0
    1.6333   62.8605   72.8381 H   0  0  0  0  0  0  0  0  0  0  0  0
    1.6745   64.6564   72.8381 H   0  0  0  0  0  0  0  0  0  0  0  0
    2.7333   65.3964   70.0784 H   0  0  0  0  0  0  0  0  0  0  0  0
    2.5468   64.4206   71.6249 H   0  0  0  0  0  0  0  0  0  0  0  0
    2.7265   62.3533   70.3018 H   0  0  0  0  0  0  0  0  0  0  0  0
    3.0654   63.3620   68.8351 H   0  0  0  0  0  0  0  0  0  0  0  0
    4.9535   62.4168   72.2110 H   0  0  0  0  0  0  0  0  0  0  0  0
    4.3822   61.3090   70.9176 H   0  0  0  0  0  0  0  0  0  0  0  0
    6.0824   61.8885   70.9176 H   0  0  0  0  0  0  0  0  0  0  0  0
    4.8237   64.2788   70.8692 H   0  0  0  0  0  0  0  0  0  0  0  0
    5.2228   63.3431   69.3716 H   0  0  0  0  0  0  0  0  0  0  0  0
  2  1  2  0
  3  2  1  0
  4  3  2  0
  5  4  1  0
  6  5  2  0
  6  1  1  0
  7  6  1  0
  8  7  2  0
  9  7  1  0
 10  9  1  0
 11 10  1  0
 12 11  1  0
 13 12  1  0
 14 11  1  0
 15 14  1  0
 16 15  1  0
 17 16  1  0
 18  1  1  0
 19 18  2  0
 20 18  1  0
 21 20  1  0
 22 21  1  0
 23 22  1  0
 24 23  1  0
 25 22  1  0
 26 25  1  0
 28 27  1  0
 28 26  1  0
  2 29  1  0
  3 30  1  0
  4 31  1  0
  5 32  1  0
 10 33  1  0
 10 34  1  0
 11 35  1  1
 12 36  1  0
 12 37  1  0
 13 38  1  0
 13 39  1  0
 13 40  1  0
 14 41  1  0
 14 42  1  0
 15 43  1  0
 15 44  1  0
 16 45  1  0
 16 46  1  0
 17 47  1  0
 17 48  1  0
 17 49  1  0
 21 50  1  0
 21 51  1  0
 22 52  1  6
 23 53  1  0
 23 54  1  0
 24 55  1  0
 24 56  1  0
 24 57  1  0
 25 58  1  0
 25 59  1  0
 26 60  1  0
 26 61  1  0
 27 62  1  0
 27 63  1  0
 27 64  1  0
 28 65  1  0
 28 66  1  0
M  END
>  <score>  (4) 
-8.032

$$$$
=
     RDKit          3D

 66 66  0  0  0  0  0  0  0  0999 V2000
    0.1300   68.3970   67.1660 C   0  0  0  0  0  0  0  0  0  0  0  0
   -0.8080   68.9010   66.2510 C   0  0  0  0  0  0  0  0  0  0  0  0
   -2.1150   68.4100   66.2390 C   0  0  0  0  0  0  0  0  0  0  0  0
   -2.4980   67.4180   67.1420 C   0  0  0  0  0  0  0  0  0  0  0  0
   -1.5780   66.9250   68.0680 C   0  0  0  0  0  0  0  0  0  0  0  0
   -0.2640   67.4180   68.0860 C   0  0  0  0  0  0  0  0  0  0  0  0
    0.6570   66.9440   69.1340 C   0  0  0  0  0  0  0  0  0  0  0  0
    1.6290   67.5650   69.5230 O   0  0  0  0  0  0  0  0  0  0  0  0
    0.2430   65.7210   69.5490 O   0  0  0  0  0  0  0  0  0  0  0  0
    0.2540   65.5490   70.9740 C   0  0  0  0  0  0  0  0  0  0  0  0
    1.0200   64.2560   71.3160 C   0  0  1  0  0  0  0  0  0  0  0  0
    0.1330   63.0070   71.1310 C   0  0  0  0  0  0  0  0  0  0  0  0
   -0.3040   62.3640   72.4430 C   0  0  0  0  0  0  0  0  0  0  0  0
    2.3100   64.1740   70.4640 C   0  0  0  0  0  0  0  0  0  0  0  0
    2.6010   62.7710   69.9190 C   0  0  0  0  0  0  0  0  0  0  0  0
    4.0800   62.6150   69.5570 C   0  0  0  0  0  0  0  0  0  0  0  0
    4.9710   63.3980   70.5060 C   0  0  0  0  0  0  0  0  0  0  0  0
    1.5080   68.9240   67.0760 C   0  0  0  0  0  0  0  0  0  0  0  0
    1.9010   69.8980   67.6950 O   0  0  0  0  0  0  0  0  0  0  0  0
    2.1910   68.2390   66.1290 O   0  0  0  0  0  0  0  0  0  0  0  0
    3.0000   69.0440   65.2620 C   0  0  0  0  0  0  0  0  0  0  0  0
    4.4820   68.6590   65.4400 C   0  0  2  0  0  0  0  0  0  0  0  0
    5.2900   69.9290   65.7850 C   0  0  0  0  0  0  0  0  0  0  0  0
    5.5940   70.0890   67.2680 C   0  0  0  0  0  0  0  0  0  0  0  0
    5.0770   67.9400   64.2040 C   0  0  0  0  0  0  0  0  0  0  0  0
    5.6740   68.8680   63.1430 C   0  0  0  0  0  0  0  0  0  0  0  0
    3.7610   67.9640   61.7750 C   0  0  0  0  0  0  0  0  0  0  0  0
    4.6740   69.1550   62.0220 C   0  0  0  0  0  0  0  0  0  0  0  0
   -0.5118   69.6865   65.5401 H   0  0  0  0  0  0  0  0  0  0  0  0
   -2.8438   68.8060   65.5164 H   0  0  0  0  0  0  0  0  0  0  0  0
   -3.5251   67.0245   67.1240 H   0  0  0  0  0  0  0  0  0  0  0  0
   -1.8830   66.1487   68.7851 H   0  0  0  0  0  0  0  0  0  0  0  0
    0.7522   66.4088   71.4457 H   0  0  0  0  0  0  0  0  0  0  0  0
   -0.7780   65.4805   71.3486 H   0  0  0  0  0  0  0  0  0  0  0  0
    1.3041   64.2840   72.3783 H   0  0  0  0  0  0  0  0  0  0  0  0
   -0.7675   63.3006   70.5716 H   0  0  0  0  0  0  0  0  0  0  0  0
    0.7371   62.2611   70.5937 H   0  0  0  0  0  0  0  0  0  0  0  0
    0.0924   62.9473   73.2871 H   0  0  0  0  0  0  0  0  0  0  0  0
   -1.4027   62.3453   72.4941 H   0  0  0  0  0  0  0  0  0  0  0  0
    0.0830   61.3356   72.4941 H   0  0  0  0  0  0  0  0  0  0  0  0
    2.2081   64.8630   69.6126 H   0  0  0  0  0  0  0  0  0  0  0  0
    3.1483   64.4427   71.1236 H   0  0  0  0  0  0  0  0  0  0  0  0
    2.3384   62.0266   70.6851 H   0  0  0  0  0  0  0  0  0  0  0  0
    2.0013   62.6187   69.0095 H   0  0  0  0  0  0  0  0  0  0  0  0
    4.3505   61.5501   69.6096 H   0  0  0  0  0  0  0  0  0  0  0  0
    4.2297   63.0073   68.5403 H   0  0  0  0  0  0  0  0  0  0  0  0
    4.6994   63.1593   71.5449 H   0  0  0  0  0  0  0  0  0  0  0  0
    6.0223   63.1262   70.3302 H   0  0  0  0  0  0  0  0  0  0  0  0
    4.8365   64.4755   70.3302 H   0  0  0  0  0  0  0  0  0  0  0  0
    2.6997   68.8741   64.2175 H   0  0  0  0  0  0  0  0  0  0  0  0
    2.8637   70.1060   65.5140 H   0  0  0  0  0  0  0  0  0  0  0  0
    4.5465   67.9332   66.2640 H   0  0  0  0  0  0  0  0  0  0  0  0
    6.2442   69.8902   65.2391 H   0  0  0  0  0  0  0  0  0  0  0  0
    4.6686   70.7888   65.4942 H   0  0  0  0  0  0  0  0  0  0  0  0
    4.7732   69.6570   67.8592 H   0  0  0  0  0  0  0  0  0  0  0  0
    6.5326   69.5680   67.5082 H   0  0  0  0  0  0  0  0  0  0  0  0
    5.6959   71.1576   67.5082 H   0  0  0  0  0  0  0  0  0  0  0  0
    5.8714   67.2634   64.5520 H   0  0  0  0  0  0  0  0  0  0  0  0
    4.2398   67.4163   63.7195 H   0  0  0  0  0  0  0  0  0  0  0  0
    5.9597   69.8177   63.6188 H   0  0  0  0  0  0  0  0  0  0  0  0
    6.5512   68.3704   62.7037 H   0  0  0  0  0  0  0  0  0  0  0  0
    3.4384   67.5432   62.7388 H   0  0  0  0  0  0  0  0  0  0  0  0
    2.8793   68.2901   61.2038 H   0  0  0  0  0  0  0  0  0  0  0  0
    4.3049   67.1973   61.2038 H   0  0  0  0  0  0  0  0  0  0  0  0
    5.2269   69.3799   61.0980 H   0  0  0  0  0  0  0  0  0  0  0  0
    4.0526   70.0113   62.3230 H   0  0  0  0  0  0  0  0  0  0  0  0
  2  1  2  0
  3  2  1  0
  4  3  2  0
  5  4  1  0
  6  5  2  0
  6  1  1  0
  7  6  1  0
  8  7  2  0
  9  7  1  0
 10  9  1  0
 11 10  1  0
 12 11  1  0
 13 12  1  0
 14 11  1  0
 15 14  1  0
 16 15  1  0
 17 16  1  0
 18  1  1  0
 19 18  2  0
 20 18  1  0
 21 20  1  0
 22 21  1  0
 23 22  1  0
 24 23  1  0
 25 22  1  0
 26 25  1  0
 28 27  1  0
 28 26  1  0
  2 29  1  0
  3 30  1  0
  4 31  1  0
  5 32  1  0
 10 33  1  0
 10 34  1  0
 11 35  1  1
 12 36  1  0
 12 37  1  0
 13 38  1  0
 13 39  1  0
 13 40  1  0
 14 41  1  0
 14 42  1  0
 15 43  1  0
 15 44  1  0
 16 45  1  0
 16 46  1  0
 17 47  1  0
 17 48  1  0
 17 49  1  0
 21 50  1  0
 21 51  1  0
 22 52  1  1
 23 53  1  0
 23 54  1  0
 24 55  1  0
 24 56  1  0
 24 57  1  0
 25 58  1  0
 25 59  1  0
 26 60  1  0
 26 61  1  0
 27 62  1  0
 27 63  1  0
 27 64  1  0
 28 65  1  0
 28 66  1  0
M  END
>  <score>  (5) 
-7.962

$$$$
=
     RDKit          3D

 66 66  0  0  0  0  0  0  0  0999 V2000
    0.1910   68.1830   67.2440 C   0  0  0  0  0  0  0  0  0  0  0  0
   -0.7610   68.6690   66.3360 C   0  0  0  0  0  0  0  0  0  0  0  0
   -2.0770   68.2030   66.3780 C   0  0  0  0  0  0  0  0  0  0  0  0
   -2.4530   67.2530   67.3280 C   0  0  0  0  0  0  0  0  0  0  0  0
   -1.5170   66.7780   68.2470 C   0  0  0  0  0  0  0  0  0  0  0  0
   -0.1940   67.2460   68.2110 C   0  0  0  0  0  0  0  0  0  0  0  0
    0.7470   66.7950   69.2520 C   0  0  0  0  0  0  0  0  0  0  0  0
    1.5890   67.5060   69.7680 O   0  0  0  0  0  0  0  0  0  0  0  0
    0.5170   65.4810   69.4970 O   0  0  0  0  0  0  0  0  0  0  0  0
    0.4650   65.1440   70.8910 C   0  0  0  0  0  0  0  0  0  0  0  0
    1.5220   64.0630   71.1860 C   0  0  1  0  0  0  0  0  0  0  0  0
    0.9950   62.6510   70.8590 C   0  0  0  0  0  0  0  0  0  0  0  0
    0.9750   61.7090   72.0580 C   0  0  0  0  0  0  0  0  0  0  0  0
    2.8240   64.3830   70.4090 C   0  0  0  0  0  0  0  0  0  0  0  0
    3.5900   63.1370   69.9490 C   0  0  0  0  0  0  0  0  0  0  0  0
    4.9730   63.0680   70.5990 C   0  0  0  0  0  0  0  0  0  0  0  0
    5.0800   61.8960   71.5600 C   0  0  0  0  0  0  0  0  0  0  0  0
    1.5760   68.6790   67.0970 C   0  0  0  0  0  0  0  0  0  0  0  0
    1.9310   69.7990   67.4270 O   0  0  0  0  0  0  0  0  0  0  0  0
    2.3180   67.7560   66.4420 O   0  0  0  0  0  0  0  0  0  0  0  0
    2.1180   67.7110   65.0240 C   0  0  0  0  0  0  0  0  0  0  0  0
    2.9960   68.7820   64.3480 C   0  0  2  0  0  0  0  0  0  0  0  0
    2.6930   68.7930   62.8330 C   0  0  0  0  0  0  0  0  0  0  0  0
    3.9290   68.6720   61.9520 C   0  0  0  0  0  0  0  0  0  0  0  0
    4.5100   68.5830   64.6100 C   0  0  0  0  0  0  0  0  0  0  0  0
    5.2310   69.8060   65.1840 C   0  0  0  0  0  0  0  0  0  0  0  0
    6.5450   70.3730   67.2570 C   0  0  0  0  0  0  0  0  0  0  0  0
    5.2560   69.7770   66.7130 C   0  0  0  0  0  0  0  0  0  0  0  0
   -0.4699   69.4206   65.5874 H   0  0  0  0  0  0  0  0  0  0  0  0
   -2.8182   68.5856   65.6609 H   0  0  0  0  0  0  0  0  0  0  0  0
   -3.4871   66.8786   67.3524 H   0  0  0  0  0  0  0  0  0  0  0  0
   -1.8162   66.0353   69.0013 H   0  0  0  0  0  0  0  0  0  0  0  0
    0.6747   66.0392   71.4948 H   0  0  0  0  0  0  0  0  0  0  0  0
   -0.5357   64.7638   71.1441 H   0  0  0  0  0  0  0  0  0  0  0  0
    1.7454   64.0717   72.2630 H   0  0  0  0  0  0  0  0  0  0  0  0
   -0.0312   62.7443   70.4740 H   0  0  0  0  0  0  0  0  0  0  0  0
    1.6836   62.2150   70.1203 H   0  0  0  0  0  0  0  0  0  0  0  0
    0.9875   62.2978   72.9871 H   0  0  0  0  0  0  0  0  0  0  0  0
    0.0636   61.0939   72.0259 H   0  0  0  0  0  0  0  0  0  0  0  0
    1.8595   61.0558   72.0259 H   0  0  0  0  0  0  0  0  0  0  0  0
    2.5613   64.9766   69.5209 H   0  0  0  0  0  0  0  0  0  0  0  0
    3.4839   64.9292   71.0991 H   0  0  0  0  0  0  0  0  0  0  0  0
    3.0172   62.2402   70.2276 H   0  0  0  0  0  0  0  0  0  0  0  0
    3.7196   63.1902   68.8580 H   0  0  0  0  0  0  0  0  0  0  0  0
    5.7326   62.9547   69.8115 H   0  0  0  0  0  0  0  0  0  0  0  0
    5.1332   63.9958   71.1678 H   0  0  0  0  0  0  0  0  0  0  0  0
    5.0462   62.2664   72.5952 H   0  0  0  0  0  0  0  0  0  0  0  0
    4.2412   61.2049   71.3903 H   0  0  0  0  0  0  0  0  0  0  0  0
    6.0301   61.3682   71.3903 H   0  0  0  0  0  0  0  0  0  0  0  0
    2.3963   66.7163   64.6457 H   0  0  0  0  0  0  0  0  0  0  0  0
    1.0598   67.9066   64.7962 H   0  0  0  0  0  0  0  0  0  0  0  0
    2.7438   69.7559   64.7928 H   0  0  0  0  0  0  0  0  0  0  0  0
    2.0243   67.9491   62.6081 H   0  0  0  0  0  0  0  0  0  0  0  0
    2.2363   69.7680   62.6074 H   0  0  0  0  0  0  0  0  0  0  0  0
    4.8238   68.5844   62.5857 H   0  0  0  0  0  0  0  0  0  0  0  0
    3.8405   67.7782   61.3169 H   0  0  0  0  0  0  0  0  0  0  0  0
    4.0155   69.5660   61.3169 H   0  0  0  0  0  0  0  0  0  0  0  0
    4.6274   67.7521   65.3212 H   0  0  0  0  0  0  0  0  0  0  0  0
    4.9694   68.3856   63.6302 H   0  0  0  0  0  0  0  0  0  0  0  0
    6.2654   69.8190   64.8100 H   0  0  0  0  0  0  0  0  0  0  0  0
    4.6874   70.7076   64.8653 H   0  0  0  0  0  0  0  0  0  0  0  0
    6.5191   70.3610   68.3566 H   0  0  0  0  0  0  0  0  0  0  0  0
    7.4011   69.7793   66.9039 H   0  0  0  0  0  0  0  0  0  0  0  0
    6.6472   71.4098   66.9039 H   0  0  0  0  0  0  0  0  0  0  0  0
    5.1722   68.7342   67.0528 H   0  0  0  0  0  0  0  0  0  0  0  0
    4.4125   70.3770   67.0850 H   0  0  0  0  0  0  0  0  0  0  0  0
  2  1  2  0
  3  2  1  0
  4  3  2  0
  5  4  1  0
  6  5  2  0
  6  1  1  0
  7  6  1  0
  8  7  2  0
  9  7  1  0
 10  9  1  0
 11 10  1  0
 12 11  1  0
 13 12  1  0
 14 11  1  0
 15 14  1  0
 16 15  1  0
 17 16  1  0
 18  1  1  0
 19 18  2  0
 20 18  1  0
 21 20  1  0
 22 21  1  0
 23 22  1  0
 24 23  1  0
 25 22  1  0
 26 25  1  0
 28 27  1  0
 28 26  1  0
  2 29  1  0
  3 30  1  0
  4 31  1  0
  5 32  1  0
 10 33  1  0
 10 34  1  0
 11 35  1  1
 12 36  1  0
 12 37  1  0
 13 38  1  0
 13 39  1  0
 13 40  1  0
 14 41  1  0
 14 42  1  0
 15 43  1  0
 15 44  1  0
 16 45  1  0
 16 46  1  0
 17 47  1  0
 17 48  1  0
 17 49  1  0
 21 50  1  0
 21 51  1  0
 22 52  1  1
 23 53  1  0
 23 54  1  0
 24 55  1  0
 24 56  1  0
 24 57  1  0
 25 58  1  0
 25 59  1  0
 26 60  1  0
 26 61  1  0
 27 62  1  0
 27 63  1  0
 27 64  1  0
 28 65  1  0
 28 66  1  0
M  END
>  <score>  (6) 
-7.942

$$$$
=
     RDKit          3D

 66 66  0  0  0  0  0  0  0  0999 V2000
    3.8480   67.3140   63.7270 C   0  0  0  0  0  0  0  0  0  0  0  0
    4.7910   66.2760   63.6940 C   0  0  0  0  0  0  0  0  0  0  0  0
    4.4480   64.9980   64.1420 C   0  0  0  0  0  0  0  0  0  0  0  0
    3.1630   64.7460   64.6200 C   0  0  0  0  0  0  0  0  0  0  0  0
    2.2120   65.7680   64.6390 C   0  0  0  0  0  0  0  0  0  0  0  0
    2.5520   67.0520   64.1870 C   0  0  0  0  0  0  0  0  0  0  0  0
    1.5010   68.0850   64.1330 C   0  0  0  0  0  0  0  0  0  0  0  0
    1.2060   68.7080   63.1300 O   0  0  0  0  0  0  0  0  0  0  0  0
    0.9660   68.2180   65.3710 O   0  0  0  0  0  0  0  0  0  0  0  0
   -0.3530   68.7840   65.3840 C   0  0  0  0  0  0  0  0  0  0  0  0
   -1.0150   68.4820   66.7420 C   0  0  1  0  0  0  0  0  0  0  0  0
   -2.5020   68.1070   66.5760 C   0  0  0  0  0  0  0  0  0  0  0  0
   -3.2120   68.8820   65.4710 C   0  0  0  0  0  0  0  0  0  0  0  0
   -0.2210   67.3710   67.4730 C   0  0  0  0  0  0  0  0  0  0  0  0
   -1.0200   66.6650   68.5740 C   0  0  0  0  0  0  0  0  0  0  0  0
   -0.0940   66.1100   69.6580 C   0  0  0  0  0  0  0  0  0  0  0  0
    1.2340   66.8480   69.6890 C   0  0  0  0  0  0  0  0  0  0  0  0
    4.3040   68.6520   63.2940 C   0  0  0  0  0  0  0  0  0  0  0  0
    4.6500   68.9100   62.1530 O   0  0  0  0  0  0  0  0  0  0  0  0
    4.3870   69.4700   64.3690 O   0  0  0  0  0  0  0  0  0  0  0  0
    5.6100   69.3750   65.1100 C   0  0  0  0  0  0  0  0  0  0  0  0
    5.5270   70.2810   66.3550 C   0  0  2  0  0  0  0  0  0  0  0  0
    6.9520   70.5120   66.9010 C   0  0  0  0  0  0  0  0  0  0  0  0
    6.9980   70.9020   68.3720 C   0  0  0  0  0  0  0  0  0  0  0  0
    4.5950   69.7170   67.4560 C   0  0  0  0  0  0  0  0  0  0  0  0
    3.1180   69.6190   67.0640 C   0  0  0  0  0  0  0  0  0  0  0  0
    2.9240   70.8330   69.2620 C   0  0  0  0  0  0  0  0  0  0  0  0
    2.2010   69.9780   68.2340 C   0  0  0  0  0  0  0  0  0  0  0  0
    5.8049   66.4692   63.3137 H   0  0  0  0  0  0  0  0  0  0  0  0
    5.1932   64.1892   64.1175 H   0  0  0  0  0  0  0  0  0  0  0  0
    2.8982   63.7417   64.9823 H   0  0  0  0  0  0  0  0  0  0  0  0
    1.1957   65.5665   65.0085 H   0  0  0  0  0  0  0  0  0  0  0  0
   -0.2887   69.8725   65.2390 H   0  0  0  0  0  0  0  0  0  0  0  0
   -0.9531   68.3466   64.5725 H   0  0  0  0  0  0  0  0  0  0  0  0
   -0.9891   69.3928   67.3582 H   0  0  0  0  0  0  0  0  0  0  0  0
   -2.5652   67.0339   66.3427 H   0  0  0  0  0  0  0  0  0  0  0  0
   -3.0045   68.3625   67.5206 H   0  0  0  0  0  0  0  0  0  0  0  0
   -3.8903   69.6224   65.9201 H   0  0  0  0  0  0  0  0  0  0  0  0
   -2.4667   69.3980   64.8479 H   0  0  0  0  0  0  0  0  0  0  0  0
   -3.7912   68.1846   64.8479 H   0  0  0  0  0  0  0  0  0  0  0  0
    0.0873   66.6193   66.7314 H   0  0  0  0  0  0  0  0  0  0  0  0
    0.6373   67.8569   67.9601 H   0  0  0  0  0  0  0  0  0  0  0  0
   -1.7160   67.3844   69.0301 H   0  0  0  0  0  0  0  0  0  0  0  0
   -1.5707   65.8266   68.1226 H   0  0  0  0  0  0  0  0  0  0  0  0
   -0.5851   66.2170   70.6365 H   0  0  0  0  0  0  0  0  0  0  0  0
    0.1049   65.0519   69.4327 H   0  0  0  0  0  0  0  0  0  0  0  0
    1.5359   67.0158   70.7334 H   0  0  0  0  0  0  0  0  0  0  0  0
    2.0000   66.2461   69.1780 H   0  0  0  0  0  0  0  0  0  0  0  0
    1.1274   67.8163   69.1780 H   0  0  0  0  0  0  0  0  0  0  0  0
    5.7684   68.3329   65.4245 H   0  0  0  0  0  0  0  0  0  0  0  0
    6.4492   69.6978   64.4763 H   0  0  0  0  0  0  0  0  0  0  0  0
    5.0792   71.2377   66.0482 H   0  0  0  0  0  0  0  0  0  0  0  0
    7.5264   69.5828   66.7718 H   0  0  0  0  0  0  0  0  0  0  0  0
    7.3757   71.3552   66.3357 H   0  0  0  0  0  0  0  0  0  0  0  0
    6.8917   70.0008   68.9938 H   0  0  0  0  0  0  0  0  0  0  0  0
    7.9597   71.3883   68.5925 H   0  0  0  0  0  0  0  0  0  0  0  0
    6.1758   71.5987   68.5925 H   0  0  0  0  0  0  0  0  0  0  0  0
    4.9467   68.7080   67.7172 H   0  0  0  0  0  0  0  0  0  0  0  0
    4.6446   70.4268   68.2949 H   0  0  0  0  0  0  0  0  0  0  0  0
    2.9227   70.3112   66.2317 H   0  0  0  0  0  0  0  0  0  0  0  0
    2.9083   68.5805   66.7681 H   0  0  0  0  0  0  0  0  0  0  0  0
    2.6455   70.5037   70.2739 H   0  0  0  0  0  0  0  0  0  0  0  0
    4.0107   70.7271   69.1280 H   0  0  0  0  0  0  0  0  0  0  0  0
    2.6390   71.8870   69.1280 H   0  0  0  0  0  0  0  0  0  0  0  0
    1.8573   69.0514   68.7170 H   0  0  0  0  0  0  0  0  0  0  0  0
    1.3488   70.5530   67.8427 H   0  0  0  0  0  0  0  0  0  0  0  0
  2  1  2  0
  3  2  1  0
  4  3  2  0
  5  4  1  0
  6  5  2  0
  6  1  1  0
  7  6  1  0
  8  7  2  0
  9  7  1  0
 10  9  1  0
 11 10  1  0
 12 11  1  0
 13 12  1  0
 14 11  1  0
 15 14  1  0
 16 15  1  0
 17 16  1  0
 18  1  1  0
 19 18  2  0
 20 18  1  0
 21 20  1  0
 22 21  1  0
 23 22  1  0
 24 23  1  0
 25 22  1  0
 26 25  1  0
 28 27  1  0
 28 26  1  0
  2 29  1  0
  3 30  1  0
  4 31  1  0
  5 32  1  0
 10 33  1  0
 10 34  1  0
 11 35  1  1
 12 36  1  0
 12 37  1  0
 13 38  1  0
 13 39  1  0
 13 40  1  0
 14 41  1  0
 14 42  1  0
 15 43  1  0
 15 44  1  0
 16 45  1  0
 16 46  1  0
 17 47  1  0
 17 48  1  0
 17 49  1  0
 21 50  1  0
 21 51  1  0
 22 52  1  6
 23 53  1  0
 23 54  1  0
 24 55  1  0
 24 56  1  0
 24 57  1  0
 25 58  1  0
 25 59  1  0
 26 60  1  0
 26 61  1  0
 27 62  1  0
 27 63  1  0
 27 64  1  0
 28 65  1  0
 28 66  1  0
M  END
>  <score>  (7) 
-7.753

$$$$
=
     RDKit          3D

 66 66  0  0  0  0  0  0  0  0999 V2000
   -0.6370   68.4270   65.3030 C   0  0  0  0  0  0  0  0  0  0  0  0
   -2.0050   68.7210   65.2030 C   0  0  0  0  0  0  0  0  0  0  0  0
   -2.8770   68.3810   66.2380 C   0  0  0  0  0  0  0  0  0  0  0  0
   -2.3910   67.7500   67.3830 C   0  0  0  0  0  0  0  0  0  0  0  0
   -1.0290   67.4710   67.5010 C   0  0  0  0  0  0  0  0  0  0  0  0
   -0.1480   67.8140   66.4630 C   0  0  0  0  0  0  0  0  0  0  0  0
    1.2960   67.5900   66.6560 C   0  0  0  0  0  0  0  0  0  0  0  0
    1.8570   66.5290   66.4510 O   0  0  0  0  0  0  0  0  0  0  0  0
    1.8510   68.7390   67.1110 O   0  0  0  0  0  0  0  0  0  0  0  0
    3.0040   69.1690   66.3690 C   0  0  0  0  0  0  0  0  0  0  0  0
    3.8600   70.0880   67.2620 C   0  0  1  0  0  0  0  0  0  0  0  0
    3.4420   69.9870   68.7430 C   0  0  0  0  0  0  0  0  0  0  0  0
    3.8270   71.2050   69.5750 C   0  0  0  0  0  0  0  0  0  0  0  0
    5.3590   69.7550   67.0650 C   0  0  0  0  0  0  0  0  0  0  0  0
    6.2890   70.9600   67.2500 C   0  0  0  0  0  0  0  0  0  0  0  0
    7.5600   70.5660   68.0040 C   0  0  0  0  0  0  0  0  0  0  0  0
    7.4520   70.8890   69.4860 C   0  0  0  0  0  0  0  0  0  0  0  0
    0.2120   68.7630   64.1400 C   0  0  0  0  0  0  0  0  0  0  0  0
    0.0480   69.7550   63.4490 O   0  0  0  0  0  0  0  0  0  0  0  0
    1.0840   67.7540   63.9130 O   0  0  0  0  0  0  0  0  0  0  0  0
    2.0600   68.0130   62.8950 C   0  0  0  0  0  0  0  0  0  0  0  0
    3.4680   67.7130   63.4460 C   0  0  2  0  0  0  0  0  0  0  0  0
    4.5050   67.9650   62.3310 C   0  0  0  0  0  0  0  0  0  0  0  0
    5.6130   68.9340   62.7200 C   0  0  0  0  0  0  0  0  0  0  0  0
    3.6050   66.2810   64.0200 C   0  0  0  0  0  0  0  0  0  0  0  0
    4.5010   65.3430   63.2060 C   0  0  0  0  0  0  0  0  0  0  0  0
    3.7950   63.8620   65.1180 C   0  0  0  0  0  0  0  0  0  0  0  0
    4.7380   64.0200   63.9350 C   0  0  0  0  0  0  0  0  0  0  0  0
   -2.3924   69.2223   64.3038 H   0  0  0  0  0  0  0  0  0  0  0  0
   -3.9492   68.6109   66.1507 H   0  0  0  0  0  0  0  0  0  0  0  0
   -3.0815   67.4723   68.1930 H   0  0  0  0  0  0  0  0  0  0  0  0
   -0.6450   66.9818   68.4083 H   0  0  0  0  0  0  0  0  0  0  0  0
    3.5961   68.2926   66.0666 H   0  0  0  0  0  0  0  0  0  0  0  0
    2.6849   69.7162   65.4697 H   0  0  0  0  0  0  0  0  0  0  0  0
    3.6912   71.1322   66.9600 H   0  0  0  0  0  0  0  0  0  0  0  0
    2.3494   69.8677   68.7877 H   0  0  0  0  0  0  0  0  0  0  0  0
    3.9772   69.1256   69.1691 H   0  0  0  0  0  0  0  0  0  0  0  0
    3.7490   70.9583   70.6441 H   0  0  0  0  0  0  0  0  0  0  0  0
    4.8613   71.4971   69.3406 H   0  0  0  0  0  0  0  0  0  0  0  0
    3.1485   72.0385   69.3406 H   0  0  0  0  0  0  0  0  0  0  0  0
    5.6419   68.9829   67.7957 H   0  0  0  0  0  0  0  0  0  0  0  0
    5.4781   69.4143   66.0259 H   0  0  0  0  0  0  0  0  0  0  0  0
    6.5659   71.3548   66.2614 H   0  0  0  0  0  0  0  0  0  0  0  0
    5.7578   71.7235   67.8372 H   0  0  0  0  0  0  0  0  0  0  0  0
    7.7256   69.4851   67.8850 H   0  0  0  0  0  0  0  0  0  0  0  0
    8.4007   71.1394   67.5863 H   0  0  0  0  0  0  0  0  0  0  0  0
    7.7465   70.0083   70.0756 H   0  0  0  0  0  0  0  0  0  0  0  0
    8.1175   71.7310   69.7272 H   0  0  0  0  0  0  0  0  0  0  0  0
    6.4139   71.1614   69.7272 H   0  0  0  0  0  0  0  0  0  0  0  0
    1.8619   67.3699   62.0248 H   0  0  0  0  0  0  0  0  0  0  0  0
    2.0021   69.0686   62.5911 H   0  0  0  0  0  0  0  0  0  0  0  0
    3.6509   68.3901   64.2934 H   0  0  0  0  0  0  0  0  0  0  0  0
    4.9658   67.0026   62.0639 H   0  0  0  0  0  0  0  0  0  0  0  0
    3.9626   68.4240   61.4912 H   0  0  0  0  0  0  0  0  0  0  0  0
    5.6804   68.9929   63.8164 H   0  0  0  0  0  0  0  0  0  0  0  0
    6.5708   68.5785   62.3124 H   0  0  0  0  0  0  0  0  0  0  0  0
    5.3883   69.9307   62.3124 H   0  0  0  0  0  0  0  0  0  0  0  0
    4.0233   66.3581   65.0344 H   0  0  0  0  0  0  0  0  0  0  0  0
    2.5968   65.8416   63.9969 H   0  0  0  0  0  0  0  0  0  0  0  0
    4.0177   65.1368   62.2396 H   0  0  0  0  0  0  0  0  0  0  0  0
    5.4738   65.8356   63.0608 H   0  0  0  0  0  0  0  0  0  0  0  0
    4.3632   63.9572   66.0551 H   0  0  0  0  0  0  0  0  0  0  0  0
    3.0215   64.6431   65.0772 H   0  0  0  0  0  0  0  0  0  0  0  0
    3.3184   62.8715   65.0772 H   0  0  0  0  0  0  0  0  0  0  0  0
    5.7759   63.9924   64.2984 H   0  0  0  0  0  0  0  0  0  0  0  0
    4.5496   63.1972   63.2296 H   0  0  0  0  0  0  0  0  0  0  0  0
  2  1  2  0
  3  2  1  0
  4  3  2  0
  5  4  1  0
  6  5  2  0
  6  1  1  0
  7  6  1  0
  8  7  2  0
  9  7  1  0
 10  9  1  0
 11 10  1  0
 12 11  1  0
 13 12  1  0
 14 11  1  0
 15 14  1  0
 16 15  1  0
 17 16  1  0
 18  1  1  0
 19 18  2  0
 20 18  1  0
 21 20  1  0
 22 21  1  0
 23 22  1  0
 24 23  1  0
 25 22  1  0
 26 25  1  0
 28 27  1  0
 28 26  1  0
  2 29  1  0
  3 30  1  0
  4 31  1  0
  5 32  1  0
 10 33  1  0
 10 34  1  0
 11 35  1  6
 12 36  1  0
 12 37  1  0
 13 38  1  0
 13 39  1  0
 13 40  1  0
 14 41  1  0
 14 42  1  0
 15 43  1  0
 15 44  1  0
 16 45  1  0
 16 46  1  0
 17 47  1  0
 17 48  1  0
 17 49  1  0
 21 50  1  0
 21 51  1  0
 22 52  1  1
 23 53  1  0
 23 54  1  0
 24 55  1  0
 24 56  1  0
 24 57  1  0
 25 58  1  0
 25 59  1  0
 26 60  1  0
 26 61  1  0
 27 62  1  0
 27 63  1  0
 27 64  1  0
 28 65  1  0
 28 66  1  0
M  END
>  <score>  (8) 
-7.456

$$$$
=
     RDKit          3D

 66 66  0  0  0  0  0  0  0  0999 V2000
   -0.3200   68.2920   66.5770 C   0  0  0  0  0  0  0  0  0  0  0  0
   -1.3410   68.9580   65.8820 C   0  0  0  0  0  0  0  0  0  0  0  0
   -2.6780   68.6210   66.0990 C   0  0  0  0  0  0  0  0  0  0  0  0
   -3.0080   67.6210   67.0140 C   0  0  0  0  0  0  0  0  0  0  0  0
   -2.0010   66.9650   67.7230 C   0  0  0  0  0  0  0  0  0  0  0  0
   -0.6550   67.3040   67.5100 C   0  0  0  0  0  0  0  0  0  0  0  0
    0.3780   66.6590   68.3410 C   0  0  0  0  0  0  0  0  0  0  0  0
    1.5760   66.7920   68.1690 O   0  0  0  0  0  0  0  0  0  0  0  0
   -0.2390   65.9010   69.2800 O   0  0  0  0  0  0  0  0  0  0  0  0
    0.4680   65.8200   70.5270 C   0  0  0  0  0  0  0  0  0  0  0  0
    0.9410   64.3690   70.7420 C   0  0  1  0  0  0  0  0  0  0  0  0
    2.4660   64.2360   70.5490 C   0  0  0  0  0  0  0  0  0  0  0  0
    2.8770   63.0320   69.7090 C   0  0  0  0  0  0  0  0  0  0  0  0
    0.4960   63.8780   72.1410 C   0  0  0  0  0  0  0  0  0  0  0  0
   -0.2320   62.5280   72.1190 C   0  0  0  0  0  0  0  0  0  0  0  0
    0.0310   61.7380   73.4020 C   0  0  0  0  0  0  0  0  0  0  0  0
   -0.3920   60.2850   73.2590 C   0  0  0  0  0  0  0  0  0  0  0  0
    1.0720   68.6630   66.2480 C   0  0  0  0  0  0  0  0  0  0  0  0
    1.7400   69.4360   66.9140 O   0  0  0  0  0  0  0  0  0  0  0  0
    1.4150   68.1160   65.0580 O   0  0  0  0  0  0  0  0  0  0  0  0
    2.4970   68.7660   64.3800 C   0  0  0  0  0  0  0  0  0  0  0  0
    3.7640   67.8930   64.4810 C   0  0  2  0  0  0  0  0  0  0  0  0
    4.9780   68.8050   64.7650 C   0  0  0  0  0  0  0  0  0  0  0  0
    5.5010   69.5430   63.5400 C   0  0  0  0  0  0  0  0  0  0  0  0
    4.0060   67.0230   63.2230 C   0  0  0  0  0  0  0  0  0  0  0  0
    4.2460   65.5370   63.5020 C   0  0  0  0  0  0  0  0  0  0  0  0
    3.8760   63.8360   65.3230 C   0  0  0  0  0  0  0  0  0  0  0  0
    3.2720   64.9980   64.5510 C   0  0  0  0  0  0  0  0  0  0  0  0
   -1.0863   69.7499   65.1623 H   0  0  0  0  0  0  0  0  0  0  0  0
   -3.4728   69.1448   65.5476 H   0  0  0  0  0  0  0  0  0  0  0  0
   -4.0616   67.3497   67.1765 H   0  0  0  0  0  0  0  0  0  0  0  0
   -2.2618   66.1814   68.4496 H   0  0  0  0  0  0  0  0  0  0  0  0
    1.3386   66.4918   70.5017 H   0  0  0  0  0  0  0  0  0  0  0  0
   -0.1959   66.1205   71.3510 H   0  0  0  0  0  0  0  0  0  0  0  0
    0.4718   63.7283   69.9809 H   0  0  0  0  0  0  0  0  0  0  0  0
    2.8336   65.1465   70.0532 H   0  0  0  0  0  0  0  0  0  0  0  0
    2.9043   64.0945   71.5479 H   0  0  0  0  0  0  0  0  0  0  0  0
    3.1605   62.2016   70.3724 H   0  0  0  0  0  0  0  0  0  0  0  0
    2.0336   62.7227   69.0742 H   0  0  0  0  0  0  0  0  0  0  0  0
    3.7335   63.3030   69.0742 H   0  0  0  0  0  0  0  0  0  0  0  0
    1.3896   63.7802   72.7750 H   0  0  0  0  0  0  0  0  0  0  0  0
   -0.2162   64.6205   72.5303 H   0  0  0  0  0  0  0  0  0  0  0  0
   -1.3133   62.7048   72.0215 H   0  0  0  0  0  0  0  0  0  0  0  0
    0.1433   61.9432   71.2662 H   0  0  0  0  0  0  0  0  0  0  0  0
    1.1062   61.7762   73.6311 H   0  0  0  0  0  0  0  0  0  0  0  0
   -0.5588   62.1907   74.2127 H   0  0  0  0  0  0  0  0  0  0  0  0
   -0.5213   59.8408   74.2570 H   0  0  0  0  0  0  0  0  0  0  0  0
   -1.3427   60.2324   72.7083 H   0  0  0  0  0  0  0  0  0  0  0  0
    0.3819   59.7303   72.7083 H   0  0  0  0  0  0  0  0  0  0  0  0
    2.2336   68.9092   63.3217 H   0  0  0  0  0  0  0  0  0  0  0  0
    2.6872   69.7443   64.8456 H   0  0  0  0  0  0  0  0  0  0  0  0
    3.6202   67.1834   65.3091 H   0  0  0  0  0  0  0  0  0  0  0  0
    4.6813   69.5508   65.5171 H   0  0  0  0  0  0  0  0  0  0  0  0
    5.7914   68.1513   65.1129 H   0  0  0  0  0  0  0  0  0  0  0  0
    6.1093   70.4014   63.8611 H   0  0  0  0  0  0  0  0  0  0  0  0
    6.1185   68.8610   62.9370 H   0  0  0  0  0  0  0  0  0  0  0  0
    4.6529   69.8997   62.9370 H   0  0  0  0  0  0  0  0  0  0  0  0
    3.1232   67.1101   62.5726 H   0  0  0  0  0  0  0  0  0  0  0  0
    4.9285   67.4022   62.7591 H   0  0  0  0  0  0  0  0  0  0  0  0
    4.1132   64.9721   62.5675 H   0  0  0  0  0  0  0  0  0  0  0  0
    5.2690   65.4198   63.8891 H   0  0  0  0  0  0  0  0  0  0  0  0
    3.7788   64.0230   66.4026 H   0  0  0  0  0  0  0  0  0  0  0  0
    3.3462   62.9078   65.0625 H   0  0  0  0  0  0  0  0  0  0  0  0
    4.9400   63.7363   65.0625 H   0  0  0  0  0  0  0  0  0  0  0  0
    2.3564   64.6554   64.0468 H   0  0  0  0  0  0  0  0  0  0  0  0
    3.0466   65.8064   65.2621 H   0  0  0  0  0  0  0  0  0  0  0  0
  2  1  2  0
  3  2  1  0
  4  3  2  0
  5  4  1  0
  6  5  2  0
  6  1  1  0
  7  6  1  0
  8  7  2  0
  9  7  1  0
 10  9  1  0
 11 10  1  0
 12 11  1  0
 13 12  1  0
 14 11  1  0
 15 14  1  0
 16 15  1  0
 17 16  1  0
 18  1  1  0
 19 18  2  0
 20 18  1  0
 21 20  1  0
 22 21  1  0
 23 22  1  0
 24 23  1  0
 25 22  1  0
 26 25  1  0
 28 27  1  0
 28 26  1  0
  2 29  1  0
  3 30  1  0
  4 31  1  0
  5 32  1  0
 10 33  1  0
 10 34  1  0
 11 35  1  6
 12 36  1  0
 12 37  1  0
 13 38  1  0
 13 39  1  0
 13 40  1  0
 14 41  1  0
 14 42  1  0
 15 43  1  0
 15 44  1  0
 16 45  1  0
 16 46  1  0
 17 47  1  0
 17 48  1  0
 17 49  1  0
 21 50  1  0
 21 51  1  0
 22 52  1  1
 23 53  1  0
 23 54  1  0
 24 55  1  0
 24 56  1  0
 24 57  1  0
 25 58  1  0
 25 59  1  0
 26 60  1  0
 26 61  1  0
 27 62  1  0
 27 63  1  0
 27 64  1  0
 28 65  1  0
 28 66  1  0
M  END
>  <score>  (9) 
-7.166

$$$$
