=
     RDKit          3D

 29 30  0  0  0  0  0  0  0  0999 V2000
    4.0020   69.8360   66.3220 C   0  0  0  0  0  0  0  0  0  0  0  0
    4.3180   69.2710   65.1450 C   0  0  0  0  0  0  0  0  0  0  0  0
    6.9030   70.7240   69.3240 C   0  0  0  0  0  0  0  0  0  0  0  0
    5.5630   70.6480   69.6800 C   0  0  0  0  0  0  0  0  0  0  0  0
    4.6020   70.3520   68.7090 C   0  0  0  0  0  0  0  0  0  0  0  0
    4.9830   70.1200   67.3790 C   0  0  0  0  0  0  0  0  0  0  0  0
    6.3390   70.2170   67.0390 C   0  0  0  0  0  0  0  0  0  0  0  0
    7.3010   70.5130   68.0090 C   0  0  0  0  0  0  0  0  0  0  0  0
    7.8050   71.0150   70.3030 O   0  0  0  0  0  0  0  0  0  0  0  0
    3.3380   68.9830   64.0880 C   0  0  0  0  0  0  0  0  0  0  0  0
    1.9780   68.7810   64.3640 C   0  0  0  0  0  0  0  0  0  0  0  0
    1.0850   68.5400   63.3200 C   0  0  0  0  0  0  0  0  0  0  0  0
    1.5160   68.5040   62.0000 C   0  0  0  0  0  0  0  0  0  0  0  0
    2.8620   68.7200   61.7280 C   0  0  0  0  0  0  0  0  0  0  0  0
    3.7700   68.9640   62.7550 C   0  0  0  0  0  0  0  0  0  0  0  0
   -0.2440   68.3370   63.5560 O   0  0  0  0  0  0  0  0  0  0  0  0
    3.3390   68.7040   60.4490 O   0  0  0  0  0  0  0  0  0  0  0  0
    2.9502   70.1009   66.5050 H   0  0  0  0  0  0  0  0  0  0  0  0
    5.3705   69.0088   64.9617 H   0  0  0  0  0  0  0  0  0  0  0  0
    5.2586   70.8202   70.7229 H   0  0  0  0  0  0  0  0  0  0  0  0
    3.5397   70.3006   68.9897 H   0  0  0  0  0  0  0  0  0  0  0  0
    6.6502   70.0583   65.9960 H   0  0  0  0  0  0  0  0  0  0  0  0
    8.3641   70.5784   67.7340 H   0  0  0  0  0  0  0  0  0  0  0  0
    8.7688   71.0772   70.0855 H   0  0  0  0  0  0  0  0  0  0  0  0
    1.6160   68.8126   65.4023 H   0  0  0  0  0  0  0  0  0  0  0  0
    0.8046   68.3080   61.1842 H   0  0  0  0  0  0  0  0  0  0  0  0
    4.8295   69.1424   62.5193 H   0  0  0  0  0  0  0  0  0  0  0  0
   -0.8607   68.1675   62.8003 H   0  0  0  0  0  0  0  0  0  0  0  0
    4.3015   68.8603   60.2777 H   0  0  0  0  0  0  0  0  0  0  0  0
  2  1  2  0
  4  3  2  0
  5  4  1  0
  6  5  2  0
  6  1  1  0
  7  6  1  0
  8  7  2  0
  8  3  1  0
  9  3  1  0
 10  2  1  0
 11 10  2  0
 12 11  1  0
 13 12  2  0
 14 13  1  0
 15 14  2  0
 15 10  1  0
 16 12  1  0
 17 14  1  0
  1 18  1  0
  2 19  1  0
  4 20  1  0
  5 21  1  0
  7 22  1  0
  8 23  1  0
  9 24  1  0
 11 25  1  0
 13 26  1  0
 15 27  1  0
 16 28  1  0
 17 29  1  0
M  END
>  <score>  (1) 
-9.091

$$$$
=
     RDKit          3D

 29 30  0  0  0  0  0  0  0  0999 V2000
    4.1500   69.8560   66.2990 C   0  0  0  0  0  0  0  0  0  0  0  0
    4.5350   69.4250   65.0860 C   0  0  0  0  0  0  0  0  0  0  0  0
    6.8120   70.7060   69.5240 C   0  0  0  0  0  0  0  0  0  0  0  0
    7.3280   70.5540   68.2450 C   0  0  0  0  0  0  0  0  0  0  0  0
    6.4680   70.2810   67.1770 C   0  0  0  0  0  0  0  0  0  0  0  0
    5.0860   70.1720   67.3870 C   0  0  0  0  0  0  0  0  0  0  0  0
    4.5870   70.3140   68.6900 C   0  0  0  0  0  0  0  0  0  0  0  0
    5.4470   70.5870   69.7590 C   0  0  0  0  0  0  0  0  0  0  0  0
    7.6860   70.9710   70.5350 O   0  0  0  0  0  0  0  0  0  0  0  0
    3.6010   69.1060   63.9980 C   0  0  0  0  0  0  0  0  0  0  0  0
    4.0050   69.0560   62.6550 C   0  0  0  0  0  0  0  0  0  0  0  0
    3.0850   68.7190   61.6640 C   0  0  0  0  0  0  0  0  0  0  0  0
    1.7650   68.4190   61.9800 C   0  0  0  0  0  0  0  0  0  0  0  0
    1.3720   68.4520   63.3120 C   0  0  0  0  0  0  0  0  0  0  0  0
    2.2750   68.7860   64.3190 C   0  0  0  0  0  0  0  0  0  0  0  0
    3.4460   68.6660   60.3490 O   0  0  0  0  0  0  0  0  0  0  0  0
    0.0900   68.1590   63.6810 O   0  0  0  0  0  0  0  0  0  0  0  0
    3.0735   69.9793   66.4884 H   0  0  0  0  0  0  0  0  0  0  0  0
    5.6118   69.3040   64.8967 H   0  0  0  0  0  0  0  0  0  0  0  0
    8.4102   70.6480   68.0719 H   0  0  0  0  0  0  0  0  0  0  0  0
    6.8785   70.1508   66.1648 H   0  0  0  0  0  0  0  0  0  0  0  0
    3.5074   70.2095   68.8734 H   0  0  0  0  0  0  0  0  0  0  0  0
    5.0467   70.7065   70.7766 H   0  0  0  0  0  0  0  0  0  0  0  0
    7.3527   71.0855   71.4602 H   0  0  0  0  0  0  0  0  0  0  0  0
    5.0469   69.2826   62.3848 H   0  0  0  0  0  0  0  0  0  0  0  0
    1.0448   68.1602   61.1898 H   0  0  0  0  0  0  0  0  0  0  0  0
    1.9463   68.7985   65.3687 H   0  0  0  0  0  0  0  0  0  0  0  0
    2.7762   68.4243   59.6612 H   0  0  0  0  0  0  0  0  0  0  0  0
   -0.1692   68.1885   64.6360 H   0  0  0  0  0  0  0  0  0  0  0  0
  2  1  2  0
  4  3  2  0
  5  4  1  0
  6  5  2  0
  6  1  1  0
  7  6  1  0
  8  7  2  0
  8  3  1  0
  9  3  1  0
 10  2  1  0
 11 10  2  0
 12 11  1  0
 13 12  2  0
 14 13  1  0
 15 14  2  0
 15 10  1  0
 16 12  1  0
 17 14  1  0
  1 18  1  0
  2 19  1  0
  4 20  1  0
  5 21  1  0
  7 22  1  0
  8 23  1  0
  9 24  1  0
 11 25  1  0
 13 26  1  0
 15 27  1  0
 16 28  1  0
 17 29  1  0
M  END
>  <score>  (2) 
-8.857

$$$$
=
     RDKit          3D

 29 30  0  0  0  0  0  0  0  0999 V2000
    2.5800   69.3980   66.7990 C   0  0  0  0  0  0  0  0  0  0  0  0
    1.4670   69.2680   67.5400 C   0  0  0  0  0  0  0  0  0  0  0  0
    6.3100   70.6350   68.4620 C   0  0  0  0  0  0  0  0  0  0  0  0
    6.2690   70.2020   67.1440 C   0  0  0  0  0  0  0  0  0  0  0  0
    5.0520   69.8000   66.5840 C   0  0  0  0  0  0  0  0  0  0  0  0
    3.8730   69.8410   67.3400 C   0  0  0  0  0  0  0  0  0  0  0  0
    3.9410   70.2660   68.6750 C   0  0  0  0  0  0  0  0  0  0  0  0
    5.1560   70.6690   69.2360 C   0  0  0  0  0  0  0  0  0  0  0  0
    7.5160   71.0180   68.9670 O   0  0  0  0  0  0  0  0  0  0  0  0
    0.1720   68.8290   67.0010 C   0  0  0  0  0  0  0  0  0  0  0  0
   -0.8030   68.2170   67.8010 C   0  0  0  0  0  0  0  0  0  0  0  0
   -2.0270   67.8470   67.2450 C   0  0  0  0  0  0  0  0  0  0  0  0
   -2.3070   68.0810   65.9050 C   0  0  0  0  0  0  0  0  0  0  0  0
   -1.3460   68.7020   65.1180 C   0  0  0  0  0  0  0  0  0  0  0  0
   -0.1170   69.0820   65.6530 C   0  0  0  0  0  0  0  0  0  0  0  0
   -2.9950   67.2460   67.9970 O   0  0  0  0  0  0  0  0  0  0  0  0
   -1.5710   68.9640   63.7970 O   0  0  0  0  0  0  0  0  0  0  0  0
    2.5204   69.1595   65.7268 H   0  0  0  0  0  0  0  0  0  0  0  0
    1.5284   69.5039   68.6127 H   0  0  0  0  0  0  0  0  0  0  0  0
    7.1896   70.1751   66.5425 H   0  0  0  0  0  0  0  0  0  0  0  0
    5.0202   69.4489   65.5420 H   0  0  0  0  0  0  0  0  0  0  0  0
    3.0275   70.2823   69.2875 H   0  0  0  0  0  0  0  0  0  0  0  0
    5.1986   71.0101   70.2809 H   0  0  0  0  0  0  0  0  0  0  0  0
    7.5832   71.3325   69.9033 H   0  0  0  0  0  0  0  0  0  0  0  0
   -0.6027   68.0289   68.8661 H   0  0  0  0  0  0  0  0  0  0  0  0
   -3.2733   67.7796   65.4744 H   0  0  0  0  0  0  0  0  0  0  0  0
    0.6280   69.5816   65.0163 H   0  0  0  0  0  0  0  0  0  0  0  0
   -3.8571   66.9913   67.5823 H   0  0  0  0  0  0  0  0  0  0  0  0
   -0.8719   69.4077   63.2543 H   0  0  0  0  0  0  0  0  0  0  0  0
  2  1  2  0
  4  3  2  0
  5  4  1  0
  6  5  2  0
  6  1  1  0
  7  6  1  0
  8  7  2  0
  8  3  1  0
  9  3  1  0
 10  2  1  0
 11 10  2  0
 12 11  1  0
 13 12  2  0
 14 13  1  0
 15 14  2  0
 15 10  1  0
 16 12  1  0
 17 14  1  0
  1 18  1  0
  2 19  1  0
  4 20  1  0
  5 21  1  0
  7 22  1  0
  8 23  1  0
  9 24  1  0
 11 25  1  0
 13 26  1  0
 15 27  1  0
 16 28  1  0
 17 29  1  0
M  END
>  <score>  (3) 
-8.507

$$$$
=
     RDKit          3D

 29 30  0  0  0  0  0  0  0  0999 V2000
    2.7490   69.2740   67.3770 C   0  0  0  0  0  0  0  0  0  0  0  0
    1.5780   69.5820   67.9580 C   0  0  0  0  0  0  0  0  0  0  0  0
    6.4230   71.2010   68.3750 C   0  0  0  0  0  0  0  0  0  0  0  0
    6.2910   70.6040   67.1290 C   0  0  0  0  0  0  0  0  0  0  0  0
    5.0910   69.9740   66.7860 C   0  0  0  0  0  0  0  0  0  0  0  0
    4.0160   69.9510   67.6860 C   0  0  0  0  0  0  0  0  0  0  0  0
    4.1780   70.5470   68.9450 C   0  0  0  0  0  0  0  0  0  0  0  0
    5.3770   71.1780   69.2900 C   0  0  0  0  0  0  0  0  0  0  0  0
    7.6100   71.8040   68.6680 O   0  0  0  0  0  0  0  0  0  0  0  0
    0.3090   68.9090   67.6480 C   0  0  0  0  0  0  0  0  0  0  0  0
   -0.6460   69.4710   66.7880 C   0  0  0  0  0  0  0  0  0  0  0  0
   -1.8200   68.7760   66.5040 C   0  0  0  0  0  0  0  0  0  0  0  0
   -2.0640   67.5230   67.0510 C   0  0  0  0  0  0  0  0  0  0  0  0
   -1.1090   66.9600   67.8890 C   0  0  0  0  0  0  0  0  0  0  0  0
    0.0710   67.6360   68.1860 C   0  0  0  0  0  0  0  0  0  0  0  0
   -2.7700   69.2980   65.6740 O   0  0  0  0  0  0  0  0  0  0  0  0
   -1.2930   65.7280   68.4480 O   0  0  0  0  0  0  0  0  0  0  0  0
    2.7603   68.4692   66.6272 H   0  0  0  0  0  0  0  0  0  0  0  0
    1.5682   70.3849   68.7098 H   0  0  0  0  0  0  0  0  0  0  0  0
    7.1270   70.6264   66.4144 H   0  0  0  0  0  0  0  0  0  0  0  0
    4.9893   69.4925   65.8022 H   0  0  0  0  0  0  0  0  0  0  0  0
    3.3514   70.5177   69.6702 H   0  0  0  0  0  0  0  0  0  0  0  0
    5.4914   71.6517   70.2762 H   0  0  0  0  0  0  0  0  0  0  0  0
    7.7400   72.2400   69.5473 H   0  0  0  0  0  0  0  0  0  0  0  0
   -0.4685   70.4591   66.3383 H   0  0  0  0  0  0  0  0  0  0  0  0
   -2.9968   66.9856   66.8249 H   0  0  0  0  0  0  0  0  0  0  0  0
    0.8189   67.1703   68.8446 H   0  0  0  0  0  0  0  0  0  0  0  0
   -3.5971   68.7876   65.4854 H   0  0  0  0  0  0  0  0  0  0  0  0
   -0.5997   65.3455   69.0423 H   0  0  0  0  0  0  0  0  0  0  0  0
  2  1  2  0
  4  3  2  0
  5  4  1  0
  6  5  2  0
  6  1  1  0
  7  6  1  0
  8  7  2  0
  8  3  1  0
  9  3  1  0
 10  2  1  0
 11 10  2  0
 12 11  1  0
 13 12  2  0
 14 13  1  0
 15 14  2  0
 15 10  1  0
 16 12  1  0
 17 14  1  0
  1 18  1  0
  2 19  1  0
  4 20  1  0
  5 21  1  0
  7 22  1  0
  8 23  1  0
  9 24  1  0
 11 25  1  0
 13 26  1  0
 15 27  1  0
 16 28  1  0
 17 29  1  0
M  END
>  <score>  (4) 
-8.439

$$$$
=
     RDKit          3D

 29 30  0  0  0  0  0  0  0  0999 V2000
    1.9570   68.6800   66.9050 C   0  0  0  0  0  0  0  0  0  0  0  0
    2.6620   69.4700   67.7300 C   0  0  0  0  0  0  0  0  0  0  0  0
   -2.0570   67.4010   67.5850 C   0  0  0  0  0  0  0  0  0  0  0  0
   -1.0320   66.8330   68.3300 C   0  0  0  0  0  0  0  0  0  0  0  0
    0.2870   67.2470   68.1220 C   0  0  0  0  0  0  0  0  0  0  0  0
    0.5810   68.2390   67.1750 C   0  0  0  0  0  0  0  0  0  0  0  0
   -0.4680   68.7860   66.4230 C   0  0  0  0  0  0  0  0  0  0  0  0
   -1.7880   68.3740   66.6310 C   0  0  0  0  0  0  0  0  0  0  0  0
   -3.3280   66.9680   67.8210 O   0  0  0  0  0  0  0  0  0  0  0  0
    4.0390   69.9100   67.4630 C   0  0  0  0  0  0  0  0  0  0  0  0
    4.8850   70.3800   68.4780 C   0  0  0  0  0  0  0  0  0  0  0  0
    6.1920   70.7570   68.1750 C   0  0  0  0  0  0  0  0  0  0  0  0
    6.6830   70.6680   66.8780 C   0  0  0  0  0  0  0  0  0  0  0  0
    5.8490   70.1860   65.8770 C   0  0  0  0  0  0  0  0  0  0  0  0
    4.5400   69.8030   66.1580 C   0  0  0  0  0  0  0  0  0  0  0  0
    7.0390   71.2210   69.1400 O   0  0  0  0  0  0  0  0  0  0  0  0
    6.2810   70.0700   64.5880 O   0  0  0  0  0  0  0  0  0  0  0  0
    2.4362   68.3434   65.9738 H   0  0  0  0  0  0  0  0  0  0  0  0
    2.1814   69.8078   68.6600 H   0  0  0  0  0  0  0  0  0  0  0  0
   -1.2569   66.0608   69.0804 H   0  0  0  0  0  0  0  0  0  0  0  0
    1.1005   66.7913   68.7055 H   0  0  0  0  0  0  0  0  0  0  0  0
   -0.2502   69.5482   65.6604 H   0  0  0  0  0  0  0  0  0  0  0  0
   -2.6063   68.8167   66.0441 H   0  0  0  0  0  0  0  0  0  0  0  0
   -4.0842   67.3502   67.3090 H   0  0  0  0  0  0  0  0  0  0  0  0
    4.5173   70.4510   69.5123 H   0  0  0  0  0  0  0  0  0  0  0  0
    7.7142   70.9739   66.6479 H   0  0  0  0  0  0  0  0  0  0  0  0
    3.8973   69.4154   65.3538 H   0  0  0  0  0  0  0  0  0  0  0  0
    7.9636   71.4833   68.9026 H   0  0  0  0  0  0  0  0  0  0  0  0
    5.6697   69.7240   63.8903 H   0  0  0  0  0  0  0  0  0  0  0  0
  2  1  2  0
  4  3  2  0
  5  4  1  0
  6  5  2  0
  6  1  1  0
  7  6  1  0
  8  7  2  0
  8  3  1  0
  9  3  1  0
 10  2  1  0
 11 10  2  0
 12 11  1  0
 13 12  2  0
 14 13  1  0
 15 14  2  0
 15 10  1  0
 16 12  1  0
 17 14  1  0
  1 18  1  0
  2 19  1  0
  4 20  1  0
  5 21  1  0
  7 22  1  0
  8 23  1  0
  9 24  1  0
 11 25  1  0
 13 26  1  0
 15 27  1  0
 16 28  1  0
 17 29  1  0
M  END
>  <score>  (5) 
-8.341

$$$$
=
     RDKit          3D

 29 30  0  0  0  0  0  0  0  0999 V2000
    1.8210   68.7690   66.6670 C   0  0  0  0  0  0  0  0  0  0  0  0
    2.6050   69.3910   67.5630 C   0  0  0  0  0  0  0  0  0  0  0  0
   -2.2210   67.5850   67.3550 C   0  0  0  0  0  0  0  0  0  0  0  0
   -1.2070   66.9890   68.0940 C   0  0  0  0  0  0  0  0  0  0  0  0
    0.1210   67.3710   67.8830 C   0  0  0  0  0  0  0  0  0  0  0  0
    0.4360   68.3600   66.9400 C   0  0  0  0  0  0  0  0  0  0  0  0
   -0.6020   68.9370   66.1950 C   0  0  0  0  0  0  0  0  0  0  0  0
   -1.9300   68.5570   66.4040 C   0  0  0  0  0  0  0  0  0  0  0  0
   -3.5010   67.1830   67.5920 O   0  0  0  0  0  0  0  0  0  0  0  0
    3.9910   69.7970   67.2930 C   0  0  0  0  0  0  0  0  0  0  0  0
    4.5350   69.7890   66.0000 C   0  0  0  0  0  0  0  0  0  0  0  0
    5.8470   70.2120   65.7950 C   0  0  0  0  0  0  0  0  0  0  0  0
    6.6330   70.6550   66.8520 C   0  0  0  0  0  0  0  0  0  0  0  0
    6.0870   70.6780   68.1290 C   0  0  0  0  0  0  0  0  0  0  0  0
    4.7780   70.2610   68.3570 C   0  0  0  0  0  0  0  0  0  0  0  0
    6.4060   70.2130   64.5500 O   0  0  0  0  0  0  0  0  0  0  0  0
    6.8110   71.1110   69.2030 O   0  0  0  0  0  0  0  0  0  0  0  0
    2.2392   68.5536   65.6727 H   0  0  0  0  0  0  0  0  0  0  0  0
    2.1852   69.6090   68.5561 H   0  0  0  0  0  0  0  0  0  0  0  0
   -1.4481   66.2195   68.8422 H   0  0  0  0  0  0  0  0  0  0  0  0
    0.9251   66.8922   68.4611 H   0  0  0  0  0  0  0  0  0  0  0  0
   -0.3679   69.6984   65.4364 H   0  0  0  0  0  0  0  0  0  0  0  0
   -2.7385   69.0226   65.8213 H   0  0  0  0  0  0  0  0  0  0  0  0
   -4.2487   67.5864   67.0837 H   0  0  0  0  0  0  0  0  0  0  0  0
    3.9267   69.4492   65.1488 H   0  0  0  0  0  0  0  0  0  0  0  0
    7.6693   70.9817   66.6804 H   0  0  0  0  0  0  0  0  0  0  0  0
    4.3604   70.2956   69.3740 H   0  0  0  0  0  0  0  0  0  0  0  0
    7.3399   70.5176   64.4270 H   0  0  0  0  0  0  0  0  0  0  0  0
    6.4023   71.1191   70.1047 H   0  0  0  0  0  0  0  0  0  0  0  0
  2  1  2  0
  4  3  2  0
  5  4  1  0
  6  5  2  0
  6  1  1  0
  7  6  1  0
  8  7  2  0
  8  3  1  0
  9  3  1  0
 10  2  1  0
 11 10  2  0
 12 11  1  0
 13 12  2  0
 14 13  1  0
 15 14  2  0
 15 10  1  0
 16 12  1  0
 17 14  1  0
  1 18  1  0
  2 19  1  0
  4 20  1  0
  5 21  1  0
  7 22  1  0
  8 23  1  0
  9 24  1  0
 11 25  1  0
 13 26  1  0
 15 27  1  0
 16 28  1  0
 17 29  1  0
M  END
>  <score>  (6) 
-7.987

$$$$
=
     RDKit          3D

 29 30  0  0  0  0  0  0  0  0999 V2000
    1.1330   68.3150   65.7320 C   0  0  0  0  0  0  0  0  0  0  0  0
    1.7790   68.8810   64.7000 C   0  0  0  0  0  0  0  0  0  0  0  0
   -3.1140   68.4410   66.1370 C   0  0  0  0  0  0  0  0  0  0  0  0
   -2.3570   67.8470   67.1380 C   0  0  0  0  0  0  0  0  0  0  0  0
   -0.9640   67.8040   67.0220 C   0  0  0  0  0  0  0  0  0  0  0  0
   -0.3260   68.3660   65.9070 C   0  0  0  0  0  0  0  0  0  0  0  0
   -1.1110   68.9460   64.9010 C   0  0  0  0  0  0  0  0  0  0  0  0
   -2.5030   68.9900   65.0160 C   0  0  0  0  0  0  0  0  0  0  0  0
   -4.4670   68.4600   66.2910 O   0  0  0  0  0  0  0  0  0  0  0  0
    3.2380   68.8350   64.5240 C   0  0  0  0  0  0  0  0  0  0  0  0
    4.1240   69.3280   65.4930 C   0  0  0  0  0  0  0  0  0  0  0  0
    5.5000   69.2320   65.2890 C   0  0  0  0  0  0  0  0  0  0  0  0
    6.0180   68.6460   64.1420 C   0  0  0  0  0  0  0  0  0  0  0  0
    5.1380   68.1430   63.1910 C   0  0  0  0  0  0  0  0  0  0  0  0
    3.7600   68.2270   63.3740 C   0  0  0  0  0  0  0  0  0  0  0  0
    6.3880   69.7060   66.2120 O   0  0  0  0  0  0  0  0  0  0  0  0
    5.5910   67.5490   62.0480 O   0  0  0  0  0  0  0  0  0  0  0  0
    1.7285   67.7834   66.4888 H   0  0  0  0  0  0  0  0  0  0  0  0
    1.1821   69.4098   63.9423 H   0  0  0  0  0  0  0  0  0  0  0  0
   -2.8512   67.4118   68.0191 H   0  0  0  0  0  0  0  0  0  0  0  0
   -0.3647   67.3260   67.8109 H   0  0  0  0  0  0  0  0  0  0  0  0
   -0.6256   69.3716   64.0104 H   0  0  0  0  0  0  0  0  0  0  0  0
   -3.1102   69.4554   64.2256 H   0  0  0  0  0  0  0  0  0  0  0  0
   -5.0384   68.8752   65.5973 H   0  0  0  0  0  0  0  0  0  0  0  0
    3.7341   69.7895   66.4122 H   0  0  0  0  0  0  0  0  0  0  0  0
    7.1053   68.5809   63.9886 H   0  0  0  0  0  0  0  0  0  0  0  0
    3.0795   67.8152   62.6142 H   0  0  0  0  0  0  0  0  0  0  0  0
    7.3612   69.6281   66.0481 H   0  0  0  0  0  0  0  0  0  0  0  0
    4.9464   67.1975   61.3839 H   0  0  0  0  0  0  0  0  0  0  0  0
  2  1  2  0
  4  3  2  0
  5  4  1  0
  6  5  2  0
  6  1  1  0
  7  6  1  0
  8  7  2  0
  8  3  1  0
  9  3  1  0
 10  2  1  0
 11 10  2  0
 12 11  1  0
 13 12  2  0
 14 13  1  0
 15 14  2  0
 15 10  1  0
 16 12  1  0
 17 14  1  0
  1 18  1  0
  2 19  1  0
  4 20  1  0
  5 21  1  0
  7 22  1  0
  8 23  1  0
  9 24  1  0
 11 25  1  0
 13 26  1  0
 15 27  1  0
 16 28  1  0
 17 29  1  0
M  END
>  <score>  (7) 
-7.867

$$$$
=
     RDKit          3D

 29 30  0  0  0  0  0  0  0  0999 V2000
    1.1770   68.1900   65.8490 C   0  0  0  0  0  0  0  0  0  0  0  0
    1.8020   68.8890   64.8880 C   0  0  0  0  0  0  0  0  0  0  0  0
   -3.0440   68.3650   66.4510 C   0  0  0  0  0  0  0  0  0  0  0  0
   -2.2640   67.6390   67.3410 C   0  0  0  0  0  0  0  0  0  0  0  0
   -0.8800   67.5770   67.1600 C   0  0  0  0  0  0  0  0  0  0  0  0
   -0.2710   68.2540   66.0930 C   0  0  0  0  0  0  0  0  0  0  0  0
   -1.0800   68.9680   65.1970 C   0  0  0  0  0  0  0  0  0  0  0  0
   -2.4650   69.0310   65.3780 C   0  0  0  0  0  0  0  0  0  0  0  0
   -4.3890   68.3980   66.6660 O   0  0  0  0  0  0  0  0  0  0  0  0
    3.2500   68.8300   64.6450 C   0  0  0  0  0  0  0  0  0  0  0  0
    3.7880   68.3500   63.4410 C   0  0  0  0  0  0  0  0  0  0  0  0
    5.1690   68.3430   63.2510 C   0  0  0  0  0  0  0  0  0  0  0  0
    6.0320   68.8140   64.2330 C   0  0  0  0  0  0  0  0  0  0  0  0
    5.4970   69.3040   65.4170 C   0  0  0  0  0  0  0  0  0  0  0  0
    4.1200   69.3210   65.6280 C   0  0  0  0  0  0  0  0  0  0  0  0
    5.7230   67.8800   62.0930 O   0  0  0  0  0  0  0  0  0  0  0  0
    6.2970   69.7860   66.4130 O   0  0  0  0  0  0  0  0  0  0  0  0
    1.7828   67.5324   66.4898 H   0  0  0  0  0  0  0  0  0  0  0  0
    1.1950   69.5437   64.2454 H   0  0  0  0  0  0  0  0  0  0  0  0
   -2.7341   67.1143   68.1858 H   0  0  0  0  0  0  0  0  0  0  0  0
   -0.2635   66.9931   67.8593 H   0  0  0  0  0  0  0  0  0  0  0  0
   -0.6195   69.4845   64.3419 H   0  0  0  0  0  0  0  0  0  0  0  0
   -3.0907   69.6029   64.6770 H   0  0  0  0  0  0  0  0  0  0  0  0
   -4.9762   68.9058   66.0516 H   0  0  0  0  0  0  0  0  0  0  0  0
    3.1210   67.9799   62.6484 H   0  0  0  0  0  0  0  0  0  0  0  0
    7.1205   68.7989   64.0751 H   0  0  0  0  0  0  0  0  0  0  0  0
    3.7144   69.7210   66.5690 H   0  0  0  0  0  0  0  0  0  0  0  0
    6.7064   67.8839   61.9786 H   0  0  0  0  0  0  0  0  0  0  0  0
    5.8936   70.1305   67.2489 H   0  0  0  0  0  0  0  0  0  0  0  0
  2  1  2  0
  4  3  2  0
  5  4  1  0
  6  5  2  0
  6  1  1  0
  7  6  1  0
  8  7  2  0
  8  3  1  0
  9  3  1  0
 10  2  1  0
 11 10  2  0
 12 11  1  0
 13 12  2  0
 14 13  1  0
 15 14  2  0
 15 10  1  0
 16 12  1  0
 17 14  1  0
  1 18  1  0
  2 19  1  0
  4 20  1  0
  5 21  1  0
  7 22  1  0
  8 23  1  0
  9 24  1  0
 11 25  1  0
 13 26  1  0
 15 27  1  0
 16 28  1  0
 17 29  1  0
M  END
>  <score>  (8) 
-7.827

$$$$
=
     RDKit          3D

 29 30  0  0  0  0  0  0  0  0999 V2000
    0.4770   64.6340   70.5400 C   0  0  0  0  0  0  0  0  0  0  0  0
    0.8910   65.8770   70.2460 C   0  0  0  0  0  0  0  0  0  0  0  0
    2.1210   62.3530   73.7500 C   0  0  0  0  0  0  0  0  0  0  0  0
    0.9890   63.1230   73.9790 C   0  0  0  0  0  0  0  0  0  0  0  0
    0.4360   63.8710   72.9350 C   0  0  0  0  0  0  0  0  0  0  0  0
    1.0090   63.8400   71.6560 C   0  0  0  0  0  0  0  0  0  0  0  0
    2.1610   63.0670   71.4510 C   0  0  0  0  0  0  0  0  0  0  0  0
    2.7150   62.3180   72.4940 C   0  0  0  0  0  0  0  0  0  0  0  0
    2.6270   61.6400   74.7950 O   0  0  0  0  0  0  0  0  0  0  0  0
    0.3630   66.6720   69.1280 C   0  0  0  0  0  0  0  0  0  0  0  0
    1.1650   67.5610   68.3970 C   0  0  0  0  0  0  0  0  0  0  0  0
    0.6200   68.2680   67.3260 C   0  0  0  0  0  0  0  0  0  0  0  0
   -0.7090   68.1040   66.9580 C   0  0  0  0  0  0  0  0  0  0  0  0
   -1.4970   67.2110   67.6730 C   0  0  0  0  0  0  0  0  0  0  0  0
   -0.9740   66.4930   68.7450 C   0  0  0  0  0  0  0  0  0  0  0  0
    1.3740   69.1430   66.5980 O   0  0  0  0  0  0  0  0  0  0  0  0
   -2.8070   67.0040   67.3500 O   0  0  0  0  0  0  0  0  0  0  0  0
   -0.3046   64.1847   69.9097 H   0  0  0  0  0  0  0  0  0  0  0  0
    1.6706   66.3265   70.8786 H   0  0  0  0  0  0  0  0  0  0  0  0
    0.5288   63.1447   74.9779 H   0  0  0  0  0  0  0  0  0  0  0  0
   -0.4556   64.4885   73.1188 H   0  0  0  0  0  0  0  0  0  0  0  0
    2.6344   63.0496   70.4582 H   0  0  0  0  0  0  0  0  0  0  0  0
    3.6130   61.7065   72.3218 H   0  0  0  0  0  0  0  0  0  0  0  0
    3.4334   61.0799   74.6678 H   0  0  0  0  0  0  0  0  0  0  0  0
    2.2219   67.7000   68.6683 H   0  0  0  0  0  0  0  0  0  0  0  0
   -1.1303   68.6713   66.1150 H   0  0  0  0  0  0  0  0  0  0  0  0
   -1.6113   65.7834   69.2930 H   0  0  0  0  0  0  0  0  0  0  0  0
    0.9681   69.6354   65.8411 H   0  0  0  0  0  0  0  0  0  0  0  0
   -3.3504   66.3628   67.8731 H   0  0  0  0  0  0  0  0  0  0  0  0
  2  1  2  0
  4  3  2  0
  5  4  1  0
  6  5  2  0
  6  1  1  0
  7  6  1  0
  8  7  2  0
  8  3  1  0
  9  3  1  0
 10  2  1  0
 11 10  2  0
 12 11  1  0
 13 12  2  0
 14 13  1  0
 15 14  2  0
 15 10  1  0
 16 12  1  0
 17 14  1  0
  1 18  1  0
  2 19  1  0
  4 20  1  0
  5 21  1  0
  7 22  1  0
  8 23  1  0
  9 24  1  0
 11 25  1  0
 13 26  1  0
 15 27  1  0
 16 28  1  0
 17 29  1  0
M  END
>  <score>  (9) 
-7.32

$$$$
