=
     RDKit          3D

 19 19  0  0  0  0  0  0  0  0999 V2000
    3.8180   69.4780   65.2180 O   0  0  0  0  0  0  0  0  0  0  0  0
    4.4100   69.7440   66.2650 C   0  0  0  0  0  0  0  0  0  0  0  0
    5.8340   70.2580   66.2120 C   0  0  0  0  0  0  0  0  0  0  0  0
    6.4760   70.2810   67.5890 C   0  0  0  0  0  0  0  0  0  0  0  0
    5.6380   71.1030   68.5550 C   0  0  0  0  0  0  0  0  0  0  0  0
    4.2130   70.5960   68.6310 C   0  0  0  0  0  0  0  0  0  0  0  0
    3.4600   71.0230   69.5080 O   0  0  0  0  0  0  0  0  0  0  0  0
    3.7810   69.5330   67.6340 C   0  0  0  0  0  0  0  0  0  0  0  0
    2.2590   69.4660   67.5310 C   0  0  0  0  0  0  0  0  0  0  0  0
    6.4248   69.6034   65.5544 H   0  0  0  0  0  0  0  0  0  0  0  0
    5.8121   71.2883   65.8272 H   0  0  0  0  0  0  0  0  0  0  0  0
    6.5581   69.2513   67.9671 H   0  0  0  0  0  0  0  0  0  0  0  0
    7.4739   70.7366   67.5080 H   0  0  0  0  0  0  0  0  0  0  0  0
    6.0903   71.0470   69.5562 H   0  0  0  0  0  0  0  0  0  0  0  0
    5.6140   72.1408   68.1911 H   0  0  0  0  0  0  0  0  0  0  0  0
    4.1450   68.5666   68.0130 H   0  0  0  0  0  0  0  0  0  0  0  0
    1.8236   69.4468   68.5410 H   0  0  0  0  0  0  0  0  0  0  0  0
    1.8890   70.3487   66.9889 H   0  0  0  0  0  0  0  0  0  0  0  0
    1.9680   68.5542   66.9889 H   0  0  0  0  0  0  0  0  0  0  0  0
  2  1  2  0
  3  2  1  0
  4  3  1  0
  5  4  1  0
  6  5  1  0
  7  6  2  0
  8  6  1  0
  8  2  1  0
  9  8  1  0
  3 10  1  0
  3 11  1  0
  4 12  1  0
  4 13  1  0
  5 14  1  0
  5 15  1  0
  8 16  1  0
  9 17  1  0
  9 18  1  0
  9 19  1  0
M  END
>  <score>  (1) 
-6.026

$$$$
=
     RDKit          3D

 19 19  0  0  0  0  0  0  0  0999 V2000
    3.3060   69.9490   69.5130 O   0  0  0  0  0  0  0  0  0  0  0  0
    4.2440   70.2590   68.7770 C   0  0  0  0  0  0  0  0  0  0  0  0
    5.5350   70.7700   69.3810 C   0  0  0  0  0  0  0  0  0  0  0  0
    6.4660   71.3370   68.3220 C   0  0  0  0  0  0  0  0  0  0  0  0
    6.7430   70.3020   67.2450 C   0  0  0  0  0  0  0  0  0  0  0  0
    5.4630   69.7880   66.6200 C   0  0  0  0  0  0  0  0  0  0  0  0
    5.5170   69.0950   65.6020 O   0  0  0  0  0  0  0  0  0  0  0  0
    4.1450   70.1920   67.2610 C   0  0  0  0  0  0  0  0  0  0  0  0
    3.0170   69.2590   66.8270 C   0  0  0  0  0  0  0  0  0  0  0  0
    5.2996   71.5606   70.1087 H   0  0  0  0  0  0  0  0  0  0  0  0
    6.0438   69.9248   69.8675 H   0  0  0  0  0  0  0  0  0  0  0  0
    5.9967   72.2197   67.8631 H   0  0  0  0  0  0  0  0  0  0  0  0
    7.4172   71.6166   68.7986 H   0  0  0  0  0  0  0  0  0  0  0  0
    7.3635   70.7606   66.4610 H   0  0  0  0  0  0  0  0  0  0  0  0
    7.2623   69.4519   67.7116 H   0  0  0  0  0  0  0  0  0  0  0  0
    3.9096   71.2064   66.9065 H   0  0  0  0  0  0  0  0  0  0  0  0
    2.5190   68.8471   67.7171 H   0  0  0  0  0  0  0  0  0  0  0  0
    2.2872   69.8210   66.2256 H   0  0  0  0  0  0  0  0  0  0  0  0
    3.4321   68.4368   66.2256 H   0  0  0  0  0  0  0  0  0  0  0  0
  2  1  2  0
  3  2  1  0
  4  3  1  0
  5  4  1  0
  6  5  1  0
  7  6  2  0
  8  6  1  0
  8  2  1  0
  9  8  1  0
  3 10  1  0
  3 11  1  0
  4 12  1  0
  4 13  1  0
  5 14  1  0
  5 15  1  0
  8 16  1  0
  9 17  1  0
  9 18  1  0
  9 19  1  0
M  END
>  <score>  (2) 
-5.934

$$$$
=
     RDKit          3D

 19 19  0  0  0  0  0  0  0  0999 V2000
    6.4020   71.0610   66.1840 O   0  0  0  0  0  0  0  0  0  0  0  0
    5.6410   70.7010   67.0820 C   0  0  0  0  0  0  0  0  0  0  0  0
    5.7600   71.3190   68.4590 C   0  0  0  0  0  0  0  0  0  0  0  0
    4.9230   70.5730   69.4850 C   0  0  0  0  0  0  0  0  0  0  0  0
    3.4700   70.5070   69.0430 C   0  0  0  0  0  0  0  0  0  0  0  0
    3.3300   69.8790   67.6720 C   0  0  0  0  0  0  0  0  0  0  0  0
    2.2130   69.5720   67.2540 O   0  0  0  0  0  0  0  0  0  0  0  0
    4.5990   69.6110   66.8790 C   0  0  0  0  0  0  0  0  0  0  0  0
    4.2870   69.4230   65.3960 C   0  0  0  0  0  0  0  0  0  0  0  0
    6.8143   71.2922   68.7717 H   0  0  0  0  0  0  0  0  0  0  0  0
    5.3912   72.3538   68.4031 H   0  0  0  0  0  0  0  0  0  0  0  0
    5.3139   69.5509   69.5964 H   0  0  0  0  0  0  0  0  0  0  0  0
    4.9782   71.1078   70.4447 H   0  0  0  0  0  0  0  0  0  0  0  0
    2.9031   69.9066   69.7698 H   0  0  0  0  0  0  0  0  0  0  0  0
    3.0801   71.5343   68.9913 H   0  0  0  0  0  0  0  0  0  0  0  0
    5.0299   68.6748   67.2635 H   0  0  0  0  0  0  0  0  0  0  0  0
    3.3494   68.8581   65.2873 H   0  0  0  0  0  0  0  0  0  0  0  0
    4.1799   70.4070   64.9162 H   0  0  0  0  0  0  0  0  0  0  0  0
    5.1070   68.8685   64.9162 H   0  0  0  0  0  0  0  0  0  0  0  0
  2  1  2  0
  3  2  1  0
  4  3  1  0
  5  4  1  0
  6  5  1  0
  7  6  2  0
  8  6  1  0
  8  2  1  0
  9  8  1  0
  3 10  1  0
  3 11  1  0
  4 12  1  0
  4 13  1  0
  5 14  1  0
  5 15  1  0
  8 16  1  0
  9 17  1  0
  9 18  1  0
  9 19  1  0
M  END
>  <score>  (3) 
-5.917

$$$$
=
     RDKit          3D

 19 19  0  0  0  0  0  0  0  0999 V2000
    3.4060   70.9520   69.6190 O   0  0  0  0  0  0  0  0  0  0  0  0
    3.5360   70.2950   68.5850 C   0  0  0  0  0  0  0  0  0  0  0  0
    2.3180   69.6800   67.9290 C   0  0  0  0  0  0  0  0  0  0  0  0
    2.7040   68.7050   66.8290 C   0  0  0  0  0  0  0  0  0  0  0  0
    3.5890   69.3850   65.7980 C   0  0  0  0  0  0  0  0  0  0  0  0
    4.8210   69.9970   66.4350 C   0  0  0  0  0  0  0  0  0  0  0  0
    5.7340   70.4110   65.7190 O   0  0  0  0  0  0  0  0  0  0  0  0
    4.8950   70.0310   67.9530 C   0  0  0  0  0  0  0  0  0  0  0  0
    5.9260   71.0530   68.4270 C   0  0  0  0  0  0  0  0  0  0  0  0
    1.7347   69.1438   68.6920 H   0  0  0  0  0  0  0  0  0  0  0  0
    1.7262   70.4898   67.4773 H   0  0  0  0  0  0  0  0  0  0  0  0
    3.2493   67.8583   67.2714 H   0  0  0  0  0  0  0  0  0  0  0  0
    1.7889   68.3504   66.3322 H   0  0  0  0  0  0  0  0  0  0  0  0
    3.9053   68.6404   65.0526 H   0  0  0  0  0  0  0  0  0  0  0  0
    3.0092   70.1921   65.3264 H   0  0  0  0  0  0  0  0  0  0  0  0
    5.2191   69.0336   68.2848 H   0  0  0  0  0  0  0  0  0  0  0  0
    5.9449   71.0718   69.5267 H   0  0  0  0  0  0  0  0  0  0  0  0
    6.9201   70.7738   68.0479 H   0  0  0  0  0  0  0  0  0  0  0  0
    5.6556   72.0496   68.0479 H   0  0  0  0  0  0  0  0  0  0  0  0
  2  1  2  0
  3  2  1  0
  4  3  1  0
  5  4  1  0
  6  5  1  0
  7  6  2  0
  8  6  1  0
  8  2  1  0
  9  8  1  0
  3 10  1  0
  3 11  1  0
  4 12  1  0
  4 13  1  0
  5 14  1  0
  5 15  1  0
  8 16  1  0
  9 17  1  0
  9 18  1  0
  9 19  1  0
M  END
>  <score>  (4) 
-5.89

$$$$
=
     RDKit          3D

 19 19  0  0  0  0  0  0  0  0999 V2000
    2.4000   69.6750   67.5430 O   0  0  0  0  0  0  0  0  0  0  0  0
    3.6030   69.8040   67.3100 C   0  0  0  0  0  0  0  0  0  0  0  0
    4.1410   69.4670   65.9360 C   0  0  0  0  0  0  0  0  0  0  0  0
    5.6610   69.4410   65.9180 C   0  0  0  0  0  0  0  0  0  0  0  0
    6.2230   70.7640   66.4110 C   0  0  0  0  0  0  0  0  0  0  0  0
    5.7050   71.1130   67.7910 C   0  0  0  0  0  0  0  0  0  0  0  0
    6.2120   72.0470   68.4150 O   0  0  0  0  0  0  0  0  0  0  0  0
    4.5940   70.2530   68.3730 C   0  0  0  0  0  0  0  0  0  0  0  0
    3.8830   70.9770   69.5140 C   0  0  0  0  0  0  0  0  0  0  0  0
    3.7640   68.4774   65.6384 H   0  0  0  0  0  0  0  0  0  0  0  0
    3.8031   70.2447   65.2353 H   0  0  0  0  0  0  0  0  0  0  0  0
    6.0167   68.6308   66.5715 H   0  0  0  0  0  0  0  0  0  0  0  0
    6.0012   69.2732   64.8855 H   0  0  0  0  0  0  0  0  0  0  0  0
    7.3201   70.6932   66.4493 H   0  0  0  0  0  0  0  0  0  0  0  0
    5.9031   71.5533   65.7148 H   0  0  0  0  0  0  0  0  0  0  0  0
    5.0649   69.3461   68.7802 H   0  0  0  0  0  0  0  0  0  0  0  0
    4.2553   70.5979   70.4772 H   0  0  0  0  0  0  0  0  0  0  0  0
    4.0816   72.0566   69.4434 H   0  0  0  0  0  0  0  0  0  0  0  0
    2.8000   70.7980   69.4434 H   0  0  0  0  0  0  0  0  0  0  0  0
  2  1  2  0
  3  2  1  0
  4  3  1  0
  5  4  1  0
  6  5  1  0
  7  6  2  0
  8  6  1  0
  8  2  1  0
  9  8  1  0
  3 10  1  0
  3 11  1  0
  4 12  1  0
  4 13  1  0
  5 14  1  0
  5 15  1  0
  8 16  1  0
  9 17  1  0
  9 18  1  0
  9 19  1  0
M  END
>  <score>  (5) 
-5.875

$$$$
=
     RDKit          3D

 19 19  0  0  0  0  0  0  0  0999 V2000
    2.5800   68.7090   66.6110 O   0  0  0  0  0  0  0  0  0  0  0  0
    3.3200   69.4750   67.2300 C   0  0  0  0  0  0  0  0  0  0  0  0
    2.9650   69.8810   68.6450 C   0  0  0  0  0  0  0  0  0  0  0  0
    3.8440   71.0160   69.1420 C   0  0  0  0  0  0  0  0  0  0  0  0
    5.3130   70.6380   69.0390 C   0  0  0  0  0  0  0  0  0  0  0  0
    5.6910   70.2400   67.6270 C   0  0  0  0  0  0  0  0  0  0  0  0
    6.8780   70.0970   67.3310 O   0  0  0  0  0  0  0  0  0  0  0  0
    4.5720   70.0770   66.6100 C   0  0  0  0  0  0  0  0  0  0  0  0
    5.0390   69.2530   65.4120 C   0  0  0  0  0  0  0  0  0  0  0  0
    1.9146   70.2068   68.6693 H   0  0  0  0  0  0  0  0  0  0  0  0
    3.1239   69.0122   69.3008 H   0  0  0  0  0  0  0  0  0  0  0  0
    3.6574   71.9119   68.5317 H   0  0  0  0  0  0  0  0  0  0  0  0
    3.6021   71.2172   70.1960 H   0  0  0  0  0  0  0  0  0  0  0  0
    5.9251   71.5001   69.3424 H   0  0  0  0  0  0  0  0  0  0  0  0
    5.4925   69.7759   69.6982 H   0  0  0  0  0  0  0  0  0  0  0  0
    4.3063   71.0837   66.2553 H   0  0  0  0  0  0  0  0  0  0  0  0
    5.5523   68.3474   65.7676 H   0  0  0  0  0  0  0  0  0  0  0  0
    4.1692   68.9662   64.8028 H   0  0  0  0  0  0  0  0  0  0  0  0
    5.7319   69.8519   64.8028 H   0  0  0  0  0  0  0  0  0  0  0  0
  2  1  2  0
  3  2  1  0
  4  3  1  0
  5  4  1  0
  6  5  1  0
  7  6  2  0
  8  6  1  0
  8  2  1  0
  9  8  1  0
  3 10  1  0
  3 11  1  0
  4 12  1  0
  4 13  1  0
  5 14  1  0
  5 15  1  0
  8 16  1  0
  9 17  1  0
  9 18  1  0
  9 19  1  0
M  END
>  <score>  (6) 
-5.831

$$$$
=
     RDKit          3D

 19 19  0  0  0  0  0  0  0  0999 V2000
    4.8560   70.2440   68.0860 O   0  0  0  0  0  0  0  0  0  0  0  0
    4.4790   69.8230   66.9920 C   0  0  0  0  0  0  0  0  0  0  0  0
    5.4680   69.7030   65.8520 C   0  0  0  0  0  0  0  0  0  0  0  0
    4.7730   69.4190   64.5310 C   0  0  0  0  0  0  0  0  0  0  0  0
    3.9140   68.1690   64.6380 C   0  0  0  0  0  0  0  0  0  0  0  0
    2.9090   68.2760   65.7660 C   0  0  0  0  0  0  0  0  0  0  0  0
    2.0110   67.4380   65.8620 O   0  0  0  0  0  0  0  0  0  0  0  0
    3.0280   69.4550   66.7170 C   0  0  0  0  0  0  0  0  0  0  0  0
    2.2760   69.1870   68.0190 C   0  0  0  0  0  0  0  0  0  0  0  0
    6.0273   70.6462   65.7648 H   0  0  0  0  0  0  0  0  0  0  0  0
    6.1430   68.8626   66.0714 H   0  0  0  0  0  0  0  0  0  0  0  0
    4.1348   70.2750   64.2666 H   0  0  0  0  0  0  0  0  0  0  0  0
    5.5362   69.2603   63.7549 H   0  0  0  0  0  0  0  0  0  0  0  0
    3.3732   68.0257   63.6909 H   0  0  0  0  0  0  0  0  0  0  0  0
    4.5751   67.3150   64.8470 H   0  0  0  0  0  0  0  0  0  0  0  0
    2.5620   70.3192   66.2210 H   0  0  0  0  0  0  0  0  0  0  0  0
    2.9283   69.4195   68.8737 H   0  0  0  0  0  0  0  0  0  0  0  0
    1.3775   69.8203   68.0605 H   0  0  0  0  0  0  0  0  0  0  0  0
    1.9806   68.1282   68.0605 H   0  0  0  0  0  0  0  0  0  0  0  0
  2  1  2  0
  3  2  1  0
  4  3  1  0
  5  4  1  0
  6  5  1  0
  7  6  2  0
  8  6  1  0
  8  2  1  0
  9  8  1  0
  3 10  1  0
  3 11  1  0
  4 12  1  0
  4 13  1  0
  5 14  1  0
  5 15  1  0
  8 16  1  0
  9 17  1  0
  9 18  1  0
  9 19  1  0
M  END
>  <score>  (7) 
-5.492

$$$$
=
     RDKit          3D

 19 19  0  0  0  0  0  0  0  0999 V2000
    1.0790   68.6630   64.2770 O   0  0  0  0  0  0  0  0  0  0  0  0
    2.3100   68.7030   64.2930 C   0  0  0  0  0  0  0  0  0  0  0  0
    3.0760   68.7290   62.9870 C   0  0  0  0  0  0  0  0  0  0  0  0
    4.5650   68.5160   63.2040 C   0  0  0  0  0  0  0  0  0  0  0  0
    5.1150   69.5470   64.1760 C   0  0  0  0  0  0  0  0  0  0  0  0
    4.3690   69.5280   65.4940 C   0  0  0  0  0  0  0  0  0  0  0  0
    4.8120   70.1590   66.4550 O   0  0  0  0  0  0  0  0  0  0  0  0
    3.1090   68.6810   65.5870 C   0  0  0  0  0  0  0  0  0  0  0  0
    2.2460   69.1130   66.7700 C   0  0  0  0  0  0  0  0  0  0  0  0
    2.6934   67.9312   62.3334 H   0  0  0  0  0  0  0  0  0  0  0  0
    2.9347   69.7179   62.5264 H   0  0  0  0  0  0  0  0  0  0  0  0
    4.7305   67.5085   63.6132 H   0  0  0  0  0  0  0  0  0  0  0  0
    5.0837   68.6242   62.2400 H   0  0  0  0  0  0  0  0  0  0  0  0
    6.1766   69.3289   64.3641 H   0  0  0  0  0  0  0  0  0  0  0  0
    4.9909   70.5431   63.7260 H   0  0  0  0  0  0  0  0  0  0  0  0
    3.4281   67.6416   65.7538 H   0  0  0  0  0  0  0  0  0  0  0  0
    2.7573   68.8570   67.7097 H   0  0  0  0  0  0  0  0  0  0  0  0
    2.0815   70.1997   66.7263 H   0  0  0  0  0  0  0  0  0  0  0  0
    1.2774   68.5935   66.7263 H   0  0  0  0  0  0  0  0  0  0  0  0
  2  1  2  0
  3  2  1  0
  4  3  1  0
  5  4  1  0
  6  5  1  0
  7  6  2  0
  8  6  1  0
  8  2  1  0
  9  8  1  0
  3 10  1  0
  3 11  1  0
  4 12  1  0
  4 13  1  0
  5 14  1  0
  5 15  1  0
  8 16  1  0
  9 17  1  0
  9 18  1  0
  9 19  1  0
M  END
>  <score>  (8) 
-5.366

$$$$
=
     RDKit          3D

 19 19  0  0  0  0  0  0  0  0999 V2000
    5.5170   70.1410   65.8360 O   0  0  0  0  0  0  0  0  0  0  0  0
    4.5040   69.4990   65.5570 C   0  0  0  0  0  0  0  0  0  0  0  0
    3.3850   69.3850   66.5710 C   0  0  0  0  0  0  0  0  0  0  0  0
    2.3490   68.3550   66.1520 C   0  0  0  0  0  0  0  0  0  0  0  0
    1.8000   68.6800   64.7730 C   0  0  0  0  0  0  0  0  0  0  0  0
    2.9050   68.7860   63.7420 C   0  0  0  0  0  0  0  0  0  0  0  0
    2.6170   68.8480   62.5450 O   0  0  0  0  0  0  0  0  0  0  0  0
    4.3430   68.7660   64.2340 C   0  0  0  0  0  0  0  0  0  0  0  0
    5.2900   69.3300   63.1780 C   0  0  0  0  0  0  0  0  0  0  0  0
    3.8114   69.0876   67.5404 H   0  0  0  0  0  0  0  0  0  0  0  0
    2.8865   70.3629   66.6427 H   0  0  0  0  0  0  0  0  0  0  0  0
    2.8170   67.3598   66.1296 H   0  0  0  0  0  0  0  0  0  0  0  0
    1.5211   68.3696   66.8761 H   0  0  0  0  0  0  0  0  0  0  0  0
    1.1041   67.8841   64.4694 H   0  0  0  0  0  0  0  0  0  0  0  0
    1.2871   69.6515   64.8278 H   0  0  0  0  0  0  0  0  0  0  0  0
    4.6105   67.7139   64.4113 H   0  0  0  0  0  0  0  0  0  0  0  0
    6.1339   69.8326   63.6732 H   0  0  0  0  0  0  0  0  0  0  0  0
    5.6688   68.5103   62.5499 H   0  0  0  0  0  0  0  0  0  0  0  0
    4.7497   70.0536   62.5499 H   0  0  0  0  0  0  0  0  0  0  0  0
  2  1  2  0
  3  2  1  0
  4  3  1  0
  5  4  1  0
  6  5  1  0
  7  6  2  0
  8  6  1  0
  8  2  1  0
  9  8  1  0
  3 10  1  0
  3 11  1  0
  4 12  1  0
  4 13  1  0
  5 14  1  0
  5 15  1  0
  8 16  1  0
  9 17  1  0
  9 18  1  0
  9 19  1  0
M  END
>  <score>  (9) 
-5.366

$$$$
