=
     RDKit          3D

 48 47  0  0  0  0  0  0  0  0999 V2000
    3.1030   68.6060   61.9270 C   0  0  0  0  0  0  0  0  0  0  0  0
    2.9220   68.9640   60.7710 O   0  0  0  0  0  0  0  0  0  0  0  0
    4.3260   67.7580   62.2550 C   0  0  0  0  0  0  0  0  0  0  0  0
    4.2870   66.5510   62.0470 O   0  0  0  0  0  0  0  0  0  0  0  0
    5.5120   68.5000   62.8300 C   0  0  0  0  0  0  0  0  0  0  0  0
    5.5420   68.4360   64.3570 C   0  0  0  0  0  0  0  0  0  0  0  0
    5.2850   69.7880   65.0290 C   0  0  0  0  0  0  0  0  0  0  0  0
    5.3350   69.7900   66.5600 C   0  0  0  0  0  0  0  0  0  0  0  0
    6.6280   70.3880   67.1220 C   0  0  0  0  0  0  0  0  0  0  0  0
    6.4120   71.1870   68.4100 C   0  0  0  0  0  0  0  0  0  0  0  0
    7.4140   70.8540   69.5050 C   0  0  0  0  0  0  0  0  0  0  0  0
    2.2100   68.9600   63.0970 C   0  0  0  0  0  0  0  0  0  0  0  0
    1.2240   67.8510   63.4640 C   0  0  0  0  0  0  0  0  0  0  0  0
    1.6120   67.1320   64.7600 C   0  0  0  0  0  0  0  0  0  0  0  0
    2.2040   68.0670   65.8200 C   0  0  0  0  0  0  0  0  0  0  0  0
    1.1440   68.7000   66.7250 C   0  0  0  0  0  0  0  0  0  0  0  0
   -1.4000   68.6300   66.5340 C   0  0  0  0  0  0  0  0  0  0  0  0
   -0.1280   67.8570   66.8440 C   0  0  0  0  0  0  0  0  0  0  0  0
    6.4362   68.0508   62.4375 H   0  0  0  0  0  0  0  0  0  0  0  0
    5.4270   69.5565   62.5358 H   0  0  0  0  0  0  0  0  0  0  0  0
    4.7691   67.7282   64.6913 H   0  0  0  0  0  0  0  0  0  0  0  0
    6.5535   68.1164   64.6482 H   0  0  0  0  0  0  0  0  0  0  0  0
    6.0445   70.4958   64.6653 H   0  0  0  0  0  0  0  0  0  0  0  0
    4.2539   70.0635   64.7627 H   0  0  0  0  0  0  0  0  0  0  0  0
    4.4854   70.3786   66.9365 H   0  0  0  0  0  0  0  0  0  0  0  0
    5.2904   68.7414   66.8893 H   0  0  0  0  0  0  0  0  0  0  0  0
    7.3300   69.5678   67.3328 H   0  0  0  0  0  0  0  0  0  0  0  0
    7.0217   71.0844   66.3670 H   0  0  0  0  0  0  0  0  0  0  0  0
    6.4971   72.2580   68.1739 H   0  0  0  0  0  0  0  0  0  0  0  0
    5.4150   70.9223   68.7920 H   0  0  0  0  0  0  0  0  0  0  0  0
    6.9471   71.0092   70.4888 H   0  0  0  0  0  0  0  0  0  0  0  0
    7.7265   69.8037   69.4090 H   0  0  0  0  0  0  0  0  0  0  0  0
    8.2930   71.5083   69.4090 H   0  0  0  0  0  0  0  0  0  0  0  0
    2.8453   69.1654   63.9712 H   0  0  0  0  0  0  0  0  0  0  0  0
    1.6168   69.8373   62.7996 H   0  0  0  0  0  0  0  0  0  0  0  0
    0.2251   68.2938   63.5908 H   0  0  0  0  0  0  0  0  0  0  0  0
    1.2351   67.1092   62.6519 H   0  0  0  0  0  0  0  0  0  0  0  0
    0.7125   66.6563   65.1777 H   0  0  0  0  0  0  0  0  0  0  0  0
    2.3896   66.3973   64.5039 H   0  0  0  0  0  0  0  0  0  0  0  0
    2.8992   67.4893   66.4469 H   0  0  0  0  0  0  0  0  0  0  0  0
    2.7107   68.8855   65.2878 H   0  0  0  0  0  0  0  0  0  0  0  0
    1.5735   68.8287   67.7295 H   0  0  0  0  0  0  0  0  0  0  0  0
    0.8584   69.6607   66.2718 H   0  0  0  0  0  0  0  0  0  0  0  0
   -1.8875   68.9262   67.4745 H   0  0  0  0  0  0  0  0  0  0  0  0
   -1.1500   69.5290   65.9516 H   0  0  0  0  0  0  0  0  0  0  0  0
   -2.0828   67.9940   65.9516 H   0  0  0  0  0  0  0  0  0  0  0  0
   -0.1961   67.4730   67.8725 H   0  0  0  0  0  0  0  0  0  0  0  0
   -0.0513   67.0495   66.1010 H   0  0  0  0  0  0  0  0  0  0  0  0
  2  1  2  0
  3  1  1  0
  4  3  2  0
  5  3  1  0
  6  5  1  0
  7  6  1  0
  8  7  1  0
  9  8  1  0
 10  9  1  0
 11 10  1  0
 12  1  1  0
 13 12  1  0
 14 13  1  0
 15 14  1  0
 16 15  1  0
 18 17  1  0
 18 16  1  0
  5 19  1  0
  5 20  1  0
  6 21  1  0
  6 22  1  0
  7 23  1  0
  7 24  1  0
  8 25  1  0
  8 26  1  0
  9 27  1  0
  9 28  1  0
 10 29  1  0
 10 30  1  0
 11 31  1  0
 11 32  1  0
 11 33  1  0
 12 34  1  0
 12 35  1  0
 13 36  1  0
 13 37  1  0
 14 38  1  0
 14 39  1  0
 15 40  1  0
 15 41  1  0
 16 42  1  0
 16 43  1  0
 17 44  1  0
 17 45  1  0
 17 46  1  0
 18 47  1  0
 18 48  1  0
M  END
>  <score>  (1) 
-6.872

$$$$
=
     RDKit          3D

 48 47  0  0  0  0  0  0  0  0999 V2000
    0.1180   67.3760   66.9070 C   0  0  0  0  0  0  0  0  0  0  0  0
   -0.9370   66.8390   66.5980 O   0  0  0  0  0  0  0  0  0  0  0  0
    1.1880   67.5700   65.8400 C   0  0  0  0  0  0  0  0  0  0  0  0
    1.1610   66.8720   64.8340 O   0  0  0  0  0  0  0  0  0  0  0  0
    2.2250   68.6340   66.1280 C   0  0  0  0  0  0  0  0  0  0  0  0
    3.4730   68.4660   65.2620 C   0  0  0  0  0  0  0  0  0  0  0  0
    4.5470   69.5250   65.5290 C   0  0  0  0  0  0  0  0  0  0  0  0
    4.8210   69.8380   67.0030 C   0  0  0  0  0  0  0  0  0  0  0  0
    6.1930   70.4750   67.2420 C   0  0  0  0  0  0  0  0  0  0  0  0
    6.2670   71.2750   68.5460 C   0  0  0  0  0  0  0  0  0  0  0  0
    7.4720   70.9210   69.4050 C   0  0  0  0  0  0  0  0  0  0  0  0
    0.4550   67.9000   68.2870 C   0  0  0  0  0  0  0  0  0  0  0  0
    1.2670   66.9130   69.1280 C   0  0  0  0  0  0  0  0  0  0  0  0
    0.4250   66.2510   70.2230 C   0  0  0  0  0  0  0  0  0  0  0  0
    0.9260   64.8560   70.6130 C   0  0  0  0  0  0  0  0  0  0  0  0
    2.3820   64.6040   70.2130 C   0  0  0  0  0  0  0  0  0  0  0  0
    4.4660   63.1770   70.5780 C   0  0  0  0  0  0  0  0  0  0  0  0
    3.0360   63.4680   71.0040 C   0  0  0  0  0  0  0  0  0  0  0  0
    1.7848   69.6222   65.9287 H   0  0  0  0  0  0  0  0  0  0  0  0
    2.5268   68.5381   67.1814 H   0  0  0  0  0  0  0  0  0  0  0  0
    3.9045   67.4740   65.4613 H   0  0  0  0  0  0  0  0  0  0  0  0
    3.1584   68.5802   64.2142 H   0  0  0  0  0  0  0  0  0  0  0  0
    5.4869   69.1740   65.0779 H   0  0  0  0  0  0  0  0  0  0  0  0
    4.1625   70.4581   65.0914 H   0  0  0  0  0  0  0  0  0  0  0  0
    4.0466   70.5316   67.3625 H   0  0  0  0  0  0  0  0  0  0  0  0
    4.8062   68.8822   67.5473 H   0  0  0  0  0  0  0  0  0  0  0  0
    6.9480   69.6759   67.2786 H   0  0  0  0  0  0  0  0  0  0  0  0
    6.3757   71.1780   66.4160 H   0  0  0  0  0  0  0  0  0  0  0  0
    6.3193   72.3450   68.2961 H   0  0  0  0  0  0  0  0  0  0  0  0
    5.3682   71.0277   69.1300 H   0  0  0  0  0  0  0  0  0  0  0  0
    7.2006   71.0007   70.4680 H   0  0  0  0  0  0  0  0  0  0  0  0
    7.7901   69.8915   69.1840 H   0  0  0  0  0  0  0  0  0  0  0  0
    8.2964   71.6149   69.1840 H   0  0  0  0  0  0  0  0  0  0  0  0
    1.0381   68.8261   68.1759 H   0  0  0  0  0  0  0  0  0  0  0  0
   -0.4965   68.0694   68.8123 H   0  0  0  0  0  0  0  0  0  0  0  0
    1.6661   66.1298   68.4667 H   0  0  0  0  0  0  0  0  0  0  0  0
    2.0751   67.4751   69.6189 H   0  0  0  0  0  0  0  0  0  0  0  0
    0.4474   66.8924   71.1164 H   0  0  0  0  0  0  0  0  0  0  0  0
   -0.5930   66.1317   69.8238 H   0  0  0  0  0  0  0  0  0  0  0  0
    0.8392   64.7458   71.7040 H   0  0  0  0  0  0  0  0  0  0  0  0
    0.3075   64.1240   70.0730 H   0  0  0  0  0  0  0  0  0  0  0  0
    2.4116   64.3478   69.1437 H   0  0  0  0  0  0  0  0  0  0  0  0
    2.9455   65.5227   70.4331 H   0  0  0  0  0  0  0  0  0  0  0  0
    5.0957   63.0489   71.4708 H   0  0  0  0  0  0  0  0  0  0  0  0
    4.4894   62.2557   69.9775 H   0  0  0  0  0  0  0  0  0  0  0  0
    4.8476   64.0159   69.9775 H   0  0  0  0  0  0  0  0  0  0  0  0
    2.4380   62.5557   70.8621 H   0  0  0  0  0  0  0  0  0  0  0  0
    3.0703   63.7849   72.0568 H   0  0  0  0  0  0  0  0  0  0  0  0
  2  1  2  0
  3  1  1  0
  4  3  2  0
  5  3  1  0
  6  5  1  0
  7  6  1  0
  8  7  1  0
  9  8  1  0
 10  9  1  0
 11 10  1  0
 12  1  1  0
 13 12  1  0
 14 13  1  0
 15 14  1  0
 16 15  1  0
 18 17  1  0
 18 16  1  0
  5 19  1  0
  5 20  1  0
  6 21  1  0
  6 22  1  0
  7 23  1  0
  7 24  1  0
  8 25  1  0
  8 26  1  0
  9 27  1  0
  9 28  1  0
 10 29  1  0
 10 30  1  0
 11 31  1  0
 11 32  1  0
 11 33  1  0
 12 34  1  0
 12 35  1  0
 13 36  1  0
 13 37  1  0
 14 38  1  0
 14 39  1  0
 15 40  1  0
 15 41  1  0
 16 42  1  0
 16 43  1  0
 17 44  1  0
 17 45  1  0
 17 46  1  0
 18 47  1  0
 18 48  1  0
M  END
>  <score>  (2) 
-6.835

$$$$
=
     RDKit          3D

 48 47  0  0  0  0  0  0  0  0999 V2000
    4.2060   67.5790   62.3040 C   0  0  0  0  0  0  0  0  0  0  0  0
    4.1240   66.3600   62.3780 O   0  0  0  0  0  0  0  0  0  0  0  0
    2.9670   68.3810   61.9250 C   0  0  0  0  0  0  0  0  0  0  0  0
    2.9840   69.0580   60.9040 O   0  0  0  0  0  0  0  0  0  0  0  0
    1.7930   68.2740   62.8740 C   0  0  0  0  0  0  0  0  0  0  0  0
    2.0520   69.0080   64.1890 C   0  0  0  0  0  0  0  0  0  0  0  0
    1.8250   68.1350   65.4270 C   0  0  0  0  0  0  0  0  0  0  0  0
    1.6120   68.8900   66.7430 C   0  0  0  0  0  0  0  0  0  0  0  0
    0.2660   68.5840   67.4060 C   0  0  0  0  0  0  0  0  0  0  0  0
    0.2000   67.1810   68.0160 C   0  0  0  0  0  0  0  0  0  0  0  0
    1.1560   66.9830   69.1830 C   0  0  0  0  0  0  0  0  0  0  0  0
    5.4560   68.3850   62.5870 C   0  0  0  0  0  0  0  0  0  0  0  0
    5.2520   69.4690   63.6460 C   0  0  0  0  0  0  0  0  0  0  0  0
    5.6140   68.9840   65.0530 C   0  0  0  0  0  0  0  0  0  0  0  0
    5.1010   69.9070   66.1640 C   0  0  0  0  0  0  0  0  0  0  0  0
    6.1600   70.2220   67.2230 C   0  0  0  0  0  0  0  0  0  0  0  0
    4.2300   70.5740   68.8550 C   0  0  0  0  0  0  0  0  0  0  0  0
    5.6100   71.0250   68.4050 C   0  0  0  0  0  0  0  0  0  0  0  0
    0.9058   68.7107   62.3922 H   0  0  0  0  0  0  0  0  0  0  0  0
    1.6373   67.2096   63.1037 H   0  0  0  0  0  0  0  0  0  0  0  0
    3.0954   69.3564   64.1944 H   0  0  0  0  0  0  0  0  0  0  0  0
    1.3356   69.8410   64.2429 H   0  0  0  0  0  0  0  0  0  0  0  0
    0.9344   67.5155   65.2449 H   0  0  0  0  0  0  0  0  0  0  0  0
    2.7513   67.5568   65.5598 H   0  0  0  0  0  0  0  0  0  0  0  0
    2.4159   68.6106   67.4399 H   0  0  0  0  0  0  0  0  0  0  0  0
    1.6223   69.9644   66.5075 H   0  0  0  0  0  0  0  0  0  0  0  0
    0.0938   69.3209   68.2043 H   0  0  0  0  0  0  0  0  0  0  0  0
   -0.5042   68.6367   66.6224 H   0  0  0  0  0  0  0  0  0  0  0  0
   -0.8257   67.0035   68.3717 H   0  0  0  0  0  0  0  0  0  0  0  0
    0.4965   66.4712   67.2297 H   0  0  0  0  0  0  0  0  0  0  0  0
    0.6075   67.0966   70.1297 H   0  0  0  0  0  0  0  0  0  0  0  0
    1.5937   65.9751   69.1315 H   0  0  0  0  0  0  0  0  0  0  0  0
    1.9580   67.7341   69.1315 H   0  0  0  0  0  0  0  0  0  0  0  0
    6.2416   67.6991   62.9368 H   0  0  0  0  0  0  0  0  0  0  0  0
    5.7341   68.8927   61.6516 H   0  0  0  0  0  0  0  0  0  0  0  0
    5.8864   70.3320   63.3954 H   0  0  0  0  0  0  0  0  0  0  0  0
    4.1860   69.7405   63.6480 H   0  0  0  0  0  0  0  0  0  0  0  0
    5.1784   67.9848   65.2005 H   0  0  0  0  0  0  0  0  0  0  0  0
    6.7118   68.9722   65.1207 H   0  0  0  0  0  0  0  0  0  0  0  0
    4.7702   70.8520   65.7085 H   0  0  0  0  0  0  0  0  0  0  0  0
    4.2778   69.3822   66.6709 H   0  0  0  0  0  0  0  0  0  0  0  0
    6.5669   69.2735   67.6036 H   0  0  0  0  0  0  0  0  0  0  0  0
    6.9325   70.8384   66.7399 H   0  0  0  0  0  0  0  0  0  0  0  0
    4.1890   70.5606   69.9542 H   0  0  0  0  0  0  0  0  0  0  0  0
    3.4722   71.2712   68.4683 H   0  0  0  0  0  0  0  0  0  0  0  0
    4.0302   69.5638   68.4683 H   0  0  0  0  0  0  0  0  0  0  0  0
    5.5514   72.0831   68.1099 H   0  0  0  0  0  0  0  0  0  0  0  0
    6.2944   70.8650   69.2511 H   0  0  0  0  0  0  0  0  0  0  0  0
  2  1  2  0
  3  1  1  0
  4  3  2  0
  5  3  1  0
  6  5  1  0
  7  6  1  0
  8  7  1  0
  9  8  1  0
 10  9  1  0
 11 10  1  0
 12  1  1  0
 13 12  1  0
 14 13  1  0
 15 14  1  0
 16 15  1  0
 18 17  1  0
 18 16  1  0
  5 19  1  0
  5 20  1  0
  6 21  1  0
  6 22  1  0
  7 23  1  0
  7 24  1  0
  8 25  1  0
  8 26  1  0
  9 27  1  0
  9 28  1  0
 10 29  1  0
 10 30  1  0
 11 31  1  0
 11 32  1  0
 11 33  1  0
 12 34  1  0
 12 35  1  0
 13 36  1  0
 13 37  1  0
 14 38  1  0
 14 39  1  0
 15 40  1  0
 15 41  1  0
 16 42  1  0
 16 43  1  0
 17 44  1  0
 17 45  1  0
 17 46  1  0
 18 47  1  0
 18 48  1  0
M  END
>  <score>  (3) 
-6.791

$$$$
=
     RDKit          3D

 48 47  0  0  0  0  0  0  0  0999 V2000
    4.0950   66.1640   63.4230 C   0  0  0  0  0  0  0  0  0  0  0  0
    4.4560   65.0820   62.9790 O   0  0  0  0  0  0  0  0  0  0  0  0
    4.2810   67.4120   62.5690 C   0  0  0  0  0  0  0  0  0  0  0  0
    3.5520   67.5850   61.6000 O   0  0  0  0  0  0  0  0  0  0  0  0
    5.3860   68.3520   63.0010 C   0  0  0  0  0  0  0  0  0  0  0  0
    4.8670   69.4680   63.9060 C   0  0  0  0  0  0  0  0  0  0  0  0
    5.6000   69.5540   65.2480 C   0  0  0  0  0  0  0  0  0  0  0  0
    4.7110   69.7410   66.4810 C   0  0  0  0  0  0  0  0  0  0  0  0
    5.4740   70.2520   67.7070 C   0  0  0  0  0  0  0  0  0  0  0  0
    4.5560   70.6690   68.8590 C   0  0  0  0  0  0  0  0  0  0  0  0
    3.1220   70.1890   68.6940 C   0  0  0  0  0  0  0  0  0  0  0  0
    3.4430   66.3760   64.7730 C   0  0  0  0  0  0  0  0  0  0  0  0
    1.9780   66.8040   64.6770 C   0  0  0  0  0  0  0  0  0  0  0  0
    1.7430   68.2090   65.2380 C   0  0  0  0  0  0  0  0  0  0  0  0
    0.2650   68.5190   65.5000 C   0  0  0  0  0  0  0  0  0  0  0  0
   -0.0540   68.7250   66.9830 C   0  0  0  0  0  0  0  0  0  0  0  0
    0.9640   67.2040   68.7620 C   0  0  0  0  0  0  0  0  0  0  0  0
   -0.1640   67.4120   67.7630 C   0  0  0  0  0  0  0  0  0  0  0  0
    6.1479   67.7770   63.5476 H   0  0  0  0  0  0  0  0  0  0  0  0
    5.8095   68.8161   62.0981 H   0  0  0  0  0  0  0  0  0  0  0  0
    4.9875   70.4270   63.3809 H   0  0  0  0  0  0  0  0  0  0  0  0
    3.8128   69.2436   64.1259 H   0  0  0  0  0  0  0  0  0  0  0  0
    6.1708   68.6232   65.3813 H   0  0  0  0  0  0  0  0  0  0  0  0
    6.2252   70.4572   65.1901 H   0  0  0  0  0  0  0  0  0  0  0  0
    3.9207   70.4654   66.2348 H   0  0  0  0  0  0  0  0  0  0  0  0
    4.3022   68.7533   66.7404 H   0  0  0  0  0  0  0  0  0  0  0  0
    6.1398   69.4519   68.0628 H   0  0  0  0  0  0  0  0  0  0  0  0
    6.0327   71.1465   67.3944 H   0  0  0  0  0  0  0  0  0  0  0  0
    4.9580   70.2511   69.7938 H   0  0  0  0  0  0  0  0  0  0  0  0
    4.5305   71.7686   68.8717 H   0  0  0  0  0  0  0  0  0  0  0  0
    2.6697   70.0376   69.6852 H   0  0  0  0  0  0  0  0  0  0  0  0
    2.5446   70.9429   68.1387 H   0  0  0  0  0  0  0  0  0  0  0  0
    3.1148   69.2395   68.1387 H   0  0  0  0  0  0  0  0  0  0  0  0
    3.4950   65.4334   65.3377 H   0  0  0  0  0  0  0  0  0  0  0  0
    3.9879   67.1899   65.2736 H   0  0  0  0  0  0  0  0  0  0  0  0
    1.6744   66.7903   63.6198 H   0  0  0  0  0  0  0  0  0  0  0  0
    1.3826   66.0994   65.2762 H   0  0  0  0  0  0  0  0  0  0  0  0
    2.2926   68.3025   66.1863 H   0  0  0  0  0  0  0  0  0  0  0  0
    2.0963   68.9248   64.4812 H   0  0  0  0  0  0  0  0  0  0  0  0
   -0.0020   69.4360   64.9542 H   0  0  0  0  0  0  0  0  0  0  0  0
   -0.3169   67.6505   65.1579 H   0  0  0  0  0  0  0  0  0  0  0  0
    0.7457   69.3326   67.4318 H   0  0  0  0  0  0  0  0  0  0  0  0
   -1.0328   69.2235   67.0412 H   0  0  0  0  0  0  0  0  0  0  0  0
    0.5661   67.2774   69.7849 H   0  0  0  0  0  0  0  0  0  0  0  0
    1.4080   66.2088   68.6118 H   0  0  0  0  0  0  0  0  0  0  0  0
    1.7337   67.9754   68.6118 H   0  0  0  0  0  0  0  0  0  0  0  0
   -0.1517   66.5785   67.0453 H   0  0  0  0  0  0  0  0  0  0  0  0
   -1.1013   67.4540   68.3371 H   0  0  0  0  0  0  0  0  0  0  0  0
  2  1  2  0
  3  1  1  0
  4  3  2  0
  5  3  1  0
  6  5  1  0
  7  6  1  0
  8  7  1  0
  9  8  1  0
 10  9  1  0
 11 10  1  0
 12  1  1  0
 13 12  1  0
 14 13  1  0
 15 14  1  0
 16 15  1  0
 18 17  1  0
 18 16  1  0
  5 19  1  0
  5 20  1  0
  6 21  1  0
  6 22  1  0
  7 23  1  0
  7 24  1  0
  8 25  1  0
  8 26  1  0
  9 27  1  0
  9 28  1  0
 10 29  1  0
 10 30  1  0
 11 31  1  0
 11 32  1  0
 11 33  1  0
 12 34  1  0
 12 35  1  0
 13 36  1  0
 13 37  1  0
 14 38  1  0
 14 39  1  0
 15 40  1  0
 15 41  1  0
 16 42  1  0
 16 43  1  0
 17 44  1  0
 17 45  1  0
 17 46  1  0
 18 47  1  0
 18 48  1  0
M  END
>  <score>  (4) 
-6.7

$$$$
=
     RDKit          3D

 48 47  0  0  0  0  0  0  0  0999 V2000
    0.7520   67.5030   67.1880 C   0  0  0  0  0  0  0  0  0  0  0  0
    0.5660   66.9310   66.1220 O   0  0  0  0  0  0  0  0  0  0  0  0
    0.2030   66.8810   68.4660 C   0  0  0  0  0  0  0  0  0  0  0  0
   -0.9560   66.4860   68.4860 O   0  0  0  0  0  0  0  0  0  0  0  0
    1.1630   66.8100   69.6340 C   0  0  0  0  0  0  0  0  0  0  0  0
    1.0110   65.5090   70.4210 C   0  0  0  0  0  0  0  0  0  0  0  0
    2.2180   64.5740   70.2910 C   0  0  0  0  0  0  0  0  0  0  0  0
    1.9030   63.0760   70.3030 C   0  0  0  0  0  0  0  0  0  0  0  0
    2.7260   62.2760   69.2890 C   0  0  0  0  0  0  0  0  0  0  0  0
    3.8490   61.4590   69.9350 C   0  0  0  0  0  0  0  0  0  0  0  0
    3.6990   59.9590   69.7330 C   0  0  0  0  0  0  0  0  0  0  0  0
    1.5210   68.7960   67.3580 C   0  0  0  0  0  0  0  0  0  0  0  0
    2.7300   68.9080   66.4280 C   0  0  0  0  0  0  0  0  0  0  0  0
    3.8950   69.6640   67.0750 C   0  0  0  0  0  0  0  0  0  0  0  0
    5.1050   69.8210   66.1480 C   0  0  0  0  0  0  0  0  0  0  0  0
    6.3750   70.2570   66.8840 C   0  0  0  0  0  0  0  0  0  0  0  0
    7.1070   70.9340   69.2330 C   0  0  0  0  0  0  0  0  0  0  0  0
    6.0920   71.1200   68.1160 C   0  0  0  0  0  0  0  0  0  0  0  0
    2.1925   66.8760   69.2522 H   0  0  0  0  0  0  0  0  0  0  0  0
    0.9360   67.6460   70.3120 H   0  0  0  0  0  0  0  0  0  0  0  0
    0.8760   65.7583   71.4838 H   0  0  0  0  0  0  0  0  0  0  0  0
    0.1425   64.9775   70.0048 H   0  0  0  0  0  0  0  0  0  0  0  0
    2.7237   64.8052   69.3419 H   0  0  0  0  0  0  0  0  0  0  0  0
    2.8359   64.7571   71.1825 H   0  0  0  0  0  0  0  0  0  0  0  0
    2.1113   62.6834   71.3092 H   0  0  0  0  0  0  0  0  0  0  0  0
    0.8447   62.9633   70.0252 H   0  0  0  0  0  0  0  0  0  0  0  0
    2.0528   61.5867   68.7582 H   0  0  0  0  0  0  0  0  0  0  0  0
    3.1978   62.9990   68.6073 H   0  0  0  0  0  0  0  0  0  0  0  0
    4.8069   61.7756   69.4966 H   0  0  0  0  0  0  0  0  0  0  0  0
    3.8047   61.6464   71.0180 H   0  0  0  0  0  0  0  0  0  0  0  0
    3.6491   59.4603   70.7122 H   0  0  0  0  0  0  0  0  0  0  0  0
    2.7760   59.7553   69.1704 H   0  0  0  0  0  0  0  0  0  0  0  0
    4.5634   59.5765   69.1704 H   0  0  0  0  0  0  0  0  0  0  0  0
    0.8418   69.6360   67.1503 H   0  0  0  0  0  0  0  0  0  0  0  0
    1.9011   68.8155   68.3900 H   0  0  0  0  0  0  0  0  0  0  0  0
    3.0686   67.8950   66.1649 H   0  0  0  0  0  0  0  0  0  0  0  0
    2.4172   69.4719   65.5369 H   0  0  0  0  0  0  0  0  0  0  0  0
    3.5439   70.6657   67.3635 H   0  0  0  0  0  0  0  0  0  0  0  0
    4.2241   69.0742   67.9432 H   0  0  0  0  0  0  0  0  0  0  0  0
    5.2985   68.8550   65.6587 H   0  0  0  0  0  0  0  0  0  0  0  0
    4.8605   70.6100   65.4215 H   0  0  0  0  0  0  0  0  0  0  0  0
    6.9193   69.3567   67.2054 H   0  0  0  0  0  0  0  0  0  0  0  0
    6.9642   70.8687   66.1849 H   0  0  0  0  0  0  0  0  0  0  0  0
    6.6024   71.0265   70.2061 H   0  0  0  0  0  0  0  0  0  0  0  0
    7.5645   69.9371   69.1505 H   0  0  0  0  0  0  0  0  0  0  0  0
    7.8883   71.7039   69.1505 H   0  0  0  0  0  0  0  0  0  0  0  0
    5.0962   70.8582   68.5032 H   0  0  0  0  0  0  0  0  0  0  0  0
    6.1521   72.1707   67.7958 H   0  0  0  0  0  0  0  0  0  0  0  0
  2  1  2  0
  3  1  1  0
  4  3  2  0
  5  3  1  0
  6  5  1  0
  7  6  1  0
  8  7  1  0
  9  8  1  0
 10  9  1  0
 11 10  1  0
 12  1  1  0
 13 12  1  0
 14 13  1  0
 15 14  1  0
 16 15  1  0
 18 17  1  0
 18 16  1  0
  5 19  1  0
  5 20  1  0
  6 21  1  0
  6 22  1  0
  7 23  1  0
  7 24  1  0
  8 25  1  0
  8 26  1  0
  9 27  1  0
  9 28  1  0
 10 29  1  0
 10 30  1  0
 11 31  1  0
 11 32  1  0
 11 33  1  0
 12 34  1  0
 12 35  1  0
 13 36  1  0
 13 37  1  0
 14 38  1  0
 14 39  1  0
 15 40  1  0
 15 41  1  0
 16 42  1  0
 16 43  1  0
 17 44  1  0
 17 45  1  0
 17 46  1  0
 18 47  1  0
 18 48  1  0
M  END
>  <score>  (5) 
-6.689

$$$$
=
     RDKit          3D

 48 47  0  0  0  0  0  0  0  0999 V2000
    0.5240   68.5670   64.8420 C   0  0  0  0  0  0  0  0  0  0  0  0
   -0.6560   68.6280   64.5220 O   0  0  0  0  0  0  0  0  0  0  0  0
    0.8920   67.9930   66.2040 C   0  0  0  0  0  0  0  0  0  0  0  0
    1.0110   66.7790   66.3270 O   0  0  0  0  0  0  0  0  0  0  0  0
    1.0760   68.9980   67.3200 C   0  0  0  0  0  0  0  0  0  0  0  0
    2.5370   69.4210   67.4730 C   0  0  0  0  0  0  0  0  0  0  0  0
    2.8410   70.0820   68.8210 C   0  0  0  0  0  0  0  0  0  0  0  0
    4.0280   71.0490   68.8350 C   0  0  0  0  0  0  0  0  0  0  0  0
    5.3720   70.3620   68.5760 C   0  0  0  0  0  0  0  0  0  0  0  0
    6.5480   71.3420   68.5130 C   0  0  0  0  0  0  0  0  0  0  0  0
    7.7230   70.9340   69.3890 C   0  0  0  0  0  0  0  0  0  0  0  0
    1.6840   69.0030   63.9710 C   0  0  0  0  0  0  0  0  0  0  0  0
    1.5780   68.5070   62.5280 C   0  0  0  0  0  0  0  0  0  0  0  0
    2.8500   68.7830   61.7220 C   0  0  0  0  0  0  0  0  0  0  0  0
    4.0200   67.8700   62.1040 C   0  0  0  0  0  0  0  0  0  0  0  0
    5.2160   68.6310   62.6820 C   0  0  0  0  0  0  0  0  0  0  0  0
    5.1500   69.7200   64.9890 C   0  0  0  0  0  0  0  0  0  0  0  0
    5.3750   68.4440   64.1940 C   0  0  0  0  0  0  0  0  0  0  0  0
    0.4694   69.8888   67.0996 H   0  0  0  0  0  0  0  0  0  0  0  0
    0.7587   68.5240   68.2605 H   0  0  0  0  0  0  0  0  0  0  0  0
    3.1710   68.5278   67.3718 H   0  0  0  0  0  0  0  0  0  0  0  0
    2.7425   70.1675   66.6916 H   0  0  0  0  0  0  0  0  0  0  0  0
    1.9463   70.6410   69.1324 H   0  0  0  0  0  0  0  0  0  0  0  0
    3.1148   69.2622   69.5013 H   0  0  0  0  0  0  0  0  0  0  0  0
    3.8685   71.8089   68.0559 H   0  0  0  0  0  0  0  0  0  0  0  0
    4.0765   71.4908   69.8412 H   0  0  0  0  0  0  0  0  0  0  0  0
    5.5592   69.6428   69.3870 H   0  0  0  0  0  0  0  0  0  0  0  0
    5.3038   69.8694   67.5948 H   0  0  0  0  0  0  0  0  0  0  0  0
    6.8950   71.4036   67.4710 H   0  0  0  0  0  0  0  0  0  0  0  0
    6.1842   72.3099   68.8884 H   0  0  0  0  0  0  0  0  0  0  0  0
    7.4421   71.0316   70.4480 H   0  0  0  0  0  0  0  0  0  0  0  0
    7.9936   69.8893   69.1762 H   0  0  0  0  0  0  0  0  0  0  0  0
    8.5829   71.5862   69.1762 H   0  0  0  0  0  0  0  0  0  0  0  0
    1.7186   70.1024   63.9605 H   0  0  0  0  0  0  0  0  0  0  0  0
    2.5964   68.5633   64.4001 H   0  0  0  0  0  0  0  0  0  0  0  0
    1.3954   67.4223   62.5396 H   0  0  0  0  0  0  0  0  0  0  0  0
    0.7510   69.0494   62.0464 H   0  0  0  0  0  0  0  0  0  0  0  0
    2.6261   68.6357   60.6551 H   0  0  0  0  0  0  0  0  0  0  0  0
    3.1575   69.8159   61.9423 H   0  0  0  0  0  0  0  0  0  0  0  0
    3.6688   67.1479   62.8558 H   0  0  0  0  0  0  0  0  0  0  0  0
    4.3620   67.3749   61.1832 H   0  0  0  0  0  0  0  0  0  0  0  0
    6.1308   68.2730   62.1871 H   0  0  0  0  0  0  0  0  0  0  0  0
    5.0412   69.7018   62.5011 H   0  0  0  0  0  0  0  0  0  0  0  0
    5.1899   69.4936   66.0647 H   0  0  0  0  0  0  0  0  0  0  0  0
    5.9331   70.4508   64.7388 H   0  0  0  0  0  0  0  0  0  0  0  0
    4.1641   70.1389   64.7388 H   0  0  0  0  0  0  0  0  0  0  0  0
    6.3946   68.0835   64.3951 H   0  0  0  0  0  0  0  0  0  0  0  0
    4.6076   67.7236   64.5137 H   0  0  0  0  0  0  0  0  0  0  0  0
  2  1  2  0
  3  1  1  0
  4  3  2  0
  5  3  1  0
  6  5  1  0
  7  6  1  0
  8  7  1  0
  9  8  1  0
 10  9  1  0
 11 10  1  0
 12  1  1  0
 13 12  1  0
 14 13  1  0
 15 14  1  0
 16 15  1  0
 18 17  1  0
 18 16  1  0
  5 19  1  0
  5 20  1  0
  6 21  1  0
  6 22  1  0
  7 23  1  0
  7 24  1  0
  8 25  1  0
  8 26  1  0
  9 27  1  0
  9 28  1  0
 10 29  1  0
 10 30  1  0
 11 31  1  0
 11 32  1  0
 11 33  1  0
 12 34  1  0
 12 35  1  0
 13 36  1  0
 13 37  1  0
 14 38  1  0
 14 39  1  0
 15 40  1  0
 15 41  1  0
 16 42  1  0
 16 43  1  0
 17 44  1  0
 17 45  1  0
 17 46  1  0
 18 47  1  0
 18 48  1  0
M  END
>  <score>  (6) 
-6.541

$$$$
=
     RDKit          3D

 48 47  0  0  0  0  0  0  0  0999 V2000
    0.3950   68.9640   67.2210 C   0  0  0  0  0  0  0  0  0  0  0  0
   -0.3900   69.7120   67.7900 O   0  0  0  0  0  0  0  0  0  0  0  0
   -0.0160   68.3320   65.8970 C   0  0  0  0  0  0  0  0  0  0  0  0
   -1.1990   68.3320   65.5770 O   0  0  0  0  0  0  0  0  0  0  0  0
    1.1040   67.7360   65.0710 C   0  0  0  0  0  0  0  0  0  0  0  0
    1.5460   68.6720   63.9470 C   0  0  0  0  0  0  0  0  0  0  0  0
    3.0630   68.6920   63.7340 C   0  0  0  0  0  0  0  0  0  0  0  0
    3.5590   68.0760   62.4230 C   0  0  0  0  0  0  0  0  0  0  0  0
    4.4370   66.8380   62.6300 C   0  0  0  0  0  0  0  0  0  0  0  0
    4.3490   66.2670   64.0480 C   0  0  0  0  0  0  0  0  0  0  0  0
    3.9340   64.8040   64.0880 C   0  0  0  0  0  0  0  0  0  0  0  0
    1.7830   68.6200   67.7160 C   0  0  0  0  0  0  0  0  0  0  0  0
    2.7640   69.7900   67.6290 C   0  0  0  0  0  0  0  0  0  0  0  0
    3.2760   70.2260   69.0050 C   0  0  0  0  0  0  0  0  0  0  0  0
    4.6780   70.8430   68.9640 C   0  0  0  0  0  0  0  0  0  0  0  0
    5.5110   70.3680   67.7710 C   0  0  0  0  0  0  0  0  0  0  0  0
    7.3950   70.9190   69.4020 C   0  0  0  0  0  0  0  0  0  0  0  0
    7.0170   70.5550   67.9750 C   0  0  0  0  0  0  0  0  0  0  0  0
    1.9639   67.5390   65.7280 H   0  0  0  0  0  0  0  0  0  0  0  0
    0.7321   66.8073   64.6136 H   0  0  0  0  0  0  0  0  0  0  0  0
    1.0668   68.3453   63.0123 H   0  0  0  0  0  0  0  0  0  0  0  0
    1.2447   69.6901   64.2345 H   0  0  0  0  0  0  0  0  0  0  0  0
    3.3940   69.7407   63.7608 H   0  0  0  0  0  0  0  0  0  0  0  0
    3.4860   68.0692   64.5360 H   0  0  0  0  0  0  0  0  0  0  0  0
    2.6853   67.7877   61.8200 H   0  0  0  0  0  0  0  0  0  0  0  0
    4.1775   68.8340   61.9200 H   0  0  0  0  0  0  0  0  0  0  0  0
    4.1187   66.0608   61.9197 H   0  0  0  0  0  0  0  0  0  0  0  0
    5.4802   67.1456   62.4654 H   0  0  0  0  0  0  0  0  0  0  0  0
    5.3363   66.3620   64.5236 H   0  0  0  0  0  0  0  0  0  0  0  0
    3.5735   66.8381   64.5794 H   0  0  0  0  0  0  0  0  0  0  0  0
    3.8414   64.4776   65.1344 H   0  0  0  0  0  0  0  0  0  0  0  0
    2.9662   64.6834   63.5793 H   0  0  0  0  0  0  0  0  0  0  0  0
    4.6943   64.1932   63.5793 H   0  0  0  0  0  0  0  0  0  0  0  0
    1.7102   68.3029   68.7668 H   0  0  0  0  0  0  0  0  0  0  0  0
    2.1712   67.8207   67.0675 H   0  0  0  0  0  0  0  0  0  0  0  0
    3.6228   69.4859   67.0126 H   0  0  0  0  0  0  0  0  0  0  0  0
    2.2304   70.6428   67.1840 H   0  0  0  0  0  0  0  0  0  0  0  0
    2.5790   70.9708   69.4167 H   0  0  0  0  0  0  0  0  0  0  0  0
    3.3362   69.3232   69.6306 H   0  0  0  0  0  0  0  0  0  0  0  0
    4.5771   71.9369   68.9066 H   0  0  0  0  0  0  0  0  0  0  0  0
    5.2025   70.5239   69.8767 H   0  0  0  0  0  0  0  0  0  0  0  0
    5.3103   69.2988   67.6078 H   0  0  0  0  0  0  0  0  0  0  0  0
    5.2198   70.9797   66.9044 H   0  0  0  0  0  0  0  0  0  0  0  0
    6.7850   70.3316   70.1041 H   0  0  0  0  0  0  0  0  0  0  0  0
    8.4597   70.6974   69.5672 H   0  0  0  0  0  0  0  0  0  0  0  0
    7.2137   71.9913   69.5672 H   0  0  0  0  0  0  0  0  0  0  0  0
    7.3616   71.3587   67.3077 H   0  0  0  0  0  0  0  0  0  0  0  0
    7.4963   69.5910   67.7491 H   0  0  0  0  0  0  0  0  0  0  0  0
  2  1  2  0
  3  1  1  0
  4  3  2  0
  5  3  1  0
  6  5  1  0
  7  6  1  0
  8  7  1  0
  9  8  1  0
 10  9  1  0
 11 10  1  0
 12  1  1  0
 13 12  1  0
 14 13  1  0
 15 14  1  0
 16 15  1  0
 18 17  1  0
 18 16  1  0
  5 19  1  0
  5 20  1  0
  6 21  1  0
  6 22  1  0
  7 23  1  0
  7 24  1  0
  8 25  1  0
  8 26  1  0
  9 27  1  0
  9 28  1  0
 10 29  1  0
 10 30  1  0
 11 31  1  0
 11 32  1  0
 11 33  1  0
 12 34  1  0
 12 35  1  0
 13 36  1  0
 13 37  1  0
 14 38  1  0
 14 39  1  0
 15 40  1  0
 15 41  1  0
 16 42  1  0
 16 43  1  0
 17 44  1  0
 17 45  1  0
 17 46  1  0
 18 47  1  0
 18 48  1  0
M  END
>  <score>  (7) 
-6.449

$$$$
=
     RDKit          3D

 48 47  0  0  0  0  0  0  0  0999 V2000
    1.9160   68.6440   65.5750 C   0  0  0  0  0  0  0  0  0  0  0  0
    1.0230   69.0600   66.3020 O   0  0  0  0  0  0  0  0  0  0  0  0
    1.7290   67.3100   64.8650 C   0  0  0  0  0  0  0  0  0  0  0  0
    1.0040   67.2550   63.8790 O   0  0  0  0  0  0  0  0  0  0  0  0
    2.4690   66.1320   65.4610 C   0  0  0  0  0  0  0  0  0  0  0  0
    3.0940   65.2450   64.3850 C   0  0  0  0  0  0  0  0  0  0  0  0
    4.4310   65.7760   63.8590 C   0  0  0  0  0  0  0  0  0  0  0  0
    4.3600   66.5860   62.5610 C   0  0  0  0  0  0  0  0  0  0  0  0
    5.1670   67.8860   62.6140 C   0  0  0  0  0  0  0  0  0  0  0  0
    4.4970   69.0420   61.8650 C   0  0  0  0  0  0  0  0  0  0  0  0
    3.0400   68.7750   61.5170 C   0  0  0  0  0  0  0  0  0  0  0  0
    3.2150   69.3690   65.2920 C   0  0  0  0  0  0  0  0  0  0  0  0
    4.1990   69.3270   66.4620 C   0  0  0  0  0  0  0  0  0  0  0  0
    5.6220   69.7060   66.0410 C   0  0  0  0  0  0  0  0  0  0  0  0
    6.2240   70.8350   66.8830 C   0  0  0  0  0  0  0  0  0  0  0  0
    5.9770   70.6650   68.3850 C   0  0  0  0  0  0  0  0  0  0  0  0
    7.0560   70.3830   70.6800 C   0  0  0  0  0  0  0  0  0  0  0  0
    7.2560   70.7590   69.2200 C   0  0  0  0  0  0  0  0  0  0  0  0
    3.2667   66.5091   66.1179 H   0  0  0  0  0  0  0  0  0  0  0  0
    1.7444   65.5247   66.0234 H   0  0  0  0  0  0  0  0  0  0  0  0
    3.2597   64.2445   64.8110 H   0  0  0  0  0  0  0  0  0  0  0  0
    2.3959   65.2251   63.5352 H   0  0  0  0  0  0  0  0  0  0  0  0
    4.8678   66.4205   64.6360 H   0  0  0  0  0  0  0  0  0  0  0  0
    5.0352   64.8871   63.6249 H   0  0  0  0  0  0  0  0  0  0  0  0
    4.7503   65.9659   61.7406 H   0  0  0  0  0  0  0  0  0  0  0  0
    3.3066   66.8623   62.4064 H   0  0  0  0  0  0  0  0  0  0  0  0
    5.2920   68.1774   63.6673 H   0  0  0  0  0  0  0  0  0  0  0  0
    6.1317   67.6927   62.1220 H   0  0  0  0  0  0  0  0  0  0  0  0
    4.5451   69.9410   62.4971 H   0  0  0  0  0  0  0  0  0  0  0  0
    5.0385   69.1703   60.9161 H   0  0  0  0  0  0  0  0  0  0  0  0
    2.4556   68.6679   62.4427 H   0  0  0  0  0  0  0  0  0  0  0  0
    2.6437   69.6155   60.9283 H   0  0  0  0  0  0  0  0  0  0  0  0
    2.9674   67.8486   60.9283 H   0  0  0  0  0  0  0  0  0  0  0  0
    3.6921   68.9020   64.4177 H   0  0  0  0  0  0  0  0  0  0  0  0
    2.9661   70.4255   65.1136 H   0  0  0  0  0  0  0  0  0  0  0  0
    3.8594   70.0323   67.2348 H   0  0  0  0  0  0  0  0  0  0  0  0
    4.2249   68.2950   66.8420 H   0  0  0  0  0  0  0  0  0  0  0  0
    6.2632   68.8176   66.1392 H   0  0  0  0  0  0  0  0  0  0  0  0
    5.5688   70.0671   65.0033 H   0  0  0  0  0  0  0  0  0  0  0  0
    7.3097   70.8610   66.7080 H   0  0  0  0  0  0  0  0  0  0  0  0
    5.7333   71.7700   66.5748 H   0  0  0  0  0  0  0  0  0  0  0  0
    5.2841   71.4523   68.7168 H   0  0  0  0  0  0  0  0  0  0  0  0
    5.5608   69.6581   68.5362 H   0  0  0  0  0  0  0  0  0  0  0  0
    7.4753   71.1713   71.3224 H   0  0  0  0  0  0  0  0  0  0  0  0
    5.9811   70.2746   70.8868 H   0  0  0  0  0  0  0  0  0  0  0  0
    7.5670   69.4311   70.8868 H   0  0  0  0  0  0  0  0  0  0  0  0
    7.6263   71.7938   69.1745 H   0  0  0  0  0  0  0  0  0  0  0  0
    7.9729   70.0405   68.7960 H   0  0  0  0  0  0  0  0  0  0  0  0
  2  1  2  0
  3  1  1  0
  4  3  2  0
  5  3  1  0
  6  5  1  0
  7  6  1  0
  8  7  1  0
  9  8  1  0
 10  9  1  0
 11 10  1  0
 12  1  1  0
 13 12  1  0
 14 13  1  0
 15 14  1  0
 16 15  1  0
 18 17  1  0
 18 16  1  0
  5 19  1  0
  5 20  1  0
  6 21  1  0
  6 22  1  0
  7 23  1  0
  7 24  1  0
  8 25  1  0
  8 26  1  0
  9 27  1  0
  9 28  1  0
 10 29  1  0
 10 30  1  0
 11 31  1  0
 11 32  1  0
 11 33  1  0
 12 34  1  0
 12 35  1  0
 13 36  1  0
 13 37  1  0
 14 38  1  0
 14 39  1  0
 15 40  1  0
 15 41  1  0
 16 42  1  0
 16 43  1  0
 17 44  1  0
 17 45  1  0
 17 46  1  0
 18 47  1  0
 18 48  1  0
M  END
>  <score>  (8) 
-6.396

$$$$
=
     RDKit          3D

 48 47  0  0  0  0  0  0  0  0999 V2000
    1.4490   68.2180   64.0760 C   0  0  0  0  0  0  0  0  0  0  0  0
    0.4120   67.8980   63.5100 O   0  0  0  0  0  0  0  0  0  0  0  0
    2.7560   68.1900   63.2950 C   0  0  0  0  0  0  0  0  0  0  0  0
    2.7800   68.6380   62.1550 O   0  0  0  0  0  0  0  0  0  0  0  0
    3.9440   67.5860   64.0130 C   0  0  0  0  0  0  0  0  0  0  0  0
    5.0520   68.6130   64.2490 C   0  0  0  0  0  0  0  0  0  0  0  0
    4.7490   69.5820   65.3960 C   0  0  0  0  0  0  0  0  0  0  0  0
    5.9590   70.0380   66.2180 C   0  0  0  0  0  0  0  0  0  0  0  0
    5.6250   70.3080   67.6880 C   0  0  0  0  0  0  0  0  0  0  0  0
    4.1360   70.1470   68.0070 C   0  0  0  0  0  0  0  0  0  0  0  0
    3.7150   70.8430   69.2930 C   0  0  0  0  0  0  0  0  0  0  0  0
    1.5470   68.6740   65.5160 C   0  0  0  0  0  0  0  0  0  0  0  0
    0.5350   67.9930   66.4380 C   0  0  0  0  0  0  0  0  0  0  0  0
    0.6230   68.5040   67.8800 C   0  0  0  0  0  0  0  0  0  0  0  0
    1.1640   67.4600   68.8620 C   0  0  0  0  0  0  0  0  0  0  0  0
    0.0970   66.4720   69.3410 C   0  0  0  0  0  0  0  0  0  0  0  0
    1.6470   64.8000   70.4880 C   0  0  0  0  0  0  0  0  0  0  0  0
    0.4770   65.7590   70.6420 C   0  0  0  0  0  0  0  0  0  0  0  0
    3.6100   67.1939   64.9850 H   0  0  0  0  0  0  0  0  0  0  0  0
    4.3524   66.7842   63.3802 H   0  0  0  0  0  0  0  0  0  0  0  0
    5.9821   68.0747   64.4838 H   0  0  0  0  0  0  0  0  0  0  0  0
    5.1393   69.2132   63.3313 H   0  0  0  0  0  0  0  0  0  0  0  0
    4.2758   70.4771   64.9661 H   0  0  0  0  0  0  0  0  0  0  0  0
    4.1041   69.0280   66.0940 H   0  0  0  0  0  0  0  0  0  0  0  0
    6.7278   69.2525   66.1731 H   0  0  0  0  0  0  0  0  0  0  0  0
    6.3095   70.9860   65.7839 H   0  0  0  0  0  0  0  0  0  0  0  0
    6.1944   69.6028   68.3113 H   0  0  0  0  0  0  0  0  0  0  0  0
    5.8933   71.3540   67.8977 H   0  0  0  0  0  0  0  0  0  0  0  0
    3.5535   70.5695   67.1750 H   0  0  0  0  0  0  0  0  0  0  0  0
    3.9473   69.0718   68.1428 H   0  0  0  0  0  0  0  0  0  0  0  0
    4.0672   70.2608   70.1573 H   0  0  0  0  0  0  0  0  0  0  0  0
    4.1552   71.8505   69.3257 H   0  0  0  0  0  0  0  0  0  0  0  0
    2.6182   70.9208   69.3257 H   0  0  0  0  0  0  0  0  0  0  0  0
    2.5593   68.4514   65.8843 H   0  0  0  0  0  0  0  0  0  0  0  0
    1.3270   69.7517   65.5314 H   0  0  0  0  0  0  0  0  0  0  0  0
   -0.4779   68.1871   66.0555 H   0  0  0  0  0  0  0  0  0  0  0  0
    0.7621   66.9168   66.4489 H   0  0  0  0  0  0  0  0  0  0  0  0
    1.2885   69.3796   67.8999 H   0  0  0  0  0  0  0  0  0  0  0  0
   -0.3996   68.7525   68.2001 H   0  0  0  0  0  0  0  0  0  0  0  0
    1.9657   66.8946   68.3645 H   0  0  0  0  0  0  0  0  0  0  0  0
    1.5283   68.0020   69.7472 H   0  0  0  0  0  0  0  0  0  0  0  0
   -0.8411   67.0225   69.5050 H   0  0  0  0  0  0  0  0  0  0  0  0
   -0.0076   65.7008   68.5636 H   0  0  0  0  0  0  0  0  0  0  0  0
    2.0103   64.5022   71.4826 H   0  0  0  0  0  0  0  0  0  0  0  0
    1.3192   63.9074   69.9350 H   0  0  0  0  0  0  0  0  0  0  0  0
    2.4579   65.2967   69.9350 H   0  0  0  0  0  0  0  0  0  0  0  0
   -0.3957   65.1899   70.9950 H   0  0  0  0  0  0  0  0  0  0  0  0
    0.7862   66.5347   71.3580 H   0  0  0  0  0  0  0  0  0  0  0  0
  2  1  2  0
  3  1  1  0
  4  3  2  0
  5  3  1  0
  6  5  1  0
  7  6  1  0
  8  7  1  0
  9  8  1  0
 10  9  1  0
 11 10  1  0
 12  1  1  0
 13 12  1  0
 14 13  1  0
 15 14  1  0
 16 15  1  0
 18 17  1  0
 18 16  1  0
  5 19  1  0
  5 20  1  0
  6 21  1  0
  6 22  1  0
  7 23  1  0
  7 24  1  0
  8 25  1  0
  8 26  1  0
  9 27  1  0
  9 28  1  0
 10 29  1  0
 10 30  1  0
 11 31  1  0
 11 32  1  0
 11 33  1  0
 12 34  1  0
 12 35  1  0
 13 36  1  0
 13 37  1  0
 14 38  1  0
 14 39  1  0
 15 40  1  0
 15 41  1  0
 16 42  1  0
 16 43  1  0
 17 44  1  0
 17 45  1  0
 17 46  1  0
 18 47  1  0
 18 48  1  0
M  END
>  <score>  (9) 
-6.233

$$$$
