=
     RDKit          3D

 42 44  0  0  0  0  0  0  0  0999 V2000
    1.8760   62.0660   72.9540 C   0  0  0  0  0  0  0  0  0  0  0  0
    1.0790   63.1510   73.0590 C   0  0  0  0  0  0  0  0  0  0  0  0
    0.3180   63.5890   74.2650 C   0  0  0  0  0  0  0  0  0  0  0  0
    1.0810   63.8960   71.7910 C   0  0  0  0  0  0  0  0  0  0  0  0
    0.4020   65.0410   71.5930 C   0  0  0  0  0  0  0  0  0  0  0  0
    1.9510   63.1550   70.8620 C   0  0  0  0  0  0  0  0  0  0  0  0
    2.4380   62.0550   71.5940 C   0  0  0  0  0  0  0  0  0  0  0  0
    3.3180   61.1480   71.0200 C   0  0  0  0  0  0  0  0  0  0  0  0
    3.6870   61.3460   69.6940 C   0  0  0  0  0  0  0  0  0  0  0  0
    4.5270   60.4840   69.1030 F   0  0  0  0  0  0  0  0  0  0  0  0
    3.1960   62.4240   68.9510 C   0  0  0  0  0  0  0  0  0  0  0  0
    2.3190   63.3430   69.5360 C   0  0  0  0  0  0  0  0  0  0  0  0
    0.3850   65.8630   70.3840 C   0  0  0  0  0  0  0  0  0  0  0  0
    1.4810   66.6790   70.0760 C   0  0  0  0  0  0  0  0  0  0  0  0
    1.4780   67.4480   68.9130 C   0  0  0  0  0  0  0  0  0  0  0  0
    0.3760   67.3910   68.0540 C   0  0  0  0  0  0  0  0  0  0  0  0
   -0.7320   66.5980   68.3620 C   0  0  0  0  0  0  0  0  0  0  0  0
   -0.7220   65.8280   69.5270 C   0  0  0  0  0  0  0  0  0  0  0  0
    0.3720   68.3510   66.5610 S   0  0  0  0  0  6  0  0  0  0  0  0
    0.4020   67.4320   65.4380 O   0  0  0  0  0  0  0  0  0  0  0  0
    1.3750   69.3880   66.6980 O   0  0  0  0  0  0  0  0  0  0  0  0
   -1.2260   69.1230   66.5860 C   0  0  0  0  0  0  0  0  0  0  0  0
    2.1550   60.9940   73.9590 C   0  0  0  0  0  0  0  0  0  0  0  0
    1.2230   59.0480   72.9950 O   0  0  0  0  0  1  0  0  0  0  0  0
    1.0930   59.8950   73.9260 C   0  0  0  0  0  0  0  0  0  0  0  0
    0.1860   59.9890   74.8040 O   0  0  0  0  0  0  0  0  0  0  0  0
    0.8576   63.2784   75.1718 H   0  0  0  0  0  0  0  0  0  0  0  0
    0.2157   64.6842   74.2562 H   0  0  0  0  0  0  0  0  0  0  0  0
   -0.6804   63.1274   74.2562 H   0  0  0  0  0  0  0  0  0  0  0  0
   -0.2087   65.3985   72.4352 H   0  0  0  0  0  0  0  0  0  0  0  0
    3.7117   60.2981   71.5967 H   0  0  0  0  0  0  0  0  0  0  0  0
    3.5009   62.5498   67.9016 H   0  0  0  0  0  0  0  0  0  0  0  0
    1.9297   64.1950   68.9593 H   0  0  0  0  0  0  0  0  0  0  0  0
    2.3467   66.7132   70.7537 H   0  0  0  0  0  0  0  0  0  0  0  0
    2.3353   68.0941   68.6732 H   0  0  0  0  0  0  0  0  0  0  0  0
   -1.6048   66.5802   67.6927 H   0  0  0  0  0  0  0  0  0  0  0  0
   -1.5857   65.1925   69.7721 H   0  0  0  0  0  0  0  0  0  0  0  0
   -1.5430   69.2761   67.6282 H   0  0  0  0  0  0  0  0  0  0  0  0
   -1.1720   70.0944   66.0727 H   0  0  0  0  0  0  0  0  0  0  0  0
   -1.9534   68.4769   66.0727 H   0  0  0  0  0  0  0  0  0  0  0  0
    3.1363   60.5476   73.7404 H   0  0  0  0  0  0  0  0  0  0  0  0
    2.1429   61.4514   74.9593 H   0  0  0  0  0  0  0  0  0  0  0  0
  2  1  2  0
  3  2  1  0
  4  2  1  0
  5  4  2  0
  6  4  1  0
  7  6  2  0
  7  1  1  0
  8  7  1  0
  9  8  2  0
 10  9  1  0
 11  9  1  0
 12 11  2  0
 12  6  1  0
 13  5  1  0
 14 13  2  0
 15 14  1  0
 16 15  2  0
 17 16  1  0
 18 17  2  0
 18 13  1  0
 19 16  1  0
 20 19  2  0
 21 19  2  0
 22 19  1  0
 23  1  1  0
 25 24  1  0
 25 23  1  0
 26 25  2  0
  3 27  1  0
  3 28  1  0
  3 29  1  0
  5 30  1  0
  8 31  1  0
 11 32  1  0
 12 33  1  0
 14 34  1  0
 15 35  1  0
 17 36  1  0
 18 37  1  0
 22 38  1  0
 22 39  1  0
 22 40  1  0
 23 41  1  0
 23 42  1  0
M  CHG  1  24  -1
M  END
>  <score>  (1) 
-9.064

$$$$
=
     RDKit          3D

 42 44  0  0  0  0  0  0  0  0999 V2000
    1.8360   63.0100   71.6270 C   0  0  0  0  0  0  0  0  0  0  0  0
    1.1870   62.6080   72.7390 C   0  0  0  0  0  0  0  0  0  0  0  0
    0.3450   63.4510   73.6380 C   0  0  0  0  0  0  0  0  0  0  0  0
    1.3950   61.1670   72.9450 C   0  0  0  0  0  0  0  0  0  0  0  0
    0.8500   60.4670   73.9570 C   0  0  0  0  0  0  0  0  0  0  0  0
    2.2640   60.7000   71.8510 C   0  0  0  0  0  0  0  0  0  0  0  0
    2.5080   61.8340   71.0510 C   0  0  0  0  0  0  0  0  0  0  0  0
    3.2840   61.7450   69.9040 C   0  0  0  0  0  0  0  0  0  0  0  0
    3.8330   60.5090   69.5810 C   0  0  0  0  0  0  0  0  0  0  0  0
    4.5980   60.3880   68.4860 F   0  0  0  0  0  0  0  0  0  0  0  0
    3.6140   59.3800   70.3780 C   0  0  0  0  0  0  0  0  0  0  0  0
    2.8210   59.4710   71.5260 C   0  0  0  0  0  0  0  0  0  0  0  0
    0.9700   59.0320   74.2080 C   0  0  0  0  0  0  0  0  0  0  0  0
    0.0150   58.1480   73.6910 C   0  0  0  0  0  0  0  0  0  0  0  0
    0.1380   56.7750   73.9100 C   0  0  0  0  0  0  0  0  0  0  0  0
    1.2270   56.2920   74.6420 C   0  0  0  0  0  0  0  0  0  0  0  0
    2.1730   57.1660   75.1820 C   0  0  0  0  0  0  0  0  0  0  0  0
    2.0460   58.5380   74.9570 C   0  0  0  0  0  0  0  0  0  0  0  0
    1.4030   54.5450   74.9080 S   0  0  0  0  0  6  0  0  0  0  0  0
    1.3060   54.2980   76.3350 O   0  0  0  0  0  0  0  0  0  0  0  0
    2.5560   54.0960   74.1540 O   0  0  0  0  0  0  0  0  0  0  0  0
   -0.0510   53.8750   74.1420 C   0  0  0  0  0  0  0  0  0  0  0  0
    1.9520   64.3810   71.0390 C   0  0  0  0  0  0  0  0  0  0  0  0
   -0.0470   63.9150   69.8660 O   0  0  0  0  0  1  0  0  0  0  0  0
    0.6410   64.8350   70.3980 C   0  0  0  0  0  0  0  0  0  0  0  0
    0.4210   66.0810   70.4340 O   0  0  0  0  0  0  0  0  0  0  0  0
    0.5796   63.2161   74.6867 H   0  0  0  0  0  0  0  0  0  0  0  0
    0.5529   64.5138   73.4449 H   0  0  0  0  0  0  0  0  0  0  0  0
   -0.7180   63.2444   73.4449 H   0  0  0  0  0  0  0  0  0  0  0  0
    0.2461   61.0393   74.6765 H   0  0  0  0  0  0  0  0  0  0  0  0
    3.4596   62.6260   69.2692 H   0  0  0  0  0  0  0  0  0  0  0  0
    4.0675   58.4171   70.1003 H   0  0  0  0  0  0  0  0  0  0  0  0
    2.6426   58.5882   72.1575 H   0  0  0  0  0  0  0  0  0  0  0  0
   -0.8347   58.5368   73.1105 H   0  0  0  0  0  0  0  0  0  0  0  0
   -0.6147   56.0795   73.5105 H   0  0  0  0  0  0  0  0  0  0  0  0
    3.0107   56.7769   75.7793 H   0  0  0  0  0  0  0  0  0  0  0  0
    2.7927   59.2329   75.3688 H   0  0  0  0  0  0  0  0  0  0  0  0
   -0.7579   53.5492   74.9193 H   0  0  0  0  0  0  0  0  0  0  0  0
   -0.5240   54.6460   73.5160 H   0  0  0  0  0  0  0  0  0  0  0  0
    0.2277   53.0145   73.5160 H   0  0  0  0  0  0  0  0  0  0  0  0
    2.2227   65.0889   71.8363 H   0  0  0  0  0  0  0  0  0  0  0  0
    2.7245   64.3537   70.2564 H   0  0  0  0  0  0  0  0  0  0  0  0
  2  1  2  0
  3  2  1  0
  4  2  1  0
  5  4  2  0
  6  4  1  0
  7  6  2  0
  7  1  1  0
  8  7  1  0
  9  8  2  0
 10  9  1  0
 11  9  1  0
 12 11  2  0
 12  6  1  0
 13  5  1  0
 14 13  2  0
 15 14  1  0
 16 15  2  0
 17 16  1  0
 18 17  2  0
 18 13  1  0
 19 16  1  0
 20 19  2  0
 21 19  2  0
 22 19  1  0
 23  1  1  0
 25 24  1  0
 25 23  1  0
 26 25  2  0
  3 27  1  0
  3 28  1  0
  3 29  1  0
  5 30  1  0
  8 31  1  0
 11 32  1  0
 12 33  1  0
 14 34  1  0
 15 35  1  0
 17 36  1  0
 18 37  1  0
 22 38  1  0
 22 39  1  0
 22 40  1  0
 23 41  1  0
 23 42  1  0
M  CHG  1  24  -1
M  END
>  <score>  (2) 
-8.653

$$$$
=
     RDKit          3D

 42 44  0  0  0  0  0  0  0  0999 V2000
    2.7740   61.2740   70.9760 C   0  0  0  0  0  0  0  0  0  0  0  0
    2.2140   60.3720   71.8090 C   0  0  0  0  0  0  0  0  0  0  0  0
    2.6860   58.9800   72.0690 C   0  0  0  0  0  0  0  0  0  0  0  0
    1.0480   60.9680   72.4790 C   0  0  0  0  0  0  0  0  0  0  0  0
    0.2970   60.3240   73.3910 C   0  0  0  0  0  0  0  0  0  0  0  0
    0.9180   62.3430   71.9670 C   0  0  0  0  0  0  0  0  0  0  0  0
    1.9880   62.5150   71.0660 C   0  0  0  0  0  0  0  0  0  0  0  0
    2.1810   63.7220   70.4100 C   0  0  0  0  0  0  0  0  0  0  0  0
    1.2760   64.7490   70.6510 C   0  0  0  0  0  0  0  0  0  0  0  0
    1.4250   65.9260   70.0260 F   0  0  0  0  0  0  0  0  0  0  0  0
    0.1990   64.5850   71.5290 C   0  0  0  0  0  0  0  0  0  0  0  0
    0.0140   63.3710   72.1980 C   0  0  0  0  0  0  0  0  0  0  0  0
   -0.8450   60.8550   74.1320 C   0  0  0  0  0  0  0  0  0  0  0  0
   -0.6390   61.5690   75.3190 C   0  0  0  0  0  0  0  0  0  0  0  0
   -1.7240   62.0970   76.0190 C   0  0  0  0  0  0  0  0  0  0  0  0
   -3.0180   61.9130   75.5200 C   0  0  0  0  0  0  0  0  0  0  0  0
   -3.2380   61.1830   74.3500 C   0  0  0  0  0  0  0  0  0  0  0  0
   -2.1470   60.6600   73.6530 C   0  0  0  0  0  0  0  0  0  0  0  0
   -4.4040   62.5980   76.3920 S   0  0  0  0  0  6  0  0  0  0  0  0
   -5.1590   61.4990   76.9660 O   0  0  0  0  0  0  0  0  0  0  0  0
   -5.0440   63.5630   75.5200 O   0  0  0  0  0  0  0  0  0  0  0  0
   -3.6390   63.4840   77.7260 C   0  0  0  0  0  0  0  0  0  0  0  0
    3.9440   61.1180   70.0570 C   0  0  0  0  0  0  0  0  0  0  0  0
    6.0130   60.4960   71.0140 O   0  0  0  0  0  1  0  0  0  0  0  0
    5.2590   61.4770   70.7470 C   0  0  0  0  0  0  0  0  0  0  0  0
    5.4180   62.7050   71.0110 O   0  0  0  0  0  0  0  0  0  0  0  0
    2.7439   58.8091   73.1541 H   0  0  0  0  0  0  0  0  0  0  0  0
    1.9804   58.2641   71.6222 H   0  0  0  0  0  0  0  0  0  0  0  0
    3.6815   58.8409   71.6222 H   0  0  0  0  0  0  0  0  0  0  0  0
    0.5738   59.2806   73.6025 H   0  0  0  0  0  0  0  0  0  0  0  0
    3.0256   63.8622   69.7193 H   0  0  0  0  0  0  0  0  0  0  0  0
   -0.5049   65.4141   71.6936 H   0  0  0  0  0  0  0  0  0  0  0  0
   -0.8287   63.2337   72.8915 H   0  0  0  0  0  0  0  0  0  0  0  0
    0.3823   61.7140   75.7009 H   0  0  0  0  0  0  0  0  0  0  0  0
   -1.5636   62.6528   76.9546 H   0  0  0  0  0  0  0  0  0  0  0  0
   -4.2615   61.0215   73.9808 H   0  0  0  0  0  0  0  0  0  0  0  0
   -2.3104   60.0930   72.7247 H   0  0  0  0  0  0  0  0  0  0  0  0
   -3.9904   63.0770   78.6856 H   0  0  0  0  0  0  0  0  0  0  0  0
   -2.5464   63.3751   77.6596 H   0  0  0  0  0  0  0  0  0  0  0  0
   -3.9060   64.5490   77.6596 H   0  0  0  0  0  0  0  0  0  0  0  0
    3.9936   60.0727   69.7179 H   0  0  0  0  0  0  0  0  0  0  0  0
    3.8054   61.8030   69.2075 H   0  0  0  0  0  0  0  0  0  0  0  0
  2  1  2  0
  3  2  1  0
  4  2  1  0
  5  4  2  0
  6  4  1  0
  7  6  2  0
  7  1  1  0
  8  7  1  0
  9  8  2  0
 10  9  1  0
 11  9  1  0
 12 11  2  0
 12  6  1  0
 13  5  1  0
 14 13  2  0
 15 14  1  0
 16 15  2  0
 17 16  1  0
 18 17  2  0
 18 13  1  0
 19 16  1  0
 20 19  2  0
 21 19  2  0
 22 19  1  0
 23  1  1  0
 25 24  1  0
 25 23  1  0
 26 25  2  0
  3 27  1  0
  3 28  1  0
  3 29  1  0
  5 30  1  0
  8 31  1  0
 11 32  1  0
 12 33  1  0
 14 34  1  0
 15 35  1  0
 17 36  1  0
 18 37  1  0
 22 38  1  0
 22 39  1  0
 22 40  1  0
 23 41  1  0
 23 42  1  0
M  CHG  1  24  -1
M  END
>  <score>  (3) 
-8.465

$$$$
=
     RDKit          3D

 42 44  0  0  0  0  0  0  0  0999 V2000
    5.5050   70.1430   67.3690 C   0  0  0  0  0  0  0  0  0  0  0  0
    4.5430   70.0800   68.3130 C   0  0  0  0  0  0  0  0  0  0  0  0
    4.6850   70.4180   69.7590 C   0  0  0  0  0  0  0  0  0  0  0  0
    3.2750   69.6500   67.7050 C   0  0  0  0  0  0  0  0  0  0  0  0
    2.1220   69.5200   68.3870 C   0  0  0  0  0  0  0  0  0  0  0  0
    3.5410   69.4270   66.2740 C   0  0  0  0  0  0  0  0  0  0  0  0
    4.9000   69.7490   66.0860 C   0  0  0  0  0  0  0  0  0  0  0  0
    5.4860   69.6710   64.8310 C   0  0  0  0  0  0  0  0  0  0  0  0
    4.6980   69.2450   63.7680 C   0  0  0  0  0  0  0  0  0  0  0  0
    5.2330   69.1470   62.5420 F   0  0  0  0  0  0  0  0  0  0  0  0
    3.3520   68.9040   63.9440 C   0  0  0  0  0  0  0  0  0  0  0  0
    2.7620   68.9960   65.2090 C   0  0  0  0  0  0  0  0  0  0  0  0
    0.8150   69.1420   67.8540 C   0  0  0  0  0  0  0  0  0  0  0  0
    0.4590   67.7900   67.7670 C   0  0  0  0  0  0  0  0  0  0  0  0
   -0.7960   67.4250   67.2800 C   0  0  0  0  0  0  0  0  0  0  0  0
   -1.6970   68.4200   66.8870 C   0  0  0  0  0  0  0  0  0  0  0  0
   -1.3440   69.7700   66.9480 C   0  0  0  0  0  0  0  0  0  0  0  0
   -0.0880   70.1290   67.4400 C   0  0  0  0  0  0  0  0  0  0  0  0
   -3.3040   67.9660   66.2850 S   0  0  0  0  0  6  0  0  0  0  0  0
   -4.2950   68.6330   67.1080 O   0  0  0  0  0  0  0  0  0  0  0  0
   -3.3240   66.5260   66.1190 O   0  0  0  0  0  0  0  0  0  0  0  0
   -3.3500   68.7070   64.6730 C   0  0  0  0  0  0  0  0  0  0  0  0
    6.9540   70.4870   67.5120 C   0  0  0  0  0  0  0  0  0  0  0  0
    8.0280   71.6680   69.2550 O   0  0  0  0  0  1  0  0  0  0  0  0
    7.1560   71.7540   68.3420 C   0  0  0  0  0  0  0  0  0  0  0  0
    6.3970   72.7240   68.0480 O   0  0  0  0  0  0  0  0  0  0  0  0
    4.3305   69.5743   70.3693 H   0  0  0  0  0  0  0  0  0  0  0  0
    5.7426   70.6166   69.9870 H   0  0  0  0  0  0  0  0  0  0  0  0
    4.0866   71.3124   69.9870 H   0  0  0  0  0  0  0  0  0  0  0  0
    2.1688   69.7210   69.4675 H   0  0  0  0  0  0  0  0  0  0  0  0
    6.5425   69.9382   64.6815 H   0  0  0  0  0  0  0  0  0  0  0  0
    2.7561   68.5625   63.0847 H   0  0  0  0  0  0  0  0  0  0  0  0
    1.7042   68.7326   65.3565 H   0  0  0  0  0  0  0  0  0  0  0  0
    1.1713   67.0139   68.0837 H   0  0  0  0  0  0  0  0  0  0  0  0
   -1.0748   66.3635   67.2056 H   0  0  0  0  0  0  0  0  0  0  0  0
   -2.0497   70.5437   66.6112 H   0  0  0  0  0  0  0  0  0  0  0  0
    0.1933   71.1906   67.5027 H   0  0  0  0  0  0  0  0  0  0  0  0
   -3.4179   69.8003   64.7738 H   0  0  0  0  0  0  0  0  0  0  0  0
   -2.4339   68.4457   64.1230 H   0  0  0  0  0  0  0  0  0  0  0  0
   -4.2267   68.3344   64.1230 H   0  0  0  0  0  0  0  0  0  0  0  0
    7.4715   69.6513   68.0058 H   0  0  0  0  0  0  0  0  0  0  0  0
    7.3640   70.6669   66.5072 H   0  0  0  0  0  0  0  0  0  0  0  0
  2  1  2  0
  3  2  1  0
  4  2  1  0
  5  4  2  0
  6  4  1  0
  7  6  2  0
  7  1  1  0
  8  7  1  0
  9  8  2  0
 10  9  1  0
 11  9  1  0
 12 11  2  0
 12  6  1  0
 13  5  1  0
 14 13  2  0
 15 14  1  0
 16 15  2  0
 17 16  1  0
 18 17  2  0
 18 13  1  0
 19 16  1  0
 20 19  2  0
 21 19  2  0
 22 19  1  0
 23  1  1  0
 25 24  1  0
 25 23  1  0
 26 25  2  0
  3 27  1  0
  3 28  1  0
  3 29  1  0
  5 30  1  0
  8 31  1  0
 11 32  1  0
 12 33  1  0
 14 34  1  0
 15 35  1  0
 17 36  1  0
 18 37  1  0
 22 38  1  0
 22 39  1  0
 22 40  1  0
 23 41  1  0
 23 42  1  0
M  CHG  1  24  -1
M  END
>  <score>  (4) 
-8.285

$$$$
=
     RDKit          3D

 42 44  0  0  0  0  0  0  0  0999 V2000
    1.1140   61.9700   72.2630 C   0  0  0  0  0  0  0  0  0  0  0  0
    0.0400   61.3490   72.7950 C   0  0  0  0  0  0  0  0  0  0  0  0
   -1.3460   61.8910   72.9020 C   0  0  0  0  0  0  0  0  0  0  0  0
    0.4160   60.0010   73.2470 C   0  0  0  0  0  0  0  0  0  0  0  0
   -0.4450   59.1260   73.7960 C   0  0  0  0  0  0  0  0  0  0  0  0
    1.8520   59.8400   72.9610 C   0  0  0  0  0  0  0  0  0  0  0  0
    2.2540   61.0430   72.3470 C   0  0  0  0  0  0  0  0  0  0  0  0
    3.5620   61.2250   71.9210 C   0  0  0  0  0  0  0  0  0  0  0  0
    4.4690   60.1950   72.1370 C   0  0  0  0  0  0  0  0  0  0  0  0
    5.7440   60.3400   71.7480 F   0  0  0  0  0  0  0  0  0  0  0  0
    4.0870   59.0030   72.7630 C   0  0  0  0  0  0  0  0  0  0  0  0
    2.7660   58.8180   73.1800 C   0  0  0  0  0  0  0  0  0  0  0  0
   -0.1650   57.7590   74.2310 C   0  0  0  0  0  0  0  0  0  0  0  0
    0.2650   57.5150   75.5410 C   0  0  0  0  0  0  0  0  0  0  0  0
    0.5140   56.2090   75.9670 C   0  0  0  0  0  0  0  0  0  0  0  0
    0.3210   55.1490   75.0760 C   0  0  0  0  0  0  0  0  0  0  0  0
   -0.0850   55.3820   73.7600 C   0  0  0  0  0  0  0  0  0  0  0  0
   -0.3350   56.6900   73.3420 C   0  0  0  0  0  0  0  0  0  0  0  0
    0.6150   53.4830   75.6140 S   0  0  0  0  0  6  0  0  0  0  0  0
    1.6140   53.5220   76.6670 O   0  0  0  0  0  0  0  0  0  0  0  0
    0.8120   52.6640   74.4340 O   0  0  0  0  0  0  0  0  0  0  0  0
   -0.9320   53.0220   76.3520 C   0  0  0  0  0  0  0  0  0  0  0  0
    1.2320   63.3560   71.7130 C   0  0  0  0  0  0  0  0  0  0  0  0
   -0.2220   63.7280   69.8870 O   0  0  0  0  0  1  0  0  0  0  0  0
    0.9560   63.3950   70.2110 C   0  0  0  0  0  0  0  0  0  0  0  0
    1.9220   63.0470   69.4710 O   0  0  0  0  0  0  0  0  0  0  0  0
   -1.6173   61.9971   73.9627 H   0  0  0  0  0  0  0  0  0  0  0  0
   -1.3941   62.8742   72.4111 H   0  0  0  0  0  0  0  0  0  0  0  0
   -2.0483   61.2013   72.4111 H   0  0  0  0  0  0  0  0  0  0  0  0
   -1.4776   59.4793   73.9333 H   0  0  0  0  0  0  0  0  0  0  0  0
    3.8717   62.1576   71.4267 H   0  0  0  0  0  0  0  0  0  0  0  0
    4.8296   58.2084   72.9275 H   0  0  0  0  0  0  0  0  0  0  0  0
    2.4572   57.8833   73.6709 H   0  0  0  0  0  0  0  0  0  0  0  0
    0.4071   58.3551   76.2368 H   0  0  0  0  0  0  0  0  0  0  0  0
    0.8587   56.0159   76.9936 H   0  0  0  0  0  0  0  0  0  0  0  0
   -0.2066   54.5425   73.0596 H   0  0  0  0  0  0  0  0  0  0  0  0
   -0.6667   56.8820   72.3109 H   0  0  0  0  0  0  0  0  0  0  0  0
   -0.8383   53.0499   77.4476 H   0  0  0  0  0  0  0  0  0  0  0  0
   -1.7147   53.7259   76.0329 H   0  0  0  0  0  0  0  0  0  0  0  0
   -1.2017   52.0045   76.0329 H   0  0  0  0  0  0  0  0  0  0  0  0
    0.5069   64.0054   72.2254 H   0  0  0  0  0  0  0  0  0  0  0  0
    2.2618   63.7042   71.8808 H   0  0  0  0  0  0  0  0  0  0  0  0
  2  1  2  0
  3  2  1  0
  4  2  1  0
  5  4  2  0
  6  4  1  0
  7  6  2  0
  7  1  1  0
  8  7  1  0
  9  8  2  0
 10  9  1  0
 11  9  1  0
 12 11  2  0
 12  6  1  0
 13  5  1  0
 14 13  2  0
 15 14  1  0
 16 15  2  0
 17 16  1  0
 18 17  2  0
 18 13  1  0
 19 16  1  0
 20 19  2  0
 21 19  2  0
 22 19  1  0
 23  1  1  0
 25 24  1  0
 25 23  1  0
 26 25  2  0
  3 27  1  0
  3 28  1  0
  3 29  1  0
  5 30  1  0
  8 31  1  0
 11 32  1  0
 12 33  1  0
 14 34  1  0
 15 35  1  0
 17 36  1  0
 18 37  1  0
 22 38  1  0
 22 39  1  0
 22 40  1  0
 23 41  1  0
 23 42  1  0
M  CHG  1  24  -1
M  END
>  <score>  (5) 
-7.964

$$$$
=
     RDKit          3D

 42 44  0  0  0  0  0  0  0  0999 V2000
    2.9820   61.2920   71.5450 C   0  0  0  0  0  0  0  0  0  0  0  0
    2.9890   59.9710   71.2700 C   0  0  0  0  0  0  0  0  0  0  0  0
    3.6830   59.2970   70.1340 C   0  0  0  0  0  0  0  0  0  0  0  0
    2.2220   59.2450   72.2930 C   0  0  0  0  0  0  0  0  0  0  0  0
    2.0710   57.9080   72.3090 C   0  0  0  0  0  0  0  0  0  0  0  0
    1.7100   60.2520   73.2380 C   0  0  0  0  0  0  0  0  0  0  0  0
    2.1970   61.4900   72.7740 C   0  0  0  0  0  0  0  0  0  0  0  0
    1.9180   62.6670   73.4530 C   0  0  0  0  0  0  0  0  0  0  0  0
    1.1250   62.5920   74.5920 C   0  0  0  0  0  0  0  0  0  0  0  0
    0.8260   63.7110   75.2680 F   0  0  0  0  0  0  0  0  0  0  0  0
    0.6190   61.3710   75.0520 C   0  0  0  0  0  0  0  0  0  0  0  0
    0.9120   60.1850   74.3720 C   0  0  0  0  0  0  0  0  0  0  0  0
    1.3650   57.1080   73.3070 C   0  0  0  0  0  0  0  0  0  0  0  0
    0.0170   56.7800   73.1160 C   0  0  0  0  0  0  0  0  0  0  0  0
   -0.6560   55.9980   74.0550 C   0  0  0  0  0  0  0  0  0  0  0  0
    0.0310   55.5380   75.1830 C   0  0  0  0  0  0  0  0  0  0  0  0
    1.3690   55.8770   75.3960 C   0  0  0  0  0  0  0  0  0  0  0  0
    2.0360   56.6580   74.4510 C   0  0  0  0  0  0  0  0  0  0  0  0
   -0.8110   54.5250   76.3740 S   0  0  0  0  0  6  0  0  0  0  0  0
   -0.8480   55.2500   77.6320 O   0  0  0  0  0  0  0  0  0  0  0  0
   -0.2450   53.1930   76.3020 O   0  0  0  0  0  0  0  0  0  0  0  0
   -2.4670   54.4550   75.7410 C   0  0  0  0  0  0  0  0  0  0  0  0
    3.5850   62.4240   70.7750 C   0  0  0  0  0  0  0  0  0  0  0  0
    1.5210   63.1630   69.8920 O   0  0  0  0  0  1  0  0  0  0  0  0
    2.7080   62.8380   69.5940 C   0  0  0  0  0  0  0  0  0  0  0  0
    3.2570   62.7640   68.4560 O   0  0  0  0  0  0  0  0  0  0  0  0
    4.4200   58.5813   70.5273 H   0  0  0  0  0  0  0  0  0  0  0  0
    2.9446   58.7621   69.5186 H   0  0  0  0  0  0  0  0  0  0  0  0
    4.1961   60.0507   69.5186 H   0  0  0  0  0  0  0  0  0  0  0  0
    2.5310   57.3550   71.4768 H   0  0  0  0  0  0  0  0  0  0  0  0
    2.3127   63.6313   73.1004 H   0  0  0  0  0  0  0  0  0  0  0  0
   -0.0121   61.3442   75.9526 H   0  0  0  0  0  0  0  0  0  0  0  0
    0.5192   59.2209   74.7274 H   0  0  0  0  0  0  0  0  0  0  0  0
   -0.5132   57.1404   72.2221 H   0  0  0  0  0  0  0  0  0  0  0  0
   -1.7167   55.7456   73.9096 H   0  0  0  0  0  0  0  0  0  0  0  0
    1.8921   55.5317   76.2999 H   0  0  0  0  0  0  0  0  0  0  0  0
    3.0929   56.9211   74.6053 H   0  0  0  0  0  0  0  0  0  0  0  0
   -3.1789   54.4249   76.5790 H   0  0  0  0  0  0  0  0  0  0  0  0
   -2.6623   55.3457   75.1258 H   0  0  0  0  0  0  0  0  0  0  0  0
   -2.5865   53.5510   75.1258 H   0  0  0  0  0  0  0  0  0  0  0  0
    3.7076   63.2863   71.4469 H   0  0  0  0  0  0  0  0  0  0  0  0
    4.5555   62.0898   70.3795 H   0  0  0  0  0  0  0  0  0  0  0  0
  2  1  2  0
  3  2  1  0
  4  2  1  0
  5  4  2  0
  6  4  1  0
  7  6  2  0
  7  1  1  0
  8  7  1  0
  9  8  2  0
 10  9  1  0
 11  9  1  0
 12 11  2  0
 12  6  1  0
 13  5  1  0
 14 13  2  0
 15 14  1  0
 16 15  2  0
 17 16  1  0
 18 17  2  0
 18 13  1  0
 19 16  1  0
 20 19  2  0
 21 19  2  0
 22 19  1  0
 23  1  1  0
 25 24  1  0
 25 23  1  0
 26 25  2  0
  3 27  1  0
  3 28  1  0
  3 29  1  0
  5 30  1  0
  8 31  1  0
 11 32  1  0
 12 33  1  0
 14 34  1  0
 15 35  1  0
 17 36  1  0
 18 37  1  0
 22 38  1  0
 22 39  1  0
 22 40  1  0
 23 41  1  0
 23 42  1  0
M  CHG  1  24  -1
M  END
>  <score>  (6) 
-7.774

$$$$
=
     RDKit          3D

 42 44  0  0  0  0  0  0  0  0999 V2000
    0.6220   68.6460   65.4510 C   0  0  0  0  0  0  0  0  0  0  0  0
    1.6330   68.1170   66.1720 C   0  0  0  0  0  0  0  0  0  0  0  0
    3.0940   68.2690   65.9080 C   0  0  0  0  0  0  0  0  0  0  0  0
    1.0930   67.3680   67.3150 C   0  0  0  0  0  0  0  0  0  0  0  0
    1.8560   66.7490   68.2350 C   0  0  0  0  0  0  0  0  0  0  0  0
   -0.3750   67.4610   67.2330 C   0  0  0  0  0  0  0  0  0  0  0  0
   -0.6410   68.2570   66.1010 C   0  0  0  0  0  0  0  0  0  0  0  0
   -1.9430   68.5700   65.7380 C   0  0  0  0  0  0  0  0  0  0  0  0
   -2.9780   68.0570   66.5110 C   0  0  0  0  0  0  0  0  0  0  0  0
   -4.2490   68.3290   66.1840 F   0  0  0  0  0  0  0  0  0  0  0  0
   -2.7270   67.2500   67.6260 C   0  0  0  0  0  0  0  0  0  0  0  0
   -1.4130   66.9460   67.9960 C   0  0  0  0  0  0  0  0  0  0  0  0
    1.4030   66.0230   69.4200 C   0  0  0  0  0  0  0  0  0  0  0  0
    1.9730   64.7860   69.7430 C   0  0  0  0  0  0  0  0  0  0  0  0
    1.5590   64.0990   70.8850 C   0  0  0  0  0  0  0  0  0  0  0  0
    0.5780   64.6620   71.7070 C   0  0  0  0  0  0  0  0  0  0  0  0
   -0.0140   65.8850   71.3820 C   0  0  0  0  0  0  0  0  0  0  0  0
    0.4060   66.5680   70.2390 C   0  0  0  0  0  0  0  0  0  0  0  0
    0.0590   63.8060   73.1730 S   0  0  0  0  0  6  0  0  0  0  0  0
   -0.7870   62.6980   72.7680 O   0  0  0  0  0  0  0  0  0  0  0  0
   -0.4170   64.7950   74.1200 O   0  0  0  0  0  0  0  0  0  0  0  0
    1.5750   63.1290   73.7980 C   0  0  0  0  0  0  0  0  0  0  0  0
    0.6730   69.4450   64.1880 C   0  0  0  0  0  0  0  0  0  0  0  0
    1.8860   68.4940   62.3970 O   0  0  0  0  0  1  0  0  0  0  0  0
    0.7500   68.5490   62.9530 C   0  0  0  0  0  0  0  0  0  0  0  0
   -0.3390   68.0070   62.6050 O   0  0  0  0  0  0  0  0  0  0  0  0
    3.6354   68.3253   66.8639 H   0  0  0  0  0  0  0  0  0  0  0  0
    3.4547   67.4035   65.3328 H   0  0  0  0  0  0  0  0  0  0  0  0
    3.2688   69.1902   65.3328 H   0  0  0  0  0  0  0  0  0  0  0  0
    2.9437   66.7947   68.0772 H   0  0  0  0  0  0  0  0  0  0  0  0
   -2.1501   69.2054   64.8643 H   0  0  0  0  0  0  0  0  0  0  0  0
   -3.5672   66.8527   68.2144 H   0  0  0  0  0  0  0  0  0  0  0  0
   -1.2072   66.3131   68.8718 H   0  0  0  0  0  0  0  0  0  0  0  0
    2.7496   64.3541   69.0947 H   0  0  0  0  0  0  0  0  0  0  0  0
    2.0005   63.1233   71.1362 H   0  0  0  0  0  0  0  0  0  0  0  0
   -0.8041   66.3061   72.0210 H   0  0  0  0  0  0  0  0  0  0  0  0
   -0.0472   67.5365   69.9810 H   0  0  0  0  0  0  0  0  0  0  0  0
    1.5547   63.1381   74.8978 H   0  0  0  0  0  0  0  0  0  0  0  0
    1.6889   62.0945   73.4419 H   0  0  0  0  0  0  0  0  0  0  0  0
    2.4214   63.7347   73.4419 H   0  0  0  0  0  0  0  0  0  0  0  0
   -0.2331   70.0652   64.1221 H   0  0  0  0  0  0  0  0  0  0  0  0
    1.5782   70.0694   64.2146 H   0  0  0  0  0  0  0  0  0  0  0  0
  2  1  2  0
  3  2  1  0
  4  2  1  0
  5  4  2  0
  6  4  1  0
  7  6  2  0
  7  1  1  0
  8  7  1  0
  9  8  2  0
 10  9  1  0
 11  9  1  0
 12 11  2  0
 12  6  1  0
 13  5  1  0
 14 13  2  0
 15 14  1  0
 16 15  2  0
 17 16  1  0
 18 17  2  0
 18 13  1  0
 19 16  1  0
 20 19  2  0
 21 19  2  0
 22 19  1  0
 23  1  1  0
 25 24  1  0
 25 23  1  0
 26 25  2  0
  3 27  1  0
  3 28  1  0
  3 29  1  0
  5 30  1  0
  8 31  1  0
 11 32  1  0
 12 33  1  0
 14 34  1  0
 15 35  1  0
 17 36  1  0
 18 37  1  0
 22 38  1  0
 22 39  1  0
 22 40  1  0
 23 41  1  0
 23 42  1  0
M  CHG  1  24  -1
M  END
>  <score>  (7) 
-7.749

$$$$
=
     RDKit          3D

 42 44  0  0  0  0  0  0  0  0999 V2000
    0.0200   56.7520   75.0880 C   0  0  0  0  0  0  0  0  0  0  0  0
    1.2880   56.7460   74.6250 C   0  0  0  0  0  0  0  0  0  0  0  0
    2.3040   55.6690   74.8150 C   0  0  0  0  0  0  0  0  0  0  0  0
    1.5430   57.9700   73.8520 C   0  0  0  0  0  0  0  0  0  0  0  0
    2.7100   58.2400   73.2390 C   0  0  0  0  0  0  0  0  0  0  0  0
    0.3040   58.7650   73.8890 C   0  0  0  0  0  0  0  0  0  0  0  0
   -0.6160   57.9990   74.6320 C   0  0  0  0  0  0  0  0  0  0  0  0
   -1.9120   58.4480   74.8450 C   0  0  0  0  0  0  0  0  0  0  0  0
   -2.2680   59.6860   74.3230 C   0  0  0  0  0  0  0  0  0  0  0  0
   -3.5090   60.1570   74.5180 F   0  0  0  0  0  0  0  0  0  0  0  0
   -1.3580   60.4650   73.6000 C   0  0  0  0  0  0  0  0  0  0  0  0
   -0.0570   60.0040   73.3770 C   0  0  0  0  0  0  0  0  0  0  0  0
    3.0310   59.4070   72.4190 C   0  0  0  0  0  0  0  0  0  0  0  0
    2.9700   59.3200   71.0230 C   0  0  0  0  0  0  0  0  0  0  0  0
    3.2540   60.4360   70.2360 C   0  0  0  0  0  0  0  0  0  0  0  0
    3.5920   61.6440   70.8550 C   0  0  0  0  0  0  0  0  0  0  0  0
    3.6780   61.7370   72.2460 C   0  0  0  0  0  0  0  0  0  0  0  0
    3.3900   60.6160   73.0270 C   0  0  0  0  0  0  0  0  0  0  0  0
    3.9350   63.0760   69.8640 S   0  0  0  0  0  6  0  0  0  0  0  0
    3.7290   62.7160   68.4720 O   0  0  0  0  0  0  0  0  0  0  0  0
    5.2000   63.6290   70.3070 O   0  0  0  0  0  0  0  0  0  0  0  0
    2.6470   64.2030   70.3290 C   0  0  0  0  0  0  0  0  0  0  0  0
   -0.6810   55.7510   75.9510 C   0  0  0  0  0  0  0  0  0  0  0  0
   -2.7160   54.8630   75.1400 O   0  0  0  0  0  1  0  0  0  0  0  0
   -1.4570   54.7300   75.1190 C   0  0  0  0  0  0  0  0  0  0  0  0
   -0.7540   53.8470   74.5460 O   0  0  0  0  0  0  0  0  0  0  0  0
    2.4630   55.5005   75.8903 H   0  0  0  0  0  0  0  0  0  0  0  0
    1.9455   54.7401   74.3473 H   0  0  0  0  0  0  0  0  0  0  0  0
    3.2522   55.9728   74.3473 H   0  0  0  0  0  0  0  0  0  0  0  0
    3.5128   57.4994   73.3695 H   0  0  0  0  0  0  0  0  0  0  0  0
   -2.6357   57.8422   75.4100 H   0  0  0  0  0  0  0  0  0  0  0  0
   -1.6674   61.4441   73.2054 H   0  0  0  0  0  0  0  0  0  0  0  0
    0.6644   60.6094   72.8086 H   0  0  0  0  0  0  0  0  0  0  0  0
    2.6970   58.3677   70.5449 H   0  0  0  0  0  0  0  0  0  0  0  0
    3.2126   60.3668   69.1390 H   0  0  0  0  0  0  0  0  0  0  0  0
    3.9700   62.6848   72.7219 H   0  0  0  0  0  0  0  0  0  0  0  0
    3.4453   60.6829   74.1236 H   0  0  0  0  0  0  0  0  0  0  0  0
    2.5854   64.2569   71.4259 H   0  0  0  0  0  0  0  0  0  0  0  0
    2.8698   65.2015   69.9247 H   0  0  0  0  0  0  0  0  0  0  0  0
    1.6870   63.8496   69.9247 H   0  0  0  0  0  0  0  0  0  0  0  0
    0.0659   55.2205   76.5599 H   0  0  0  0  0  0  0  0  0  0  0  0
   -1.3983   56.2902   76.5872 H   0  0  0  0  0  0  0  0  0  0  0  0
  2  1  2  0
  3  2  1  0
  4  2  1  0
  5  4  2  0
  6  4  1  0
  7  6  2  0
  7  1  1  0
  8  7  1  0
  9  8  2  0
 10  9  1  0
 11  9  1  0
 12 11  2  0
 12  6  1  0
 13  5  1  0
 14 13  2  0
 15 14  1  0
 16 15  2  0
 17 16  1  0
 18 17  2  0
 18 13  1  0
 19 16  1  0
 20 19  2  0
 21 19  2  0
 22 19  1  0
 23  1  1  0
 25 24  1  0
 25 23  1  0
 26 25  2  0
  3 27  1  0
  3 28  1  0
  3 29  1  0
  5 30  1  0
  8 31  1  0
 11 32  1  0
 12 33  1  0
 14 34  1  0
 15 35  1  0
 17 36  1  0
 18 37  1  0
 22 38  1  0
 22 39  1  0
 22 40  1  0
 23 41  1  0
 23 42  1  0
M  CHG  1  24  -1
M  END
>  <score>  (8) 
-7.743

$$$$
