=
     RDKit          3D

 23 23  0  0  0  0  0  0  0  0999 V2000
    4.4940   70.1520   67.6700 C   0  0  0  0  0  0  0  0  0  0  0  0
    4.6940   69.8020   66.3290 C   0  0  0  0  0  0  0  0  0  0  0  0
    3.6600   69.2360   65.5660 C   0  0  0  0  0  0  0  0  0  0  0  0
    2.4220   68.9960   66.1710 C   0  0  0  0  0  0  0  0  0  0  0  0
    2.2070   69.3370   67.5080 C   0  0  0  0  0  0  0  0  0  0  0  0
    3.2400   69.9120   68.2460 C   0  0  0  0  0  0  0  0  0  0  0  0
    6.7880   70.6720   68.0380 C   0  0  0  0  0  0  0  0  0  0  0  0
    5.4410   70.7160   68.4860 O   0  0  0  0  0  0  0  0  0  0  0  0
    3.9350   68.8610   64.1720 C   0  0  0  0  0  0  0  0  0  0  0  0
    2.9980   68.6520   63.2340 C   0  0  0  0  0  0  0  0  0  0  0  0
    3.3490   68.2710   61.7950 C   0  0  0  0  0  0  0  0  0  0  0  0
    3.9760   67.1780   61.6980 O   0  0  0  0  0  0  0  0  0  0  0  0
    2.9820   69.0750   60.8940 O   0  0  0  0  0  1  0  0  0  0  0  0
    3.0270   70.2460   69.5590 O   0  0  0  0  0  0  0  0  0  0  0  0
    5.6769   69.9732   65.8658 H   0  0  0  0  0  0  0  0  0  0  0  0
    1.6108   68.5347   65.5887 H   0  0  0  0  0  0  0  0  0  0  0  0
    1.2285   69.1529   67.9757 H   0  0  0  0  0  0  0  0  0  0  0  0
    7.4627   70.6500   68.9065 H   0  0  0  0  0  0  0  0  0  0  0  0
    6.9430   69.7683   67.4303 H   0  0  0  0  0  0  0  0  0  0  0  0
    7.0016   71.5636   67.4303 H   0  0  0  0  0  0  0  0  0  0  0  0
    4.9875   68.7427   63.8750 H   0  0  0  0  0  0  0  0  0  0  0  0
    1.9387   68.7587   63.5104 H   0  0  0  0  0  0  0  0  0  0  0  0
    3.7555   70.6548   70.0902 H   0  0  0  0  0  0  0  0  0  0  0  0
  2  1  2  0
  3  2  1  0
  4  3  2  0
  5  4  1  0
  6  5  2  0
  6  1  1  0
  8  1  1  0
  8  7  1  0
  9  3  1  0
 10  9  2  0
 11 10  1  0
 12 11  2  0
 13 11  1  0
 14  6  1  0
  2 15  1  0
  4 16  1  0
  5 17  1  0
  7 18  1  0
  7 19  1  0
  7 20  1  0
  9 21  1  0
 10 22  1  0
 14 23  1  0
M  CHG  1  13  -1
M  END
>  <score>  (1) 
-7.93

$$$$
=
     RDKit          3D

 23 23  0  0  0  0  0  0  0  0999 V2000
    2.2870   69.2830   67.4320 C   0  0  0  0  0  0  0  0  0  0  0  0
    2.5510   68.9610   66.0950 C   0  0  0  0  0  0  0  0  0  0  0  0
    3.8110   69.2050   65.5270 C   0  0  0  0  0  0  0  0  0  0  0  0
    4.8060   69.8040   66.3090 C   0  0  0  0  0  0  0  0  0  0  0  0
    4.5580   70.1330   67.6420 C   0  0  0  0  0  0  0  0  0  0  0  0
    3.3050   69.8700   68.1950 C   0  0  0  0  0  0  0  0  0  0  0  0
   -0.0290   68.7610   67.2580 C   0  0  0  0  0  0  0  0  0  0  0  0
    1.0920   69.0730   68.0720 O   0  0  0  0  0  0  0  0  0  0  0  0
    4.0240   68.8750   64.1110 C   0  0  0  0  0  0  0  0  0  0  0  0
    3.0470   68.6390   63.2220 C   0  0  0  0  0  0  0  0  0  0  0  0
    3.3340   68.3080   61.7560 C   0  0  0  0  0  0  0  0  0  0  0  0
    3.9750   67.2310   61.5960 O   0  0  0  0  0  0  0  0  0  0  0  0
    2.9070   69.1300   60.8990 O   0  0  0  0  0  1  0  0  0  0  0  0
    3.0630   70.1940   69.5050 O   0  0  0  0  0  0  0  0  0  0  0  0
    1.7583   68.5097   65.4802 H   0  0  0  0  0  0  0  0  0  0  0  0
    5.7913   70.0170   65.8688 H   0  0  0  0  0  0  0  0  0  0  0  0
    5.3461   70.5971   68.2532 H   0  0  0  0  0  0  0  0  0  0  0  0
   -0.8912   68.5210   67.8976 H   0  0  0  0  0  0  0  0  0  0  0  0
   -0.2729   69.6254   66.6229 H   0  0  0  0  0  0  0  0  0  0  0  0
    0.2087   67.8949   66.6229 H   0  0  0  0  0  0  0  0  0  0  0  0
    5.0625   68.8171   63.7529 H   0  0  0  0  0  0  0  0  0  0  0  0
    2.0011   68.6852   63.5596 H   0  0  0  0  0  0  0  0  0  0  0  0
    2.1760   70.0104   69.9046 H   0  0  0  0  0  0  0  0  0  0  0  0
  2  1  2  0
  3  2  1  0
  4  3  2  0
  5  4  1  0
  6  5  2  0
  6  1  1  0
  8  1  1  0
  8  7  1  0
  9  3  1  0
 10  9  2  0
 11 10  1  0
 12 11  2  0
 13 11  1  0
 14  6  1  0
  2 15  1  0
  4 16  1  0
  5 17  1  0
  7 18  1  0
  7 19  1  0
  7 20  1  0
  9 21  1  0
 10 22  1  0
 14 23  1  0
M  CHG  1  13  -1
M  END
>  <score>  (2) 
-7.847

$$$$
=
     RDKit          3D

 23 23  0  0  0  0  0  0  0  0999 V2000
    3.0000   68.5790   63.5060 C   0  0  0  0  0  0  0  0  0  0  0  0
    3.2820   68.9760   64.8180 C   0  0  0  0  0  0  0  0  0  0  0  0
    4.5460   69.4790   65.1670 C   0  0  0  0  0  0  0  0  0  0  0  0
    5.5410   69.5570   64.1860 C   0  0  0  0  0  0  0  0  0  0  0  0
    5.2760   69.1630   62.8730 C   0  0  0  0  0  0  0  0  0  0  0  0
    4.0110   68.6800   62.5410 C   0  0  0  0  0  0  0  0  0  0  0  0
    0.7000   68.9890   63.0460 C   0  0  0  0  0  0  0  0  0  0  0  0
    1.7950   68.0850   63.0740 O   0  0  0  0  0  0  0  0  0  0  0  0
    4.7960   69.8530   66.5660 C   0  0  0  0  0  0  0  0  0  0  0  0
    5.8510   70.5630   66.9940 C   0  0  0  0  0  0  0  0  0  0  0  0
    6.0510   70.9280   68.4660 C   0  0  0  0  0  0  0  0  0  0  0  0
    5.1190   70.5250   69.2190 O   0  0  0  0  0  0  0  0  0  0  0  0
    7.0980   71.5730   68.7500 O   0  0  0  0  0  1  0  0  0  0  0  0
    3.7520   68.2930   61.2510 O   0  0  0  0  0  0  0  0  0  0  0  0
    2.5011   68.8928   65.5883 H   0  0  0  0  0  0  0  0  0  0  0  0
    6.5404   69.9319   64.4516 H   0  0  0  0  0  0  0  0  0  0  0  0
    6.0605   69.2332   62.1052 H   0  0  0  0  0  0  0  0  0  0  0  0
    0.4015   69.2354   64.0757 H   0  0  0  0  0  0  0  0  0  0  0  0
    0.9970   69.9085   62.5203 H   0  0  0  0  0  0  0  0  0  0  0  0
   -0.1466   68.5233   62.5203 H   0  0  0  0  0  0  0  0  0  0  0  0
    4.0633   69.5264   67.3187 H   0  0  0  0  0  0  0  0  0  0  0  0
    6.5996   70.8948   66.2594 H   0  0  0  0  0  0  0  0  0  0  0  0
    2.8561   67.9490   61.0078 H   0  0  0  0  0  0  0  0  0  0  0  0
  2  1  2  0
  3  2  1  0
  4  3  2  0
  5  4  1  0
  6  5  2  0
  6  1  1  0
  8  1  1  0
  8  7  1  0
  9  3  1  0
 10  9  2  0
 11 10  1  0
 12 11  2  0
 13 11  1  0
 14  6  1  0
  2 15  1  0
  4 16  1  0
  5 17  1  0
  7 18  1  0
  7 19  1  0
  7 20  1  0
  9 21  1  0
 10 22  1  0
 14 23  1  0
M  CHG  1  13  -1
M  END
>  <score>  (3) 
-7.504

$$$$
=
     RDKit          3D

 23 23  0  0  0  0  0  0  0  0999 V2000
    4.7740   70.0540   67.3420 C   0  0  0  0  0  0  0  0  0  0  0  0
    3.4890   69.5400   67.1280 C   0  0  0  0  0  0  0  0  0  0  0  0
    3.1010   69.0620   65.8660 C   0  0  0  0  0  0  0  0  0  0  0  0
    4.0110   69.1280   64.8050 C   0  0  0  0  0  0  0  0  0  0  0  0
    5.2950   69.6400   65.0010 C   0  0  0  0  0  0  0  0  0  0  0  0
    5.6680   70.0960   66.2640 C   0  0  0  0  0  0  0  0  0  0  0  0
    4.2760   70.8100   69.5430 C   0  0  0  0  0  0  0  0  0  0  0  0
    5.2410   70.5340   68.5390 O   0  0  0  0  0  0  0  0  0  0  0  0
    1.7310   68.5600   65.6910 C   0  0  0  0  0  0  0  0  0  0  0  0
    0.7820   68.5700   66.6390 C   0  0  0  0  0  0  0  0  0  0  0  0
   -0.6310   68.0400   66.3910 C   0  0  0  0  0  0  0  0  0  0  0  0
   -0.7440   66.7940   66.5700 O   0  0  0  0  0  0  0  0  0  0  0  0
   -1.4980   68.8880   66.0430 O   0  0  0  0  0  1  0  0  0  0  0  0
    6.9290   70.5990   66.4550 O   0  0  0  0  0  0  0  0  0  0  0  0
    2.7722   69.5103   67.9618 H   0  0  0  0  0  0  0  0  0  0  0  0
    3.7120   68.7733   63.8076 H   0  0  0  0  0  0  0  0  0  0  0  0
    6.0075   69.6832   64.1641 H   0  0  0  0  0  0  0  0  0  0  0  0
    4.7319   70.6796   70.5355 H   0  0  0  0  0  0  0  0  0  0  0  0
    3.9211   71.8456   69.4357 H   0  0  0  0  0  0  0  0  0  0  0  0
    3.4272   70.1186   69.4357 H   0  0  0  0  0  0  0  0  0  0  0  0
    1.4635   68.1446   64.7082 H   0  0  0  0  0  0  0  0  0  0  0  0
    1.0293   68.9744   67.6316 H   0  0  0  0  0  0  0  0  0  0  0  0
    7.2017   70.9249   67.3491 H   0  0  0  0  0  0  0  0  0  0  0  0
  2  1  2  0
  3  2  1  0
  4  3  2  0
  5  4  1  0
  6  5  2  0
  6  1  1  0
  8  1  1  0
  8  7  1  0
  9  3  1  0
 10  9  2  0
 11 10  1  0
 12 11  2  0
 13 11  1  0
 14  6  1  0
  2 15  1  0
  4 16  1  0
  5 17  1  0
  7 18  1  0
  7 19  1  0
  7 20  1  0
  9 21  1  0
 10 22  1  0
 14 23  1  0
M  CHG  1  13  -1
M  END
>  <score>  (4) 
-7.392

$$$$
=
     RDKit          3D

 23 23  0  0  0  0  0  0  0  0999 V2000
    3.2680   67.3940   64.5630 C   0  0  0  0  0  0  0  0  0  0  0  0
    4.1720   68.3460   65.0500 C   0  0  0  0  0  0  0  0  0  0  0  0
    3.8730   69.1120   66.1880 C   0  0  0  0  0  0  0  0  0  0  0  0
    2.6390   68.9330   66.8230 C   0  0  0  0  0  0  0  0  0  0  0  0
    1.7270   67.9900   66.3490 C   0  0  0  0  0  0  0  0  0  0  0  0
    2.0460   67.2260   65.2270 C   0  0  0  0  0  0  0  0  0  0  0  0
    4.5110   66.9880   62.5740 C   0  0  0  0  0  0  0  0  0  0  0  0
    3.4790   66.5960   63.4660 O   0  0  0  0  0  0  0  0  0  0  0  0
    4.8450   70.1180   66.6380 C   0  0  0  0  0  0  0  0  0  0  0  0
    5.2480   70.2830   67.9070 C   0  0  0  0  0  0  0  0  0  0  0  0
    6.2720   71.3460   68.3100 C   0  0  0  0  0  0  0  0  0  0  0  0
    5.9410   72.5200   67.9820 O   0  0  0  0  0  0  0  0  0  0  0  0
    7.3040   70.9340   68.9100 O   0  0  0  0  0  1  0  0  0  0  0  0
    1.1480   66.3010   64.7610 O   0  0  0  0  0  0  0  0  0  0  0  0
    5.1313   68.4960   64.5330 H   0  0  0  0  0  0  0  0  0  0  0  0
    2.3859   69.5414   67.7038 H   0  0  0  0  0  0  0  0  0  0  0  0
    0.7617   67.8498   66.8574 H   0  0  0  0  0  0  0  0  0  0  0  0
    5.3869   67.3207   63.1502 H   0  0  0  0  0  0  0  0  0  0  0  0
    4.7919   66.1339   61.9402 H   0  0  0  0  0  0  0  0  0  0  0  0
    4.1540   67.8132   61.9402 H   0  0  0  0  0  0  0  0  0  0  0  0
    5.2746   70.7861   65.8771 H   0  0  0  0  0  0  0  0  0  0  0  0
    4.8269   69.6304   68.6860 H   0  0  0  0  0  0  0  0  0  0  0  0
    1.3678   65.7551   63.9649 H   0  0  0  0  0  0  0  0  0  0  0  0
  2  1  2  0
  3  2  1  0
  4  3  2  0
  5  4  1  0
  6  5  2  0
  6  1  1  0
  8  1  1  0
  8  7  1  0
  9  3  1  0
 10  9  2  0
 11 10  1  0
 12 11  2  0
 13 11  1  0
 14  6  1  0
  2 15  1  0
  4 16  1  0
  5 17  1  0
  7 18  1  0
  7 19  1  0
  7 20  1  0
  9 21  1  0
 10 22  1  0
 14 23  1  0
M  CHG  1  13  -1
M  END
>  <score>  (5) 
-7.331

$$$$
=
     RDKit          3D

 23 23  0  0  0  0  0  0  0  0999 V2000
    4.7960   69.5260   65.5970 C   0  0  0  0  0  0  0  0  0  0  0  0
    3.4510   69.1560   65.7160 C   0  0  0  0  0  0  0  0  0  0  0  0
    2.7530   69.3410   66.9200 C   0  0  0  0  0  0  0  0  0  0  0  0
    3.4280   69.8810   68.0210 C   0  0  0  0  0  0  0  0  0  0  0  0
    4.7690   70.2530   67.9190 C   0  0  0  0  0  0  0  0  0  0  0  0
    5.4430   70.0760   66.7110 C   0  0  0  0  0  0  0  0  0  0  0  0
    4.8530   69.2090   63.2380 C   0  0  0  0  0  0  0  0  0  0  0  0
    5.5520   69.3900   64.4600 O   0  0  0  0  0  0  0  0  0  0  0  0
    1.3510   68.9080   66.9990 C   0  0  0  0  0  0  0  0  0  0  0  0
    0.9460   67.6320   67.0930 C   0  0  0  0  0  0  0  0  0  0  0  0
   -0.5320   67.2460   67.1800 C   0  0  0  0  0  0  0  0  0  0  0  0
   -0.8100   66.5260   68.1800 O   0  0  0  0  0  0  0  0  0  0  0  0
   -1.2830   67.6810   66.2640 O   0  0  0  0  0  1  0  0  0  0  0  0
    6.7600   70.4420   66.6120 O   0  0  0  0  0  0  0  0  0  0  0  0
    2.9329   68.7133   64.8525 H   0  0  0  0  0  0  0  0  0  0  0  0
    2.8966   70.0133   68.9750 H   0  0  0  0  0  0  0  0  0  0  0  0
    5.2914   70.6833   68.7862 H   0  0  0  0  0  0  0  0  0  0  0  0
    3.8081   68.9384   63.4499 H   0  0  0  0  0  0  0  0  0  0  0  0
    4.8795   70.1436   62.6585 H   0  0  0  0  0  0  0  0  0  0  0  0
    5.3298   68.4047   62.6585 H   0  0  0  0  0  0  0  0  0  0  0  0
    0.5756   69.6880   66.9796 H   0  0  0  0  0  0  0  0  0  0  0  0
    1.7039   66.8349   67.1080 H   0  0  0  0  0  0  0  0  0  0  0  0
    7.2450   70.3193   65.7577 H   0  0  0  0  0  0  0  0  0  0  0  0
  2  1  2  0
  3  2  1  0
  4  3  2  0
  5  4  1  0
  6  5  2  0
  6  1  1  0
  8  1  1  0
  8  7  1  0
  9  3  1  0
 10  9  2  0
 11 10  1  0
 12 11  2  0
 13 11  1  0
 14  6  1  0
  2 15  1  0
  4 16  1  0
  5 17  1  0
  7 18  1  0
  7 19  1  0
  7 20  1  0
  9 21  1  0
 10 22  1  0
 14 23  1  0
M  CHG  1  13  -1
M  END
>  <score>  (6) 
-7.326

$$$$
=
     RDKit          3D

 23 23  0  0  0  0  0  0  0  0999 V2000
    3.7800   68.5720   63.8610 C   0  0  0  0  0  0  0  0  0  0  0  0
    2.6450   68.3900   64.6590 C   0  0  0  0  0  0  0  0  0  0  0  0
    2.6090   68.8540   65.9840 C   0  0  0  0  0  0  0  0  0  0  0  0
    3.7400   69.4860   66.5140 C   0  0  0  0  0  0  0  0  0  0  0  0
    4.8800   69.6730   65.7320 C   0  0  0  0  0  0  0  0  0  0  0  0
    4.8940   69.2190   64.4130 C   0  0  0  0  0  0  0  0  0  0  0  0
    2.9910   68.7130   61.6190 C   0  0  0  0  0  0  0  0  0  0  0  0
    3.9020   68.1600   62.5580 O   0  0  0  0  0  0  0  0  0  0  0  0
    1.4020   68.6100   66.7860 C   0  0  0  0  0  0  0  0  0  0  0  0
    0.5440   67.5960   66.5930 C   0  0  0  0  0  0  0  0  0  0  0  0
   -0.6920   67.3910   67.4700 C   0  0  0  0  0  0  0  0  0  0  0  0
   -0.5560   66.4780   68.3330 O   0  0  0  0  0  0  0  0  0  0  0  0
   -1.6810   68.1400   67.2350 O   0  0  0  0  0  1  0  0  0  0  0  0
    6.0150   69.4040   63.6460 O   0  0  0  0  0  0  0  0  0  0  0  0
    1.7669   67.8753   64.2418 H   0  0  0  0  0  0  0  0  0  0  0  0
    3.7298   69.8382   67.5560 H   0  0  0  0  0  0  0  0  0  0  0  0
    5.7631   70.1757   66.1532 H   0  0  0  0  0  0  0  0  0  0  0  0
    2.1697   69.2115   62.1547 H   0  0  0  0  0  0  0  0  0  0  0  0
    3.5149   69.4456   60.9875 H   0  0  0  0  0  0  0  0  0  0  0  0
    2.5828   67.9101   60.9875 H   0  0  0  0  0  0  0  0  0  0  0  0
    1.1855   69.3108   67.6058 H   0  0  0  0  0  0  0  0  0  0  0  0
    0.7368   66.8869   65.7745 H   0  0  0  0  0  0  0  0  0  0  0  0
    6.0321   69.0844   62.7092 H   0  0  0  0  0  0  0  0  0  0  0  0
  2  1  2  0
  3  2  1  0
  4  3  2  0
  5  4  1  0
  6  5  2  0
  6  1  1  0
  8  1  1  0
  8  7  1  0
  9  3  1  0
 10  9  2  0
 11 10  1  0
 12 11  2  0
 13 11  1  0
 14  6  1  0
  2 15  1  0
  4 16  1  0
  5 17  1  0
  7 18  1  0
  7 19  1  0
  7 20  1  0
  9 21  1  0
 10 22  1  0
 14 23  1  0
M  CHG  1  13  -1
M  END
>  <score>  (7) 
-6.984

$$$$
=
     RDKit          3D

 23 23  0  0  0  0  0  0  0  0999 V2000
    4.2840   69.7290   66.2820 C   0  0  0  0  0  0  0  0  0  0  0  0
    3.0990   69.0560   66.6040 C   0  0  0  0  0  0  0  0  0  0  0  0
    2.5430   68.1100   65.7280 C   0  0  0  0  0  0  0  0  0  0  0  0
    3.1760   67.8620   64.5040 C   0  0  0  0  0  0  0  0  0  0  0  0
    4.3560   68.5260   64.1680 C   0  0  0  0  0  0  0  0  0  0  0  0
    4.9030   69.4510   65.0560 C   0  0  0  0  0  0  0  0  0  0  0  0
    6.1060   70.2630   67.7180 C   0  0  0  0  0  0  0  0  0  0  0  0
    4.9020   70.6600   67.0780 O   0  0  0  0  0  0  0  0  0  0  0  0
    1.2820   67.4550   66.1020 C   0  0  0  0  0  0  0  0  0  0  0  0
    0.5520   67.7570   67.1870 C   0  0  0  0  0  0  0  0  0  0  0  0
   -0.7590   67.0420   67.5180 C   0  0  0  0  0  0  0  0  0  0  0  0
   -0.7170   66.3760   68.5910 O   0  0  0  0  0  0  0  0  0  0  0  0
   -1.7070   67.1970   66.6990 O   0  0  0  0  0  1  0  0  0  0  0  0
    6.0620   70.1030   64.7240 O   0  0  0  0  0  0  0  0  0  0  0  0
    2.5959   69.2718   67.5581 H   0  0  0  0  0  0  0  0  0  0  0  0
    2.7391   67.1373   63.8012 H   0  0  0  0  0  0  0  0  0  0  0  0
    4.8520   68.3208   63.2078 H   0  0  0  0  0  0  0  0  0  0  0  0
    5.9730   70.3069   68.8090 H   0  0  0  0  0  0  0  0  0  0  0  0
    6.3575   69.2343   67.4203 H   0  0  0  0  0  0  0  0  0  0  0  0
    6.9200   70.9403   67.4203 H   0  0  0  0  0  0  0  0  0  0  0  0
    0.9082   66.6573   65.4433 H   0  0  0  0  0  0  0  0  0  0  0  0
    0.9096   68.5477   67.8630 H   0  0  0  0  0  0  0  0  0  0  0  0
    6.4563   70.7612   65.3496 H   0  0  0  0  0  0  0  0  0  0  0  0
  2  1  2  0
  3  2  1  0
  4  3  2  0
  5  4  1  0
  6  5  2  0
  6  1  1  0
  8  1  1  0
  8  7  1  0
  9  3  1  0
 10  9  2  0
 11 10  1  0
 12 11  2  0
 13 11  1  0
 14  6  1  0
  2 15  1  0
  4 16  1  0
  5 17  1  0
  7 18  1  0
  7 19  1  0
  7 20  1  0
  9 21  1  0
 10 22  1  0
 14 23  1  0
M  CHG  1  13  -1
M  END
>  <score>  (8) 
-6.416

$$$$
=
     RDKit          3D

 23 23  0  0  0  0  0  0  0  0999 V2000
    2.7540   60.0690   71.2790 C   0  0  0  0  0  0  0  0  0  0  0  0
    2.2900   61.3720   71.4970 C   0  0  0  0  0  0  0  0  0  0  0  0
    2.5010   62.3840   70.5460 C   0  0  0  0  0  0  0  0  0  0  0  0
    3.2100   62.0820   69.3780 C   0  0  0  0  0  0  0  0  0  0  0  0
    3.6800   60.7890   69.1470 C   0  0  0  0  0  0  0  0  0  0  0  0
    3.4490   59.7920   70.0940 C   0  0  0  0  0  0  0  0  0  0  0  0
    3.4220   58.9890   73.2930 C   0  0  0  0  0  0  0  0  0  0  0  0
    2.5870   59.0180   72.1450 O   0  0  0  0  0  0  0  0  0  0  0  0
    2.0190   63.7400   70.8400 C   0  0  0  0  0  0  0  0  0  0  0  0
    0.7390   64.1350   70.7610 C   0  0  0  0  0  0  0  0  0  0  0  0
    0.2990   65.5630   71.0890 C   0  0  0  0  0  0  0  0  0  0  0  0
   -0.3140   65.6650   72.1890 O   0  0  0  0  0  0  0  0  0  0  0  0
    0.5940   66.4510   70.2420 O   0  0  0  0  0  1  0  0  0  0  0  0
    3.9120   58.5220   69.8660 O   0  0  0  0  0  0  0  0  0  0  0  0
    1.7520   61.6067   72.4273 H   0  0  0  0  0  0  0  0  0  0  0  0
    3.3984   62.8712   68.6353 H   0  0  0  0  0  0  0  0  0  0  0  0
    4.2298   60.5573   68.2229 H   0  0  0  0  0  0  0  0  0  0  0  0
    2.7996   59.0106   74.1997 H   0  0  0  0  0  0  0  0  0  0  0  0
    4.0255   58.0694   73.2843 H   0  0  0  0  0  0  0  0  0  0  0  0
    4.0878   59.8646   73.2843 H   0  0  0  0  0  0  0  0  0  0  0  0
    2.7638   64.4885   71.1483 H   0  0  0  0  0  0  0  0  0  0  0  0
   -0.0222   63.4049   70.4488 H   0  0  0  0  0  0  0  0  0  0  0  0
    3.7516   57.8093   70.5341 H   0  0  0  0  0  0  0  0  0  0  0  0
  2  1  2  0
  3  2  1  0
  4  3  2  0
  5  4  1  0
  6  5  2  0
  6  1  1  0
  8  1  1  0
  8  7  1  0
  9  3  1  0
 10  9  2  0
 11 10  1  0
 12 11  2  0
 13 11  1  0
 14  6  1  0
  2 15  1  0
  4 16  1  0
  5 17  1  0
  7 18  1  0
  7 19  1  0
  7 20  1  0
  9 21  1  0
 10 22  1  0
 14 23  1  0
M  CHG  1  13  -1
M  END
>  <score>  (9) 
-6.202

$$$$
