=
     RDKit          3D

 78 82  0  0  0  0  0  0  0  0999 V2000
    0.7540   67.0900   68.6710 N   0  0  0  0  0  0  0  0  0  0  0  0
    0.7850   67.2200   67.2990 C   0  0  0  0  0  0  0  0  0  0  0  0
   -0.1280   66.8220   66.5760 O   0  0  0  0  0  0  0  0  0  0  0  0
   -0.3330   66.4270   69.3660 C   0  0  0  0  0  0  0  0  0  0  0  0
    0.1070   65.8690   70.7120 C   0  0  0  0  0  0  0  0  0  0  0  0
    0.0050   63.6820   69.7090 O   0  0  0  0  0  0  0  0  0  0  0  0
    0.4190   64.3910   70.6190 C   0  0  0  0  0  0  0  0  0  0  0  0
    1.2240   63.9680   71.6740 N   0  0  0  0  0  0  0  0  0  0  0  0
    1.5570   62.5970   71.8550 C   0  0  0  0  0  0  0  0  0  0  0  0
    2.8330   62.1160   71.4970 C   0  0  0  0  0  0  0  0  0  0  0  0
    3.9510   63.0240   71.0360 C   0  0  0  0  0  0  0  0  0  0  0  0
    5.1430   62.2910   70.4200 C   0  0  0  0  0  0  0  0  0  0  0  0
    5.5570   61.1180   71.2940 C   0  0  0  0  0  0  0  0  0  0  0  0
    4.4080   60.1240   71.3910 C   0  0  0  0  0  0  0  0  0  0  0  0
    3.0940   60.7680   71.7580 C   0  0  0  0  0  0  0  0  0  0  0  0
    2.1950   59.9320   72.3290 N   0  0  0  0  0  0  0  0  0  0  0  0
    0.9970   60.4040   72.6870 C   0  0  0  0  0  0  0  0  0  0  0  0
    0.6060   61.7400   72.4800 C   0  0  0  0  0  0  0  0  0  0  0  0
   -0.7050   62.1230   72.8780 C   0  0  0  0  0  0  0  0  0  0  0  0
   -1.5790   61.2170   73.4790 C   0  0  0  0  0  0  0  0  0  0  0  0
   -1.1690   59.9110   73.6880 C   0  0  0  0  0  0  0  0  0  0  0  0
    0.1100   59.5200   73.2880 C   0  0  0  0  0  0  0  0  0  0  0  0
    2.0740   67.8400   66.7190 C   0  0  1  0  0  0  0  0  0  0  0  0
    2.3490   67.4050   65.3500 N   0  0  0  0  0  0  0  0  0  0  0  0
    1.8520   68.0520   64.2640 C   0  0  0  0  0  0  0  0  0  0  0  0
    1.0840   68.9980   64.3050 O   0  0  0  0  0  0  0  0  0  0  0  0
    2.3750   67.4880   63.1530 O   0  0  0  0  0  0  0  0  0  0  0  0
    3.5490   68.0560   62.5180 C   0  0  0  0  0  0  0  0  0  0  0  0
    4.2570   69.0500   63.4460 C   0  0  0  0  0  0  0  0  0  0  0  0
    4.4810   66.8580   62.2800 C   0  0  0  0  0  0  0  0  0  0  0  0
    3.2020   68.6840   61.1630 C   0  0  0  0  0  0  0  0  0  0  0  0
    2.0340   69.3720   66.8510 C   0  0  0  0  0  0  0  0  0  0  0  0
    2.9910   69.9400   67.8640 C   0  0  0  0  0  0  0  0  0  0  0  0
    2.6600   70.4110   69.1210 C   0  0  0  0  0  0  0  0  0  0  0  0
    3.8030   70.8390   69.7380 N   0  0  0  0  0  0  0  0  0  0  0  0
    4.8850   70.6580   68.9110 C   0  0  0  0  0  0  0  0  0  0  0  0
    4.4060   70.1140   67.7180 C   0  0  0  0  0  0  0  0  0  0  0  0
    5.3300   69.8580   66.6830 C   0  0  0  0  0  0  0  0  0  0  0  0
    6.6870   70.1340   66.8830 C   0  0  0  0  0  0  0  0  0  0  0  0
    7.1340   70.6680   68.0880 C   0  0  0  0  0  0  0  0  0  0  0  0
    6.2390   70.9440   69.1250 C   0  0  0  0  0  0  0  0  0  0  0  0
    1.5319   67.4782   69.2234 H   0  0  0  0  0  0  0  0  0  0  0  0
   -1.1441   67.1517   69.5300 H   0  0  0  0  0  0  0  0  0  0  0  0
   -0.6711   65.5855   68.7435 H   0  0  0  0  0  0  0  0  0  0  0  0
    1.0079   66.4052   71.0450 H   0  0  0  0  0  0  0  0  0  0  0  0
   -0.7150   66.0059   71.4301 H   0  0  0  0  0  0  0  0  0  0  0  0
    1.5871   64.6652   72.3396 H   0  0  0  0  0  0  0  0  0  0  0  0
    3.5450   63.7154   70.2829 H   0  0  0  0  0  0  0  0  0  0  0  0
    4.3271   63.5404   71.9315 H   0  0  0  0  0  0  0  0  0  0  0  0
    4.8633   61.9187   69.4234 H   0  0  0  0  0  0  0  0  0  0  0  0
    5.9881   62.9907   70.3403 H   0  0  0  0  0  0  0  0  0  0  0  0
    6.4335   60.6225   70.8509 H   0  0  0  0  0  0  0  0  0  0  0  0
    5.8105   61.4832   72.3002 H   0  0  0  0  0  0  0  0  0  0  0  0
    4.2933   59.6262   70.4168 H   0  0  0  0  0  0  0  0  0  0  0  0
    4.6581   59.4126   72.1918 H   0  0  0  0  0  0  0  0  0  0  0  0
   -1.0373   63.1577   72.7079 H   0  0  0  0  0  0  0  0  0  0  0  0
   -2.5860   61.5375   73.7845 H   0  0  0  0  0  0  0  0  0  0  0  0
   -1.8459   59.1872   74.1655 H   0  0  0  0  0  0  0  0  0  0  0  0
    0.4253   58.4793   73.4539 H   0  0  0  0  0  0  0  0  0  0  0  0
    2.9198   67.4670   67.3152 H   0  0  0  0  0  0  0  0  0  0  0  0
    2.9425   66.5760   65.2037 H   0  0  0  0  0  0  0  0  0  0  0  0
    4.0621   68.7764   64.4935 H   0  0  0  0  0  0  0  0  0  0  0  0
    5.3400   69.0223   63.2552 H   0  0  0  0  0  0  0  0  0  0  0  0
    3.8769   70.0644   63.2552 H   0  0  0  0  0  0  0  0  0  0  0  0
    4.8021   66.4453   63.2478 H   0  0  0  0  0  0  0  0  0  0  0  0
    3.9452   66.0840   61.7109 H   0  0  0  0  0  0  0  0  0  0  0  0
    5.3630   67.1870   61.7109 H   0  0  0  0  0  0  0  0  0  0  0  0
    2.6758   69.6364   61.3243 H   0  0  0  0  0  0  0  0  0  0  0  0
    4.1268   68.8674   60.5963 H   0  0  0  0  0  0  0  0  0  0  0  0
    2.5545   67.9987   60.5963 H   0  0  0  0  0  0  0  0  0  0  0  0
    2.2752   69.8071   65.8699 H   0  0  0  0  0  0  0  0  0  0  0  0
    1.0229   69.6279   67.2005 H   0  0  0  0  0  0  0  0  0  0  0  0
    1.6483   70.4371   69.5520 H   0  0  0  0  0  0  0  0  0  0  0  0
    3.8464   71.2393   70.6860 H   0  0  0  0  0  0  0  0  0  0  0  0
    4.9854   69.4437   65.7240 H   0  0  0  0  0  0  0  0  0  0  0  0
    7.4085   69.9266   66.0790 H   0  0  0  0  0  0  0  0  0  0  0  0
    8.2054   70.8754   68.2258 H   0  0  0  0  0  0  0  0  0  0  0  0
    6.5863   71.3715   70.0772 H   0  0  0  0  0  0  0  0  0  0  0  0
  2  1  1  0
  3  2  2  0
  4  1  1  0
  5  4  1  0
  7  6  2  0
  7  5  1  0
  8  7  1  0
  9  8  1  0
 10  9  1  0
 11 10  1  0
 12 11  1  0
 13 12  1  0
 14 13  1  0
 15 14  1  0
 15 10  2  0
 16 15  1  0
 17 16  2  0
 18 17  1  0
 18  9  2  0
 19 18  1  0
 20 19  2  0
 21 20  1  0
 22 21  2  0
 22 17  1  0
 23  2  1  0
 24 23  1  0
 25 24  1  0
 26 25  2  0
 27 25  1  0
 28 27  1  0
 29 28  1  0
 30 28  1  0
 31 28  1  0
 32 23  1  0
 33 32  1  0
 34 33  2  0
 35 34  1  0
 36 35  1  0
 37 36  2  0
 37 33  1  0
 38 37  1  0
 39 38  2  0
 40 39  1  0
 41 36  1  0
 41 40  2  0
  1 42  1  0
  4 43  1  0
  4 44  1  0
  5 45  1  0
  5 46  1  0
  8 47  1  0
 11 48  1  0
 11 49  1  0
 12 50  1  0
 12 51  1  0
 13 52  1  0
 13 53  1  0
 14 54  1  0
 14 55  1  0
 19 56  1  0
 20 57  1  0
 21 58  1  0
 22 59  1  0
 23 60  1  1
 24 61  1  0
 29 62  1  0
 29 63  1  0
 29 64  1  0
 30 65  1  0
 30 66  1  0
 30 67  1  0
 31 68  1  0
 31 69  1  0
 31 70  1  0
 32 71  1  0
 32 72  1  0
 34 73  1  0
 35 74  1  0
 38 75  1  0
 39 76  1  0
 40 77  1  0
 41 78  1  0
M  END
>  <score>  (1) 
-13.598

$$$$
=
     RDKit          3D

 78 82  0  0  0  0  0  0  0  0999 V2000
   -0.3430   66.4480   68.8910 N   0  0  0  0  0  0  0  0  0  0  0  0
    0.7080   66.2380   69.7580 C   0  0  0  0  0  0  0  0  0  0  0  0
    1.6190   67.0530   69.9030 O   0  0  0  0  0  0  0  0  0  0  0  0
   -0.4280   67.6220   68.0420 C   0  0  0  0  0  0  0  0  0  0  0  0
   -0.2100   67.2820   66.5740 C   0  0  0  0  0  0  0  0  0  0  0  0
    1.9760   66.4080   66.0670 O   0  0  0  0  0  0  0  0  0  0  0  0
    1.2530   67.3880   66.1980 C   0  0  0  0  0  0  0  0  0  0  0  0
    1.6420   68.7130   66.0170 N   0  0  0  0  0  0  0  0  0  0  0  0
    2.9970   69.0640   65.7650 C   0  0  0  0  0  0  0  0  0  0  0  0
    3.5500   68.9140   64.4760 C   0  0  0  0  0  0  0  0  0  0  0  0
    2.7260   68.5080   63.2740 C   0  0  0  0  0  0  0  0  0  0  0  0
    3.5520   68.1160   62.0490 C   0  0  0  0  0  0  0  0  0  0  0  0
    4.6430   69.1430   61.7920 C   0  0  0  0  0  0  0  0  0  0  0  0
    5.5870   69.1940   62.9840 C   0  0  0  0  0  0  0  0  0  0  0  0
    4.8720   69.3330   64.3040 C   0  0  0  0  0  0  0  0  0  0  0  0
    5.6190   69.8680   65.2990 N   0  0  0  0  0  0  0  0  0  0  0  0
    5.0780   70.0290   66.5100 C   0  0  0  0  0  0  0  0  0  0  0  0
    3.7580   69.6480   66.8180 C   0  0  0  0  0  0  0  0  0  0  0  0
    3.2990   69.8430   68.1500 C   0  0  0  0  0  0  0  0  0  0  0  0
    4.1140   70.4170   69.1270 C   0  0  0  0  0  0  0  0  0  0  0  0
    5.4040   70.8000   68.7990 C   0  0  0  0  0  0  0  0  0  0  0  0
    5.8710   70.5980   67.4990 C   0  0  0  0  0  0  0  0  0  0  0  0
    0.7020   64.8800   70.4910 C   0  0  1  0  0  0  0  0  0  0  0  0
    2.0260   64.2620   70.5550 N   0  0  0  0  0  0  0  0  0  0  0  0
    2.3330   63.1200   69.8850 C   0  0  0  0  0  0  0  0  0  0  0  0
    1.5440   62.4600   69.2310 O   0  0  0  0  0  0  0  0  0  0  0  0
    3.6510   62.8700   70.0470 O   0  0  0  0  0  0  0  0  0  0  0  0
    4.0970   61.6770   70.7420 C   0  0  0  0  0  0  0  0  0  0  0  0
    3.0070   61.1370   71.6750 C   0  0  0  0  0  0  0  0  0  0  0  0
    4.3450   60.6470   69.6290 C   0  0  0  0  0  0  0  0  0  0  0  0
    5.4160   61.9240   71.4840 C   0  0  0  0  0  0  0  0  0  0  0  0
    0.0560   65.0260   71.8800 C   0  0  0  0  0  0  0  0  0  0  0  0
    0.0040   63.7570   72.6840 C   0  0  0  0  0  0  0  0  0  0  0  0
   -0.3890   62.5150   72.2210 C   0  0  0  0  0  0  0  0  0  0  0  0
   -0.2950   61.6180   73.2500 N   0  0  0  0  0  0  0  0  0  0  0  0
    0.1550   62.2450   74.3860 C   0  0  0  0  0  0  0  0  0  0  0  0
    0.3330   63.5940   74.0700 C   0  0  0  0  0  0  0  0  0  0  0  0
    0.7680   64.4660   75.0900 C   0  0  0  0  0  0  0  0  0  0  0  0
    1.0260   63.9610   76.3690 C   0  0  0  0  0  0  0  0  0  0  0  0
    0.8480   62.6100   76.6490 C   0  0  0  0  0  0  0  0  0  0  0  0
    0.4040   61.7250   75.6620 C   0  0  0  0  0  0  0  0  0  0  0  0
   -1.0954   65.7461   68.8440 H   0  0  0  0  0  0  0  0  0  0  0  0
   -1.4248   68.0725   68.1578 H   0  0  0  0  0  0  0  0  0  0  0  0
    0.3633   68.3215   68.3496 H   0  0  0  0  0  0  0  0  0  0  0  0
   -0.5543   66.2538   66.3890 H   0  0  0  0  0  0  0  0  0  0  0  0
   -0.7792   67.9979   65.9628 H   0  0  0  0  0  0  0  0  0  0  0  0
    0.9312   69.4567   66.0669 H   0  0  0  0  0  0  0  0  0  0  0  0
    2.1021   67.6479   63.5585 H   0  0  0  0  0  0  0  0  0  0  0  0
    2.1335   69.3889   62.9859 H   0  0  0  0  0  0  0  0  0  0  0  0
    4.0139   67.1330   62.2232 H   0  0  0  0  0  0  0  0  0  0  0  0
    2.8896   68.0734   61.1719 H   0  0  0  0  0  0  0  0  0  0  0  0
    5.2066   68.8606   60.8905 H   0  0  0  0  0  0  0  0  0  0  0  0
    4.1858   70.1327   61.6455 H   0  0  0  0  0  0  0  0  0  0  0  0
    6.1770   68.2658   63.0023 H   0  0  0  0  0  0  0  0  0  0  0  0
    6.2205   70.0848   62.8607 H   0  0  0  0  0  0  0  0  0  0  0  0
    2.2775   69.5341   68.4165 H   0  0  0  0  0  0  0  0  0  0  0  0
    3.7349   70.5640   70.1491 H   0  0  0  0  0  0  0  0  0  0  0  0
    6.0554   71.2597   69.5569 H   0  0  0  0  0  0  0  0  0  0  0  0
    6.8993   70.8988   67.2497 H   0  0  0  0  0  0  0  0  0  0  0  0
    0.0873   64.1862   69.8988 H   0  0  0  0  0  0  0  0  0  0  0  0
    2.7540   64.7095   71.1301 H   0  0  0  0  0  0  0  0  0  0  0  0
    3.3119   61.2880   72.7211 H   0  0  0  0  0  0  0  0  0  0  0  0
    2.0648   61.6725   71.4867 H   0  0  0  0  0  0  0  0  0  0  0  0
    2.8622   60.0630   71.4867 H   0  0  0  0  0  0  0  0  0  0  0  0
    4.5800   59.6709   70.0785 H   0  0  0  0  0  0  0  0  0  0  0  0
    3.4431   60.5561   69.0059 H   0  0  0  0  0  0  0  0  0  0  0  0
    5.1894   60.9766   69.0059 H   0  0  0  0  0  0  0  0  0  0  0  0
    5.2381   61.8907   72.5690 H   0  0  0  0  0  0  0  0  0  0  0  0
    6.1433   61.1464   71.2076 H   0  0  0  0  0  0  0  0  0  0  0  0
    5.8127   62.9120   71.2076 H   0  0  0  0  0  0  0  0  0  0  0  0
    0.6326   65.7695   72.4498 H   0  0  0  0  0  0  0  0  0  0  0  0
   -0.9876   65.3280   71.7076 H   0  0  0  0  0  0  0  0  0  0  0  0
   -0.7213   62.2864   71.1976 H   0  0  0  0  0  0  0  0  0  0  0  0
   -0.5281   60.6170   73.1824 H   0  0  0  0  0  0  0  0  0  0  0  0
    0.9036   65.5374   74.8809 H   0  0  0  0  0  0  0  0  0  0  0  0
    1.3734   64.6397   77.1619 H   0  0  0  0  0  0  0  0  0  0  0  0
    1.0594   62.2330   77.6605 H   0  0  0  0  0  0  0  0  0  0  0  0
    0.2554   60.6572   75.8803 H   0  0  0  0  0  0  0  0  0  0  0  0
  2  1  1  0
  3  2  2  0
  4  1  1  0
  5  4  1  0
  7  6  2  0
  7  5  1  0
  8  7  1  0
  9  8  1  0
 10  9  1  0
 11 10  1  0
 12 11  1  0
 13 12  1  0
 14 13  1  0
 15 14  1  0
 15 10  2  0
 16 15  1  0
 17 16  2  0
 18 17  1  0
 18  9  2  0
 19 18  1  0
 20 19  2  0
 21 20  1  0
 22 21  2  0
 22 17  1  0
 23  2  1  0
 24 23  1  0
 25 24  1  0
 26 25  2  0
 27 25  1  0
 28 27  1  0
 29 28  1  0
 30 28  1  0
 31 28  1  0
 32 23  1  0
 33 32  1  0
 34 33  2  0
 35 34  1  0
 36 35  1  0
 37 36  2  0
 37 33  1  0
 38 37  1  0
 39 38  2  0
 40 39  1  0
 41 36  1  0
 41 40  2  0
  1 42  1  0
  4 43  1  0
  4 44  1  0
  5 45  1  0
  5 46  1  0
  8 47  1  0
 11 48  1  0
 11 49  1  0
 12 50  1  0
 12 51  1  0
 13 52  1  0
 13 53  1  0
 14 54  1  0
 14 55  1  0
 19 56  1  0
 20 57  1  0
 21 58  1  0
 22 59  1  0
 23 60  1  6
 24 61  1  0
 29 62  1  0
 29 63  1  0
 29 64  1  0
 30 65  1  0
 30 66  1  0
 30 67  1  0
 31 68  1  0
 31 69  1  0
 31 70  1  0
 32 71  1  0
 32 72  1  0
 34 73  1  0
 35 74  1  0
 38 75  1  0
 39 76  1  0
 40 77  1  0
 41 78  1  0
M  END
>  <score>  (2) 
-13.201

$$$$
=
     RDKit          3D

 78 82  0  0  0  0  0  0  0  0999 V2000
    0.3480   66.2280   69.4770 N   0  0  0  0  0  0  0  0  0  0  0  0
    0.4090   64.9540   70.0000 C   0  0  0  0  0  0  0  0  0  0  0  0
   -0.3130   64.0400   69.6030 O   0  0  0  0  0  0  0  0  0  0  0  0
   -0.6090   66.6030   68.4540 C   0  0  0  0  0  0  0  0  0  0  0  0
   -0.2180   67.8970   67.7520 C   0  0  0  0  0  0  0  0  0  0  0  0
    1.7930   66.7540   67.0800 O   0  0  0  0  0  0  0  0  0  0  0  0
    1.1840   67.8120   67.1870 C   0  0  0  0  0  0  0  0  0  0  0  0
    1.6630   69.0640   66.8090 N   0  0  0  0  0  0  0  0  0  0  0  0
    2.9970   69.2470   66.3520 C   0  0  0  0  0  0  0  0  0  0  0  0
    3.3400   68.9730   65.0120 C   0  0  0  0  0  0  0  0  0  0  0  0
    2.3130   68.6060   63.9630 C   0  0  0  0  0  0  0  0  0  0  0  0
    2.9090   68.0650   62.6630 C   0  0  0  0  0  0  0  0  0  0  0  0
    4.0550   68.9460   62.1940 C   0  0  0  0  0  0  0  0  0  0  0  0
    5.1600   68.9470   63.2400 C   0  0  0  0  0  0  0  0  0  0  0  0
    4.6600   69.2290   64.6340 C   0  0  0  0  0  0  0  0  0  0  0  0
    5.5950   69.7230   65.4810 N   0  0  0  0  0  0  0  0  0  0  0  0
    5.2540   70.0020   66.7420 C   0  0  0  0  0  0  0  0  0  0  0  0
    3.9590   69.7900   67.2520 C   0  0  0  0  0  0  0  0  0  0  0  0
    3.7190   70.0990   68.6190 C   0  0  0  0  0  0  0  0  0  0  0  0
    4.7210   70.6220   69.4360 C   0  0  0  0  0  0  0  0  0  0  0  0
    5.9840   70.8390   68.9110 C   0  0  0  0  0  0  0  0  0  0  0  0
    6.2360   70.5240   67.5740 C   0  0  0  0  0  0  0  0  0  0  0  0
    1.4020   64.7630   71.1670 C   0  0  1  0  0  0  0  0  0  0  0  0
    0.8990   63.8570   72.1990 N   0  0  0  0  0  0  0  0  0  0  0  0
    0.0230   64.2560   73.1580 C   0  0  0  0  0  0  0  0  0  0  0  0
   -0.3780   65.3970   73.3070 O   0  0  0  0  0  0  0  0  0  0  0  0
   -0.3400   63.1740   73.8830 O   0  0  0  0  0  0  0  0  0  0  0  0
    0.1710   62.9790   75.2260 C   0  0  0  0  0  0  0  0  0  0  0  0
   -0.9700   62.8270   76.2380 C   0  0  0  0  0  0  0  0  0  0  0  0
    0.9470   61.6550   75.1590 C   0  0  0  0  0  0  0  0  0  0  0  0
    1.1430   64.0970   75.6220 C   0  0  0  0  0  0  0  0  0  0  0  0
    2.7790   64.3350   70.6310 C   0  0  0  0  0  0  0  0  0  0  0  0
    2.9290   62.8560   70.4010 C   0  0  0  0  0  0  0  0  0  0  0  0
    2.6600   62.1840   69.2220 C   0  0  0  0  0  0  0  0  0  0  0  0
    2.9230   60.8550   69.4110 N   0  0  0  0  0  0  0  0  0  0  0  0
    3.3640   60.6360   70.6940 C   0  0  0  0  0  0  0  0  0  0  0  0
    3.3590   61.8700   71.3480 C   0  0  0  0  0  0  0  0  0  0  0  0
    3.7490   61.9080   72.7030 C   0  0  0  0  0  0  0  0  0  0  0  0
    4.1430   60.7280   73.3430 C   0  0  0  0  0  0  0  0  0  0  0  0
    4.1450   59.5150   72.6610 C   0  0  0  0  0  0  0  0  0  0  0  0
    3.7510   59.4460   71.3210 C   0  0  0  0  0  0  0  0  0  0  0  0
    1.0062   66.9395   69.8255 H   0  0  0  0  0  0  0  0  0  0  0  0
   -0.6646   65.7970   67.7075 H   0  0  0  0  0  0  0  0  0  0  0  0
   -1.5820   66.7623   68.9417 H   0  0  0  0  0  0  0  0  0  0  0  0
   -0.9247   68.0873   66.9308 H   0  0  0  0  0  0  0  0  0  0  0  0
   -0.2480   68.7146   68.4872 H   0  0  0  0  0  0  0  0  0  0  0  0
    1.0347   69.8784   66.8619 H   0  0  0  0  0  0  0  0  0  0  0  0
    1.6495   67.8365   64.3845 H   0  0  0  0  0  0  0  0  0  0  0  0
    1.7809   69.5333   63.7043 H   0  0  0  0  0  0  0  0  0  0  0  0
    3.2834   67.0449   62.8338 H   0  0  0  0  0  0  0  0  0  0  0  0
    2.1268   68.0582   61.8896 H   0  0  0  0  0  0  0  0  0  0  0  0
    4.4506   68.5571   61.2441 H   0  0  0  0  0  0  0  0  0  0  0  0
    3.6896   69.9732   62.0480 H   0  0  0  0  0  0  0  0  0  0  0  0
    5.6456   67.9600   63.2361 H   0  0  0  0  0  0  0  0  0  0  0  0
    5.8594   69.7536   62.9749 H   0  0  0  0  0  0  0  0  0  0  0  0
    2.7193   69.9213   69.0422 H   0  0  0  0  0  0  0  0  0  0  0  0
    4.5098   70.8602   70.4889 H   0  0  0  0  0  0  0  0  0  0  0  0
    6.7825   71.2562   69.5422 H   0  0  0  0  0  0  0  0  0  0  0  0
    7.2436   70.6946   67.1671 H   0  0  0  0  0  0  0  0  0  0  0  0
    1.5175   65.7356   71.6678 H   0  0  0  0  0  0  0  0  0  0  0  0
    1.2212   62.8787   72.1989 H   0  0  0  0  0  0  0  0  0  0  0  0
   -0.5642   62.8811   77.2590 H   0  0  0  0  0  0  0  0  0  0  0  0
   -1.7010   63.6357   76.0907 H   0  0  0  0  0  0  0  0  0  0  0  0
   -1.4638   61.8551   76.0907 H   0  0  0  0  0  0  0  0  0  0  0  0
    1.1551   61.2999   76.1791 H   0  0  0  0  0  0  0  0  0  0  0  0
    0.3459   60.9043   74.6250 H   0  0  0  0  0  0  0  0  0  0  0  0
    1.8957   61.8126   74.6250 H   0  0  0  0  0  0  0  0  0  0  0  0
    1.1997   64.1622   76.7186 H   0  0  0  0  0  0  0  0  0  0  0  0
    2.1411   63.8761   75.2157 H   0  0  0  0  0  0  0  0  0  0  0  0
    0.7855   65.0547   75.2157 H   0  0  0  0  0  0  0  0  0  0  0  0
    2.9501   64.8502   69.6743 H   0  0  0  0  0  0  0  0  0  0  0  0
    3.5128   64.6064   71.4042 H   0  0  0  0  0  0  0  0  0  0  0  0
    2.2961   62.6412   68.2900 H   0  0  0  0  0  0  0  0  0  0  0  0
    2.8072   60.1238   68.6949 H   0  0  0  0  0  0  0  0  0  0  0  0
    3.7434   62.8603   73.2535 H   0  0  0  0  0  0  0  0  0  0  0  0
    4.4548   60.7594   74.3974 H   0  0  0  0  0  0  0  0  0  0  0  0
    4.4604   58.5992   73.1824 H   0  0  0  0  0  0  0  0  0  0  0  0
    3.7454   58.4892   70.7783 H   0  0  0  0  0  0  0  0  0  0  0  0
  2  1  1  0
  3  2  2  0
  4  1  1  0
  5  4  1  0
  7  6  2  0
  7  5  1  0
  8  7  1  0
  9  8  1  0
 10  9  1  0
 11 10  1  0
 12 11  1  0
 13 12  1  0
 14 13  1  0
 15 14  1  0
 15 10  2  0
 16 15  1  0
 17 16  2  0
 18 17  1  0
 18  9  2  0
 19 18  1  0
 20 19  2  0
 21 20  1  0
 22 21  2  0
 22 17  1  0
 23  2  1  0
 24 23  1  0
 25 24  1  0
 26 25  2  0
 27 25  1  0
 28 27  1  0
 29 28  1  0
 30 28  1  0
 31 28  1  0
 32 23  1  0
 33 32  1  0
 34 33  2  0
 35 34  1  0
 36 35  1  0
 37 36  2  0
 37 33  1  0
 38 37  1  0
 39 38  2  0
 40 39  1  0
 41 36  1  0
 41 40  2  0
  1 42  1  0
  4 43  1  0
  4 44  1  0
  5 45  1  0
  5 46  1  0
  8 47  1  0
 11 48  1  0
 11 49  1  0
 12 50  1  0
 12 51  1  0
 13 52  1  0
 13 53  1  0
 14 54  1  0
 14 55  1  0
 19 56  1  0
 20 57  1  0
 21 58  1  0
 22 59  1  0
 23 60  1  1
 24 61  1  0
 29 62  1  0
 29 63  1  0
 29 64  1  0
 30 65  1  0
 30 66  1  0
 30 67  1  0
 31 68  1  0
 31 69  1  0
 31 70  1  0
 32 71  1  0
 32 72  1  0
 34 73  1  0
 35 74  1  0
 38 75  1  0
 39 76  1  0
 40 77  1  0
 41 78  1  0
M  END
>  <score>  (3) 
-13.196

$$$$
=
     RDKit          3D

 78 82  0  0  0  0  0  0  0  0999 V2000
    0.7670   66.9520   68.6670 N   0  0  0  0  0  0  0  0  0  0  0  0
    0.7500   67.1530   67.3030 C   0  0  0  0  0  0  0  0  0  0  0  0
   -0.1870   66.7880   66.5930 O   0  0  0  0  0  0  0  0  0  0  0  0
   -0.2940   66.2490   69.3640 C   0  0  0  0  0  0  0  0  0  0  0  0
    0.1390   65.7930   70.7510 C   0  0  0  0  0  0  0  0  0  0  0  0
    0.2920   63.5800   69.8120 O   0  0  0  0  0  0  0  0  0  0  0  0
    0.5330   64.3310   70.7500 C   0  0  0  0  0  0  0  0  0  0  0  0
    1.1950   63.9770   71.9230 N   0  0  0  0  0  0  0  0  0  0  0  0
    1.5650   62.6310   72.1930 C   0  0  0  0  0  0  0  0  0  0  0  0
    0.6700   61.7570   72.8430 C   0  0  0  0  0  0  0  0  0  0  0  0
   -0.7570   62.1390   73.1690 C   0  0  0  0  0  0  0  0  0  0  0  0
   -1.4630   61.1780   74.1250 C   0  0  0  0  0  0  0  0  0  0  0  0
   -1.2430   59.7380   73.6920 C   0  0  0  0  0  0  0  0  0  0  0  0
    0.2440   59.4150   73.7320 C   0  0  0  0  0  0  0  0  0  0  0  0
    1.0950   60.4370   73.0220 C   0  0  0  0  0  0  0  0  0  0  0  0
    2.2970   59.9790   72.6010 N   0  0  0  0  0  0  0  0  0  0  0  0
    3.1290   60.8090   71.9640 C   0  0  0  0  0  0  0  0  0  0  0  0
    2.8240   62.1620   71.7200 C   0  0  0  0  0  0  0  0  0  0  0  0
    3.7990   62.9570   71.0560 C   0  0  0  0  0  0  0  0  0  0  0  0
    5.0140   62.4200   70.6310 C   0  0  0  0  0  0  0  0  0  0  0  0
    5.2870   61.0830   70.8660 C   0  0  0  0  0  0  0  0  0  0  0  0
    4.3450   60.2960   71.5310 C   0  0  0  0  0  0  0  0  0  0  0  0
    2.0170   67.8080   66.7130 C   0  0  1  0  0  0  0  0  0  0  0  0
    2.2770   67.4000   65.3330 N   0  0  0  0  0  0  0  0  0  0  0  0
    1.7720   68.0710   64.2650 C   0  0  0  0  0  0  0  0  0  0  0  0
    1.0080   69.0190   64.3330 O   0  0  0  0  0  0  0  0  0  0  0  0
    2.2820   67.5280   63.1370 O   0  0  0  0  0  0  0  0  0  0  0  0
    3.5770   67.9470   62.6350 C   0  0  0  0  0  0  0  0  0  0  0  0
    4.5270   66.7530   62.4830 C   0  0  0  0  0  0  0  0  0  0  0  0
    3.2870   68.5240   61.2420 C   0  0  0  0  0  0  0  0  0  0  0  0
    4.1830   69.0530   63.5070 C   0  0  0  0  0  0  0  0  0  0  0  0
    1.9480   69.3370   66.8700 C   0  0  0  0  0  0  0  0  0  0  0  0
    2.9340   69.9110   67.8510 C   0  0  0  0  0  0  0  0  0  0  0  0
    2.6390   70.3970   69.1110 C   0  0  0  0  0  0  0  0  0  0  0  0
    3.8000   70.8260   69.6930 N   0  0  0  0  0  0  0  0  0  0  0  0
    4.8590   70.6320   68.8390 C   0  0  0  0  0  0  0  0  0  0  0  0
    4.3450   70.0770   67.6650 C   0  0  0  0  0  0  0  0  0  0  0  0
    5.2400   69.8070   66.6080 C   0  0  0  0  0  0  0  0  0  0  0  0
    6.6030   70.0790   66.7680 C   0  0  0  0  0  0  0  0  0  0  0  0
    7.0840   70.6230   67.9550 C   0  0  0  0  0  0  0  0  0  0  0  0
    6.2190   70.9140   69.0130 C   0  0  0  0  0  0  0  0  0  0  0  0
    1.5626   67.3144   69.2116 H   0  0  0  0  0  0  0  0  0  0  0  0
   -1.1588   66.9213   69.4651 H   0  0  0  0  0  0  0  0  0  0  0  0
   -0.5516   65.3548   68.7774 H   0  0  0  0  0  0  0  0  0  0  0  0
    1.0002   66.3962   71.0741 H   0  0  0  0  0  0  0  0  0  0  0  0
   -0.7080   65.9244   71.4404 H   0  0  0  0  0  0  0  0  0  0  0  0
    1.4222   64.7083   72.6119 H   0  0  0  0  0  0  0  0  0  0  0  0
   -0.7496   63.1384   73.6285 H   0  0  0  0  0  0  0  0  0  0  0  0
   -1.3155   62.1078   72.2218 H   0  0  0  0  0  0  0  0  0  0  0  0
   -1.0609   61.3163   75.1395 H   0  0  0  0  0  0  0  0  0  0  0  0
   -2.5419   61.3922   74.1119 H   0  0  0  0  0  0  0  0  0  0  0  0
   -1.7826   59.0641   74.3737 H   0  0  0  0  0  0  0  0  0  0  0  0
   -1.6190   59.6029   72.6671 H   0  0  0  0  0  0  0  0  0  0  0  0
    0.5624   59.3653   74.7837 H   0  0  0  0  0  0  0  0  0  0  0  0
    0.3835   58.4562   73.2113 H   0  0  0  0  0  0  0  0  0  0  0  0
    3.5896   64.0213   70.8733 H   0  0  0  0  0  0  0  0  0  0  0  0
    5.7494   63.0534   70.1133 H   0  0  0  0  0  0  0  0  0  0  0  0
    6.2387   60.6444   70.5313 H   0  0  0  0  0  0  0  0  0  0  0  0
    4.5729   59.2362   71.7180 H   0  0  0  0  0  0  0  0  0  0  0  0
    2.8801   67.4436   67.2894 H   0  0  0  0  0  0  0  0  0  0  0  0
    2.8658   66.5719   65.1641 H   0  0  0  0  0  0  0  0  0  0  0  0
    4.8182   66.3870   63.4786 H   0  0  0  0  0  0  0  0  0  0  0  0
    4.0193   65.9485   61.9307 H   0  0  0  0  0  0  0  0  0  0  0  0
    5.4250   67.0669   61.9307 H   0  0  0  0  0  0  0  0  0  0  0  0
    2.7952   69.5025   61.3455 H   0  0  0  0  0  0  0  0  0  0  0  0
    4.2315   68.6448   60.6912 H   0  0  0  0  0  0  0  0  0  0  0  0
    2.6265   67.8381   60.6912 H   0  0  0  0  0  0  0  0  0  0  0  0
    4.0445   68.8002   64.5686 H   0  0  0  0  0  0  0  0  0  0  0  0
    5.2573   69.1446   63.2890 H   0  0  0  0  0  0  0  0  0  0  0  0
    3.6820   70.0077   63.2890 H   0  0  0  0  0  0  0  0  0  0  0  0
    2.1380   69.7918   65.8866 H   0  0  0  0  0  0  0  0  0  0  0  0
    0.9469   69.5650   67.2646 H   0  0  0  0  0  0  0  0  0  0  0  0
    1.6392   70.4327   69.5684 H   0  0  0  0  0  0  0  0  0  0  0  0
    3.8704   71.2354   70.6355 H   0  0  0  0  0  0  0  0  0  0  0  0
    4.8679   69.3848   65.6629 H   0  0  0  0  0  0  0  0  0  0  0  0
    7.3017   69.8606   65.9469 H   0  0  0  0  0  0  0  0  0  0  0  0
    8.1597   70.8267   68.0618 H   0  0  0  0  0  0  0  0  0  0  0  0
    6.5940   71.3499   69.9508 H   0  0  0  0  0  0  0  0  0  0  0  0
  2  1  1  0
  3  2  2  0
  4  1  1  0
  5  4  1  0
  7  6  2  0
  7  5  1  0
  8  7  1  0
  9  8  1  0
 10  9  1  0
 11 10  1  0
 12 11  1  0
 13 12  1  0
 14 13  1  0
 15 14  1  0
 15 10  2  0
 16 15  1  0
 17 16  2  0
 18 17  1  0
 18  9  2  0
 19 18  1  0
 20 19  2  0
 21 20  1  0
 22 21  2  0
 22 17  1  0
 23  2  1  0
 24 23  1  0
 25 24  1  0
 26 25  2  0
 27 25  1  0
 28 27  1  0
 29 28  1  0
 30 28  1  0
 31 28  1  0
 32 23  1  0
 33 32  1  0
 34 33  2  0
 35 34  1  0
 36 35  1  0
 37 36  2  0
 37 33  1  0
 38 37  1  0
 39 38  2  0
 40 39  1  0
 41 36  1  0
 41 40  2  0
  1 42  1  0
  4 43  1  0
  4 44  1  0
  5 45  1  0
  5 46  1  0
  8 47  1  0
 11 48  1  0
 11 49  1  0
 12 50  1  0
 12 51  1  0
 13 52  1  0
 13 53  1  0
 14 54  1  0
 14 55  1  0
 19 56  1  0
 20 57  1  0
 21 58  1  0
 22 59  1  0
 23 60  1  1
 24 61  1  0
 29 62  1  0
 29 63  1  0
 29 64  1  0
 30 65  1  0
 30 66  1  0
 30 67  1  0
 31 68  1  0
 31 69  1  0
 31 70  1  0
 32 71  1  0
 32 72  1  0
 34 73  1  0
 35 74  1  0
 38 75  1  0
 39 76  1  0
 40 77  1  0
 41 78  1  0
M  END
>  <score>  (4) 
-13.102

$$$$
=
     RDKit          3D

 78 82  0  0  0  0  0  0  0  0999 V2000
   -0.3850   66.0220   69.1010 N   0  0  0  0  0  0  0  0  0  0  0  0
    0.6060   65.5860   69.9540 C   0  0  0  0  0  0  0  0  0  0  0  0
    1.5650   66.2900   70.2690 O   0  0  0  0  0  0  0  0  0  0  0  0
   -0.3460   67.3260   68.4660 C   0  0  0  0  0  0  0  0  0  0  0  0
   -0.1480   67.2210   66.9600 C   0  0  0  0  0  0  0  0  0  0  0  0
    2.0980   66.5160   66.4510 O   0  0  0  0  0  0  0  0  0  0  0  0
    1.3010   67.4380   66.5800 C   0  0  0  0  0  0  0  0  0  0  0  0
    1.5880   68.7880   66.3950 N   0  0  0  0  0  0  0  0  0  0  0  0
    2.9110   69.2420   66.1390 C   0  0  0  0  0  0  0  0  0  0  0  0
    3.6890   69.8050   67.1700 C   0  0  0  0  0  0  0  0  0  0  0  0
    3.2340   69.8410   68.6130 C   0  0  0  0  0  0  0  0  0  0  0  0
    4.0740   70.7450   69.5150 C   0  0  0  0  0  0  0  0  0  0  0  0
    5.5560   70.4930   69.2910 C   0  0  0  0  0  0  0  0  0  0  0  0
    5.9170   70.8200   67.8490 C   0  0  0  0  0  0  0  0  0  0  0  0
    4.9960   70.1760   66.8440 C   0  0  0  0  0  0  0  0  0  0  0  0
    5.5300   70.0140   65.6100 N   0  0  0  0  0  0  0  0  0  0  0  0
    4.7920   69.4560   64.6450 C   0  0  0  0  0  0  0  0  0  0  0  0
    3.4620   69.0400   64.8400 C   0  0  0  0  0  0  0  0  0  0  0  0
    2.7660   68.4840   63.7310 C   0  0  0  0  0  0  0  0  0  0  0  0
    3.3780   68.3280   62.4880 C   0  0  0  0  0  0  0  0  0  0  0  0
    4.6930   68.7290   62.3210 C   0  0  0  0  0  0  0  0  0  0  0  0
    5.3820   69.2910   63.3980 C   0  0  0  0  0  0  0  0  0  0  0  0
    0.4680   64.1280   70.4410 C   0  0  1  0  0  0  0  0  0  0  0  0
    1.4150   63.2210   69.7940 N   0  0  0  0  0  0  0  0  0  0  0  0
    2.7210   63.1430   70.1630 C   0  0  0  0  0  0  0  0  0  0  0  0
    3.2540   63.8490   71.0010 O   0  0  0  0  0  0  0  0  0  0  0  0
    3.3030   62.1400   69.4680 O   0  0  0  0  0  0  0  0  0  0  0  0
    3.7950   60.9570   70.1480 C   0  0  0  0  0  0  0  0  0  0  0  0
    2.7030   60.3200   71.0150 C   0  0  0  0  0  0  0  0  0  0  0  0
    4.1570   59.9810   69.0180 C   0  0  0  0  0  0  0  0  0  0  0  0
    5.0620   61.2640   70.9550 C   0  0  0  0  0  0  0  0  0  0  0  0
    0.5540   64.0680   71.9760 C   0  0  0  0  0  0  0  0  0  0  0  0
    0.1650   62.7440   72.5740 C   0  0  0  0  0  0  0  0  0  0  0  0
   -1.0550   62.1100   72.4270 C   0  0  0  0  0  0  0  0  0  0  0  0
   -1.0170   60.9300   73.1170 N   0  0  0  0  0  0  0  0  0  0  0  0
    0.2080   60.7700   73.7170 C   0  0  0  0  0  0  0  0  0  0  0  0
    0.9670   61.9020   73.4130 C   0  0  0  0  0  0  0  0  0  0  0  0
    2.2710   61.9930   73.9440 C   0  0  0  0  0  0  0  0  0  0  0  0
    2.7710   60.9520   74.7340 C   0  0  0  0  0  0  0  0  0  0  0  0
    1.9920   59.8330   75.0110 C   0  0  0  0  0  0  0  0  0  0  0  0
    0.6920   59.7230   74.5100 C   0  0  0  0  0  0  0  0  0  0  0  0
   -1.1823   65.3994   68.9073 H   0  0  0  0  0  0  0  0  0  0  0  0
   -1.2948   67.8461   68.6641 H   0  0  0  0  0  0  0  0  0  0  0  0
    0.5068   67.8818   68.8830 H   0  0  0  0  0  0  0  0  0  0  0  0
   -0.4601   66.2204   66.6263 H   0  0  0  0  0  0  0  0  0  0  0  0
   -0.7549   67.9996   66.4746 H   0  0  0  0  0  0  0  0  0  0  0  0
    0.8224   69.4752   66.4449 H   0  0  0  0  0  0  0  0  0  0  0  0
    2.1945   70.1999   68.6376 H   0  0  0  0  0  0  0  0  0  0  0  0
    3.3425   68.8182   69.0031 H   0  0  0  0  0  0  0  0  0  0  0  0
    3.8471   71.7966   69.2856 H   0  0  0  0  0  0  0  0  0  0  0  0
    3.8307   70.5244   70.5648 H   0  0  0  0  0  0  0  0  0  0  0  0
    6.1424   71.1307   69.9689 H   0  0  0  0  0  0  0  0  0  0  0  0
    5.7815   69.4356   69.4934 H   0  0  0  0  0  0  0  0  0  0  0  0
    5.8710   71.9110   67.7162 H   0  0  0  0  0  0  0  0  0  0  0  0
    6.9267   70.4231   67.6674 H   0  0  0  0  0  0  0  0  0  0  0  0
    1.7195   68.1695   63.8571 H   0  0  0  0  0  0  0  0  0  0  0  0
    2.8208   67.8899   61.6468 H   0  0  0  0  0  0  0  0  0  0  0  0
    5.1908   68.6058   61.3479 H   0  0  0  0  0  0  0  0  0  0  0  0
    6.4240   69.6130   63.2546 H   0  0  0  0  0  0  0  0  0  0  0  0
   -0.5275   63.7697   70.1401 H   0  0  0  0  0  0  0  0  0  0  0  0
    1.0796   62.6180   69.0293 H   0  0  0  0  0  0  0  0  0  0  0  0
    2.9485   60.4632   72.0777 H   0  0  0  0  0  0  0  0  0  0  0  0
    1.7359   60.7957   70.7947 H   0  0  0  0  0  0  0  0  0  0  0  0
    2.6410   59.2441   70.7947 H   0  0  0  0  0  0  0  0  0  0  0  0
    4.5086   59.0329   69.4510 H   0  0  0  0  0  0  0  0  0  0  0  0
    3.2687   59.7933   68.3970 H   0  0  0  0  0  0  0  0  0  0  0  0
    4.9529   60.4180   68.3970 H   0  0  0  0  0  0  0  0  0  0  0  0
    4.8345   61.2089   72.0298 H   0  0  0  0  0  0  0  0  0  0  0  0
    5.8418   60.5288   70.7071 H   0  0  0  0  0  0  0  0  0  0  0  0
    5.4188   62.2746   70.7071 H   0  0  0  0  0  0  0  0  0  0  0  0
    1.5913   64.2858   72.2702 H   0  0  0  0  0  0  0  0  0  0  0  0
   -0.1669   64.8060   72.3575 H   0  0  0  0  0  0  0  0  0  0  0  0
   -1.9119   62.4907   71.8518 H   0  0  0  0  0  0  0  0  0  0  0  0
   -1.7951   60.2579   73.1780 H   0  0  0  0  0  0  0  0  0  0  0  0
    2.8913   62.8777   73.7380 H   0  0  0  0  0  0  0  0  0  0  0  0
    3.7910   61.0190   75.1404 H   0  0  0  0  0  0  0  0  0  0  0  0
    2.4046   59.0245   75.6323 H   0  0  0  0  0  0  0  0  0  0  0  0
    0.0700   58.8432   74.7314 H   0  0  0  0  0  0  0  0  0  0  0  0
  2  1  1  0
  3  2  2  0
  4  1  1  0
  5  4  1  0
  7  6  2  0
  7  5  1  0
  8  7  1  0
  9  8  1  0
 10  9  1  0
 11 10  1  0
 12 11  1  0
 13 12  1  0
 14 13  1  0
 15 14  1  0
 15 10  2  0
 16 15  1  0
 17 16  2  0
 18 17  1  0
 18  9  2  0
 19 18  1  0
 20 19  2  0
 21 20  1  0
 22 21  2  0
 22 17  1  0
 23  2  1  0
 24 23  1  0
 25 24  1  0
 26 25  2  0
 27 25  1  0
 28 27  1  0
 29 28  1  0
 30 28  1  0
 31 28  1  0
 32 23  1  0
 33 32  1  0
 34 33  2  0
 35 34  1  0
 36 35  1  0
 37 36  2  0
 37 33  1  0
 38 37  1  0
 39 38  2  0
 40 39  1  0
 41 36  1  0
 41 40  2  0
  1 42  1  0
  4 43  1  0
  4 44  1  0
  5 45  1  0
  5 46  1  0
  8 47  1  0
 11 48  1  0
 11 49  1  0
 12 50  1  0
 12 51  1  0
 13 52  1  0
 13 53  1  0
 14 54  1  0
 14 55  1  0
 19 56  1  0
 20 57  1  0
 21 58  1  0
 22 59  1  0
 23 60  1  1
 24 61  1  0
 29 62  1  0
 29 63  1  0
 29 64  1  0
 30 65  1  0
 30 66  1  0
 30 67  1  0
 31 68  1  0
 31 69  1  0
 31 70  1  0
 32 71  1  0
 32 72  1  0
 34 73  1  0
 35 74  1  0
 38 75  1  0
 39 76  1  0
 40 77  1  0
 41 78  1  0
M  END
>  <score>  (5) 
-12.303

$$$$
=
     RDKit          3D

 78 82  0  0  0  0  0  0  0  0999 V2000
    0.9590   66.9940   69.6380 N   0  0  0  0  0  0  0  0  0  0  0  0
    0.4550   65.7270   69.8380 C   0  0  0  0  0  0  0  0  0  0  0  0
   -0.4930   65.2820   69.1920 O   0  0  0  0  0  0  0  0  0  0  0  0
    0.3780   67.9210   68.6850 C   0  0  0  0  0  0  0  0  0  0  0  0
    0.3170   67.3340   67.2810 C   0  0  0  0  0  0  0  0  0  0  0  0
    2.3250   66.5510   66.2060 O   0  0  0  0  0  0  0  0  0  0  0  0
    1.6360   67.5020   66.5580 C   0  0  0  0  0  0  0  0  0  0  0  0
    1.9400   68.8450   66.3490 N   0  0  0  0  0  0  0  0  0  0  0  0
    3.1810   69.2500   65.7840 C   0  0  0  0  0  0  0  0  0  0  0  0
    4.1900   69.8070   66.5940 C   0  0  0  0  0  0  0  0  0  0  0  0
    4.0810   69.8870   68.1000 C   0  0  0  0  0  0  0  0  0  0  0  0
    5.1300   70.7810   68.7610 C   0  0  0  0  0  0  0  0  0  0  0  0
    6.5130   70.4750   68.2100 C   0  0  0  0  0  0  0  0  0  0  0  0
    6.5420   70.7620   66.7150 C   0  0  0  0  0  0  0  0  0  0  0  0
    5.3970   70.1280   65.9660 C   0  0  0  0  0  0  0  0  0  0  0  0
    5.6280   69.9250   64.6470 N   0  0  0  0  0  0  0  0  0  0  0  0
    4.6730   69.3720   63.8930 C   0  0  0  0  0  0  0  0  0  0  0  0
    3.4120   69.0040   64.3990 C   0  0  0  0  0  0  0  0  0  0  0  0
    2.4650   68.4490   63.4950 C   0  0  0  0  0  0  0  0  0  0  0  0
    2.7700   68.2480   62.1490 C   0  0  0  0  0  0  0  0  0  0  0  0
    4.0220   68.6020   61.6740 C   0  0  0  0  0  0  0  0  0  0  0  0
    4.9550   69.1620   62.5490 C   0  0  0  0  0  0  0  0  0  0  0  0
    1.1170   64.9220   70.9770 C   0  0  1  0  0  0  0  0  0  0  0  0
    0.3350   63.7520   71.3750 N   0  0  0  0  0  0  0  0  0  0  0  0
   -0.1480   63.5900   72.6350 C   0  0  0  0  0  0  0  0  0  0  0  0
    0.0670   64.3440   73.5680 O   0  0  0  0  0  0  0  0  0  0  0  0
   -0.9210   62.4810   72.6580 O   0  0  0  0  0  0  0  0  0  0  0  0
   -0.5950   61.3720   73.5340 C   0  0  0  0  0  0  0  0  0  0  0  0
   -1.8520   60.5850   73.9250 C   0  0  0  0  0  0  0  0  0  0  0  0
    0.3110   60.4620   72.6900 C   0  0  0  0  0  0  0  0  0  0  0  0
    0.1920   61.8420   74.7630 C   0  0  0  0  0  0  0  0  0  0  0  0
    2.5640   64.5600   70.6010 C   0  0  0  0  0  0  0  0  0  0  0  0
    2.7930   63.1000   70.3230 C   0  0  0  0  0  0  0  0  0  0  0  0
    2.5740   62.4560   69.1190 C   0  0  0  0  0  0  0  0  0  0  0  0
    2.9020   61.1370   69.2660 N   0  0  0  0  0  0  0  0  0  0  0  0
    3.3370   60.8960   70.5470 C   0  0  0  0  0  0  0  0  0  0  0  0
    3.2610   62.1040   71.2420 C   0  0  0  0  0  0  0  0  0  0  0  0
    3.6310   62.1150   72.6030 C   0  0  0  0  0  0  0  0  0  0  0  0
    4.0770   60.9350   73.2090 C   0  0  0  0  0  0  0  0  0  0  0  0
    4.1500   59.7480   72.4850 C   0  0  0  0  0  0  0  0  0  0  0  0
    3.7770   59.7060   71.1390 C   0  0  0  0  0  0  0  0  0  0  0  0
    1.7784   67.2939   70.1853 H   0  0  0  0  0  0  0  0  0  0  0  0
   -0.6428   68.1708   69.0099 H   0  0  0  0  0  0  0  0  0  0  0  0
    1.0157   68.8167   68.6509 H   0  0  0  0  0  0  0  0  0  0  0  0
    0.0803   66.2620   67.3506 H   0  0  0  0  0  0  0  0  0  0  0  0
   -0.4604   67.8677   66.7146 H   0  0  0  0  0  0  0  0  0  0  0  0
    1.2490   69.5628   66.6101 H   0  0  0  0  0  0  0  0  0  0  0  0
    3.0851   70.2799   68.3527 H   0  0  0  0  0  0  0  0  0  0  0  0
    4.2492   68.8693   68.4821 H   0  0  0  0  0  0  0  0  0  0  0  0
    4.8856   71.8347   68.5611 H   0  0  0  0  0  0  0  0  0  0  0  0
    5.1283   70.5905   69.8444 H   0  0  0  0  0  0  0  0  0  0  0  0
    7.2574   71.1055   68.7183 H   0  0  0  0  0  0  0  0  0  0  0  0
    6.7489   69.4146   68.3831 H   0  0  0  0  0  0  0  0  0  0  0  0
    6.4961   71.8511   66.5671 H   0  0  0  0  0  0  0  0  0  0  0  0
    7.4720   70.3298   66.3172 H   0  0  0  0  0  0  0  0  0  0  0  0
    1.4675   68.1714   63.8664 H   0  0  0  0  0  0  0  0  0  0  0  0
    2.0223   67.8119   61.4702 H   0  0  0  0  0  0  0  0  0  0  0  0
    4.2792   68.4433   60.6163 H   0  0  0  0  0  0  0  0  0  0  0  0
    5.9447   69.4459   62.1618 H   0  0  0  0  0  0  0  0  0  0  0  0
    1.1456   65.5668   71.8678 H   0  0  0  0  0  0  0  0  0  0  0  0
    0.1429   63.0227   70.6734 H   0  0  0  0  0  0  0  0  0  0  0  0
   -1.9284   60.5372   75.0213 H   0  0  0  0  0  0  0  0  0  0  0  0
   -2.7412   61.0880   73.5171 H   0  0  0  0  0  0  0  0  0  0  0  0
   -1.7879   59.5654   73.5171 H   0  0  0  0  0  0  0  0  0  0  0  0
    0.9291   59.8412   73.3553 H   0  0  0  0  0  0  0  0  0  0  0  0
   -0.3102   59.8130   72.0553 H   0  0  0  0  0  0  0  0  0  0  0  0
    0.9627   61.0804   72.0553 H   0  0  0  0  0  0  0  0  0  0  0  0
   -0.3335   61.5282   75.6770 H   0  0  0  0  0  0  0  0  0  0  0  0
    1.1976   61.3964   74.7469 H   0  0  0  0  0  0  0  0  0  0  0  0
    0.2766   62.9386   74.7469 H   0  0  0  0  0  0  0  0  0  0  0  0
    2.8361   65.1276   69.6989 H   0  0  0  0  0  0  0  0  0  0  0  0
    3.1847   64.8119   71.4735 H   0  0  0  0  0  0  0  0  0  0  0  0
    2.1989   62.9260   68.1979 H   0  0  0  0  0  0  0  0  0  0  0  0
    2.8330   60.4264   68.5236 H   0  0  0  0  0  0  0  0  0  0  0  0
    3.5693   63.0463   73.1851 H   0  0  0  0  0  0  0  0  0  0  0  0
    4.3730   60.9454   74.2684 H   0  0  0  0  0  0  0  0  0  0  0  0
    4.5058   58.8317   72.9788 H   0  0  0  0  0  0  0  0  0  0  0  0
    3.8274   58.7696   70.5640 H   0  0  0  0  0  0  0  0  0  0  0  0
  2  1  1  0
  3  2  2  0
  4  1  1  0
  5  4  1  0
  7  6  2  0
  7  5  1  0
  8  7  1  0
  9  8  1  0
 10  9  1  0
 11 10  1  0
 12 11  1  0
 13 12  1  0
 14 13  1  0
 15 14  1  0
 15 10  2  0
 16 15  1  0
 17 16  2  0
 18 17  1  0
 18  9  2  0
 19 18  1  0
 20 19  2  0
 21 20  1  0
 22 21  2  0
 22 17  1  0
 23  2  1  0
 24 23  1  0
 25 24  1  0
 26 25  2  0
 27 25  1  0
 28 27  1  0
 29 28  1  0
 30 28  1  0
 31 28  1  0
 32 23  1  0
 33 32  1  0
 34 33  2  0
 35 34  1  0
 36 35  1  0
 37 36  2  0
 37 33  1  0
 38 37  1  0
 39 38  2  0
 40 39  1  0
 41 36  1  0
 41 40  2  0
  1 42  1  0
  4 43  1  0
  4 44  1  0
  5 45  1  0
  5 46  1  0
  8 47  1  0
 11 48  1  0
 11 49  1  0
 12 50  1  0
 12 51  1  0
 13 52  1  0
 13 53  1  0
 14 54  1  0
 14 55  1  0
 19 56  1  0
 20 57  1  0
 21 58  1  0
 22 59  1  0
 23 60  1  1
 24 61  1  0
 29 62  1  0
 29 63  1  0
 29 64  1  0
 30 65  1  0
 30 66  1  0
 30 67  1  0
 31 68  1  0
 31 69  1  0
 31 70  1  0
 32 71  1  0
 32 72  1  0
 34 73  1  0
 35 74  1  0
 38 75  1  0
 39 76  1  0
 40 77  1  0
 41 78  1  0
M  END
>  <score>  (6) 
-12.296

$$$$
=
     RDKit          3D

 78 82  0  0  0  0  0  0  0  0999 V2000
    1.4210   66.9150   68.9500 N   0  0  0  0  0  0  0  0  0  0  0  0
    2.0040   68.1250   68.6440 C   0  0  0  0  0  0  0  0  0  0  0  0
    2.3640   68.9240   69.5090 O   0  0  0  0  0  0  0  0  0  0  0  0
    1.1370   66.5110   70.3140 C   0  0  0  0  0  0  0  0  0  0  0  0
   -0.0990   65.6250   70.4020 C   0  0  0  0  0  0  0  0  0  0  0  0
   -0.0710   63.3740   69.5450 O   0  0  0  0  0  0  0  0  0  0  0  0
    0.2770   64.1580   70.4200 C   0  0  0  0  0  0  0  0  0  0  0  0
    1.0560   63.8410   71.5310 N   0  0  0  0  0  0  0  0  0  0  0  0
    1.4370   62.5010   71.8160 C   0  0  0  0  0  0  0  0  0  0  0  0
    2.7370   62.0460   71.5160 C   0  0  0  0  0  0  0  0  0  0  0  0
    3.8290   62.9620   71.0090 C   0  0  0  0  0  0  0  0  0  0  0  0
    5.0600   62.2340   70.4690 C   0  0  0  0  0  0  0  0  0  0  0  0
    5.5000   61.1440   71.4320 C   0  0  0  0  0  0  0  0  0  0  0  0
    4.3880   60.1150   71.5820 C   0  0  0  0  0  0  0  0  0  0  0  0
    3.0440   60.7310   71.8780 C   0  0  0  0  0  0  0  0  0  0  0  0
    2.1660   59.9030   72.4930 N   0  0  0  0  0  0  0  0  0  0  0  0
    0.9440   60.3530   72.7950 C   0  0  0  0  0  0  0  0  0  0  0  0
    0.5070   61.6540   72.4850 C   0  0  0  0  0  0  0  0  0  0  0  0
   -0.8250   62.0130   72.8310 C   0  0  0  0  0  0  0  0  0  0  0  0
   -1.6770   61.1180   73.4810 C   0  0  0  0  0  0  0  0  0  0  0  0
   -1.2220   59.8480   73.7910 C   0  0  0  0  0  0  0  0  0  0  0  0
    0.0790   59.4800   73.4420 C   0  0  0  0  0  0  0  0  0  0  0  0
    2.1180   68.4450   67.1380 C   0  0  1  0  0  0  0  0  0  0  0  0
    0.8170   68.6090   66.4920 N   0  0  0  0  0  0  0  0  0  0  0  0
    0.1770   67.5870   65.8650 C   0  0  0  0  0  0  0  0  0  0  0  0
    0.6330   66.4670   65.7120 O   0  0  0  0  0  0  0  0  0  0  0  0
   -1.0430   68.0200   65.4760 O   0  0  0  0  0  0  0  0  0  0  0  0
   -2.0560   68.3540   66.4590 C   0  0  0  0  0  0  0  0  0  0  0  0
   -2.2100   67.2400   67.5000 C   0  0  0  0  0  0  0  0  0  0  0  0
   -1.5190   69.6110   67.1610 C   0  0  0  0  0  0  0  0  0  0  0  0
   -3.3910   68.7010   65.7890 C   0  0  0  0  0  0  0  0  0  0  0  0
    3.0390   69.6570   66.9190 C   0  0  0  0  0  0  0  0  0  0  0  0
    4.0520   69.4850   65.8200 C   0  0  0  0  0  0  0  0  0  0  0  0
    5.4220   69.6210   65.9470 C   0  0  0  0  0  0  0  0  0  0  0  0
    5.9960   69.3830   64.7280 N   0  0  0  0  0  0  0  0  0  0  0  0
    5.0290   69.0910   63.7970 C   0  0  0  0  0  0  0  0  0  0  0  0
    3.7950   69.1670   64.4460 C   0  0  0  0  0  0  0  0  0  0  0  0
    2.6280   68.9330   63.6890 C   0  0  0  0  0  0  0  0  0  0  0  0
    2.7360   68.6160   62.3310 C   0  0  0  0  0  0  0  0  0  0  0  0
    3.9820   68.5400   61.7160 C   0  0  0  0  0  0  0  0  0  0  0  0
    5.1540   68.7800   62.4380 C   0  0  0  0  0  0  0  0  0  0  0  0
    1.1777   66.2734   68.1819 H   0  0  0  0  0  0  0  0  0  0  0  0
    2.0010   65.9550   70.7067 H   0  0  0  0  0  0  0  0  0  0  0  0
    0.9462   67.4194   70.9043 H   0  0  0  0  0  0  0  0  0  0  0  0
   -0.6478   65.8658   71.3244 H   0  0  0  0  0  0  0  0  0  0  0  0
   -0.7250   65.8126   69.5171 H   0  0  0  0  0  0  0  0  0  0  0  0
    1.3633   64.5956   72.1611 H   0  0  0  0  0  0  0  0  0  0  0  0
    3.4122   63.5804   70.2004 H   0  0  0  0  0  0  0  0  0  0  0  0
    4.1671   63.5563   71.8707 H   0  0  0  0  0  0  0  0  0  0  0  0
    4.8150   61.7808   69.4971 H   0  0  0  0  0  0  0  0  0  0  0  0
    5.8795   62.9587   70.3542 H   0  0  0  0  0  0  0  0  0  0  0  0
    6.4030   60.6526   71.0407 H   0  0  0  0  0  0  0  0  0  0  0  0
    5.7192   61.5904   72.4132 H   0  0  0  0  0  0  0  0  0  0  0  0
    4.3119   59.5436   70.6451 H   0  0  0  0  0  0  0  0  0  0  0  0
    4.6491   59.4742   72.4371 H   0  0  0  0  0  0  0  0  0  0  0  0
   -1.1925   63.0191   72.5807 H   0  0  0  0  0  0  0  0  0  0  0  0
   -2.7015   61.4197   73.7446 H   0  0  0  0  0  0  0  0  0  0  0  0
   -1.8801   59.1343   74.3082 H   0  0  0  0  0  0  0  0  0  0  0  0
    0.4299   58.4667   73.6872 H   0  0  0  0  0  0  0  0  0  0  0  0
    2.5766   67.5743   66.6465 H   0  0  0  0  0  0  0  0  0  0  0  0
    0.3676   69.5356   66.5128 H   0  0  0  0  0  0  0  0  0  0  0  0
   -2.1504   67.6713   68.5102 H   0  0  0  0  0  0  0  0  0  0  0  0
   -3.1848   66.7475   67.3685 H   0  0  0  0  0  0  0  0  0  0  0  0
   -1.4054   66.5015   67.3685 H   0  0  0  0  0  0  0  0  0  0  0  0
   -1.5770   69.4752   68.2510 H   0  0  0  0  0  0  0  0  0  0  0  0
   -0.4719   69.7759   66.8672 H   0  0  0  0  0  0  0  0  0  0  0  0
   -2.1237   70.4816   66.8672 H   0  0  0  0  0  0  0  0  0  0  0  0
   -4.1488   68.8980   66.5617 H   0  0  0  0  0  0  0  0  0  0  0  0
   -3.2650   69.5962   65.1624 H   0  0  0  0  0  0  0  0  0  0  0  0
   -3.7169   67.8577   65.1624 H   0  0  0  0  0  0  0  0  0  0  0  0
    2.4102   70.5254   66.6729 H   0  0  0  0  0  0  0  0  0  0  0  0
    3.6095   69.7866   67.8505 H   0  0  0  0  0  0  0  0  0  0  0  0
    5.9597   69.8772   66.8718 H   0  0  0  0  0  0  0  0  0  0  0  0
    7.0074   69.4178   64.5361 H   0  0  0  0  0  0  0  0  0  0  0  0
    1.6382   68.9995   64.1642 H   0  0  0  0  0  0  0  0  0  0  0  0
    1.8263   68.4247   61.7429 H   0  0  0  0  0  0  0  0  0  0  0  0
    4.0451   68.2876   60.6472 H   0  0  0  0  0  0  0  0  0  0  0  0
    6.1408   68.7264   61.9550 H   0  0  0  0  0  0  0  0  0  0  0  0
  2  1  1  0
  3  2  2  0
  4  1  1  0
  5  4  1  0
  7  6  2  0
  7  5  1  0
  8  7  1  0
  9  8  1  0
 10  9  1  0
 11 10  1  0
 12 11  1  0
 13 12  1  0
 14 13  1  0
 15 14  1  0
 15 10  2  0
 16 15  1  0
 17 16  2  0
 18 17  1  0
 18  9  2  0
 19 18  1  0
 20 19  2  0
 21 20  1  0
 22 21  2  0
 22 17  1  0
 23  2  1  0
 24 23  1  0
 25 24  1  0
 26 25  2  0
 27 25  1  0
 28 27  1  0
 29 28  1  0
 30 28  1  0
 31 28  1  0
 32 23  1  0
 33 32  1  0
 34 33  2  0
 35 34  1  0
 36 35  1  0
 37 36  2  0
 37 33  1  0
 38 37  1  0
 39 38  2  0
 40 39  1  0
 41 36  1  0
 41 40  2  0
  1 42  1  0
  4 43  1  0
  4 44  1  0
  5 45  1  0
  5 46  1  0
  8 47  1  0
 11 48  1  0
 11 49  1  0
 12 50  1  0
 12 51  1  0
 13 52  1  0
 13 53  1  0
 14 54  1  0
 14 55  1  0
 19 56  1  0
 20 57  1  0
 21 58  1  0
 22 59  1  0
 23 60  1  6
 24 61  1  0
 29 62  1  0
 29 63  1  0
 29 64  1  0
 30 65  1  0
 30 66  1  0
 30 67  1  0
 31 68  1  0
 31 69  1  0
 31 70  1  0
 32 71  1  0
 32 72  1  0
 34 73  1  0
 35 74  1  0
 38 75  1  0
 39 76  1  0
 40 77  1  0
 41 78  1  0
M  END
>  <score>  (7) 
-12.134

$$$$
=
     RDKit          3D

 78 82  0  0  0  0  0  0  0  0999 V2000
    0.7900   67.0230   68.5390 N   0  0  0  0  0  0  0  0  0  0  0  0
    0.6100   68.0890   67.6830 C   0  0  0  0  0  0  0  0  0  0  0  0
   -0.4920   68.5980   67.4830 O   0  0  0  0  0  0  0  0  0  0  0  0
   -0.3140   66.3850   69.2300 C   0  0  0  0  0  0  0  0  0  0  0  0
    0.0960   65.8590   70.5980 C   0  0  0  0  0  0  0  0  0  0  0  0
    0.0030   63.6440   69.6560 O   0  0  0  0  0  0  0  0  0  0  0  0
    0.4160   64.3800   70.5450 C   0  0  0  0  0  0  0  0  0  0  0  0
    1.2280   63.9910   71.6070 N   0  0  0  0  0  0  0  0  0  0  0  0
    1.5710   62.6280   71.8250 C   0  0  0  0  0  0  0  0  0  0  0  0
    2.8520   62.1470   71.4860 C   0  0  0  0  0  0  0  0  0  0  0  0
    3.9660   63.0510   71.0070 C   0  0  0  0  0  0  0  0  0  0  0  0
    5.1660   62.3110   70.4170 C   0  0  0  0  0  0  0  0  0  0  0  0
    5.5830   61.1640   71.3220 C   0  0  0  0  0  0  0  0  0  0  0  0
    4.4410   60.1650   71.4390 C   0  0  0  0  0  0  0  0  0  0  0  0
    3.1210   60.8080   71.7820 C   0  0  0  0  0  0  0  0  0  0  0  0
    2.2250   59.9800   72.3700 N   0  0  0  0  0  0  0  0  0  0  0  0
    1.0210   60.4530   72.7100 C   0  0  0  0  0  0  0  0  0  0  0  0
    0.6220   61.7800   72.4670 C   0  0  0  0  0  0  0  0  0  0  0  0
   -0.6940   62.1630   72.8480 C   0  0  0  0  0  0  0  0  0  0  0  0
   -1.5650   61.2670   73.4670 C   0  0  0  0  0  0  0  0  0  0  0  0
   -1.1470   59.9700   73.7120 C   0  0  0  0  0  0  0  0  0  0  0  0
    0.1370   59.5780   73.3280 C   0  0  0  0  0  0  0  0  0  0  0  0
    1.8770   68.5620   66.9380 C   0  0  1  0  0  0  0  0  0  0  0  0
    2.8960   69.1030   67.8360 N   0  0  0  0  0  0  0  0  0  0  0  0
    3.9450   69.8430   67.3910 C   0  0  0  0  0  0  0  0  0  0  0  0
    4.1890   70.0750   66.2190 O   0  0  0  0  0  0  0  0  0  0  0  0
    4.6370   70.2920   68.4610 O   0  0  0  0  0  0  0  0  0  0  0  0
    6.0080   70.7460   68.3180 C   0  0  0  0  0  0  0  0  0  0  0  0
    6.7090   70.0370   67.1530 C   0  0  0  0  0  0  0  0  0  0  0  0
    5.8910   72.2410   67.9840 C   0  0  0  0  0  0  0  0  0  0  0  0
    6.7860   70.5960   69.6310 C   0  0  0  0  0  0  0  0  0  0  0  0
    2.4220   67.4340   66.0440 C   0  0  0  0  0  0  0  0  0  0  0  0
    2.6180   67.8170   64.6020 C   0  0  0  0  0  0  0  0  0  0  0  0
    3.7720   67.6370   63.8620 C   0  0  0  0  0  0  0  0  0  0  0  0
    3.5530   68.1080   62.5970 N   0  0  0  0  0  0  0  0  0  0  0  0
    2.2730   68.5950   62.4860 C   0  0  0  0  0  0  0  0  0  0  0  0
    1.6660   68.4460   63.7350 C   0  0  0  0  0  0  0  0  0  0  0  0
    0.3410   68.9030   63.8900 C   0  0  0  0  0  0  0  0  0  0  0  0
   -0.3290   69.4680   62.8000 C   0  0  0  0  0  0  0  0  0  0  0  0
    0.3010   69.5940   61.5660 C   0  0  0  0  0  0  0  0  0  0  0  0
    1.6180   69.1620   61.3860 C   0  0  0  0  0  0  0  0  0  0  0  0
    1.7440   66.6666   68.6934 H   0  0  0  0  0  0  0  0  0  0  0  0
   -1.1231   67.1188   69.3598 H   0  0  0  0  0  0  0  0  0  0  0  0
   -0.6455   65.5297   68.6229 H   0  0  0  0  0  0  0  0  0  0  0  0
    0.9867   66.4064   70.9402 H   0  0  0  0  0  0  0  0  0  0  0  0
   -0.7432   66.0081   71.2933 H   0  0  0  0  0  0  0  0  0  0  0  0
    1.5896   64.7087   72.2513 H   0  0  0  0  0  0  0  0  0  0  0  0
    3.5591   63.7193   70.2338 H   0  0  0  0  0  0  0  0  0  0  0  0
    4.3335   63.5936   71.8904 H   0  0  0  0  0  0  0  0  0  0  0  0
    4.8945   61.9117   69.4286 H   0  0  0  0  0  0  0  0  0  0  0  0
    6.0067   63.0143   70.3247 H   0  0  0  0  0  0  0  0  0  0  0  0
    6.4650   60.6635   70.8959 H   0  0  0  0  0  0  0  0  0  0  0  0
    5.8286   61.5566   72.3198 H   0  0  0  0  0  0  0  0  0  0  0  0
    4.3351   59.6411   70.4776 H   0  0  0  0  0  0  0  0  0  0  0  0
    4.6920   59.4768   72.2596 H   0  0  0  0  0  0  0  0  0  0  0  0
   -1.0327   63.1906   72.6496 H   0  0  0  0  0  0  0  0  0  0  0  0
   -2.5760   61.5881   73.7583 H   0  0  0  0  0  0  0  0  0  0  0  0
   -1.8210   59.2541   74.2052 H   0  0  0  0  0  0  0  0  0  0  0  0
    0.4584   58.5439   73.5210 H   0  0  0  0  0  0  0  0  0  0  0  0
    1.5875   69.4025   66.2901 H   0  0  0  0  0  0  0  0  0  0  0  0
    2.8155   68.9158   68.8456 H   0  0  0  0  0  0  0  0  0  0  0  0
    7.4306   69.3072   67.5488 H   0  0  0  0  0  0  0  0  0  0  0  0
    5.9610   69.5161   66.5373 H   0  0  0  0  0  0  0  0  0  0  0  0
    7.2383   70.7791   66.5373 H   0  0  0  0  0  0  0  0  0  0  0  0
    5.8455   72.8226   68.9166 H   0  0  0  0  0  0  0  0  0  0  0  0
    6.7673   72.5555   67.3981 H   0  0  0  0  0  0  0  0  0  0  0  0
    4.9765   72.4153   67.3981 H   0  0  0  0  0  0  0  0  0  0  0  0
    6.1001   70.7282   70.4808 H   0  0  0  0  0  0  0  0  0  0  0  0
    7.2379   69.5942   69.6770 H   0  0  0  0  0  0  0  0  0  0  0  0
    7.5780   71.3580   69.6770 H   0  0  0  0  0  0  0  0  0  0  0  0
    3.3934   67.1141   66.4491 H   0  0  0  0  0  0  0  0  0  0  0  0
    1.6660   66.6351   66.0544 H   0  0  0  0  0  0  0  0  0  0  0  0
    4.7080   67.1904   64.2288 H   0  0  0  0  0  0  0  0  0  0  0  0
    4.2478   68.0990   61.8367 H   0  0  0  0  0  0  0  0  0  0  0  0
   -0.1633   68.8155   64.8637 H   0  0  0  0  0  0  0  0  0  0  0  0
   -1.3654   69.8166   62.9197 H   0  0  0  0  0  0  0  0  0  0  0  0
   -0.2445   70.0394   60.7210 H   0  0  0  0  0  0  0  0  0  0  0  0
    2.1225   69.2639   60.4138 H   0  0  0  0  0  0  0  0  0  0  0  0
  2  1  1  0
  3  2  2  0
  4  1  1  0
  5  4  1  0
  7  6  2  0
  7  5  1  0
  8  7  1  0
  9  8  1  0
 10  9  1  0
 11 10  1  0
 12 11  1  0
 13 12  1  0
 14 13  1  0
 15 14  1  0
 15 10  2  0
 16 15  1  0
 17 16  2  0
 18 17  1  0
 18  9  2  0
 19 18  1  0
 20 19  2  0
 21 20  1  0
 22 21  2  0
 22 17  1  0
 23  2  1  0
 24 23  1  0
 25 24  1  0
 26 25  2  0
 27 25  1  0
 28 27  1  0
 29 28  1  0
 30 28  1  0
 31 28  1  0
 32 23  1  0
 33 32  1  0
 34 33  2  0
 35 34  1  0
 36 35  1  0
 37 36  2  0
 37 33  1  0
 38 37  1  0
 39 38  2  0
 40 39  1  0
 41 36  1  0
 41 40  2  0
  1 42  1  0
  4 43  1  0
  4 44  1  0
  5 45  1  0
  5 46  1  0
  8 47  1  0
 11 48  1  0
 11 49  1  0
 12 50  1  0
 12 51  1  0
 13 52  1  0
 13 53  1  0
 14 54  1  0
 14 55  1  0
 19 56  1  0
 20 57  1  0
 21 58  1  0
 22 59  1  0
 23 60  1  6
 24 61  1  0
 29 62  1  0
 29 63  1  0
 29 64  1  0
 30 65  1  0
 30 66  1  0
 30 67  1  0
 31 68  1  0
 31 69  1  0
 31 70  1  0
 32 71  1  0
 32 72  1  0
 34 73  1  0
 35 74  1  0
 38 75  1  0
 39 76  1  0
 40 77  1  0
 41 78  1  0
M  END
>  <score>  (8) 
-12.109

$$$$
=
     RDKit          3D

 78 82  0  0  0  0  0  0  0  0999 V2000
    1.2300   66.9240   68.8420 N   0  0  0  0  0  0  0  0  0  0  0  0
    1.8970   68.1010   68.5790 C   0  0  0  0  0  0  0  0  0  0  0  0
    2.2760   68.8610   69.4700 O   0  0  0  0  0  0  0  0  0  0  0  0
    0.8760   66.5150   70.1880 C   0  0  0  0  0  0  0  0  0  0  0  0
    0.0120   65.2620   70.1950 C   0  0  0  0  0  0  0  0  0  0  0  0
    0.2840   64.6920   72.5200 O   0  0  0  0  0  0  0  0  0  0  0  0
    0.3770   64.3490   71.3470 C   0  0  0  0  0  0  0  0  0  0  0  0
    0.8090   63.1040   70.8980 N   0  0  0  0  0  0  0  0  0  0  0  0
    1.3070   62.1190   71.7960 C   0  0  0  0  0  0  0  0  0  0  0  0
    0.4300   61.4040   72.6360 C   0  0  0  0  0  0  0  0  0  0  0  0
   -1.0750   61.5330   72.5480 C   0  0  0  0  0  0  0  0  0  0  0  0
   -1.8290   60.9110   73.7230 C   0  0  0  0  0  0  0  0  0  0  0  0
   -1.2970   59.5200   74.0220 C   0  0  0  0  0  0  0  0  0  0  0  0
    0.1710   59.6080   74.4140 C   0  0  0  0  0  0  0  0  0  0  0  0
    0.9970   60.4180   73.4480 C   0  0  0  0  0  0  0  0  0  0  0  0
    2.3200   60.1290   73.4540 N   0  0  0  0  0  0  0  0  0  0  0  0
    3.1400   60.7960   72.6360 C   0  0  0  0  0  0  0  0  0  0  0  0
    2.6990   61.8130   71.7690 C   0  0  0  0  0  0  0  0  0  0  0  0
    3.6680   62.4720   70.9630 C   0  0  0  0  0  0  0  0  0  0  0  0
    5.0160   62.1160   71.0040 C   0  0  0  0  0  0  0  0  0  0  0  0
    5.4270   61.1010   71.8520 C   0  0  0  0  0  0  0  0  0  0  0  0
    4.4870   60.4570   72.6590 C   0  0  0  0  0  0  0  0  0  0  0  0
    2.0810   68.4390   67.0840 C   0  0  1  0  0  0  0  0  0  0  0  0
    0.8130   68.6560   66.3890 N   0  0  0  0  0  0  0  0  0  0  0  0
    0.1130   67.6440   65.8120 C   0  0  0  0  0  0  0  0  0  0  0  0
    0.4850   66.4860   65.7460 O   0  0  0  0  0  0  0  0  0  0  0  0
   -1.0610   68.1390   65.3600 O   0  0  0  0  0  0  0  0  0  0  0  0
   -2.1210   68.4900   66.2850 C   0  0  0  0  0  0  0  0  0  0  0  0
   -2.4100   67.3430   67.2600 C   0  0  0  0  0  0  0  0  0  0  0  0
   -1.5650   69.6810   67.0810 C   0  0  0  0  0  0  0  0  0  0  0  0
   -3.3830   68.9430   65.5430 C   0  0  0  0  0  0  0  0  0  0  0  0
    3.0490   69.6240   66.9200 C   0  0  0  0  0  0  0  0  0  0  0  0
    4.0580   69.4620   65.8170 C   0  0  0  0  0  0  0  0  0  0  0  0
    5.4300   69.5730   65.9450 C   0  0  0  0  0  0  0  0  0  0  0  0
    6.0000   69.3550   64.7210 N   0  0  0  0  0  0  0  0  0  0  0  0
    5.0280   69.1010   63.7840 C   0  0  0  0  0  0  0  0  0  0  0  0
    3.7950   69.1810   64.4360 C   0  0  0  0  0  0  0  0  0  0  0  0
    2.6240   68.9850   63.6740 C   0  0  0  0  0  0  0  0  0  0  0  0
    2.7260   68.6990   62.3090 C   0  0  0  0  0  0  0  0  0  0  0  0
    3.9700   68.6170   61.6910 C   0  0  0  0  0  0  0  0  0  0  0  0
    5.1470   68.8210   62.4170 C   0  0  0  0  0  0  0  0  0  0  0  0
    0.9735   66.3124   68.0540 H   0  0  0  0  0  0  0  0  0  0  0  0
    1.7986   66.3133   70.7520 H   0  0  0  0  0  0  0  0  0  0  0  0
    0.2974   67.3290   70.6491 H   0  0  0  0  0  0  0  0  0  0  0  0
   -1.0439   65.5552   70.2907 H   0  0  0  0  0  0  0  0  0  0  0  0
    0.1808   64.7183   69.2538 H   0  0  0  0  0  0  0  0  0  0  0  0
    0.7671   62.8907   69.8912 H   0  0  0  0  0  0  0  0  0  0  0  0
   -1.3272   62.6028   72.5043 H   0  0  0  0  0  0  0  0  0  0  0  0
   -1.3863   60.9835   71.6474 H   0  0  0  0  0  0  0  0  0  0  0  0
   -1.7008   61.5461   74.6119 H   0  0  0  0  0  0  0  0  0  0  0  0
   -2.8946   60.8349   73.4608 H   0  0  0  0  0  0  0  0  0  0  0  0
   -1.8712   59.0787   74.8500 H   0  0  0  0  0  0  0  0  0  0  0  0
   -1.3987   58.8897   73.1262 H   0  0  0  0  0  0  0  0  0  0  0  0
    0.2399   60.0734   75.4083 H   0  0  0  0  0  0  0  0  0  0  0  0
    0.5725   58.5839   74.4079 H   0  0  0  0  0  0  0  0  0  0  0  0
    3.3467   63.2817   70.2913 H   0  0  0  0  0  0  0  0  0  0  0  0
    5.7467   62.6371   70.3680 H   0  0  0  0  0  0  0  0  0  0  0  0
    6.4856   60.8045   71.8894 H   0  0  0  0  0  0  0  0  0  0  0  0
    4.8235   59.6563   73.3340 H   0  0  0  0  0  0  0  0  0  0  0  0
    2.5300   67.5601   66.5983 H   0  0  0  0  0  0  0  0  0  0  0  0
    0.4357   69.6129   66.3346 H   0  0  0  0  0  0  0  0  0  0  0  0
   -2.3180   67.7083   68.2935 H   0  0  0  0  0  0  0  0  0  0  0  0
   -3.4306   66.9682   67.0931 H   0  0  0  0  0  0  0  0  0  0  0  0
   -1.6888   66.5294   67.0931 H   0  0  0  0  0  0  0  0  0  0  0  0
   -1.6596   69.4784   68.1580 H   0  0  0  0  0  0  0  0  0  0  0  0
   -0.5049   69.8287   66.8274 H   0  0  0  0  0  0  0  0  0  0  0  0
   -2.1325   70.5885   66.8274 H   0  0  0  0  0  0  0  0  0  0  0  0
   -4.1576   69.2210   66.2729 H   0  0  0  0  0  0  0  0  0  0  0  0
   -3.1452   69.8119   64.9118 H   0  0  0  0  0  0  0  0  0  0  0  0
   -3.7521   68.1212   64.9118 H   0  0  0  0  0  0  0  0  0  0  0  0
    2.4547   70.5258   66.7112 H   0  0  0  0  0  0  0  0  0  0  0  0
    3.6208   69.6906   67.8573 H   0  0  0  0  0  0  0  0  0  0  0  0
    5.9722   69.7987   66.8751 H   0  0  0  0  0  0  0  0  0  0  0  0
    7.0118   69.3779   64.5294 H   0  0  0  0  0  0  0  0  0  0  0  0
    1.6355   69.0568   64.1513 H   0  0  0  0  0  0  0  0  0  0  0  0
    1.8129   68.5371   61.7174 H   0  0  0  0  0  0  0  0  0  0  0  0
    4.0280   68.3885   60.6166 H   0  0  0  0  0  0  0  0  0  0  0  0
    6.1324   68.7636   61.9315 H   0  0  0  0  0  0  0  0  0  0  0  0
  2  1  1  0
  3  2  2  0
  4  1  1  0
  5  4  1  0
  7  6  2  0
  7  5  1  0
  8  7  1  0
  9  8  1  0
 10  9  1  0
 11 10  1  0
 12 11  1  0
 13 12  1  0
 14 13  1  0
 15 14  1  0
 15 10  2  0
 16 15  1  0
 17 16  2  0
 18 17  1  0
 18  9  2  0
 19 18  1  0
 20 19  2  0
 21 20  1  0
 22 21  2  0
 22 17  1  0
 23  2  1  0
 24 23  1  0
 25 24  1  0
 26 25  2  0
 27 25  1  0
 28 27  1  0
 29 28  1  0
 30 28  1  0
 31 28  1  0
 32 23  1  0
 33 32  1  0
 34 33  2  0
 35 34  1  0
 36 35  1  0
 37 36  2  0
 37 33  1  0
 38 37  1  0
 39 38  2  0
 40 39  1  0
 41 36  1  0
 41 40  2  0
  1 42  1  0
  4 43  1  0
  4 44  1  0
  5 45  1  0
  5 46  1  0
  8 47  1  0
 11 48  1  0
 11 49  1  0
 12 50  1  0
 12 51  1  0
 13 52  1  0
 13 53  1  0
 14 54  1  0
 14 55  1  0
 19 56  1  0
 20 57  1  0
 21 58  1  0
 22 59  1  0
 23 60  1  6
 24 61  1  0
 29 62  1  0
 29 63  1  0
 29 64  1  0
 30 65  1  0
 30 66  1  0
 30 67  1  0
 31 68  1  0
 31 69  1  0
 31 70  1  0
 32 71  1  0
 32 72  1  0
 34 73  1  0
 35 74  1  0
 38 75  1  0
 39 76  1  0
 40 77  1  0
 41 78  1  0
M  END
>  <score>  (9) 
-12.071

$$$$
