=
     RDKit          3D

 42 43  0  0  0  0  0  0  0  0999 V2000
   -0.1280   68.2890   65.7100 C   0  0  0  0  0  0  0  0  0  0  0  0
    0.7200   68.6670   64.4880 C   0  0  0  0  0  0  0  0  0  0  0  0
    3.8120   65.7980   63.9050 C   0  0  0  0  0  0  0  0  0  0  0  0
    2.7640   65.5320   64.7850 C   0  0  0  0  0  0  0  0  0  0  0  0
    1.7590   66.4800   64.9590 C   0  0  0  0  0  0  0  0  0  0  0  0
    1.7910   67.6550   64.2800 N   0  0  0  0  0  4  0  0  0  0  0  0
    2.8160   67.9280   63.4370 C   0  0  0  0  0  0  0  0  0  0  0  0
    3.8350   67.0100   63.2290 C   0  0  0  0  0  0  0  0  0  0  0  0
    4.8090   67.3410   62.3740 F   0  0  0  0  0  0  0  0  0  0  0  0
    4.5980   63.6130   63.2310 N   0  0  0  0  0  0  0  0  0  0  0  0
    4.8580   64.7770   63.7250 C   0  0  0  0  0  0  0  0  0  0  0  0
    5.7840   62.8720   63.1930 O   0  0  0  0  0  0  0  0  0  0  0  0
    0.1970   69.1560   66.9370 C   0  0  0  0  0  0  0  0  0  0  0  0
    1.1600   68.4610   67.9110 C   0  0  0  0  0  0  0  0  0  0  0  0
    2.4160   69.2490   68.0260 N   0  0  0  0  0  4  0  0  0  0  0  0
    2.6730   69.9550   69.1550 C   0  0  0  0  0  0  0  0  0  0  0  0
    3.8450   70.6940   69.2860 C   0  0  0  0  0  0  0  0  0  0  0  0
    4.7580   70.7070   68.2370 C   0  0  0  0  0  0  0  0  0  0  0  0
    4.4750   69.9840   67.0780 C   0  0  0  0  0  0  0  0  0  0  0  0
    3.2910   69.2680   66.9910 C   0  0  0  0  0  0  0  0  0  0  0  0
    6.0620   71.4070   68.3150 C   0  0  0  0  0  0  0  0  0  0  0  0
    6.1420   72.5790   67.9800 O   0  0  0  0  0  0  0  0  0  0  0  0
    7.1410   70.7120   68.7730 N   0  0  0  0  0  0  0  0  0  0  0  0
   -1.1906   68.4186   65.4568 H   0  0  0  0  0  0  0  0  0  0  0  0
    0.0995   67.2439   65.9669 H   0  0  0  0  0  0  0  0  0  0  0  0
    0.0772   68.7058   63.5962 H   0  0  0  0  0  0  0  0  0  0  0  0
    1.1809   69.6512   64.6583 H   0  0  0  0  0  0  0  0  0  0  0  0
    2.7313   64.5812   65.3373 H   0  0  0  0  0  0  0  0  0  0  0  0
    0.9310   66.2747   65.6535 H   0  0  0  0  0  0  0  0  0  0  0  0
    2.8405   68.8928   62.9092 H   0  0  0  0  0  0  0  0  0  0  0  0
    5.8910   65.0131   64.0201 H   0  0  0  0  0  0  0  0  0  0  0  0
    5.7784   61.9466   62.8414 H   0  0  0  0  0  0  0  0  0  0  0  0
    0.6584   70.0937   66.5939 H   0  0  0  0  0  0  0  0  0  0  0  0
   -0.7450   69.3411   67.4740 H   0  0  0  0  0  0  0  0  0  0  0  0
    0.6857   68.3834   68.9005 H   0  0  0  0  0  0  0  0  0  0  0  0
    1.3956   67.4552   67.5330 H   0  0  0  0  0  0  0  0  0  0  0  0
    1.9446   69.9434   69.9792 H   0  0  0  0  0  0  0  0  0  0  0  0
    4.0466   71.2604   70.2072 H   0  0  0  0  0  0  0  0  0  0  0  0
    5.1863   69.9820   66.2390 H   0  0  0  0  0  0  0  0  0  0  0  0
    3.0592   68.7094   66.0722 H   0  0  0  0  0  0  0  0  0  0  0  0
    8.0602   71.1722   68.8382 H   0  0  0  0  0  0  0  0  0  0  0  0
    7.0374   69.7265   69.0539 H   0  0  0  0  0  0  0  0  0  0  0  0
  2  1  1  0
  4  3  2  0
  5  4  1  0
  6  5  2  0
  6  2  1  0
  7  6  1  0
  8  7  2  0
  8  3  1  0
  9  8  1  0
 11 10  2  0
 11  3  1  0
 12 10  1  0
 13  1  1  0
 14 13  1  0
 15 14  1  0
 16 15  2  0
 17 16  1  0
 18 17  2  0
 19 18  1  0
 20 19  2  0
 20 15  1  0
 21 18  1  0
 22 21  2  0
 23 21  1  0
  1 24  1  0
  1 25  1  0
  2 26  1  0
  2 27  1  0
  4 28  1  0
  5 29  1  0
  7 30  1  0
 11 31  1  0
 12 32  1  0
 13 33  1  0
 13 34  1  0
 14 35  1  0
 14 36  1  0
 16 37  1  0
 17 38  1  0
 19 39  1  0
 20 40  1  0
 23 41  1  0
 23 42  1  0
M  CHG  2   6   1  15   1
M  END
>  <score>  (1) 
-8.81

$$$$
=
     RDKit          3D

 42 43  0  0  0  0  0  0  0  0999 V2000
    0.8900   64.4330   70.3150 C   0  0  0  0  0  0  0  0  0  0  0  0
    2.3800   64.2020   70.6060 C   0  0  0  0  0  0  0  0  0  0  0  0
    3.1220   60.0240   70.9520 C   0  0  0  0  0  0  0  0  0  0  0  0
    3.9100   60.8090   70.1110 C   0  0  0  0  0  0  0  0  0  0  0  0
    3.6550   62.1750   70.0140 C   0  0  0  0  0  0  0  0  0  0  0  0
    2.6530   62.7450   70.7310 N   0  0  0  0  0  4  0  0  0  0  0  0
    1.8720   61.9830   71.5360 C   0  0  0  0  0  0  0  0  0  0  0  0
    2.0940   60.6210   71.6670 C   0  0  0  0  0  0  0  0  0  0  0  0
    1.2920   59.9340   72.4880 F   0  0  0  0  0  0  0  0  0  0  0  0
    3.7620   57.8850   70.0220 N   0  0  0  0  0  0  0  0  0  0  0  0
    3.4160   58.5840   71.0500 C   0  0  0  0  0  0  0  0  0  0  0  0
    3.9650   56.5630   70.4300 O   0  0  0  0  0  0  0  0  0  0  0  0
    0.4820   65.9050   70.4890 C   0  0  0  0  0  0  0  0  0  0  0  0
    1.1530   66.8270   69.4610 C   0  0  0  0  0  0  0  0  0  0  0  0
    0.1440   67.3090   68.4810 N   0  0  0  0  0  4  0  0  0  0  0  0
    0.4420   68.3380   67.6500 C   0  0  0  0  0  0  0  0  0  0  0  0
   -0.4850   68.8020   66.7210 C   0  0  0  0  0  0  0  0  0  0  0  0
   -1.7370   68.1980   66.6560 C   0  0  0  0  0  0  0  0  0  0  0  0
   -2.0330   67.1470   67.5250 C   0  0  0  0  0  0  0  0  0  0  0  0
   -1.0780   66.7250   68.4370 C   0  0  0  0  0  0  0  0  0  0  0  0
   -2.7600   68.5760   65.6530 C   0  0  0  0  0  0  0  0  0  0  0  0
   -2.4290   68.7670   64.4930 O   0  0  0  0  0  0  0  0  0  0  0  0
   -4.0540   68.6910   66.0630 N   0  0  0  0  0  0  0  0  0  0  0  0
    0.6807   64.1282   69.2790 H   0  0  0  0  0  0  0  0  0  0  0  0
    0.3105   63.8362   71.0347 H   0  0  0  0  0  0  0  0  0  0  0  0
    2.9806   64.6160   69.7827 H   0  0  0  0  0  0  0  0  0  0  0  0
    2.6459   64.7019   71.5491 H   0  0  0  0  0  0  0  0  0  0  0  0
    4.7254   60.3538   69.5296 H   0  0  0  0  0  0  0  0  0  0  0  0
    4.2718   62.7981   69.3497 H   0  0  0  0  0  0  0  0  0  0  0  0
    1.0490   62.4533   72.0941 H   0  0  0  0  0  0  0  0  0  0  0  0
    3.3382   58.0894   72.0294 H   0  0  0  0  0  0  0  0  0  0  0  0
    4.2376   55.8775   69.7698 H   0  0  0  0  0  0  0  0  0  0  0  0
   -0.6092   65.9844   70.3747 H   0  0  0  0  0  0  0  0  0  0  0  0
    0.8086   66.2262   71.4891 H   0  0  0  0  0  0  0  0  0  0  0  0
    1.5987   67.6886   69.9796 H   0  0  0  0  0  0  0  0  0  0  0  0
    1.9369   66.2677   68.9292 H   0  0  0  0  0  0  0  0  0  0  0  0
    1.4320   68.8137   67.7109 H   0  0  0  0  0  0  0  0  0  0  0  0
   -0.2315   69.6342   66.0479 H   0  0  0  0  0  0  0  0  0  0  0  0
   -3.0170   66.6569   67.4866 H   0  0  0  0  0  0  0  0  0  0  0  0
   -1.3149   65.9067   69.1329 H   0  0  0  0  0  0  0  0  0  0  0  0
   -4.7868   68.9524   65.3880 H   0  0  0  0  0  0  0  0  0  0  0  0
   -4.2996   68.5166   67.0480 H   0  0  0  0  0  0  0  0  0  0  0  0
  2  1  1  0
  4  3  2  0
  5  4  1  0
  6  5  2  0
  6  2  1  0
  7  6  1  0
  8  7  2  0
  8  3  1  0
  9  8  1  0
 11 10  2  0
 11  3  1  0
 12 10  1  0
 13  1  1  0
 14 13  1  0
 15 14  1  0
 16 15  2  0
 17 16  1  0
 18 17  2  0
 19 18  1  0
 20 19  2  0
 20 15  1  0
 21 18  1  0
 22 21  2  0
 23 21  1  0
  1 24  1  0
  1 25  1  0
  2 26  1  0
  2 27  1  0
  4 28  1  0
  5 29  1  0
  7 30  1  0
 11 31  1  0
 12 32  1  0
 13 33  1  0
 13 34  1  0
 14 35  1  0
 14 36  1  0
 16 37  1  0
 17 38  1  0
 19 39  1  0
 20 40  1  0
 23 41  1  0
 23 42  1  0
M  CHG  2   6   1  15   1
M  END
>  <score>  (2) 
-8.608

$$$$
=
     RDKit          3D

 42 43  0  0  0  0  0  0  0  0999 V2000
    0.1060   67.2010   67.1550 C   0  0  0  0  0  0  0  0  0  0  0  0
   -0.7290   68.1330   66.2660 C   0  0  0  0  0  0  0  0  0  0  0  0
    1.2580   68.8090   62.5610 C   0  0  0  0  0  0  0  0  0  0  0  0
    1.8800   68.0710   63.5660 C   0  0  0  0  0  0  0  0  0  0  0  0
    1.2130   67.8560   64.7700 C   0  0  0  0  0  0  0  0  0  0  0  0
   -0.0330   68.3550   64.9690 N   0  0  0  0  0  4  0  0  0  0  0  0
   -0.6370   69.0890   64.0020 C   0  0  0  0  0  0  0  0  0  0  0  0
   -0.0110   69.3230   62.7870 C   0  0  0  0  0  0  0  0  0  0  0  0
   -0.6710   70.0460   61.8750 F   0  0  0  0  0  0  0  0  0  0  0  0
    3.2500   68.8480   61.1910 N   0  0  0  0  0  0  0  0  0  0  0  0
    1.9740   69.0140   61.2910 C   0  0  0  0  0  0  0  0  0  0  0  0
    3.6330   69.1210   59.8740 O   0  0  0  0  0  0  0  0  0  0  0  0
    0.8150   67.9580   68.2900 C   0  0  0  0  0  0  0  0  0  0  0  0
    1.0000   69.4500   67.9760 C   0  0  0  0  0  0  0  0  0  0  0  0
    2.4480   69.7860   67.9510 N   0  0  0  0  0  4  0  0  0  0  0  0
    3.2010   69.4590   66.8720 C   0  0  0  0  0  0  0  0  0  0  0  0
    4.5580   69.7680   66.8240 C   0  0  0  0  0  0  0  0  0  0  0  0
    5.1420   70.4170   67.9080 C   0  0  0  0  0  0  0  0  0  0  0  0
    4.3560   70.7370   69.0150 C   0  0  0  0  0  0  0  0  0  0  0  0
    3.0110   70.4030   69.0180 C   0  0  0  0  0  0  0  0  0  0  0  0
    6.5590   70.8490   67.9160 C   0  0  0  0  0  0  0  0  0  0  0  0
    6.9310   71.6890   68.7220 O   0  0  0  0  0  0  0  0  0  0  0  0
    7.4130   70.2810   67.0200 N   0  0  0  0  0  0  0  0  0  0  0  0
   -0.5587   66.4436   67.5961 H   0  0  0  0  0  0  0  0  0  0  0  0
    0.8795   66.7383   66.5245 H   0  0  0  0  0  0  0  0  0  0  0  0
   -1.7114   67.6749   66.0789 H   0  0  0  0  0  0  0  0  0  0  0  0
   -0.8598   69.0986   66.7764 H   0  0  0  0  0  0  0  0  0  0  0  0
    2.8890   67.6617   63.4100 H   0  0  0  0  0  0  0  0  0  0  0  0
    1.7012   67.2761   65.5671 H   0  0  0  0  0  0  0  0  0  0  0  0
   -1.6388   69.5052   64.1841 H   0  0  0  0  0  0  0  0  0  0  0  0
    1.4042   69.3178   60.4005 H   0  0  0  0  0  0  0  0  0  0  0  0
    4.5839   69.0450   59.6092 H   0  0  0  0  0  0  0  0  0  0  0  0
    0.2147   67.8622   69.2068 H   0  0  0  0  0  0  0  0  0  0  0  0
    1.8147   67.5159   68.4132 H   0  0  0  0  0  0  0  0  0  0  0  0
    0.5566   69.6739   66.9945 H   0  0  0  0  0  0  0  0  0  0  0  0
    0.5028   70.0482   68.7538 H   0  0  0  0  0  0  0  0  0  0  0  0
    2.7329   68.9417   66.0215 H   0  0  0  0  0  0  0  0  0  0  0  0
    5.1597   69.5030   65.9421 H   0  0  0  0  0  0  0  0  0  0  0  0
    4.8008   71.2510   69.8798 H   0  0  0  0  0  0  0  0  0  0  0  0
    2.3935   70.6415   69.8965 H   0  0  0  0  0  0  0  0  0  0  0  0
    8.4037   70.5624   67.0031 H   0  0  0  0  0  0  0  0  0  0  0  0
    7.0682   69.5701   66.3593 H   0  0  0  0  0  0  0  0  0  0  0  0
  2  1  1  0
  4  3  2  0
  5  4  1  0
  6  5  2  0
  6  2  1  0
  7  6  1  0
  8  7  2  0
  8  3  1  0
  9  8  1  0
 11 10  2  0
 11  3  1  0
 12 10  1  0
 13  1  1  0
 14 13  1  0
 15 14  1  0
 16 15  2  0
 17 16  1  0
 18 17  2  0
 19 18  1  0
 20 19  2  0
 20 15  1  0
 21 18  1  0
 22 21  2  0
 23 21  1  0
  1 24  1  0
  1 25  1  0
  2 26  1  0
  2 27  1  0
  4 28  1  0
  5 29  1  0
  7 30  1  0
 11 31  1  0
 12 32  1  0
 13 33  1  0
 13 34  1  0
 14 35  1  0
 14 36  1  0
 16 37  1  0
 17 38  1  0
 19 39  1  0
 20 40  1  0
 23 41  1  0
 23 42  1  0
M  CHG  2   6   1  15   1
M  END
>  <score>  (3) 
-8.452

$$$$
=
     RDKit          3D

 42 43  0  0  0  0  0  0  0  0999 V2000
    1.0990   66.8350   69.5180 C   0  0  0  0  0  0  0  0  0  0  0  0
    0.3770   65.8900   70.4890 C   0  0  0  0  0  0  0  0  0  0  0  0
    2.5950   62.2790   70.9010 C   0  0  0  0  0  0  0  0  0  0  0  0
    1.2560   62.3280   71.2860 C   0  0  0  0  0  0  0  0  0  0  0  0
    0.5450   63.5170   71.1400 C   0  0  0  0  0  0  0  0  0  0  0  0
    1.1430   64.6210   70.6250 N   0  0  0  0  0  4  0  0  0  0  0  0
    2.4490   64.5850   70.2660 C   0  0  0  0  0  0  0  0  0  0  0  0
    3.1930   63.4210   70.3900 C   0  0  0  0  0  0  0  0  0  0  0  0
    4.4740   63.4550   70.0040 F   0  0  0  0  0  0  0  0  0  0  0  0
    3.3650   60.1270   70.1110 N   0  0  0  0  0  0  0  0  0  0  0  0
    3.3260   61.0090   71.0520 C   0  0  0  0  0  0  0  0  0  0  0  0
    4.1240   59.0380   70.5530 O   0  0  0  0  0  0  0  0  0  0  0  0
    0.2240   67.2140   68.3130 C   0  0  0  0  0  0  0  0  0  0  0  0
    0.3360   68.7020   67.9490 C   0  0  0  0  0  0  0  0  0  0  0  0
    1.6490   68.9650   67.3010 N   0  0  0  0  0  4  0  0  0  0  0  0
    1.8650   68.5710   66.0210 C   0  0  0  0  0  0  0  0  0  0  0  0
    3.0830   68.8110   65.3930 C   0  0  0  0  0  0  0  0  0  0  0  0
    4.0910   69.4620   66.0990 C   0  0  0  0  0  0  0  0  0  0  0  0
    3.8570   69.8520   67.4170 C   0  0  0  0  0  0  0  0  0  0  0  0
    2.6290   69.5850   68.0020 C   0  0  0  0  0  0  0  0  0  0  0  0
    5.3920   69.8240   65.4900 C   0  0  0  0  0  0  0  0  0  0  0  0
    5.5360   69.7500   64.2790 O   0  0  0  0  0  0  0  0  0  0  0  0
    6.3950   70.2430   66.3120 N   0  0  0  0  0  0  0  0  0  0  0  0
    1.3748   67.7531   70.0575 H   0  0  0  0  0  0  0  0  0  0  0  0
    1.9875   66.3105   69.1366 H   0  0  0  0  0  0  0  0  0  0  0  0
    0.2937   66.3730   71.4738 H   0  0  0  0  0  0  0  0  0  0  0  0
   -0.6267   65.6669   70.0980 H   0  0  0  0  0  0  0  0  0  0  0  0
    0.7652   61.4355   71.7015 H   0  0  0  0  0  0  0  0  0  0  0  0
   -0.5109   63.5614   71.4450 H   0  0  0  0  0  0  0  0  0  0  0  0
    2.9268   65.4932   69.8700 H   0  0  0  0  0  0  0  0  0  0  0  0
    3.8545   60.8065   71.9953 H   0  0  0  0  0  0  0  0  0  0  0  0
    4.2638   58.2584   69.9590 H   0  0  0  0  0  0  0  0  0  0  0  0
    0.5386   66.6142   67.4462 H   0  0  0  0  0  0  0  0  0  0  0  0
   -0.8231   67.0145   68.5846 H   0  0  0  0  0  0  0  0  0  0  0  0
   -0.4740   68.9701   67.2547 H   0  0  0  0  0  0  0  0  0  0  0  0
    0.2551   69.3068   68.8643 H   0  0  0  0  0  0  0  0  0  0  0  0
    1.0648   68.0538   65.4712 H   0  0  0  0  0  0  0  0  0  0  0  0
    3.2473   68.4910   64.3535 H   0  0  0  0  0  0  0  0  0  0  0  0
    4.6420   70.3683   67.9890 H   0  0  0  0  0  0  0  0  0  0  0  0
    2.4481   69.8795   69.0463 H   0  0  0  0  0  0  0  0  0  0  0  0
    7.3105   70.5014   65.9170 H   0  0  0  0  0  0  0  0  0  0  0  0
    6.2376   70.3013   67.3282 H   0  0  0  0  0  0  0  0  0  0  0  0
  2  1  1  0
  4  3  2  0
  5  4  1  0
  6  5  2  0
  6  2  1  0
  7  6  1  0
  8  7  2  0
  8  3  1  0
  9  8  1  0
 11 10  2  0
 11  3  1  0
 12 10  1  0
 13  1  1  0
 14 13  1  0
 15 14  1  0
 16 15  2  0
 17 16  1  0
 18 17  2  0
 19 18  1  0
 20 19  2  0
 20 15  1  0
 21 18  1  0
 22 21  2  0
 23 21  1  0
  1 24  1  0
  1 25  1  0
  2 26  1  0
  2 27  1  0
  4 28  1  0
  5 29  1  0
  7 30  1  0
 11 31  1  0
 12 32  1  0
 13 33  1  0
 13 34  1  0
 14 35  1  0
 14 36  1  0
 16 37  1  0
 17 38  1  0
 19 39  1  0
 20 40  1  0
 23 41  1  0
 23 42  1  0
M  CHG  2   6   1  15   1
M  END
>  <score>  (4) 
-8.232

$$$$
=
     RDKit          3D

 42 43  0  0  0  0  0  0  0  0999 V2000
    1.2740   66.9810   69.5400 C   0  0  0  0  0  0  0  0  0  0  0  0
    0.3250   65.9510   70.1700 C   0  0  0  0  0  0  0  0  0  0  0  0
    2.5100   62.4510   71.2210 C   0  0  0  0  0  0  0  0  0  0  0  0
    1.1360   62.5140   71.4460 C   0  0  0  0  0  0  0  0  0  0  0  0
    0.4370   63.6660   71.0920 C   0  0  0  0  0  0  0  0  0  0  0  0
    1.0800   64.7200   70.5290 N   0  0  0  0  0  4  0  0  0  0  0  0
    2.4200   64.6720   70.3250 C   0  0  0  0  0  0  0  0  0  0  0  0
    3.1530   63.5430   70.6580 C   0  0  0  0  0  0  0  0  0  0  0  0
    4.4690   63.5610   70.4170 F   0  0  0  0  0  0  0  0  0  0  0  0
    3.4260   60.8870   72.8230 N   0  0  0  0  0  0  0  0  0  0  0  0
    3.2290   61.2200   71.5910 C   0  0  0  0  0  0  0  0  0  0  0  0
    4.1360   59.6830   72.8500 O   0  0  0  0  0  0  0  0  0  0  0  0
    0.7890   67.4530   68.1590 C   0  0  0  0  0  0  0  0  0  0  0  0
    0.8480   68.9790   68.0050 C   0  0  0  0  0  0  0  0  0  0  0  0
    2.2610   69.4180   67.8590 N   0  0  0  0  0  4  0  0  0  0  0  0
    2.8620   70.1130   68.8570 C   0  0  0  0  0  0  0  0  0  0  0  0
    4.1850   70.5290   68.7440 C   0  0  0  0  0  0  0  0  0  0  0  0
    4.8930   70.2280   67.5840 C   0  0  0  0  0  0  0  0  0  0  0  0
    4.2580   69.5210   66.5630 C   0  0  0  0  0  0  0  0  0  0  0  0
    2.9360   69.1340   66.7190 C   0  0  0  0  0  0  0  0  0  0  0  0
    6.3240   70.5660   67.4060 C   0  0  0  0  0  0  0  0  0  0  0  0
    7.0850   70.5020   68.3600 O   0  0  0  0  0  0  0  0  0  0  0  0
    6.7510   70.9340   66.1650 N   0  0  0  0  0  0  0  0  0  0  0  0
    1.3436   67.8526   70.2074 H   0  0  0  0  0  0  0  0  0  0  0  0
    2.2534   66.4985   69.4060 H   0  0  0  0  0  0  0  0  0  0  0  0
   -0.1276   66.3788   71.0767 H   0  0  0  0  0  0  0  0  0  0  0  0
   -0.4630   65.6946   69.4466 H   0  0  0  0  0  0  0  0  0  0  0  0
    0.6082   61.6618   71.8990 H   0  0  0  0  0  0  0  0  0  0  0  0
   -0.6470   63.7217   71.2707 H   0  0  0  0  0  0  0  0  0  0  0  0
    2.9330   65.5418   69.8888 H   0  0  0  0  0  0  0  0  0  0  0  0
    3.6097   60.5645   70.7939 H   0  0  0  0  0  0  0  0  0  0  0  0
    4.3793   59.2712   73.7168 H   0  0  0  0  0  0  0  0  0  0  0  0
    1.4248   66.9957   67.3866 H   0  0  0  0  0  0  0  0  0  0  0  0
   -0.2620   67.1467   68.0513 H   0  0  0  0  0  0  0  0  0  0  0  0
    0.2790   69.2779   67.1123 H   0  0  0  0  0  0  0  0  0  0  0  0
    0.4125   69.4505   68.8983 H   0  0  0  0  0  0  0  0  0  0  0  0
    2.2951   70.3512   69.7691 H   0  0  0  0  0  0  0  0  0  0  0  0
    4.6650   71.0883   69.5606 H   0  0  0  0  0  0  0  0  0  0  0  0
    4.8026   69.2722   65.6402 H   0  0  0  0  0  0  0  0  0  0  0  0
    2.4293   68.5902   65.9081 H   0  0  0  0  0  0  0  0  0  0  0  0
    7.7406   71.1746   66.0112 H   0  0  0  0  0  0  0  0  0  0  0  0
    6.0841   70.9714   65.3810 H   0  0  0  0  0  0  0  0  0  0  0  0
  2  1  1  0
  4  3  2  0
  5  4  1  0
  6  5  2  0
  6  2  1  0
  7  6  1  0
  8  7  2  0
  8  3  1  0
  9  8  1  0
 11 10  2  0
 11  3  1  0
 12 10  1  0
 13  1  1  0
 14 13  1  0
 15 14  1  0
 16 15  2  0
 17 16  1  0
 18 17  2  0
 19 18  1  0
 20 19  2  0
 20 15  1  0
 21 18  1  0
 22 21  2  0
 23 21  1  0
  1 24  1  0
  1 25  1  0
  2 26  1  0
  2 27  1  0
  4 28  1  0
  5 29  1  0
  7 30  1  0
 11 31  1  0
 12 32  1  0
 13 33  1  0
 13 34  1  0
 14 35  1  0
 14 36  1  0
 16 37  1  0
 17 38  1  0
 19 39  1  0
 20 40  1  0
 23 41  1  0
 23 42  1  0
M  CHG  2   6   1  15   1
M  END
>  <score>  (5) 
-8.177

$$$$
=
     RDKit          3D

 42 43  0  0  0  0  0  0  0  0999 V2000
   -1.0110   68.7260   66.9330 C   0  0  0  0  0  0  0  0  0  0  0  0
   -1.0930   68.6840   65.4010 C   0  0  0  0  0  0  0  0  0  0  0  0
    2.7250   67.7620   63.7540 C   0  0  0  0  0  0  0  0  0  0  0  0
    2.0610   68.9290   63.3780 C   0  0  0  0  0  0  0  0  0  0  0  0
    0.8150   69.2160   63.9300 C   0  0  0  0  0  0  0  0  0  0  0  0
    0.2460   68.3740   64.8300 N   0  0  0  0  0  4  0  0  0  0  0  0
    0.8780   67.2290   65.1870 C   0  0  0  0  0  0  0  0  0  0  0  0
    2.1220   66.9070   64.6650 C   0  0  0  0  0  0  0  0  0  0  0  0
    2.6920   65.7660   65.0710 F   0  0  0  0  0  0  0  0  0  0  0  0
    4.1790   66.9880   61.9840 N   0  0  0  0  0  0  0  0  0  0  0  0
    4.0470   67.4830   63.1690 C   0  0  0  0  0  0  0  0  0  0  0  0
    5.5430   66.8320   61.7170 O   0  0  0  0  0  0  0  0  0  0  0  0
    0.1490   69.6020   67.4330 C   0  0  0  0  0  0  0  0  0  0  0  0
    1.1400   68.8230   68.3100 C   0  0  0  0  0  0  0  0  0  0  0  0
    2.4970   69.4180   68.1880 N   0  0  0  0  0  4  0  0  0  0  0  0
    3.0540   70.0590   69.2450 C   0  0  0  0  0  0  0  0  0  0  0  0
    4.3260   70.6180   69.1550 C   0  0  0  0  0  0  0  0  0  0  0  0
    5.0260   70.5170   67.9570 C   0  0  0  0  0  0  0  0  0  0  0  0
    4.4350   69.8640   66.8750 C   0  0  0  0  0  0  0  0  0  0  0  0
    3.1630   69.3290   67.0110 C   0  0  0  0  0  0  0  0  0  0  0  0
    6.4100   71.0180   67.7910 C   0  0  0  0  0  0  0  0  0  0  0  0
    6.8570   71.8350   68.5820 O   0  0  0  0  0  0  0  0  0  0  0  0
    7.1510   70.5380   66.7530 N   0  0  0  0  0  0  0  0  0  0  0  0
   -1.9549   69.1312   67.3265 H   0  0  0  0  0  0  0  0  0  0  0  0
   -0.8342   67.7000   67.2881 H   0  0  0  0  0  0  0  0  0  0  0  0
   -1.8087   67.9066   65.0953 H   0  0  0  0  0  0  0  0  0  0  0  0
   -1.4270   69.6640   65.0294 H   0  0  0  0  0  0  0  0  0  0  0  0
    2.5175   69.6172   62.6514 H   0  0  0  0  0  0  0  0  0  0  0  0
    0.2866   70.1342   63.6337 H   0  0  0  0  0  0  0  0  0  0  0  0
    0.3969   66.5449   65.9015 H   0  0  0  0  0  0  0  0  0  0  0  0
    4.9489   67.7028   63.7591 H   0  0  0  0  0  0  0  0  0  0  0  0
    5.8380   66.4621   60.8474 H   0  0  0  0  0  0  0  0  0  0  0  0
    0.6885   70.0032   66.5624 H   0  0  0  0  0  0  0  0  0  0  0  0
   -0.2811   70.4058   68.0486 H   0  0  0  0  0  0  0  0  0  0  0  0
    0.8138   68.8699   69.3595 H   0  0  0  0  0  0  0  0  0  0  0  0
    1.1721   67.7748   67.9780 H   0  0  0  0  0  0  0  0  0  0  0  0
    2.4926   70.1386   70.1876 H   0  0  0  0  0  0  0  0  0  0  0  0
    4.7714   71.1324   70.0193 H   0  0  0  0  0  0  0  0  0  0  0  0
    4.9744   69.7742   65.9205 H   0  0  0  0  0  0  0  0  0  0  0  0
    2.6894   68.8270   66.1544 H   0  0  0  0  0  0  0  0  0  0  0  0
    8.1164   70.8686   66.6132 H   0  0  0  0  0  0  0  0  0  0  0  0
    6.7456   69.8446   66.1082 H   0  0  0  0  0  0  0  0  0  0  0  0
  2  1  1  0
  4  3  2  0
  5  4  1  0
  6  5  2  0
  6  2  1  0
  7  6  1  0
  8  7  2  0
  8  3  1  0
  9  8  1  0
 11 10  2  0
 11  3  1  0
 12 10  1  0
 13  1  1  0
 14 13  1  0
 15 14  1  0
 16 15  2  0
 17 16  1  0
 18 17  2  0
 19 18  1  0
 20 19  2  0
 20 15  1  0
 21 18  1  0
 22 21  2  0
 23 21  1  0
  1 24  1  0
  1 25  1  0
  2 26  1  0
  2 27  1  0
  4 28  1  0
  5 29  1  0
  7 30  1  0
 11 31  1  0
 12 32  1  0
 13 33  1  0
 13 34  1  0
 14 35  1  0
 14 36  1  0
 16 37  1  0
 17 38  1  0
 19 39  1  0
 20 40  1  0
 23 41  1  0
 23 42  1  0
M  CHG  2   6   1  15   1
M  END
>  <score>  (6) 
-8.022

$$$$
=
     RDKit          3D

 42 43  0  0  0  0  0  0  0  0999 V2000
    0.4830   66.8500   68.8440 C   0  0  0  0  0  0  0  0  0  0  0  0
    1.1820   68.1120   68.3190 C   0  0  0  0  0  0  0  0  0  0  0  0
    0.3250   68.6530   64.1830 C   0  0  0  0  0  0  0  0  0  0  0  0
    1.6400   68.4700   64.6090 C   0  0  0  0  0  0  0  0  0  0  0  0
    1.9010   68.2900   65.9660 C   0  0  0  0  0  0  0  0  0  0  0  0
    0.8890   68.2890   66.8700 N   0  0  0  0  0  4  0  0  0  0  0  0
   -0.3900   68.4840   66.4640 C   0  0  0  0  0  0  0  0  0  0  0  0
   -0.6950   68.6620   65.1240 C   0  0  0  0  0  0  0  0  0  0  0  0
   -1.9800   68.8370   64.7940 F   0  0  0  0  0  0  0  0  0  0  0  0
    0.6820   69.7240   62.0450 N   0  0  0  0  0  0  0  0  0  0  0  0
    0.0690   68.8290   62.7430 C   0  0  0  0  0  0  0  0  0  0  0  0
    0.2240   69.6500   60.7250 O   0  0  0  0  0  0  0  0  0  0  0  0
    1.1970   66.2520   70.0670 C   0  0  0  0  0  0  0  0  0  0  0  0
    0.5920   64.9110   70.5050 C   0  0  0  0  0  0  0  0  0  0  0  0
    1.6650   63.8890   70.6280 N   0  0  0  0  0  4  0  0  0  0  0  0
    2.9620   64.2420   70.4500 C   0  0  0  0  0  0  0  0  0  0  0  0
    3.9830   63.3030   70.5650 C   0  0  0  0  0  0  0  0  0  0  0  0
    3.6580   61.9840   70.8630 C   0  0  0  0  0  0  0  0  0  0  0  0
    2.3180   61.6340   71.0340 C   0  0  0  0  0  0  0  0  0  0  0  0
    1.3360   62.6030   70.9020 C   0  0  0  0  0  0  0  0  0  0  0  0
    4.6800   60.9330   71.0760 C   0  0  0  0  0  0  0  0  0  0  0  0
    4.5100   59.8180   70.6050 O   0  0  0  0  0  0  0  0  0  0  0  0
    5.7940   61.2510   71.7930 N   0  0  0  0  0  0  0  0  0  0  0  0
   -0.5477   67.1090   69.1280 H   0  0  0  0  0  0  0  0  0  0  0  0
    0.5024   66.0971   68.0423 H   0  0  0  0  0  0  0  0  0  0  0  0
    0.8172   68.9886   68.8744 H   0  0  0  0  0  0  0  0  0  0  0  0
    2.2682   68.0085   68.4584 H   0  0  0  0  0  0  0  0  0  0  0  0
    2.4641   68.4677   63.8804 H   0  0  0  0  0  0  0  0  0  0  0  0
    2.9369   68.1474   66.3075 H   0  0  0  0  0  0  0  0  0  0  0  0
   -1.1981   68.5012   67.2101 H   0  0  0  0  0  0  0  0  0  0  0  0
   -0.6667   68.1779   62.2483 H   0  0  0  0  0  0  0  0  0  0  0  0
    0.5859   70.2665   60.0402 H   0  0  0  0  0  0  0  0  0  0  0  0
    2.2562   66.0953   69.8151 H   0  0  0  0  0  0  0  0  0  0  0  0
    1.0793   66.9595   70.9011 H   0  0  0  0  0  0  0  0  0  0  0  0
    0.0937   65.0358   71.4777 H   0  0  0  0  0  0  0  0  0  0  0  0
   -0.1393   64.5802   69.7528 H   0  0  0  0  0  0  0  0  0  0  0  0
    3.2111   65.2864   70.2111 H   0  0  0  0  0  0  0  0  0  0  0  0
    5.0325   63.6001   70.4222 H   0  0  0  0  0  0  0  0  0  0  0  0
    2.0430   60.5959   71.2720 H   0  0  0  0  0  0  0  0  0  0  0  0
    0.2782   62.3255   71.0209 H   0  0  0  0  0  0  0  0  0  0  0  0
    6.5213   60.5403   71.9569 H   0  0  0  0  0  0  0  0  0  0  0  0
    5.9089   62.2021   72.1712 H   0  0  0  0  0  0  0  0  0  0  0  0
  2  1  1  0
  4  3  2  0
  5  4  1  0
  6  5  2  0
  6  2  1  0
  7  6  1  0
  8  7  2  0
  8  3  1  0
  9  8  1  0
 11 10  2  0
 11  3  1  0
 12 10  1  0
 13  1  1  0
 14 13  1  0
 15 14  1  0
 16 15  2  0
 17 16  1  0
 18 17  2  0
 19 18  1  0
 20 19  2  0
 20 15  1  0
 21 18  1  0
 22 21  2  0
 23 21  1  0
  1 24  1  0
  1 25  1  0
  2 26  1  0
  2 27  1  0
  4 28  1  0
  5 29  1  0
  7 30  1  0
 11 31  1  0
 12 32  1  0
 13 33  1  0
 13 34  1  0
 14 35  1  0
 14 36  1  0
 16 37  1  0
 17 38  1  0
 19 39  1  0
 20 40  1  0
 23 41  1  0
 23 42  1  0
M  CHG  2   6   1  15   1
M  END
>  <score>  (7) 
-7.855

$$$$
=
     RDKit          3D

 42 43  0  0  0  0  0  0  0  0999 V2000
    1.2280   67.0350   69.4120 C   0  0  0  0  0  0  0  0  0  0  0  0
    0.2460   66.0330   70.0350 C   0  0  0  0  0  0  0  0  0  0  0  0
    2.3440   62.5310   71.2450 C   0  0  0  0  0  0  0  0  0  0  0  0
    0.9550   62.5910   71.3570 C   0  0  0  0  0  0  0  0  0  0  0  0
    0.2860   63.7440   70.9520 C   0  0  0  0  0  0  0  0  0  0  0  0
    0.9710   64.8010   70.4490 N   0  0  0  0  0  4  0  0  0  0  0  0
    2.3230   64.7560   70.3540 C   0  0  0  0  0  0  0  0  0  0  0  0
    3.0290   63.6270   70.7410 C   0  0  0  0  0  0  0  0  0  0  0  0
    4.3600   63.6480   70.6090 F   0  0  0  0  0  0  0  0  0  0  0  0
    3.0460   60.2390   70.9320 N   0  0  0  0  0  0  0  0  0  0  0  0
    3.0320   61.2990   71.6670 C   0  0  0  0  0  0  0  0  0  0  0  0
    3.7670   59.2440   71.6010 O   0  0  0  0  0  0  0  0  0  0  0  0
    0.7490   67.5490   68.0450 C   0  0  0  0  0  0  0  0  0  0  0  0
    1.6420   68.6690   67.4910 C   0  0  0  0  0  0  0  0  0  0  0  0
    2.3300   68.2030   66.2580 N   0  0  0  0  0  4  0  0  0  0  0  0
    3.2730   68.9820   65.6720 C   0  0  0  0  0  0  0  0  0  0  0  0
    3.9330   68.5630   64.5200 C   0  0  0  0  0  0  0  0  0  0  0  0
    3.6100   67.3290   63.9660 C   0  0  0  0  0  0  0  0  0  0  0  0
    2.6300   66.5440   64.5740 C   0  0  0  0  0  0  0  0  0  0  0  0
    1.9960   67.0070   65.7170 C   0  0  0  0  0  0  0  0  0  0  0  0
    4.3100   66.7700   62.7850 C   0  0  0  0  0  0  0  0  0  0  0  0
    4.2730   65.5670   62.5730 O   0  0  0  0  0  0  0  0  0  0  0  0
    4.9700   67.6300   61.9600 N   0  0  0  0  0  0  0  0  0  0  0  0
    1.3386   67.8917   70.0930 H   0  0  0  0  0  0  0  0  0  0  0  0
    2.1860   66.5164   69.2594 H   0  0  0  0  0  0  0  0  0  0  0  0
   -0.2301   66.4889   70.9156 H   0  0  0  0  0  0  0  0  0  0  0  0
   -0.5206   65.7686   69.2917 H   0  0  0  0  0  0  0  0  0  0  0  0
    0.3931   61.7361   71.7613 H   0  0  0  0  0  0  0  0  0  0  0  0
   -0.8091   63.7976   71.0411 H   0  0  0  0  0  0  0  0  0  0  0  0
    2.8679   65.6283   69.9640 H   0  0  0  0  0  0  0  0  0  0  0  0
    3.5492   61.2823   72.6377 H   0  0  0  0  0  0  0  0  0  0  0  0
    3.8840   58.3532   71.1852 H   0  0  0  0  0  0  0  0  0  0  0  0
    0.7516   66.7109   67.3325 H   0  0  0  0  0  0  0  0  0  0  0  0
   -0.2612   67.9631   68.1793 H   0  0  0  0  0  0  0  0  0  0  0  0
    1.0222   69.5462   67.2537 H   0  0  0  0  0  0  0  0  0  0  0  0
    2.3948   68.9395   68.2461 H   0  0  0  0  0  0  0  0  0  0  0  0
    3.5199   69.9589   66.1133 H   0  0  0  0  0  0  0  0  0  0  0  0
    4.6997   69.1995   64.0542 H   0  0  0  0  0  0  0  0  0  0  0  0
    2.3622   65.5650   64.1498 H   0  0  0  0  0  0  0  0  0  0  0  0
    1.2129   66.3961   66.1898 H   0  0  0  0  0  0  0  0  0  0  0  0
    5.4655   67.2708   61.1316 H   0  0  0  0  0  0  0  0  0  0  0  0
    4.9735   68.6395   62.1647 H   0  0  0  0  0  0  0  0  0  0  0  0
  2  1  1  0
  4  3  2  0
  5  4  1  0
  6  5  2  0
  6  2  1  0
  7  6  1  0
  8  7  2  0
  8  3  1  0
  9  8  1  0
 11 10  2  0
 11  3  1  0
 12 10  1  0
 13  1  1  0
 14 13  1  0
 15 14  1  0
 16 15  2  0
 17 16  1  0
 18 17  2  0
 19 18  1  0
 20 19  2  0
 20 15  1  0
 21 18  1  0
 22 21  2  0
 23 21  1  0
  1 24  1  0
  1 25  1  0
  2 26  1  0
  2 27  1  0
  4 28  1  0
  5 29  1  0
  7 30  1  0
 11 31  1  0
 12 32  1  0
 13 33  1  0
 13 34  1  0
 14 35  1  0
 14 36  1  0
 16 37  1  0
 17 38  1  0
 19 39  1  0
 20 40  1  0
 23 41  1  0
 23 42  1  0
M  CHG  2   6   1  15   1
M  END
>  <score>  (8) 
-7.816

$$$$
=
     RDKit          3D

 42 43  0  0  0  0  0  0  0  0999 V2000
    0.2120   67.3680   68.0220 C   0  0  0  0  0  0  0  0  0  0  0  0
    0.5930   68.7720   67.5340 C   0  0  0  0  0  0  0  0  0  0  0  0
    2.3440   68.5660   63.6580 C   0  0  0  0  0  0  0  0  0  0  0  0
    3.1460   68.7660   64.7810 C   0  0  0  0  0  0  0  0  0  0  0  0
    2.5560   68.8270   66.0410 C   0  0  0  0  0  0  0  0  0  0  0  0
    1.2130   68.6900   66.1840 N   0  0  0  0  0  4  0  0  0  0  0  0
    0.4260   68.5120   65.0940 C   0  0  0  0  0  0  0  0  0  0  0  0
    0.9720   68.4410   63.8220 C   0  0  0  0  0  0  0  0  0  0  0  0
    0.1360   68.2530   62.7940 F   0  0  0  0  0  0  0  0  0  0  0  0
    2.5060   69.1010   61.3060 N   0  0  0  0  0  0  0  0  0  0  0  0
    2.9890   68.4920   62.3360 C   0  0  0  0  0  0  0  0  0  0  0  0
    3.3290   68.8360   60.2070 O   0  0  0  0  0  0  0  0  0  0  0  0
    1.1070   66.8870   69.1760 C   0  0  0  0  0  0  0  0  0  0  0  0
    0.3210   66.1260   70.2530 C   0  0  0  0  0  0  0  0  0  0  0  0
    0.9890   64.8290   70.5420 N   0  0  0  0  0  4  0  0  0  0  0  0
    0.2820   63.8100   71.0910 C   0  0  0  0  0  0  0  0  0  0  0  0
    0.8840   62.5860   71.3650 C   0  0  0  0  0  0  0  0  0  0  0  0
    2.2340   62.4160   71.0730 C   0  0  0  0  0  0  0  0  0  0  0  0
    2.9500   63.4760   70.5180 C   0  0  0  0  0  0  0  0  0  0  0  0
    2.3070   64.6790   70.2690 C   0  0  0  0  0  0  0  0  0  0  0  0
    2.9410   61.1270   71.2630 C   0  0  0  0  0  0  0  0  0  0  0  0
    2.3140   60.1380   71.6110 O   0  0  0  0  0  0  0  0  0  0  0  0
    4.2830   61.0870   71.0310 N   0  0  0  0  0  0  0  0  0  0  0  0
   -0.8320   67.3852   68.3679 H   0  0  0  0  0  0  0  0  0  0  0  0
    0.3457   66.6721   67.1806 H   0  0  0  0  0  0  0  0  0  0  0  0
   -0.3104   69.3976   67.4827 H   0  0  0  0  0  0  0  0  0  0  0  0
    1.3141   69.2154   68.2365 H   0  0  0  0  0  0  0  0  0  0  0  0
    4.2352   68.8746   64.6726 H   0  0  0  0  0  0  0  0  0  0  0  0
    3.1845   68.9878   66.9293 H   0  0  0  0  0  0  0  0  0  0  0  0
   -0.6629   68.4225   65.2214 H   0  0  0  0  0  0  0  0  0  0  0  0
    3.9094   67.9003   62.2234 H   0  0  0  0  0  0  0  0  0  0  0  0
    3.1129   69.2233   59.3219 H   0  0  0  0  0  0  0  0  0  0  0  0
    1.8812   66.2207   68.7676 H   0  0  0  0  0  0  0  0  0  0  0  0
    1.5473   67.7766   69.6501 H   0  0  0  0  0  0  0  0  0  0  0  0
    0.2823   66.7296   71.1718 H   0  0  0  0  0  0  0  0  0  0  0  0
   -0.7003   65.9359   69.8912 H   0  0  0  0  0  0  0  0  0  0  0  0
   -0.7836   63.9535   71.3232 H   0  0  0  0  0  0  0  0  0  0  0  0
    0.3010   61.7641   71.8063 H   0  0  0  0  0  0  0  0  0  0  0  0
    4.0174   63.3587   70.2794 H   0  0  0  0  0  0  0  0  0  0  0  0
    2.8738   65.5210   69.8450 H   0  0  0  0  0  0  0  0  0  0  0  0
    4.8010   60.2054   71.1548 H   0  0  0  0  0  0  0  0  0  0  0  0
    4.7795   61.9384   70.7319 H   0  0  0  0  0  0  0  0  0  0  0  0
  2  1  1  0
  4  3  2  0
  5  4  1  0
  6  5  2  0
  6  2  1  0
  7  6  1  0
  8  7  2  0
  8  3  1  0
  9  8  1  0
 11 10  2  0
 11  3  1  0
 12 10  1  0
 13  1  1  0
 14 13  1  0
 15 14  1  0
 16 15  2  0
 17 16  1  0
 18 17  2  0
 19 18  1  0
 20 19  2  0
 20 15  1  0
 21 18  1  0
 22 21  2  0
 23 21  1  0
  1 24  1  0
  1 25  1  0
  2 26  1  0
  2 27  1  0
  4 28  1  0
  5 29  1  0
  7 30  1  0
 11 31  1  0
 12 32  1  0
 13 33  1  0
 13 34  1  0
 14 35  1  0
 14 36  1  0
 16 37  1  0
 17 38  1  0
 19 39  1  0
 20 40  1  0
 23 41  1  0
 23 42  1  0
M  CHG  2   6   1  15   1
M  END
>  <score>  (9) 
-7.811

$$$$
