=
     RDKit          3D

 55 59  0  0  0  0  0  0  0  0999 V2000
    0.1970   66.8390   69.5840 C   0  0  0  0  0  0  0  0  0  0  0  0
   -0.6870   66.3820   68.4090 C   0  0  0  0  0  0  0  0  0  0  0  0
   -0.8860   67.4870   67.3820 C   0  0  0  0  0  0  0  0  0  0  0  0
    0.4390   68.0180   66.8970 N   0  0  0  0  0  4  0  0  0  0  0  0
    1.2910   68.5130   68.0360 C   0  0  0  0  0  0  0  0  0  0  0  0
    1.5210   67.4100   69.0620 C   0  0  0  0  0  0  0  0  0  0  0  0
    2.4930   61.8960   72.8770 C   0  0  0  0  0  0  0  0  0  0  0  0
    3.7310   61.2630   72.7220 C   0  0  0  0  0  0  0  0  0  0  0  0
    4.6470   61.6910   71.7410 C   0  0  0  0  0  0  0  0  0  0  0  0
    4.3450   62.7580   70.8930 C   0  0  0  0  0  0  0  0  0  0  0  0
    3.1200   63.3870   71.0430 C   0  0  0  0  0  0  0  0  0  0  0  0
    2.2170   62.9550   72.0210 C   0  0  0  0  0  0  0  0  0  0  0  0
    1.0130   63.8000   71.9490 C   0  0  0  0  0  0  0  0  0  0  0  0
    0.0050   63.7230   72.6230 O   0  0  0  0  0  0  0  0  0  0  0  0
    1.2350   64.8090   70.8510 C   0  0  0  0  0  0  0  0  0  0  0  0
    0.2830   65.7210   70.5950 C   0  0  0  0  0  0  0  0  0  0  0  0
    2.5890   64.5420   70.2510 C   0  0  0  0  0  0  0  0  0  0  0  0
    0.7990   60.3680   73.5630 C   0  0  0  0  0  0  0  0  0  0  0  0
    1.5410   61.5590   73.7900 O   0  0  0  0  0  0  0  0  0  0  0  0
    1.1820   67.1080   65.9370 C   0  0  0  0  0  0  0  0  0  0  0  0
    1.3820   67.7230   64.5770 C   0  0  0  0  0  0  0  0  0  0  0  0
    0.3810   68.5480   64.0080 C   0  0  0  0  0  0  0  0  0  0  0  0
    0.5650   69.1460   62.7570 C   0  0  0  0  0  0  0  0  0  0  0  0
    1.7500   68.9040   62.0980 C   0  0  0  0  0  0  0  0  0  0  0  0
    2.7250   68.1040   62.6380 C   0  0  0  0  0  0  0  0  0  0  0  0
    2.5750   67.4980   63.8680 C   0  0  0  0  0  0  0  0  0  0  0  0
    3.8130   67.9940   61.8310 O   0  0  0  0  0  0  0  0  0  0  0  0
    3.4020   68.8030   60.7040 C   0  0  0  0  0  0  0  0  0  0  0  0
    2.1000   69.4000   60.8830 O   0  0  0  0  0  0  0  0  0  0  0  0
   -0.2427   67.6834   70.1350 H   0  0  0  0  0  0  0  0  0  0  0  0
   -0.2079   65.5224   67.9175 H   0  0  0  0  0  0  0  0  0  0  0  0
   -1.6740   66.1107   68.8118 H   0  0  0  0  0  0  0  0  0  0  0  0
   -1.4479   67.0855   66.5258 H   0  0  0  0  0  0  0  0  0  0  0  0
   -1.4415   68.3099   67.8555 H   0  0  0  0  0  0  0  0  0  0  0  0
    0.2077   68.8348   66.3137 H   0  0  0  0  0  0  0  0  0  0  0  0
    2.2622   68.8458   67.6411 H   0  0  0  0  0  0  0  0  0  0  0  0
    0.7700   69.3476   68.5279 H   0  0  0  0  0  0  0  0  0  0  0  0
    2.0983   66.6002   68.5920 H   0  0  0  0  0  0  0  0  0  0  0  0
    2.0690   67.8408   69.9130 H   0  0  0  0  0  0  0  0  0  0  0  0
    3.9931   60.4183   73.3760 H   0  0  0  0  0  0  0  0  0  0  0  0
    5.6144   61.1769   71.6417 H   0  0  0  0  0  0  0  0  0  0  0  0
    5.0605   63.0903   70.1264 H   0  0  0  0  0  0  0  0  0  0  0  0
   -0.6009   65.6377   71.2445 H   0  0  0  0  0  0  0  0  0  0  0  0
    2.4990   64.2772   69.1872 H   0  0  0  0  0  0  0  0  0  0  0  0
    3.2493   65.4208   70.2927 H   0  0  0  0  0  0  0  0  0  0  0  0
    0.5200   59.9202   74.5282 H   0  0  0  0  0  0  0  0  0  0  0  0
   -0.1109   60.6060   72.9926 H   0  0  0  0  0  0  0  0  0  0  0  0
    1.4137   59.6561   72.9926 H   0  0  0  0  0  0  0  0  0  0  0  0
    2.1684   66.8772   66.3656 H   0  0  0  0  0  0  0  0  0  0  0  0
    0.5705   66.2036   65.8019 H   0  0  0  0  0  0  0  0  0  0  0  0
   -0.5555   68.7211   64.5584 H   0  0  0  0  0  0  0  0  0  0  0  0
   -0.2107   69.7881   62.3143 H   0  0  0  0  0  0  0  0  0  0  0  0
    3.3667   66.8566   64.2826 H   0  0  0  0  0  0  0  0  0  0  0  0
    4.1395   69.6067   60.5619 H   0  0  0  0  0  0  0  0  0  0  0  0
    3.3425   68.1405   59.8279 H   0  0  0  0  0  0  0  0  0  0  0  0
  2  1  1  0
  3  2  1  0
  4  3  1  0
  5  4  1  0
  6  5  1  0
  6  1  1  0
  8  7  2  0
  9  8  1  0
 10  9  2  0
 11 10  1  0
 12 11  2  0
 12  7  1  0
 13 12  1  0
 14 13  2  0
 15 13  1  0
 16 15  2  0
 16  1  1  0
 17 15  1  0
 17 11  1  0
 19 18  1  0
 19  7  1  0
 20  4  1  0
 21 20  1  0
 22 21  2  0
 23 22  1  0
 24 23  2  0
 25 24  1  0
 26 25  2  0
 26 21  1  0
 27 25  1  0
 28 27  1  0
 29 28  1  0
 29 24  1  0
  1 30  1  0
  2 31  1  0
  2 32  1  0
  3 33  1  0
  3 34  1  0
  4 35  1  0
  5 36  1  0
  5 37  1  0
  6 38  1  0
  6 39  1  0
  8 40  1  0
  9 41  1  0
 10 42  1  0
 16 43  1  0
 17 44  1  0
 17 45  1  0
 18 46  1  0
 18 47  1  0
 18 48  1  0
 20 49  1  0
 20 50  1  0
 22 51  1  0
 23 52  1  0
 26 53  1  0
 28 54  1  0
 28 55  1  0
M  CHG  1   4   1
M  END
>  <score>  (1) 
-10.809

$$$$
=
     RDKit          3D

 55 59  0  0  0  0  0  0  0  0999 V2000
    0.0660   66.2280   68.8720 C   0  0  0  0  0  0  0  0  0  0  0  0
    1.5150   66.5780   68.4860 C   0  0  0  0  0  0  0  0  0  0  0  0
    1.6190   67.0650   67.0470 C   0  0  0  0  0  0  0  0  0  0  0  0
    0.6900   68.2270   66.8030 N   0  0  0  0  0  4  0  0  0  0  0  0
   -0.7370   67.8780   67.1320 C   0  0  0  0  0  0  0  0  0  0  0  0
   -0.8630   67.4120   68.5780 C   0  0  0  0  0  0  0  0  0  0  0  0
    1.5950   62.6920   73.9420 C   0  0  0  0  0  0  0  0  0  0  0  0
    2.5710   61.6930   74.0280 C   0  0  0  0  0  0  0  0  0  0  0  0
    3.3560   61.3480   72.9100 C   0  0  0  0  0  0  0  0  0  0  0  0
    3.1820   61.9910   71.6840 C   0  0  0  0  0  0  0  0  0  0  0  0
    2.2170   62.9810   71.5940 C   0  0  0  0  0  0  0  0  0  0  0  0
    1.4420   63.3170   72.7110 C   0  0  0  0  0  0  0  0  0  0  0  0
    0.5100   64.3890   72.3240 C   0  0  0  0  0  0  0  0  0  0  0  0
   -0.3310   64.9320   73.0130 O   0  0  0  0  0  0  0  0  0  0  0  0
    0.7670   64.7090   70.8740 C   0  0  0  0  0  0  0  0  0  0  0  0
    0.0540   65.6800   70.2790 C   0  0  0  0  0  0  0  0  0  0  0  0
    1.8600   63.7950   70.3900 C   0  0  0  0  0  0  0  0  0  0  0  0
   -0.3560   62.3050   75.2520 C   0  0  0  0  0  0  0  0  0  0  0  0
    0.7870   63.0980   74.9590 O   0  0  0  0  0  0  0  0  0  0  0  0
    1.1440   69.5470   67.3990 C   0  0  0  0  0  0  0  0  0  0  0  0
    2.6390   69.7230   67.3750 C   0  0  0  0  0  0  0  0  0  0  0  0
    3.3750   69.4440   66.1990 C   0  0  0  0  0  0  0  0  0  0  0  0
    4.7620   69.6270   66.1560 C   0  0  0  0  0  0  0  0  0  0  0  0
    5.3840   70.0880   67.2940 C   0  0  0  0  0  0  0  0  0  0  0  0
    4.6810   70.3580   68.4410 C   0  0  0  0  0  0  0  0  0  0  0  0
    3.3140   70.1870   68.5180 C   0  0  0  0  0  0  0  0  0  0  0  0
    5.4790   70.8010   69.4480 O   0  0  0  0  0  0  0  0  0  0  0  0
    6.7760   70.7570   68.8090 C   0  0  0  0  0  0  0  0  0  0  0  0
    6.7140   70.3250   67.4340 O   0  0  0  0  0  0  0  0  0  0  0  0
   -0.3491   65.4204   68.2511 H   0  0  0  0  0  0  0  0  0  0  0  0
    1.8799   67.3700   69.1565 H   0  0  0  0  0  0  0  0  0  0  0  0
    2.1223   65.6658   68.5812 H   0  0  0  0  0  0  0  0  0  0  0  0
    2.6531   67.3830   66.8484 H   0  0  0  0  0  0  0  0  0  0  0  0
    1.3344   66.2411   66.3761 H   0  0  0  0  0  0  0  0  0  0  0  0
    0.7327   68.4014   65.7888 H   0  0  0  0  0  0  0  0  0  0  0  0
   -1.3685   68.7663   66.9835 H   0  0  0  0  0  0  0  0  0  0  0  0
   -1.0610   67.0615   66.4699 H   0  0  0  0  0  0  0  0  0  0  0  0
   -0.6011   68.2458   69.2460 H   0  0  0  0  0  0  0  0  0  0  0  0
   -1.9001   67.0857   68.7454 H   0  0  0  0  0  0  0  0  0  0  0  0
    2.7277   61.1693   74.9825 H   0  0  0  0  0  0  0  0  0  0  0  0
    4.1175   60.5599   73.0051 H   0  0  0  0  0  0  0  0  0  0  0  0
    3.7948   61.7191   70.8119 H   0  0  0  0  0  0  0  0  0  0  0  0
   -0.6761   66.1677   70.9417 H   0  0  0  0  0  0  0  0  0  0  0  0
    1.4974   63.1498   69.5763 H   0  0  0  0  0  0  0  0  0  0  0  0
    2.7208   64.3458   69.9831 H   0  0  0  0  0  0  0  0  0  0  0  0
   -0.4752   62.2223   76.3424 H   0  0  0  0  0  0  0  0  0  0  0  0
   -1.2506   62.7775   74.8202 H   0  0  0  0  0  0  0  0  0  0  0  0
   -0.2266   61.3016   74.8202 H   0  0  0  0  0  0  0  0  0  0  0  0
    0.6859   70.3661   66.8253 H   0  0  0  0  0  0  0  0  0  0  0  0
    0.8296   69.5562   68.4531 H   0  0  0  0  0  0  0  0  0  0  0  0
    2.8491   69.0777   65.3050 H   0  0  0  0  0  0  0  0  0  0  0  0
    5.3359   69.4096   65.2431 H   0  0  0  0  0  0  0  0  0  0  0  0
    2.7678   70.4074   69.4470 H   0  0  0  0  0  0  0  0  0  0  0  0
    7.2161   71.7646   68.8401 H   0  0  0  0  0  0  0  0  0  0  0  0
    7.3871   70.0241   69.3563 H   0  0  0  0  0  0  0  0  0  0  0  0
  2  1  1  0
  3  2  1  0
  4  3  1  0
  5  4  1  0
  6  5  1  0
  6  1  1  0
  8  7  2  0
  9  8  1  0
 10  9  2  0
 11 10  1  0
 12 11  2  0
 12  7  1  0
 13 12  1  0
 14 13  2  0
 15 13  1  0
 16 15  2  0
 16  1  1  0
 17 15  1  0
 17 11  1  0
 19 18  1  0
 19  7  1  0
 20  4  1  0
 21 20  1  0
 22 21  2  0
 23 22  1  0
 24 23  2  0
 25 24  1  0
 26 25  2  0
 26 21  1  0
 27 25  1  0
 28 27  1  0
 29 28  1  0
 29 24  1  0
  1 30  1  0
  2 31  1  0
  2 32  1  0
  3 33  1  0
  3 34  1  0
  4 35  1  0
  5 36  1  0
  5 37  1  0
  6 38  1  0
  6 39  1  0
  8 40  1  0
  9 41  1  0
 10 42  1  0
 16 43  1  0
 17 44  1  0
 17 45  1  0
 18 46  1  0
 18 47  1  0
 18 48  1  0
 20 49  1  0
 20 50  1  0
 22 51  1  0
 23 52  1  0
 26 53  1  0
 28 54  1  0
 28 55  1  0
M  CHG  1   4   1
M  END
>  <score>  (2) 
-9.825

$$$$
=
     RDKit          3D

 55 59  0  0  0  0  0  0  0  0999 V2000
    0.3210   67.1920   68.6490 C   0  0  0  0  0  0  0  0  0  0  0  0
    1.6100   66.3490   68.6470 C   0  0  0  0  0  0  0  0  0  0  0  0
    2.0220   65.9350   70.0520 C   0  0  0  0  0  0  0  0  0  0  0  0
    0.8980   65.2160   70.7540 N   0  0  0  0  0  4  0  0  0  0  0  0
   -0.3530   66.0520   70.8030 C   0  0  0  0  0  0  0  0  0  0  0  0
   -0.7930   66.4550   69.4010 C   0  0  0  0  0  0  0  0  0  0  0  0
    1.2230   68.8460   62.5660 C   0  0  0  0  0  0  0  0  0  0  0  0
    2.4320   68.9180   61.8680 C   0  0  0  0  0  0  0  0  0  0  0  0
    3.6540   68.6150   62.5000 C   0  0  0  0  0  0  0  0  0  0  0  0
    3.6940   68.2370   63.8420 C   0  0  0  0  0  0  0  0  0  0  0  0
    2.4980   68.1650   64.5390 C   0  0  0  0  0  0  0  0  0  0  0  0
    1.2890   68.4670   63.9010 C   0  0  0  0  0  0  0  0  0  0  0  0
    0.1970   68.3070   64.8760 C   0  0  0  0  0  0  0  0  0  0  0  0
   -0.9910   68.4950   64.7040 O   0  0  0  0  0  0  0  0  0  0  0  0
    0.8160   67.8690   66.1790 C   0  0  0  0  0  0  0  0  0  0  0  0
    0.0220   67.6300   67.2350 C   0  0  0  0  0  0  0  0  0  0  0  0
    2.3040   67.7860   65.9740 C   0  0  0  0  0  0  0  0  0  0  0  0
   -0.1010   70.1500   61.0750 C   0  0  0  0  0  0  0  0  0  0  0  0
   -0.0070   69.1180   62.0500 O   0  0  0  0  0  0  0  0  0  0  0  0
    0.6560   63.7930   70.2860 C   0  0  0  0  0  0  0  0  0  0  0  0
    1.8720   62.9140   70.4180 C   0  0  0  0  0  0  0  0  0  0  0  0
    2.4570   62.3230   69.2720 C   0  0  0  0  0  0  0  0  0  0  0  0
    3.6020   61.5250   69.3770 C   0  0  0  0  0  0  0  0  0  0  0  0
    4.1380   61.3340   70.6310 C   0  0  0  0  0  0  0  0  0  0  0  0
    3.5770   61.8990   71.7490 C   0  0  0  0  0  0  0  0  0  0  0  0
    2.4480   62.6900   71.6800 C   0  0  0  0  0  0  0  0  0  0  0  0
    4.2550   61.5890   72.8850 O   0  0  0  0  0  0  0  0  0  0  0  0
    5.3020   60.7410   72.3560 C   0  0  0  0  0  0  0  0  0  0  0  0
    5.2400   60.5960   70.9210 O   0  0  0  0  0  0  0  0  0  0  0  0
    0.4324   68.1281   69.2159 H   0  0  0  0  0  0  0  0  0  0  0  0
    1.4416   65.4439   68.0450 H   0  0  0  0  0  0  0  0  0  0  0  0
    2.4177   66.9639   68.2232 H   0  0  0  0  0  0  0  0  0  0  0  0
    2.8932   65.2664   69.9892 H   0  0  0  0  0  0  0  0  0  0  0  0
    2.2717   66.8399   70.6253 H   0  0  0  0  0  0  0  0  0  0  0  0
    1.2188   65.0924   71.7249 H   0  0  0  0  0  0  0  0  0  0  0  0
   -1.1562   65.4707   71.2794 H   0  0  0  0  0  0  0  0  0  0  0  0
   -0.1438   66.9640   71.3814 H   0  0  0  0  0  0  0  0  0  0  0  0
   -1.0649   65.5497   68.8383 H   0  0  0  0  0  0  0  0  0  0  0  0
   -1.6533   67.1343   69.4928 H   0  0  0  0  0  0  0  0  0  0  0  0
    2.4291   69.2158   60.8091 H   0  0  0  0  0  0  0  0  0  0  0  0
    4.5906   68.6774   61.9266 H   0  0  0  0  0  0  0  0  0  0  0  0
    4.6493   68.0023   64.3342 H   0  0  0  0  0  0  0  0  0  0  0  0
   -1.0484   67.7819   67.0319 H   0  0  0  0  0  0  0  0  0  0  0  0
    2.8291   68.4887   66.6376 H   0  0  0  0  0  0  0  0  0  0  0  0
    2.7064   66.7886   66.2047 H   0  0  0  0  0  0  0  0  0  0  0  0
   -0.1897   71.1237   61.5791 H   0  0  0  0  0  0  0  0  0  0  0  0
    0.8015   70.1436   60.4461 H   0  0  0  0  0  0  0  0  0  0  0  0
   -0.9874   69.9806   60.4461 H   0  0  0  0  0  0  0  0  0  0  0  0
   -0.1565   63.3597   70.8878 H   0  0  0  0  0  0  0  0  0  0  0  0
    0.3975   63.8380   69.2177 H   0  0  0  0  0  0  0  0  0  0  0  0
    2.0046   62.4937   68.2840 H   0  0  0  0  0  0  0  0  0  0  0  0
    4.0584   61.0658   68.4877 H   0  0  0  0  0  0  0  0  0  0  0  0
    2.0114   63.1326   72.5874 H   0  0  0  0  0  0  0  0  0  0  0  0
    6.2754   61.1786   72.6223 H   0  0  0  0  0  0  0  0  0  0  0  0
    5.1676   59.7408   72.7937 H   0  0  0  0  0  0  0  0  0  0  0  0
  2  1  1  0
  3  2  1  0
  4  3  1  0
  5  4  1  0
  6  5  1  0
  6  1  1  0
  8  7  2  0
  9  8  1  0
 10  9  2  0
 11 10  1  0
 12 11  2  0
 12  7  1  0
 13 12  1  0
 14 13  2  0
 15 13  1  0
 16 15  2  0
 16  1  1  0
 17 15  1  0
 17 11  1  0
 19 18  1  0
 19  7  1  0
 20  4  1  0
 21 20  1  0
 22 21  2  0
 23 22  1  0
 24 23  2  0
 25 24  1  0
 26 25  2  0
 26 21  1  0
 27 25  1  0
 28 27  1  0
 29 28  1  0
 29 24  1  0
  1 30  1  0
  2 31  1  0
  2 32  1  0
  3 33  1  0
  3 34  1  0
  4 35  1  0
  5 36  1  0
  5 37  1  0
  6 38  1  0
  6 39  1  0
  8 40  1  0
  9 41  1  0
 10 42  1  0
 16 43  1  0
 17 44  1  0
 17 45  1  0
 18 46  1  0
 18 47  1  0
 18 48  1  0
 20 49  1  0
 20 50  1  0
 22 51  1  0
 23 52  1  0
 26 53  1  0
 28 54  1  0
 28 55  1  0
M  CHG  1   4   1
M  END
>  <score>  (3) 
-9.61

$$$$
=
     RDKit          3D

 55 59  0  0  0  0  0  0  0  0999 V2000
    1.3510   65.7420   70.6150 C   0  0  0  0  0  0  0  0  0  0  0  0
    1.9130   64.3230   70.4090 C   0  0  0  0  0  0  0  0  0  0  0  0
    2.0140   63.5550   71.7190 C   0  0  0  0  0  0  0  0  0  0  0  0
    0.6830   63.5200   72.4280 N   0  0  0  0  0  4  0  0  0  0  0  0
    0.1490   64.9060   72.6760 C   0  0  0  0  0  0  0  0  0  0  0  0
    0.0190   65.6800   71.3700 C   0  0  0  0  0  0  0  0  0  0  0  0
   -0.7720   68.6740   65.3760 C   0  0  0  0  0  0  0  0  0  0  0  0
   -2.1000   68.9200   65.0100 C   0  0  0  0  0  0  0  0  0  0  0  0
   -3.1680   68.4990   65.8260 C   0  0  0  0  0  0  0  0  0  0  0  0
   -2.9320   67.8230   67.0250 C   0  0  0  0  0  0  0  0  0  0  0  0
   -1.6190   67.5770   67.3910 C   0  0  0  0  0  0  0  0  0  0  0  0
   -0.5650   68.0000   66.5730 C   0  0  0  0  0  0  0  0  0  0  0  0
    0.7030   67.6060   67.2080 C   0  0  0  0  0  0  0  0  0  0  0  0
    1.8320   67.7810   66.7950 O   0  0  0  0  0  0  0  0  0  0  0  0
    0.3630   66.9090   68.5010 C   0  0  0  0  0  0  0  0  0  0  0  0
    1.3560   66.4660   69.2900 C   0  0  0  0  0  0  0  0  0  0  0  0
   -1.1360   66.8740   68.6220 C   0  0  0  0  0  0  0  0  0  0  0  0
    0.1960   69.1210   63.2460 C   0  0  0  0  0  0  0  0  0  0  0  0
    0.3270   69.0360   64.6590 O   0  0  0  0  0  0  0  0  0  0  0  0
   -0.3400   62.5760   71.8250 C   0  0  0  0  0  0  0  0  0  0  0  0
   -0.5990   61.3630   72.6780 C   0  0  0  0  0  0  0  0  0  0  0  0
    0.4120   60.3900   72.8670 C   0  0  0  0  0  0  0  0  0  0  0  0
    0.1930   59.2710   73.6780 C   0  0  0  0  0  0  0  0  0  0  0  0
   -1.0370   59.1490   74.2850 C   0  0  0  0  0  0  0  0  0  0  0  0
   -2.0250   60.0840   74.1070 C   0  0  0  0  0  0  0  0  0  0  0  0
   -1.8430   61.1980   73.3140 C   0  0  0  0  0  0  0  0  0  0  0  0
   -3.1590   59.7800   74.7910 O   0  0  0  0  0  0  0  0  0  0  0  0
   -2.7790   58.5260   75.4070 C   0  0  0  0  0  0  0  0  0  0  0  0
   -1.4230   58.1360   75.1030 O   0  0  0  0  0  0  0  0  0  0  0  0
    1.9863   66.3536   71.2725 H   0  0  0  0  0  0  0  0  0  0  0  0
    1.2490   63.7737   69.7254 H   0  0  0  0  0  0  0  0  0  0  0  0
    2.9259   64.4158   69.9902 H   0  0  0  0  0  0  0  0  0  0  0  0
    2.3367   62.5247   71.5082 H   0  0  0  0  0  0  0  0  0  0  0  0
    2.7438   64.0618   72.3675 H   0  0  0  0  0  0  0  0  0  0  0  0
    0.8750   63.0992   73.3483 H   0  0  0  0  0  0  0  0  0  0  0  0
   -0.8406   64.8312   73.1504 H   0  0  0  0  0  0  0  0  0  0  0  0
    0.8505   65.4407   73.3332 H   0  0  0  0  0  0  0  0  0  0  0  0
   -0.7288   65.1837   70.7340 H   0  0  0  0  0  0  0  0  0  0  0  0
   -0.2886   66.7086   71.6093 H   0  0  0  0  0  0  0  0  0  0  0  0
   -2.3132   69.4505   64.0703 H   0  0  0  0  0  0  0  0  0  0  0  0
   -4.2026   68.7056   65.5145 H   0  0  0  0  0  0  0  0  0  0  0  0
   -3.7667   67.4946   67.6618 H   0  0  0  0  0  0  0  0  0  0  0  0
    2.3629   66.6691   68.8964 H   0  0  0  0  0  0  0  0  0  0  0  0
   -1.5014   65.8368   68.6480 H   0  0  0  0  0  0  0  0  0  0  0  0
   -1.4958   67.3480   69.5471 H   0  0  0  0  0  0  0  0  0  0  0  0
   -0.7025   69.7040   62.9955 H   0  0  0  0  0  0  0  0  0  0  0  0
    1.0834   69.6158   62.8246 H   0  0  0  0  0  0  0  0  0  0  0  0
    0.1057   68.1089   62.8246 H   0  0  0  0  0  0  0  0  0  0  0  0
   -1.2864   63.1216   71.6956 H   0  0  0  0  0  0  0  0  0  0  0  0
    0.0657   62.2219   70.8658 H   0  0  0  0  0  0  0  0  0  0  0  0
    1.3845   60.5157   72.3686 H   0  0  0  0  0  0  0  0  0  0  0  0
    0.9773   58.5140   73.8258 H   0  0  0  0  0  0  0  0  0  0  0  0
   -2.6477   61.9364   73.1827 H   0  0  0  0  0  0  0  0  0  0  0  0
   -2.8784   58.6271   76.4978 H   0  0  0  0  0  0  0  0  0  0  0  0
   -3.4433   57.7472   75.0043 H   0  0  0  0  0  0  0  0  0  0  0  0
  2  1  1  0
  3  2  1  0
  4  3  1  0
  5  4  1  0
  6  5  1  0
  6  1  1  0
  8  7  2  0
  9  8  1  0
 10  9  2  0
 11 10  1  0
 12 11  2  0
 12  7  1  0
 13 12  1  0
 14 13  2  0
 15 13  1  0
 16 15  2  0
 16  1  1  0
 17 15  1  0
 17 11  1  0
 19 18  1  0
 19  7  1  0
 20  4  1  0
 21 20  1  0
 22 21  2  0
 23 22  1  0
 24 23  2  0
 25 24  1  0
 26 25  2  0
 26 21  1  0
 27 25  1  0
 28 27  1  0
 29 28  1  0
 29 24  1  0
  1 30  1  0
  2 31  1  0
  2 32  1  0
  3 33  1  0
  3 34  1  0
  4 35  1  0
  5 36  1  0
  5 37  1  0
  6 38  1  0
  6 39  1  0
  8 40  1  0
  9 41  1  0
 10 42  1  0
 16 43  1  0
 17 44  1  0
 17 45  1  0
 18 46  1  0
 18 47  1  0
 18 48  1  0
 20 49  1  0
 20 50  1  0
 22 51  1  0
 23 52  1  0
 26 53  1  0
 28 54  1  0
 28 55  1  0
M  CHG  1   4   1
M  END
>  <score>  (4) 
-9.252

$$$$
=
     RDKit          3D

 55 59  0  0  0  0  0  0  0  0999 V2000
    0.1310   64.3630   71.7020 C   0  0  0  0  0  0  0  0  0  0  0  0
    0.5080   64.5980   73.1770 C   0  0  0  0  0  0  0  0  0  0  0  0
   -0.0620   63.5200   74.0880 C   0  0  0  0  0  0  0  0  0  0  0  0
    0.3570   62.1470   73.6260 N   0  0  0  0  0  4  0  0  0  0  0  0
   -0.0510   61.8910   72.2000 C   0  0  0  0  0  0  0  0  0  0  0  0
    0.5320   62.9480   71.2700 C   0  0  0  0  0  0  0  0  0  0  0  0
    0.4750   68.8460   67.1930 C   0  0  0  0  0  0  0  0  0  0  0  0
   -0.4640   69.1340   66.1970 C   0  0  0  0  0  0  0  0  0  0  0  0
   -1.6580   68.3940   66.0900 C   0  0  0  0  0  0  0  0  0  0  0  0
   -1.9380   67.3510   66.9730 C   0  0  0  0  0  0  0  0  0  0  0  0
   -1.0100   67.0610   67.9610 C   0  0  0  0  0  0  0  0  0  0  0  0
    0.1730   67.8030   68.0590 C   0  0  0  0  0  0  0  0  0  0  0  0
    0.9570   67.2780   69.1880 C   0  0  0  0  0  0  0  0  0  0  0  0
    2.0480   67.6490   69.5780 O   0  0  0  0  0  0  0  0  0  0  0  0
    0.1670   66.1500   69.8020 C   0  0  0  0  0  0  0  0  0  0  0  0
    0.6600   65.5100   70.8750 C   0  0  0  0  0  0  0  0  0  0  0  0
   -1.1000   65.9940   69.0070 C   0  0  0  0  0  0  0  0  0  0  0  0
    2.7260   69.1940   66.4950 C   0  0  0  0  0  0  0  0  0  0  0  0
    1.6550   69.4980   67.3800 O   0  0  0  0  0  0  0  0  0  0  0  0
    1.8010   61.7850   73.9170 C   0  0  0  0  0  0  0  0  0  0  0  0
    2.3820   60.8220   72.9150 C   0  0  0  0  0  0  0  0  0  0  0  0
    3.3220   61.2660   71.9540 C   0  0  0  0  0  0  0  0  0  0  0  0
    3.8870   60.3770   71.0340 C   0  0  0  0  0  0  0  0  0  0  0  0
    3.5000   59.0570   71.0950 C   0  0  0  0  0  0  0  0  0  0  0  0
    2.5870   58.6160   72.0210 C   0  0  0  0  0  0  0  0  0  0  0  0
    2.0090   59.4660   72.9410 C   0  0  0  0  0  0  0  0  0  0  0  0
    2.3410   57.2830   71.9150 O   0  0  0  0  0  0  0  0  0  0  0  0
    3.1910   56.9370   70.7950 C   0  0  0  0  0  0  0  0  0  0  0  0
    3.9440   58.0590   70.2890 O   0  0  0  0  0  0  0  0  0  0  0  0
   -0.9569   64.3768   71.5396 H   0  0  0  0  0  0  0  0  0  0  0  0
    1.6042   64.5974   73.2682 H   0  0  0  0  0  0  0  0  0  0  0  0
    0.0845   65.5647   73.4869 H   0  0  0  0  0  0  0  0  0  0  0  0
    0.3052   63.6829   75.1120 H   0  0  0  0  0  0  0  0  0  0  0  0
   -1.1600   63.5803   74.0590 H   0  0  0  0  0  0  0  0  0  0  0  0
   -0.1720   61.4885   74.2155 H   0  0  0  0  0  0  0  0  0  0  0  0
    0.3146   60.9000   71.8931 H   0  0  0  0  0  0  0  0  0  0  0  0
   -1.1483   61.9324   72.1354 H   0  0  0  0  0  0  0  0  0  0  0  0
    1.6290   62.8684   71.2824 H   0  0  0  0  0  0  0  0  0  0  0  0
    0.1367   62.7721   70.2587 H   0  0  0  0  0  0  0  0  0  0  0  0
   -0.2672   69.9505   65.4867 H   0  0  0  0  0  0  0  0  0  0  0  0
   -2.3803   68.6424   65.2984 H   0  0  0  0  0  0  0  0  0  0  0  0
   -2.8706   66.7739   66.8875 H   0  0  0  0  0  0  0  0  0  0  0  0
    1.6329   65.8941   71.2155 H   0  0  0  0  0  0  0  0  0  0  0  0
   -1.1502   64.9973   68.5444 H   0  0  0  0  0  0  0  0  0  0  0  0
   -2.0024   66.0883   69.6290 H   0  0  0  0  0  0  0  0  0  0  0  0
    3.6229   68.9394   67.0787 H   0  0  0  0  0  0  0  0  0  0  0  0
    2.4465   68.3397   65.8609 H   0  0  0  0  0  0  0  0  0  0  0  0
    2.9370   70.0677   65.8609 H   0  0  0  0  0  0  0  0  0  0  0  0
    2.4019   62.7063   73.9063 H   0  0  0  0  0  0  0  0  0  0  0  0
    1.8236   61.2900   74.8991 H   0  0  0  0  0  0  0  0  0  0  0  0
    3.6125   62.3267   71.9306 H   0  0  0  0  0  0  0  0  0  0  0  0
    4.6166   60.7210   70.2862 H   0  0  0  0  0  0  0  0  0  0  0  0
    1.2776   59.0942   73.6737 H   0  0  0  0  0  0  0  0  0  0  0  0
    3.8975   56.1585   71.1189 H   0  0  0  0  0  0  0  0  0  0  0  0
    2.5373   56.5871   69.9825 H   0  0  0  0  0  0  0  0  0  0  0  0
  2  1  1  0
  3  2  1  0
  4  3  1  0
  5  4  1  0
  6  5  1  0
  6  1  1  0
  8  7  2  0
  9  8  1  0
 10  9  2  0
 11 10  1  0
 12 11  2  0
 12  7  1  0
 13 12  1  0
 14 13  2  0
 15 13  1  0
 16 15  2  0
 16  1  1  0
 17 15  1  0
 17 11  1  0
 19 18  1  0
 19  7  1  0
 20  4  1  0
 21 20  1  0
 22 21  2  0
 23 22  1  0
 24 23  2  0
 25 24  1  0
 26 25  2  0
 26 21  1  0
 27 25  1  0
 28 27  1  0
 29 28  1  0
 29 24  1  0
  1 30  1  0
  2 31  1  0
  2 32  1  0
  3 33  1  0
  3 34  1  0
  4 35  1  0
  5 36  1  0
  5 37  1  0
  6 38  1  0
  6 39  1  0
  8 40  1  0
  9 41  1  0
 10 42  1  0
 16 43  1  0
 17 44  1  0
 17 45  1  0
 18 46  1  0
 18 47  1  0
 18 48  1  0
 20 49  1  0
 20 50  1  0
 22 51  1  0
 23 52  1  0
 26 53  1  0
 28 54  1  0
 28 55  1  0
M  CHG  1   4   1
M  END
>  <score>  (5) 
-8.906

$$$$
=
     RDKit          3D

 55 59  0  0  0  0  0  0  0  0999 V2000
    0.0070   67.7460   67.9470 C   0  0  0  0  0  0  0  0  0  0  0  0
    1.4960   67.8080   68.3350 C   0  0  0  0  0  0  0  0  0  0  0  0
    1.7050   67.6030   69.8280 C   0  0  0  0  0  0  0  0  0  0  0  0
    1.0710   66.3140   70.2890 N   0  0  0  0  0  4  0  0  0  0  0  0
   -0.3960   66.2660   69.9570 C   0  0  0  0  0  0  0  0  0  0  0  0
   -0.6210   66.4460   68.4600 C   0  0  0  0  0  0  0  0  0  0  0  0
    1.6130   68.8930   61.8930 C   0  0  0  0  0  0  0  0  0  0  0  0
    2.8990   68.9680   61.3470 C   0  0  0  0  0  0  0  0  0  0  0  0
    4.0410   68.7920   62.1520 C   0  0  0  0  0  0  0  0  0  0  0  0
    3.9230   68.5400   63.5200 C   0  0  0  0  0  0  0  0  0  0  0  0
    2.6520   68.4650   64.0650 C   0  0  0  0  0  0  0  0  0  0  0  0
    1.5240   68.6400   63.2560 C   0  0  0  0  0  0  0  0  0  0  0  0
    0.3230   68.5080   64.0980 C   0  0  0  0  0  0  0  0  0  0  0  0
   -0.8400   68.6120   63.7620 O   0  0  0  0  0  0  0  0  0  0  0  0
    0.7870   68.2240   65.5040 C   0  0  0  0  0  0  0  0  0  0  0  0
   -0.1260   68.0380   66.4720 C   0  0  0  0  0  0  0  0  0  0  0  0
    2.2910   68.2070   65.4950 C   0  0  0  0  0  0  0  0  0  0  0  0
   -0.0930   70.3590   61.1100 C   0  0  0  0  0  0  0  0  0  0  0  0
    0.4500   69.0480   61.2030 O   0  0  0  0  0  0  0  0  0  0  0  0
    1.8220   65.0550   69.8980 C   0  0  0  0  0  0  0  0  0  0  0  0
    1.4740   63.8690   70.7580 C   0  0  0  0  0  0  0  0  0  0  0  0
    2.1900   62.6540   70.6290 C   0  0  0  0  0  0  0  0  0  0  0  0
    1.8930   61.5530   71.4400 C   0  0  0  0  0  0  0  0  0  0  0  0
    0.8820   61.6910   72.3650 C   0  0  0  0  0  0  0  0  0  0  0  0
    0.1790   62.8620   72.4960 C   0  0  0  0  0  0  0  0  0  0  0  0
    0.4450   63.9660   71.7120 C   0  0  0  0  0  0  0  0  0  0  0  0
   -0.7730   62.7920   73.4630 O   0  0  0  0  0  0  0  0  0  0  0  0
   -0.6050   61.4270   73.9140 C   0  0  0  0  0  0  0  0  0  0  0  0
    0.4620   60.7340   73.2320 O   0  0  0  0  0  0  0  0  0  0  0  0
   -0.5885   68.5267   68.4428 H   0  0  0  0  0  0  0  0  0  0  0  0
    2.0382   67.0218   67.7893 H   0  0  0  0  0  0  0  0  0  0  0  0
    1.8740   68.8072   68.0731 H   0  0  0  0  0  0  0  0  0  0  0  0
    2.7840   67.5692   70.0392 H   0  0  0  0  0  0  0  0  0  0  0  0
    1.2338   68.4384   70.3665 H   0  0  0  0  0  0  0  0  0  0  0  0
    1.1491   66.3236   71.3160 H   0  0  0  0  0  0  0  0  0  0  0  0
   -0.8040   65.2930   70.2681 H   0  0  0  0  0  0  0  0  0  0  0  0
   -0.9039   67.0836   70.4896 H   0  0  0  0  0  0  0  0  0  0  0  0
   -0.1693   65.5967   67.9266 H   0  0  0  0  0  0  0  0  0  0  0  0
   -1.7049   66.4927   68.2784 H   0  0  0  0  0  0  0  0  0  0  0  0
    3.0199   69.1676   60.2720 H   0  0  0  0  0  0  0  0  0  0  0  0
    5.0403   68.8540   61.6964 H   0  0  0  0  0  0  0  0  0  0  0  0
    4.8157   68.4046   64.1483 H   0  0  0  0  0  0  0  0  0  0  0  0
   -1.1668   68.1126   66.1240 H   0  0  0  0  0  0  0  0  0  0  0  0
    2.6941   68.9954   66.1476 H   0  0  0  0  0  0  0  0  0  0  0  0
    2.7042   67.2589   65.8697 H   0  0  0  0  0  0  0  0  0  0  0  0
   -0.2590   70.7597   62.1209 H   0  0  0  0  0  0  0  0  0  0  0  0
    0.6098   71.0094   60.5686 H   0  0  0  0  0  0  0  0  0  0  0  0
   -1.0498   70.3220   60.5686 H   0  0  0  0  0  0  0  0  0  0  0  0
    1.5793   64.8129   68.8528 H   0  0  0  0  0  0  0  0  0  0  0  0
    2.8946   65.2566   70.0355 H   0  0  0  0  0  0  0  0  0  0  0  0
    2.9917   62.5745   69.8800 H   0  0  0  0  0  0  0  0  0  0  0  0
    2.4486   60.6087   71.3420 H   0  0  0  0  0  0  0  0  0  0  0  0
   -0.1313   64.8955   71.8298 H   0  0  0  0  0  0  0  0  0  0  0  0
   -0.3828   61.4388   74.9913 H   0  0  0  0  0  0  0  0  0  0  0  0
   -1.5395   60.8905   73.6928 H   0  0  0  0  0  0  0  0  0  0  0  0
  2  1  1  0
  3  2  1  0
  4  3  1  0
  5  4  1  0
  6  5  1  0
  6  1  1  0
  8  7  2  0
  9  8  1  0
 10  9  2  0
 11 10  1  0
 12 11  2  0
 12  7  1  0
 13 12  1  0
 14 13  2  0
 15 13  1  0
 16 15  2  0
 16  1  1  0
 17 15  1  0
 17 11  1  0
 19 18  1  0
 19  7  1  0
 20  4  1  0
 21 20  1  0
 22 21  2  0
 23 22  1  0
 24 23  2  0
 25 24  1  0
 26 25  2  0
 26 21  1  0
 27 25  1  0
 28 27  1  0
 29 28  1  0
 29 24  1  0
  1 30  1  0
  2 31  1  0
  2 32  1  0
  3 33  1  0
  3 34  1  0
  4 35  1  0
  5 36  1  0
  5 37  1  0
  6 38  1  0
  6 39  1  0
  8 40  1  0
  9 41  1  0
 10 42  1  0
 16 43  1  0
 17 44  1  0
 17 45  1  0
 18 46  1  0
 18 47  1  0
 18 48  1  0
 20 49  1  0
 20 50  1  0
 22 51  1  0
 23 52  1  0
 26 53  1  0
 28 54  1  0
 28 55  1  0
M  CHG  1   4   1
M  END
>  <score>  (6) 
-8.731

$$$$
=
     RDKit          3D

 55 59  0  0  0  0  0  0  0  0999 V2000
    1.3290   62.5110   72.2140 C   0  0  0  0  0  0  0  0  0  0  0  0
    2.5530   63.3400   71.7840 C   0  0  0  0  0  0  0  0  0  0  0  0
    2.5320   63.6560   70.2950 C   0  0  0  0  0  0  0  0  0  0  0  0
    1.2440   64.3380   69.9060 N   0  0  0  0  0  4  0  0  0  0  0  0
    0.0430   63.5110   70.2800 C   0  0  0  0  0  0  0  0  0  0  0  0
    0.0360   63.2060   71.7730 C   0  0  0  0  0  0  0  0  0  0  0  0
    2.9980   59.4190   77.5240 C   0  0  0  0  0  0  0  0  0  0  0  0
    3.7490   58.2440   77.6320 C   0  0  0  0  0  0  0  0  0  0  0  0
    4.2320   57.5840   76.4850 C   0  0  0  0  0  0  0  0  0  0  0  0
    3.9750   58.0830   75.2080 C   0  0  0  0  0  0  0  0  0  0  0  0
    3.2300   59.2460   75.0960 C   0  0  0  0  0  0  0  0  0  0  0  0
    2.7550   59.8950   76.2420 C   0  0  0  0  0  0  0  0  0  0  0  0
    2.0060   61.0910   75.8220 C   0  0  0  0  0  0  0  0  0  0  0  0
    1.4310   61.8980   76.5260 O   0  0  0  0  0  0  0  0  0  0  0  0
    2.0570   61.1500   74.3170 C   0  0  0  0  0  0  0  0  0  0  0  0
    1.4600   62.1700   73.6790 C   0  0  0  0  0  0  0  0  0  0  0  0
    2.8350   59.9550   73.8380 C   0  0  0  0  0  0  0  0  0  0  0  0
    3.3860   60.9190   79.3340 C   0  0  0  0  0  0  0  0  0  0  0  0
    2.4860   60.1300   78.5670 O   0  0  0  0  0  0  0  0  0  0  0  0
    1.1340   65.7910   70.3290 C   0  0  0  0  0  0  0  0  0  0  0  0
    0.5900   66.6820   69.2450 C   0  0  0  0  0  0  0  0  0  0  0  0
    1.4010   67.6900   68.6700 C   0  0  0  0  0  0  0  0  0  0  0  0
    0.9150   68.5080   67.6440 C   0  0  0  0  0  0  0  0  0  0  0  0
   -0.3750   68.2990   67.2130 C   0  0  0  0  0  0  0  0  0  0  0  0
   -1.1720   67.3270   67.7640 C   0  0  0  0  0  0  0  0  0  0  0  0
   -0.7250   66.5040   68.7780 C   0  0  0  0  0  0  0  0  0  0  0  0
   -2.4070   67.2840   67.2000 O   0  0  0  0  0  0  0  0  0  0  0  0
   -2.3070   68.3610   66.2390 C   0  0  0  0  0  0  0  0  0  0  0  0
   -1.0080   68.9920   66.2310 O   0  0  0  0  0  0  0  0  0  0  0  0
    1.2805   61.5386   71.7021 H   0  0  0  0  0  0  0  0  0  0  0  0
    2.5582   64.2846   72.3477 H   0  0  0  0  0  0  0  0  0  0  0  0
    3.4558   62.7474   71.9933 H   0  0  0  0  0  0  0  0  0  0  0  0
    3.3767   64.3188   70.0559 H   0  0  0  0  0  0  0  0  0  0  0  0
    2.6124   62.7126   69.7350 H   0  0  0  0  0  0  0  0  0  0  0  0
    1.2655   64.3954   68.8778 H   0  0  0  0  0  0  0  0  0  0  0  0
   -0.8709   64.0659   70.0215 H   0  0  0  0  0  0  0  0  0  0  0  0
    0.0849   62.5608   69.7275 H   0  0  0  0  0  0  0  0  0  0  0  0
   -0.0698   64.1490   72.3293 H   0  0  0  0  0  0  0  0  0  0  0  0
   -0.8060   62.5296   71.9816 H   0  0  0  0  0  0  0  0  0  0  0  0
    3.9657   57.8291   78.6274 H   0  0  0  0  0  0  0  0  0  0  0  0
    4.8205   56.6616   76.5980 H   0  0  0  0  0  0  0  0  0  0  0  0
    4.3538   57.5669   74.3135 H   0  0  0  0  0  0  0  0  0  0  0  0
    0.9749   62.8936   74.3506 H   0  0  0  0  0  0  0  0  0  0  0  0
    2.2078   59.3087   73.2064 H   0  0  0  0  0  0  0  0  0  0  0  0
    3.7023   60.2359   73.2224 H   0  0  0  0  0  0  0  0  0  0  0  0
    3.1974   60.7536   80.4050 H   0  0  0  0  0  0  0  0  0  0  0  0
    4.4206   60.6316   79.0952 H   0  0  0  0  0  0  0  0  0  0  0  0
    3.2365   61.9823   79.0952 H   0  0  0  0  0  0  0  0  0  0  0  0
    0.4658   65.8522   71.2006 H   0  0  0  0  0  0  0  0  0  0  0  0
    2.1498   66.1422   70.5632 H   0  0  0  0  0  0  0  0  0  0  0  0
    2.4288   67.8323   69.0353 H   0  0  0  0  0  0  0  0  0  0  0  0
    1.5434   69.2922   67.1967 H   0  0  0  0  0  0  0  0  0  0  0  0
   -1.3784   65.7310   69.2086 H   0  0  0  0  0  0  0  0  0  0  0  0
   -2.5057   67.9553   65.2360 H   0  0  0  0  0  0  0  0  0  0  0  0
   -3.0428   69.1268   66.5256 H   0  0  0  0  0  0  0  0  0  0  0  0
  2  1  1  0
  3  2  1  0
  4  3  1  0
  5  4  1  0
  6  5  1  0
  6  1  1  0
  8  7  2  0
  9  8  1  0
 10  9  2  0
 11 10  1  0
 12 11  2  0
 12  7  1  0
 13 12  1  0
 14 13  2  0
 15 13  1  0
 16 15  2  0
 16  1  1  0
 17 15  1  0
 17 11  1  0
 19 18  1  0
 19  7  1  0
 20  4  1  0
 21 20  1  0
 22 21  2  0
 23 22  1  0
 24 23  2  0
 25 24  1  0
 26 25  2  0
 26 21  1  0
 27 25  1  0
 28 27  1  0
 29 28  1  0
 29 24  1  0
  1 30  1  0
  2 31  1  0
  2 32  1  0
  3 33  1  0
  3 34  1  0
  4 35  1  0
  5 36  1  0
  5 37  1  0
  6 38  1  0
  6 39  1  0
  8 40  1  0
  9 41  1  0
 10 42  1  0
 16 43  1  0
 17 44  1  0
 17 45  1  0
 18 46  1  0
 18 47  1  0
 18 48  1  0
 20 49  1  0
 20 50  1  0
 22 51  1  0
 23 52  1  0
 26 53  1  0
 28 54  1  0
 28 55  1  0
M  CHG  1   4   1
M  END
>  <score>  (7) 
-8.696

$$$$
=
     RDKit          3D

 55 59  0  0  0  0  0  0  0  0999 V2000
    1.6640   57.3470   73.4100 C   0  0  0  0  0  0  0  0  0  0  0  0
    0.1330   57.4470   73.2670 C   0  0  0  0  0  0  0  0  0  0  0  0
   -0.5820   56.3390   74.0260 C   0  0  0  0  0  0  0  0  0  0  0  0
   -0.1670   56.3230   75.4750 N   0  0  0  0  0  4  0  0  0  0  0  0
    1.3240   56.1770   75.6250 C   0  0  0  0  0  0  0  0  0  0  0  0
    2.0560   57.2940   74.8900 C   0  0  0  0  0  0  0  0  0  0  0  0
    2.6200   62.9750   70.5870 C   0  0  0  0  0  0  0  0  0  0  0  0
    1.8220   64.1210   70.6680 C   0  0  0  0  0  0  0  0  0  0  0  0
    0.6390   64.1290   71.4330 C   0  0  0  0  0  0  0  0  0  0  0  0
    0.2280   62.9930   72.1320 C   0  0  0  0  0  0  0  0  0  0  0  0
    1.0150   61.8550   72.0540 C   0  0  0  0  0  0  0  0  0  0  0  0
    2.1890   61.8580   71.2920 C   0  0  0  0  0  0  0  0  0  0  0  0
    2.8120   60.5280   71.3940 C   0  0  0  0  0  0  0  0  0  0  0  0
    3.8320   60.1370   70.8600 O   0  0  0  0  0  0  0  0  0  0  0  0
    1.9400   59.6890   72.2930 C   0  0  0  0  0  0  0  0  0  0  0  0
    2.3040   58.4250   72.5680 C   0  0  0  0  0  0  0  0  0  0  0  0
    0.7690   60.5340   72.7140 C   0  0  0  0  0  0  0  0  0  0  0  0
    3.6790   62.8070   68.4600 C   0  0  0  0  0  0  0  0  0  0  0  0
    3.7760   62.8640   69.8770 O   0  0  0  0  0  0  0  0  0  0  0  0
   -0.7540   57.4360   76.3240 C   0  0  0  0  0  0  0  0  0  0  0  0
   -2.1610   57.7980   75.9300 C   0  0  0  0  0  0  0  0  0  0  0  0
   -3.2250   56.8910   76.1540 C   0  0  0  0  0  0  0  0  0  0  0  0
   -4.5410   57.2260   75.8160 C   0  0  0  0  0  0  0  0  0  0  0  0
   -4.7650   58.4650   75.2590 C   0  0  0  0  0  0  0  0  0  0  0  0
   -3.7410   59.3510   75.0340 C   0  0  0  0  0  0  0  0  0  0  0  0
   -2.4330   59.0520   75.3540 C   0  0  0  0  0  0  0  0  0  0  0  0
   -4.1720   60.5140   74.4790 O   0  0  0  0  0  0  0  0  0  0  0  0
   -5.5900   60.2510   74.3570 C   0  0  0  0  0  0  0  0  0  0  0  0
   -5.9710   58.9580   74.8730 O   0  0  0  0  0  0  0  0  0  0  0  0
    2.0622   56.4031   73.0095 H   0  0  0  0  0  0  0  0  0  0  0  0
   -0.1981   58.4190   73.6614 H   0  0  0  0  0  0  0  0  0  0  0  0
   -0.1168   57.3454   72.2006 H   0  0  0  0  0  0  0  0  0  0  0  0
   -1.6679   56.5034   73.9645 H   0  0  0  0  0  0  0  0  0  0  0  0
   -0.3126   55.3734   73.5733 H   0  0  0  0  0  0  0  0  0  0  0  0
   -0.5972   55.4752   75.8713 H   0  0  0  0  0  0  0  0  0  0  0  0
    1.5843   56.2175   76.6930 H   0  0  0  0  0  0  0  0  0  0  0  0
    1.6283   55.2127   75.1920 H   0  0  0  0  0  0  0  0  0  0  0  0
    1.8041   58.2558   75.3606 H   0  0  0  0  0  0  0  0  0  0  0  0
    3.1363   57.0967   74.9528 H   0  0  0  0  0  0  0  0  0  0  0  0
    2.1227   65.0298   70.1261 H   0  0  0  0  0  0  0  0  0  0  0  0
    0.0303   65.0440   71.4801 H   0  0  0  0  0  0  0  0  0  0  0  0
   -0.6959   63.0008   72.7289 H   0  0  0  0  0  0  0  0  0  0  0  0
    3.2456   58.1176   72.0896 H   0  0  0  0  0  0  0  0  0  0  0  0
   -0.1762   60.0931   72.3646 H   0  0  0  0  0  0  0  0  0  0  0  0
    0.6811   60.6185   73.8072 H   0  0  0  0  0  0  0  0  0  0  0  0
    2.7626   62.2685   68.1766 H   0  0  0  0  0  0  0  0  0  0  0  0
    3.6446   63.8285   68.0534 H   0  0  0  0  0  0  0  0  0  0  0  0
    4.5547   62.2798   68.0534 H   0  0  0  0  0  0  0  0  0  0  0  0
   -0.7571   57.1106   77.3748 H   0  0  0  0  0  0  0  0  0  0  0  0
   -0.1301   58.3291   76.1720 H   0  0  0  0  0  0  0  0  0  0  0  0
   -3.0139   55.9081   76.6005 H   0  0  0  0  0  0  0  0  0  0  0  0
   -5.3689   56.5228   75.9896 H   0  0  0  0  0  0  0  0  0  0  0  0
   -1.6252   59.7741   75.1640 H   0  0  0  0  0  0  0  0  0  0  0  0
   -6.1391   61.0256   74.9125 H   0  0  0  0  0  0  0  0  0  0  0  0
   -5.8353   60.2623   73.2848 H   0  0  0  0  0  0  0  0  0  0  0  0
  2  1  1  0
  3  2  1  0
  4  3  1  0
  5  4  1  0
  6  5  1  0
  6  1  1  0
  8  7  2  0
  9  8  1  0
 10  9  2  0
 11 10  1  0
 12 11  2  0
 12  7  1  0
 13 12  1  0
 14 13  2  0
 15 13  1  0
 16 15  2  0
 16  1  1  0
 17 15  1  0
 17 11  1  0
 19 18  1  0
 19  7  1  0
 20  4  1  0
 21 20  1  0
 22 21  2  0
 23 22  1  0
 24 23  2  0
 25 24  1  0
 26 25  2  0
 26 21  1  0
 27 25  1  0
 28 27  1  0
 29 28  1  0
 29 24  1  0
  1 30  1  0
  2 31  1  0
  2 32  1  0
  3 33  1  0
  3 34  1  0
  4 35  1  0
  5 36  1  0
  5 37  1  0
  6 38  1  0
  6 39  1  0
  8 40  1  0
  9 41  1  0
 10 42  1  0
 16 43  1  0
 17 44  1  0
 17 45  1  0
 18 46  1  0
 18 47  1  0
 18 48  1  0
 20 49  1  0
 20 50  1  0
 22 51  1  0
 23 52  1  0
 26 53  1  0
 28 54  1  0
 28 55  1  0
M  CHG  1   4   1
M  END
>  <score>  (8) 
-8.311

$$$$
=
     RDKit          3D

 55 59  0  0  0  0  0  0  0  0999 V2000
   -1.7910   60.2480   74.6090 C   0  0  0  0  0  0  0  0  0  0  0  0
   -1.0940   60.4740   73.2540 C   0  0  0  0  0  0  0  0  0  0  0  0
   -0.9800   61.9530   72.9130 C   0  0  0  0  0  0  0  0  0  0  0  0
   -0.2890   62.7100   74.0180 N   0  0  0  0  0  4  0  0  0  0  0  0
   -0.9920   62.5340   75.3380 C   0  0  0  0  0  0  0  0  0  0  0  0
   -1.0920   61.0580   75.7070 C   0  0  0  0  0  0  0  0  0  0  0  0
   -0.3780   54.0430   74.8200 C   0  0  0  0  0  0  0  0  0  0  0  0
    0.8200   53.4230   74.4500 C   0  0  0  0  0  0  0  0  0  0  0  0
    1.9010   54.1750   73.9490 C   0  0  0  0  0  0  0  0  0  0  0  0
    1.8080   55.5600   73.8070 C   0  0  0  0  0  0  0  0  0  0  0  0
    0.6230   56.1780   74.1720 C   0  0  0  0  0  0  0  0  0  0  0  0
   -0.4450   55.4220   74.6690 C   0  0  0  0  0  0  0  0  0  0  0  0
   -1.5600   56.3350   74.9710 C   0  0  0  0  0  0  0  0  0  0  0  0
   -2.6610   56.0530   75.4020 O   0  0  0  0  0  0  0  0  0  0  0  0
   -1.1040   57.7310   74.6330 C   0  0  0  0  0  0  0  0  0  0  0  0
   -1.9390   58.7630   74.8410 C   0  0  0  0  0  0  0  0  0  0  0  0
    0.3010   57.6390   74.1040 C   0  0  0  0  0  0  0  0  0  0  0  0
   -1.7950   52.1280   74.7810 C   0  0  0  0  0  0  0  0  0  0  0  0
   -1.4780   53.4090   75.3120 O   0  0  0  0  0  0  0  0  0  0  0  0
    1.2120   62.4990   74.0990 C   0  0  0  0  0  0  0  0  0  0  0  0
    1.8620   62.3610   72.7480 C   0  0  0  0  0  0  0  0  0  0  0  0
    1.8990   63.4580   71.8540 C   0  0  0  0  0  0  0  0  0  0  0  0
    2.5220   63.3500   70.6060 C   0  0  0  0  0  0  0  0  0  0  0  0
    3.0980   62.1430   70.2780 C   0  0  0  0  0  0  0  0  0  0  0  0
    3.0650   61.0720   71.1350 C   0  0  0  0  0  0  0  0  0  0  0  0
    2.4580   61.1440   72.3720 C   0  0  0  0  0  0  0  0  0  0  0  0
    3.6870   59.9770   70.6240 O   0  0  0  0  0  0  0  0  0  0  0  0
    4.0990   60.4760   69.3290 C   0  0  0  0  0  0  0  0  0  0  0  0
    3.7440   61.8590   69.1180 O   0  0  0  0  0  0  0  0  0  0  0  0
   -2.8191   60.6390   74.6214 H   0  0  0  0  0  0  0  0  0  0  0  0
   -0.0840   60.0403   73.2971 H   0  0  0  0  0  0  0  0  0  0  0  0
   -1.7008   59.9906   72.4742 H   0  0  0  0  0  0  0  0  0  0  0  0
   -0.4015   62.0645   71.9841 H   0  0  0  0  0  0  0  0  0  0  0  0
   -1.9930   62.3629   72.7874 H   0  0  0  0  0  0  0  0  0  0  0  0
   -0.3723   63.7037   73.7601 H   0  0  0  0  0  0  0  0  0  0  0  0
   -0.4282   63.0636   76.1200 H   0  0  0  0  0  0  0  0  0  0  0  0
   -2.0087   62.9453   75.2530 H   0  0  0  0  0  0  0  0  0  0  0  0
   -0.0783   60.6576   75.8554 H   0  0  0  0  0  0  0  0  0  0  0  0
   -1.6866   60.9732   76.6285 H   0  0  0  0  0  0  0  0  0  0  0  0
    0.9196   52.3322   74.5517 H   0  0  0  0  0  0  0  0  0  0  0  0
    2.8322   53.6626   73.6656 H   0  0  0  0  0  0  0  0  0  0  0  0
    2.6530   56.1455   73.4157 H   0  0  0  0  0  0  0  0  0  0  0  0
   -2.9138   58.4714   75.2589 H   0  0  0  0  0  0  0  0  0  0  0  0
    0.3522   58.0021   73.0669 H   0  0  0  0  0  0  0  0  0  0  0  0
    1.0091   58.2542   74.6785 H   0  0  0  0  0  0  0  0  0  0  0  0
   -1.9697   51.4220   75.6062 H   0  0  0  0  0  0  0  0  0  0  0  0
   -2.7021   52.2014   74.1631 H   0  0  0  0  0  0  0  0  0  0  0  0
   -0.9584   51.7700   74.1631 H   0  0  0  0  0  0  0  0  0  0  0  0
    1.6593   63.3604   74.6165 H   0  0  0  0  0  0  0  0  0  0  0  0
    1.3824   61.5582   74.6430 H   0  0  0  0  0  0  0  0  0  0  0  0
    1.4308   64.4099   72.1450 H   0  0  0  0  0  0  0  0  0  0  0  0
    2.5508   64.2011   69.9098 H   0  0  0  0  0  0  0  0  0  0  0  0
    2.4408   60.2741   73.0450 H   0  0  0  0  0  0  0  0  0  0  0  0
    5.1916   60.3782   69.2472 H   0  0  0  0  0  0  0  0  0  0  0  0
    3.5750   59.8819   68.5658 H   0  0  0  0  0  0  0  0  0  0  0  0
  2  1  1  0
  3  2  1  0
  4  3  1  0
  5  4  1  0
  6  5  1  0
  6  1  1  0
  8  7  2  0
  9  8  1  0
 10  9  2  0
 11 10  1  0
 12 11  2  0
 12  7  1  0
 13 12  1  0
 14 13  2  0
 15 13  1  0
 16 15  2  0
 16  1  1  0
 17 15  1  0
 17 11  1  0
 19 18  1  0
 19  7  1  0
 20  4  1  0
 21 20  1  0
 22 21  2  0
 23 22  1  0
 24 23  2  0
 25 24  1  0
 26 25  2  0
 26 21  1  0
 27 25  1  0
 28 27  1  0
 29 28  1  0
 29 24  1  0
  1 30  1  0
  2 31  1  0
  2 32  1  0
  3 33  1  0
  3 34  1  0
  4 35  1  0
  5 36  1  0
  5 37  1  0
  6 38  1  0
  6 39  1  0
  8 40  1  0
  9 41  1  0
 10 42  1  0
 16 43  1  0
 17 44  1  0
 17 45  1  0
 18 46  1  0
 18 47  1  0
 18 48  1  0
 20 49  1  0
 20 50  1  0
 22 51  1  0
 23 52  1  0
 26 53  1  0
 28 54  1  0
 28 55  1  0
M  CHG  1   4   1
M  END
>  <score>  (9) 
-8.291

$$$$
