=
     RDKit          3D

176182  0  0  0  0  0  0  0  0999 V2000
   -2.1490   57.1960   76.6090 C   0  0  0  0  0  0  0  0  0  0  0  0
   -3.3030   56.6800   77.4040 C   0  0  0  0  0  0  0  0  0  0  0  0
   -3.5310   55.2110   77.3640 C   0  0  0  0  0  0  0  0  0  0  0  0
   -4.2810   54.6390   78.3800 O   0  0  0  0  0  0  0  0  0  0  0  0
   -5.1500   55.4760   79.0460 C   0  0  0  0  0  0  0  0  0  0  0  0
   -5.1170   56.8650   78.8340 C   0  0  0  0  0  0  0  0  0  0  0  0
   -4.0640   57.4700   78.1060 N   0  0  0  0  0  0  0  0  0  0  0  0
   -6.1480   57.6230   79.3950 C   0  0  0  0  0  0  0  0  0  0  0  0
   -7.1230   57.0450   80.2200 C   0  0  0  0  0  0  0  0  0  0  0  0
   -7.0850   55.6770   80.4810 C   0  0  0  0  0  0  0  0  0  0  0  0
   -6.1060   54.8740   79.8860 C   0  0  0  0  0  0  0  0  0  0  0  0
   -6.1170   53.3870   80.1010 C   0  0  0  0  0  0  0  0  0  0  0  0
   -3.0650   54.4750   76.3490 C   0  0  0  0  0  0  0  0  0  0  0  0
   -2.2910   55.1320   75.2720 C   0  0  0  0  0  0  0  0  0  0  0  0
   -2.0010   54.5160   74.2490 O   0  0  0  0  0  0  0  0  0  0  0  0
   -1.7400   56.5150   75.5170 C   0  0  0  0  0  0  0  0  0  0  0  0
   -3.2950   53.0030   76.1910 C   0  0  0  0  0  0  0  0  0  0  0  0
   -1.3550   58.6720   78.3760 N   0  0  0  0  0  0  0  0  0  0  0  0
   -1.3660   58.4050   77.0360 C   0  0  0  0  0  0  0  0  0  0  0  0
   -0.6770   59.0540   76.2510 O   0  0  0  0  0  0  0  0  0  0  0  0
   -1.6390   61.4060   77.7240 O   0  0  0  0  0  0  0  0  0  0  0  0
   -0.6090   61.0460   78.2980 C   0  0  0  0  0  0  0  0  0  0  0  0
    0.3840   61.9830   78.5040 N   0  0  0  0  0  0  0  0  0  0  0  0
    1.4040   62.1020   77.4380 C   0  0  1  0  0  0  0  0  0  0  0  0
    0.7240   62.9190   76.3040 C   0  0  0  0  0  0  0  0  0  0  0  0
    0.2730   64.0400   76.5650 O   0  0  0  0  0  0  0  0  0  0  0  0
    0.5690   62.3480   75.0650 N   0  0  0  0  0  0  0  0  0  0  0  0
   -0.2830   62.9850   74.0730 C   0  0  0  0  0  0  0  0  0  0  0  0
   -0.2690   62.0580   72.8660 C   0  0  0  0  0  0  0  0  0  0  0  0
    0.0300   60.6910   73.4750 C   0  0  0  0  0  0  0  0  0  0  0  0
    0.9930   61.0180   74.6170 C   0  0  1  0  0  0  0  0  0  0  0  0
    2.4440   61.0360   74.0820 C   0  0  0  0  0  0  0  0  0  0  0  0
    2.8760   62.0100   73.4550 O   0  0  0  0  0  0  0  0  0  0  0  0
    3.2260   59.9020   74.2540 N   0  0  0  0  0  0  0  0  0  0  0  0
    4.4330   59.7790   73.4530 C   0  0  0  0  0  0  0  0  0  0  0  0
    3.0890   58.9510   75.3640 C   0  0  0  0  0  0  0  0  0  0  0  0
    2.3750   57.6440   75.0100 C   0  0  0  0  0  0  0  0  0  0  0  0
    1.7750   57.5440   73.9350 O   0  0  0  0  0  0  0  0  0  0  0  0
    2.4260   56.5790   75.9150 N   0  0  0  0  0  0  0  0  0  0  0  0
    2.7820   56.6390   77.3600 C   0  0  2  0  0  0  0  0  0  0  0  0
    1.6200   57.1930   78.2120 C   0  0  0  0  0  0  0  0  0  0  0  0
    0.6830   56.4890   78.5790 O   0  0  0  0  0  0  0  0  0  0  0  0
    1.7600   58.5220   78.4720 O   0  0  0  0  0  0  0  0  0  0  0  0
    0.9140   59.1790   79.4540 C   0  0  1  0  0  0  0  0  0  0  0  0
   -0.4880   59.6670   79.0000 C   0  0  2  0  0  0  0  0  0  0  0  0
    0.8360   58.3860   80.7700 C   0  0  0  0  0  0  0  0  0  0  0  0
    1.7840   55.3350   75.4960 C   0  0  0  0  0  0  0  0  0  0  0  0
    2.6550   62.8610   77.9440 C   0  0  0  0  0  0  0  0  0  0  0  0
    3.4820   61.9970   78.9020 C   0  0  0  0  0  0  0  0  0  0  0  0
    2.2870   64.1680   78.6530 C   0  0  0  0  0  0  0  0  0  0  0  0
    4.1920   57.1570   77.7480 C   0  0  0  0  0  0  0  0  0  0  0  0
    5.2570   56.6820   76.7500 C   0  0  0  0  0  0  0  0  0  0  0  0
    4.5990   56.6630   79.1470 C   0  0  0  0  0  0  0  0  0  0  0  0
   -6.3580   59.0200   78.9980 C   0  0  0  0  0  0  0  0  0  0  0  0
   -5.4130   59.6780   78.5770 O   0  0  0  0  0  0  0  0  0  0  0  0
   -7.6530   59.4750   79.0450 N   0  0  0  0  0  0  0  0  0  0  0  0
   -7.9570   60.8670   78.7110 C   0  0  1  0  0  0  0  0  0  0  0  0
   -9.1320   60.9780   77.7110 C   0  0  1  0  0  0  0  0  0  0  0  0
  -10.0430   62.1820   77.9290 C   0  0  0  0  0  0  0  0  0  0  0  0
   -8.5630   61.1900   76.3810 O   0  0  0  0  0  0  0  0  0  0  0  0
   -7.9990   60.1190   75.7500 C   0  0  0  0  0  0  0  0  0  0  0  0
   -8.1250   58.9530   76.0940 O   0  0  0  0  0  0  0  0  0  0  0  0
   -7.1480   60.6270   74.5660 C   0  0  1  0  0  0  0  0  0  0  0  0
   -5.9160   59.8230   74.3860 N   0  0  0  0  0  0  0  0  0  0  0  0
   -5.9830   58.5820   73.6280 C   0  0  0  0  0  0  0  0  0  0  0  0
   -4.6870   60.1240   74.9870 C   0  0  0  0  0  0  0  0  0  0  0  0
   -3.6460   59.5580   74.6420 O   0  0  0  0  0  0  0  0  0  0  0  0
   -4.6340   61.2120   76.0800 C   0  0  0  0  0  0  0  0  0  0  0  0
   -4.2550   62.5650   75.6510 N   0  0  0  0  0  0  0  0  0  0  0  0
   -4.6290   63.6720   76.4350 C   0  0  0  0  0  0  0  0  0  0  0  0
   -3.8360   64.5740   76.7110 O   0  0  0  0  0  0  0  0  0  0  0  0
   -6.1370   63.8100   76.7750 C   0  0  1  0  0  0  0  0  0  0  0  0
   -6.4430   64.7160   77.8860 N   0  0  0  0  0  0  0  0  0  0  0  0
   -6.5170   64.4380   79.2370 C   0  0  0  0  0  0  0  0  0  0  0  0
   -7.0100   65.2590   80.0180 O   0  0  0  0  0  0  0  0  0  0  0  0
   -6.0170   63.0660   79.7590 C   0  0  2  0  0  0  0  0  0  0  0  0
   -7.1660   62.4620   80.4680 N   0  0  0  0  0  0  0  0  0  0  0  0
   -8.1380   61.6050   80.0380 C   0  0  0  0  0  0  0  0  0  0  0  0
   -9.0970   61.3440   80.7690 O   0  0  0  0  0  0  0  0  0  0  0  0
   -6.9490   65.9900   77.3970 C   0  0  0  0  0  0  0  0  0  0  0  0
   -6.7580   65.9470   75.8900 C   0  0  0  0  0  0  0  0  0  0  0  0
   -6.8480   64.4580   75.5780 C   0  0  0  0  0  0  0  0  0  0  0  0
   -2.9370   62.6590   75.0360 C   0  0  0  0  0  0  0  0  0  0  0  0
   -8.0270   60.9200   73.3210 C   0  0  0  0  0  0  0  0  0  0  0  0
   -7.3120   60.8970   71.9690 C   0  0  0  0  0  0  0  0  0  0  0  0
   -8.8320   62.2120   73.4860 C   0  0  0  0  0  0  0  0  0  0  0  0
   -4.8270   63.2650   80.7330 C   0  0  0  0  0  0  0  0  0  0  0  0
   -3.9280   62.0230   80.7700 C   0  0  0  0  0  0  0  0  0  0  0  0
   -3.9730   64.4780   80.3530 C   0  0  0  0  0  0  0  0  0  0  0  0
   -0.7900   56.9180   74.5860 N   0  0  0  0  0  0  0  0  0  0  0  0
   -7.9150   57.6692   80.6596 H   0  0  0  0  0  0  0  0  0  0  0  0
   -7.8270   55.2269   81.1569 H   0  0  0  0  0  0  0  0  0  0  0  0
   -6.1186   53.1725   81.1799 H   0  0  0  0  0  0  0  0  0  0  0  0
   -7.0184   52.9566   79.6403 H   0  0  0  0  0  0  0  0  0  0  0  0
   -5.2221   52.9433   79.6403 H   0  0  0  0  0  0  0  0  0  0  0  0
   -3.3682   52.5347   77.1836 H   0  0  0  0  0  0  0  0  0  0  0  0
   -4.2302   52.8354   75.6367 H   0  0  0  0  0  0  0  0  0  0  0  0
   -2.4555   52.5581   75.6367 H   0  0  0  0  0  0  0  0  0  0  0  0
   -1.9962   58.1399   78.9815 H   0  0  0  0  0  0  0  0  0  0  0  0
    0.4133   62.5666   79.3522 H   0  0  0  0  0  0  0  0  0  0  0  0
    1.7416   61.1106   77.1016 H   0  0  0  0  0  0  0  0  0  0  0  0
   -1.3066   63.0958   74.4602 H   0  0  0  0  0  0  0  0  0  0  0  0
    0.0745   63.9931   73.8163 H   0  0  0  0  0  0  0  0  0  0  0  0
   -1.2447   62.0580   72.3581 H   0  0  0  0  0  0  0  0  0  0  0  0
    0.4635   62.3579   72.1021 H   0  0  0  0  0  0  0  0  0  0  0  0
   -0.8881   60.2201   73.8563 H   0  0  0  0  0  0  0  0  0  0  0  0
    0.4490   59.9786   72.7491 H   0  0  0  0  0  0  0  0  0  0  0  0
    0.9730   60.2842   75.4363 H   0  0  0  0  0  0  0  0  0  0  0  0
    5.3059   59.6900   74.1165 H   0  0  0  0  0  0  0  0  0  0  0  0
    4.3621   58.8834   72.8182 H   0  0  0  0  0  0  0  0  0  0  0  0
    4.5442   60.6705   72.8182 H   0  0  0  0  0  0  0  0  0  0  0  0
    4.0972   58.7020   75.7267 H   0  0  0  0  0  0  0  0  0  0  0  0
    2.4640   59.4483   76.1203 H   0  0  0  0  0  0  0  0  0  0  0  0
    2.9163   55.5818   77.6325 H   0  0  0  0  0  0  0  0  0  0  0  0
    1.4519   60.1245   79.6173 H   0  0  0  0  0  0  0  0  0  0  0  0
   -0.8853   59.8517   80.0090 H   0  0  0  0  0  0  0  0  0  0  0  0
    0.9043   59.0799   81.6208 H   0  0  0  0  0  0  0  0  0  0  0  0
   -0.1198   57.8435   80.8151 H   0  0  0  0  0  0  0  0  0  0  0  0
    1.6678   57.6676   80.8151 H   0  0  0  0  0  0  0  0  0  0  0  0
    1.4865   54.7586   76.3844 H   0  0  0  0  0  0  0  0  0  0  0  0
    0.8930   55.5669   74.8941 H   0  0  0  0  0  0  0  0  0  0  0  0
    2.4892   54.7431   74.8941 H   0  0  0  0  0  0  0  0  0  0  0  0
    3.2519   63.0967   77.0506 H   0  0  0  0  0  0  0  0  0  0  0  0
    3.2316   62.2586   79.9407 H   0  0  0  0  0  0  0  0  0  0  0  0
    3.2552   60.9350   78.7265 H   0  0  0  0  0  0  0  0  0  0  0  0
    4.5529   62.1771   78.7265 H   0  0  0  0  0  0  0  0  0  0  0  0
    2.3290   64.0188   79.7420 H   0  0  0  0  0  0  0  0  0  0  0  0
    2.9984   64.9553   78.3631 H   0  0  0  0  0  0  0  0  0  0  0  0
    1.2693   64.4685   78.3631 H   0  0  0  0  0  0  0  0  0  0  0  0
    4.1355   58.2555   77.7377 H   0  0  0  0  0  0  0  0  0  0  0  0
    6.1273   56.2939   77.2995 H   0  0  0  0  0  0  0  0  0  0  0  0
    4.8376   55.8856   76.1176 H   0  0  0  0  0  0  0  0  0  0  0  0
    5.5693   57.5261   76.1176 H   0  0  0  0  0  0  0  0  0  0  0  0
    4.0963   57.2731   79.9119 H   0  0  0  0  0  0  0  0  0  0  0  0
    4.3027   55.6102   79.2647 H   0  0  0  0  0  0  0  0  0  0  0  0
    5.6890   56.7524   79.2647 H   0  0  0  0  0  0  0  0  0  0  0  0
   -8.4127   58.8345   79.3162 H   0  0  0  0  0  0  0  0  0  0  0  0
   -7.1372   61.3524   78.1611 H   0  0  0  0  0  0  0  0  0  0  0  0
   -9.7206   60.0576   77.8394 H   0  0  0  0  0  0  0  0  0  0  0  0
  -10.1725   62.3532   79.0078 H   0  0  0  0  0  0  0  0  0  0  0  0
   -9.5905   63.0724   77.4682 H   0  0  0  0  0  0  0  0  0  0  0  0
  -11.0229   61.9886   77.4682 H   0  0  0  0  0  0  0  0  0  0  0  0
   -6.7318   61.6194   74.7940 H   0  0  0  0  0  0  0  0  0  0  0  0
   -6.0290   57.7302   74.3225 H   0  0  0  0  0  0  0  0  0  0  0  0
   -6.8822   58.5875   72.9944 H   0  0  0  0  0  0  0  0  0  0  0  0
   -5.0885   58.4906   72.9944 H   0  0  0  0  0  0  0  0  0  0  0  0
   -5.6334   61.2751   76.5352 H   0  0  0  0  0  0  0  0  0  0  0  0
   -3.8344   60.8929   76.7647 H   0  0  0  0  0  0  0  0  0  0  0  0
   -6.4586   62.7902   77.0330 H   0  0  0  0  0  0  0  0  0  0  0  0
   -5.6642   62.4230   78.9392 H   0  0  0  0  0  0  0  0  0  0  0  0
   -7.2469   62.7353   81.4578 H   0  0  0  0  0  0  0  0  0  0  0  0
   -8.0142   66.1028   77.6471 H   0  0  0  0  0  0  0  0  0  0  0  0
   -6.4226   66.8418   77.8524 H   0  0  0  0  0  0  0  0  0  0  0  0
   -7.5513   66.5081   75.3743 H   0  0  0  0  0  0  0  0  0  0  0  0
   -5.8140   66.4041   75.5585 H   0  0  0  0  0  0  0  0  0  0  0  0
   -6.3327   64.2197   74.6358 H   0  0  0  0  0  0  0  0  0  0  0  0
   -7.8813   64.1049   75.4448 H   0  0  0  0  0  0  0  0  0  0  0  0
   -2.1689   62.7138   75.8215 H   0  0  0  0  0  0  0  0  0  0  0  0
   -2.7598   61.7712   74.4112 H   0  0  0  0  0  0  0  0  0  0  0  0
   -2.8876   63.5630   74.4112 H   0  0  0  0  0  0  0  0  0  0  0  0
   -8.7106   60.0589   73.2859 H   0  0  0  0  0  0  0  0  0  0  0  0
   -6.2244   60.8620   72.1299 H   0  0  0  0  0  0  0  0  0  0  0  0
   -7.6276   60.0085   71.4024 H   0  0  0  0  0  0  0  0  0  0  0  0
   -7.5698   61.8039   71.4024 H   0  0  0  0  0  0  0  0  0  0  0  0
   -8.9657   62.4265   74.5566 H   0  0  0  0  0  0  0  0  0  0  0  0
   -8.2920   63.0438   73.0100 H   0  0  0  0  0  0  0  0  0  0  0  0
   -9.8166   62.0939   73.0100 H   0  0  0  0  0  0  0  0  0  0  0  0
   -5.2661   63.4354   81.7271 H   0  0  0  0  0  0  0  0  0  0  0  0
   -3.7277   61.7463   81.8156 H   0  0  0  0  0  0  0  0  0  0  0  0
   -4.4333   61.1893   80.2605 H   0  0  0  0  0  0  0  0  0  0  0  0
   -2.9782   62.2426   80.2605 H   0  0  0  0  0  0  0  0  0  0  0  0
   -3.6204   64.9789   81.2667 H   0  0  0  0  0  0  0  0  0  0  0  0
   -3.1082   64.1462   79.7597 H   0  0  0  0  0  0  0  0  0  0  0  0
   -4.5770   65.1803   79.7597 H   0  0  0  0  0  0  0  0  0  0  0  0
   -0.3528   57.8472   74.6655 H   0  0  0  0  0  0  0  0  0  0  0  0
   -0.5232   56.2875   73.8165 H   0  0  0  0  0  0  0  0  0  0  0  0
  2  1  1  0
  3  2  1  0
  4  3  1  0
  5  4  1  0
  6  5  2  0
  7  6  1  0
  7  2  2  0
  8  6  1  0
  9  8  2  0
 10  9  1  0
 11 10  2  0
 11  5  1  0
 12 11  1  0
 13  3  2  0
 14 13  1  0
 15 14  2  0
 16 14  1  0
 16  1  2  0
 17 13  1  0
 19 18  1  0
 19  1  1  0
 20 19  2  0
 22 21  2  0
 23 22  1  0
 24 23  1  0
 25 24  1  0
 26 25  2  0
 27 25  1  0
 28 27  1  0
 29 28  1  0
 30 29  1  0
 31 30  1  0
 31 27  1  0
 32 31  1  0
 33 32  2  0
 34 32  1  0
 35 34  1  0
 36 34  1  0
 37 36  1  0
 38 37  2  0
 39 37  1  0
 40 39  1  0
 41 40  1  0
 42 41  2  0
 43 41  1  0
 44 43  1  0
 45 44  1  0
 45 18  1  0
 45 22  1  0
 46 44  1  0
 47 39  1  0
 48 24  1  0
 49 48  1  0
 50 48  1  0
 51 40  1  0
 52 51  1  0
 53 51  1  0
 54  8  1  0
 55 54  2  0
 56 54  1  0
 57 56  1  0
 58 57  1  0
 59 58  1  0
 60 58  1  0
 61 60  1  0
 62 61  2  0
 63 61  1  0
 64 63  1  0
 65 64  1  0
 66 64  1  0
 67 66  2  0
 68 66  1  0
 69 68  1  0
 70 69  1  0
 71 70  2  0
 72 70  1  0
 73 72  1  0
 74 73  1  0
 75 74  2  0
 76 74  1  0
 77 76  1  0
 78 77  1  0
 78 57  1  0
 79 78  2  0
 80 73  1  0
 81 80  1  0
 82 72  1  0
 82 81  1  0
 83 69  1  0
 84 63  1  0
 85 84  1  0
 86 84  1  0
 87 76  1  0
 88 87  1  0
 89 87  1  0
 90 16  1  0
  9 91  1  0
 10 92  1  0
 12 93  1  0
 12 94  1  0
 12 95  1  0
 17 96  1  0
 17 97  1  0
 17 98  1  0
 18 99  1  0
 23100  1  0
 24101  1  6
 28102  1  0
 28103  1  0
 29104  1  0
 29105  1  0
 30106  1  0
 30107  1  0
 31108  1  1
 35109  1  0
 35110  1  0
 35111  1  0
 36112  1  0
 36113  1  0
 40114  1  1
 44115  1  1
 45116  1  1
 46117  1  0
 46118  1  0
 46119  1  0
 47120  1  0
 47121  1  0
 47122  1  0
 48123  1  0
 49124  1  0
 49125  1  0
 49126  1  0
 50127  1  0
 50128  1  0
 50129  1  0
 51130  1  0
 52131  1  0
 52132  1  0
 52133  1  0
 53134  1  0
 53135  1  0
 53136  1  0
 56137  1  0
 57138  1  6
 58139  1  6
 59140  1  0
 59141  1  0
 59142  1  0
 63143  1  1
 65144  1  0
 65145  1  0
 65146  1  0
 68147  1  0
 68148  1  0
 72149  1  1
 76150  1  6
 77151  1  0
 80152  1  0
 80153  1  0
 81154  1  0
 81155  1  0
 82156  1  0
 82157  1  0
 83158  1  0
 83159  1  0
 83160  1  0
 84161  1  0
 85162  1  0
 85163  1  0
 85164  1  0
 86165  1  0
 86166  1  0
 86167  1  0
 87168  1  0
 88169  1  0
 88170  1  0
 88171  1  0
 89172  1  0
 89173  1  0
 89174  1  0
 90175  1  0
 90176  1  0
M  END
>  <score>  (1) 
-5.689

$$$$
=
     RDKit          3D

176182  0  0  0  0  0  0  0  0999 V2000
   -1.5700   61.6400   76.1620 C   0  0  0  0  0  0  0  0  0  0  0  0
   -0.3890   62.0590   76.9720 C   0  0  0  0  0  0  0  0  0  0  0  0
    0.2670   63.3340   76.5780 C   0  0  0  0  0  0  0  0  0  0  0  0
    1.0630   63.9760   77.5140 O   0  0  0  0  0  0  0  0  0  0  0  0
    1.5830   63.1890   78.5190 C   0  0  0  0  0  0  0  0  0  0  0  0
    1.1570   61.8610   78.6870 C   0  0  0  0  0  0  0  0  0  0  0  0
    0.0390   61.3550   77.9810 N   0  0  0  0  0  0  0  0  0  0  0  0
    1.8650   61.0720   79.5990 C   0  0  0  0  0  0  0  0  0  0  0  0
    2.8910   61.6040   80.3910 C   0  0  0  0  0  0  0  0  0  0  0  0
    3.2390   62.9460   80.2630 C   0  0  0  0  0  0  0  0  0  0  0  0
    2.5980   63.7520   79.3160 C   0  0  0  0  0  0  0  0  0  0  0  0
    3.0310   65.1770   79.1200 C   0  0  0  0  0  0  0  0  0  0  0  0
    0.1300   63.8160   75.3380 C   0  0  0  0  0  0  0  0  0  0  0  0
   -0.7080   63.0830   74.3630 C   0  0  0  0  0  0  0  0  0  0  0  0
   -0.7120   63.4080   73.1770 O   0  0  0  0  0  0  0  0  0  0  0  0
   -1.6630   62.0340   74.8740 C   0  0  0  0  0  0  0  0  0  0  0  0
    0.8000   65.0560   74.8310 C   0  0  0  0  0  0  0  0  0  0  0  0
   -3.9550   61.4110   76.6030 N   0  0  0  0  0  0  0  0  0  0  0  0
   -2.7120   60.8660   76.7590 C   0  0  0  0  0  0  0  0  0  0  0  0
   -2.5620   59.7520   77.2580 O   0  0  0  0  0  0  0  0  0  0  0  0
   -5.7690   60.7300   74.5480 O   0  0  0  0  0  0  0  0  0  0  0  0
   -6.1670   60.6940   75.7150 C   0  0  0  0  0  0  0  0  0  0  0  0
   -7.5000   60.4140   75.9400 N   0  0  0  0  0  0  0  0  0  0  0  0
   -8.4130   61.5780   76.0020 C   0  0  1  0  0  0  0  0  0  0  0  0
   -8.6440   62.0030   74.5250 C   0  0  0  0  0  0  0  0  0  0  0  0
   -9.0960   61.1710   73.7310 O   0  0  0  0  0  0  0  0  0  0  0  0
   -8.2680   63.2600   74.1210 N   0  0  0  0  0  0  0  0  0  0  0  0
   -8.2370   63.5880   72.7050 C   0  0  0  0  0  0  0  0  0  0  0  0
   -7.7220   65.0180   72.6280 C   0  0  0  0  0  0  0  0  0  0  0  0
   -6.8930   65.1640   73.9000 C   0  0  0  0  0  0  0  0  0  0  0  0
   -7.6690   64.3310   74.9220 C   0  0  1  0  0  0  0  0  0  0  0  0
   -8.7510   65.2110   75.5920 C   0  0  0  0  0  0  0  0  0  0  0  0
   -9.8120   65.4630   75.0100 O   0  0  0  0  0  0  0  0  0  0  0  0
   -8.4720   65.7750   76.8290 N   0  0  0  0  0  0  0  0  0  0  0  0
   -9.3140   66.8700   77.2840 C   0  0  0  0  0  0  0  0  0  0  0  0
   -7.5800   65.1860   77.8350 C   0  0  0  0  0  0  0  0  0  0  0  0
   -6.1940   65.8320   77.9260 C   0  0  0  0  0  0  0  0  0  0  0  0
   -5.8240   66.6180   77.0470 O   0  0  0  0  0  0  0  0  0  0  0  0
   -5.3740   65.5220   79.0160 N   0  0  0  0  0  0  0  0  0  0  0  0
   -5.5040   64.3640   79.9430 C   0  0  2  0  0  0  0  0  0  0  0  0
   -4.9950   63.0570   79.3000 C   0  0  0  0  0  0  0  0  0  0  0  0
   -3.8020   62.7640   79.2690 O   0  0  0  0  0  0  0  0  0  0  0  0
   -6.0060   62.3130   78.7750 O   0  0  0  0  0  0  0  0  0  0  0  0
   -5.7750   60.9440   78.3450 C   0  0  1  0  0  0  0  0  0  0  0  0
   -5.1960   60.7120   76.9240 C   0  0  2  0  0  0  0  0  0  0  0  0
   -5.0130   60.1300   79.4050 C   0  0  0  0  0  0  0  0  0  0  0  0
   -4.0910   66.2180   79.0860 C   0  0  0  0  0  0  0  0  0  0  0  0
   -9.7660   61.1930   76.6490 C   0  0  0  0  0  0  0  0  0  0  0  0
  -10.4610   62.4150   77.2580 C   0  0  0  0  0  0  0  0  0  0  0  0
   -9.6000   60.1280   77.7380 C   0  0  0  0  0  0  0  0  0  0  0  0
   -6.8100   64.2300   80.7700 C   0  0  0  0  0  0  0  0  0  0  0  0
   -7.7100   63.1150   80.2200 C   0  0  0  0  0  0  0  0  0  0  0  0
   -7.6150   65.5410   80.7530 C   0  0  0  0  0  0  0  0  0  0  0  0
    1.6830   59.6160   79.6350 C   0  0  0  0  0  0  0  0  0  0  0  0
    0.9980   59.1130   80.5180 O   0  0  0  0  0  0  0  0  0  0  0  0
    2.2390   58.9120   78.5950 N   0  0  0  0  0  0  0  0  0  0  0  0
    2.1510   57.4510   78.5660 C   0  0  1  0  0  0  0  0  0  0  0  0
    3.2690   56.8230   77.7010 C   0  0  1  0  0  0  0  0  0  0  0  0
    3.8050   55.4920   78.2220 C   0  0  0  0  0  0  0  0  0  0  0  0
    2.6920   56.4960   76.3990 O   0  0  0  0  0  0  0  0  0  0  0  0
    2.4600   57.5210   75.5280 C   0  0  0  0  0  0  0  0  0  0  0  0
    2.8980   58.6560   75.6450 O   0  0  0  0  0  0  0  0  0  0  0  0
    1.5260   57.0220   74.4040 C   0  0  1  0  0  0  0  0  0  0  0  0
    0.5690   58.0700   73.9750 N   0  0  0  0  0  0  0  0  0  0  0  0
    0.9940   59.0590   72.9950 C   0  0  0  0  0  0  0  0  0  0  0  0
   -0.7060   58.2420   74.5260 C   0  0  0  0  0  0  0  0  0  0  0  0
   -1.5410   58.9800   73.9960 O   0  0  0  0  0  0  0  0  0  0  0  0
   -1.0820   57.4630   75.8030 C   0  0  0  0  0  0  0  0  0  0  0  0
   -1.8130   56.2010   75.6200 N   0  0  0  0  0  0  0  0  0  0  0  0
   -1.7780   55.2250   76.6330 C   0  0  0  0  0  0  0  0  0  0  0  0
   -2.7960   54.6470   77.0180 O   0  0  0  0  0  0  0  0  0  0  0  0
   -0.3750   54.7630   77.1100 C   0  0  1  0  0  0  0  0  0  0  0  0
   -0.3550   54.0630   78.3970 N   0  0  0  0  0  0  0  0  0  0  0  0
   -0.2350   54.5880   79.6690 C   0  0  0  0  0  0  0  0  0  0  0  0
   -0.0050   53.8490   80.6320 O   0  0  0  0  0  0  0  0  0  0  0  0
   -0.3450   56.1220   79.8710 C   0  0  2  0  0  0  0  0  0  0  0  0
    0.9120   56.5320   80.5340 N   0  0  0  0  0  0  0  0  0  0  0  0
    2.0920   56.9870   80.0220 C   0  0  0  0  0  0  0  0  0  0  0  0
    3.0710   57.1290   80.7590 O   0  0  0  0  0  0  0  0  0  0  0  0
   -0.2130   52.6270   78.2080 C   0  0  0  0  0  0  0  0  0  0  0  0
   -0.3530   52.4020   76.7120 C   0  0  0  0  0  0  0  0  0  0  0  0
    0.1530   53.7130   76.1220 C   0  0  0  0  0  0  0  0  0  0  0  0
   -3.0920   56.3370   74.9350 C   0  0  0  0  0  0  0  0  0  0  0  0
    2.3150   56.2500   73.3130 C   0  0  0  0  0  0  0  0  0  0  0  0
    2.2750   56.8450   71.9040 C   0  0  0  0  0  0  0  0  0  0  0  0
    1.9400   54.7660   73.2850 C   0  0  0  0  0  0  0  0  0  0  0  0
   -1.5620   56.4580   80.7700 C   0  0  0  0  0  0  0  0  0  0  0  0
   -1.9940   57.9200   80.5950 C   0  0  0  0  0  0  0  0  0  0  0  0
   -2.7620   55.5540   80.4700 C   0  0  0  0  0  0  0  0  0  0  0  0
   -2.6050   61.6240   73.9380 N   0  0  0  0  0  0  0  0  0  0  0  0
    3.4200   60.9633   81.1118 H   0  0  0  0  0  0  0  0  0  0  0  0
    4.0203   63.3738   80.9084 H   0  0  0  0  0  0  0  0  0  0  0  0
    3.1760   65.6543   80.1004 H   0  0  0  0  0  0  0  0  0  0  0  0
    3.9764   65.1990   78.5580 H   0  0  0  0  0  0  0  0  0  0  0  0
    2.2577   65.7212   78.5580 H   0  0  0  0  0  0  0  0  0  0  0  0
    1.1309   65.6684   75.6828 H   0  0  0  0  0  0  0  0  0  0  0  0
    1.6708   64.7782   74.2190 H   0  0  0  0  0  0  0  0  0  0  0  0
    0.0904   65.6321   74.2190 H   0  0  0  0  0  0  0  0  0  0  0  0
   -4.0205   62.3717   76.2374 H   0  0  0  0  0  0  0  0  0  0  0  0
   -7.8404   59.4491   76.0582 H   0  0  0  0  0  0  0  0  0  0  0  0
   -7.9823   62.3860   76.6116 H   0  0  0  0  0  0  0  0  0  0  0  0
   -7.5608   62.9068   72.1677 H   0  0  0  0  0  0  0  0  0  0  0  0
   -9.2296   63.4871   72.2417 H   0  0  0  0  0  0  0  0  0  0  0  0
   -7.0991   65.1644   71.7332 H   0  0  0  0  0  0  0  0  0  0  0  0
   -8.5291   65.7617   72.5536 H   0  0  0  0  0  0  0  0  0  0  0  0
   -5.8775   64.7662   73.7566 H   0  0  0  0  0  0  0  0  0  0  0  0
   -6.7597   66.2111   74.2096 H   0  0  0  0  0  0  0  0  0  0  0  0
   -7.0440   63.9332   75.7351 H   0  0  0  0  0  0  0  0  0  0  0  0
   -9.3285   66.8889   78.3837 H   0  0  0  0  0  0  0  0  0  0  0  0
   -8.9132   67.8222   76.9062 H   0  0  0  0  0  0  0  0  0  0  0  0
  -10.3372   66.7272   76.9062 H   0  0  0  0  0  0  0  0  0  0  0  0
   -8.0652   65.2785   78.8179 H   0  0  0  0  0  0  0  0  0  0  0  0
   -7.4144   64.1430   77.5273 H   0  0  0  0  0  0  0  0  0  0  0  0
   -4.8161   64.6164   80.7634 H   0  0  0  0  0  0  0  0  0  0  0  0
   -6.8020   60.5628   78.2448 H   0  0  0  0  0  0  0  0  0  0  0  0
   -4.9394   59.6521   77.0681 H   0  0  0  0  0  0  0  0  0  0  0  0
   -5.3197   60.4577   80.4093 H   0  0  0  0  0  0  0  0  0  0  0  0
   -5.2429   59.0614   79.2818 H   0  0  0  0  0  0  0  0  0  0  0  0
   -3.9315   60.2890   79.2818 H   0  0  0  0  0  0  0  0  0  0  0  0
   -3.8127   66.3689   80.1395 H   0  0  0  0  0  0  0  0  0  0  0  0
   -3.3190   65.6150   78.5856 H   0  0  0  0  0  0  0  0  0  0  0  0
   -4.1755   67.1939   78.5856 H   0  0  0  0  0  0  0  0  0  0  0  0
  -10.3860   60.7810   75.8391 H   0  0  0  0  0  0  0  0  0  0  0  0
  -10.4235   62.3491   78.3554 H   0  0  0  0  0  0  0  0  0  0  0  0
   -9.9485   63.3307   76.9279 H   0  0  0  0  0  0  0  0  0  0  0  0
  -11.5099   62.4426   76.9279 H   0  0  0  0  0  0  0  0  0  0  0  0
   -9.6738   60.6014   78.7282 H   0  0  0  0  0  0  0  0  0  0  0  0
  -10.3909   59.3707   77.6338 H   0  0  0  0  0  0  0  0  0  0  0  0
   -8.6161   59.6473   77.6338 H   0  0  0  0  0  0  0  0  0  0  0  0
   -6.5046   63.9883   81.7987 H   0  0  0  0  0  0  0  0  0  0  0  0
   -8.1584   62.5594   81.0568 H   0  0  0  0  0  0  0  0  0  0  0  0
   -8.5072   63.5573   79.6045 H   0  0  0  0  0  0  0  0  0  0  0  0
   -7.1094   62.4291   79.6045 H   0  0  0  0  0  0  0  0  0  0  0  0
   -7.8128   65.8632   81.7860 H   0  0  0  0  0  0  0  0  0  0  0  0
   -7.0385   66.3185   80.2304 H   0  0  0  0  0  0  0  0  0  0  0  0
   -8.5692   65.3786   80.2304 H   0  0  0  0  0  0  0  0  0  0  0  0
    2.7189   59.4131   77.8338 H   0  0  0  0  0  0  0  0  0  0  0  0
    1.2399   57.0978   78.0609 H   0  0  0  0  0  0  0  0  0  0  0  0
    4.0867   57.5587   77.6909 H   0  0  0  0  0  0  0  0  0  0  0  0
    3.8015   55.5006   79.3220 H   0  0  0  0  0  0  0  0  0  0  0  0
    3.1667   54.6726   77.8597 H   0  0  0  0  0  0  0  0  0  0  0  0
    4.8330   55.3436   77.8597 H   0  0  0  0  0  0  0  0  0  0  0  0
    0.8459   56.2476   74.7885 H   0  0  0  0  0  0  0  0  0  0  0  0
    1.3767   59.9496   73.5150 H   0  0  0  0  0  0  0  0  0  0  0  0
    1.7884   58.6328   72.3647 H   0  0  0  0  0  0  0  0  0  0  0  0
    0.1380   59.3420   72.3647 H   0  0  0  0  0  0  0  0  0  0  0  0
   -0.1493   57.2323   76.3385 H   0  0  0  0  0  0  0  0  0  0  0  0
   -1.7761   58.1207   76.3467 H   0  0  0  0  0  0  0  0  0  0  0  0
    0.2114   55.6904   77.1877 H   0  0  0  0  0  0  0  0  0  0  0  0
   -0.4892   56.6484   78.9159 H   0  0  0  0  0  0  0  0  0  0  0  0
    0.8933   56.4618   81.5614 H   0  0  0  0  0  0  0  0  0  0  0  0
    0.7735   52.2884   78.5576 H   0  0  0  0  0  0  0  0  0  0  0  0
   -0.9649   52.0626   78.7790 H   0  0  0  0  0  0  0  0  0  0  0  0
    0.2641   51.5542   76.3798 H   0  0  0  0  0  0  0  0  0  0  0  0
   -1.3796   52.1545   76.4040 H   0  0  0  0  0  0  0  0  0  0  0  0
   -0.2565   53.8772   75.1143 H   0  0  0  0  0  0  0  0  0  0  0  0
    1.2461   53.7412   76.0025 H   0  0  0  0  0  0  0  0  0  0  0  0
   -3.8986   56.4228   75.6780 H   0  0  0  0  0  0  0  0  0  0  0  0
   -3.0765   57.2386   74.3050 H   0  0  0  0  0  0  0  0  0  0  0  0
   -3.2664   55.4523   74.3050 H   0  0  0  0  0  0  0  0  0  0  0  0
    3.3623   56.3616   73.6304 H   0  0  0  0  0  0  0  0  0  0  0  0
    2.2014   57.9405   71.9706 H   0  0  0  0  0  0  0  0  0  0  0  0
    3.1936   56.5714   71.3642 H   0  0  0  0  0  0  0  0  0  0  0  0
    1.4013   56.4509   71.3642 H   0  0  0  0  0  0  0  0  0  0  0  0
    1.8455   54.3922   74.3152 H   0  0  0  0  0  0  0  0  0  0  0  0
    0.9817   54.6398   72.7598 H   0  0  0  0  0  0  0  0  0  0  0  0
    2.7233   54.1997   72.7598 H   0  0  0  0  0  0  0  0  0  0  0  0
   -1.2363   56.2880   81.8068 H   0  0  0  0  0  0  0  0  0  0  0  0
   -2.1307   58.3828   81.5835 H   0  0  0  0  0  0  0  0  0  0  0  0
   -1.2191   58.4671   80.0380 H   0  0  0  0  0  0  0  0  0  0  0  0
   -2.9418   57.9581   80.0380 H   0  0  0  0  0  0  0  0  0  0  0  0
   -3.2114   55.2155   81.4152 H   0  0  0  0  0  0  0  0  0  0  0  0
   -3.5085   56.1161   79.8897 H   0  0  0  0  0  0  0  0  0  0  0  0
   -2.4277   54.6814   79.8897 H   0  0  0  0  0  0  0  0  0  0  0  0
   -3.3035   60.9099   74.1891 H   0  0  0  0  0  0  0  0  0  0  0  0
   -2.6046   62.0342   72.9932 H   0  0  0  0  0  0  0  0  0  0  0  0
  2  1  1  0
  3  2  1  0
  4  3  1  0
  5  4  1  0
  6  5  2  0
  7  6  1  0
  7  2  2  0
  8  6  1  0
  9  8  2  0
 10  9  1  0
 11 10  2  0
 11  5  1  0
 12 11  1  0
 13  3  2  0
 14 13  1  0
 15 14  2  0
 16 14  1  0
 16  1  2  0
 17 13  1  0
 19 18  1  0
 19  1  1  0
 20 19  2  0
 22 21  2  0
 23 22  1  0
 24 23  1  0
 25 24  1  0
 26 25  2  0
 27 25  1  0
 28 27  1  0
 29 28  1  0
 30 29  1  0
 31 30  1  0
 31 27  1  0
 32 31  1  0
 33 32  2  0
 34 32  1  0
 35 34  1  0
 36 34  1  0
 37 36  1  0
 38 37  2  0
 39 37  1  0
 40 39  1  0
 41 40  1  0
 42 41  2  0
 43 41  1  0
 44 43  1  0
 45 44  1  0
 45 18  1  0
 45 22  1  0
 46 44  1  0
 47 39  1  0
 48 24  1  0
 49 48  1  0
 50 48  1  0
 51 40  1  0
 52 51  1  0
 53 51  1  0
 54  8  1  0
 55 54  2  0
 56 54  1  0
 57 56  1  0
 58 57  1  0
 59 58  1  0
 60 58  1  0
 61 60  1  0
 62 61  2  0
 63 61  1  0
 64 63  1  0
 65 64  1  0
 66 64  1  0
 67 66  2  0
 68 66  1  0
 69 68  1  0
 70 69  1  0
 71 70  2  0
 72 70  1  0
 73 72  1  0
 74 73  1  0
 75 74  2  0
 76 74  1  0
 77 76  1  0
 78 77  1  0
 78 57  1  0
 79 78  2  0
 80 73  1  0
 81 80  1  0
 82 72  1  0
 82 81  1  0
 83 69  1  0
 84 63  1  0
 85 84  1  0
 86 84  1  0
 87 76  1  0
 88 87  1  0
 89 87  1  0
 90 16  1  0
  9 91  1  0
 10 92  1  0
 12 93  1  0
 12 94  1  0
 12 95  1  0
 17 96  1  0
 17 97  1  0
 17 98  1  0
 18 99  1  0
 23100  1  0
 24101  1  1
 28102  1  0
 28103  1  0
 29104  1  0
 29105  1  0
 30106  1  0
 30107  1  0
 31108  1  1
 35109  1  0
 35110  1  0
 35111  1  0
 36112  1  0
 36113  1  0
 40114  1  1
 44115  1  6
 45116  1  1
 46117  1  0
 46118  1  0
 46119  1  0
 47120  1  0
 47121  1  0
 47122  1  0
 48123  1  0
 49124  1  0
 49125  1  0
 49126  1  0
 50127  1  0
 50128  1  0
 50129  1  0
 51130  1  0
 52131  1  0
 52132  1  0
 52133  1  0
 53134  1  0
 53135  1  0
 53136  1  0
 56137  1  0
 57138  1  6
 58139  1  6
 59140  1  0
 59141  1  0
 59142  1  0
 63143  1  1
 65144  1  0
 65145  1  0
 65146  1  0
 68147  1  0
 68148  1  0
 72149  1  1
 76150  1  6
 77151  1  0
 80152  1  0
 80153  1  0
 81154  1  0
 81155  1  0
 82156  1  0
 82157  1  0
 83158  1  0
 83159  1  0
 83160  1  0
 84161  1  0
 85162  1  0
 85163  1  0
 85164  1  0
 86165  1  0
 86166  1  0
 86167  1  0
 87168  1  0
 88169  1  0
 88170  1  0
 88171  1  0
 89172  1  0
 89173  1  0
 89174  1  0
 90175  1  0
 90176  1  0
M  END
>  <score>  (2) 
-4.277

$$$$
=
     RDKit          3D

176182  0  0  0  0  0  0  0  0999 V2000
   -3.5580   56.9970   77.7680 C   0  0  0  0  0  0  0  0  0  0  0  0
   -2.6650   56.1150   76.9600 C   0  0  0  0  0  0  0  0  0  0  0  0
   -2.5990   54.6860   77.3670 C   0  0  0  0  0  0  0  0  0  0  0  0
   -2.1510   53.7620   76.4360 O   0  0  0  0  0  0  0  0  0  0  0  0
   -1.3560   54.2500   75.4220 C   0  0  0  0  0  0  0  0  0  0  0  0
   -1.1880   55.6340   75.2410 C   0  0  0  0  0  0  0  0  0  0  0  0
   -1.9870   56.5670   75.9440 N   0  0  0  0  0  0  0  0  0  0  0  0
   -0.2210   56.0460   74.3190 C   0  0  0  0  0  0  0  0  0  0  0  0
    0.4850   55.1270   73.5320 C   0  0  0  0  0  0  0  0  0  0  0  0
    0.2400   53.7630   73.6720 C   0  0  0  0  0  0  0  0  0  0  0  0
   -0.6740   53.3080   74.6290 C   0  0  0  0  0  0  0  0  0  0  0  0
   -0.8750   51.8340   74.8390 C   0  0  0  0  0  0  0  0  0  0  0  0
   -2.9180   54.3160   78.6120 C   0  0  0  0  0  0  0  0  0  0  0  0
   -3.3670   55.3410   79.5810 C   0  0  0  0  0  0  0  0  0  0  0  0
   -3.5000   55.0580   80.7700 O   0  0  0  0  0  0  0  0  0  0  0  0
   -3.7990   56.6890   79.0610 C   0  0  0  0  0  0  0  0  0  0  0  0
   -2.8260   52.9140   79.1310 C   0  0  0  0  0  0  0  0  0  0  0  0
   -4.3600   58.1890   75.8020 N   0  0  0  0  0  0  0  0  0  0  0  0
   -4.2740   58.1720   77.1660 C   0  0  0  0  0  0  0  0  0  0  0  0
   -4.8530   59.0130   77.8510 O   0  0  0  0  0  0  0  0  0  0  0  0
   -3.7990   60.9560   75.8840 O   0  0  0  0  0  0  0  0  0  0  0  0
   -4.8990   60.5950   75.4580 C   0  0  0  0  0  0  0  0  0  0  0  0
   -5.8240   61.5670   75.1360 N   0  0  0  0  0  0  0  0  0  0  0  0
   -6.7410   61.9860   76.2200 C   0  0  1  0  0  0  0  0  0  0  0  0
   -5.9060   62.9340   77.1250 C   0  0  0  0  0  0  0  0  0  0  0  0
   -5.3870   63.9350   76.6200 O   0  0  0  0  0  0  0  0  0  0  0  0
   -5.6980   62.5960   78.4400 N   0  0  0  0  0  0  0  0  0  0  0  0
   -4.7190   63.3260   79.2300 C   0  0  0  0  0  0  0  0  0  0  0  0
   -4.7110   62.6510   80.5940 C   0  0  0  0  0  0  0  0  0  0  0  0
   -5.1700   61.2290   80.2880 C   0  0  0  0  0  0  0  0  0  0  0  0
   -6.1920   61.4240   79.1670 C   0  0  1  0  0  0  0  0  0  0  0  0
   -7.5890   61.6840   79.7790 C   0  0  0  0  0  0  0  0  0  0  0  0
   -7.8860   62.7960   80.2290 O   0  0  0  0  0  0  0  0  0  0  0  0
   -8.4730   60.6180   79.8850 N   0  0  0  0  0  0  0  0  0  0  0  0
   -9.6170   60.7680   80.7700 C   0  0  0  0  0  0  0  0  0  0  0  0
   -8.5060   59.4650   78.9770 C   0  0  0  0  0  0  0  0  0  0  0  0
   -7.8760   58.1860   79.5360 C   0  0  0  0  0  0  0  0  0  0  0  0
   -7.2000   58.2350   80.5690 O   0  0  0  0  0  0  0  0  0  0  0  0
   -8.0880   56.9790   78.8630 N   0  0  0  0  0  0  0  0  0  0  0  0
   -8.5540   56.7970   77.4600 C   0  0  2  0  0  0  0  0  0  0  0  0
   -7.4230   57.0640   76.4440 C   0  0  0  0  0  0  0  0  0  0  0  0
   -6.5810   56.2150   76.1640 O   0  0  0  0  0  0  0  0  0  0  0  0
   -7.4740   58.3250   75.9360 O   0  0  0  0  0  0  0  0  0  0  0  0
   -6.6590   58.6990   74.7920 C   0  0  1  0  0  0  0  0  0  0  0  0
   -5.1900   59.1260   75.0510 C   0  0  2  0  0  0  0  0  0  0  0  0
   -6.7550   57.6660   73.6560 C   0  0  0  0  0  0  0  0  0  0  0  0
   -7.5190   55.7810   79.4770 C   0  0  0  0  0  0  0  0  0  0  0  0
   -7.9630   62.7520   75.6550 C   0  0  0  0  0  0  0  0  0  0  0  0
   -8.7720   63.4140   76.7750 C   0  0  0  0  0  0  0  0  0  0  0  0
   -8.8920   61.8370   74.8510 C   0  0  0  0  0  0  0  0  0  0  0  0
   -9.9430   57.3650   77.0690 C   0  0  0  0  0  0  0  0  0  0  0  0
  -10.4650   56.7290   75.7740 C   0  0  0  0  0  0  0  0  0  0  0  0
   -9.8810   58.8880   76.8580 C   0  0  0  0  0  0  0  0  0  0  0  0
    0.2230   57.4440   74.2680 C   0  0  0  0  0  0  0  0  0  0  0  0
   -0.5450   58.3090   73.8650 O   0  0  0  0  0  0  0  0  0  0  0  0
    1.4740   57.7000   74.7750 N   0  0  0  0  0  0  0  0  0  0  0  0
    2.0240   59.0560   74.7280 C   0  0  1  0  0  0  0  0  0  0  0  0
    3.3230   59.1810   75.5580 C   0  0  1  0  0  0  0  0  0  0  0  0
    4.3670   60.1240   74.9680 C   0  0  0  0  0  0  0  0  0  0  0  0
    2.9730   59.7860   76.8420 O   0  0  0  0  0  0  0  0  0  0  0  0
    2.3430   59.0030   77.7660 C   0  0  0  0  0  0  0  0  0  0  0  0
    2.2460   57.7860   77.7080 O   0  0  0  0  0  0  0  0  0  0  0  0
    1.7400   59.9090   78.8620 C   0  0  1  0  0  0  0  0  0  0  0  0
    0.4360   59.3970   79.3460 N   0  0  0  0  0  0  0  0  0  0  0  0
    0.4160   58.3680   80.3760 C   0  0  0  0  0  0  0  0  0  0  0  0
   -0.8020   59.7650   78.8050 C   0  0  0  0  0  0  0  0  0  0  0  0
   -1.8610   59.4850   79.3730 O   0  0  0  0  0  0  0  0  0  0  0  0
   -0.8360   60.5690   77.4890 C   0  0  0  0  0  0  0  0  0  0  0  0
   -0.9480   62.0290   77.6050 N   0  0  0  0  0  0  0  0  0  0  0  0
   -0.5190   62.8460   76.5430 C   0  0  0  0  0  0  0  0  0  0  0  0
   -1.1980   63.7880   76.1290 O   0  0  0  0  0  0  0  0  0  0  0  0
    0.9340   62.6350   76.0420 C   0  0  1  0  0  0  0  0  0  0  0  0
    1.2240   63.1970   74.7200 N   0  0  0  0  0  0  0  0  0  0  0  0
    1.0770   62.6120   73.4770 C   0  0  0  0  0  0  0  0  0  0  0  0
    1.5800   63.1330   72.4760 O   0  0  0  0  0  0  0  0  0  0  0  0
    0.3130   61.2680   73.3560 C   0  0  2  0  0  0  0  0  0  0  0  0
    1.2560   60.3250   72.7150 N   0  0  0  0  0  0  0  0  0  0  0  0
    2.1370   59.4300   73.2500 C   0  0  0  0  0  0  0  0  0  0  0  0
    2.9420   58.8460   72.5200 O   0  0  0  0  0  0  0  0  0  0  0  0
    1.9750   64.4390   74.8330 C   0  0  0  0  0  0  0  0  0  0  0  0
    1.9790   64.7730   76.3150 C   0  0  0  0  0  0  0  0  0  0  0  0
    1.8850   63.4010   76.9730 C   0  0  0  0  0  0  0  0  0  0  0  0
   -2.1450   62.4910   78.2980 C   0  0  0  0  0  0  0  0  0  0  0  0
    2.8090   60.3160   79.9110 C   0  0  0  0  0  0  0  0  0  0  0  0
    3.4560   61.6880   79.7160 C   0  0  0  0  0  0  0  0  0  0  0  0
    3.8770   59.2320   80.0820 C   0  0  0  0  0  0  0  0  0  0  0  0
   -0.9510   61.4470   72.4760 C   0  0  0  0  0  0  0  0  0  0  0  0
   -2.2180   61.5310   73.3370 C   0  0  0  0  0  0  0  0  0  0  0  0
   -0.8670   62.7030   71.6040 C   0  0  0  0  0  0  0  0  0  0  0  0
   -4.4780   57.4640   79.9940 N   0  0  0  0  0  0  0  0  0  0  0  0
    1.2309   55.4816   72.8054 H   0  0  0  0  0  0  0  0  0  0  0  0
    0.7660   53.0420   73.0290 H   0  0  0  0  0  0  0  0  0  0  0  0
   -0.9045   51.6179   75.9172 H   0  0  0  0  0  0  0  0  0  0  0  0
   -1.8238   51.5238   74.3768 H   0  0  0  0  0  0  0  0  0  0  0  0
   -0.0439   51.2811   74.3768 H   0  0  0  0  0  0  0  0  0  0  0  0
   -2.8270   52.9294   80.2309 H   0  0  0  0  0  0  0  0  0  0  0  0
   -3.6879   52.3327   78.7716 H   0  0  0  0  0  0  0  0  0  0  0  0
   -1.8955   52.4503   78.7716 H   0  0  0  0  0  0  0  0  0  0  0  0
   -3.8066   57.5001   75.2729 H   0  0  0  0  0  0  0  0  0  0  0  0
   -5.8737   61.9785   74.1931 H   0  0  0  0  0  0  0  0  0  0  0  0
   -7.1312   61.1144   76.7660 H   0  0  0  0  0  0  0  0  0  0  0  0
   -3.7246   63.2625   78.7640 H   0  0  0  0  0  0  0  0  0  0  0  0
   -4.9704   64.3942   79.3052 H   0  0  0  0  0  0  0  0  0  0  0  0
   -3.7004   62.6534   81.0283 H   0  0  0  0  0  0  0  0  0  0  0  0
   -5.3521   63.1602   81.3287 H   0  0  0  0  0  0  0  0  0  0  0  0
   -4.3280   60.6071   79.9501 H   0  0  0  0  0  0  0  0  0  0  0  0
   -5.5861   60.7123   81.1654 H   0  0  0  0  0  0  0  0  0  0  0  0
   -6.2987   60.5491   78.5089 H   0  0  0  0  0  0  0  0  0  0  0  0
   -9.2796   60.7238   81.8161 H   0  0  0  0  0  0  0  0  0  0  0  0
  -10.1016   61.7374   80.5817 H   0  0  0  0  0  0  0  0  0  0  0  0
  -10.3352   59.9563   80.5817 H   0  0  0  0  0  0  0  0  0  0  0  0
   -9.5574   59.2505   78.7351 H   0  0  0  0  0  0  0  0  0  0  0  0
   -7.9059   59.7463   78.0991 H   0  0  0  0  0  0  0  0  0  0  0  0
   -8.7968   55.7254   77.4088 H   0  0  0  0  0  0  0  0  0  0  0  0
   -7.1272   59.6443   74.4802 H   0  0  0  0  0  0  0  0  0  0  0  0
   -4.8621   59.0753   74.0022 H   0  0  0  0  0  0  0  0  0  0  0  0
   -6.8487   56.6573   74.0846 H   0  0  0  0  0  0  0  0  0  0  0  0
   -7.6367   57.8842   73.0356 H   0  0  0  0  0  0  0  0  0  0  0  0
   -5.8482   57.7179   73.0356 H   0  0  0  0  0  0  0  0  0  0  0  0
   -7.5632   55.8740   80.5722 H   0  0  0  0  0  0  0  0  0  0  0  0
   -8.0941   54.8983   79.1605 H   0  0  0  0  0  0  0  0  0  0  0  0
   -6.4715   55.6690   79.1605 H   0  0  0  0  0  0  0  0  0  0  0  0
   -7.5579   63.5253   74.9857 H   0  0  0  0  0  0  0  0  0  0  0  0
   -8.3789   63.0923   77.7507 H   0  0  0  0  0  0  0  0  0  0  0  0
   -8.6902   64.5076   76.6892 H   0  0  0  0  0  0  0  0  0  0  0  0
   -9.8278   63.1174   76.6892 H   0  0  0  0  0  0  0  0  0  0  0  0
   -9.5022   61.2360   75.5413 H   0  0  0  0  0  0  0  0  0  0  0  0
   -9.5507   62.4489   74.2172 H   0  0  0  0  0  0  0  0  0  0  0  0
   -8.2902   61.1691   74.2172 H   0  0  0  0  0  0  0  0  0  0  0  0
  -10.6225   57.1267   77.9005 H   0  0  0  0  0  0  0  0  0  0  0  0
  -11.1451   55.9004   76.0207 H   0  0  0  0  0  0  0  0  0  0  0  0
  -11.0063   57.4851   75.1864 H   0  0  0  0  0  0  0  0  0  0  0  0
   -9.6178   56.3455   75.1864 H   0  0  0  0  0  0  0  0  0  0  0  0
   -9.8604   59.3930   77.8350 H   0  0  0  0  0  0  0  0  0  0  0  0
   -8.9717   59.1433   76.2941 H   0  0  0  0  0  0  0  0  0  0  0  0
  -10.7665   59.2164   76.2941 H   0  0  0  0  0  0  0  0  0  0  0  0
    2.0265   56.9358   75.1893 H   0  0  0  0  0  0  0  0  0  0  0  0
    1.3658   59.7907   75.2148 H   0  0  0  0  0  0  0  0  0  0  0  0
    3.7445   58.1661   75.6061 H   0  0  0  0  0  0  0  0  0  0  0  0
    4.9156   60.6195   75.7826 H   0  0  0  0  0  0  0  0  0  0  0  0
    5.0711   59.5497   74.3480 H   0  0  0  0  0  0  0  0  0  0  0  0
    3.8671   60.8827   74.3480 H   0  0  0  0  0  0  0  0  0  0  0  0
    1.4505   60.8814   78.4369 H   0  0  0  0  0  0  0  0  0  0  0  0
    0.4252   58.8424   81.3684 H   0  0  0  0  0  0  0  0  0  0  0  0
   -0.4941   57.7596   80.2689 H   0  0  0  0  0  0  0  0  0  0  0  0
    1.3018   57.7247   80.2689 H   0  0  0  0  0  0  0  0  0  0  0  0
    0.0923   60.3494   76.9413 H   0  0  0  0  0  0  0  0  0  0  0  0
   -1.7585   60.2500   76.9818 H   0  0  0  0  0  0  0  0  0  0  0  0
    1.0620   61.5429   76.0129 H   0  0  0  0  0  0  0  0  0  0  0  0
   -0.0218   60.9012   74.3375 H   0  0  0  0  0  0  0  0  0  0  0  0
    1.2459   60.3479   71.6853 H   0  0  0  0  0  0  0  0  0  0  0  0
    3.0030   64.3021   74.4663 H   0  0  0  0  0  0  0  0  0  0  0  0
    1.5270   65.2446   74.2327 H   0  0  0  0  0  0  0  0  0  0  0  0
    2.9081   65.2870   76.6024 H   0  0  0  0  0  0  0  0  0  0  0  0
    1.1660   65.4529   76.6095 H   0  0  0  0  0  0  0  0  0  0  0  0
    1.4681   63.4772   77.9881 H   0  0  0  0  0  0  0  0  0  0  0  0
    2.8621   62.9103   77.0931 H   0  0  0  0  0  0  0  0  0  0  0  0
   -1.9862   62.4297   79.3847 H   0  0  0  0  0  0  0  0  0  0  0  0
   -2.3525   63.5338   78.0160 H   0  0  0  0  0  0  0  0  0  0  0  0
   -2.9993   61.8580   78.0160 H   0  0  0  0  0  0  0  0  0  0  0  0
    2.2289   60.4141   80.8404 H   0  0  0  0  0  0  0  0  0  0  0  0
    3.6675   62.1365   80.6979 H   0  0  0  0  0  0  0  0  0  0  0  0
    4.3953   61.5741   79.1549 H   0  0  0  0  0  0  0  0  0  0  0  0
    2.7706   62.3402   79.1549 H   0  0  0  0  0  0  0  0  0  0  0  0
    4.0514   59.0549   81.1535 H   0  0  0  0  0  0  0  0  0  0  0  0
    3.5336   58.3008   79.6076 H   0  0  0  0  0  0  0  0  0  0  0  0
    4.8132   59.5615   79.6076 H   0  0  0  0  0  0  0  0  0  0  0  0
   -1.0025   60.5622   71.8244 H   0  0  0  0  0  0  0  0  0  0  0  0
   -1.9401   61.5126   74.4011 H   0  0  0  0  0  0  0  0  0  0  0  0
   -2.7518   62.4665   73.1136 H   0  0  0  0  0  0  0  0  0  0  0  0
   -2.8706   60.6742   73.1136 H   0  0  0  0  0  0  0  0  0  0  0  0
   -0.8075   63.5930   72.2477 H   0  0  0  0  0  0  0  0  0  0  0  0
    0.0296   62.6492   70.9689 H   0  0  0  0  0  0  0  0  0  0  0  0
   -1.7627   62.7691   70.9689 H   0  0  0  0  0  0  0  0  0  0  0  0
   -4.8152   58.4025   79.7363 H   0  0  0  0  0  0  0  0  0  0  0  0
   -4.6439   57.0998   80.9431 H   0  0  0  0  0  0  0  0  0  0  0  0
  2  1  1  0
  3  2  1  0
  4  3  1  0
  5  4  1  0
  6  5  2  0
  7  6  1  0
  7  2  2  0
  8  6  1  0
  9  8  2  0
 10  9  1  0
 11 10  2  0
 11  5  1  0
 12 11  1  0
 13  3  2  0
 14 13  1  0
 15 14  2  0
 16 14  1  0
 16  1  2  0
 17 13  1  0
 19 18  1  0
 19  1  1  0
 20 19  2  0
 22 21  2  0
 23 22  1  0
 24 23  1  0
 25 24  1  0
 26 25  2  0
 27 25  1  0
 28 27  1  0
 29 28  1  0
 30 29  1  0
 31 30  1  0
 31 27  1  0
 32 31  1  0
 33 32  2  0
 34 32  1  0
 35 34  1  0
 36 34  1  0
 37 36  1  0
 38 37  2  0
 39 37  1  0
 40 39  1  0
 41 40  1  0
 42 41  2  0
 43 41  1  0
 44 43  1  0
 45 44  1  0
 45 18  1  0
 45 22  1  0
 46 44  1  0
 47 39  1  0
 48 24  1  0
 49 48  1  0
 50 48  1  0
 51 40  1  0
 52 51  1  0
 53 51  1  0
 54  8  1  0
 55 54  2  0
 56 54  1  0
 57 56  1  0
 58 57  1  0
 59 58  1  0
 60 58  1  0
 61 60  1  0
 62 61  2  0
 63 61  1  0
 64 63  1  0
 65 64  1  0
 66 64  1  0
 67 66  2  0
 68 66  1  0
 69 68  1  0
 70 69  1  0
 71 70  2  0
 72 70  1  0
 73 72  1  0
 74 73  1  0
 75 74  2  0
 76 74  1  0
 77 76  1  0
 78 77  1  0
 78 57  1  0
 79 78  2  0
 80 73  1  0
 81 80  1  0
 82 72  1  0
 82 81  1  0
 83 69  1  0
 84 63  1  0
 85 84  1  0
 86 84  1  0
 87 76  1  0
 88 87  1  0
 89 87  1  0
 90 16  1  0
  9 91  1  0
 10 92  1  0
 12 93  1  0
 12 94  1  0
 12 95  1  0
 17 96  1  0
 17 97  1  0
 17 98  1  0
 18 99  1  0
 23100  1  0
 24101  1  1
 28102  1  0
 28103  1  0
 29104  1  0
 29105  1  0
 30106  1  0
 30107  1  0
 31108  1  6
 35109  1  0
 35110  1  0
 35111  1  0
 36112  1  0
 36113  1  0
 40114  1  1
 44115  1  6
 45116  1  6
 46117  1  0
 46118  1  0
 46119  1  0
 47120  1  0
 47121  1  0
 47122  1  0
 48123  1  0
 49124  1  0
 49125  1  0
 49126  1  0
 50127  1  0
 50128  1  0
 50129  1  0
 51130  1  0
 52131  1  0
 52132  1  0
 52133  1  0
 53134  1  0
 53135  1  0
 53136  1  0
 56137  1  0
 57138  1  1
 58139  1  1
 59140  1  0
 59141  1  0
 59142  1  0
 63143  1  6
 65144  1  0
 65145  1  0
 65146  1  0
 68147  1  0
 68148  1  0
 72149  1  6
 76150  1  1
 77151  1  0
 80152  1  0
 80153  1  0
 81154  1  0
 81155  1  0
 82156  1  0
 82157  1  0
 83158  1  0
 83159  1  0
 83160  1  0
 84161  1  0
 85162  1  0
 85163  1  0
 85164  1  0
 86165  1  0
 86166  1  0
 86167  1  0
 87168  1  0
 88169  1  0
 88170  1  0
 88171  1  0
 89172  1  0
 89173  1  0
 89174  1  0
 90175  1  0
 90176  1  0
M  END
>  <score>  (3) 
-3.155

$$$$
