=
     RDKit          3D

 33 35  0  0  0  0  0  0  0  0999 V2000
    3.1280   68.7190   64.3120 C   0  0  0  0  0  0  0  0  0  0  0  0
    5.7830   70.4130   67.3110 C   0  0  0  0  0  0  0  0  0  0  0  0
    4.4790   70.0560   67.6590 C   0  0  0  0  0  0  0  0  0  0  0  0
    3.6210   69.5100   66.7000 C   0  0  0  0  0  0  0  0  0  0  0  0
    4.0500   69.3140   65.3750 C   0  0  0  0  0  0  0  0  0  0  0  0
    5.3670   69.6740   65.0400 C   0  0  0  0  0  0  0  0  0  0  0  0
    6.2260   70.2200   65.9990 C   0  0  0  0  0  0  0  0  0  0  0  0
    7.3780   71.4320   69.0850 N   0  0  0  0  0  0  0  0  0  0  0  0
    6.6650   70.9730   68.2940 C   0  0  0  0  0  0  0  0  0  0  0  0
    1.6480   68.6990   64.7040 C   0  0  0  0  0  0  0  0  0  0  0  0
    0.6840   69.0350   63.7340 C   0  0  0  0  0  0  0  0  0  0  0  0
   -0.6790   69.0480   64.0460 C   0  0  0  0  0  0  0  0  0  0  0  0
   -1.1060   68.7330   65.3380 C   0  0  0  0  0  0  0  0  0  0  0  0
   -0.1620   68.4100   66.3150 C   0  0  0  0  0  0  0  0  0  0  0  0
    1.2020   68.3970   66.0030 C   0  0  0  0  0  0  0  0  0  0  0  0
   -2.5030   68.7470   65.6590 C   0  0  0  0  0  0  0  0  0  0  0  0
   -3.6340   68.7530   65.9190 N   0  0  0  0  0  0  0  0  0  0  0  0
    3.6180   67.4300   63.7970 N   0  0  0  0  0  0  0  0  0  0  0  0
    4.1510   67.2050   62.5610 C   0  0  0  0  0  0  0  0  0  0  0  0
    4.4900   65.9430   62.4450 N   0  0  0  0  0  0  0  0  0  0  0  0
    4.1350   65.4180   63.6540 C   0  0  0  0  0  0  0  0  0  0  0  0
    3.5850   66.2810   64.5120 N   0  0  0  0  0  0  0  0  0  0  0  0
    3.1705   69.4207   63.4660 H   0  0  0  0  0  0  0  0  0  0  0  0
    4.1259   70.2047   68.6901 H   0  0  0  0  0  0  0  0  0  0  0  0
    2.5963   69.2298   66.9855 H   0  0  0  0  0  0  0  0  0  0  0  0
    5.7262   69.5244   64.0111 H   0  0  0  0  0  0  0  0  0  0  0  0
    7.2531   70.4984   65.7203 H   0  0  0  0  0  0  0  0  0  0  0  0
    1.0084   69.2913   62.7146 H   0  0  0  0  0  0  0  0  0  0  0  0
   -1.4166   69.3069   63.2721 H   0  0  0  0  0  0  0  0  0  0  0  0
   -0.4923   68.1645   67.3351 H   0  0  0  0  0  0  0  0  0  0  0  0
    1.9351   68.1472   66.7842 H   0  0  0  0  0  0  0  0  0  0  0  0
    4.2775   67.9679   61.7788 H   0  0  0  0  0  0  0  0  0  0  0  0
    4.2910   64.3582   63.9040 H   0  0  0  0  0  0  0  0  0  0  0  0
  3  2  2  0
  4  3  1  0
  5  1  1  0
  5  4  2  0
  6  5  1  0
  7  6  2  0
  7  2  1  0
  9  2  1  0
  9  8  3  0
 10  1  1  0
 11 10  2  0
 12 11  1  0
 13 12  2  0
 14 13  1  0
 15 10  1  0
 15 14  2  0
 16 13  1  0
 17 16  3  0
 18  1  1  0
 19 18  1  0
 20 19  2  0
 21 20  1  0
 22 21  2  0
 22 18  1  0
  1 23  1  0
  3 24  1  0
  4 25  1  0
  6 26  1  0
  7 27  1  0
 11 28  1  0
 12 29  1  0
 14 30  1  0
 15 31  1  0
 19 32  1  0
 21 33  1  0
M  END
>  <score>  (1) 
-10.181

$$$$
=
     RDKit          3D

 33 35  0  0  0  0  0  0  0  0999 V2000
    2.5670   67.5250   64.9710 C   0  0  0  0  0  0  0  0  0  0  0  0
    0.4580   69.4020   61.6640 C   0  0  0  0  0  0  0  0  0  0  0  0
    1.8120   69.0870   61.5360 C   0  0  0  0  0  0  0  0  0  0  0  0
    2.4950   68.4830   62.5940 C   0  0  0  0  0  0  0  0  0  0  0  0
    1.8380   68.1850   63.8010 C   0  0  0  0  0  0  0  0  0  0  0  0
    0.4740   68.5030   63.9150 C   0  0  0  0  0  0  0  0  0  0  0  0
   -0.2110   69.1080   62.8550 C   0  0  0  0  0  0  0  0  0  0  0  0
   -0.8150   70.5290   59.7040 N   0  0  0  0  0  0  0  0  0  0  0  0
   -0.2450   70.0220   60.5780 C   0  0  0  0  0  0  0  0  0  0  0  0
    3.5280   68.4550   65.7180 C   0  0  0  0  0  0  0  0  0  0  0  0
    3.0980   69.0520   66.9180 C   0  0  0  0  0  0  0  0  0  0  0  0
    3.9300   69.9230   67.6290 C   0  0  0  0  0  0  0  0  0  0  0  0
    5.2070   70.2210   67.1490 C   0  0  0  0  0  0  0  0  0  0  0  0
    5.6450   69.6460   65.9530 C   0  0  0  0  0  0  0  0  0  0  0  0
    4.8110   68.7760   65.2420 C   0  0  0  0  0  0  0  0  0  0  0  0
    6.0610   71.1130   67.8760 C   0  0  0  0  0  0  0  0  0  0  0  0
    6.7550   71.8310   68.4680 N   0  0  0  0  0  0  0  0  0  0  0  0
    3.1660   66.2310   64.6050 N   0  0  0  0  0  0  0  0  0  0  0  0
    3.9110   65.9740   63.4900 C   0  0  0  0  0  0  0  0  0  0  0  0
    4.2900   64.7180   63.4890 N   0  0  0  0  0  0  0  0  0  0  0  0
    3.7410   64.2300   64.6380 C   0  0  0  0  0  0  0  0  0  0  0  0
    3.0320   65.1100   65.3510 N   0  0  0  0  0  0  0  0  0  0  0  0
    1.7843   67.3003   65.7105 H   0  0  0  0  0  0  0  0  0  0  0  0
    2.3422   69.3151   60.5996 H   0  0  0  0  0  0  0  0  0  0  0  0
    3.5612   68.2371   62.4816 H   0  0  0  0  0  0  0  0  0  0  0  0
   -0.0615   68.2738   64.8481 H   0  0  0  0  0  0  0  0  0  0  0  0
   -1.2783   69.3526   62.9597 H   0  0  0  0  0  0  0  0  0  0  0  0
    2.0917   68.8300   67.3027 H   0  0  0  0  0  0  0  0  0  0  0  0
    3.5776   70.3742   68.5683 H   0  0  0  0  0  0  0  0  0  0  0  0
    6.6493   69.8782   65.5690 H   0  0  0  0  0  0  0  0  0  0  0  0
    5.1644   68.3371   64.2973 H   0  0  0  0  0  0  0  0  0  0  0  0
    4.1565   66.7095   62.7098 H   0  0  0  0  0  0  0  0  0  0  0  0
    3.8726   63.1851   64.9556 H   0  0  0  0  0  0  0  0  0  0  0  0
  3  2  2  0
  4  3  1  0
  5  1  1  0
  5  4  2  0
  6  5  1  0
  7  6  2  0
  7  2  1  0
  9  2  1  0
  9  8  3  0
 10  1  1  0
 11 10  2  0
 12 11  1  0
 13 12  2  0
 14 13  1  0
 15 10  1  0
 15 14  2  0
 16 13  1  0
 17 16  3  0
 18  1  1  0
 19 18  1  0
 20 19  2  0
 21 20  1  0
 22 21  2  0
 22 18  1  0
  1 23  1  0
  3 24  1  0
  4 25  1  0
  6 26  1  0
  7 27  1  0
 11 28  1  0
 12 29  1  0
 14 30  1  0
 15 31  1  0
 19 32  1  0
 21 33  1  0
M  END
>  <score>  (2) 
-9.481

$$$$
=
     RDKit          3D

 33 35  0  0  0  0  0  0  0  0999 V2000
    2.5800   68.2500   65.1290 C   0  0  0  0  0  0  0  0  0  0  0  0
    4.2690   64.5330   63.6310 C   0  0  0  0  0  0  0  0  0  0  0  0
    3.4600   64.5200   64.7690 C   0  0  0  0  0  0  0  0  0  0  0  0
    2.9120   65.7110   65.2550 C   0  0  0  0  0  0  0  0  0  0  0  0
    3.1670   66.9360   64.6140 C   0  0  0  0  0  0  0  0  0  0  0  0
    3.9800   66.9340   63.4670 C   0  0  0  0  0  0  0  0  0  0  0  0
    4.5270   65.7420   62.9800 C   0  0  0  0  0  0  0  0  0  0  0  0
    5.2920   62.3270   62.7260 N   0  0  0  0  0  0  0  0  0  0  0  0
    4.8310   63.3110   63.1310 C   0  0  0  0  0  0  0  0  0  0  0  0
    3.5320   69.0600   66.0120 C   0  0  0  0  0  0  0  0  0  0  0  0
    4.8150   69.3690   65.5210 C   0  0  0  0  0  0  0  0  0  0  0  0
    5.7290   70.0920   66.2940 C   0  0  0  0  0  0  0  0  0  0  0  0
    5.3810   70.5130   67.5800 C   0  0  0  0  0  0  0  0  0  0  0  0
    4.1170   70.2040   68.0870 C   0  0  0  0  0  0  0  0  0  0  0  0
    3.2030   69.4810   67.3130 C   0  0  0  0  0  0  0  0  0  0  0  0
    6.3170   71.2530   68.3740 C   0  0  0  0  0  0  0  0  0  0  0  0
    7.0720   71.8500   69.0220 N   0  0  0  0  0  0  0  0  0  0  0  0
    1.2390   68.0770   65.7120 N   0  0  0  0  0  0  0  0  0  0  0  0
    0.0920   68.6880   65.2940 C   0  0  0  0  0  0  0  0  0  0  0  0
   -0.9170   68.2950   66.0360 N   0  0  0  0  0  0  0  0  0  0  0  0
   -0.3320   67.4330   66.9180 C   0  0  0  0  0  0  0  0  0  0  0  0
    0.9860   67.2740   66.7730 N   0  0  0  0  0  0  0  0  0  0  0  0
    2.4461   68.8786   64.2363 H   0  0  0  0  0  0  0  0  0  0  0  0
    3.2533   63.5705   65.2844 H   0  0  0  0  0  0  0  0  0  0  0  0
    2.2732   65.6892   66.1503 H   0  0  0  0  0  0  0  0  0  0  0  0
    4.1884   67.8804   62.9466 H   0  0  0  0  0  0  0  0  0  0  0  0
    5.1621   65.7567   62.0819 H   0  0  0  0  0  0  0  0  0  0  0  0
    5.1031   69.0362   64.5129 H   0  0  0  0  0  0  0  0  0  0  0  0
    6.7237   70.3297   65.8889 H   0  0  0  0  0  0  0  0  0  0  0  0
    3.8387   70.5307   69.0998 H   0  0  0  0  0  0  0  0  0  0  0  0
    2.2134   69.2385   67.7276 H   0  0  0  0  0  0  0  0  0  0  0  0
    0.0236   69.4025   64.4604 H   0  0  0  0  0  0  0  0  0  0  0  0
   -0.9062   66.9060   67.6942 H   0  0  0  0  0  0  0  0  0  0  0  0
  3  2  2  0
  4  3  1  0
  5  1  1  0
  5  4  2  0
  6  5  1  0
  7  6  2  0
  7  2  1  0
  9  2  1  0
  9  8  3  0
 10  1  1  0
 11 10  2  0
 12 11  1  0
 13 12  2  0
 14 13  1  0
 15 10  1  0
 15 14  2  0
 16 13  1  0
 17 16  3  0
 18  1  1  0
 19 18  1  0
 20 19  2  0
 21 20  1  0
 22 21  2  0
 22 18  1  0
  1 23  1  0
  3 24  1  0
  4 25  1  0
  6 26  1  0
  7 27  1  0
 11 28  1  0
 12 29  1  0
 14 30  1  0
 15 31  1  0
 19 32  1  0
 21 33  1  0
M  END
>  <score>  (3) 
-9.471

$$$$
=
     RDKit          3D

 33 35  0  0  0  0  0  0  0  0999 V2000
    2.9990   67.9090   64.9830 C   0  0  0  0  0  0  0  0  0  0  0  0
   -1.2610   68.5510   65.5750 C   0  0  0  0  0  0  0  0  0  0  0  0
   -0.6490   68.9880   64.3990 C   0  0  0  0  0  0  0  0  0  0  0  0
    0.7200   68.7830   64.2010 C   0  0  0  0  0  0  0  0  0  0  0  0
    1.5010   68.1420   65.1780 C   0  0  0  0  0  0  0  0  0  0  0  0
    0.8710   67.7020   66.3560 C   0  0  0  0  0  0  0  0  0  0  0  0
   -0.4990   67.9070   66.5530 C   0  0  0  0  0  0  0  0  0  0  0  0
   -3.8030   68.9190   65.9420 N   0  0  0  0  0  0  0  0  0  0  0  0
   -2.6660   68.7590   65.7780 C   0  0  0  0  0  0  0  0  0  0  0  0
    3.8920   68.8060   65.8440 C   0  0  0  0  0  0  0  0  0  0  0  0
    5.2160   69.0440   65.4290 C   0  0  0  0  0  0  0  0  0  0  0  0
    6.0780   69.8420   66.1890 C   0  0  0  0  0  0  0  0  0  0  0  0
    5.6350   70.4120   67.3840 C   0  0  0  0  0  0  0  0  0  0  0  0
    4.3270   70.1750   67.8170 C   0  0  0  0  0  0  0  0  0  0  0  0
    3.4660   69.3760   67.0570 C   0  0  0  0  0  0  0  0  0  0  0  0
    6.5160   71.2290   68.1650 C   0  0  0  0  0  0  0  0  0  0  0  0
    7.2330   71.8920   68.7920 N   0  0  0  0  0  0  0  0  0  0  0  0
    3.3850   67.8840   63.5630 N   0  0  0  0  0  0  0  0  0  0  0  0
    3.9110   66.8200   62.8880 C   0  0  0  0  0  0  0  0  0  0  0  0
    4.1270   67.1500   61.6360 N   0  0  0  0  0  0  0  0  0  0  0  0
    3.7180   68.4510   61.5870 C   0  0  0  0  0  0  0  0  0  0  0  0
    3.2690   68.9530   62.7400 N   0  0  0  0  0  0  0  0  0  0  0  0
    3.1877   66.8963   65.3688 H   0  0  0  0  0  0  0  0  0  0  0  0
   -1.2452   69.4950   63.6260 H   0  0  0  0  0  0  0  0  0  0  0  0
    1.1916   69.1277   63.2689 H   0  0  0  0  0  0  0  0  0  0  0  0
    1.4617   67.1912   67.1307 H   0  0  0  0  0  0  0  0  0  0  0  0
   -0.9775   67.5601   67.4807 H   0  0  0  0  0  0  0  0  0  0  0  0
    5.5786   68.5954   64.4923 H   0  0  0  0  0  0  0  0  0  0  0  0
    7.1072   70.0207   65.8442 H   0  0  0  0  0  0  0  0  0  0  0  0
    3.9733   70.6187   68.7594 H   0  0  0  0  0  0  0  0  0  0  0  0
    2.4418   69.1911   67.4131 H   0  0  0  0  0  0  0  0  0  0  0  0
    4.1221   65.8340   63.3275 H   0  0  0  0  0  0  0  0  0  0  0  0
    3.7556   69.0449   60.6619 H   0  0  0  0  0  0  0  0  0  0  0  0
  3  2  2  0
  4  3  1  0
  5  1  1  0
  5  4  2  0
  6  5  1  0
  7  6  2  0
  7  2  1  0
  9  2  1  0
  9  8  3  0
 10  1  1  0
 11 10  2  0
 12 11  1  0
 13 12  2  0
 14 13  1  0
 15 10  1  0
 15 14  2  0
 16 13  1  0
 17 16  3  0
 18  1  1  0
 19 18  1  0
 20 19  2  0
 21 20  1  0
 22 21  2  0
 22 18  1  0
  1 23  1  0
  3 24  1  0
  4 25  1  0
  6 26  1  0
  7 27  1  0
 11 28  1  0
 12 29  1  0
 14 30  1  0
 15 31  1  0
 19 32  1  0
 21 33  1  0
M  END
>  <score>  (4) 
-9.33

$$$$
=
     RDKit          3D

 33 35  0  0  0  0  0  0  0  0999 V2000
    2.3160   67.5390   65.2270 C   0  0  0  0  0  0  0  0  0  0  0  0
    4.8230   70.3980   67.3380 C   0  0  0  0  0  0  0  0  0  0  0  0
    3.5970   70.0120   67.8840 C   0  0  0  0  0  0  0  0  0  0  0  0
    2.7870   69.0930   67.2110 C   0  0  0  0  0  0  0  0  0  0  0  0
    3.1870   68.5450   65.9790 C   0  0  0  0  0  0  0  0  0  0  0  0
    4.4260   68.9380   65.4440 C   0  0  0  0  0  0  0  0  0  0  0  0
    5.2370   69.8580   66.1180 C   0  0  0  0  0  0  0  0  0  0  0  0
    6.3270   72.1080   68.5810 N   0  0  0  0  0  0  0  0  0  0  0  0
    5.6550   71.3400   68.0280 C   0  0  0  0  0  0  0  0  0  0  0  0
    3.0900   66.3600   64.6310 C   0  0  0  0  0  0  0  0  0  0  0  0
    3.0910   65.1320   65.3210 C   0  0  0  0  0  0  0  0  0  0  0  0
    3.7970   64.0300   64.8280 C   0  0  0  0  0  0  0  0  0  0  0  0
    4.5240   64.1350   63.6400 C   0  0  0  0  0  0  0  0  0  0  0  0
    4.5440   65.3510   62.9510 C   0  0  0  0  0  0  0  0  0  0  0  0
    3.8370   66.4530   63.4440 C   0  0  0  0  0  0  0  0  0  0  0  0
    5.2480   63.0070   63.1340 C   0  0  0  0  0  0  0  0  0  0  0  0
    5.8390   62.0940   62.7290 N   0  0  0  0  0  0  0  0  0  0  0  0
    1.4040   68.1870   64.2710 N   0  0  0  0  0  0  0  0  0  0  0  0
    1.7510   68.7420   63.0730 C   0  0  0  0  0  0  0  0  0  0  0  0
    0.6840   69.2210   62.4780 N   0  0  0  0  0  0  0  0  0  0  0  0
   -0.3140   68.9410   63.3650 C   0  0  0  0  0  0  0  0  0  0  0  0
    0.0730   68.3220   64.4840 N   0  0  0  0  0  0  0  0  0  0  0  0
    1.6767   67.0781   65.9944 H   0  0  0  0  0  0  0  0  0  0  0  0
    3.2680   70.4322   68.8459 H   0  0  0  0  0  0  0  0  0  0  0  0
    1.8239   68.7944   67.6507 H   0  0  0  0  0  0  0  0  0  0  0  0
    4.7619   68.5176   64.4846 H   0  0  0  0  0  0  0  0  0  0  0  0
    6.2034   70.1568   65.6858 H   0  0  0  0  0  0  0  0  0  0  0  0
    2.5282   65.0384   66.2615 H   0  0  0  0  0  0  0  0  0  0  0  0
    3.7797   63.0773   65.3777 H   0  0  0  0  0  0  0  0  0  0  0  0
    5.1181   65.4419   62.0171 H   0  0  0  0  0  0  0  0  0  0  0  0
    3.8661   67.4057   62.8949 H   0  0  0  0  0  0  0  0  0  0  0  0
    2.7726   68.7817   62.6670 H   0  0  0  0  0  0  0  0  0  0  0  0
   -1.3640   69.2063   63.1724 H   0  0  0  0  0  0  0  0  0  0  0  0
  3  2  2  0
  4  3  1  0
  5  1  1  0
  5  4  2  0
  6  5  1  0
  7  6  2  0
  7  2  1  0
  9  2  1  0
  9  8  3  0
 10  1  1  0
 11 10  2  0
 12 11  1  0
 13 12  2  0
 14 13  1  0
 15 10  1  0
 15 14  2  0
 16 13  1  0
 17 16  3  0
 18  1  1  0
 19 18  1  0
 20 19  2  0
 21 20  1  0
 22 21  2  0
 22 18  1  0
  1 23  1  0
  3 24  1  0
  4 25  1  0
  6 26  1  0
  7 27  1  0
 11 28  1  0
 12 29  1  0
 14 30  1  0
 15 31  1  0
 19 32  1  0
 21 33  1  0
M  END
>  <score>  (5) 
-9.067

$$$$
=
     RDKit          3D

 33 35  0  0  0  0  0  0  0  0999 V2000
    1.3370   68.7890   67.3680 C   0  0  0  0  0  0  0  0  0  0  0  0
    5.1530   70.7020   68.2010 C   0  0  0  0  0  0  0  0  0  0  0  0
    4.9640   70.0200   66.9970 C   0  0  0  0  0  0  0  0  0  0  0  0
    3.7400   69.4040   66.7230 C   0  0  0  0  0  0  0  0  0  0  0  0
    2.6830   69.4560   67.6490 C   0  0  0  0  0  0  0  0  0  0  0  0
    2.8840   70.1500   68.8540 C   0  0  0  0  0  0  0  0  0  0  0  0
    4.1090   70.7670   69.1290 C   0  0  0  0  0  0  0  0  0  0  0  0
    7.4260   71.8410   68.7150 N   0  0  0  0  0  0  0  0  0  0  0  0
    6.4080   71.3360   68.4840 C   0  0  0  0  0  0  0  0  0  0  0  0
    0.9510   67.7050   68.3790 C   0  0  0  0  0  0  0  0  0  0  0  0
    1.9070   67.2900   69.3260 C   0  0  0  0  0  0  0  0  0  0  0  0
    1.6110   66.2910   70.2590 C   0  0  0  0  0  0  0  0  0  0  0  0
    0.3540   65.6810   70.2590 C   0  0  0  0  0  0  0  0  0  0  0  0
   -0.6010   66.0730   69.3170 C   0  0  0  0  0  0  0  0  0  0  0  0
   -0.3040   67.0720   68.3840 C   0  0  0  0  0  0  0  0  0  0  0  0
    0.0490   64.6570   71.2140 C   0  0  0  0  0  0  0  0  0  0  0  0
   -0.1930   63.8250   71.9860 N   0  0  0  0  0  0  0  0  0  0  0  0
    1.2000   68.3620   65.9660 N   0  0  0  0  0  0  0  0  0  0  0  0
    1.7060   67.2190   65.4180 C   0  0  0  0  0  0  0  0  0  0  0  0
    1.3860   67.1560   64.1470 N   0  0  0  0  0  0  0  0  0  0  0  0
    0.6760   68.3050   63.9520 C   0  0  0  0  0  0  0  0  0  0  0  0
    0.5450   69.0850   65.0280 N   0  0  0  0  0  0  0  0  0  0  0  0
    0.5849   69.5771   67.5204 H   0  0  0  0  0  0  0  0  0  0  0  0
    5.7810   69.9676   66.2623 H   0  0  0  0  0  0  0  0  0  0  0  0
    3.6015   68.8715   65.7705 H   0  0  0  0  0  0  0  0  0  0  0  0
    2.0685   70.2089   69.5899 H   0  0  0  0  0  0  0  0  0  0  0  0
    4.2514   71.3048   70.0779 H   0  0  0  0  0  0  0  0  0  0  0  0
    2.9021   67.7588   69.3320 H   0  0  0  0  0  0  0  0  0  0  0  0
    2.3695   65.9848   70.9945 H   0  0  0  0  0  0  0  0  0  0  0  0
   -1.5910   65.5936   69.3092 H   0  0  0  0  0  0  0  0  0  0  0  0
   -1.0629   67.3662   67.6441 H   0  0  0  0  0  0  0  0  0  0  0  0
    2.2939   66.4639   65.9604 H   0  0  0  0  0  0  0  0  0  0  0  0
    0.2419   68.5701   62.9767 H   0  0  0  0  0  0  0  0  0  0  0  0
  3  2  2  0
  4  3  1  0
  5  1  1  0
  5  4  2  0
  6  5  1  0
  7  6  2  0
  7  2  1  0
  9  2  1  0
  9  8  3  0
 10  1  1  0
 11 10  2  0
 12 11  1  0
 13 12  2  0
 14 13  1  0
 15 10  1  0
 15 14  2  0
 16 13  1  0
 17 16  3  0
 18  1  1  0
 19 18  1  0
 20 19  2  0
 21 20  1  0
 22 21  2  0
 22 18  1  0
  1 23  1  0
  3 24  1  0
  4 25  1  0
  6 26  1  0
  7 27  1  0
 11 28  1  0
 12 29  1  0
 14 30  1  0
 15 31  1  0
 19 32  1  0
 21 33  1  0
M  END
>  <score>  (6) 
-8.768

$$$$
=
     RDKit          3D

 33 35  0  0  0  0  0  0  0  0999 V2000
    0.4000   68.5020   66.6180 C   0  0  0  0  0  0  0  0  0  0  0  0
    3.5660   67.3850   63.8530 C   0  0  0  0  0  0  0  0  0  0  0  0
    2.7520   66.3990   64.4140 C   0  0  0  0  0  0  0  0  0  0  0  0
    1.7320   66.7510   65.3020 C   0  0  0  0  0  0  0  0  0  0  0  0
    1.5090   68.0960   65.6480 C   0  0  0  0  0  0  0  0  0  0  0  0
    2.3320   69.0790   65.0720 C   0  0  0  0  0  0  0  0  0  0  0  0
    3.3530   68.7270   64.1830 C   0  0  0  0  0  0  0  0  0  0  0  0
    5.4540   66.7380   62.1960 N   0  0  0  0  0  0  0  0  0  0  0  0
    4.6120   67.0260   62.9400 C   0  0  0  0  0  0  0  0  0  0  0  0
    0.3080   67.6250   67.8700 C   0  0  0  0  0  0  0  0  0  0  0  0
    1.3910   67.6140   68.7700 C   0  0  0  0  0  0  0  0  0  0  0  0
    1.3650   66.8170   69.9190 C   0  0  0  0  0  0  0  0  0  0  0  0
    0.2580   66.0090   70.1880 C   0  0  0  0  0  0  0  0  0  0  0  0
   -0.8200   66.0000   69.2980 C   0  0  0  0  0  0  0  0  0  0  0  0
   -0.7930   66.7960   68.1480 C   0  0  0  0  0  0  0  0  0  0  0  0
    0.2290   65.1920   71.3650 C   0  0  0  0  0  0  0  0  0  0  0  0
    0.2050   64.5350   72.3210 N   0  0  0  0  0  0  0  0  0  0  0  0
   -0.8930   68.7020   65.9430 N   0  0  0  0  0  0  0  0  0  0  0  0
   -2.0960   68.9180   66.5520 C   0  0  0  0  0  0  0  0  0  0  0  0
   -3.0340   69.0620   65.6450 N   0  0  0  0  0  0  0  0  0  0  0  0
   -2.3520   68.9170   64.4720 C   0  0  0  0  0  0  0  0  0  0  0  0
   -1.0430   68.6810   64.5980 N   0  0  0  0  0  0  0  0  0  0  0  0
    0.6984   69.4876   67.0047 H   0  0  0  0  0  0  0  0  0  0  0  0
    2.9141   65.3420   64.1562 H   0  0  0  0  0  0  0  0  0  0  0  0
    1.0952   65.9661   65.7360 H   0  0  0  0  0  0  0  0  0  0  0  0
    2.1713   70.1378   65.3233 H   0  0  0  0  0  0  0  0  0  0  0  0
    3.9900   69.5080   63.7423 H   0  0  0  0  0  0  0  0  0  0  0  0
    2.2709   68.2419   68.5662 H   0  0  0  0  0  0  0  0  0  0  0  0
    2.2187   66.8266   70.6127 H   0  0  0  0  0  0  0  0  0  0  0  0
   -1.6937   65.3639   69.5030 H   0  0  0  0  0  0  0  0  0  0  0  0
   -1.6445   66.7730   67.4520 H   0  0  0  0  0  0  0  0  0  0  0  0
   -2.2552   68.9644   67.6394 H   0  0  0  0  0  0  0  0  0  0  0  0
   -2.8453   68.9893   63.4915 H   0  0  0  0  0  0  0  0  0  0  0  0
  3  2  2  0
  4  3  1  0
  5  1  1  0
  5  4  2  0
  6  5  1  0
  7  6  2  0
  7  2  1  0
  9  2  1  0
  9  8  3  0
 10  1  1  0
 11 10  2  0
 12 11  1  0
 13 12  2  0
 14 13  1  0
 15 10  1  0
 15 14  2  0
 16 13  1  0
 17 16  3  0
 18  1  1  0
 19 18  1  0
 20 19  2  0
 21 20  1  0
 22 21  2  0
 22 18  1  0
  1 23  1  0
  3 24  1  0
  4 25  1  0
  6 26  1  0
  7 27  1  0
 11 28  1  0
 12 29  1  0
 14 30  1  0
 15 31  1  0
 19 32  1  0
 21 33  1  0
M  END
>  <score>  (7) 
-8.173

$$$$
=
     RDKit          3D

 33 35  0  0  0  0  0  0  0  0999 V2000
    2.7360   68.7090   65.1120 C   0  0  0  0  0  0  0  0  0  0  0  0
   -1.5830   68.7640   65.6240 C   0  0  0  0  0  0  0  0  0  0  0  0
   -1.0320   68.8790   64.3460 C   0  0  0  0  0  0  0  0  0  0  0  0
    0.3550   68.8600   64.1740 C   0  0  0  0  0  0  0  0  0  0  0  0
    1.2170   68.7300   65.2770 C   0  0  0  0  0  0  0  0  0  0  0  0
    0.6490   68.6100   66.5580 C   0  0  0  0  0  0  0  0  0  0  0  0
   -0.7390   68.6280   66.7300 C   0  0  0  0  0  0  0  0  0  0  0  0
   -4.1560   68.7910   65.9510 N   0  0  0  0  0  0  0  0  0  0  0  0
   -3.0060   68.7810   65.8010 C   0  0  0  0  0  0  0  0  0  0  0  0
    3.3060   67.3410   64.7250 C   0  0  0  0  0  0  0  0  0  0  0  0
    4.4280   67.2900   63.8760 C   0  0  0  0  0  0  0  0  0  0  0  0
    4.9770   66.0660   63.4790 C   0  0  0  0  0  0  0  0  0  0  0  0
    4.4080   64.8680   63.9160 C   0  0  0  0  0  0  0  0  0  0  0  0
    3.2870   64.9010   64.7490 C   0  0  0  0  0  0  0  0  0  0  0  0
    2.7380   66.1260   65.1460 C   0  0  0  0  0  0  0  0  0  0  0  0
    4.9690   63.6130   63.5100 C   0  0  0  0  0  0  0  0  0  0  0  0
    5.4270   62.5970   63.1840 N   0  0  0  0  0  0  0  0  0  0  0  0
    3.4350   69.3390   66.2430 N   0  0  0  0  0  0  0  0  0  0  0  0
    4.7160   69.8100   66.2380 C   0  0  0  0  0  0  0  0  0  0  0  0
    5.0090   70.3150   67.4140 N   0  0  0  0  0  0  0  0  0  0  0  0
    3.8600   70.1240   68.1240 C   0  0  0  0  0  0  0  0  0  0  0  0
    2.8720   69.5190   67.4610 N   0  0  0  0  0  0  0  0  0  0  0  0
    2.9420   69.3421   64.2364 H   0  0  0  0  0  0  0  0  0  0  0  0
   -1.6915   68.9849   63.4720 H   0  0  0  0  0  0  0  0  0  0  0  0
    0.7777   68.9479   63.1623 H   0  0  0  0  0  0  0  0  0  0  0  0
    1.3040   68.5007   67.4349 H   0  0  0  0  0  0  0  0  0  0  0  0
   -1.1677   68.5348   67.7387 H   0  0  0  0  0  0  0  0  0  0  0  0
    4.8800   68.2272   63.5193 H   0  0  0  0  0  0  0  0  0  0  0  0
    5.8586   66.0473   62.8214 H   0  0  0  0  0  0  0  0  0  0  0  0
    2.8337   63.9602   65.0945 H   0  0  0  0  0  0  0  0  0  0  0  0
    1.8506   66.1380   65.7959 H   0  0  0  0  0  0  0  0  0  0  0  0
    5.4004   69.7722   65.3777 H   0  0  0  0  0  0  0  0  0  0  0  0
    3.7549   70.4462   69.1705 H   0  0  0  0  0  0  0  0  0  0  0  0
  3  2  2  0
  4  3  1  0
  5  1  1  0
  5  4  2  0
  6  5  1  0
  7  6  2  0
  7  2  1  0
  9  2  1  0
  9  8  3  0
 10  1  1  0
 11 10  2  0
 12 11  1  0
 13 12  2  0
 14 13  1  0
 15 10  1  0
 15 14  2  0
 16 13  1  0
 17 16  3  0
 18  1  1  0
 19 18  1  0
 20 19  2  0
 21 20  1  0
 22 21  2  0
 22 18  1  0
  1 23  1  0
  3 24  1  0
  4 25  1  0
  6 26  1  0
  7 27  1  0
 11 28  1  0
 12 29  1  0
 14 30  1  0
 15 31  1  0
 19 32  1  0
 21 33  1  0
M  END
>  <score>  (8) 
-8.171

$$$$
=
     RDKit          3D

 33 35  0  0  0  0  0  0  0  0999 V2000
    0.4720   67.9420   68.4090 C   0  0  0  0  0  0  0  0  0  0  0  0
    3.7090   69.0440   65.7220 C   0  0  0  0  0  0  0  0  0  0  0  0
    3.5850   69.6800   66.9580 C   0  0  0  0  0  0  0  0  0  0  0  0
    2.5480   69.3300   67.8270 C   0  0  0  0  0  0  0  0  0  0  0  0
    1.6140   68.3390   67.4740 C   0  0  0  0  0  0  0  0  0  0  0  0
    1.7540   67.7030   66.2290 C   0  0  0  0  0  0  0  0  0  0  0  0
    2.7930   68.0530   65.3590 C   0  0  0  0  0  0  0  0  0  0  0  0
    5.6360   69.6820   64.1060 N   0  0  0  0  0  0  0  0  0  0  0  0
    4.7740   69.4010   64.8300 C   0  0  0  0  0  0  0  0  0  0  0  0
    0.7830   66.7390   69.3040 C   0  0  0  0  0  0  0  0  0  0  0  0
   -0.0940   66.4380   70.3640 C   0  0  0  0  0  0  0  0  0  0  0  0
    0.1540   65.3600   71.2200 C   0  0  0  0  0  0  0  0  0  0  0  0
    1.2880   64.5660   71.0390 C   0  0  0  0  0  0  0  0  0  0  0  0
    2.1750   64.8590   70.0000 C   0  0  0  0  0  0  0  0  0  0  0  0
    1.9270   65.9380   69.1430 C   0  0  0  0  0  0  0  0  0  0  0  0
    1.5440   63.4620   71.9160 C   0  0  0  0  0  0  0  0  0  0  0  0
    1.7520   62.5640   72.6220 N   0  0  0  0  0  0  0  0  0  0  0  0
   -0.8190   67.8380   67.7100 N   0  0  0  0  0  0  0  0  0  0  0  0
   -1.6420   66.7490   67.6930 C   0  0  0  0  0  0  0  0  0  0  0  0
   -2.7110   67.0110   66.9790 N   0  0  0  0  0  0  0  0  0  0  0  0
   -2.4960   68.2920   66.5630 C   0  0  0  0  0  0  0  0  0  0  0  0
   -1.3480   68.8400   66.9700 N   0  0  0  0  0  0  0  0  0  0  0  0
    0.3693   68.7798   69.1144 H   0  0  0  0  0  0  0  0  0  0  0  0
    4.3053   70.4588   67.2490 H   0  0  0  0  0  0  0  0  0  0  0  0
    2.4609   69.8360   68.7998 H   0  0  0  0  0  0  0  0  0  0  0  0
    1.0387   66.9209   65.9346 H   0  0  0  0  0  0  0  0  0  0  0  0
    2.8888   67.5468   64.3871 H   0  0  0  0  0  0  0  0  0  0  0  0
   -0.9875   67.0601   70.5211 H   0  0  0  0  0  0  0  0  0  0  0  0
   -0.5465   65.1371   72.0383 H   0  0  0  0  0  0  0  0  0  0  0  0
    3.0721   64.2392   69.8547 H   0  0  0  0  0  0  0  0  0  0  0  0
    2.6367   66.1619   68.3330 H   0  0  0  0  0  0  0  0  0  0  0  0
   -1.4393   65.7950   68.2016 H   0  0  0  0  0  0  0  0  0  0  0  0
   -3.2178   68.8359   65.9360 H   0  0  0  0  0  0  0  0  0  0  0  0
  3  2  2  0
  4  3  1  0
  5  1  1  0
  5  4  2  0
  6  5  1  0
  7  6  2  0
  7  2  1  0
  9  2  1  0
  9  8  3  0
 10  1  1  0
 11 10  2  0
 12 11  1  0
 13 12  2  0
 14 13  1  0
 15 10  1  0
 15 14  2  0
 16 13  1  0
 17 16  3  0
 18  1  1  0
 19 18  1  0
 20 19  2  0
 21 20  1  0
 22 21  2  0
 22 18  1  0
  1 23  1  0
  3 24  1  0
  4 25  1  0
  6 26  1  0
  7 27  1  0
 11 28  1  0
 12 29  1  0
 14 30  1  0
 15 31  1  0
 19 32  1  0
 21 33  1  0
M  END
>  <score>  (9) 
-7.613

$$$$
