=
     RDKit          3D

 35 36  0  0  0  0  0  0  0  0999 V2000
    0.9470   68.1660   68.0430 S   0  0  0  0  0  0  0  0  0  0  0  0
   -0.4590   68.0640   66.5110 S   0  0  0  0  0  6  0  0  0  0  0  0
   -1.0070   66.7210   66.5100 O   0  0  0  0  0  0  0  0  0  0  0  0
   -1.3190   69.2260   66.6140 O   0  0  0  0  0  0  0  0  0  0  0  0
    2.9390   68.7450   61.5260 C   0  0  0  0  0  0  0  0  0  0  0  0
    2.0860   68.5530   62.7460 C   0  0  0  0  0  0  0  0  0  0  0  0
    2.6010   67.8960   63.8720 C   0  0  0  0  0  0  0  0  0  0  0  0
    1.8240   67.7470   65.0210 C   0  0  0  0  0  0  0  0  0  0  0  0
    0.5230   68.2590   65.0430 C   0  0  0  0  0  0  0  0  0  0  0  0
    0.0060   68.9410   63.9400 C   0  0  0  0  0  0  0  0  0  0  0  0
    0.7910   69.0870   62.7940 C   0  0  0  0  0  0  0  0  0  0  0  0
    1.3740   69.9210   67.9950 C   0  0  0  0  0  0  0  0  0  0  0  0
    2.8580   70.1350   68.1650 C   0  0  0  0  0  0  0  0  0  0  0  0
    3.3640   70.7060   69.3410 C   0  0  0  0  0  0  0  0  0  0  0  0
    4.7360   70.9180   69.4930 C   0  0  0  0  0  0  0  0  0  0  0  0
    5.6290   70.5750   68.4680 C   0  0  0  0  0  0  0  0  0  0  0  0
    5.1210   70.0020   67.2930 C   0  0  0  0  0  0  0  0  0  0  0  0
    3.7500   69.7890   67.1400 C   0  0  0  0  0  0  0  0  0  0  0  0
    7.1140   70.7840   68.6400 C   0  0  0  0  0  0  0  0  0  0  0  0
    7.4820   72.0930   68.5580 F   0  0  0  0  0  0  0  0  0  0  0  0
    7.5820   70.3410   69.8400 F   0  0  0  0  0  0  0  0  0  0  0  0
    7.8400   70.1320   67.6910 F   0  0  0  0  0  0  0  0  0  0  0  0
    3.9698   68.9770   61.8321 H   0  0  0  0  0  0  0  0  0  0  0  0
    2.9334   67.8231   60.9259 H   0  0  0  0  0  0  0  0  0  0  0  0
    2.5390   69.5756   60.9259 H   0  0  0  0  0  0  0  0  0  0  0  0
    3.6251   67.4951   63.8495 H   0  0  0  0  0  0  0  0  0  0  0  0
    2.2316   67.2308   65.9027 H   0  0  0  0  0  0  0  0  0  0  0  0
   -1.0107   69.3597   63.9732 H   0  0  0  0  0  0  0  0  0  0  0  0
    0.3898   69.6252   61.9225 H   0  0  0  0  0  0  0  0  0  0  0  0
    1.0615   70.3383   67.0264 H   0  0  0  0  0  0  0  0  0  0  0  0
    0.8559   70.4246   68.8244 H   0  0  0  0  0  0  0  0  0  0  0  0
    2.6751   70.9893   70.1504 H   0  0  0  0  0  0  0  0  0  0  0  0
    5.1195   71.3581   70.4253 H   0  0  0  0  0  0  0  0  0  0  0  0
    5.8099   69.7176   66.4839 H   0  0  0  0  0  0  0  0  0  0  0  0
    3.3667   69.3466   66.2087 H   0  0  0  0  0  0  0  0  0  0  0  0
  2  1  1  0
  3  2  2  0
  4  2  2  0
  6  5  1  0
  7  6  2  0
  8  7  1  0
  9  8  2  0
  9  2  1  0
 10  9  1  0
 11 10  2  0
 11  6  1  0
 12  1  1  0
 13 12  1  0
 14 13  2  0
 15 14  1  0
 16 15  2  0
 17 16  1  0
 18 17  2  0
 18 13  1  0
 19 16  1  0
 20 19  1  0
 21 19  1  0
 22 19  1  0
  5 23  1  0
  5 24  1  0
  5 25  1  0
  7 26  1  0
  8 27  1  0
 10 28  1  0
 11 29  1  0
 12 30  1  0
 12 31  1  0
 14 32  1  0
 15 33  1  0
 17 34  1  0
 18 35  1  0
M  END
>  <score>  (1) 
-10.111

$$$$
=
     RDKit          3D

 35 36  0  0  0  0  0  0  0  0999 V2000
    0.9720   68.1240   68.0880 S   0  0  0  0  0  0  0  0  0  0  0  0
   -0.3520   67.9690   66.4880 S   0  0  0  0  0  6  0  0  0  0  0  0
   -0.8790   66.6180   66.4870 O   0  0  0  0  0  0  0  0  0  0  0  0
   -1.2330   69.1190   66.5220 O   0  0  0  0  0  0  0  0  0  0  0  0
    3.2070   68.5710   61.6070 C   0  0  0  0  0  0  0  0  0  0  0  0
    2.3410   68.4450   62.8260 C   0  0  0  0  0  0  0  0  0  0  0  0
    1.0520   68.9940   62.8360 C   0  0  0  0  0  0  0  0  0  0  0  0
    0.2300   68.8500   63.9550 C   0  0  0  0  0  0  0  0  0  0  0  0
    0.7020   68.1490   65.0690 C   0  0  0  0  0  0  0  0  0  0  0  0
    1.9730   67.5710   65.0630 C   0  0  0  0  0  0  0  0  0  0  0  0
    2.7890   67.7210   63.9400 C   0  0  0  0  0  0  0  0  0  0  0  0
    1.4050   69.8760   68.0010 C   0  0  0  0  0  0  0  0  0  0  0  0
    2.8870   70.0900   68.1850 C   0  0  0  0  0  0  0  0  0  0  0  0
    3.3890   70.5900   69.3950 C   0  0  0  0  0  0  0  0  0  0  0  0
    4.7600   70.8020   69.5600 C   0  0  0  0  0  0  0  0  0  0  0  0
    5.6550   70.5310   68.5150 C   0  0  0  0  0  0  0  0  0  0  0  0
    5.1510   70.0290   67.3060 C   0  0  0  0  0  0  0  0  0  0  0  0
    3.7810   69.8170   67.1400 C   0  0  0  0  0  0  0  0  0  0  0  0
    7.1380   70.7400   68.7000 C   0  0  0  0  0  0  0  0  0  0  0  0
    7.5080   72.0480   68.6170 F   0  0  0  0  0  0  0  0  0  0  0  0
    7.5950   70.3020   69.9070 F   0  0  0  0  0  0  0  0  0  0  0  0
    7.8730   70.0830   67.7610 F   0  0  0  0  0  0  0  0  0  0  0  0
    4.2523   68.7231   61.9140 H   0  0  0  0  0  0  0  0  0  0  0  0
    3.1311   67.6524   61.0067 H   0  0  0  0  0  0  0  0  0  0  0  0
    2.8724   69.4299   61.0067 H   0  0  0  0  0  0  0  0  0  0  0  0
    0.6851   69.5424   61.9558 H   0  0  0  0  0  0  0  0  0  0  0  0
   -0.7806   69.2844   63.9604 H   0  0  0  0  0  0  0  0  0  0  0  0
    2.3283   67.0026   65.9352 H   0  0  0  0  0  0  0  0  0  0  0  0
    3.7912   67.2676   63.9292 H   0  0  0  0  0  0  0  0  0  0  0  0
    1.1065   70.2694   67.0181 H   0  0  0  0  0  0  0  0  0  0  0  0
    0.8776   70.4020   68.8104 H   0  0  0  0  0  0  0  0  0  0  0  0
    2.6982   70.8170   70.2204 H   0  0  0  0  0  0  0  0  0  0  0  0
    5.1409   71.1850   70.5183 H   0  0  0  0  0  0  0  0  0  0  0  0
    5.8416   69.8002   66.4810 H   0  0  0  0  0  0  0  0  0  0  0  0
    3.4002   69.4329   66.1822 H   0  0  0  0  0  0  0  0  0  0  0  0
  2  1  1  0
  3  2  2  0
  4  2  2  0
  6  5  1  0
  7  6  2  0
  8  7  1  0
  9  8  2  0
  9  2  1  0
 10  9  1  0
 11 10  2  0
 11  6  1  0
 12  1  1  0
 13 12  1  0
 14 13  2  0
 15 14  1  0
 16 15  2  0
 17 16  1  0
 18 17  2  0
 18 13  1  0
 19 16  1  0
 20 19  1  0
 21 19  1  0
 22 19  1  0
  5 23  1  0
  5 24  1  0
  5 25  1  0
  7 26  1  0
  8 27  1  0
 10 28  1  0
 11 29  1  0
 12 30  1  0
 12 31  1  0
 14 32  1  0
 15 33  1  0
 17 34  1  0
 18 35  1  0
M  END
>  <score>  (2) 
-10.107

$$$$
=
     RDKit          3D

 35 36  0  0  0  0  0  0  0  0999 V2000
    1.6870   67.8530   67.0210 S   0  0  0  0  0  0  0  0  0  0  0  0
    1.7630   67.9200   64.9410 S   0  0  0  0  0  6  0  0  0  0  0  0
    0.4290   67.6360   64.4460 O   0  0  0  0  0  0  0  0  0  0  0  0
    2.4650   69.1280   64.5570 O   0  0  0  0  0  0  0  0  0  0  0  0
    5.3200   63.2250   63.4730 C   0  0  0  0  0  0  0  0  0  0  0  0
    4.4590   64.3920   63.8580 C   0  0  0  0  0  0  0  0  0  0  0  0
    4.5620   65.6040   63.1620 C   0  0  0  0  0  0  0  0  0  0  0  0
    3.7390   66.6820   63.4940 C   0  0  0  0  0  0  0  0  0  0  0  0
    2.8070   66.5440   64.5270 C   0  0  0  0  0  0  0  0  0  0  0  0
    2.6730   65.3330   65.2090 C   0  0  0  0  0  0  0  0  0  0  0  0
    3.5010   64.2600   64.8720 C   0  0  0  0  0  0  0  0  0  0  0  0
    1.8410   69.6070   67.4220 C   0  0  0  0  0  0  0  0  0  0  0  0
    3.2310   69.9470   67.8970 C   0  0  0  0  0  0  0  0  0  0  0  0
    4.3300   69.8140   67.0360 C   0  0  0  0  0  0  0  0  0  0  0  0
    5.6200   70.1150   67.4800 C   0  0  0  0  0  0  0  0  0  0  0  0
    5.8390   70.5430   68.7970 C   0  0  0  0  0  0  0  0  0  0  0  0
    4.7390   70.6770   69.6570 C   0  0  0  0  0  0  0  0  0  0  0  0
    3.4500   70.3770   69.2140 C   0  0  0  0  0  0  0  0  0  0  0  0
    7.2300   70.8890   69.2710 C   0  0  0  0  0  0  0  0  0  0  0  0
    8.1850   70.0480   68.7830 F   0  0  0  0  0  0  0  0  0  0  0  0
    7.6230   72.1430   68.9120 F   0  0  0  0  0  0  0  0  0  0  0  0
    7.3420   70.8350   70.6270 F   0  0  0  0  0  0  0  0  0  0  0  0
    5.6884   62.7257   64.3813 H   0  0  0  0  0  0  0  0  0  0  0  0
    4.7287   62.5137   62.8777 H   0  0  0  0  0  0  0  0  0  0  0  0
    6.1741   63.5801   62.8777 H   0  0  0  0  0  0  0  0  0  0  0  0
    5.2958   65.7067   62.3490 H   0  0  0  0  0  0  0  0  0  0  0  0
    3.8233   67.6326   62.9470 H   0  0  0  0  0  0  0  0  0  0  0  0
    1.9216   65.2250   66.0050 H   0  0  0  0  0  0  0  0  0  0  0  0
    3.4003   63.3040   65.4067 H   0  0  0  0  0  0  0  0  0  0  0  0
    1.6157   70.1999   66.5233 H   0  0  0  0  0  0  0  0  0  0  0  0
    1.1339   69.8384   68.2323 H   0  0  0  0  0  0  0  0  0  0  0  0
    4.1751   69.4699   66.0028 H   0  0  0  0  0  0  0  0  0  0  0  0
    6.4712   70.0153   66.7904 H   0  0  0  0  0  0  0  0  0  0  0  0
    4.8938   71.0217   70.6901 H   0  0  0  0  0  0  0  0  0  0  0  0
    2.5988   70.4786   69.9033 H   0  0  0  0  0  0  0  0  0  0  0  0
  2  1  1  0
  3  2  2  0
  4  2  2  0
  6  5  1  0
  7  6  2  0
  8  7  1  0
  9  8  2  0
  9  2  1  0
 10  9  1  0
 11 10  2  0
 11  6  1  0
 12  1  1  0
 13 12  1  0
 14 13  2  0
 15 14  1  0
 16 15  2  0
 17 16  1  0
 18 17  2  0
 18 13  1  0
 19 16  1  0
 20 19  1  0
 21 19  1  0
 22 19  1  0
  5 23  1  0
  5 24  1  0
  5 25  1  0
  7 26  1  0
  8 27  1  0
 10 28  1  0
 11 29  1  0
 12 30  1  0
 12 31  1  0
 14 32  1  0
 15 33  1  0
 17 34  1  0
 18 35  1  0
M  END
>  <score>  (3) 
-9.583

$$$$
=
     RDKit          3D

 35 36  0  0  0  0  0  0  0  0999 V2000
    1.7720   68.8900   67.3750 S   0  0  0  0  0  0  0  0  0  0  0  0
    1.1070   67.3040   66.2010 S   0  0  0  0  0  6  0  0  0  0  0  0
    2.2130   66.3780   66.0510 O   0  0  0  0  0  0  0  0  0  0  0  0
   -0.1740   66.8680   66.7190 O   0  0  0  0  0  0  0  0  0  0  0  0
    0.1420   69.9230   60.8090 C   0  0  0  0  0  0  0  0  0  0  0  0
    0.3660   69.2510   62.1330 C   0  0  0  0  0  0  0  0  0  0  0  0
    1.5910   68.6310   62.4100 C   0  0  0  0  0  0  0  0  0  0  0  0
    1.8170   68.0360   63.6520 C   0  0  0  0  0  0  0  0  0  0  0  0
    0.8100   68.0640   64.6220 C   0  0  0  0  0  0  0  0  0  0  0  0
   -0.4050   68.7040   64.3700 C   0  0  0  0  0  0  0  0  0  0  0  0
   -0.6230   69.2970   63.1250 C   0  0  0  0  0  0  0  0  0  0  0  0
    3.1190   69.5260   66.3540 C   0  0  0  0  0  0  0  0  0  0  0  0
    4.3220   69.8920   67.1880 C   0  0  0  0  0  0  0  0  0  0  0  0
    5.6110   69.8360   66.6410 C   0  0  0  0  0  0  0  0  0  0  0  0
    6.7260   70.1610   67.4170 C   0  0  0  0  0  0  0  0  0  0  0  0
    6.5750   70.5370   68.7590 C   0  0  0  0  0  0  0  0  0  0  0  0
    5.2850   70.5940   69.3050 C   0  0  0  0  0  0  0  0  0  0  0  0
    4.1700   70.2700   68.5300 C   0  0  0  0  0  0  0  0  0  0  0  0
    7.7780   70.9090   69.5920 C   0  0  0  0  0  0  0  0  0  0  0  0
    8.8040   70.0190   69.4770 F   0  0  0  0  0  0  0  0  0  0  0  0
    8.3020   72.1230   69.2660 F   0  0  0  0  0  0  0  0  0  0  0  0
    7.4860   70.9720   70.9210 F   0  0  0  0  0  0  0  0  0  0  0  0
   -0.2019   70.9546   60.9749 H   0  0  0  0  0  0  0  0  0  0  0  0
    1.0839   69.9374   60.2411 H   0  0  0  0  0  0  0  0  0  0  0  0
   -0.6202   69.3693   60.2411 H   0  0  0  0  0  0  0  0  0  0  0  0
    2.3800   68.6129   61.6437 H   0  0  0  0  0  0  0  0  0  0  0  0
    2.7797   67.5488   63.8663 H   0  0  0  0  0  0  0  0  0  0  0  0
   -1.1839   68.7407   65.1458 H   0  0  0  0  0  0  0  0  0  0  0  0
   -1.5777   69.8039   62.9212 H   0  0  0  0  0  0  0  0  0  0  0  0
    3.4104   68.7544   65.6262 H   0  0  0  0  0  0  0  0  0  0  0  0
    2.7650   70.4336   65.8432 H   0  0  0  0  0  0  0  0  0  0  0  0
    5.7458   69.5336   65.5920 H   0  0  0  0  0  0  0  0  0  0  0  0
    7.7309   70.1216   66.9714 H   0  0  0  0  0  0  0  0  0  0  0  0
    5.1502   70.8968   70.3539 H   0  0  0  0  0  0  0  0  0  0  0  0
    3.1649   70.3115   68.9751 H   0  0  0  0  0  0  0  0  0  0  0  0
  2  1  1  0
  3  2  2  0
  4  2  2  0
  6  5  1  0
  7  6  2  0
  8  7  1  0
  9  8  2  0
  9  2  1  0
 10  9  1  0
 11 10  2  0
 11  6  1  0
 12  1  1  0
 13 12  1  0
 14 13  2  0
 15 14  1  0
 16 15  2  0
 17 16  1  0
 18 17  2  0
 18 13  1  0
 19 16  1  0
 20 19  1  0
 21 19  1  0
 22 19  1  0
  5 23  1  0
  5 24  1  0
  5 25  1  0
  7 26  1  0
  8 27  1  0
 10 28  1  0
 11 29  1  0
 12 30  1  0
 12 31  1  0
 14 32  1  0
 15 33  1  0
 17 34  1  0
 18 35  1  0
M  END
>  <score>  (4) 
-9.525

$$$$
=
     RDKit          3D

 35 36  0  0  0  0  0  0  0  0999 V2000
    5.6830   67.6570   63.4220 S   0  0  0  0  0  0  0  0  0  0  0  0
    4.0240   66.8890   62.4240 S   0  0  0  0  0  6  0  0  0  0  0  0
    3.8770   67.6310   61.1860 O   0  0  0  0  0  0  0  0  0  0  0  0
    4.1270   65.4440   62.4270 O   0  0  0  0  0  0  0  0  0  0  0  0
   -0.5870   68.4360   66.0590 C   0  0  0  0  0  0  0  0  0  0  0  0
    0.5370   68.0320   65.1490 C   0  0  0  0  0  0  0  0  0  0  0  0
    0.7600   68.7260   63.9520 C   0  0  0  0  0  0  0  0  0  0  0  0
    1.8240   68.3760   63.1200 C   0  0  0  0  0  0  0  0  0  0  0  0
    2.6700   67.3270   63.4890 C   0  0  0  0  0  0  0  0  0  0  0  0
    2.4780   66.6450   64.6930 C   0  0  0  0  0  0  0  0  0  0  0  0
    1.4100   67.0010   65.5200 C   0  0  0  0  0  0  0  0  0  0  0  0
    5.1730   69.3740   63.6560 C   0  0  0  0  0  0  0  0  0  0  0  0
    5.0140   69.7100   65.1170 C   0  0  0  0  0  0  0  0  0  0  0  0
    6.0890   70.2340   65.8490 C   0  0  0  0  0  0  0  0  0  0  0  0
    5.9460   70.5320   67.2060 C   0  0  0  0  0  0  0  0  0  0  0  0
    4.7290   70.3020   67.8620 C   0  0  0  0  0  0  0  0  0  0  0  0
    3.6530   69.7800   67.1290 C   0  0  0  0  0  0  0  0  0  0  0  0
    3.7950   69.4820   65.7720 C   0  0  0  0  0  0  0  0  0  0  0  0
    4.5670   70.6440   69.3230 C   0  0  0  0  0  0  0  0  0  0  0  0
    5.7230   70.5150   70.0330 F   0  0  0  0  0  0  0  0  0  0  0  0
    4.1450   71.9220   69.5320 F   0  0  0  0  0  0  0  0  0  0  0  0
    3.6570   69.8430   69.9430 F   0  0  0  0  0  0  0  0  0  0  0  0
   -0.2700   68.3221   67.1062 H   0  0  0  0  0  0  0  0  0  0  0  0
   -0.8534   69.4862   65.8687 H   0  0  0  0  0  0  0  0  0  0  0  0
   -1.4610   67.7957   65.8687 H   0  0  0  0  0  0  0  0  0  0  0  0
    0.0919   69.5519   63.6666 H   0  0  0  0  0  0  0  0  0  0  0  0
    1.9955   68.9219   62.1805 H   0  0  0  0  0  0  0  0  0  0  0  0
    3.1616   65.8350   64.9871 H   0  0  0  0  0  0  0  0  0  0  0  0
    1.2533   66.4680   66.4694 H   0  0  0  0  0  0  0  0  0  0  0  0
    5.9348   70.0358   63.2181 H   0  0  0  0  0  0  0  0  0  0  0  0
    4.2003   69.5150   63.1621 H   0  0  0  0  0  0  0  0  0  0  0  0
    7.0532   70.4119   65.3503 H   0  0  0  0  0  0  0  0  0  0  0  0
    6.7959   70.9509   67.7647 H   0  0  0  0  0  0  0  0  0  0  0  0
    2.6885   69.6037   67.6276 H   0  0  0  0  0  0  0  0  0  0  0  0
    2.9444   69.0653   65.2127 H   0  0  0  0  0  0  0  0  0  0  0  0
  2  1  1  0
  3  2  2  0
  4  2  2  0
  6  5  1  0
  7  6  2  0
  8  7  1  0
  9  8  2  0
  9  2  1  0
 10  9  1  0
 11 10  2  0
 11  6  1  0
 12  1  1  0
 13 12  1  0
 14 13  2  0
 15 14  1  0
 16 15  2  0
 17 16  1  0
 18 17  2  0
 18 13  1  0
 19 16  1  0
 20 19  1  0
 21 19  1  0
 22 19  1  0
  5 23  1  0
  5 24  1  0
  5 25  1  0
  7 26  1  0
  8 27  1  0
 10 28  1  0
 11 29  1  0
 12 30  1  0
 12 31  1  0
 14 32  1  0
 15 33  1  0
 17 34  1  0
 18 35  1  0
M  END
>  <score>  (5) 
-9.498

$$$$
=
     RDKit          3D

 35 36  0  0  0  0  0  0  0  0999 V2000
    4.5450   69.0820   63.9020 S   0  0  0  0  0  0  0  0  0  0  0  0
    3.2430   67.6460   63.1410 S   0  0  0  0  0  6  0  0  0  0  0  0
    3.0100   67.9650   61.7440 O   0  0  0  0  0  0  0  0  0  0  0  0
    3.7290   66.3420   63.5430 O   0  0  0  0  0  0  0  0  0  0  0  0
   -1.9000   68.7350   66.1770 C   0  0  0  0  0  0  0  0  0  0  0  0
   -0.6400   68.4410   65.4150 C   0  0  0  0  0  0  0  0  0  0  0  0
   -0.3930   69.0740   64.1900 C   0  0  0  0  0  0  0  0  0  0  0  0
    0.7930   68.8300   63.4950 C   0  0  0  0  0  0  0  0  0  0  0  0
    1.7360   67.9490   64.0320 C   0  0  0  0  0  0  0  0  0  0  0  0
    1.5170   67.3350   65.2660 C   0  0  0  0  0  0  0  0  0  0  0  0
    0.3280   67.5830   65.9550 C   0  0  0  0  0  0  0  0  0  0  0  0
    3.7490   69.4570   65.4800 C   0  0  0  0  0  0  0  0  0  0  0  0
    4.7610   69.8190   66.5390 C   0  0  0  0  0  0  0  0  0  0  0  0
    4.3440   70.1900   67.8250 C   0  0  0  0  0  0  0  0  0  0  0  0
    5.2800   70.5390   68.8010 C   0  0  0  0  0  0  0  0  0  0  0  0
    6.6510   70.5350   68.5080 C   0  0  0  0  0  0  0  0  0  0  0  0
    7.0670   70.1620   67.2220 C   0  0  0  0  0  0  0  0  0  0  0  0
    6.1320   69.8130   66.2450 C   0  0  0  0  0  0  0  0  0  0  0  0
    7.6640   70.8910   69.5690 C   0  0  0  0  0  0  0  0  0  0  0  0
    7.1430   70.8890   70.8280 F   0  0  0  0  0  0  0  0  0  0  0  0
    8.7250   70.0380   69.6060 F   0  0  0  0  0  0  0  0  0  0  0  0
    8.1890   72.1340   69.3850 F   0  0  0  0  0  0  0  0  0  0  0  0
   -1.6951   68.6872   67.2567 H   0  0  0  0  0  0  0  0  0  0  0  0
   -2.2599   69.7412   65.9163 H   0  0  0  0  0  0  0  0  0  0  0  0
   -2.6680   67.9919   65.9163 H   0  0  0  0  0  0  0  0  0  0  0  0
   -1.1381   69.7676   63.7731 H   0  0  0  0  0  0  0  0  0  0  0  0
    0.9838   69.3271   62.5325 H   0  0  0  0  0  0  0  0  0  0  0  0
    2.2748   66.6612   65.6924 H   0  0  0  0  0  0  0  0  0  0  0  0
    0.1498   67.1018   66.9280 H   0  0  0  0  0  0  0  0  0  0  0  0
    3.0599   70.3030   65.3404 H   0  0  0  0  0  0  0  0  0  0  0  0
    3.2065   68.5603   65.8140 H   0  0  0  0  0  0  0  0  0  0  0  0
    3.2711   70.2064   68.0672 H   0  0  0  0  0  0  0  0  0  0  0  0
    4.9386   70.8195   69.8084 H   0  0  0  0  0  0  0  0  0  0  0  0
    8.1400   70.1441   66.9803 H   0  0  0  0  0  0  0  0  0  0  0  0
    6.4735   69.5315   65.2379 H   0  0  0  0  0  0  0  0  0  0  0  0
  2  1  1  0
  3  2  2  0
  4  2  2  0
  6  5  1  0
  7  6  2  0
  8  7  1  0
  9  8  2  0
  9  2  1  0
 10  9  1  0
 11 10  2  0
 11  6  1  0
 12  1  1  0
 13 12  1  0
 14 13  2  0
 15 14  1  0
 16 15  2  0
 17 16  1  0
 18 17  2  0
 18 13  1  0
 19 16  1  0
 20 19  1  0
 21 19  1  0
 22 19  1  0
  5 23  1  0
  5 24  1  0
  5 25  1  0
  7 26  1  0
  8 27  1  0
 10 28  1  0
 11 29  1  0
 12 30  1  0
 12 31  1  0
 14 32  1  0
 15 33  1  0
 17 34  1  0
 18 35  1  0
M  END
>  <score>  (6) 
-9.236

$$$$
=
     RDKit          3D

 35 36  0  0  0  0  0  0  0  0999 V2000
    1.4280   67.5290   69.0770 S   0  0  0  0  0  0  0  0  0  0  0  0
    0.5560   68.0880   67.2700 S   0  0  0  0  0  6  0  0  0  0  0  0
   -0.0720   66.9080   66.7050 O   0  0  0  0  0  0  0  0  0  0  0  0
   -0.1960   69.3060   67.4930 O   0  0  0  0  0  0  0  0  0  0  0  0
    5.3300   69.5650   63.8230 C   0  0  0  0  0  0  0  0  0  0  0  0
    4.1610   69.1730   64.6790 C   0  0  0  0  0  0  0  0  0  0  0  0
    4.1350   69.5130   66.0380 C   0  0  0  0  0  0  0  0  0  0  0  0
    3.0340   69.1810   66.8290 C   0  0  0  0  0  0  0  0  0  0  0  0
    1.9530   68.5060   66.2550 C   0  0  0  0  0  0  0  0  0  0  0  0
    1.9520   68.1860   64.8960 C   0  0  0  0  0  0  0  0  0  0  0  0
    3.0570   68.5210   64.1110 C   0  0  0  0  0  0  0  0  0  0  0  0
    0.1870   66.3800   69.7110 C   0  0  0  0  0  0  0  0  0  0  0  0
    0.8150   65.0970   70.1940 C   0  0  0  0  0  0  0  0  0  0  0  0
    2.2100   64.9630   70.2470 C   0  0  0  0  0  0  0  0  0  0  0  0
    2.7920   63.7690   70.6810 C   0  0  0  0  0  0  0  0  0  0  0  0
    1.9920   62.6820   71.0580 C   0  0  0  0  0  0  0  0  0  0  0  0
    0.5970   62.8170   71.0060 C   0  0  0  0  0  0  0  0  0  0  0  0
    0.0140   64.0100   70.5730 C   0  0  0  0  0  0  0  0  0  0  0  0
    2.6200   61.3990   71.5470 C   0  0  0  0  0  0  0  0  0  0  0  0
    1.7030   60.4680   71.9340 F   0  0  0  0  0  0  0  0  0  0  0  0
    3.3940   60.7880   70.6070 F   0  0  0  0  0  0  0  0  0  0  0  0
    3.4270   61.5980   72.6250 F   0  0  0  0  0  0  0  0  0  0  0  0
    6.1763   69.8488   64.4658 H   0  0  0  0  0  0  0  0  0  0  0  0
    5.6207   68.7152   63.1879 H   0  0  0  0  0  0  0  0  0  0  0  0
    5.0496   70.4183   63.1879 H   0  0  0  0  0  0  0  0  0  0  0  0
    4.9879   70.0451   66.4845 H   0  0  0  0  0  0  0  0  0  0  0  0
    3.0172   69.4485   67.8958 H   0  0  0  0  0  0  0  0  0  0  0  0
    1.0878   67.6742   64.4474 H   0  0  0  0  0  0  0  0  0  0  0  0
    3.0616   68.2718   63.0396 H   0  0  0  0  0  0  0  0  0  0  0  0
   -0.3445   66.8550   70.5488 H   0  0  0  0  0  0  0  0  0  0  0  0
   -0.5072   66.1371   68.8931 H   0  0  0  0  0  0  0  0  0  0  0  0
    2.8510   65.8043   69.9446 H   0  0  0  0  0  0  0  0  0  0  0  0
    3.8876   63.6816   70.7271 H   0  0  0  0  0  0  0  0  0  0  0  0
   -0.0437   61.9757   71.3090 H   0  0  0  0  0  0  0  0  0  0  0  0
   -1.0816   64.0977   70.5289 H   0  0  0  0  0  0  0  0  0  0  0  0
  2  1  1  0
  3  2  2  0
  4  2  2  0
  6  5  1  0
  7  6  2  0
  8  7  1  0
  9  8  2  0
  9  2  1  0
 10  9  1  0
 11 10  2  0
 11  6  1  0
 12  1  1  0
 13 12  1  0
 14 13  2  0
 15 14  1  0
 16 15  2  0
 17 16  1  0
 18 17  2  0
 18 13  1  0
 19 16  1  0
 20 19  1  0
 21 19  1  0
 22 19  1  0
  5 23  1  0
  5 24  1  0
  5 25  1  0
  7 26  1  0
  8 27  1  0
 10 28  1  0
 11 29  1  0
 12 30  1  0
 12 31  1  0
 14 32  1  0
 15 33  1  0
 17 34  1  0
 18 35  1  0
M  END
>  <score>  (7) 
-8.878

$$$$
=
     RDKit          3D

 35 36  0  0  0  0  0  0  0  0999 V2000
    1.1650   69.7990   67.6070 S   0  0  0  0  0  0  0  0  0  0  0  0
   -0.0490   68.1880   67.0880 S   0  0  0  0  0  6  0  0  0  0  0  0
   -1.4250   68.6440   67.1410 O   0  0  0  0  0  0  0  0  0  0  0  0
    0.4970   67.5840   65.8890 O   0  0  0  0  0  0  0  0  0  0  0  0
    0.7610   64.2840   71.6660 C   0  0  0  0  0  0  0  0  0  0  0  0
    0.5750   65.2310   70.5160 C   0  0  0  0  0  0  0  0  0  0  0  0
   -0.6340   65.2540   69.8090 C   0  0  0  0  0  0  0  0  0  0  0  0
   -0.8240   66.1560   68.7610 C   0  0  0  0  0  0  0  0  0  0  0  0
    0.2030   67.0420   68.4220 C   0  0  0  0  0  0  0  0  0  0  0  0
    1.4020   67.0510   69.1360 C   0  0  0  0  0  0  0  0  0  0  0  0
    1.5850   66.1440   70.1830 C   0  0  0  0  0  0  0  0  0  0  0  0
    2.6390   69.4430   66.6250 C   0  0  0  0  0  0  0  0  0  0  0  0
    3.9000   69.8210   67.3620 C   0  0  0  0  0  0  0  0  0  0  0  0
    3.8480   70.2170   68.7060 C   0  0  0  0  0  0  0  0  0  0  0  0
    5.0130   70.5810   69.3840 C   0  0  0  0  0  0  0  0  0  0  0  0
    6.2530   70.5680   68.7290 C   0  0  0  0  0  0  0  0  0  0  0  0
    6.3040   70.1710   67.3850 C   0  0  0  0  0  0  0  0  0  0  0  0
    5.1390   69.8070   66.7060 C   0  0  0  0  0  0  0  0  0  0  0  0
    7.5160   70.9410   69.4670 C   0  0  0  0  0  0  0  0  0  0  0  0
    8.5410   70.0710   69.2450 F   0  0  0  0  0  0  0  0  0  0  0  0
    7.9930   72.1710   69.1260 F   0  0  0  0  0  0  0  0  0  0  0  0
    7.3360   70.9700   70.8160 F   0  0  0  0  0  0  0  0  0  0  0  0
    0.6533   64.8322   72.6135 H   0  0  0  0  0  0  0  0  0  0  0  0
    0.0017   63.4899   71.6135 H   0  0  0  0  0  0  0  0  0  0  0  0
    1.7643   63.8360   71.6135 H   0  0  0  0  0  0  0  0  0  0  0  0
   -1.4394   64.5562   70.0817 H   0  0  0  0  0  0  0  0  0  0  0  0
   -1.7739   66.1697   68.2064 H   0  0  0  0  0  0  0  0  0  0  0  0
    2.1965   67.7662   68.8767 H   0  0  0  0  0  0  0  0  0  0  0  0
    2.5278   66.1465   70.7496 H   0  0  0  0  0  0  0  0  0  0  0  0
    2.6663   68.3668   66.3988 H   0  0  0  0  0  0  0  0  0  0  0  0
    2.5889   70.0368   65.7004 H   0  0  0  0  0  0  0  0  0  0  0  0
    2.8814   70.2411   69.2306 H   0  0  0  0  0  0  0  0  0  0  0  0
    4.9578   70.8805   70.4410 H   0  0  0  0  0  0  0  0  0  0  0  0
    7.2706   70.1460   66.8606 H   0  0  0  0  0  0  0  0  0  0  0  0
    5.1940   69.5072   65.6491 H   0  0  0  0  0  0  0  0  0  0  0  0
  2  1  1  0
  3  2  2  0
  4  2  2  0
  6  5  1  0
  7  6  2  0
  8  7  1  0
  9  8  2  0
  9  2  1  0
 10  9  1  0
 11 10  2  0
 11  6  1  0
 12  1  1  0
 13 12  1  0
 14 13  2  0
 15 14  1  0
 16 15  2  0
 17 16  1  0
 18 17  2  0
 18 13  1  0
 19 16  1  0
 20 19  1  0
 21 19  1  0
 22 19  1  0
  5 23  1  0
  5 24  1  0
  5 25  1  0
  7 26  1  0
  8 27  1  0
 10 28  1  0
 11 29  1  0
 12 30  1  0
 12 31  1  0
 14 32  1  0
 15 33  1  0
 17 34  1  0
 18 35  1  0
M  END
>  <score>  (8) 
-8.707

$$$$
=
     RDKit          3D

 35 36  0  0  0  0  0  0  0  0999 V2000
    3.5720   69.0810   62.6360 S   0  0  0  0  0  0  0  0  0  0  0  0
    5.1810   68.2860   63.6920 S   0  0  0  0  0  6  0  0  0  0  0  0
    4.9270   66.8690   63.8740 O   0  0  0  0  0  0  0  0  0  0  0  0
    6.4020   68.7560   63.0700 O   0  0  0  0  0  0  0  0  0  0  0  0
    4.7970   70.9520   69.1330 C   0  0  0  0  0  0  0  0  0  0  0  0
    4.8840   70.3180   67.7750 C   0  0  0  0  0  0  0  0  0  0  0  0
    6.1230   70.1940   67.1320 C   0  0  0  0  0  0  0  0  0  0  0  0
    6.2130   69.5750   65.8850 C   0  0  0  0  0  0  0  0  0  0  0  0
    5.0560   69.0750   65.2790 C   0  0  0  0  0  0  0  0  0  0  0  0
    3.8200   69.1640   65.9210 C   0  0  0  0  0  0  0  0  0  0  0  0
    3.7380   69.7860   67.1690 C   0  0  0  0  0  0  0  0  0  0  0  0
    2.4010   67.7070   62.7190 C   0  0  0  0  0  0  0  0  0  0  0  0
    1.4500   67.8590   63.8800 C   0  0  0  0  0  0  0  0  0  0  0  0
    1.5670   67.0360   65.0080 C   0  0  0  0  0  0  0  0  0  0  0  0
    0.6770   67.1660   66.0770 C   0  0  0  0  0  0  0  0  0  0  0  0
   -0.3560   68.1140   66.0340 C   0  0  0  0  0  0  0  0  0  0  0  0
   -0.4710   68.9370   64.9050 C   0  0  0  0  0  0  0  0  0  0  0  0
    0.4180   68.8080   63.8360 C   0  0  0  0  0  0  0  0  0  0  0  0
   -1.3040   68.2700   67.1970 C   0  0  0  0  0  0  0  0  0  0  0  0
   -2.6150   68.2610   66.8230 F   0  0  0  0  0  0  0  0  0  0  0  0
   -1.1790   67.2830   68.1280 F   0  0  0  0  0  0  0  0  0  0  0  0
   -1.1150   69.4410   67.8650 F   0  0  0  0  0  0  0  0  0  0  0  0
    4.9033   70.1774   69.9068 H   0  0  0  0  0  0  0  0  0  0  0  0
    5.6018   71.6937   69.2436 H   0  0  0  0  0  0  0  0  0  0  0  0
    3.8222   71.4495   69.2436 H   0  0  0  0  0  0  0  0  0  0  0  0
    7.0304   70.5873   67.6136 H   0  0  0  0  0  0  0  0  0  0  0  0
    7.1868   69.4809   65.3821 H   0  0  0  0  0  0  0  0  0  0  0  0
    2.9181   68.7479   65.4483 H   0  0  0  0  0  0  0  0  0  0  0  0
    2.7666   69.8587   67.6799 H   0  0  0  0  0  0  0  0  0  0  0  0
    1.8216   67.6745   61.7845 H   0  0  0  0  0  0  0  0  0  0  0  0
    2.9708   66.7766   62.8597 H   0  0  0  0  0  0  0  0  0  0  0  0
    2.3661   66.2814   65.0522 H   0  0  0  0  0  0  0  0  0  0  0  0
    0.7873   66.5194   66.9600 H   0  0  0  0  0  0  0  0  0  0  0  0
   -1.2697   69.6921   64.8608 H   0  0  0  0  0  0  0  0  0  0  0  0
    0.3083   69.4551   62.9532 H   0  0  0  0  0  0  0  0  0  0  0  0
  2  1  1  0
  3  2  2  0
  4  2  2  0
  6  5  1  0
  7  6  2  0
  8  7  1  0
  9  8  2  0
  9  2  1  0
 10  9  1  0
 11 10  2  0
 11  6  1  0
 12  1  1  0
 13 12  1  0
 14 13  2  0
 15 14  1  0
 16 15  2  0
 17 16  1  0
 18 17  2  0
 18 13  1  0
 19 16  1  0
 20 19  1  0
 21 19  1  0
 22 19  1  0
  5 23  1  0
  5 24  1  0
  5 25  1  0
  7 26  1  0
  8 27  1  0
 10 28  1  0
 11 29  1  0
 12 30  1  0
 12 31  1  0
 14 32  1  0
 15 33  1  0
 17 34  1  0
 18 35  1  0
M  END
>  <score>  (9) 
-8.297

$$$$
