=
     RDKit          3D

 88 92  0  0  0  0  0  0  0  0999 V2000
    2.2070   64.2230   70.5130 C   0  0  0  0  0  0  0  0  0  0  0  0
    2.4420   62.7930   70.0190 C   0  0  0  0  0  0  0  0  0  0  0  0
    3.8720   62.5280   69.5530 C   0  0  0  0  0  0  0  0  0  0  0  0
    4.8100   62.5360   70.7120 N   0  0  0  0  0  4  0  0  0  0  0  0
    5.4850   61.2380   71.0230 C   0  0  0  0  0  0  0  0  0  0  0  0
    5.3770   60.8750   72.5090 C   0  0  0  0  0  0  0  0  0  0  0  0
   -0.1640   62.6760   73.9940 C   0  0  0  0  0  0  0  0  0  0  0  0
    1.2330   62.6210   73.9280 C   0  0  0  0  0  0  0  0  0  0  0  0
    1.8880   61.5180   73.3840 C   0  0  0  0  0  0  0  0  0  0  0  0
    3.2540   61.5970   73.3530 O   0  0  0  0  0  0  0  0  0  0  0  0
    3.9780   60.4020   72.9950 C   0  0  2  0  0  0  0  0  0  0  0  0
    4.1820   59.5520   74.2630 C   0  0  0  0  0  0  0  0  0  0  0  0
    3.2610   59.6120   71.8840 C   0  0  0  0  0  0  0  0  0  0  0  0
    1.8410   59.2470   72.2930 C   0  0  0  0  0  0  0  0  0  0  0  0
    1.1550   60.4440   72.8800 C   0  0  0  0  0  0  0  0  0  0  0  0
   -0.2440   60.4830   72.9580 C   0  0  0  0  0  0  0  0  0  0  0  0
   -0.9000   61.5930   73.5050 C   0  0  0  0  0  0  0  0  0  0  0  0
    0.3220   64.6990   75.1780 C   0  0  0  0  0  0  0  0  0  0  0  0
   -0.6210   63.8410   74.5470 O   0  0  0  0  0  0  0  0  0  0  0  0
   -2.2650   61.5920   73.5320 O   0  0  0  0  0  0  0  0  0  0  0  0
    0.7230   64.5880   70.6440 C   0  0  0  0  0  0  0  0  0  0  0  0
    0.3810   66.0800   70.5480 C   0  0  0  0  0  0  0  0  0  0  0  0
    1.2410   66.8370   69.5320 C   0  0  0  0  0  0  0  0  0  0  0  0
    0.4380   67.3920   68.3510 C   0  0  0  0  0  0  0  0  0  0  0  0
    1.2810   67.6280   67.0950 C   0  0  0  0  0  0  0  0  0  0  0  0
    1.6110   69.0540   66.9160 N   0  0  0  0  0  0  0  0  0  0  0  0
    2.8750   69.2780   66.2920 C   0  0  0  0  0  0  0  0  0  0  0  0
    3.0810   69.0010   64.9240 C   0  0  0  0  0  0  0  0  0  0  0  0
    1.9630   68.5450   64.0150 C   0  0  0  0  0  0  0  0  0  0  0  0
    2.2800   68.6700   62.5240 C   0  0  0  0  0  0  0  0  0  0  0  0
    3.6550   68.0910   62.2320 C   0  0  0  0  0  0  0  0  0  0  0  0
    4.7170   68.8870   62.9790 C   0  0  0  0  0  0  0  0  0  0  0  0
    4.3840   69.1260   64.4310 C   0  0  0  0  0  0  0  0  0  0  0  0
    5.4320   69.5240   65.1910 N   0  0  0  0  0  0  0  0  0  0  0  0
    5.2260   69.8380   66.4750 C   0  0  0  0  0  0  0  0  0  0  0  0
    3.9600   69.7430   67.0840 C   0  0  0  0  0  0  0  0  0  0  0  0
    3.8280   70.1320   68.4390 C   0  0  0  0  0  0  0  0  0  0  0  0
    4.9260   70.5720   69.1750 C   0  0  0  0  0  0  0  0  0  0  0  0
    6.1680   70.6350   68.5600 C   0  0  0  0  0  0  0  0  0  0  0  0
    6.3090   70.2740   67.2230 C   0  0  0  0  0  0  0  0  0  0  0  0
    7.5360   71.1650   69.4580 Cl  0  0  0  0  0  0  0  0  0  0  0  0
    2.6812   64.3331   71.4994 H   0  0  0  0  0  0  0  0  0  0  0  0
    2.6422   64.9003   69.7634 H   0  0  0  0  0  0  0  0  0  0  0  0
    2.2114   62.0999   70.8414 H   0  0  0  0  0  0  0  0  0  0  0  0
    1.7885   62.6444   69.1467 H   0  0  0  0  0  0  0  0  0  0  0  0
    3.9155   61.5461   69.0592 H   0  0  0  0  0  0  0  0  0  0  0  0
    4.1691   63.3201   68.8500 H   0  0  0  0  0  0  0  0  0  0  0  0
    5.5431   63.2332   70.5184 H   0  0  0  0  0  0  0  0  0  0  0  0
    4.2294   62.7495   71.5355 H   0  0  0  0  0  0  0  0  0  0  0  0
    5.0143   60.4416   70.4279 H   0  0  0  0  0  0  0  0  0  0  0  0
    6.5518   61.3424   70.7758 H   0  0  0  0  0  0  0  0  0  0  0  0
    6.0946   60.0661   72.7109 H   0  0  0  0  0  0  0  0  0  0  0  0
    5.5823   61.8061   73.0575 H   0  0  0  0  0  0  0  0  0  0  0  0
    1.8250   63.4644   74.3128 H   0  0  0  0  0  0  0  0  0  0  0  0
    4.0313   60.1799   75.1535 H   0  0  0  0  0  0  0  0  0  0  0  0
    3.4569   58.7249   74.2706 H   0  0  0  0  0  0  0  0  0  0  0  0
    5.2035   59.1441   74.2706 H   0  0  0  0  0  0  0  0  0  0  0  0
    3.2245   60.2276   70.9731 H   0  0  0  0  0  0  0  0  0  0  0  0
    3.8201   58.6821   71.7032 H   0  0  0  0  0  0  0  0  0  0  0  0
    1.2835   58.9043   71.4088 H   0  0  0  0  0  0  0  0  0  0  0  0
    1.8757   58.4448   73.0448 H   0  0  0  0  0  0  0  0  0  0  0  0
   -0.8333   59.6322   72.5854 H   0  0  0  0  0  0  0  0  0  0  0  0
    0.2248   64.6106   76.2701 H   0  0  0  0  0  0  0  0  0  0  0  0
    1.3396   64.4106   74.8759 H   0  0  0  0  0  0  0  0  0  0  0  0
    0.1308   65.7393   74.8759 H   0  0  0  0  0  0  0  0  0  0  0  0
   -2.7531   62.3643   73.9132 H   0  0  0  0  0  0  0  0  0  0  0  0
    0.1774   64.0666   69.8438 H   0  0  0  0  0  0  0  0  0  0  0  0
    0.4343   64.2850   71.6613 H   0  0  0  0  0  0  0  0  0  0  0  0
   -0.6742   66.1775   70.2530 H   0  0  0  0  0  0  0  0  0  0  0  0
    0.5794   66.5228   71.5352 H   0  0  0  0  0  0  0  0  0  0  0  0
    1.7308   67.6769   70.0464 H   0  0  0  0  0  0  0  0  0  0  0  0
    1.9681   66.1201   69.1229 H   0  0  0  0  0  0  0  0  0  0  0  0
   -0.3596   66.6755   68.1052 H   0  0  0  0  0  0  0  0  0  0  0  0
    0.0404   68.3695   68.6616 H   0  0  0  0  0  0  0  0  0  0  0  0
    2.2157   67.0544   67.1807 H   0  0  0  0  0  0  0  0  0  0  0  0
    0.6946   67.3011   66.2236 H   0  0  0  0  0  0  0  0  0  0  0  0
    0.9872   69.8176   67.2137 H   0  0  0  0  0  0  0  0  0  0  0  0
    1.7479   67.4889   64.2351 H   0  0  0  0  0  0  0  0  0  0  0  0
    1.1046   69.2037   64.2130 H   0  0  0  0  0  0  0  0  0  0  0  0
    1.5235   68.1212   61.9439 H   0  0  0  0  0  0  0  0  0  0  0  0
    2.2696   69.7331   62.2416 H   0  0  0  0  0  0  0  0  0  0  0  0
    3.6868   67.0415   62.5599 H   0  0  0  0  0  0  0  0  0  0  0  0
    3.8514   68.1468   61.1511 H   0  0  0  0  0  0  0  0  0  0  0  0
    5.6666   68.3343   62.9266 H   0  0  0  0  0  0  0  0  0  0  0  0
    4.7793   69.8734   62.4962 H   0  0  0  0  0  0  0  0  0  0  0  0
    2.8397   70.0859   68.9197 H   0  0  0  0  0  0  0  0  0  0  0  0
    4.8098   70.8653   70.2288 H   0  0  0  0  0  0  0  0  0  0  0  0
    7.3002   70.3359   66.7501 H   0  0  0  0  0  0  0  0  0  0  0  0
  2  1  1  0
  3  2  1  0
  4  3  1  0
  5  4  1  0
  6  5  1  0
  8  7  2  0
  9  8  1  0
 10  9  1  0
 11 10  1  0
 11  6  1  6
 12 11  1  0
 13 11  1  0
 14 13  1  0
 15 14  1  0
 15  9  2  0
 16 15  1  0
 17 16  2  0
 17  7  1  0
 19 18  1  0
 19  7  1  0
 20 17  1  0
 21  1  1  0
 22 21  1  0
 23 22  1  0
 24 23  1  0
 25 24  1  0
 26 25  1  0
 27 26  1  0
 28 27  1  0
 29 28  1  0
 30 29  1  0
 31 30  1  0
 32 31  1  0
 33 32  1  0
 33 28  2  0
 34 33  1  0
 35 34  2  0
 36 35  1  0
 36 27  2  0
 37 36  1  0
 38 37  2  0
 39 38  1  0
 40 35  1  0
 40 39  2  0
 41 39  1  0
  1 42  1  0
  1 43  1  0
  2 44  1  0
  2 45  1  0
  3 46  1  0
  3 47  1  0
  4 48  1  0
  4 49  1  0
  5 50  1  0
  5 51  1  0
  6 52  1  0
  6 53  1  0
  8 54  1  0
 12 55  1  0
 12 56  1  0
 12 57  1  0
 13 58  1  0
 13 59  1  0
 14 60  1  0
 14 61  1  0
 16 62  1  0
 18 63  1  0
 18 64  1  0
 18 65  1  0
 20 66  1  0
 21 67  1  0
 21 68  1  0
 22 69  1  0
 22 70  1  0
 23 71  1  0
 23 72  1  0
 24 73  1  0
 24 74  1  0
 25 75  1  0
 25 76  1  0
 26 77  1  0
 29 78  1  0
 29 79  1  0
 30 80  1  0
 30 81  1  0
 31 82  1  0
 31 83  1  0
 32 84  1  0
 32 85  1  0
 37 86  1  0
 38 87  1  0
 40 88  1  0
M  CHG  1   4   1
M  END
>  <score>  (1) 
-11.848

$$$$
=
     RDKit          3D

 88 92  0  0  0  0  0  0  0  0999 V2000
    0.3650   63.7260   71.8020 C   0  0  0  0  0  0  0  0  0  0  0  0
    1.0150   63.5220   73.1740 C   0  0  0  0  0  0  0  0  0  0  0  0
    0.0140   63.2660   74.2980 C   0  0  0  0  0  0  0  0  0  0  0  0
   -1.0460   62.3180   73.8500 N   0  0  0  0  0  4  0  0  0  0  0  0
   -1.2990   61.1430   74.7390 C   0  0  0  0  0  0  0  0  0  0  0  0
   -1.0310   59.8120   74.0250 C   0  0  0  0  0  0  0  0  0  0  0  0
    3.8560   60.9830   70.7230 C   0  0  0  0  0  0  0  0  0  0  0  0
    2.5270   60.7030   71.0610 C   0  0  0  0  0  0  0  0  0  0  0  0
    2.1790   60.2900   72.3460 C   0  0  0  0  0  0  0  0  0  0  0  0
    0.8450   60.0730   72.5570 O   0  0  0  0  0  0  0  0  0  0  0  0
    0.4640   59.4490   73.8000 C   0  0  2  0  0  0  0  0  0  0  0  0
    0.5580   57.9210   73.6330 C   0  0  0  0  0  0  0  0  0  0  0  0
    1.3220   59.9510   74.9760 C   0  0  0  0  0  0  0  0  0  0  0  0
    2.8050   59.7170   74.7190 C   0  0  0  0  0  0  0  0  0  0  0  0
    3.1580   60.1610   73.3310 C   0  0  0  0  0  0  0  0  0  0  0  0
    4.4930   60.4230   72.9970 C   0  0  0  0  0  0  0  0  0  0  0  0
    4.8400   60.8380   71.7050 C   0  0  0  0  0  0  0  0  0  0  0  0
    3.8550   62.7690   69.1290 C   0  0  0  0  0  0  0  0  0  0  0  0
    3.9960   61.3840   69.4220 O   0  0  0  0  0  0  0  0  0  0  0  0
    6.1530   61.1060   71.4390 O   0  0  0  0  0  0  0  0  0  0  0  0
    1.1550   64.6690   70.8870 C   0  0  0  0  0  0  0  0  0  0  0  0
    0.3890   65.8780   70.3360 C   0  0  0  0  0  0  0  0  0  0  0  0
    1.2660   66.8370   69.5270 C   0  0  0  0  0  0  0  0  0  0  0  0
    0.5520   67.4300   68.3070 C   0  0  0  0  0  0  0  0  0  0  0  0
    1.4580   67.5890   67.0840 C   0  0  0  0  0  0  0  0  0  0  0  0
    1.6610   69.0070   66.7340 N   0  0  0  0  0  0  0  0  0  0  0  0
    2.9200   69.2710   66.1120 C   0  0  0  0  0  0  0  0  0  0  0  0
    3.1320   69.0200   64.7400 C   0  0  0  0  0  0  0  0  0  0  0  0
    2.0250   68.5500   63.8250 C   0  0  0  0  0  0  0  0  0  0  0  0
    2.3380   68.7050   62.3360 C   0  0  0  0  0  0  0  0  0  0  0  0
    3.7260   68.1650   62.0350 C   0  0  0  0  0  0  0  0  0  0  0  0
    4.7690   68.9760   62.7940 C   0  0  0  0  0  0  0  0  0  0  0  0
    4.4300   69.1850   64.2490 C   0  0  0  0  0  0  0  0  0  0  0  0
    5.4680   69.5970   65.0150 N   0  0  0  0  0  0  0  0  0  0  0  0
    5.2560   69.8870   66.3040 C   0  0  0  0  0  0  0  0  0  0  0  0
    3.9930   69.7510   66.9110 C   0  0  0  0  0  0  0  0  0  0  0  0
    3.8520   70.1160   68.2720 C   0  0  0  0  0  0  0  0  0  0  0  0
    4.9390   70.5720   69.0140 C   0  0  0  0  0  0  0  0  0  0  0  0
    6.1790   70.6750   68.4000 C   0  0  0  0  0  0  0  0  0  0  0  0
    6.3290   70.3380   67.0580 C   0  0  0  0  0  0  0  0  0  0  0  0
    7.5340   71.2260   69.3050 Cl  0  0  0  0  0  0  0  0  0  0  0  0
    0.2827   62.7474   71.3064 H   0  0  0  0  0  0  0  0  0  0  0  0
   -0.6177   64.1893   71.9744 H   0  0  0  0  0  0  0  0  0  0  0  0
    1.6941   62.6590   73.1112 H   0  0  0  0  0  0  0  0  0  0  0  0
    1.5421   64.4554   73.4208 H   0  0  0  0  0  0  0  0  0  0  0  0
    0.5423   62.8359   75.1617 H   0  0  0  0  0  0  0  0  0  0  0  0
   -0.4577   64.2197   74.5772 H   0  0  0  0  0  0  0  0  0  0  0  0
   -1.9265   62.8464   73.7692 H   0  0  0  0  0  0  0  0  0  0  0  0
   -0.7054   61.9234   72.9616 H   0  0  0  0  0  0  0  0  0  0  0  0
   -0.6399   61.2138   75.6168 H   0  0  0  0  0  0  0  0  0  0  0  0
   -2.3587   61.1625   75.0335 H   0  0  0  0  0  0  0  0  0  0  0  0
   -1.4854   59.0103   74.6256 H   0  0  0  0  0  0  0  0  0  0  0  0
   -1.4644   59.9218   73.0199 H   0  0  0  0  0  0  0  0  0  0  0  0
    1.7421   60.8109   70.2979 H   0  0  0  0  0  0  0  0  0  0  0  0
    0.5873   57.4449   74.6242 H   0  0  0  0  0  0  0  0  0  0  0  0
   -0.3195   57.5582   73.0777 H   0  0  0  0  0  0  0  0  0  0  0  0
    1.4734   57.6685   73.0777 H   0  0  0  0  0  0  0  0  0  0  0  0
    1.1477   61.0285   75.1123 H   0  0  0  0  0  0  0  0  0  0  0  0
    1.0339   59.3927   75.8789 H   0  0  0  0  0  0  0  0  0  0  0  0
    3.3965   60.2912   75.4473 H   0  0  0  0  0  0  0  0  0  0  0  0
    3.0262   58.6446   74.8237 H   0  0  0  0  0  0  0  0  0  0  0  0
    5.2778   60.3014   73.7581 H   0  0  0  0  0  0  0  0  0  0  0  0
    3.7970   63.3385   70.0683 H   0  0  0  0  0  0  0  0  0  0  0  0
    4.7230   63.1107   68.5461 H   0  0  0  0  0  0  0  0  0  0  0  0
    2.9359   62.9288   68.5461 H   0  0  0  0  0  0  0  0  0  0  0  0
    6.4245   61.4009   70.5338 H   0  0  0  0  0  0  0  0  0  0  0  0
    2.0148   65.0487   71.4585 H   0  0  0  0  0  0  0  0  0  0  0  0
    1.4259   64.0667   70.0073 H   0  0  0  0  0  0  0  0  0  0  0  0
   -0.4190   65.5118   69.6855 H   0  0  0  0  0  0  0  0  0  0  0  0
    0.0051   66.4401   71.2001 H   0  0  0  0  0  0  0  0  0  0  0  0
    1.5785   67.6623   70.1837 H   0  0  0  0  0  0  0  0  0  0  0  0
    2.1227   66.2573   69.1528 H   0  0  0  0  0  0  0  0  0  0  0  0
   -0.2835   66.7674   68.0370 H   0  0  0  0  0  0  0  0  0  0  0  0
    0.2126   68.4373   68.5901 H   0  0  0  0  0  0  0  0  0  0  0  0
    2.4348   67.1328   67.3027 H   0  0  0  0  0  0  0  0  0  0  0  0
    0.9719   67.0924   66.2313 H   0  0  0  0  0  0  0  0  0  0  0  0
    0.9606   69.7388   66.9205 H   0  0  0  0  0  0  0  0  0  0  0  0
    1.8362   67.4858   64.0294 H   0  0  0  0  0  0  0  0  0  0  0  0
    1.1505   69.1840   64.0331 H   0  0  0  0  0  0  0  0  0  0  0  0
    1.5949   68.1464   61.7480 H   0  0  0  0  0  0  0  0  0  0  0  0
    2.3012   69.7716   62.0696 H   0  0  0  0  0  0  0  0  0  0  0  0
    3.7840   67.1117   62.3469 H   0  0  0  0  0  0  0  0  0  0  0  0
    3.9202   68.2420   60.9550 H   0  0  0  0  0  0  0  0  0  0  0  0
    5.7318   68.4475   62.7337 H   0  0  0  0  0  0  0  0  0  0  0  0
    4.8076   69.9706   62.3257 H   0  0  0  0  0  0  0  0  0  0  0  0
    2.8655   70.0379   68.7522 H   0  0  0  0  0  0  0  0  0  0  0  0
    4.8161   70.8466   70.0720 H   0  0  0  0  0  0  0  0  0  0  0  0
    7.3182   70.4312   66.5861 H   0  0  0  0  0  0  0  0  0  0  0  0
  2  1  1  0
  3  2  1  0
  4  3  1  0
  5  4  1  0
  6  5  1  0
  8  7  2  0
  9  8  1  0
 10  9  1  0
 11 10  1  0
 11  6  1  1
 12 11  1  0
 13 11  1  0
 14 13  1  0
 15 14  1  0
 15  9  2  0
 16 15  1  0
 17 16  2  0
 17  7  1  0
 19 18  1  0
 19  7  1  0
 20 17  1  0
 21  1  1  0
 22 21  1  0
 23 22  1  0
 24 23  1  0
 25 24  1  0
 26 25  1  0
 27 26  1  0
 28 27  1  0
 29 28  1  0
 30 29  1  0
 31 30  1  0
 32 31  1  0
 33 32  1  0
 33 28  2  0
 34 33  1  0
 35 34  2  0
 36 35  1  0
 36 27  2  0
 37 36  1  0
 38 37  2  0
 39 38  1  0
 40 35  1  0
 40 39  2  0
 41 39  1  0
  1 42  1  0
  1 43  1  0
  2 44  1  0
  2 45  1  0
  3 46  1  0
  3 47  1  0
  4 48  1  0
  4 49  1  0
  5 50  1  0
  5 51  1  0
  6 52  1  0
  6 53  1  0
  8 54  1  0
 12 55  1  0
 12 56  1  0
 12 57  1  0
 13 58  1  0
 13 59  1  0
 14 60  1  0
 14 61  1  0
 16 62  1  0
 18 63  1  0
 18 64  1  0
 18 65  1  0
 20 66  1  0
 21 67  1  0
 21 68  1  0
 22 69  1  0
 22 70  1  0
 23 71  1  0
 23 72  1  0
 24 73  1  0
 24 74  1  0
 25 75  1  0
 25 76  1  0
 26 77  1  0
 29 78  1  0
 29 79  1  0
 30 80  1  0
 30 81  1  0
 31 82  1  0
 31 83  1  0
 32 84  1  0
 32 85  1  0
 37 86  1  0
 38 87  1  0
 40 88  1  0
M  CHG  1   4   1
M  END
>  <score>  (2) 
-11.452

$$$$
=
     RDKit          3D

 88 92  0  0  0  0  0  0  0  0999 V2000
    1.9890   63.4060   70.3370 C   0  0  0  0  0  0  0  0  0  0  0  0
    3.1330   62.5750   69.7490 C   0  0  0  0  0  0  0  0  0  0  0  0
    4.5220   63.0860   70.1230 C   0  0  0  0  0  0  0  0  0  0  0  0
    4.9930   62.4480   71.3860 N   0  0  0  0  0  4  0  0  0  0  0  0
    5.2540   60.9770   71.3250 C   0  0  0  0  0  0  0  0  0  0  0  0
    4.6800   60.2390   72.5400 C   0  0  0  0  0  0  0  0  0  0  0  0
    0.8140   56.0900   74.5400 C   0  0  0  0  0  0  0  0  0  0  0  0
    1.9980   56.6800   74.0840 C   0  0  0  0  0  0  0  0  0  0  0  0
    2.0010   57.9550   73.5210 C   0  0  0  0  0  0  0  0  0  0  0  0
    3.2260   58.4300   73.1380 O   0  0  0  0  0  0  0  0  0  0  0  0
    3.2520   59.6480   72.3660 C   0  0  2  0  0  0  0  0  0  0  0  0
    3.0650   59.2930   70.8800 C   0  0  0  0  0  0  0  0  0  0  0  0
    2.1920   60.6540   72.8530 C   0  0  0  0  0  0  0  0  0  0  0  0
    0.7950   60.0500   72.8090 C   0  0  0  0  0  0  0  0  0  0  0  0
    0.8140   58.6780   73.4140 C   0  0  0  0  0  0  0  0  0  0  0  0
   -0.3800   58.0880   73.8520 C   0  0  0  0  0  0  0  0  0  0  0  0
   -0.3800   56.8070   74.4170 C   0  0  0  0  0  0  0  0  0  0  0  0
    0.8080   53.7160   74.2300 C   0  0  0  0  0  0  0  0  0  0  0  0
    1.0150   54.8450   75.0700 O   0  0  0  0  0  0  0  0  0  0  0  0
   -1.5660   56.2890   74.8530 O   0  0  0  0  0  0  0  0  0  0  0  0
    2.2500   64.9170   70.3020 C   0  0  0  0  0  0  0  0  0  0  0  0
    1.0130   65.8170   70.2100 C   0  0  0  0  0  0  0  0  0  0  0  0
    1.2950   67.1760   69.5630 C   0  0  0  0  0  0  0  0  0  0  0  0
    0.5250   67.3970   68.2570 C   0  0  0  0  0  0  0  0  0  0  0  0
    1.4290   67.5760   67.0350 C   0  0  0  0  0  0  0  0  0  0  0  0
    1.6480   68.9980   66.7180 N   0  0  0  0  0  0  0  0  0  0  0  0
    2.9080   69.2630   66.1010 C   0  0  0  0  0  0  0  0  0  0  0  0
    3.1240   69.0150   64.7280 C   0  0  0  0  0  0  0  0  0  0  0  0
    2.0190   68.5490   63.8090 C   0  0  0  0  0  0  0  0  0  0  0  0
    2.3360   68.7060   62.3210 C   0  0  0  0  0  0  0  0  0  0  0  0
    3.7250   68.1650   62.0230 C   0  0  0  0  0  0  0  0  0  0  0  0
    4.7660   68.9730   62.7860 C   0  0  0  0  0  0  0  0  0  0  0  0
    4.4240   69.1790   64.2410 C   0  0  0  0  0  0  0  0  0  0  0  0
    5.4610   69.5880   65.0110 N   0  0  0  0  0  0  0  0  0  0  0  0
    5.2450   69.8750   66.3000 C   0  0  0  0  0  0  0  0  0  0  0  0
    3.9800   69.7390   66.9040 C   0  0  0  0  0  0  0  0  0  0  0  0
    3.8360   70.1010   68.2640 C   0  0  0  0  0  0  0  0  0  0  0  0
    4.9220   70.5540   69.0110 C   0  0  0  0  0  0  0  0  0  0  0  0
    6.1630   70.6570   68.4000 C   0  0  0  0  0  0  0  0  0  0  0  0
    6.3160   70.3220   67.0580 C   0  0  0  0  0  0  0  0  0  0  0  0
    7.5170   71.2030   69.3100 Cl  0  0  0  0  0  0  0  0  0  0  0  0
    1.0752   63.1970   69.7614 H   0  0  0  0  0  0  0  0  0  0  0  0
    1.8907   63.1189   71.3943 H   0  0  0  0  0  0  0  0  0  0  0  0
    3.0339   61.5419   70.1135 H   0  0  0  0  0  0  0  0  0  0  0  0
    3.0500   62.6455   68.6544 H   0  0  0  0  0  0  0  0  0  0  0  0
    5.2259   62.8462   69.3124 H   0  0  0  0  0  0  0  0  0  0  0  0
    4.4711   64.1746   70.2729 H   0  0  0  0  0  0  0  0  0  0  0  0
    5.8698   62.9115   71.6642 H   0  0  0  0  0  0  0  0  0  0  0  0
    4.2208   62.5633   72.0578 H   0  0  0  0  0  0  0  0  0  0  0  0
    4.7913   60.5721   70.4129 H   0  0  0  0  0  0  0  0  0  0  0  0
    6.3436   60.8260   71.3204 H   0  0  0  0  0  0  0  0  0  0  0  0
    5.3605   59.4094   72.7823 H   0  0  0  0  0  0  0  0  0  0  0  0
    4.5932   60.9960   73.3333 H   0  0  0  0  0  0  0  0  0  0  0  0
    2.9448   56.1268   74.1716 H   0  0  0  0  0  0  0  0  0  0  0  0
    2.5538   58.3226   70.7964 H   0  0  0  0  0  0  0  0  0  0  0  0
    2.4591   60.0699   70.3908 H   0  0  0  0  0  0  0  0  0  0  0  0
    4.0484   59.2328   70.3908 H   0  0  0  0  0  0  0  0  0  0  0  0
    2.4238   60.9460   73.8879 H   0  0  0  0  0  0  0  0  0  0  0  0
    2.2128   61.5298   72.1878 H   0  0  0  0  0  0  0  0  0  0  0  0
    0.1029   60.6895   73.3765 H   0  0  0  0  0  0  0  0  0  0  0  0
    0.4629   59.9803   71.7627 H   0  0  0  0  0  0  0  0  0  0  0  0
   -1.3274   58.6377   73.7506 H   0  0  0  0  0  0  0  0  0  0  0  0
    0.6442   52.8225   74.8504 H   0  0  0  0  0  0  0  0  0  0  0  0
   -0.0736   53.8881   73.5950 H   0  0  0  0  0  0  0  0  0  0  0  0
    1.6933   53.5642   73.5950 H   0  0  0  0  0  0  0  0  0  0  0  0
   -1.5930   55.3853   75.2563 H   0  0  0  0  0  0  0  0  0  0  0  0
    2.7920   65.1850   71.2209 H   0  0  0  0  0  0  0  0  0  0  0  0
    2.8132   65.0963   69.3743 H   0  0  0  0  0  0  0  0  0  0  0  0
    0.2485   65.2986   69.6126 H   0  0  0  0  0  0  0  0  0  0  0  0
    0.6762   66.0114   71.2390 H   0  0  0  0  0  0  0  0  0  0  0  0
    1.0115   67.9665   70.2735 H   0  0  0  0  0  0  0  0  0  0  0  0
    2.3670   67.2039   69.3179 H   0  0  0  0  0  0  0  0  0  0  0  0
   -0.1243   66.5260   68.0845 H   0  0  0  0  0  0  0  0  0  0  0  0
   -0.0473   68.3291   68.3739 H   0  0  0  0  0  0  0  0  0  0  0  0
    2.4010   67.1033   67.2393 H   0  0  0  0  0  0  0  0  0  0  0  0
    0.9335   67.1065   66.1724 H   0  0  0  0  0  0  0  0  0  0  0  0
    0.9561   69.7330   66.9226 H   0  0  0  0  0  0  0  0  0  0  0  0
    1.8276   67.4848   64.0109 H   0  0  0  0  0  0  0  0  0  0  0  0
    1.1454   69.1847   64.0158 H   0  0  0  0  0  0  0  0  0  0  0  0
    1.5940   68.1488   61.7302 H   0  0  0  0  0  0  0  0  0  0  0  0
    2.3007   69.7730   62.0559 H   0  0  0  0  0  0  0  0  0  0  0  0
    3.7811   67.1111   62.3331 H   0  0  0  0  0  0  0  0  0  0  0  0
    3.9225   68.2439   60.9437 H   0  0  0  0  0  0  0  0  0  0  0  0
    5.7286   68.4440   62.7267 H   0  0  0  0  0  0  0  0  0  0  0  0
    4.8061   69.9687   62.3202 H   0  0  0  0  0  0  0  0  0  0  0  0
    2.8479   70.0235   68.7411 H   0  0  0  0  0  0  0  0  0  0  0  0
    4.7968   70.8258   70.0695 H   0  0  0  0  0  0  0  0  0  0  0  0
    7.3069   70.4138   66.5893 H   0  0  0  0  0  0  0  0  0  0  0  0
  2  1  1  0
  3  2  1  0
  4  3  1  0
  5  4  1  0
  6  5  1  0
  8  7  2  0
  9  8  1  0
 10  9  1  0
 11 10  1  0
 11  6  1  6
 12 11  1  0
 13 11  1  0
 14 13  1  0
 15 14  1  0
 15  9  2  0
 16 15  1  0
 17 16  2  0
 17  7  1  0
 19 18  1  0
 19  7  1  0
 20 17  1  0
 21  1  1  0
 22 21  1  0
 23 22  1  0
 24 23  1  0
 25 24  1  0
 26 25  1  0
 27 26  1  0
 28 27  1  0
 29 28  1  0
 30 29  1  0
 31 30  1  0
 32 31  1  0
 33 32  1  0
 33 28  2  0
 34 33  1  0
 35 34  2  0
 36 35  1  0
 36 27  2  0
 37 36  1  0
 38 37  2  0
 39 38  1  0
 40 35  1  0
 40 39  2  0
 41 39  1  0
  1 42  1  0
  1 43  1  0
  2 44  1  0
  2 45  1  0
  3 46  1  0
  3 47  1  0
  4 48  1  0
  4 49  1  0
  5 50  1  0
  5 51  1  0
  6 52  1  0
  6 53  1  0
  8 54  1  0
 12 55  1  0
 12 56  1  0
 12 57  1  0
 13 58  1  0
 13 59  1  0
 14 60  1  0
 14 61  1  0
 16 62  1  0
 18 63  1  0
 18 64  1  0
 18 65  1  0
 20 66  1  0
 21 67  1  0
 21 68  1  0
 22 69  1  0
 22 70  1  0
 23 71  1  0
 23 72  1  0
 24 73  1  0
 24 74  1  0
 25 75  1  0
 25 76  1  0
 26 77  1  0
 29 78  1  0
 29 79  1  0
 30 80  1  0
 30 81  1  0
 31 82  1  0
 31 83  1  0
 32 84  1  0
 32 85  1  0
 37 86  1  0
 38 87  1  0
 40 88  1  0
M  CHG  1   4   1
M  END
>  <score>  (3) 
-11.061

$$$$
=
     RDKit          3D

 88 92  0  0  0  0  0  0  0  0999 V2000
    1.4900   65.7630   70.2660 C   0  0  0  0  0  0  0  0  0  0  0  0
    0.3850   64.8140   70.7400 C   0  0  0  0  0  0  0  0  0  0  0  0
    0.7840   63.3400   70.7110 C   0  0  0  0  0  0  0  0  0  0  0  0
    1.9020   63.1190   69.7480 N   0  0  0  0  0  4  0  0  0  0  0  0
    3.2750   63.4330   70.2480 C   0  0  0  0  0  0  0  0  0  0  0  0
    4.2890   62.3480   69.8650 C   0  0  0  0  0  0  0  0  0  0  0  0
    1.2330   59.3690   74.1010 C   0  0  0  0  0  0  0  0  0  0  0  0
    1.9080   60.4020   73.4400 C   0  0  0  0  0  0  0  0  0  0  0  0
    2.6610   60.1560   72.2940 C   0  0  0  0  0  0  0  0  0  0  0  0
    3.2510   61.2530   71.7260 O   0  0  0  0  0  0  0  0  0  0  0  0
    4.2040   61.0190   70.6680 C   0  0  2  0  0  0  0  0  0  0  0  0
    5.5840   60.7580   71.2980 C   0  0  0  0  0  0  0  0  0  0  0  0
    3.7640   59.8640   69.7500 C   0  0  0  0  0  0  0  0  0  0  0  0
    3.5520   58.5800   70.5410 C   0  0  0  0  0  0  0  0  0  0  0  0
    2.7450   58.8660   71.7720 C   0  0  0  0  0  0  0  0  0  0  0  0
    2.0870   57.8220   72.4370 C   0  0  0  0  0  0  0  0  0  0  0  0
    1.3300   58.0720   73.5890 C   0  0  0  0  0  0  0  0  0  0  0  0
    0.8410   61.1000   75.7070 C   0  0  0  0  0  0  0  0  0  0  0  0
    0.5400   59.8080   75.1960 O   0  0  0  0  0  0  0  0  0  0  0  0
    0.6860   57.0250   74.1820 O   0  0  0  0  0  0  0  0  0  0  0  0
    0.9600   66.9900   69.5150 C   0  0  0  0  0  0  0  0  0  0  0  0
   -0.3810   66.8160   68.7930 C   0  0  0  0  0  0  0  0  0  0  0  0
   -0.5930   67.8150   67.6520 C   0  0  0  0  0  0  0  0  0  0  0  0
   -0.2640   67.2380   66.2720 C   0  0  0  0  0  0  0  0  0  0  0  0
    1.1860   67.4710   65.8390 C   0  0  0  0  0  0  0  0  0  0  0  0
    1.6910   68.7770   66.2980 N   0  0  0  0  0  0  0  0  0  0  0  0
    2.9460   69.1430   65.7210 C   0  0  0  0  0  0  0  0  0  0  0  0
    3.2060   68.9630   64.3460 C   0  0  0  0  0  0  0  0  0  0  0  0
    2.1530   68.4650   63.3840 C   0  0  0  0  0  0  0  0  0  0  0  0
    2.4920   68.7000   61.9110 C   0  0  0  0  0  0  0  0  0  0  0  0
    3.9180   68.2580   61.6260 C   0  0  0  0  0  0  0  0  0  0  0  0
    4.8900   69.0990   62.4450 C   0  0  0  0  0  0  0  0  0  0  0  0
    4.5040   69.2260   63.8970 C   0  0  0  0  0  0  0  0  0  0  0  0
    5.4950   69.6690   64.7070 N   0  0  0  0  0  0  0  0  0  0  0  0
    5.2340   69.8910   66.0000 C   0  0  0  0  0  0  0  0  0  0  0  0
    3.9670   69.6540   66.5670 C   0  0  0  0  0  0  0  0  0  0  0  0
    3.7710   69.9530   67.9370 C   0  0  0  0  0  0  0  0  0  0  0  0
    4.8100   70.4430   68.7260 C   0  0  0  0  0  0  0  0  0  0  0  0
    6.0550   70.6470   68.1500 C   0  0  0  0  0  0  0  0  0  0  0  0
    6.2580   70.3750   66.8000 C   0  0  0  0  0  0  0  0  0  0  0  0
    7.3510   71.2400   69.1120 Cl  0  0  0  0  0  0  0  0  0  0  0  0
    2.0530   66.1091   71.1454 H   0  0  0  0  0  0  0  0  0  0  0  0
    2.1210   65.2000   69.5625 H   0  0  0  0  0  0  0  0  0  0  0  0
    0.1183   65.0808   71.7733 H   0  0  0  0  0  0  0  0  0  0  0  0
   -0.4585   64.9313   70.0438 H   0  0  0  0  0  0  0  0  0  0  0  0
    1.1067   63.0327   71.7167 H   0  0  0  0  0  0  0  0  0  0  0  0
   -0.0832   62.7434   70.3916 H   0  0  0  0  0  0  0  0  0  0  0  0
    1.8874   62.1268   69.4718 H   0  0  0  0  0  0  0  0  0  0  0  0
    1.7333   63.7771   68.9738 H   0  0  0  0  0  0  0  0  0  0  0  0
    3.5998   64.3909   69.8156 H   0  0  0  0  0  0  0  0  0  0  0  0
    3.2326   63.4855   71.3459 H   0  0  0  0  0  0  0  0  0  0  0  0
    4.1397   62.1085   68.8018 H   0  0  0  0  0  0  0  0  0  0  0  0
    5.2772   62.7714   70.0976 H   0  0  0  0  0  0  0  0  0  0  0  0
    1.8426   61.4274   73.8329 H   0  0  0  0  0  0  0  0  0  0  0  0
    5.4957   60.7747   72.3943 H   0  0  0  0  0  0  0  0  0  0  0  0
    5.9543   59.7739   70.9749 H   0  0  0  0  0  0  0  0  0  0  0  0
    6.2882   61.5389   70.9749 H   0  0  0  0  0  0  0  0  0  0  0  0
    2.8215   60.1393   69.2540 H   0  0  0  0  0  0  0  0  0  0  0  0
    4.5568   59.6883   69.0079 H   0  0  0  0  0  0  0  0  0  0  0  0
    3.0168   57.8504   69.9154 H   0  0  0  0  0  0  0  0  0  0  0  0
    4.5296   58.1709   70.8359 H   0  0  0  0  0  0  0  0  0  0  0  0
    2.1659   56.7953   72.0501 H   0  0  0  0  0  0  0  0  0  0  0  0
    0.8341   61.0702   76.8066 H   0  0  0  0  0  0  0  0  0  0  0  0
    1.8356   61.4110   75.3549 H   0  0  0  0  0  0  0  0  0  0  0  0
    0.0862   61.8186   75.3549 H   0  0  0  0  0  0  0  0  0  0  0  0
    0.1444   57.1746   74.9971 H   0  0  0  0  0  0  0  0  0  0  0  0
    0.8450   67.8056   70.2441 H   0  0  0  0  0  0  0  0  0  0  0  0
    1.6964   67.1903   68.7228 H   0  0  0  0  0  0  0  0  0  0  0  0
   -0.4236   65.7984   68.3775 H   0  0  0  0  0  0  0  0  0  0  0  0
   -1.1738   66.9969   69.5337 H   0  0  0  0  0  0  0  0  0  0  0  0
   -1.6466   68.1310   67.6560 H   0  0  0  0  0  0  0  0  0  0  0  0
    0.0933   68.6571   67.8248 H   0  0  0  0  0  0  0  0  0  0  0  0
   -0.4499   66.1541   66.2951 H   0  0  0  0  0  0  0  0  0  0  0  0
   -0.9049   67.7575   65.5444 H   0  0  0  0  0  0  0  0  0  0  0  0
    1.8166   66.6761   66.2639 H   0  0  0  0  0  0  0  0  0  0  0  0
    1.2208   67.4581   64.7396 H   0  0  0  0  0  0  0  0  0  0  0  0
    1.1865   69.3706   66.9718 H   0  0  0  0  0  0  0  0  0  0  0  0
    2.0253   67.3838   63.5409 H   0  0  0  0  0  0  0  0  0  0  0  0
    1.2363   69.0357   63.5936 H   0  0  0  0  0  0  0  0  0  0  0  0
    1.7993   68.1220   61.2816 H   0  0  0  0  0  0  0  0  0  0  0  0
    2.3959   69.7725   61.6862 H   0  0  0  0  0  0  0  0  0  0  0  0
    4.0334   67.1982   61.8970 H   0  0  0  0  0  0  0  0  0  0  0  0
    4.1336   68.3912   60.5556 H   0  0  0  0  0  0  0  0  0  0  0  0
    5.8850   68.6333   62.3892 H   0  0  0  0  0  0  0  0  0  0  0  0
    4.8777   70.1128   62.0183 H   0  0  0  0  0  0  0  0  0  0  0  0
    2.7798   69.7955   68.3872 H   0  0  0  0  0  0  0  0  0  0  0  0
    4.6449   70.6648   69.7907 H   0  0  0  0  0  0  0  0  0  0  0  0
    7.2508   70.5475   66.3589 H   0  0  0  0  0  0  0  0  0  0  0  0
  2  1  1  0
  3  2  1  0
  4  3  1  0
  5  4  1  0
  6  5  1  0
  8  7  2  0
  9  8  1  0
 10  9  1  0
 11 10  1  0
 11  6  1  6
 12 11  1  0
 13 11  1  0
 14 13  1  0
 15 14  1  0
 15  9  2  0
 16 15  1  0
 17 16  2  0
 17  7  1  0
 19 18  1  0
 19  7  1  0
 20 17  1  0
 21  1  1  0
 22 21  1  0
 23 22  1  0
 24 23  1  0
 25 24  1  0
 26 25  1  0
 27 26  1  0
 28 27  1  0
 29 28  1  0
 30 29  1  0
 31 30  1  0
 32 31  1  0
 33 32  1  0
 33 28  2  0
 34 33  1  0
 35 34  2  0
 36 35  1  0
 36 27  2  0
 37 36  1  0
 38 37  2  0
 39 38  1  0
 40 35  1  0
 40 39  2  0
 41 39  1  0
  1 42  1  0
  1 43  1  0
  2 44  1  0
  2 45  1  0
  3 46  1  0
  3 47  1  0
  4 48  1  0
  4 49  1  0
  5 50  1  0
  5 51  1  0
  6 52  1  0
  6 53  1  0
  8 54  1  0
 12 55  1  0
 12 56  1  0
 12 57  1  0
 13 58  1  0
 13 59  1  0
 14 60  1  0
 14 61  1  0
 16 62  1  0
 18 63  1  0
 18 64  1  0
 18 65  1  0
 20 66  1  0
 21 67  1  0
 21 68  1  0
 22 69  1  0
 22 70  1  0
 23 71  1  0
 23 72  1  0
 24 73  1  0
 24 74  1  0
 25 75  1  0
 25 76  1  0
 26 77  1  0
 29 78  1  0
 29 79  1  0
 30 80  1  0
 30 81  1  0
 31 82  1  0
 31 83  1  0
 32 84  1  0
 32 85  1  0
 37 86  1  0
 38 87  1  0
 40 88  1  0
M  CHG  1   4   1
M  END
>  <score>  (4) 
-10.703

$$$$
=
     RDKit          3D

 88 92  0  0  0  0  0  0  0  0999 V2000
    4.6560   64.4020   63.8520 C   0  0  0  0  0  0  0  0  0  0  0  0
    3.8570   63.4690   64.7670 C   0  0  0  0  0  0  0  0  0  0  0  0
    3.7380   63.9700   66.2050 C   0  0  0  0  0  0  0  0  0  0  0  0
    3.6700   62.8220   67.1550 N   0  0  0  0  0  4  0  0  0  0  0  0
    3.9600   63.1350   68.5880 C   0  0  0  0  0  0  0  0  0  0  0  0
    2.8350   62.6630   69.5180 C   0  0  0  0  0  0  0  0  0  0  0  0
    0.6530   58.8980   73.6680 C   0  0  0  0  0  0  0  0  0  0  0  0
    0.9370   60.0830   72.9790 C   0  0  0  0  0  0  0  0  0  0  0  0
    1.8950   60.1190   71.9680 C   0  0  0  0  0  0  0  0  0  0  0  0
    2.0620   61.3310   71.3540 O   0  0  0  0  0  0  0  0  0  0  0  0
    3.1800   61.4680   70.4520 C   0  0  2  0  0  0  0  0  0  0  0  0
    4.4270   61.8520   71.2700 C   0  0  0  0  0  0  0  0  0  0  0  0
    3.4060   60.1880   69.6270 C   0  0  0  0  0  0  0  0  0  0  0  0
    3.6210   58.9800   70.5280 C   0  0  0  0  0  0  0  0  0  0  0  0
    2.5850   58.9610   71.6110 C   0  0  0  0  0  0  0  0  0  0  0  0
    2.3190   57.7740   72.3070 C   0  0  0  0  0  0  0  0  0  0  0  0
    1.3560   57.7390   73.3230 C   0  0  0  0  0  0  0  0  0  0  0  0
    0.0740   59.3920   75.9370 C   0  0  0  0  0  0  0  0  0  0  0  0
   -0.3230   59.0580   74.6130 O   0  0  0  0  0  0  0  0  0  0  0  0
    1.1160   56.5500   73.9510 O   0  0  0  0  0  0  0  0  0  0  0  0
    4.1560   65.8510   63.8710 C   0  0  0  0  0  0  0  0  0  0  0  0
    4.1960   66.5990   62.5330 C   0  0  0  0  0  0  0  0  0  0  0  0
    5.3280   67.6260   62.4420 C   0  0  0  0  0  0  0  0  0  0  0  0
    4.8470   69.0740   62.5830 C   0  0  0  0  0  0  0  0  0  0  0  0
    5.2480   69.7260   63.9080 C   0  0  0  0  0  0  0  0  0  0  0  0
    5.1780   68.7750   65.0310 N   0  0  0  0  0  0  0  0  0  0  0  0
    4.4350   69.2590   66.1510 C   0  0  0  0  0  0  0  0  0  0  0  0
    5.0720   69.8790   67.2460 C   0  0  0  0  0  0  0  0  0  0  0  0
    6.5570   70.1560   67.2660 C   0  0  0  0  0  0  0  0  0  0  0  0
    6.9920   71.1580   68.3360 C   0  0  0  0  0  0  0  0  0  0  0  0
    6.3620   70.8020   69.6720 C   0  0  0  0  0  0  0  0  0  0  0  0
    4.8450   70.8950   69.5670 C   0  0  0  0  0  0  0  0  0  0  0  0
    4.2800   70.2020   68.3530 C   0  0  0  0  0  0  0  0  0  0  0  0
    2.9460   69.9760   68.4030 N   0  0  0  0  0  0  0  0  0  0  0  0
    2.3330   69.4370   67.3440 C   0  0  0  0  0  0  0  0  0  0  0  0
    3.0270   69.0630   66.1770 C   0  0  0  0  0  0  0  0  0  0  0  0
    2.2910   68.5350   65.0890 C   0  0  0  0  0  0  0  0  0  0  0  0
    0.9120   68.3540   65.1700 C   0  0  0  0  0  0  0  0  0  0  0  0
    0.2530   68.7080   66.3380 C   0  0  0  0  0  0  0  0  0  0  0  0
    0.9610   69.2470   67.4090 C   0  0  0  0  0  0  0  0  0  0  0  0
   -1.4480   68.4810   66.4580 Cl  0  0  0  0  0  0  0  0  0  0  0  0
    5.7071   64.3919   64.1763 H   0  0  0  0  0  0  0  0  0  0  0  0
    4.5336   64.0305   62.8239 H   0  0  0  0  0  0  0  0  0  0  0  0
    2.8439   63.3606   64.3525 H   0  0  0  0  0  0  0  0  0  0  0  0
    4.4008   62.5136   64.8043 H   0  0  0  0  0  0  0  0  0  0  0  0
    4.6152   64.5881   66.4466 H   0  0  0  0  0  0  0  0  0  0  0  0
    2.8172   64.5644   66.2993 H   0  0  0  0  0  0  0  0  0  0  0  0
    2.7195   62.4283   67.1051 H   0  0  0  0  0  0  0  0  0  0  0  0
    4.4128   62.1732   66.8581 H   0  0  0  0  0  0  0  0  0  0  0  0
    4.8950   62.6339   68.8788 H   0  0  0  0  0  0  0  0  0  0  0  0
    4.0468   64.2271   68.6866 H   0  0  0  0  0  0  0  0  0  0  0  0
    2.5437   63.5131   70.1524 H   0  0  0  0  0  0  0  0  0  0  0  0
    2.0346   62.3010   68.8559 H   0  0  0  0  0  0  0  0  0  0  0  0
    0.3937   61.0029   73.2407 H   0  0  0  0  0  0  0  0  0  0  0  0
    4.1974   61.7813   72.3435 H   0  0  0  0  0  0  0  0  0  0  0  0
    5.2515   61.1661   71.0254 H   0  0  0  0  0  0  0  0  0  0  0  0
    4.7228   62.8829   71.0254 H   0  0  0  0  0  0  0  0  0  0  0  0
    2.5248   60.0100   68.9932 H   0  0  0  0  0  0  0  0  0  0  0  0
    4.3068   60.3264   69.0111 H   0  0  0  0  0  0  0  0  0  0  0  0
    3.5407   58.0601   69.9302 H   0  0  0  0  0  0  0  0  0  0  0  0
    4.6203   59.0411   70.9836 H   0  0  0  0  0  0  0  0  0  0  0  0
    2.8734   56.8588   72.0521 H   0  0  0  0  0  0  0  0  0  0  0  0
   -0.5625   58.8565   76.6568 H   0  0  0  0  0  0  0  0  0  0  0  0
    1.1240   59.1017   76.0892 H   0  0  0  0  0  0  0  0  0  0  0  0
   -0.0324   60.4762   76.0892 H   0  0  0  0  0  0  0  0  0  0  0  0
    0.4401   56.4989   74.6725 H   0  0  0  0  0  0  0  0  0  0  0  0
    3.1125   65.8413   64.2189 H   0  0  0  0  0  0  0  0  0  0  0  0
    4.8489   66.3927   64.5317 H   0  0  0  0  0  0  0  0  0  0  0  0
    4.3278   65.8629   61.7262 H   0  0  0  0  0  0  0  0  0  0  0  0
    3.2492   67.1516   62.4424 H   0  0  0  0  0  0  0  0  0  0  0  0
    6.0520   67.4192   63.2439 H   0  0  0  0  0  0  0  0  0  0  0  0
    5.7765   67.5281   61.4424 H   0  0  0  0  0  0  0  0  0  0  0  0
    5.2765   69.6649   61.7606 H   0  0  0  0  0  0  0  0  0  0  0  0
    3.7476   69.0533   62.5532 H   0  0  0  0  0  0  0  0  0  0  0  0
    6.2788   70.1004   63.8226 H   0  0  0  0  0  0  0  0  0  0  0  0
    4.5440   70.5464   64.1113 H   0  0  0  0  0  0  0  0  0  0  0  0
    5.6237   67.8467   65.0105 H   0  0  0  0  0  0  0  0  0  0  0  0
    7.0828   69.2070   67.4476 H   0  0  0  0  0  0  0  0  0  0  0  0
    6.8090   70.6026   66.2928 H   0  0  0  0  0  0  0  0  0  0  0  0
    8.0875   71.1344   68.4326 H   0  0  0  0  0  0  0  0  0  0  0  0
    6.6638   72.1654   68.0404 H   0  0  0  0  0  0  0  0  0  0  0  0
    6.6469   69.7762   69.9485 H   0  0  0  0  0  0  0  0  0  0  0  0
    6.7171   71.5046   70.4403 H   0  0  0  0  0  0  0  0  0  0  0  0
    4.4056   70.4364   70.4651 H   0  0  0  0  0  0  0  0  0  0  0  0
    4.5929   71.9618   69.4757 H   0  0  0  0  0  0  0  0  0  0  0  0
    2.8177   68.2626   64.1625 H   0  0  0  0  0  0  0  0  0  0  0  0
    0.3535   67.9361   64.3194 H   0  0  0  0  0  0  0  0  0  0  0  0
    0.4209   69.5278   68.3252 H   0  0  0  0  0  0  0  0  0  0  0  0
  2  1  1  0
  3  2  1  0
  4  3  1  0
  5  4  1  0
  6  5  1  0
  8  7  2  0
  9  8  1  0
 10  9  1  0
 11 10  1  0
 11  6  1  6
 12 11  1  0
 13 11  1  0
 14 13  1  0
 15 14  1  0
 15  9  2  0
 16 15  1  0
 17 16  2  0
 17  7  1  0
 19 18  1  0
 19  7  1  0
 20 17  1  0
 21  1  1  0
 22 21  1  0
 23 22  1  0
 24 23  1  0
 25 24  1  0
 26 25  1  0
 27 26  1  0
 28 27  1  0
 29 28  1  0
 30 29  1  0
 31 30  1  0
 32 31  1  0
 33 32  1  0
 33 28  2  0
 34 33  1  0
 35 34  2  0
 36 35  1  0
 36 27  2  0
 37 36  1  0
 38 37  2  0
 39 38  1  0
 40 35  1  0
 40 39  2  0
 41 39  1  0
  1 42  1  0
  1 43  1  0
  2 44  1  0
  2 45  1  0
  3 46  1  0
  3 47  1  0
  4 48  1  0
  4 49  1  0
  5 50  1  0
  5 51  1  0
  6 52  1  0
  6 53  1  0
  8 54  1  0
 12 55  1  0
 12 56  1  0
 12 57  1  0
 13 58  1  0
 13 59  1  0
 14 60  1  0
 14 61  1  0
 16 62  1  0
 18 63  1  0
 18 64  1  0
 18 65  1  0
 20 66  1  0
 21 67  1  0
 21 68  1  0
 22 69  1  0
 22 70  1  0
 23 71  1  0
 23 72  1  0
 24 73  1  0
 24 74  1  0
 25 75  1  0
 25 76  1  0
 26 77  1  0
 29 78  1  0
 29 79  1  0
 30 80  1  0
 30 81  1  0
 31 82  1  0
 31 83  1  0
 32 84  1  0
 32 85  1  0
 37 86  1  0
 38 87  1  0
 40 88  1  0
M  CHG  1   4   1
M  END
>  <score>  (5) 
-10.413

$$$$
=
     RDKit          3D

 88 92  0  0  0  0  0  0  0  0999 V2000
    3.0490   63.5530   69.6250 C   0  0  0  0  0  0  0  0  0  0  0  0
    2.5360   62.1250   69.8350 C   0  0  0  0  0  0  0  0  0  0  0  0
    3.6440   61.0910   70.0140 C   0  0  0  0  0  0  0  0  0  0  0  0
    3.6250   60.5370   71.3990 N   0  0  0  0  0  4  0  0  0  0  0  0
    2.6920   61.1980   72.3610 C   0  0  0  0  0  0  0  0  0  0  0  0
    1.3710   60.4330   72.5010 C   0  0  0  0  0  0  0  0  0  0  0  0
   -1.8710   56.0120   74.9720 C   0  0  0  0  0  0  0  0  0  0  0  0
   -1.4290   57.2980   74.6400 C   0  0  0  0  0  0  0  0  0  0  0  0
   -0.2010   57.5000   74.0130 C   0  0  0  0  0  0  0  0  0  0  0  0
    0.1060   58.8010   73.7170 O   0  0  0  0  0  0  0  0  0  0  0  0
    1.4460   59.0770   73.2610 C   0  0  2  0  0  0  0  0  0  0  0  0
    2.3530   59.2740   74.4890 C   0  0  0  0  0  0  0  0  0  0  0  0
    1.9720   57.9680   72.3300 C   0  0  0  0  0  0  0  0  0  0  0  0
    1.9350   56.6090   73.0150 C   0  0  0  0  0  0  0  0  0  0  0  0
    0.6100   56.4130   73.6890 C   0  0  0  0  0  0  0  0  0  0  0  0
    0.1830   55.1230   74.0330 C   0  0  0  0  0  0  0  0  0  0  0  0
   -1.0520   54.9230   74.6640 C   0  0  0  0  0  0  0  0  0  0  0  0
   -3.1590   56.0430   76.9900 C   0  0  0  0  0  0  0  0  0  0  0  0
   -3.1020   56.0160   75.5690 O   0  0  0  0  0  0  0  0  0  0  0  0
   -1.4330   53.6430   74.9530 O   0  0  0  0  0  0  0  0  0  0  0  0
    2.4090   64.5770   70.5690 C   0  0  0  0  0  0  0  0  0  0  0  0
    0.8810   64.6930   70.5070 C   0  0  0  0  0  0  0  0  0  0  0  0
    0.3890   66.1240   70.2770 C   0  0  0  0  0  0  0  0  0  0  0  0
    1.4030   67.0040   69.5370 C   0  0  0  0  0  0  0  0  0  0  0  0
    0.8730   67.5730   68.2190 C   0  0  0  0  0  0  0  0  0  0  0  0
    1.2040   69.0010   68.0660 N   0  0  0  0  0  0  0  0  0  0  0  0
    2.3050   69.2470   67.1910 C   0  0  0  0  0  0  0  0  0  0  0  0
    2.2270   68.9630   65.8110 C   0  0  0  0  0  0  0  0  0  0  0  0
    0.9550   68.4730   65.1580 C   0  0  0  0  0  0  0  0  0  0  0  0
    0.9520   68.5900   63.6330 C   0  0  0  0  0  0  0  0  0  0  0  0
    2.2490   68.0400   63.0630 C   0  0  0  0  0  0  0  0  0  0  0  0
    3.4240   68.8660   63.5680 C   0  0  0  0  0  0  0  0  0  0  0  0
    3.3950   69.1110   65.0560 C   0  0  0  0  0  0  0  0  0  0  0  0
    4.5690   69.5400   65.5800 N   0  0  0  0  0  0  0  0  0  0  0  0
    4.6280   69.8610   66.8770 C   0  0  0  0  0  0  0  0  0  0  0  0
    3.5200   69.7430   67.7370 C   0  0  0  0  0  0  0  0  0  0  0  0
    3.6640   70.1420   69.0880 C   0  0  0  0  0  0  0  0  0  0  0  0
    4.8800   70.6130   69.5760 C   0  0  0  0  0  0  0  0  0  0  0  0
    5.9650   70.6980   68.7160 C   0  0  0  0  0  0  0  0  0  0  0  0
    5.8330   70.3270   67.3800 C   0  0  0  0  0  0  0  0  0  0  0  0
    7.4770   71.2660   69.3050 Cl  0  0  0  0  0  0  0  0  0  0  0  0
    4.1366   63.5600   69.7893 H   0  0  0  0  0  0  0  0  0  0  0  0
    2.7804   63.8460   68.5993 H   0  0  0  0  0  0  0  0  0  0  0  0
    1.9024   62.1131   70.7341 H   0  0  0  0  0  0  0  0  0  0  0  0
    1.9831   61.8469   68.9256 H   0  0  0  0  0  0  0  0  0  0  0  0
    3.4943   60.2722   69.2948 H   0  0  0  0  0  0  0  0  0  0  0  0
    4.6151   61.5773   69.8394 H   0  0  0  0  0  0  0  0  0  0  0  0
    3.3601   59.5436   71.3365 H   0  0  0  0  0  0  0  0  0  0  0  0
    4.5700   60.7010   71.7745 H   0  0  0  0  0  0  0  0  0  0  0  0
    3.1775   61.2507   73.3466 H   0  0  0  0  0  0  0  0  0  0  0  0
    2.4627   62.2022   71.9749 H   0  0  0  0  0  0  0  0  0  0  0  0
    0.6620   61.0808   73.0373 H   0  0  0  0  0  0  0  0  0  0  0  0
    1.0633   60.1818   71.4752 H   0  0  0  0  0  0  0  0  0  0  0  0
   -2.0626   58.1650   74.8784 H   0  0  0  0  0  0  0  0  0  0  0  0
    1.7605   59.1453   75.4068 H   0  0  0  0  0  0  0  0  0  0  0  0
    3.1639   58.5310   74.4688 H   0  0  0  0  0  0  0  0  0  0  0  0
    2.7827   60.2864   74.4688 H   0  0  0  0  0  0  0  0  0  0  0  0
    1.3457   57.9313   71.4265 H   0  0  0  0  0  0  0  0  0  0  0  0
    3.0158   58.1982   72.0700 H   0  0  0  0  0  0  0  0  0  0  0  0
    2.0831   55.8183   72.2648 H   0  0  0  0  0  0  0  0  0  0  0  0
    2.7351   56.5614   73.7684 H   0  0  0  0  0  0  0  0  0  0  0  0
    0.8241   54.2587   73.8052 H   0  0  0  0  0  0  0  0  0  0  0  0
   -2.2374   55.6064   77.4023 H   0  0  0  0  0  0  0  0  0  0  0  0
   -3.2574   57.0834   77.3333 H   0  0  0  0  0  0  0  0  0  0  0  0
   -4.0263   55.4600   77.3333 H   0  0  0  0  0  0  0  0  0  0  0  0
   -2.3007   53.4734   75.3986 H   0  0  0  0  0  0  0  0  0  0  0  0
    2.6832   64.3019   71.5981 H   0  0  0  0  0  0  0  0  0  0  0  0
    2.7918   65.5559   70.2445 H   0  0  0  0  0  0  0  0  0  0  0  0
    0.5166   64.0623   69.6828 H   0  0  0  0  0  0  0  0  0  0  0  0
    0.4908   64.3683   71.4828 H   0  0  0  0  0  0  0  0  0  0  0  0
   -0.5364   66.0836   69.6836 H   0  0  0  0  0  0  0  0  0  0  0  0
    0.2282   66.5756   71.2671 H   0  0  0  0  0  0  0  0  0  0  0  0
    1.6787   67.8434   70.1923 H   0  0  0  0  0  0  0  0  0  0  0  0
    2.2643   66.3660   69.2899 H   0  0  0  0  0  0  0  0  0  0  0  0
    1.3196   67.0127   67.3843 H   0  0  0  0  0  0  0  0  0  0  0  0
   -0.2226   67.4746   68.2205 H   0  0  0  0  0  0  0  0  0  0  0  0
    0.6885   69.7524   68.5462 H   0  0  0  0  0  0  0  0  0  0  0  0
    0.8155   67.4147   65.4237 H   0  0  0  0  0  0  0  0  0  0  0  0
    0.1410   69.1141   65.5274 H   0  0  0  0  0  0  0  0  0  0  0  0
    0.1048   68.0184   63.2262 H   0  0  0  0  0  0  0  0  0  0  0  0
    0.8577   69.6499   63.3540 H   0  0  0  0  0  0  0  0  0  0  0  0
    2.3737   66.9945   63.3813 H   0  0  0  0  0  0  0  0  0  0  0  0
    2.2141   68.0908   61.9647 H   0  0  0  0  0  0  0  0  0  0  0  0
    4.3546   68.3339   63.3213 H   0  0  0  0  0  0  0  0  0  0  0  0
    3.3614   69.8489   63.0781 H   0  0  0  0  0  0  0  0  0  0  0  0
    2.7990   70.0787   69.7646 H   0  0  0  0  0  0  0  0  0  0  0  0
    4.9789   70.9137   70.6295 H   0  0  0  0  0  0  0  0  0  0  0  0
    6.7023   70.4053   66.7105 H   0  0  0  0  0  0  0  0  0  0  0  0
  2  1  1  0
  3  2  1  0
  4  3  1  0
  5  4  1  0
  6  5  1  0
  8  7  2  0
  9  8  1  0
 10  9  1  0
 11 10  1  0
 11  6  1  6
 12 11  1  0
 13 11  1  0
 14 13  1  0
 15 14  1  0
 15  9  2  0
 16 15  1  0
 17 16  2  0
 17  7  1  0
 19 18  1  0
 19  7  1  0
 20 17  1  0
 21  1  1  0
 22 21  1  0
 23 22  1  0
 24 23  1  0
 25 24  1  0
 26 25  1  0
 27 26  1  0
 28 27  1  0
 29 28  1  0
 30 29  1  0
 31 30  1  0
 32 31  1  0
 33 32  1  0
 33 28  2  0
 34 33  1  0
 35 34  2  0
 36 35  1  0
 36 27  2  0
 37 36  1  0
 38 37  2  0
 39 38  1  0
 40 35  1  0
 40 39  2  0
 41 39  1  0
  1 42  1  0
  1 43  1  0
  2 44  1  0
  2 45  1  0
  3 46  1  0
  3 47  1  0
  4 48  1  0
  4 49  1  0
  5 50  1  0
  5 51  1  0
  6 52  1  0
  6 53  1  0
  8 54  1  0
 12 55  1  0
 12 56  1  0
 12 57  1  0
 13 58  1  0
 13 59  1  0
 14 60  1  0
 14 61  1  0
 16 62  1  0
 18 63  1  0
 18 64  1  0
 18 65  1  0
 20 66  1  0
 21 67  1  0
 21 68  1  0
 22 69  1  0
 22 70  1  0
 23 71  1  0
 23 72  1  0
 24 73  1  0
 24 74  1  0
 25 75  1  0
 25 76  1  0
 26 77  1  0
 29 78  1  0
 29 79  1  0
 30 80  1  0
 30 81  1  0
 31 82  1  0
 31 83  1  0
 32 84  1  0
 32 85  1  0
 37 86  1  0
 38 87  1  0
 40 88  1  0
M  CHG  1   4   1
M  END
>  <score>  (6) 
-10.063

$$$$
=
     RDKit          3D

 88 92  0  0  0  0  0  0  0  0999 V2000
    4.0000   63.8680   66.3000 C   0  0  0  0  0  0  0  0  0  0  0  0
    3.7620   62.6760   67.2320 C   0  0  0  0  0  0  0  0  0  0  0  0
    3.7370   63.0480   68.7130 C   0  0  0  0  0  0  0  0  0  0  0  0
    3.2170   61.9130   69.5290 N   0  0  0  0  0  4  0  0  0  0  0  0
    4.0880   60.7000   69.6020 C   0  0  0  0  0  0  0  0  0  0  0  0
    4.6440   60.4750   71.0140 C   0  0  0  0  0  0  0  0  0  0  0  0
   -0.0830   62.9910   73.7500 C   0  0  0  0  0  0  0  0  0  0  0  0
    1.1830   62.8430   73.1720 C   0  0  0  0  0  0  0  0  0  0  0  0
    1.6960   61.5830   72.8680 C   0  0  0  0  0  0  0  0  0  0  0  0
    2.9330   61.5730   72.2830 O   0  0  0  0  0  0  0  0  0  0  0  0
    3.5880   60.2960   72.1420 C   0  0  2  0  0  0  0  0  0  0  0  0
    4.3420   59.9830   73.4480 C   0  0  0  0  0  0  0  0  0  0  0  0
    2.5910   59.1810   71.7730 C   0  0  0  0  0  0  0  0  0  0  0  0
    1.4770   59.0730   72.8050 C   0  0  0  0  0  0  0  0  0  0  0  0
    0.9420   60.4380   73.1230 C   0  0  0  0  0  0  0  0  0  0  0  0
   -0.3190   60.5760   73.7170 C   0  0  0  0  0  0  0  0  0  0  0  0
   -0.8330   61.8430   74.0220 C   0  0  0  0  0  0  0  0  0  0  0  0
    0.1340   64.9570   75.0980 C   0  0  0  0  0  0  0  0  0  0  0  0
   -0.4150   64.3010   73.9620 O   0  0  0  0  0  0  0  0  0  0  0  0
   -2.0790   61.9230   74.5740 O   0  0  0  0  0  0  0  0  0  0  0  0
    3.7120   63.5570   64.8260 C   0  0  0  0  0  0  0  0  0  0  0  0
    3.8760   64.7220   63.8440 C   0  0  0  0  0  0  0  0  0  0  0  0
    4.9190   65.7510   64.2880 C   0  0  0  0  0  0  0  0  0  0  0  0
    4.7690   67.1070   63.5890 C   0  0  0  0  0  0  0  0  0  0  0  0
    5.5030   68.2470   64.3000 C   0  0  0  0  0  0  0  0  0  0  0  0
    4.6480   69.4380   64.4530 N   0  0  0  0  0  0  0  0  0  0  0  0
    4.0730   69.5700   65.7540 C   0  0  0  0  0  0  0  0  0  0  0  0
    4.8150   70.0820   66.8390 C   0  0  0  0  0  0  0  0  0  0  0  0
    6.2220   70.6090   66.6780 C   0  0  0  0  0  0  0  0  0  0  0  0
    6.7080   71.4600   67.8520 C   0  0  0  0  0  0  0  0  0  0  0  0
    6.4050   70.7600   69.1670 C   0  0  0  0  0  0  0  0  0  0  0  0
    4.8990   70.6010   69.3280 C   0  0  0  0  0  0  0  0  0  0  0  0
    4.2140   70.0520   68.1020 C   0  0  0  0  0  0  0  0  0  0  0  0
    2.9590   69.5890   68.3170 N   0  0  0  0  0  0  0  0  0  0  0  0
    2.2360   69.1530   67.2790 C   0  0  0  0  0  0  0  0  0  0  0  0
    2.7390   69.1270   65.9640 C   0  0  0  0  0  0  0  0  0  0  0  0
    1.8890   68.6840   64.9220 C   0  0  0  0  0  0  0  0  0  0  0  0
    0.5910   68.2510   65.1820 C   0  0  0  0  0  0  0  0  0  0  0  0
    0.1260   68.2630   66.4890 C   0  0  0  0  0  0  0  0  0  0  0  0
    0.9430   68.7130   67.5220 C   0  0  0  0  0  0  0  0  0  0  0  0
   -1.4700   67.7200   66.8300 Cl  0  0  0  0  0  0  0  0  0  0  0  0
    3.3457   64.6937   66.6162 H   0  0  0  0  0  0  0  0  0  0  0  0
    5.0658   64.1297   66.3740 H   0  0  0  0  0  0  0  0  0  0  0  0
    2.7951   62.2202   66.9724 H   0  0  0  0  0  0  0  0  0  0  0  0
    4.6050   61.9840   67.0893 H   0  0  0  0  0  0  0  0  0  0  0  0
    4.7578   63.2923   69.0420 H   0  0  0  0  0  0  0  0  0  0  0  0
    3.0759   63.9164   68.8501 H   0  0  0  0  0  0  0  0  0  0  0  0
    3.0744   62.2559   70.4897 H   0  0  0  0  0  0  0  0  0  0  0  0
    2.3549   61.6057   69.0565 H   0  0  0  0  0  0  0  0  0  0  0  0
    3.4965   59.8201   69.3090 H   0  0  0  0  0  0  0  0  0  0  0  0
    4.9393   60.8520   68.9222 H   0  0  0  0  0  0  0  0  0  0  0  0
    5.2675   59.5691   70.9898 H   0  0  0  0  0  0  0  0  0  0  0  0
    5.1943   61.3935   71.2659 H   0  0  0  0  0  0  0  0  0  0  0  0
    1.7845   63.7377   72.9535 H   0  0  0  0  0  0  0  0  0  0  0  0
    3.7093   60.2456   74.3086 H   0  0  0  0  0  0  0  0  0  0  0  0
    4.5833   58.9104   73.4841 H   0  0  0  0  0  0  0  0  0  0  0  0
    5.2720   60.5694   73.4841 H   0  0  0  0  0  0  0  0  0  0  0  0
    2.1494   59.4055   70.7909 H   0  0  0  0  0  0  0  0  0  0  0  0
    3.1335   58.2245   71.7456 H   0  0  0  0  0  0  0  0  0  0  0  0
    0.6662   58.4480   72.4025 H   0  0  0  0  0  0  0  0  0  0  0  0
    1.8765   58.6175   73.7231 H   0  0  0  0  0  0  0  0  0  0  0  0
   -0.9127   59.6789   73.9467 H   0  0  0  0  0  0  0  0  0  0  0  0
   -0.2562   64.4908   76.0148 H   0  0  0  0  0  0  0  0  0  0  0  0
    1.2302   64.8674   75.0790 H   0  0  0  0  0  0  0  0  0  0  0  0
   -0.1474   66.0202   75.0790 H   0  0  0  0  0  0  0  0  0  0  0  0
   -2.4650   62.8065   74.7988 H   0  0  0  0  0  0  0  0  0  0  0  0
    4.3963   62.7549   64.5124 H   0  0  0  0  0  0  0  0  0  0  0  0
    2.6468   63.2854   64.7852 H   0  0  0  0  0  0  0  0  0  0  0  0
    4.1811   64.3152   62.8686 H   0  0  0  0  0  0  0  0  0  0  0  0
    2.9082   65.2424   63.7939 H   0  0  0  0  0  0  0  0  0  0  0  0
    4.8185   65.9043   65.3726 H   0  0  0  0  0  0  0  0  0  0  0  0
    5.9071   65.3516   64.0156 H   0  0  0  0  0  0  0  0  0  0  0  0
    5.1696   67.0184   62.5684 H   0  0  0  0  0  0  0  0  0  0  0  0
    3.6980   67.3578   63.5974 H   0  0  0  0  0  0  0  0  0  0  0  0
    5.8150   67.9024   65.2969 H   0  0  0  0  0  0  0  0  0  0  0  0
    6.3730   68.5273   63.6881 H   0  0  0  0  0  0  0  0  0  0  0  0
    4.4807   70.1123   63.6926 H   0  0  0  0  0  0  0  0  0  0  0  0
    6.9018   69.7512   66.5684 H   0  0  0  0  0  0  0  0  0  0  0  0
    6.2167   71.2625   65.7932 H   0  0  0  0  0  0  0  0  0  0  0  0
    7.7935   71.6147   67.7641 H   0  0  0  0  0  0  0  0  0  0  0  0
    6.1884   72.4294   67.8327 H   0  0  0  0  0  0  0  0  0  0  0  0
    6.8801   69.7679   69.1712 H   0  0  0  0  0  0  0  0  0  0  0  0
    6.7991   71.3614   69.9994 H   0  0  0  0  0  0  0  0  0  0  0  0
    4.7097   69.9162   70.1678 H   0  0  0  0  0  0  0  0  0  0  0  0
    4.4863   71.6052   69.5048 H   0  0  0  0  0  0  0  0  0  0  0  0
    2.2610   68.6817   63.8868 H   0  0  0  0  0  0  0  0  0  0  0  0
   -0.0561   67.9045   64.3628 H   0  0  0  0  0  0  0  0  0  0  0  0
    0.5558   68.7199   68.5516 H   0  0  0  0  0  0  0  0  0  0  0  0
  2  1  1  0
  3  2  1  0
  4  3  1  0
  5  4  1  0
  6  5  1  0
  8  7  2  0
  9  8  1  0
 10  9  1  0
 11 10  1  0
 11  6  1  6
 12 11  1  0
 13 11  1  0
 14 13  1  0
 15 14  1  0
 15  9  2  0
 16 15  1  0
 17 16  2  0
 17  7  1  0
 19 18  1  0
 19  7  1  0
 20 17  1  0
 21  1  1  0
 22 21  1  0
 23 22  1  0
 24 23  1  0
 25 24  1  0
 26 25  1  0
 27 26  1  0
 28 27  1  0
 29 28  1  0
 30 29  1  0
 31 30  1  0
 32 31  1  0
 33 32  1  0
 33 28  2  0
 34 33  1  0
 35 34  2  0
 36 35  1  0
 36 27  2  0
 37 36  1  0
 38 37  2  0
 39 38  1  0
 40 35  1  0
 40 39  2  0
 41 39  1  0
  1 42  1  0
  1 43  1  0
  2 44  1  0
  2 45  1  0
  3 46  1  0
  3 47  1  0
  4 48  1  0
  4 49  1  0
  5 50  1  0
  5 51  1  0
  6 52  1  0
  6 53  1  0
  8 54  1  0
 12 55  1  0
 12 56  1  0
 12 57  1  0
 13 58  1  0
 13 59  1  0
 14 60  1  0
 14 61  1  0
 16 62  1  0
 18 63  1  0
 18 64  1  0
 18 65  1  0
 20 66  1  0
 21 67  1  0
 21 68  1  0
 22 69  1  0
 22 70  1  0
 23 71  1  0
 23 72  1  0
 24 73  1  0
 24 74  1  0
 25 75  1  0
 25 76  1  0
 26 77  1  0
 29 78  1  0
 29 79  1  0
 30 80  1  0
 30 81  1  0
 31 82  1  0
 31 83  1  0
 32 84  1  0
 32 85  1  0
 37 86  1  0
 38 87  1  0
 40 88  1  0
M  CHG  1   4   1
M  END
>  <score>  (7) 
-9.999

$$$$
=
     RDKit          3D

 88 92  0  0  0  0  0  0  0  0999 V2000
    1.7480   63.7320   71.0790 C   0  0  0  0  0  0  0  0  0  0  0  0
    0.3410   63.1270   71.0640 C   0  0  0  0  0  0  0  0  0  0  0  0
   -0.2710   62.9550   72.4520 C   0  0  0  0  0  0  0  0  0  0  0  0
    0.6010   63.5760   73.4910 N   0  0  0  0  0  4  0  0  0  0  0  0
    1.0740   62.6710   74.5820 C   0  0  0  0  0  0  0  0  0  0  0  0
    0.4120   61.2900   74.5120 C   0  0  0  0  0  0  0  0  0  0  0  0
    1.1500   55.3660   75.2380 C   0  0  0  0  0  0  0  0  0  0  0  0
    0.8570   56.7040   75.5230 C   0  0  0  0  0  0  0  0  0  0  0  0
    1.2090   57.7250   74.6410 C   0  0  0  0  0  0  0  0  0  0  0  0
    0.8430   58.9880   75.0220 O   0  0  0  0  0  0  0  0  0  0  0  0
    1.3660   60.0890   74.2510 C   0  0  2  0  0  0  0  0  0  0  0  0
    2.7540   60.4610   74.8020 C   0  0  0  0  0  0  0  0  0  0  0  0
    1.4150   59.7590   72.7470 C   0  0  0  0  0  0  0  0  0  0  0  0
    2.2430   58.5100   72.4820 C   0  0  0  0  0  0  0  0  0  0  0  0
    1.8540   57.4260   73.4420 C   0  0  0  0  0  0  0  0  0  0  0  0
    2.1680   56.0900   73.1570 C   0  0  0  0  0  0  0  0  0  0  0  0
    1.8120   55.0660   74.0440 C   0  0  0  0  0  0  0  0  0  0  0  0
    0.5700   55.0200   77.5340 C   0  0  0  0  0  0  0  0  0  0  0  0
    0.7160   54.5120   76.2140 O   0  0  0  0  0  0  0  0  0  0  0  0
    2.1170   53.7790   73.7050 O   0  0  0  0  0  0  0  0  0  0  0  0
    1.8850   64.9810   70.2000 C   0  0  0  0  0  0  0  0  0  0  0  0
    0.8170   66.0640   70.3900 C   0  0  0  0  0  0  0  0  0  0  0  0
   -0.2100   66.1120   69.2550 C   0  0  0  0  0  0  0  0  0  0  0  0
    0.0040   67.2850   68.2930 C   0  0  0  0  0  0  0  0  0  0  0  0
    1.3920   67.9210   68.4000 C   0  0  0  0  0  0  0  0  0  0  0  0
    1.4600   69.2120   67.6920 N   0  0  0  0  0  0  0  0  0  0  0  0
    2.6480   69.3810   66.9180 C   0  0  0  0  0  0  0  0  0  0  0  0
    2.6850   69.0620   65.5440 C   0  0  0  0  0  0  0  0  0  0  0  0
    1.4570   68.6140   64.7860 C   0  0  0  0  0  0  0  0  0  0  0  0
    1.6000   68.6880   63.2650 C   0  0  0  0  0  0  0  0  0  0  0  0
    2.9150   68.0620   62.8330 C   0  0  0  0  0  0  0  0  0  0  0  0
    4.0780   68.8460   63.4270 C   0  0  0  0  0  0  0  0  0  0  0  0
    3.9230   69.1350   64.8990 C   0  0  0  0  0  0  0  0  0  0  0  0
    5.0630   69.5230   65.5200 N   0  0  0  0  0  0  0  0  0  0  0  0
    5.0180   69.8770   66.8090 C   0  0  0  0  0  0  0  0  0  0  0  0
    3.8300   69.8360   67.5640 C   0  0  0  0  0  0  0  0  0  0  0  0
    3.8680   70.2650   68.9120 C   0  0  0  0  0  0  0  0  0  0  0  0
    5.0550   70.6930   69.5020 C   0  0  0  0  0  0  0  0  0  0  0  0
    6.2180   70.7030   68.7450 C   0  0  0  0  0  0  0  0  0  0  0  0
    6.1920   70.3010   67.4120 C   0  0  0  0  0  0  0  0  0  0  0  0
    7.6950   71.2170   69.4600 Cl  0  0  0  0  0  0  0  0  0  0  0  0
    1.9986   64.0056   72.1146 H   0  0  0  0  0  0  0  0  0  0  0  0
    2.4316   62.9726   70.6717 H   0  0  0  0  0  0  0  0  0  0  0  0
   -0.3138   63.7866   70.4757 H   0  0  0  0  0  0  0  0  0  0  0  0
    0.4294   62.1217   70.6262 H   0  0  0  0  0  0  0  0  0  0  0  0
   -1.2592   63.4378   72.4737 H   0  0  0  0  0  0  0  0  0  0  0  0
   -0.3677   61.8804   72.6662 H   0  0  0  0  0  0  0  0  0  0  0  0
    1.4319   63.9576   73.0168 H   0  0  0  0  0  0  0  0  0  0  0  0
    0.0150   64.2846   73.9552 H   0  0  0  0  0  0  0  0  0  0  0  0
    2.1634   62.5472   74.4931 H   0  0  0  0  0  0  0  0  0  0  0  0
    0.8021   63.1291   75.5444 H   0  0  0  0  0  0  0  0  0  0  0  0
   -0.0983   61.1124   75.4701 H   0  0  0  0  0  0  0  0  0  0  0  0
   -0.2619   61.3278   73.6434 H   0  0  0  0  0  0  0  0  0  0  0  0
    0.3392   56.9553   76.4604 H   0  0  0  0  0  0  0  0  0  0  0  0
    2.7260   60.4535   75.9016 H   0  0  0  0  0  0  0  0  0  0  0  0
    3.4965   59.7302   74.4491 H   0  0  0  0  0  0  0  0  0  0  0  0
    3.0315   61.4652   74.4491 H   0  0  0  0  0  0  0  0  0  0  0  0
    0.3903   59.5936   72.3828 H   0  0  0  0  0  0  0  0  0  0  0  0
    1.8831   60.6041   72.2210 H   0  0  0  0  0  0  0  0  0  0  0  0
    2.0651   58.1663   71.4523 H   0  0  0  0  0  0  0  0  0  0  0  0
    3.3087   58.7471   72.6163 H   0  0  0  0  0  0  0  0  0  0  0  0
    2.6999   55.8429   72.2264 H   0  0  0  0  0  0  0  0  0  0  0  0
    0.7983   54.2257   78.2599 H   0  0  0  0  0  0  0  0  0  0  0  0
    1.2626   55.8617   77.6816 H   0  0  0  0  0  0  0  0  0  0  0  0
   -0.4638   55.3656   77.6816 H   0  0  0  0  0  0  0  0  0  0  0  0
    1.8765   53.0364   74.3140 H   0  0  0  0  0  0  0  0  0  0  0  0
    2.8643   65.4348   70.4123 H   0  0  0  0  0  0  0  0  0  0  0  0
    1.7639   64.6271   69.1655 H   0  0  0  0  0  0  0  0  0  0  0  0
    0.2855   65.8678   71.3329 H   0  0  0  0  0  0  0  0  0  0  0  0
    1.3362   67.0337   70.3990 H   0  0  0  0  0  0  0  0  0  0  0  0
   -0.1424   65.1747   68.6832 H   0  0  0  0  0  0  0  0  0  0  0  0
   -1.1995   66.2457   69.7165 H   0  0  0  0  0  0  0  0  0  0  0  0
   -0.1328   66.9203   67.2643 H   0  0  0  0  0  0  0  0  0  0  0  0
   -0.7276   68.0608   68.5631 H   0  0  0  0  0  0  0  0  0  0  0  0
    1.6275   68.0847   69.4620 H   0  0  0  0  0  0  0  0  0  0  0  0
    2.1174   67.2377   67.9343 H   0  0  0  0  0  0  0  0  0  0  0  0
    0.7196   69.9257   67.7501 H   0  0  0  0  0  0  0  0  0  0  0  0
    1.2419   67.5712   65.0623 H   0  0  0  0  0  0  0  0  0  0  0  0
    0.6452   69.3030   65.0620 H   0  0  0  0  0  0  0  0  0  0  0  0
    0.7669   68.1454   62.7945 H   0  0  0  0  0  0  0  0  0  0  0  0
    1.5837   69.7427   62.9528 H   0  0  0  0  0  0  0  0  0  0  0  0
    2.9577   67.0211   63.1863 H   0  0  0  0  0  0  0  0  0  0  0  0
    2.9848   68.0834   61.7354 H   0  0  0  0  0  0  0  0  0  0  0  0
    4.9998   68.2635   63.2823 H   0  0  0  0  0  0  0  0  0  0  0  0
    4.1102   69.8163   62.9097 H   0  0  0  0  0  0  0  0  0  0  0  0
    2.9419   70.2604   69.5056 H   0  0  0  0  0  0  0  0  0  0  0  0
    5.0703   71.0183   70.5527 H   0  0  0  0  0  0  0  0  0  0  0  0
    7.1223   70.3203   66.8254 H   0  0  0  0  0  0  0  0  0  0  0  0
  2  1  1  0
  3  2  1  0
  4  3  1  0
  5  4  1  0
  6  5  1  0
  8  7  2  0
  9  8  1  0
 10  9  1  0
 11 10  1  0
 11  6  1  6
 12 11  1  0
 13 11  1  0
 14 13  1  0
 15 14  1  0
 15  9  2  0
 16 15  1  0
 17 16  2  0
 17  7  1  0
 19 18  1  0
 19  7  1  0
 20 17  1  0
 21  1  1  0
 22 21  1  0
 23 22  1  0
 24 23  1  0
 25 24  1  0
 26 25  1  0
 27 26  1  0
 28 27  1  0
 29 28  1  0
 30 29  1  0
 31 30  1  0
 32 31  1  0
 33 32  1  0
 33 28  2  0
 34 33  1  0
 35 34  2  0
 36 35  1  0
 36 27  2  0
 37 36  1  0
 38 37  2  0
 39 38  1  0
 40 35  1  0
 40 39  2  0
 41 39  1  0
  1 42  1  0
  1 43  1  0
  2 44  1  0
  2 45  1  0
  3 46  1  0
  3 47  1  0
  4 48  1  0
  4 49  1  0
  5 50  1  0
  5 51  1  0
  6 52  1  0
  6 53  1  0
  8 54  1  0
 12 55  1  0
 12 56  1  0
 12 57  1  0
 13 58  1  0
 13 59  1  0
 14 60  1  0
 14 61  1  0
 16 62  1  0
 18 63  1  0
 18 64  1  0
 18 65  1  0
 20 66  1  0
 21 67  1  0
 21 68  1  0
 22 69  1  0
 22 70  1  0
 23 71  1  0
 23 72  1  0
 24 73  1  0
 24 74  1  0
 25 75  1  0
 25 76  1  0
 26 77  1  0
 29 78  1  0
 29 79  1  0
 30 80  1  0
 30 81  1  0
 31 82  1  0
 31 83  1  0
 32 84  1  0
 32 85  1  0
 37 86  1  0
 38 87  1  0
 40 88  1  0
M  CHG  1   4   1
M  END
>  <score>  (8) 
-9.927

$$$$
=
     RDKit          3D

 88 92  0  0  0  0  0  0  0  0999 V2000
    2.1150   63.7200   70.3560 C   0  0  0  0  0  0  0  0  0  0  0  0
    1.8590   65.2050   70.6280 C   0  0  0  0  0  0  0  0  0  0  0  0
    0.4770   65.6830   70.1880 C   0  0  0  0  0  0  0  0  0  0  0  0
    0.4840   66.0480   68.7420 N   0  0  0  0  0  4  0  0  0  0  0  0
   -0.3190   67.2490   68.3610 C   0  0  0  0  0  0  0  0  0  0  0  0
   -0.4940   67.3660   66.8420 C   0  0  0  0  0  0  0  0  0  0  0  0
    4.3230   65.8360   63.5840 C   0  0  0  0  0  0  0  0  0  0  0  0
    3.3780   65.8510   64.6160 C   0  0  0  0  0  0  0  0  0  0  0  0
    2.4520   66.8870   64.7340 C   0  0  0  0  0  0  0  0  0  0  0  0
    1.5650   66.7730   65.7700 O   0  0  0  0  0  0  0  0  0  0  0  0
    0.7300   67.9140   66.0550 C   0  0  2  0  0  0  0  0  0  0  0  0
    1.5010   68.8680   66.9850 C   0  0  0  0  0  0  0  0  0  0  0  0
    0.2680   68.6180   64.7650 C   0  0  0  0  0  0  0  0  0  0  0  0
    1.4560   69.0520   63.9170 C   0  0  0  0  0  0  0  0  0  0  0  0
    2.4420   67.9280   63.8070 C   0  0  0  0  0  0  0  0  0  0  0  0
    3.3960   67.9300   62.7800 C   0  0  0  0  0  0  0  0  0  0  0  0
    4.3250   66.8890   62.6640 C   0  0  0  0  0  0  0  0  0  0  0  0
    4.5880   63.5180   64.1190 C   0  0  0  0  0  0  0  0  0  0  0  0
    5.1340   64.7360   63.6280 O   0  0  0  0  0  0  0  0  0  0  0  0
    5.2150   66.9250   61.6290 O   0  0  0  0  0  0  0  0  0  0  0  0
    3.5170   63.4320   69.8050 C   0  0  0  0  0  0  0  0  0  0  0  0
    3.6950   62.1010   69.0660 C   0  0  0  0  0  0  0  0  0  0  0  0
    4.1580   60.9580   69.9730 C   0  0  0  0  0  0  0  0  0  0  0  0
    3.0650   59.9200   70.2470 C   0  0  0  0  0  0  0  0  0  0  0  0
    3.5280   58.7640   71.1370 C   0  0  0  0  0  0  0  0  0  0  0  0
    3.5770   59.1510   72.5580 N   0  0  0  0  0  0  0  0  0  0  0  0
    2.2900   59.2780   73.1640 C   0  0  0  0  0  0  0  0  0  0  0  0
    1.4700   58.1540   73.3960 C   0  0  0  0  0  0  0  0  0  0  0  0
    1.9320   56.7440   73.1090 C   0  0  0  0  0  0  0  0  0  0  0  0
    1.0810   55.6610   73.7720 C   0  0  0  0  0  0  0  0  0  0  0  0
   -0.3950   55.9390   73.5370 C   0  0  0  0  0  0  0  0  0  0  0  0
   -0.7780   57.2630   74.1850 C   0  0  0  0  0  0  0  0  0  0  0  0
    0.1760   58.3880   73.8720 C   0  0  0  0  0  0  0  0  0  0  0  0
   -0.3030   59.6260   74.1440 N   0  0  0  0  0  0  0  0  0  0  0  0
    0.4920   60.6870   73.9750 C   0  0  0  0  0  0  0  0  0  0  0  0
    1.8110   60.5760   73.4930 C   0  0  0  0  0  0  0  0  0  0  0  0
    2.5940   61.7500   73.3820 C   0  0  0  0  0  0  0  0  0  0  0  0
    2.0730   63.0000   73.7080 C   0  0  0  0  0  0  0  0  0  0  0  0
    0.7640   63.0880   74.1580 C   0  0  0  0  0  0  0  0  0  0  0  0
   -0.0120   61.9400   74.2910 C   0  0  0  0  0  0  0  0  0  0  0  0
    0.1010   64.6250   74.5550 Cl  0  0  0  0  0  0  0  0  0  0  0  0
    1.9910   63.1669   71.2987 H   0  0  0  0  0  0  0  0  0  0  0  0
    1.3940   63.4026   69.5882 H   0  0  0  0  0  0  0  0  0  0  0  0
    1.9592   65.3818   71.7091 H   0  0  0  0  0  0  0  0  0  0  0  0
    2.5961   65.7703   70.0388 H   0  0  0  0  0  0  0  0  0  0  0  0
   -0.2539   64.8779   70.3542 H   0  0  0  0  0  0  0  0  0  0  0  0
    0.2048   66.5713   70.7768 H   0  0  0  0  0  0  0  0  0  0  0  0
    1.4610   66.2230   68.4668 H   0  0  0  0  0  0  0  0  0  0  0  0
    0.0419   65.2551   68.2554 H   0  0  0  0  0  0  0  0  0  0  0  0
   -1.3122   67.1747   68.8280 H   0  0  0  0  0  0  0  0  0  0  0  0
    0.2197   68.1422   68.7103 H   0  0  0  0  0  0  0  0  0  0  0  0
   -0.7238   66.3637   66.4515 H   0  0  0  0  0  0  0  0  0  0  0  0
   -1.2970   68.1026   66.6919 H   0  0  0  0  0  0  0  0  0  0  0  0
    3.3654   65.0300   65.3480 H   0  0  0  0  0  0  0  0  0  0  0  0
    1.2908   68.6079   68.0329 H   0  0  0  0  0  0  0  0  0  0  0  0
    2.5801   68.7744   66.7933 H   0  0  0  0  0  0  0  0  0  0  0  0
    1.1830   69.9035   66.7933 H   0  0  0  0  0  0  0  0  0  0  0  0
   -0.3548   67.9242   64.1812 H   0  0  0  0  0  0  0  0  0  0  0  0
   -0.3057   69.5141   65.0443 H   0  0  0  0  0  0  0  0  0  0  0  0
    1.1050   69.3289   62.9120 H   0  0  0  0  0  0  0  0  0  0  0  0
    1.9435   69.9163   64.3918 H   0  0  0  0  0  0  0  0  0  0  0  0
    3.4150   68.7588   62.0570 H   0  0  0  0  0  0  0  0  0  0  0  0
    4.5937   63.5307   65.2189 H   0  0  0  0  0  0  0  0  0  0  0  0
    3.5544   63.4080   63.7589 H   0  0  0  0  0  0  0  0  0  0  0  0
    5.1936   62.6732   63.7589 H   0  0  0  0  0  0  0  0  0  0  0  0
    5.8822   66.2011   61.5245 H   0  0  0  0  0  0  0  0  0  0  0  0
    3.7752   64.2409   69.1057 H   0  0  0  0  0  0  0  0  0  0  0  0
    4.1717   63.3683   70.6866 H   0  0  0  0  0  0  0  0  0  0  0  0
    2.7311   61.8205   68.6163 H   0  0  0  0  0  0  0  0  0  0  0  0
    4.4790   62.2525   68.3094 H   0  0  0  0  0  0  0  0  0  0  0  0
    5.0071   60.4517   69.4906 H   0  0  0  0  0  0  0  0  0  0  0  0
    4.4350   61.4021   70.9405 H   0  0  0  0  0  0  0  0  0  0  0  0
    2.2224   60.4246   70.7424 H   0  0  0  0  0  0  0  0  0  0  0  0
    2.7807   59.4867   69.2767 H   0  0  0  0  0  0  0  0  0  0  0  0
    2.8280   57.9234   71.0212 H   0  0  0  0  0  0  0  0  0  0  0  0
    4.5439   58.4794   70.8256 H   0  0  0  0  0  0  0  0  0  0  0  0
    4.4575   59.3147   73.0668 H   0  0  0  0  0  0  0  0  0  0  0  0
    1.9050   56.5865   72.0207 H   0  0  0  0  0  0  0  0  0  0  0  0
    2.9453   56.6511   73.5268 H   0  0  0  0  0  0  0  0  0  0  0  0
    1.3395   54.6817   73.3428 H   0  0  0  0  0  0  0  0  0  0  0  0
    1.2791   55.6598   74.8540 H   0  0  0  0  0  0  0  0  0  0  0  0
   -0.5894   55.9915   72.4556 H   0  0  0  0  0  0  0  0  0  0  0  0
   -0.9931   55.1297   73.9812 H   0  0  0  0  0  0  0  0  0  0  0  0
   -1.7793   57.5473   73.8291 H   0  0  0  0  0  0  0  0  0  0  0  0
   -0.7483   57.1091   75.2738 H   0  0  0  0  0  0  0  0  0  0  0  0
    3.6339   61.6737   73.0316 H   0  0  0  0  0  0  0  0  0  0  0  0
    2.6910   63.9047   73.6099 H   0  0  0  0  0  0  0  0  0  0  0  0
   -1.0465   62.0284   74.6543 H   0  0  0  0  0  0  0  0  0  0  0  0
  2  1  1  0
  3  2  1  0
  4  3  1  0
  5  4  1  0
  6  5  1  0
  8  7  2  0
  9  8  1  0
 10  9  1  0
 11 10  1  0
 11  6  1  1
 12 11  1  0
 13 11  1  0
 14 13  1  0
 15 14  1  0
 15  9  2  0
 16 15  1  0
 17 16  2  0
 17  7  1  0
 19 18  1  0
 19  7  1  0
 20 17  1  0
 21  1  1  0
 22 21  1  0
 23 22  1  0
 24 23  1  0
 25 24  1  0
 26 25  1  0
 27 26  1  0
 28 27  1  0
 29 28  1  0
 30 29  1  0
 31 30  1  0
 32 31  1  0
 33 32  1  0
 33 28  2  0
 34 33  1  0
 35 34  2  0
 36 35  1  0
 36 27  2  0
 37 36  1  0
 38 37  2  0
 39 38  1  0
 40 35  1  0
 40 39  2  0
 41 39  1  0
  1 42  1  0
  1 43  1  0
  2 44  1  0
  2 45  1  0
  3 46  1  0
  3 47  1  0
  4 48  1  0
  4 49  1  0
  5 50  1  0
  5 51  1  0
  6 52  1  0
  6 53  1  0
  8 54  1  0
 12 55  1  0
 12 56  1  0
 12 57  1  0
 13 58  1  0
 13 59  1  0
 14 60  1  0
 14 61  1  0
 16 62  1  0
 18 63  1  0
 18 64  1  0
 18 65  1  0
 20 66  1  0
 21 67  1  0
 21 68  1  0
 22 69  1  0
 22 70  1  0
 23 71  1  0
 23 72  1  0
 24 73  1  0
 24 74  1  0
 25 75  1  0
 25 76  1  0
 26 77  1  0
 29 78  1  0
 29 79  1  0
 30 80  1  0
 30 81  1  0
 31 82  1  0
 31 83  1  0
 32 84  1  0
 32 85  1  0
 37 86  1  0
 38 87  1  0
 40 88  1  0
M  CHG  1   4   1
M  END
>  <score>  (9) 
-9.833

$$$$
