=
     RDKit          3D

 19 20  0  0  0  0  0  0  0  0999 V2000
    4.5440   68.7130   62.4070 O   0  0  0  0  0  0  0  0  0  0  0  0
    4.6570   69.0410   63.5670 C   0  0  0  0  0  0  0  0  0  0  0  0
    5.8000   69.4290   64.2370 N   0  0  0  0  0  0  0  0  0  0  0  0
    5.5210   69.7300   65.5670 C   0  0  0  0  0  0  0  0  0  0  0  0
    4.1720   69.5580   65.8570 C   0  0  0  0  0  0  0  0  0  0  0  0
    3.5180   69.1110   64.6240 C   0  0  0  0  0  0  0  0  0  0  0  0
    2.3480   68.8540   64.4680 O   0  0  0  0  0  0  0  0  0  0  0  0
    3.6430   69.7940   67.1100 C   0  0  0  0  0  0  0  0  0  0  0  0
    4.5220   70.2240   68.1210 C   0  0  0  0  0  0  0  0  0  0  0  0
    5.8990   70.3970   67.8180 C   0  0  0  0  0  0  0  0  0  0  0  0
    6.4080   70.1490   66.5330 C   0  0  0  0  0  0  0  0  0  0  0  0
    7.1410   70.9750   69.1380 Br  0  0  0  0  0  0  0  0  0  0  0  0
    3.9690   70.4870   69.4960 C   0  0  0  0  0  0  0  0  0  0  0  0
    6.7352   69.4879   63.8094 H   0  0  0  0  0  0  0  0  0  0  0  0
    2.5711   69.6508   67.3112 H   0  0  0  0  0  0  0  0  0  0  0  0
    7.4759   70.2845   66.3066 H   0  0  0  0  0  0  0  0  0  0  0  0
    4.6898   70.1442   70.2529 H   0  0  0  0  0  0  0  0  0  0  0  0
    3.7923   71.5656   69.6200 H   0  0  0  0  0  0  0  0  0  0  0  0
    3.0208   69.9434   69.6200 H   0  0  0  0  0  0  0  0  0  0  0  0
  2  1  2  0
  3  2  1  0
  4  3  1  0
  5  4  2  0
  6  2  1  0
  6  5  1  0
  7  6  2  0
  8  5  1  0
  9  8  2  0
 10  9  1  0
 11 10  2  0
 11  4  1  0
 12 10  1  0
 13  9  1  0
  3 14  1  0
  8 15  1  0
 11 16  1  0
 13 17  1  0
 13 18  1  0
 13 19  1  0
M  END
>  <score>  (1) 
-8.595

$$$$
=
     RDKit          3D

 19 20  0  0  0  0  0  0  0  0999 V2000
    7.4470   71.4510   69.1400 O   0  0  0  0  0  0  0  0  0  0  0  0
    6.6200   70.9670   68.4000 C   0  0  0  0  0  0  0  0  0  0  0  0
    6.7560   70.6370   67.0660 N   0  0  0  0  0  0  0  0  0  0  0  0
    5.5750   70.1020   66.5610 C   0  0  0  0  0  0  0  0  0  0  0  0
    4.5830   70.0450   67.5340 C   0  0  0  0  0  0  0  0  0  0  0  0
    5.1580   70.5840   68.7690 C   0  0  0  0  0  0  0  0  0  0  0  0
    4.6100   70.7030   69.8400 O   0  0  0  0  0  0  0  0  0  0  0  0
    3.3190   69.5510   67.2810 C   0  0  0  0  0  0  0  0  0  0  0  0
    3.0430   69.0930   65.9800 C   0  0  0  0  0  0  0  0  0  0  0  0
    4.0610   69.1540   64.9910 C   0  0  0  0  0  0  0  0  0  0  0  0
    5.3390   69.6610   65.2780 C   0  0  0  0  0  0  0  0  0  0  0  0
    3.7540   68.5520   63.2130 Br  0  0  0  0  0  0  0  0  0  0  0  0
    1.6700   68.5510   65.6810 C   0  0  0  0  0  0  0  0  0  0  0  0
    7.6177   70.7694   66.5174 H   0  0  0  0  0  0  0  0  0  0  0  0
    2.5535   69.5167   68.0702 H   0  0  0  0  0  0  0  0  0  0  0  0
    6.1221   69.7042   64.5067 H   0  0  0  0  0  0  0  0  0  0  0  0
    1.1442   68.3434   66.6247 H   0  0  0  0  0  0  0  0  0  0  0  0
    1.1017   69.2923   65.1000 H   0  0  0  0  0  0  0  0  0  0  0  0
    1.7613   67.6214   65.1000 H   0  0  0  0  0  0  0  0  0  0  0  0
  2  1  2  0
  3  2  1  0
  4  3  1  0
  5  4  2  0
  6  2  1  0
  6  5  1  0
  7  6  2  0
  8  5  1  0
  9  8  2  0
 10  9  1  0
 11 10  2  0
 11  4  1  0
 12 10  1  0
 13  9  1  0
  3 14  1  0
  8 15  1  0
 11 16  1  0
 13 17  1  0
 13 18  1  0
 13 19  1  0
M  END
>  <score>  (2) 
-8.449

$$$$
=
     RDKit          3D

 19 20  0  0  0  0  0  0  0  0999 V2000
    2.8440   68.0620   61.8650 O   0  0  0  0  0  0  0  0  0  0  0  0
    3.2430   68.4590   62.9370 C   0  0  0  0  0  0  0  0  0  0  0  0
    2.5360   68.5930   64.1150 N   0  0  0  0  0  0  0  0  0  0  0  0
    3.3500   69.0840   65.1330 C   0  0  0  0  0  0  0  0  0  0  0  0
    4.6480   69.3040   64.6870 C   0  0  0  0  0  0  0  0  0  0  0  0
    4.6880   68.9300   63.2710 C   0  0  0  0  0  0  0  0  0  0  0  0
    5.6400   68.9780   62.5280 O   0  0  0  0  0  0  0  0  0  0  0  0
    5.6460   69.7890   65.5090 C   0  0  0  0  0  0  0  0  0  0  0  0
    5.3150   70.0660   66.8470 C   0  0  0  0  0  0  0  0  0  0  0  0
    3.9860   69.8390   67.2960 C   0  0  0  0  0  0  0  0  0  0  0  0
    2.9910   69.3440   66.4370 C   0  0  0  0  0  0  0  0  0  0  0  0
    3.4720   70.1930   69.0930 Br  0  0  0  0  0  0  0  0  0  0  0  0
    6.3870   70.5960   67.7620 C   0  0  0  0  0  0  0  0  0  0  0  0
    1.5387   68.3607   64.2264 H   0  0  0  0  0  0  0  0  0  0  0  0
    6.6654   69.9531   65.1298 H   0  0  0  0  0  0  0  0  0  0  0  0
    1.9644   69.1707   66.7921 H   0  0  0  0  0  0  0  0  0  0  0  0
    6.0831   70.4458   68.8085 H   0  0  0  0  0  0  0  0  0  0  0  0
    7.3286   70.0596   67.5730 H   0  0  0  0  0  0  0  0  0  0  0  0
    6.5325   71.6698   67.5730 H   0  0  0  0  0  0  0  0  0  0  0  0
  2  1  2  0
  3  2  1  0
  4  3  1  0
  5  4  2  0
  6  2  1  0
  6  5  1  0
  7  6  2  0
  8  5  1  0
  9  8  2  0
 10  9  1  0
 11 10  2  0
 11  4  1  0
 12 10  1  0
 13  9  1  0
  3 14  1  0
  8 15  1  0
 11 16  1  0
 13 17  1  0
 13 18  1  0
 13 19  1  0
M  END
>  <score>  (3) 
-8.337

$$$$
=
     RDKit          3D

 19 20  0  0  0  0  0  0  0  0999 V2000
    3.8180   70.5780   69.8970 O   0  0  0  0  0  0  0  0  0  0  0  0
    3.9060   70.2730   68.7280 C   0  0  0  0  0  0  0  0  0  0  0  0
    2.9130   69.8070   67.8900 N   0  0  0  0  0  0  0  0  0  0  0  0
    3.4100   69.5670   66.6120 C   0  0  0  0  0  0  0  0  0  0  0  0
    4.7660   69.8620   66.5280 C   0  0  0  0  0  0  0  0  0  0  0  0
    5.1890   70.3300   67.8510 C   0  0  0  0  0  0  0  0  0  0  0  0
    6.2970   70.6820   68.1820 O   0  0  0  0  0  0  0  0  0  0  0  0
    5.4910   69.7090   65.3640 C   0  0  0  0  0  0  0  0  0  0  0  0
    4.8120   69.2330   64.2280 C   0  0  0  0  0  0  0  0  0  0  0  0
    3.4260   68.9330   64.3210 C   0  0  0  0  0  0  0  0  0  0  0  0
    2.7150   69.1000   65.5200 C   0  0  0  0  0  0  0  0  0  0  0  0
    2.4480   68.2860   62.8230 Br  0  0  0  0  0  0  0  0  0  0  0  0
    5.5830   69.0570   62.9460 C   0  0  0  0  0  0  0  0  0  0  0  0
    1.9341   69.6568   68.1728 H   0  0  0  0  0  0  0  0  0  0  0  0
    6.5634   69.9510   65.3258 H   0  0  0  0  0  0  0  0  0  0  0  0
    1.6421   68.8662   65.5841 H   0  0  0  0  0  0  0  0  0  0  0  0
    6.6312   68.8177   63.1784 H   0  0  0  0  0  0  0  0  0  0  0  0
    5.1405   68.2368   62.3617 H   0  0  0  0  0  0  0  0  0  0  0  0
    5.5403   69.9880   62.3617 H   0  0  0  0  0  0  0  0  0  0  0  0
  2  1  2  0
  3  2  1  0
  4  3  1  0
  5  4  2  0
  6  2  1  0
  6  5  1  0
  7  6  2  0
  8  5  1  0
  9  8  2  0
 10  9  1  0
 11 10  2  0
 11  4  1  0
 12 10  1  0
 13  9  1  0
  3 14  1  0
  8 15  1  0
 11 16  1  0
 13 17  1  0
 13 18  1  0
 13 19  1  0
M  END
>  <score>  (4) 
-8.212

$$$$
=
     RDKit          3D

 19 20  0  0  0  0  0  0  0  0999 V2000
   -1.0400   68.3420   67.6230 O   0  0  0  0  0  0  0  0  0  0  0  0
    0.0870   68.5990   67.2630 C   0  0  0  0  0  0  0  0  0  0  0  0
    1.1290   69.1050   68.0150 N   0  0  0  0  0  0  0  0  0  0  0  0
    2.2730   69.2640   67.2380 C   0  0  0  0  0  0  0  0  0  0  0  0
    2.0550   68.8730   65.9220 C   0  0  0  0  0  0  0  0  0  0  0  0
    0.6640   68.4230   65.8300 C   0  0  0  0  0  0  0  0  0  0  0  0
    0.0940   68.0060   64.8500 O   0  0  0  0  0  0  0  0  0  0  0  0
    3.0380   68.9340   64.9550 C   0  0  0  0  0  0  0  0  0  0  0  0
    4.3030   69.4170   65.3360 C   0  0  0  0  0  0  0  0  0  0  0  0
    4.5180   69.8160   66.6820 C   0  0  0  0  0  0  0  0  0  0  0  0
    3.4990   69.7410   67.6460 C   0  0  0  0  0  0  0  0  0  0  0  0
    6.2040   70.4770   67.2640 Br  0  0  0  0  0  0  0  0  0  0  0  0
    5.3900   69.4940   64.2970 C   0  0  0  0  0  0  0  0  0  0  0  0
    1.0678   69.3342   69.0173 H   0  0  0  0  0  0  0  0  0  0  0  0
    2.8389   68.6156   63.9211 H   0  0  0  0  0  0  0  0  0  0  0  0
    3.6735   70.0513   68.6868 H   0  0  0  0  0  0  0  0  0  0  0  0
    6.3686   69.5633   64.7946 H   0  0  0  0  0  0  0  0  0  0  0  0
    5.3612   68.5916   63.6687 H   0  0  0  0  0  0  0  0  0  0  0  0
    5.2343   70.3834   63.6687 H   0  0  0  0  0  0  0  0  0  0  0  0
  2  1  2  0
  3  2  1  0
  4  3  1  0
  5  4  2  0
  6  2  1  0
  6  5  1  0
  7  6  2  0
  8  5  1  0
  9  8  2  0
 10  9  1  0
 11 10  2  0
 11  4  1  0
 12 10  1  0
 13  9  1  0
  3 14  1  0
  8 15  1  0
 11 16  1  0
 13 17  1  0
 13 18  1  0
 13 19  1  0
M  END
>  <score>  (5) 
-8.177

$$$$
=
     RDKit          3D

 19 20  0  0  0  0  0  0  0  0999 V2000
   -1.4950   68.0960   65.8670 O   0  0  0  0  0  0  0  0  0  0  0  0
   -0.3200   68.3360   65.6970 C   0  0  0  0  0  0  0  0  0  0  0  0
    0.3980   68.2950   64.5190 N   0  0  0  0  0  0  0  0  0  0  0  0
    1.7300   68.6390   64.7350 C   0  0  0  0  0  0  0  0  0  0  0  0
    1.9720   68.9290   66.0730 C   0  0  0  0  0  0  0  0  0  0  0  0
    0.7040   68.7620   66.7880 C   0  0  0  0  0  0  0  0  0  0  0  0
    0.5030   68.9230   67.9680 O   0  0  0  0  0  0  0  0  0  0  0  0
    3.2170   69.2980   66.5420 C   0  0  0  0  0  0  0  0  0  0  0  0
    4.2690   69.3770   65.6120 C   0  0  0  0  0  0  0  0  0  0  0  0
    4.0150   69.0790   64.2460 C   0  0  0  0  0  0  0  0  0  0  0  0
    2.7370   68.7070   63.7980 C   0  0  0  0  0  0  0  0  0  0  0  0
    5.3930   69.1670   62.9380 Br  0  0  0  0  0  0  0  0  0  0  0  0
    5.6370   69.7770   66.1000 C   0  0  0  0  0  0  0  0  0  0  0  0
    0.0015   68.0435   63.6023 H   0  0  0  0  0  0  0  0  0  0  0  0
    3.3805   69.5225   67.6064 H   0  0  0  0  0  0  0  0  0  0  0  0
    2.5475   68.4786   62.7388 H   0  0  0  0  0  0  0  0  0  0  0  0
    5.6475   69.7801   67.1999 H   0  0  0  0  0  0  0  0  0  0  0  0
    6.3832   69.0594   65.7282 H   0  0  0  0  0  0  0  0  0  0  0  0
    5.8791   70.7835   65.7282 H   0  0  0  0  0  0  0  0  0  0  0  0
  2  1  2  0
  3  2  1  0
  4  3  1  0
  5  4  2  0
  6  2  1  0
  6  5  1  0
  7  6  2  0
  8  5  1  0
  9  8  2  0
 10  9  1  0
 11 10  2  0
 11  4  1  0
 12 10  1  0
 13  9  1  0
  3 14  1  0
  8 15  1  0
 11 16  1  0
 13 17  1  0
 13 18  1  0
 13 19  1  0
M  END
>  <score>  (6) 
-7.985

$$$$
=
     RDKit          3D

 19 20  0  0  0  0  0  0  0  0999 V2000
    3.8010   67.7890   61.0650 O   0  0  0  0  0  0  0  0  0  0  0  0
    3.8590   68.1720   62.2120 C   0  0  0  0  0  0  0  0  0  0  0  0
    2.8300   68.2950   63.1250 N   0  0  0  0  0  0  0  0  0  0  0  0
    3.3010   68.7720   64.3450 C   0  0  0  0  0  0  0  0  0  0  0  0
    4.6730   68.9920   64.3130 C   0  0  0  0  0  0  0  0  0  0  0  0
    5.1370   68.6340   62.9700 C   0  0  0  0  0  0  0  0  0  0  0  0
    6.2680   68.6870   62.5490 O   0  0  0  0  0  0  0  0  0  0  0  0
    5.3780   69.4640   65.4030 C   0  0  0  0  0  0  0  0  0  0  0  0
    4.6590   69.7270   66.5830 C   0  0  0  0  0  0  0  0  0  0  0  0
    3.2570   69.5000   66.6090 C   0  0  0  0  0  0  0  0  0  0  0  0
    2.5670   69.0190   65.4840 C   0  0  0  0  0  0  0  0  0  0  0  0
    2.2260   69.8350   68.1720 Br  0  0  0  0  0  0  0  0  0  0  0  0
    5.4070   70.2430   67.7840 C   0  0  0  0  0  0  0  0  0  0  0  0
    1.8454   68.0645   62.9293 H   0  0  0  0  0  0  0  0  0  0  0  0
    6.4643   69.6286   65.3501 H   0  0  0  0  0  0  0  0  0  0  0  0
    1.4810   68.8461   65.5116 H   0  0  0  0  0  0  0  0  0  0  0  0
    4.9083   69.8990   68.7022 H   0  0  0  0  0  0  0  0  0  0  0  0
    6.4395   69.8641   67.7635 H   0  0  0  0  0  0  0  0  0  0  0  0
    5.4195   71.3427   67.7635 H   0  0  0  0  0  0  0  0  0  0  0  0
  2  1  2  0
  3  2  1  0
  4  3  1  0
  5  4  2  0
  6  2  1  0
  6  5  1  0
  7  6  2  0
  8  5  1  0
  9  8  2  0
 10  9  1  0
 11 10  2  0
 11  4  1  0
 12 10  1  0
 13  9  1  0
  3 14  1  0
  8 15  1  0
 11 16  1  0
 13 17  1  0
 13 18  1  0
 13 19  1  0
M  END
>  <score>  (7) 
-7.847

$$$$
=
     RDKit          3D

 19 20  0  0  0  0  0  0  0  0999 V2000
   -2.2320   68.6970   66.4140 O   0  0  0  0  0  0  0  0  0  0  0  0
   -1.1220   68.6890   65.9310 C   0  0  0  0  0  0  0  0  0  0  0  0
   -0.7730   68.6750   64.5950 N   0  0  0  0  0  0  0  0  0  0  0  0
    0.6100   68.6700   64.4410 C   0  0  0  0  0  0  0  0  0  0  0  0
    1.2610   68.6800   65.6690 C   0  0  0  0  0  0  0  0  0  0  0  0
    0.2260   68.6930   66.7060 C   0  0  0  0  0  0  0  0  0  0  0  0
    0.3900   68.7040   67.9030 O   0  0  0  0  0  0  0  0  0  0  0  0
    2.6370   68.6790   65.7830 C   0  0  0  0  0  0  0  0  0  0  0  0
    3.3920   68.6660   64.5970 C   0  0  0  0  0  0  0  0  0  0  0  0
    2.7210   68.6550   63.3450 C   0  0  0  0  0  0  0  0  0  0  0  0
    1.3190   68.6570   63.2600 C   0  0  0  0  0  0  0  0  0  0  0  0
    3.6820   68.6360   61.7030 Br  0  0  0  0  0  0  0  0  0  0  0  0
    4.8950   68.6630   64.6970 C   0  0  0  0  0  0  0  0  0  0  0  0
   -1.4468   68.6690   63.8160 H   0  0  0  0  0  0  0  0  0  0  0  0
    3.1260   68.6881   66.7683 H   0  0  0  0  0  0  0  0  0  0  0  0
    0.8064   68.6485   62.2868 H   0  0  0  0  0  0  0  0  0  0  0  0
    5.1920   68.6624   65.7561 H   0  0  0  0  0  0  0  0  0  0  0  0
    5.2935   67.7641   64.2039 H   0  0  0  0  0  0  0  0  0  0  0  0
    5.2971   69.5603   64.2039 H   0  0  0  0  0  0  0  0  0  0  0  0
  2  1  2  0
  3  2  1  0
  4  3  1  0
  5  4  2  0
  6  2  1  0
  6  5  1  0
  7  6  2  0
  8  5  1  0
  9  8  2  0
 10  9  1  0
 11 10  2  0
 11  4  1  0
 12 10  1  0
 13  9  1  0
  3 14  1  0
  8 15  1  0
 11 16  1  0
 13 17  1  0
 13 18  1  0
 13 19  1  0
M  END
>  <score>  (8) 
-7.24

$$$$
=
     RDKit          3D

 19 20  0  0  0  0  0  0  0  0999 V2000
    3.1660   68.8200   60.4850 O   0  0  0  0  0  0  0  0  0  0  0  0
    2.7180   68.7990   61.6090 C   0  0  0  0  0  0  0  0  0  0  0  0
    1.3940   68.7620   62.0000 N   0  0  0  0  0  0  0  0  0  0  0  0
    1.2840   68.7460   63.3880 C   0  0  0  0  0  0  0  0  0  0  0  0
    2.5330   68.7710   64.0000 C   0  0  0  0  0  0  0  0  0  0  0  0
    3.5360   68.8070   62.9320 C   0  0  0  0  0  0  0  0  0  0  0  0
    4.7370   68.8350   63.0580 O   0  0  0  0  0  0  0  0  0  0  0  0
    2.6910   68.7610   65.3710 C   0  0  0  0  0  0  0  0  0  0  0  0
    1.5300   68.7250   66.1630 C   0  0  0  0  0  0  0  0  0  0  0  0
    0.2570   68.7000   65.5320 C   0  0  0  0  0  0  0  0  0  0  0  0
    0.1270   68.7100   64.1340 C   0  0  0  0  0  0  0  0  0  0  0  0
   -1.3530   68.6500   66.5450 Br  0  0  0  0  0  0  0  0  0  0  0  0
    1.6770   68.7140   67.6620 C   0  0  0  0  0  0  0  0  0  0  0  0
    0.5942   68.7481   61.3511 H   0  0  0  0  0  0  0  0  0  0  0  0
    3.6912   68.7805   65.8284 H   0  0  0  0  0  0  0  0  0  0  0  0
   -0.8619   68.6898   63.6527 H   0  0  0  0  0  0  0  0  0  0  0  0
    0.6835   68.7883   68.1284 H   0  0  0  0  0  0  0  0  0  0  0  0
    2.1604   67.7772   67.9762 H   0  0  0  0  0  0  0  0  0  0  0  0
    2.2944   69.5685   67.9762 H   0  0  0  0  0  0  0  0  0  0  0  0
  2  1  2  0
  3  2  1  0
  4  3  1  0
  5  4  2  0
  6  2  1  0
  6  5  1  0
  7  6  2  0
  8  5  1  0
  9  8  2  0
 10  9  1  0
 11 10  2  0
 11  4  1  0
 12 10  1  0
 13  9  1  0
  3 14  1  0
  8 15  1  0
 11 16  1  0
 13 17  1  0
 13 18  1  0
 13 19  1  0
M  END
>  <score>  (9) 
-7.207

$$$$
