=
     RDKit          3D

 22 22  0  0  0  0  0  0  0  0999 V2000
    4.2090   69.0460   64.2160 C   0  0  0  0  0  0  0  0  0  0  0  0
    4.3280   69.5010   65.6500 C   0  0  0  0  0  0  0  0  0  0  0  0
    3.2360   69.3960   66.5230 C   0  0  0  0  0  0  0  0  0  0  0  0
    3.3540   69.7990   67.8530 C   0  0  0  0  0  0  0  0  0  0  0  0
    4.5620   70.3050   68.3260 C   0  0  0  0  0  0  0  0  0  0  0  0
    5.6570   70.4080   67.4690 C   0  0  0  0  0  0  0  0  0  0  0  0
    5.5420   70.0050   66.1370 C   0  0  0  0  0  0  0  0  0  0  0  0
    5.4550   69.4150   63.3980 C   0  0  0  0  0  0  0  0  0  0  0  0
    5.4430   68.8500   62.0400 N   0  0  0  0  0  0  0  0  0  0  0  0
    5.5450   67.4150   62.0580 N   0  0  0  0  0  0  0  0  0  0  0  0
    4.0814   67.9536   64.1980 H   0  0  0  0  0  0  0  0  0  0  0  0
    3.3416   69.5516   63.7666 H   0  0  0  0  0  0  0  0  0  0  0  0
    2.2802   68.9933   66.1567 H   0  0  0  0  0  0  0  0  0  0  0  0
    2.4908   69.7169   68.5299 H   0  0  0  0  0  0  0  0  0  0  0  0
    4.6523   70.6232   69.3751 H   0  0  0  0  0  0  0  0  0  0  0  0
    6.6118   70.8068   67.8423 H   0  0  0  0  0  0  0  0  0  0  0  0
    6.4097   70.0835   65.4655 H   0  0  0  0  0  0  0  0  0  0  0  0
    5.5108   70.5108   63.3206 H   0  0  0  0  0  0  0  0  0  0  0  0
    6.3265   68.9936   63.9204 H   0  0  0  0  0  0  0  0  0  0  0  0
    4.5628   69.1160   61.5759 H   0  0  0  0  0  0  0  0  0  0  0  0
    5.5685   67.0847   63.0333 H   0  0  0  0  0  0  0  0  0  0  0  0
    4.7309   67.0069   61.5768 H   0  0  0  0  0  0  0  0  0  0  0  0
  2  1  1  0
  3  2  2  0
  4  3  1  0
  5  4  2  0
  6  5  1  0
  7  2  1  0
  7  6  2  0
  8  1  1  0
  9  8  1  0
 10  9  1  0
  1 11  1  0
  1 12  1  0
  3 13  1  0
  4 14  1  0
  5 15  1  0
  6 16  1  0
  7 17  1  0
  8 18  1  0
  8 19  1  0
  9 20  1  0
 10 21  1  0
 10 22  1  0
M  END
>  <score>  (1) 
-6.601

$$$$
=
     RDKit          3D

 22 22  0  0  0  0  0  0  0  0999 V2000
    5.8350   70.2310   66.6370 C   0  0  0  0  0  0  0  0  0  0  0  0
    4.8870   69.7020   65.5880 C   0  0  0  0  0  0  0  0  0  0  0  0
    5.3090   69.5490   64.2610 C   0  0  0  0  0  0  0  0  0  0  0  0
    4.4370   69.0420   63.2960 C   0  0  0  0  0  0  0  0  0  0  0  0
    3.1390   68.6790   63.6490 C   0  0  0  0  0  0  0  0  0  0  0  0
    2.7110   68.8210   64.9680 C   0  0  0  0  0  0  0  0  0  0  0  0
    3.5810   69.3270   65.9350 C   0  0  0  0  0  0  0  0  0  0  0  0
    5.1740   70.2870   68.0230 C   0  0  0  0  0  0  0  0  0  0  0  0
    4.8450   71.6550   68.4510 N   0  0  0  0  0  0  0  0  0  0  0  0
    5.8550   72.5980   68.0450 N   0  0  0  0  0  0  0  0  0  0  0  0
    6.7144   69.5722   66.6877 H   0  0  0  0  0  0  0  0  0  0  0  0
    6.1247   71.2536   66.3534 H   0  0  0  0  0  0  0  0  0  0  0  0
    6.3340   69.8302   63.9776 H   0  0  0  0  0  0  0  0  0  0  0  0
    4.7751   68.9289   62.2554 H   0  0  0  0  0  0  0  0  0  0  0  0
    2.4525   68.2807   62.8874 H   0  0  0  0  0  0  0  0  0  0  0  0
    1.6864   68.5339   65.2470 H   0  0  0  0  0  0  0  0  0  0  0  0
    3.2402   69.4323   66.9756 H   0  0  0  0  0  0  0  0  0  0  0  0
    4.2460   69.6972   67.9923 H   0  0  0  0  0  0  0  0  0  0  0  0
    5.8961   69.8818   68.7471 H   0  0  0  0  0  0  0  0  0  0  0  0
    3.9450   71.9286   68.0314 H   0  0  0  0  0  0  0  0  0  0  0  0
    6.2959   73.0096   68.8799 H   0  0  0  0  0  0  0  0  0  0  0  0
    6.5697   72.1147   67.4824 H   0  0  0  0  0  0  0  0  0  0  0  0
  2  1  1  0
  3  2  2  0
  4  3  1  0
  5  4  2  0
  6  5  1  0
  7  2  1  0
  7  6  2  0
  8  1  1  0
  9  8  1  0
 10  9  1  0
  1 11  1  0
  1 12  1  0
  3 13  1  0
  4 14  1  0
  5 15  1  0
  6 16  1  0
  7 17  1  0
  8 18  1  0
  8 19  1  0
  9 20  1  0
 10 21  1  0
 10 22  1  0
M  END
>  <score>  (2) 
-6.586

$$$$
=
     RDKit          3D

 22 22  0  0  0  0  0  0  0  0999 V2000
    4.7610   69.0770   63.3530 C   0  0  0  0  0  0  0  0  0  0  0  0
    4.5160   69.3280   64.8220 C   0  0  0  0  0  0  0  0  0  0  0  0
    5.5320   69.8510   65.6330 C   0  0  0  0  0  0  0  0  0  0  0  0
    5.2990   70.1000   66.9860 C   0  0  0  0  0  0  0  0  0  0  0  0
    4.0490   69.8330   67.5400 C   0  0  0  0  0  0  0  0  0  0  0  0
    3.0290   69.3180   66.7410 C   0  0  0  0  0  0  0  0  0  0  0  0
    3.2600   69.0690   65.3870 C   0  0  0  0  0  0  0  0  0  0  0  0
    3.5150   68.5070   62.6590 C   0  0  0  0  0  0  0  0  0  0  0  0
    3.7970   67.9600   61.3240 N   0  0  0  0  0  0  0  0  0  0  0  0
    3.5070   68.9120   60.2850 N   0  0  0  0  0  0  0  0  0  0  0  0
    5.0353   70.0264   62.8699 H   0  0  0  0  0  0  0  0  0  0  0  0
    5.5722   68.3397   63.2615 H   0  0  0  0  0  0  0  0  0  0  0  0
    6.5199   70.0667   65.2001 H   0  0  0  0  0  0  0  0  0  0  0  0
    6.1033   70.5076   67.6160 H   0  0  0  0  0  0  0  0  0  0  0  0
    3.8668   70.0283   68.6071 H   0  0  0  0  0  0  0  0  0  0  0  0
    2.0416   69.1078   67.1779 H   0  0  0  0  0  0  0  0  0  0  0  0
    2.4509   68.6669   64.7595 H   0  0  0  0  0  0  0  0  0  0  0  0
    3.1019   67.7034   63.2863 H   0  0  0  0  0  0  0  0  0  0  0  0
    2.8038   69.3361   62.5298 H   0  0  0  0  0  0  0  0  0  0  0  0
    4.7931   67.7031   61.2724 H   0  0  0  0  0  0  0  0  0  0  0  0
    3.2334   69.8100   60.7088 H   0  0  0  0  0  0  0  0  0  0  0  0
    4.3445   69.0488   59.7012 H   0  0  0  0  0  0  0  0  0  0  0  0
  2  1  1  0
  3  2  2  0
  4  3  1  0
  5  4  2  0
  6  5  1  0
  7  2  1  0
  7  6  2  0
  8  1  1  0
  9  8  1  0
 10  9  1  0
  1 11  1  0
  1 12  1  0
  3 13  1  0
  4 14  1  0
  5 15  1  0
  6 16  1  0
  7 17  1  0
  8 18  1  0
  8 19  1  0
  9 20  1  0
 10 21  1  0
 10 22  1  0
M  END
>  <score>  (3) 
-6.553

$$$$
=
     RDKit          3D

 22 22  0  0  0  0  0  0  0  0999 V2000
    3.7670   69.1450   65.5810 C   0  0  0  0  0  0  0  0  0  0  0  0
    4.5850   69.7650   66.6880 C   0  0  0  0  0  0  0  0  0  0  0  0
    3.9880   70.1070   67.9080 C   0  0  0  0  0  0  0  0  0  0  0  0
    4.7490   70.6630   68.9370 C   0  0  0  0  0  0  0  0  0  0  0  0
    6.1140   70.8770   68.7580 C   0  0  0  0  0  0  0  0  0  0  0  0
    6.7200   70.5340   67.5510 C   0  0  0  0  0  0  0  0  0  0  0  0
    5.9600   69.9780   66.5200 C   0  0  0  0  0  0  0  0  0  0  0  0
    2.4380   68.5820   66.1050 C   0  0  0  0  0  0  0  0  0  0  0  0
    2.2380   67.1650   65.7670 N   0  0  0  0  0  0  0  0  0  0  0  0
    0.8410   66.8300   65.6740 N   0  0  0  0  0  0  0  0  0  0  0  0
    3.5547   69.9122   64.8218 H   0  0  0  0  0  0  0  0  0  0  0  0
    4.3457   68.3145   65.1505 H   0  0  0  0  0  0  0  0  0  0  0  0
    2.9115   69.9361   68.0560 H   0  0  0  0  0  0  0  0  0  0  0  0
    4.2708   70.9326   69.8902 H   0  0  0  0  0  0  0  0  0  0  0  0
    6.7131   71.3165   69.5691 H   0  0  0  0  0  0  0  0  0  0  0  0
    7.7980   70.7014   67.4103 H   0  0  0  0  0  0  0  0  0  0  0  0
    6.4434   69.7055   65.5702 H   0  0  0  0  0  0  0  0  0  0  0  0
    2.4211   68.6864   67.1999 H   0  0  0  0  0  0  0  0  0  0  0  0
    1.6287   69.1510   65.6242 H   0  0  0  0  0  0  0  0  0  0  0  0
    2.6884   66.9715   64.8611 H   0  0  0  0  0  0  0  0  0  0  0  0
    0.4468   66.7355   66.6209 H   0  0  0  0  0  0  0  0  0  0  0  0
    0.3422   67.5752   65.1673 H   0  0  0  0  0  0  0  0  0  0  0  0
  2  1  1  0
  3  2  2  0
  4  3  1  0
  5  4  2  0
  6  5  1  0
  7  2  1  0
  7  6  2  0
  8  1  1  0
  9  8  1  0
 10  9  1  0
  1 11  1  0
  1 12  1  0
  3 13  1  0
  4 14  1  0
  5 15  1  0
  6 16  1  0
  7 17  1  0
  8 18  1  0
  8 19  1  0
  9 20  1  0
 10 21  1  0
 10 22  1  0
M  END
>  <score>  (4) 
-6.522

$$$$
=
     RDKit          3D

 22 22  0  0  0  0  0  0  0  0999 V2000
    4.1470   69.0110   63.8620 C   0  0  0  0  0  0  0  0  0  0  0  0
    4.3860   69.4120   65.2980 C   0  0  0  0  0  0  0  0  0  0  0  0
    5.6520   69.8480   65.7130 C   0  0  0  0  0  0  0  0  0  0  0  0
    5.8670   70.2360   67.0360 C   0  0  0  0  0  0  0  0  0  0  0  0
    4.8210   70.1950   67.9550 C   0  0  0  0  0  0  0  0  0  0  0  0
    3.5560   69.7680   67.5510 C   0  0  0  0  0  0  0  0  0  0  0  0
    3.3390   69.3800   66.2280 C   0  0  0  0  0  0  0  0  0  0  0  0
    5.4580   68.9440   63.0650 C   0  0  0  0  0  0  0  0  0  0  0  0
    5.4310   67.9370   61.9930 N   0  0  0  0  0  0  0  0  0  0  0  0
    4.0890   67.5110   61.6950 N   0  0  0  0  0  0  0  0  0  0  0  0
    3.6676   68.0211   63.8434 H   0  0  0  0  0  0  0  0  0  0  0  0
    3.5015   69.7706   63.3969 H   0  0  0  0  0  0  0  0  0  0  0  0
    6.4812   69.8845   64.9911 H   0  0  0  0  0  0  0  0  0  0  0  0
    6.8641   70.5748   67.3537 H   0  0  0  0  0  0  0  0  0  0  0  0
    4.9924   70.4990   68.9982 H   0  0  0  0  0  0  0  0  0  0  0  0
    2.7289   69.7371   68.2756 H   0  0  0  0  0  0  0  0  0  0  0  0
    2.3390   69.0468   65.9135 H   0  0  0  0  0  0  0  0  0  0  0  0
    5.6445   69.9300   62.6144 H   0  0  0  0  0  0  0  0  0  0  0  0
    6.2540   68.6545   63.7668 H   0  0  0  0  0  0  0  0  0  0  0  0
    5.8486   68.3429   61.1434 H   0  0  0  0  0  0  0  0  0  0  0  0
    3.5772   67.3485   62.5740 H   0  0  0  0  0  0  0  0  0  0  0  0
    3.6102   68.2414   61.1489 H   0  0  0  0  0  0  0  0  0  0  0  0
  2  1  1  0
  3  2  2  0
  4  3  1  0
  5  4  2  0
  6  5  1  0
  7  2  1  0
  7  6  2  0
  8  1  1  0
  9  8  1  0
 10  9  1  0
  1 11  1  0
  1 12  1  0
  3 13  1  0
  4 14  1  0
  5 15  1  0
  6 16  1  0
  7 17  1  0
  8 18  1  0
  8 19  1  0
  9 20  1  0
 10 21  1  0
 10 22  1  0
M  END
>  <score>  (5) 
-6.505

$$$$
=
     RDKit          3D

 22 22  0  0  0  0  0  0  0  0999 V2000
    2.7630   70.1090   68.6910 C   0  0  0  0  0  0  0  0  0  0  0  0
    4.1880   70.2260   68.2070 C   0  0  0  0  0  0  0  0  0  0  0  0
    4.5310   69.8420   66.9040 C   0  0  0  0  0  0  0  0  0  0  0  0
    5.8450   69.9680   66.4520 C   0  0  0  0  0  0  0  0  0  0  0  0
    6.8270   70.4850   67.2950 C   0  0  0  0  0  0  0  0  0  0  0  0
    6.4960   70.8760   68.5910 C   0  0  0  0  0  0  0  0  0  0  0  0
    5.1820   70.7510   69.0450 C   0  0  0  0  0  0  0  0  0  0  0  0
    1.8590   69.4470   67.6400 C   0  0  0  0  0  0  0  0  0  0  0  0
    0.8460   68.5570   68.2280 N   0  0  0  0  0  0  0  0  0  0  0  0
    1.3940   67.7510   69.2870 N   0  0  0  0  0  0  0  0  0  0  0  0
    2.7467   69.5023   69.6084 H   0  0  0  0  0  0  0  0  0  0  0  0
    2.3813   71.1228   68.8823 H   0  0  0  0  0  0  0  0  0  0  0  0
    3.7589   69.4383   66.2325 H   0  0  0  0  0  0  0  0  0  0  0  0
    6.1061   69.6589   65.4291 H   0  0  0  0  0  0  0  0  0  0  0  0
    7.8626   70.5844   66.9377 H   0  0  0  0  0  0  0  0  0  0  0  0
    7.2710   71.2835   69.2568 H   0  0  0  0  0  0  0  0  0  0  0  0
    4.9246   71.0664   70.0669 H   0  0  0  0  0  0  0  0  0  0  0  0
    1.3443   70.2370   67.0734 H   0  0  0  0  0  0  0  0  0  0  0  0
    2.5027   68.8304   66.9955 H   0  0  0  0  0  0  0  0  0  0  0  0
    0.0787   69.1298   68.6076 H   0  0  0  0  0  0  0  0  0  0  0  0
    1.1230   68.1496   70.1972 H   0  0  0  0  0  0  0  0  0  0  0  0
    1.0301   66.7904   69.2108 H   0  0  0  0  0  0  0  0  0  0  0  0
  2  1  1  0
  3  2  2  0
  4  3  1  0
  5  4  2  0
  6  5  1  0
  7  2  1  0
  7  6  2  0
  8  1  1  0
  9  8  1  0
 10  9  1  0
  1 11  1  0
  1 12  1  0
  3 13  1  0
  4 14  1  0
  5 15  1  0
  6 16  1  0
  7 17  1  0
  8 18  1  0
  8 19  1  0
  9 20  1  0
 10 21  1  0
 10 22  1  0
M  END
>  <score>  (6) 
-6.401

$$$$
=
     RDKit          3D

 22 22  0  0  0  0  0  0  0  0999 V2000
    3.4240   59.3370   69.7700 C   0  0  0  0  0  0  0  0  0  0  0  0
    3.8540   60.7730   69.9540 C   0  0  0  0  0  0  0  0  0  0  0  0
    3.2600   61.7950   69.2030 C   0  0  0  0  0  0  0  0  0  0  0  0
    3.6460   63.1230   69.3870 C   0  0  0  0  0  0  0  0  0  0  0  0
    4.6250   63.4420   70.3260 C   0  0  0  0  0  0  0  0  0  0  0  0
    5.2180   62.4340   71.0830 C   0  0  0  0  0  0  0  0  0  0  0  0
    4.8330   61.1040   70.9000 C   0  0  0  0  0  0  0  0  0  0  0  0
    3.5810   58.5270   71.0650 C   0  0  0  0  0  0  0  0  0  0  0  0
    2.9420   57.2040   71.0000 N   0  0  0  0  0  0  0  0  0  0  0  0
    3.8500   56.1950   70.5230 N   0  0  0  0  0  0  0  0  0  0  0  0
    2.3678   59.3176   69.4632 H   0  0  0  0  0  0  0  0  0  0  0  0
    4.0661   58.8825   69.0012 H   0  0  0  0  0  0  0  0  0  0  0  0
    2.4840   61.5491   68.4632 H   0  0  0  0  0  0  0  0  0  0  0  0
    3.1770   63.9192   68.7902 H   0  0  0  0  0  0  0  0  0  0  0  0
    4.9294   64.4893   70.4694 H   0  0  0  0  0  0  0  0  0  0  0  0
    5.9898   62.6857   71.8252 H   0  0  0  0  0  0  0  0  0  0  0  0
    5.3013   60.3115   71.5023 H   0  0  0  0  0  0  0  0  0  0  0  0
    4.6541   58.3880   71.2628 H   0  0  0  0  0  0  0  0  0  0  0  0
    3.0837   59.0920   71.8671 H   0  0  0  0  0  0  0  0  0  0  0  0
    2.6189   56.9431   71.9426 H   0  0  0  0  0  0  0  0  0  0  0  0
    4.2820   55.7149   71.3253 H   0  0  0  0  0  0  0  0  0  0  0  0
    3.3339   55.5113   69.9511 H   0  0  0  0  0  0  0  0  0  0  0  0
  2  1  1  0
  3  2  2  0
  4  3  1  0
  5  4  2  0
  6  5  1  0
  7  2  1  0
  7  6  2  0
  8  1  1  0
  9  8  1  0
 10  9  1  0
  1 11  1  0
  1 12  1  0
  3 13  1  0
  4 14  1  0
  5 15  1  0
  6 16  1  0
  7 17  1  0
  8 18  1  0
  8 19  1  0
  9 20  1  0
 10 21  1  0
 10 22  1  0
M  END
>  <score>  (7) 
-6.272

$$$$
=
     RDKit          3D

 22 22  0  0  0  0  0  0  0  0999 V2000
    1.5700   68.6510   64.9610 C   0  0  0  0  0  0  0  0  0  0  0  0
    2.9620   69.0930   65.3440 C   0  0  0  0  0  0  0  0  0  0  0  0
    3.2680   69.4060   66.6750 C   0  0  0  0  0  0  0  0  0  0  0  0
    4.5590   69.7960   67.0300 C   0  0  0  0  0  0  0  0  0  0  0  0
    5.5580   69.8710   66.0620 C   0  0  0  0  0  0  0  0  0  0  0  0
    5.2660   69.5550   64.7360 C   0  0  0  0  0  0  0  0  0  0  0  0
    3.9750   69.1650   64.3780 C   0  0  0  0  0  0  0  0  0  0  0  0
    0.7220   68.3110   66.1960 C   0  0  0  0  0  0  0  0  0  0  0  0
    0.2620   66.9140   66.2140 N   0  0  0  0  0  0  0  0  0  0  0  0
   -1.0410   66.7890   66.8120 N   0  0  0  0  0  0  0  0  0  0  0  0
    1.0790   69.4624   64.4038 H   0  0  0  0  0  0  0  0  0  0  0  0
    1.6557   67.7446   64.3437 H   0  0  0  0  0  0  0  0  0  0  0  0
    2.4848   69.3437   67.4449 H   0  0  0  0  0  0  0  0  0  0  0  0
    4.7889   70.0449   68.0765 H   0  0  0  0  0  0  0  0  0  0  0  0
    6.5757   70.1791   66.3435 H   0  0  0  0  0  0  0  0  0  0  0  0
    6.0543   69.6132   63.9710 H   0  0  0  0  0  0  0  0  0  0  0  0
    3.7509   68.9125   63.3311 H   0  0  0  0  0  0  0  0  0  0  0  0
    1.3271   68.4918   67.0966 H   0  0  0  0  0  0  0  0  0  0  0  0
   -0.1727   68.9503   66.1653 H   0  0  0  0  0  0  0  0  0  0  0  0
    0.2198   66.5642   65.2461 H   0  0  0  0  0  0  0  0  0  0  0  0
   -0.9502   66.7977   67.8380 H   0  0  0  0  0  0  0  0  0  0  0  0
   -1.6330   67.5771   66.5130 H   0  0  0  0  0  0  0  0  0  0  0  0
  2  1  1  0
  3  2  2  0
  4  3  1  0
  5  4  2  0
  6  5  1  0
  7  2  1  0
  7  6  2  0
  8  1  1  0
  9  8  1  0
 10  9  1  0
  1 11  1  0
  1 12  1  0
  3 13  1  0
  4 14  1  0
  5 15  1  0
  6 16  1  0
  7 17  1  0
  8 18  1  0
  8 19  1  0
  9 20  1  0
 10 21  1  0
 10 22  1  0
M  END
>  <score>  (8) 
-6.236

$$$$
=
     RDKit          3D

 22 22  0  0  0  0  0  0  0  0999 V2000
    0.8690   68.7880   67.3140 C   0  0  0  0  0  0  0  0  0  0  0  0
    2.3090   69.1530   67.0440 C   0  0  0  0  0  0  0  0  0  0  0  0
    2.8830   68.9010   65.7920 C   0  0  0  0  0  0  0  0  0  0  0  0
    4.2090   69.2550   65.5380 C   0  0  0  0  0  0  0  0  0  0  0  0
    4.9700   69.8690   66.5310 C   0  0  0  0  0  0  0  0  0  0  0  0
    4.4060   70.1310   67.7780 C   0  0  0  0  0  0  0  0  0  0  0  0
    3.0800   69.7770   68.0340 C   0  0  0  0  0  0  0  0  0  0  0  0
    0.2810   67.9240   66.1880 C   0  0  0  0  0  0  0  0  0  0  0  0
   -1.0390   68.3870   65.7340 N   0  0  0  0  0  0  0  0  0  0  0  0
   -0.9990   68.8630   64.3760 N   0  0  0  0  0  0  0  0  0  0  0  0
    0.8145   68.2275   68.2589 H   0  0  0  0  0  0  0  0  0  0  0  0
    0.2848   69.7182   67.3731 H   0  0  0  0  0  0  0  0  0  0  0  0
    2.2850   68.4209   65.0034 H   0  0  0  0  0  0  0  0  0  0  0  0
    4.6537   69.0492   64.5532 H   0  0  0  0  0  0  0  0  0  0  0  0
    6.0153   70.1467   66.3305 H   0  0  0  0  0  0  0  0  0  0  0  0
    5.0060   70.6171   68.5613 H   0  0  0  0  0  0  0  0  0  0  0  0
    2.6378   69.9891   69.0186 H   0  0  0  0  0  0  0  0  0  0  0  0
    0.9726   67.9456   65.3329 H   0  0  0  0  0  0  0  0  0  0  0  0
    0.1519   66.9076   66.5883 H   0  0  0  0  0  0  0  0  0  0  0  0
   -1.7058   67.6043   65.7937 H   0  0  0  0  0  0  0  0  0  0  0  0
   -0.9127   69.8894   64.3744 H   0  0  0  0  0  0  0  0  0  0  0  0
   -0.1898   68.4497   63.8910 H   0  0  0  0  0  0  0  0  0  0  0  0
  2  1  1  0
  3  2  2  0
  4  3  1  0
  5  4  2  0
  6  5  1  0
  7  2  1  0
  7  6  2  0
  8  1  1  0
  9  8  1  0
 10  9  1  0
  1 11  1  0
  1 12  1  0
  3 13  1  0
  4 14  1  0
  5 15  1  0
  6 16  1  0
  7 17  1  0
  8 18  1  0
  8 19  1  0
  9 20  1  0
 10 21  1  0
 10 22  1  0
M  END
>  <score>  (9) 
-6.115

$$$$
