=
     RDKit          3D

 43 44  0  0  0  0  0  0  0  0999 V2000
    3.0060   69.0390   65.2290 C   0  0  2  0  0  0  0  0  0  0  0  0
    2.2080   68.9240   66.5260 C   0  0  1  0  0  0  0  0  0  0  0  0
    1.7160   67.4850   66.4710 C   0  0  2  0  0  0  0  0  0  0  0  0
    1.4030   67.2290   65.0890 O   0  0  0  0  0  0  0  0  0  0  0  0
    2.3110   68.0220   64.2980 C   0  0  1  0  0  0  0  0  0  0  0  0
    1.5880   68.5780   63.1540 N   0  0  0  0  0  0  0  0  0  0  0  0
    0.2800   68.9690   63.4050 N   0  0  0  0  0  0  0  0  0  0  0  0
   -0.3900   69.4900   62.4310 C   0  0  0  0  0  0  0  0  0  0  0  0
    0.1840   69.6970   61.0680 C   0  0  0  0  0  0  0  0  0  0  0  0
   -0.4970   70.2040   60.1910 O   0  0  0  0  0  0  0  0  0  0  0  0
    1.4710   69.2870   60.9250 N   0  0  0  0  0  0  0  0  0  0  0  0
    2.2210   68.7460   61.9290 C   0  0  0  0  0  0  0  0  0  0  0  0
    3.3880   68.4350   61.7010 O   0  0  0  0  0  0  0  0  0  0  0  0
    4.3780   68.6360   65.4850 O   0  0  0  0  0  0  0  0  0  0  0  0
    5.9800   70.1570   66.2680 C   0  0  0  0  0  0  0  0  0  0  0  0
    5.3190   69.5300   65.0800 C   0  0  0  0  0  0  0  0  0  0  0  0
    5.5970   69.7800   63.9160 O   0  0  0  0  0  0  0  0  0  0  0  0
    2.9650   69.1430   67.7260 O   0  0  0  0  0  0  0  0  0  0  0  0
    2.6030   70.2350   68.4520 C   0  0  0  0  0  0  0  0  0  0  0  0
    1.4870   70.7320   68.4720 O   0  0  0  0  0  0  0  0  0  0  0  0
    3.7780   70.7510   69.2250 C   0  0  0  0  0  0  0  0  0  0  0  0
    0.4780   67.2590   67.3410 C   0  0  0  0  0  0  0  0  0  0  0  0
   -0.6850   66.9860   66.5350 O   0  0  0  0  0  0  0  0  0  0  0  0
   -1.8140   67.6550   66.8910 C   0  0  0  0  0  0  0  0  0  0  0  0
   -2.6140   67.2900   67.7410 O   0  0  0  0  0  0  0  0  0  0  0  0
   -1.9460   68.9090   66.0850 C   0  0  0  0  0  0  0  0  0  0  0  0
    3.0343   70.0536   64.8051 H   0  0  0  0  0  0  0  0  0  0  0  0
    1.4264   69.6962   66.5793 H   0  0  0  0  0  0  0  0  0  0  0  0
    2.4876   66.8046   66.8605 H   0  0  0  0  0  0  0  0  0  0  0  0
    3.1248   67.4317   63.8515 H   0  0  0  0  0  0  0  0  0  0  0  0
   -1.4309   69.7951   62.6140 H   0  0  0  0  0  0  0  0  0  0  0  0
    1.9095   69.3911   59.9988 H   0  0  0  0  0  0  0  0  0  0  0  0
    5.5448   69.7442   67.1901 H   0  0  0  0  0  0  0  0  0  0  0  0
    7.0585   69.9421   66.2434 H   0  0  0  0  0  0  0  0  0  0  0  0
    5.8223   71.2454   66.2434 H   0  0  0  0  0  0  0  0  0  0  0  0
    3.5756   70.6621   70.3026 H   0  0  0  0  0  0  0  0  0  0  0  0
    4.6717   70.1625   68.9700 H   0  0  0  0  0  0  0  0  0  0  0  0
    3.9494   71.8072   68.9700 H   0  0  0  0  0  0  0  0  0  0  0  0
    0.6603   66.4039   68.0085 H   0  0  0  0  0  0  0  0  0  0  0  0
    0.2906   68.1735   67.9228 H   0  0  0  0  0  0  0  0  0  0  0  0
   -2.0368   69.7717   66.7613 H   0  0  0  0  0  0  0  0  0  0  0  0
   -1.0559   69.0325   65.4506 H   0  0  0  0  0  0  0  0  0  0  0  0
   -2.8423   68.8445   65.4506 H   0  0  0  0  0  0  0  0  0  0  0  0
  2  1  1  0
  3  2  1  0
  4  3  1  0
  5  4  1  0
  5  1  1  0
  6  5  1  0
  7  6  1  0
  8  7  2  0
  9  8  1  0
 10  9  2  0
 11  9  1  0
 12 11  1  0
 12  6  1  0
 13 12  2  0
 14  1  1  0
 16 14  1  0
 16 15  1  0
 17 16  2  0
 18  2  1  0
 19 18  1  0
 20 19  2  0
 21 19  1  0
 22  3  1  0
 23 22  1  0
 24 23  1  0
 25 24  2  0
 26 24  1  0
  1 27  1  6
  2 28  1  6
  3 29  1  1
  5 30  1  6
  8 31  1  0
 11 32  1  0
 15 33  1  0
 15 34  1  0
 15 35  1  0
 21 36  1  0
 21 37  1  0
 21 38  1  0
 22 39  1  0
 22 40  1  0
 26 41  1  0
 26 42  1  0
 26 43  1  0
M  END
>  <score>  (1) 
-9.169

$$$$
=
     RDKit          3D

 43 44  0  0  0  0  0  0  0  0999 V2000
    0.9150   68.0190   64.8890 C   0  0  2  0  0  0  0  0  0  0  0  0
    0.8970   68.3830   66.3720 C   0  0  1  0  0  0  0  0  0  0  0  0
    2.0970   69.3120   66.4870 C   0  0  2  0  0  0  0  0  0  0  0  0
    3.1020   68.7650   65.6140 O   0  0  0  0  0  0  0  0  0  0  0  0
    2.4100   68.1330   64.5190 C   0  0  1  0  0  0  0  0  0  0  0  0
    3.0920   66.8830   64.1790 N   0  0  0  0  0  0  0  0  0  0  0  0
    2.7710   65.7920   64.9750 N   0  0  0  0  0  0  0  0  0  0  0  0
    3.3290   64.6600   64.6970 C   0  0  0  0  0  0  0  0  0  0  0  0
    4.2820   64.4800   63.5620 C   0  0  0  0  0  0  0  0  0  0  0  0
    4.7680   63.3820   63.3430 O   0  0  0  0  0  0  0  0  0  0  0  0
    4.5260   65.6050   62.8410 N   0  0  0  0  0  0  0  0  0  0  0  0
    3.9490   66.8170   63.0890 C   0  0  0  0  0  0  0  0  0  0  0  0
    4.2170   67.7670   62.3560 O   0  0  0  0  0  0  0  0  0  0  0  0
    0.1360   69.0000   64.1550 O   0  0  0  0  0  0  0  0  0  0  0  0
    0.1350   69.9950   62.0320 C   0  0  0  0  0  0  0  0  0  0  0  0
   -0.0100   68.7350   62.8280 C   0  0  0  0  0  0  0  0  0  0  0  0
   -0.2170   67.6300   62.3510 O   0  0  0  0  0  0  0  0  0  0  0  0
   -0.2920   69.0520   66.8170 O   0  0  0  0  0  0  0  0  0  0  0  0
   -1.3780   68.2530   67.0000 C   0  0  0  0  0  0  0  0  0  0  0  0
   -2.4870   68.4490   66.5270 O   0  0  0  0  0  0  0  0  0  0  0  0
   -1.0200   67.0930   67.8790 C   0  0  0  0  0  0  0  0  0  0  0  0
    2.6320   69.3970   67.9170 C   0  0  0  0  0  0  0  0  0  0  0  0
    4.0240   69.7680   67.9340 O   0  0  0  0  0  0  0  0  0  0  0  0
    4.4070   70.5620   68.9700 C   0  0  0  0  0  0  0  0  0  0  0  0
    3.6820   70.9340   69.8820 O   0  0  0  0  0  0  0  0  0  0  0  0
    5.8520   70.9260   68.8330 C   0  0  0  0  0  0  0  0  0  0  0  0
    0.4941   67.0283   64.6624 H   0  0  0  0  0  0  0  0  0  0  0  0
    0.9274   67.4815   67.0016 H   0  0  0  0  0  0  0  0  0  0  0  0
    1.8121   70.3376   66.2094 H   0  0  0  0  0  0  0  0  0  0  0  0
    2.4367   68.7243   63.5918 H   0  0  0  0  0  0  0  0  0  0  0  0
    3.0909   63.7892   65.3254 H   0  0  0  0  0  0  0  0  0  0  0  0
    5.1896   65.5393   62.0560 H   0  0  0  0  0  0  0  0  0  0  0  0
    0.2335   70.8512   62.7155 H   0  0  0  0  0  0  0  0  0  0  0  0
    1.0312   69.9270   61.3979 H   0  0  0  0  0  0  0  0  0  0  0  0
   -0.7533   70.1324   61.3979 H   0  0  0  0  0  0  0  0  0  0  0  0
   -1.1118   67.3904   68.9341 H   0  0  0  0  0  0  0  0  0  0  0  0
   -1.7009   66.2538   67.6740 H   0  0  0  0  0  0  0  0  0  0  0  0
    0.0155   66.7835   67.6740 H   0  0  0  0  0  0  0  0  0  0  0  0
    2.0536   70.1504   68.4718 H   0  0  0  0  0  0  0  0  0  0  0  0
    2.5309   68.4066   68.3849 H   0  0  0  0  0  0  0  0  0  0  0  0
    6.2981   71.0384   69.8322 H   0  0  0  0  0  0  0  0  0  0  0  0
    6.3794   70.1327   68.2831 H   0  0  0  0  0  0  0  0  0  0  0  0
    5.9406   71.8745   68.2831 H   0  0  0  0  0  0  0  0  0  0  0  0
  2  1  1  0
  3  2  1  0
  4  3  1  0
  5  4  1  0
  5  1  1  0
  6  5  1  0
  7  6  1  0
  8  7  2  0
  9  8  1  0
 10  9  2  0
 11  9  1  0
 12 11  1  0
 12  6  1  0
 13 12  2  0
 14  1  1  0
 16 14  1  0
 16 15  1  0
 17 16  2  0
 18  2  1  0
 19 18  1  0
 20 19  2  0
 21 19  1  0
 22  3  1  0
 23 22  1  0
 24 23  1  0
 25 24  2  0
 26 24  1  0
  1 27  1  1
  2 28  1  1
  3 29  1  6
  5 30  1  6
  8 31  1  0
 11 32  1  0
 15 33  1  0
 15 34  1  0
 15 35  1  0
 21 36  1  0
 21 37  1  0
 21 38  1  0
 22 39  1  0
 22 40  1  0
 26 41  1  0
 26 42  1  0
 26 43  1  0
M  END
>  <score>  (2) 
-8.865

$$$$
=
     RDKit          3D

 43 44  0  0  0  0  0  0  0  0999 V2000
    0.9980   67.9190   64.5850 C   0  0  2  0  0  0  0  0  0  0  0  0
    0.3810   67.8650   65.9820 C   0  0  1  0  0  0  0  0  0  0  0  0
    1.4920   68.4520   66.8420 C   0  0  2  0  0  0  0  0  0  0  0  0
    2.7240   67.9600   66.2840 O   0  0  0  0  0  0  0  0  0  0  0  0
    2.5120   67.8080   64.8660 C   0  0  1  0  0  0  0  0  0  0  0  0
    3.1680   66.5810   64.4130 N   0  0  0  0  0  0  0  0  0  0  0  0
    2.8940   65.4450   65.1610 N   0  0  0  0  0  0  0  0  0  0  0  0
    3.4310   64.3320   64.7840 C   0  0  0  0  0  0  0  0  0  0  0  0
    4.3120   64.2190   63.5840 C   0  0  0  0  0  0  0  0  0  0  0  0
    4.7810   63.1370   63.2720 O   0  0  0  0  0  0  0  0  0  0  0  0
    4.5150   65.3850   62.9160 N   0  0  0  0  0  0  0  0  0  0  0  0
    3.9570   66.5800   63.2700 C   0  0  0  0  0  0  0  0  0  0  0  0
    4.1820   67.5710   62.5790 O   0  0  0  0  0  0  0  0  0  0  0  0
    0.6870   69.2030   63.9840 O   0  0  0  0  0  0  0  0  0  0  0  0
    0.5020   69.6980   61.6990 C   0  0  0  0  0  0  0  0  0  0  0  0
   -0.1620   69.1450   62.9220 C   0  0  0  0  0  0  0  0  0  0  0  0
   -1.2980   68.6970   62.9550 O   0  0  0  0  0  0  0  0  0  0  0  0
   -0.8250   68.6260   66.1420 O   0  0  0  0  0  0  0  0  0  0  0  0
   -1.9120   67.9170   66.5470 C   0  0  0  0  0  0  0  0  0  0  0  0
   -1.8830   66.9220   67.2550 O   0  0  0  0  0  0  0  0  0  0  0  0
   -3.1620   68.5280   65.9900 C   0  0  0  0  0  0  0  0  0  0  0  0
    1.3740   68.0330   68.3080 C   0  0  0  0  0  0  0  0  0  0  0  0
    1.1780   66.6110   68.4320 O   0  0  0  0  0  0  0  0  0  0  0  0
    0.7880   66.1770   69.6600 C   0  0  0  0  0  0  0  0  0  0  0  0
   -0.2790   66.4380   70.1970 O   0  0  0  0  0  0  0  0  0  0  0  0
    1.8630   65.3350   70.2740 C   0  0  0  0  0  0  0  0  0  0  0  0
    0.6340   67.1387   63.9004 H   0  0  0  0  0  0  0  0  0  0  0  0
    0.0661   66.8425   66.2377 H   0  0  0  0  0  0  0  0  0  0  0  0
    1.4380   69.5507   66.8353 H   0  0  0  0  0  0  0  0  0  0  0  0
    2.9779   68.6075   64.2712 H   0  0  0  0  0  0  0  0  0  0  0  0
    3.2298   63.4259   65.3744 H   0  0  0  0  0  0  0  0  0  0  0  0
    5.1293   65.3661   62.0895 H   0  0  0  0  0  0  0  0  0  0  0  0
    1.3154   70.3754   61.9980 H   0  0  0  0  0  0  0  0  0  0  0  0
    0.9139   68.8722   61.1003 H   0  0  0  0  0  0  0  0  0  0  0  0
   -0.2356   70.2525   61.1003 H   0  0  0  0  0  0  0  0  0  0  0  0
   -3.8141   68.8468   66.8165 H   0  0  0  0  0  0  0  0  0  0  0  0
   -2.9003   69.3998   65.3723 H   0  0  0  0  0  0  0  0  0  0  0  0
   -3.6891   67.7859   65.3723 H   0  0  0  0  0  0  0  0  0  0  0  0
    2.2965   68.3150   68.8366 H   0  0  0  0  0  0  0  0  0  0  0  0
    0.5032   68.5429   68.7458 H   0  0  0  0  0  0  0  0  0  0  0  0
    1.7914   65.3911   71.3702 H   0  0  0  0  0  0  0  0  0  0  0  0
    1.7399   64.2906   69.9514 H   0  0  0  0  0  0  0  0  0  0  0  0
    2.8475   65.7047   69.9514 H   0  0  0  0  0  0  0  0  0  0  0  0
  2  1  1  0
  3  2  1  0
  4  3  1  0
  5  4  1  0
  5  1  1  0
  6  5  1  0
  7  6  1  0
  8  7  2  0
  9  8  1  0
 10  9  2  0
 11  9  1  0
 12 11  1  0
 12  6  1  0
 13 12  2  0
 14  1  1  0
 16 14  1  0
 16 15  1  0
 17 16  2  0
 18  2  1  0
 19 18  1  0
 20 19  2  0
 21 19  1  0
 22  3  1  0
 23 22  1  0
 24 23  1  0
 25 24  2  0
 26 24  1  0
  1 27  1  6
  2 28  1  1
  3 29  1  1
  5 30  1  6
  8 31  1  0
 11 32  1  0
 15 33  1  0
 15 34  1  0
 15 35  1  0
 21 36  1  0
 21 37  1  0
 21 38  1  0
 22 39  1  0
 22 40  1  0
 26 41  1  0
 26 42  1  0
 26 43  1  0
M  END
>  <score>  (3) 
-8.673

$$$$
=
     RDKit          3D

 43 44  0  0  0  0  0  0  0  0999 V2000
    1.7770   68.9870   64.8770 C   0  0  2  0  0  0  0  0  0  0  0  0
    2.3320   68.3270   63.6170 C   0  0  1  0  0  0  0  0  0  0  0  0
    2.7760   66.9680   64.1400 C   0  0  2  0  0  0  0  0  0  0  0  0
    3.3170   67.2080   65.4510 O   0  0  0  0  0  0  0  0  0  0  0  0
    2.5900   68.3210   66.0090 C   0  0  1  0  0  0  0  0  0  0  0  0
    3.5210   69.1860   66.7350 N   0  0  0  0  0  0  0  0  0  0  0  0
    4.7110   69.4680   66.0790 N   0  0  0  0  0  0  0  0  0  0  0  0
    5.5540   70.2490   66.6710 C   0  0  0  0  0  0  0  0  0  0  0  0
    5.2960   70.8600   68.0080 C   0  0  0  0  0  0  0  0  0  0  0  0
    6.1270   71.5990   68.5110 O   0  0  0  0  0  0  0  0  0  0  0  0
    4.1020   70.5270   68.5640 N   0  0  0  0  0  0  0  0  0  0  0  0
    3.1760   69.7190   67.9700 C   0  0  0  0  0  0  0  0  0  0  0  0
    2.1130   69.5040   68.5480 O   0  0  0  0  0  0  0  0  0  0  0  0
    0.3700   68.6550   65.0020 O   0  0  0  0  0  0  0  0  0  0  0  0
   -0.7560   69.2010   66.9850 C   0  0  0  0  0  0  0  0  0  0  0  0
    0.0050   68.1650   66.2170 C   0  0  0  0  0  0  0  0  0  0  0  0
    0.2500   67.0380   66.6230 O   0  0  0  0  0  0  0  0  0  0  0  0
    1.3840   68.1620   62.5510 O   0  0  0  0  0  0  0  0  0  0  0  0
    1.4980   69.0500   61.5280 C   0  0  0  0  0  0  0  0  0  0  0  0
    2.5000   69.2240   60.8510 O   0  0  0  0  0  0  0  0  0  0  0  0
    0.2120   69.7990   61.3510 C   0  0  0  0  0  0  0  0  0  0  0  0
    3.8340   66.3180   63.2450 C   0  0  0  0  0  0  0  0  0  0  0  0
    4.8460   65.6550   64.0290 O   0  0  0  0  0  0  0  0  0  0  0  0
    4.8040   64.2970   64.0110 C   0  0  0  0  0  0  0  0  0  0  0  0
    5.4270   63.5790   63.2420 O   0  0  0  0  0  0  0  0  0  0  0  0
    3.8740   63.7970   65.0730 C   0  0  0  0  0  0  0  0  0  0  0  0
    1.8572   70.0841   64.8833 H   0  0  0  0  0  0  0  0  0  0  0  0
    3.1183   68.9450   63.1589 H   0  0  0  0  0  0  0  0  0  0  0  0
    1.9249   66.2714   64.1585 H   0  0  0  0  0  0  0  0  0  0  0  0
    1.8481   68.0187   66.7628 H   0  0  0  0  0  0  0  0  0  0  0  0
    6.5052   70.4736   66.1662 H   0  0  0  0  0  0  0  0  0  0  0  0
    3.8811   70.9092   69.4946 H   0  0  0  0  0  0  0  0  0  0  0  0
   -0.6274   69.0260   68.0634 H   0  0  0  0  0  0  0  0  0  0  0  0
   -0.3759   70.2007   66.7279 H   0  0  0  0  0  0  0  0  0  0  0  0
   -1.8236   69.1373   66.7279 H   0  0  0  0  0  0  0  0  0  0  0  0
   -0.2085   70.0439   62.3375 H   0  0  0  0  0  0  0  0  0  0  0  0
    0.4023   70.7275   60.7928 H   0  0  0  0  0  0  0  0  0  0  0  0
   -0.5017   69.1753   60.7928 H   0  0  0  0  0  0  0  0  0  0  0  0
    3.3462   65.5800   62.5912 H   0  0  0  0  0  0  0  0  0  0  0  0
    4.3169   67.1062   62.6488 H   0  0  0  0  0  0  0  0  0  0  0  0
    4.2941   64.0228   66.0642 H   0  0  0  0  0  0  0  0  0  0  0  0
    2.8971   64.2915   64.9674 H   0  0  0  0  0  0  0  0  0  0  0  0
    3.7477   62.7094   64.9674 H   0  0  0  0  0  0  0  0  0  0  0  0
  2  1  1  0
  3  2  1  0
  4  3  1  0
  5  4  1  0
  5  1  1  0
  6  5  1  0
  7  6  1  0
  8  7  2  0
  9  8  1  0
 10  9  2  0
 11  9  1  0
 12 11  1  0
 12  6  1  0
 13 12  2  0
 14  1  1  0
 16 14  1  0
 16 15  1  0
 17 16  2  0
 18  2  1  0
 19 18  1  0
 20 19  2  0
 21 19  1  0
 22  3  1  0
 23 22  1  0
 24 23  1  0
 25 24  2  0
 26 24  1  0
  1 27  1  6
  2 28  1  6
  3 29  1  1
  5 30  1  1
  8 31  1  0
 11 32  1  0
 15 33  1  0
 15 34  1  0
 15 35  1  0
 21 36  1  0
 21 37  1  0
 21 38  1  0
 22 39  1  0
 22 40  1  0
 26 41  1  0
 26 42  1  0
 26 43  1  0
M  END
>  <score>  (4) 
-8.262

$$$$
=
     RDKit          3D

 43 44  0  0  0  0  0  0  0  0999 V2000
    1.8840   67.7230   65.8860 C   0  0  2  0  0  0  0  0  0  0  0  0
    2.7290   68.9690   66.1450 C   0  0  1  0  0  0  0  0  0  0  0  0
    2.7630   69.0200   67.6660 C   0  0  2  0  0  0  0  0  0  0  0  0
    1.4580   68.6000   68.1030 O   0  0  0  0  0  0  0  0  0  0  0  0
    0.9720   67.6530   67.1310 C   0  0  1  0  0  0  0  0  0  0  0  0
   -0.4540   67.8880   66.9040 N   0  0  0  0  0  0  0  0  0  0  0  0
   -0.7580   68.8280   65.9300 N   0  0  0  0  0  0  0  0  0  0  0  0
   -2.0060   69.0510   65.6760 C   0  0  0  0  0  0  0  0  0  0  0  0
   -3.1170   68.3380   66.3730 C   0  0  0  0  0  0  0  0  0  0  0  0
   -4.2760   68.5840   66.0820 O   0  0  0  0  0  0  0  0  0  0  0  0
   -2.7160   67.4340   67.3050 N   0  0  0  0  0  0  0  0  0  0  0  0
   -1.4110   67.1560   67.5940 C   0  0  0  0  0  0  0  0  0  0  0  0
   -1.1570   66.2980   68.4360 O   0  0  0  0  0  0  0  0  0  0  0  0
    2.7580   66.5650   65.8340 O   0  0  0  0  0  0  0  0  0  0  0  0
    3.8060   65.2840   64.1730 C   0  0  0  0  0  0  0  0  0  0  0  0
    2.5160   65.7150   64.8000 C   0  0  0  0  0  0  0  0  0  0  0  0
    1.4090   65.3430   64.4400 O   0  0  0  0  0  0  0  0  0  0  0  0
    4.0630   68.9160   65.6200 O   0  0  0  0  0  0  0  0  0  0  0  0
    4.1770   69.1660   64.2880 C   0  0  0  0  0  0  0  0  0  0  0  0
    3.2740   69.0650   63.4710 O   0  0  0  0  0  0  0  0  0  0  0  0
    5.5790   69.5780   63.9590 C   0  0  0  0  0  0  0  0  0  0  0  0
    3.0690   70.4220   68.1940 C   0  0  0  0  0  0  0  0  0  0  0  0
    4.2290   70.4170   69.0490 O   0  0  0  0  0  0  0  0  0  0  0  0
    5.3860   70.8360   68.4700 C   0  0  0  0  0  0  0  0  0  0  0  0
    5.4970   71.2390   67.3210 O   0  0  0  0  0  0  0  0  0  0  0  0
    6.5180   70.7280   69.4440 C   0  0  0  0  0  0  0  0  0  0  0  0
    1.3174   67.7504   64.9435 H   0  0  0  0  0  0  0  0  0  0  0  0
    2.2996   69.8503   65.6461 H   0  0  0  0  0  0  0  0  0  0  0  0
    3.5634   68.3707   68.0504 H   0  0  0  0  0  0  0  0  0  0  0  0
    1.0291   66.6105   67.4774 H   0  0  0  0  0  0  0  0  0  0  0  0
   -2.2606   69.8000   64.9117 H   0  0  0  0  0  0  0  0  0  0  0  0
   -3.4438   66.9256   67.8272 H   0  0  0  0  0  0  0  0  0  0  0  0
    4.5336   65.0409   64.9613 H   0  0  0  0  0  0  0  0  0  0  0  0
    3.6313   64.3954   63.5486 H   0  0  0  0  0  0  0  0  0  0  0  0
    4.2005   66.0991   63.5486 H   0  0  0  0  0  0  0  0  0  0  0  0
    6.1407   69.7431   64.8902 H   0  0  0  0  0  0  0  0  0  0  0  0
    6.0662   68.7850   63.3726 H   0  0  0  0  0  0  0  0  0  0  0  0
    5.5597   70.5085   63.3726 H   0  0  0  0  0  0  0  0  0  0  0  0
    3.2542   71.0932   67.3425 H   0  0  0  0  0  0  0  0  0  0  0  0
    2.2058   70.7683   68.7814 H   0  0  0  0  0  0  0  0  0  0  0  0
    6.1236   70.7656   70.4702 H   0  0  0  0  0  0  0  0  0  0  0  0
    7.0457   69.7754   69.2887 H   0  0  0  0  0  0  0  0  0  0  0  0
    7.2163   71.5636   69.2887 H   0  0  0  0  0  0  0  0  0  0  0  0
  2  1  1  0
  3  2  1  0
  4  3  1  0
  5  4  1  0
  5  1  1  0
  6  5  1  0
  7  6  1  0
  8  7  2  0
  9  8  1  0
 10  9  2  0
 11  9  1  0
 12 11  1  0
 12  6  1  0
 13 12  2  0
 14  1  1  0
 16 14  1  0
 16 15  1  0
 17 16  2  0
 18  2  1  0
 19 18  1  0
 20 19  2  0
 21 19  1  0
 22  3  1  0
 23 22  1  0
 24 23  1  0
 25 24  2  0
 26 24  1  0
  1 27  1  6
  2 28  1  6
  3 29  1  1
  5 30  1  1
  8 31  1  0
 11 32  1  0
 15 33  1  0
 15 34  1  0
 15 35  1  0
 21 36  1  0
 21 37  1  0
 21 38  1  0
 22 39  1  0
 22 40  1  0
 26 41  1  0
 26 42  1  0
 26 43  1  0
M  END
>  <score>  (5) 
-7.917

$$$$
=
     RDKit          3D

 43 44  0  0  0  0  0  0  0  0999 V2000
    3.5190   68.5890   64.3870 C   0  0  2  0  0  0  0  0  0  0  0  0
    3.1940   68.9010   65.8460 C   0  0  1  0  0  0  0  0  0  0  0  0
    2.2450   67.7680   66.2100 C   0  0  2  0  0  0  0  0  0  0  0  0
    1.4350   67.5420   65.0420 O   0  0  0  0  0  0  0  0  0  0  0  0
    2.2540   67.8510   63.8960 C   0  0  1  0  0  0  0  0  0  0  0  0
    1.4400   68.5500   62.9010 N   0  0  0  0  0  0  0  0  0  0  0  0
    0.1980   68.9840   63.3410 N   0  0  0  0  0  0  0  0  0  0  0  0
   -0.5470   69.6290   62.5050 C   0  0  0  0  0  0  0  0  0  0  0  0
   -0.1230   69.9310   61.1050 C   0  0  0  0  0  0  0  0  0  0  0  0
   -0.8670   70.5540   60.3650 O   0  0  0  0  0  0  0  0  0  0  0  0
    1.1100   69.4690   60.7720 N   0  0  0  0  0  0  0  0  0  0  0  0
    1.9350   68.7970   61.6270 C   0  0  0  0  0  0  0  0  0  0  0  0
    3.0460   68.4470   61.2330 O   0  0  0  0  0  0  0  0  0  0  0  0
    4.6700   67.7060   64.3400 O   0  0  0  0  0  0  0  0  0  0  0  0
    5.9150   68.9250   62.7710 C   0  0  0  0  0  0  0  0  0  0  0  0
    5.2730   67.6190   63.1240 C   0  0  0  0  0  0  0  0  0  0  0  0
    5.3000   66.6190   62.4230 O   0  0  0  0  0  0  0  0  0  0  0  0
    4.3240   68.9060   66.7310 O   0  0  0  0  0  0  0  0  0  0  0  0
    4.8220   70.1340   67.0350 C   0  0  0  0  0  0  0  0  0  0  0  0
    5.5840   70.7810   66.3330 O   0  0  0  0  0  0  0  0  0  0  0  0
    4.3070   70.5830   68.3690 C   0  0  0  0  0  0  0  0  0  0  0  0
    1.3570   68.1140   67.4070 C   0  0  0  0  0  0  0  0  0  0  0  0
   -0.0390   68.0740   67.0520 O   0  0  0  0  0  0  0  0  0  0  0  0
   -0.7870   67.1550   67.7190 C   0  0  0  0  0  0  0  0  0  0  0  0
   -0.3700   66.3930   68.5790 O   0  0  0  0  0  0  0  0  0  0  0  0
   -2.2060   67.2020   67.2420 C   0  0  0  0  0  0  0  0  0  0  0  0
    3.7587   69.4741   63.7795 H   0  0  0  0  0  0  0  0  0  0  0  0
    2.7888   69.9180   65.9533 H   0  0  0  0  0  0  0  0  0  0  0  0
    2.8156   66.8749   66.5046 H   0  0  0  0  0  0  0  0  0  0  0  0
    2.6226   66.9559   63.3736 H   0  0  0  0  0  0  0  0  0  0  0  0
   -1.5376   69.9709   62.8393 H   0  0  0  0  0  0  0  0  0  0  0  0
    1.4442   69.6365   59.8122 H   0  0  0  0  0  0  0  0  0  0  0  0
    6.1800   69.4642   63.6924 H   0  0  0  0  0  0  0  0  0  0  0  0
    6.8243   68.7389   62.1806 H   0  0  0  0  0  0  0  0  0  0  0  0
    5.2123   69.5313   62.1806 H   0  0  0  0  0  0  0  0  0  0  0  0
    4.8768   70.0862   69.1681 H   0  0  0  0  0  0  0  0  0  0  0  0
    4.4233   71.6731   68.4590 H   0  0  0  0  0  0  0  0  0  0  0  0
    3.2429   70.3192   68.4590 H   0  0  0  0  0  0  0  0  0  0  0  0
    1.5428   67.3884   68.2126 H   0  0  0  0  0  0  0  0  0  0  0  0
    1.6021   69.1340   67.7379 H   0  0  0  0  0  0  0  0  0  0  0  0
   -2.8835   67.2244   68.1083 H   0  0  0  0  0  0  0  0  0  0  0  0
   -2.3586   68.1057   66.6337 H   0  0  0  0  0  0  0  0  0  0  0  0
   -2.4181   66.3104   66.6337 H   0  0  0  0  0  0  0  0  0  0  0  0
  2  1  1  0
  3  2  1  0
  4  3  1  0
  5  4  1  0
  5  1  1  0
  6  5  1  0
  7  6  1  0
  8  7  2  0
  9  8  1  0
 10  9  2  0
 11  9  1  0
 12 11  1  0
 12  6  1  0
 13 12  2  0
 14  1  1  0
 16 14  1  0
 16 15  1  0
 17 16  2  0
 18  2  1  0
 19 18  1  0
 20 19  2  0
 21 19  1  0
 22  3  1  0
 23 22  1  0
 24 23  1  0
 25 24  2  0
 26 24  1  0
  1 27  1  6
  2 28  1  6
  3 29  1  1
  5 30  1  6
  8 31  1  0
 11 32  1  0
 15 33  1  0
 15 34  1  0
 15 35  1  0
 21 36  1  0
 21 37  1  0
 21 38  1  0
 22 39  1  0
 22 40  1  0
 26 41  1  0
 26 42  1  0
 26 43  1  0
M  END
>  <score>  (6) 
-7.911

$$$$
=
     RDKit          3D

 43 44  0  0  0  0  0  0  0  0999 V2000
    0.8620   68.5220   65.4670 C   0  0  2  0  0  0  0  0  0  0  0  0
    1.3670   68.0090   64.1200 C   0  0  1  0  0  0  0  0  0  0  0  0
    2.0780   66.7230   64.5160 C   0  0  2  0  0  0  0  0  0  0  0  0
    2.7200   66.9990   65.7740 O   0  0  0  0  0  0  0  0  0  0  0  0
    1.8930   67.9560   66.4670 C   0  0  1  0  0  0  0  0  0  0  0  0
    2.7520   68.9330   67.1370 N   0  0  0  0  0  0  0  0  0  0  0  0
    2.3390   69.3210   68.4040 N   0  0  0  0  0  0  0  0  0  0  0  0
    3.0790   70.1640   69.0470 C   0  0  0  0  0  0  0  0  0  0  0  0
    4.3490   70.7190   68.4910 C   0  0  0  0  0  0  0  0  0  0  0  0
    5.0110   71.5030   69.1510 O   0  0  0  0  0  0  0  0  0  0  0  0
    4.6680   70.2730   67.2480 N   0  0  0  0  0  0  0  0  0  0  0  0
    3.9250   69.3740   66.5400 C   0  0  0  0  0  0  0  0  0  0  0  0
    4.3190   69.0140   65.4330 O   0  0  0  0  0  0  0  0  0  0  0  0
   -0.4520   67.9590   65.7210 O   0  0  0  0  0  0  0  0  0  0  0  0
   -1.7630   67.2860   67.5450 C   0  0  0  0  0  0  0  0  0  0  0  0
   -1.0570   68.4110   66.8530 C   0  0  0  0  0  0  0  0  0  0  0  0
   -1.0210   69.5640   67.2570 O   0  0  0  0  0  0  0  0  0  0  0  0
    0.3430   67.7330   63.1530 O   0  0  0  0  0  0  0  0  0  0  0  0
   -0.2400   68.8260   62.5920 C   0  0  0  0  0  0  0  0  0  0  0  0
   -1.3880   69.1950   62.7910 O   0  0  0  0  0  0  0  0  0  0  0  0
    0.7290   69.5150   61.6810 C   0  0  0  0  0  0  0  0  0  0  0  0
    3.1160   66.2890   63.4800 C   0  0  0  0  0  0  0  0  0  0  0  0
    3.3070   67.3040   62.4740 O   0  0  0  0  0  0  0  0  0  0  0  0
    4.5990   67.6350   62.2130 C   0  0  0  0  0  0  0  0  0  0  0  0
    5.5310   66.8460   62.1410 O   0  0  0  0  0  0  0  0  0  0  0  0
    4.7250   69.1160   62.0320 C   0  0  0  0  0  0  0  0  0  0  0  0
    0.7682   69.6164   65.5265 H   0  0  0  0  0  0  0  0  0  0  0  0
    1.9881   68.7640   63.6158 H   0  0  0  0  0  0  0  0  0  0  0  0
    1.3559   65.8961   64.5856 H   0  0  0  0  0  0  0  0  0  0  0  0
    1.2981   67.5083   67.2767 H   0  0  0  0  0  0  0  0  0  0  0  0
    2.7587   70.4869   70.0486 H   0  0  0  0  0  0  0  0  0  0  0  0
    5.5269   70.6374   66.8116 H   0  0  0  0  0  0  0  0  0  0  0  0
   -1.6811   67.4165   68.6342 H   0  0  0  0  0  0  0  0  0  0  0  0
   -2.8240   67.2850   67.2546 H   0  0  0  0  0  0  0  0  0  0  0  0
   -1.3025   66.3302   67.2546 H   0  0  0  0  0  0  0  0  0  0  0  0
    1.4803   70.0492   62.2812 H   0  0  0  0  0  0  0  0  0  0  0  0
    1.2296   68.7689   61.0464 H   0  0  0  0  0  0  0  0  0  0  0  0
    0.1887   70.2329   61.0464 H   0  0  0  0  0  0  0  0  0  0  0  0
    4.0737   66.1032   63.9882 H   0  0  0  0  0  0  0  0  0  0  0  0
    2.7538   65.3748   62.9870 H   0  0  0  0  0  0  0  0  0  0  0  0
    4.7665   69.6036   63.0172 H   0  0  0  0  0  0  0  0  0  0  0  0
    5.6455   69.3401   61.4729 H   0  0  0  0  0  0  0  0  0  0  0  0
    3.8556   69.4923   61.4729 H   0  0  0  0  0  0  0  0  0  0  0  0
  2  1  1  0
  3  2  1  0
  4  3  1  0
  5  4  1  0
  5  1  1  0
  6  5  1  0
  7  6  1  0
  8  7  2  0
  9  8  1  0
 10  9  2  0
 11  9  1  0
 12 11  1  0
 12  6  1  0
 13 12  2  0
 14  1  1  0
 16 14  1  0
 16 15  1  0
 17 16  2  0
 18  2  1  0
 19 18  1  0
 20 19  2  0
 21 19  1  0
 22  3  1  0
 23 22  1  0
 24 23  1  0
 25 24  2  0
 26 24  1  0
  1 27  1  6
  2 28  1  6
  3 29  1  1
  5 30  1  1
  8 31  1  0
 11 32  1  0
 15 33  1  0
 15 34  1  0
 15 35  1  0
 21 36  1  0
 21 37  1  0
 21 38  1  0
 22 39  1  0
 22 40  1  0
 26 41  1  0
 26 42  1  0
 26 43  1  0
M  END
>  <score>  (7) 
-7.405

$$$$
=
     RDKit          3D

 43 44  0  0  0  0  0  0  0  0999 V2000
    3.0470   67.4360   64.7560 C   0  0  2  0  0  0  0  0  0  0  0  0
    4.0630   68.5770   64.7560 C   0  0  1  0  0  0  0  0  0  0  0  0
    4.2440   68.8410   66.2440 C   0  0  2  0  0  0  0  0  0  0  0  0
    2.9430   68.6740   66.8350 O   0  0  0  0  0  0  0  0  0  0  0  0
    2.2530   67.6740   66.0590 C   0  0  1  0  0  0  0  0  0  0  0  0
    0.8530   68.0690   65.9030 N   0  0  0  0  0  0  0  0  0  0  0  0
    0.0510   67.8840   67.0200 N   0  0  0  0  0  0  0  0  0  0  0  0
   -1.1870   68.2430   66.9390 C   0  0  0  0  0  0  0  0  0  0  0  0
   -1.7790   68.8510   65.7100 C   0  0  0  0  0  0  0  0  0  0  0  0
   -2.9540   69.1790   65.6980 O   0  0  0  0  0  0  0  0  0  0  0  0
   -0.9120   68.9950   64.6740 N   0  0  0  0  0  0  0  0  0  0  0  0
    0.4070   68.6440   64.7200 C   0  0  0  0  0  0  0  0  0  0  0  0
    1.1130   68.8430   63.7340 O   0  0  0  0  0  0  0  0  0  0  0  0
    3.7600   66.1730   64.8200 O   0  0  0  0  0  0  0  0  0  0  0  0
    3.8300   63.8360   64.6490 C   0  0  0  0  0  0  0  0  0  0  0  0
    2.9830   65.0700   64.6430 C   0  0  0  0  0  0  0  0  0  0  0  0
    1.7680   65.0810   64.5110 O   0  0  0  0  0  0  0  0  0  0  0  0
    5.3260   68.2650   64.1510 O   0  0  0  0  0  0  0  0  0  0  0  0
    5.2970   68.0780   62.8040 C   0  0  0  0  0  0  0  0  0  0  0  0
    5.3860   67.0000   62.2380 O   0  0  0  0  0  0  0  0  0  0  0  0
    5.1460   69.3960   62.1050 C   0  0  0  0  0  0  0  0  0  0  0  0
    4.7730   70.2490   66.5250 C   0  0  0  0  0  0  0  0  0  0  0  0
    6.0050   70.2060   67.2710 O   0  0  0  0  0  0  0  0  0  0  0  0
    6.2510   71.2870   68.0580 C   0  0  0  0  0  0  0  0  0  0  0  0
    5.7810   72.4040   67.8940 O   0  0  0  0  0  0  0  0  0  0  0  0
    7.1940   70.9170   69.1610 C   0  0  0  0  0  0  0  0  0  0  0  0
    2.4027   67.4049   63.8650 H   0  0  0  0  0  0  0  0  0  0  0  0
    3.7036   69.4275   64.1581 H   0  0  0  0  0  0  0  0  0  0  0  0
    4.9879   68.1485   66.6648 H   0  0  0  0  0  0  0  0  0  0  0  0
    2.2096   66.6945   66.5576 H   0  0  0  0  0  0  0  0  0  0  0  0
   -1.8350   68.0941   67.8153 H   0  0  0  0  0  0  0  0  0  0  0  0
   -1.2732   69.3951   63.7963 H   0  0  0  0  0  0  0  0  0  0  0  0
    4.0351   63.5371   65.6876 H   0  0  0  0  0  0  0  0  0  0  0  0
    3.2982   63.0237   64.1319 H   0  0  0  0  0  0  0  0  0  0  0  0
    4.7792   64.0402   64.1319 H   0  0  0  0  0  0  0  0  0  0  0  0
    5.0541   70.1986   62.8516 H   0  0  0  0  0  0  0  0  0  0  0  0
    6.0289   69.5804   61.4753 H   0  0  0  0  0  0  0  0  0  0  0  0
    4.2443   69.3759   61.4753 H   0  0  0  0  0  0  0  0  0  0  0  0
    4.9509   70.7625   65.5686 H   0  0  0  0  0  0  0  0  0  0  0  0
    4.0237   70.7886   67.1228 H   0  0  0  0  0  0  0  0  0  0  0  0
    6.7138   71.1054   70.1326 H   0  0  0  0  0  0  0  0  0  0  0  0
    7.4524   69.8508   69.0803 H   0  0  0  0  0  0  0  0  0  0  0  0
    8.1085   71.5230   69.0803 H   0  0  0  0  0  0  0  0  0  0  0  0
  2  1  1  0
  3  2  1  0
  4  3  1  0
  5  4  1  0
  5  1  1  0
  6  5  1  0
  7  6  1  0
  8  7  2  0
  9  8  1  0
 10  9  2  0
 11  9  1  0
 12 11  1  0
 12  6  1  0
 13 12  2  0
 14  1  1  0
 16 14  1  0
 16 15  1  0
 17 16  2  0
 18  2  1  0
 19 18  1  0
 20 19  2  0
 21 19  1  0
 22  3  1  0
 23 22  1  0
 24 23  1  0
 25 24  2  0
 26 24  1  0
  1 27  1  6
  2 28  1  6
  3 29  1  1
  5 30  1  1
  8 31  1  0
 11 32  1  0
 15 33  1  0
 15 34  1  0
 15 35  1  0
 21 36  1  0
 21 37  1  0
 21 38  1  0
 22 39  1  0
 22 40  1  0
 26 41  1  0
 26 42  1  0
 26 43  1  0
M  END
>  <score>  (8) 
-7.173

$$$$
=
     RDKit          3D

 43 44  0  0  0  0  0  0  0  0999 V2000
    3.1350   69.0210   67.1920 C   0  0  2  0  0  0  0  0  0  0  0  0
    3.3990   68.6370   65.7380 C   0  0  1  0  0  0  0  0  0  0  0  0
    2.1220   69.0990   65.0490 C   0  0  2  0  0  0  0  0  0  0  0  0
    1.0540   68.8140   65.9700 O   0  0  0  0  0  0  0  0  0  0  0  0
    1.5960   68.9500   67.3000 C   0  0  1  0  0  0  0  0  0  0  0  0
    1.0530   67.8890   68.1490 N   0  0  0  0  0  0  0  0  0  0  0  0
    1.8230   67.5550   69.2540 N   0  0  0  0  0  0  0  0  0  0  0  0
    1.3720   66.6400   70.0480 C   0  0  0  0  0  0  0  0  0  0  0  0
    0.0670   65.9480   69.8320 C   0  0  0  0  0  0  0  0  0  0  0  0
   -0.3100   65.0990   70.6240 O   0  0  0  0  0  0  0  0  0  0  0  0
   -0.6130   66.3490   68.7270 N   0  0  0  0  0  0  0  0  0  0  0  0
   -0.1830   67.3200   67.8700 C   0  0  0  0  0  0  0  0  0  0  0  0
   -0.8900   67.6290   66.9130 O   0  0  0  0  0  0  0  0  0  0  0  0
    3.5950   70.3810   67.4100 O   0  0  0  0  0  0  0  0  0  0  0  0
    5.7260   70.7880   68.2970 C   0  0  0  0  0  0  0  0  0  0  0  0
    4.2700   70.5750   68.5740 C   0  0  0  0  0  0  0  0  0  0  0  0
    3.7640   70.5870   69.6870 O   0  0  0  0  0  0  0  0  0  0  0  0
    4.5410   69.2700   65.1410 O   0  0  0  0  0  0  0  0  0  0  0  0
    5.1660   68.5500   64.1720 C   0  0  0  0  0  0  0  0  0  0  0  0
    5.4240   67.3570   64.2320 O   0  0  0  0  0  0  0  0  0  0  0  0
    5.5060   69.4360   63.0120 C   0  0  0  0  0  0  0  0  0  0  0  0
    1.8820   68.3750   63.7240 C   0  0  0  0  0  0  0  0  0  0  0  0
    0.5290   67.8860   63.6330 O   0  0  0  0  0  0  0  0  0  0  0  0
   -0.3470   68.7010   62.9870 C   0  0  0  0  0  0  0  0  0  0  0  0
   -1.5410   68.7930   63.2320 O   0  0  0  0  0  0  0  0  0  0  0  0
    0.3620   69.4740   61.9180 C   0  0  0  0  0  0  0  0  0  0  0  0
    3.6436   68.3797   67.9268 H   0  0  0  0  0  0  0  0  0  0  0  0
    3.6315   67.5657   65.6476 H   0  0  0  0  0  0  0  0  0  0  0  0
    2.1886   70.1686   64.8012 H   0  0  0  0  0  0  0  0  0  0  0  0
    1.2945   69.8838   67.7971 H   0  0  0  0  0  0  0  0  0  0  0  0
    1.9772   66.3586   70.9224 H   0  0  0  0  0  0  0  0  0  0  0  0
   -1.5122   65.8902   68.5224 H   0  0  0  0  0  0  0  0  0  0  0  0
    6.2724   70.8679   69.2484 H   0  0  0  0  0  0  0  0  0  0  0  0
    6.1176   69.9376   67.7196 H   0  0  0  0  0  0  0  0  0  0  0  0
    5.8576   71.7150   67.7196 H   0  0  0  0  0  0  0  0  0  0  0  0
    5.8768   70.4022   63.3849 H   0  0  0  0  0  0  0  0  0  0  0  0
    6.2839   68.9563   62.3999 H   0  0  0  0  0  0  0  0  0  0  0  0
    4.6069   69.5998   62.3999 H   0  0  0  0  0  0  0  0  0  0  0  0
    2.0671   69.0738   62.8949 H   0  0  0  0  0  0  0  0  0  0  0  0
    2.5666   67.5158   63.6684 H   0  0  0  0  0  0  0  0  0  0  0  0
    1.0360   70.2088   62.3826 H   0  0  0  0  0  0  0  0  0  0  0  0
    0.9473   68.7834   61.2931 H   0  0  0  0  0  0  0  0  0  0  0  0
   -0.3765   69.9976   61.2931 H   0  0  0  0  0  0  0  0  0  0  0  0
  2  1  1  0
  3  2  1  0
  4  3  1  0
  5  4  1  0
  5  1  1  0
  6  5  1  0
  7  6  1  0
  8  7  2  0
  9  8  1  0
 10  9  2  0
 11  9  1  0
 12 11  1  0
 12  6  1  0
 13 12  2  0
 14  1  1  0
 16 14  1  0
 16 15  1  0
 17 16  2  0
 18  2  1  0
 19 18  1  0
 20 19  2  0
 21 19  1  0
 22  3  1  0
 23 22  1  0
 24 23  1  0
 25 24  2  0
 26 24  1  0
  1 27  1  1
  2 28  1  1
  3 29  1  6
  5 30  1  1
  8 31  1  0
 11 32  1  0
 15 33  1  0
 15 34  1  0
 15 35  1  0
 21 36  1  0
 21 37  1  0
 21 38  1  0
 22 39  1  0
 22 40  1  0
 26 41  1  0
 26 42  1  0
 26 43  1  0
M  END
>  <score>  (9) 
-7.139

$$$$
