=
     RDKit          3D

 45 48  0  0  0  0  0  0  0  0999 V2000
    1.9900   61.4060   72.0730 N   0  0  0  0  0  0  0  0  0  0  0  0
    2.6200   62.2970   71.2100 C   0  0  0  0  0  0  0  0  0  0  0  0
    3.4720   61.9830   70.2270 C   0  0  0  0  0  0  0  0  0  0  0  0
    3.8000   60.5740   69.9890 C   0  0  0  0  0  0  0  0  0  0  0  0
    4.5370   60.1750   69.0960 O   0  0  0  0  0  0  0  0  0  0  0  0
    3.1510   59.5850   70.8840 C   0  0  0  0  0  0  0  0  0  0  0  0
    2.2570   60.0100   71.8860 C   0  0  0  0  0  0  0  0  0  0  0  0
    1.6120   59.0170   72.6510 C   0  0  0  0  0  0  0  0  0  0  0  0
    1.8630   57.6420   72.4780 C   0  0  0  0  0  0  0  0  0  0  0  0
    2.7860   57.2790   71.4810 C   0  0  0  0  0  0  0  0  0  0  0  0
    3.4210   58.2270   70.6900 C   0  0  0  0  0  0  0  0  0  0  0  0
    3.0940   55.9880   71.2750 F   0  0  0  0  0  0  0  0  0  0  0  0
    1.1620   56.7260   73.3000 N   0  0  0  0  0  0  0  0  0  0  0  0
    1.9400   56.0660   74.3740 C   0  0  0  0  0  0  0  0  0  0  0  0
    1.1700   54.8280   74.8870 C   0  0  0  0  0  0  0  0  0  0  0  0
   -0.2800   54.8970   74.4680 N   0  0  0  0  0  4  0  0  0  0  0  0
   -0.8710   56.2670   74.6700 C   0  0  0  0  0  0  0  0  0  0  0  0
   -0.1440   57.2780   73.7510 C   0  0  0  0  0  0  0  0  0  0  0  0
   -1.0830   63.4870   76.2170 F   0  0  0  0  0  0  0  0  0  0  0  0
   -0.3460   62.9950   75.2120 C   0  0  0  0  0  0  0  0  0  0  0  0
   -0.9580   62.2430   74.2170 C   0  0  0  0  0  0  0  0  0  0  0  0
   -0.1850   61.7230   73.1760 C   0  0  0  0  0  0  0  0  0  0  0  0
    1.2030   61.9430   73.1360 C   0  0  0  0  0  0  0  0  0  0  0  0
    1.7950   62.7230   74.1460 C   0  0  0  0  0  0  0  0  0  0  0  0
    1.0210   63.2460   75.1840 C   0  0  0  0  0  0  0  0  0  0  0  0
    4.0810   63.1110   69.4360 C   0  0  0  0  0  0  0  0  0  0  0  0
    5.0790   63.6620   69.9870 O   0  0  0  0  0  0  0  0  0  0  0  0
    3.5960   63.2880   68.2850 O   0  0  0  0  0  1  0  0  0  0  0  0
    2.3957   63.3648   71.3494 H   0  0  0  0  0  0  0  0  0  0  0  0
    0.8833   59.3286   73.4138 H   0  0  0  0  0  0  0  0  0  0  0  0
    4.1336   57.9110   69.9139 H   0  0  0  0  0  0  0  0  0  0  0  0
    2.9167   55.7512   73.9778 H   0  0  0  0  0  0  0  0  0  0  0  0
    2.0892   56.7727   75.2037 H   0  0  0  0  0  0  0  0  0  0  0  0
    1.6254   53.9188   74.4675 H   0  0  0  0  0  0  0  0  0  0  0  0
    1.2227   54.8057   75.9855 H   0  0  0  0  0  0  0  0  0  0  0  0
   -0.3480   54.6512   73.4701 H   0  0  0  0  0  0  0  0  0  0  0  0
   -0.8087   54.2370   75.0560 H   0  0  0  0  0  0  0  0  0  0  0  0
   -1.9417   56.2460   74.4188 H   0  0  0  0  0  0  0  0  0  0  0  0
   -0.7490   56.5698   75.7204 H   0  0  0  0  0  0  0  0  0  0  0  0
   -0.7723   57.4853   72.8722 H   0  0  0  0  0  0  0  0  0  0  0  0
    0.0370   58.2051   74.3147 H   0  0  0  0  0  0  0  0  0  0  0  0
   -2.0420   62.0586   74.2486 H   0  0  0  0  0  0  0  0  0  0  0  0
   -0.6668   61.1360   72.3802 H   0  0  0  0  0  0  0  0  0  0  0  0
    2.8764   62.9226   74.1179 H   0  0  0  0  0  0  0  0  0  0  0  0
    1.4895   63.8520   75.9735 H   0  0  0  0  0  0  0  0  0  0  0  0
  2  1  1  0
  3  2  2  0
  4  3  1  0
  5  4  2  0
  6  4  1  0
  7  6  2  0
  7  1  1  0
  8  7  1  0
  9  8  2  0
 10  9  1  0
 11 10  2  0
 11  6  1  0
 12 10  1  0
 13  9  1  0
 14 13  1  0
 15 14  1  0
 16 15  1  0
 17 16  1  0
 18 17  1  0
 18 13  1  0
 20 19  1  0
 21 20  2  0
 22 21  1  0
 23 22  2  0
 23  1  1  0
 24 23  1  0
 25 24  2  0
 25 20  1  0
 26  3  1  0
 27 26  2  0
 28 26  1  0
  2 29  1  0
  8 30  1  0
 11 31  1  0
 14 32  1  0
 14 33  1  0
 15 34  1  0
 15 35  1  0
 16 36  1  0
 16 37  1  0
 17 38  1  0
 17 39  1  0
 18 40  1  0
 18 41  1  0
 21 42  1  0
 22 43  1  0
 24 44  1  0
 25 45  1  0
M  CHG  2  16   1  28  -1
M  END
>  <score>  (1) 
-8.669

$$$$
=
     RDKit          3D

 45 48  0  0  0  0  0  0  0  0999 V2000
    0.1590   62.1730   72.5680 N   0  0  0  0  0  0  0  0  0  0  0  0
    0.1250   63.3330   71.8000 C   0  0  0  0  0  0  0  0  0  0  0  0
    0.9640   63.6540   70.8090 C   0  0  0  0  0  0  0  0  0  0  0  0
    2.0380   62.7220   70.4510 C   0  0  0  0  0  0  0  0  0  0  0  0
    2.8360   62.9010   69.5400 O   0  0  0  0  0  0  0  0  0  0  0  0
    2.1150   61.4700   71.2430 C   0  0  0  0  0  0  0  0  0  0  0  0
    1.1780   61.2120   72.2620 C   0  0  0  0  0  0  0  0  0  0  0  0
    1.2550   59.9690   72.9220 C   0  0  0  0  0  0  0  0  0  0  0  0
    2.2480   59.0130   72.6310 C   0  0  0  0  0  0  0  0  0  0  0  0
    3.1740   59.3380   71.6230 C   0  0  0  0  0  0  0  0  0  0  0  0
    3.1130   60.5410   70.9320 C   0  0  0  0  0  0  0  0  0  0  0  0
    4.1640   58.4870   71.3080 F   0  0  0  0  0  0  0  0  0  0  0  0
    2.2380   57.7960   73.3550 N   0  0  0  0  0  0  0  0  0  0  0  0
    2.4250   57.8920   74.8210 C   0  0  0  0  0  0  0  0  0  0  0  0
    2.8040   56.5040   75.3880 C   0  0  0  0  0  0  0  0  0  0  0  0
    2.4610   55.4180   74.3950 N   0  0  0  0  0  4  0  0  0  0  0  0
    1.1040   55.6140   73.7740 C   0  0  0  0  0  0  0  0  0  0  0  0
    1.1050   56.9220   72.9450 C   0  0  0  0  0  0  0  0  0  0  0  0
   -3.4010   61.7580   76.8220 F   0  0  0  0  0  0  0  0  0  0  0  0
   -2.5380   61.8490   75.8020 C   0  0  0  0  0  0  0  0  0  0  0  0
   -1.3720   62.5890   75.9550 C   0  0  0  0  0  0  0  0  0  0  0  0
   -0.4770   62.6910   74.8870 C   0  0  0  0  0  0  0  0  0  0  0  0
   -0.7540   62.0630   73.6600 C   0  0  0  0  0  0  0  0  0  0  0  0
   -1.9330   61.3060   73.5370 C   0  0  0  0  0  0  0  0  0  0  0  0
   -2.8250   61.2020   74.6060 C   0  0  0  0  0  0  0  0  0  0  0  0
    0.7790   64.9880   70.1340 C   0  0  0  0  0  0  0  0  0  0  0  0
    1.7460   65.7910   70.2800 O   0  0  0  0  0  0  0  0  0  0  0  0
   -0.2570   65.0930   69.4210 O   0  0  0  0  0  1  0  0  0  0  0  0
   -0.6702   64.0572   72.0306 H   0  0  0  0  0  0  0  0  0  0  0  0
    0.5091   59.7358   73.6961 H   0  0  0  0  0  0  0  0  0  0  0  0
    3.8469   60.7624   70.1430 H   0  0  0  0  0  0  0  0  0  0  0  0
    3.2293   58.6094   75.0412 H   0  0  0  0  0  0  0  0  0  0  0  0
    1.4889   58.2336   75.2869 H   0  0  0  0  0  0  0  0  0  0  0  0
    3.8843   56.4791   75.5936 H   0  0  0  0  0  0  0  0  0  0  0  0
    2.2387   56.3309   76.3156 H   0  0  0  0  0  0  0  0  0  0  0  0
    3.1696   55.4178   73.6475 H   0  0  0  0  0  0  0  0  0  0  0  0
    2.4468   54.5220   74.9029 H   0  0  0  0  0  0  0  0  0  0  0  0
    0.8742   54.7625   73.1167 H   0  0  0  0  0  0  0  0  0  0  0  0
    0.3425   55.6796   74.5651 H   0  0  0  0  0  0  0  0  0  0  0  0
    1.2059   56.6746   71.8779 H   0  0  0  0  0  0  0  0  0  0  0  0
    0.1601   57.4568   73.1216 H   0  0  0  0  0  0  0  0  0  0  0  0
   -1.1552   63.0907   76.9096 H   0  0  0  0  0  0  0  0  0  0  0  0
    0.4521   63.2675   75.0072 H   0  0  0  0  0  0  0  0  0  0  0  0
   -2.1542   60.7914   72.5903 H   0  0  0  0  0  0  0  0  0  0  0  0
   -3.7479   60.6125   74.5024 H   0  0  0  0  0  0  0  0  0  0  0  0
  2  1  1  0
  3  2  2  0
  4  3  1  0
  5  4  2  0
  6  4  1  0
  7  6  2  0
  7  1  1  0
  8  7  1  0
  9  8  2  0
 10  9  1  0
 11 10  2  0
 11  6  1  0
 12 10  1  0
 13  9  1  0
 14 13  1  0
 15 14  1  0
 16 15  1  0
 17 16  1  0
 18 17  1  0
 18 13  1  0
 20 19  1  0
 21 20  2  0
 22 21  1  0
 23 22  2  0
 23  1  1  0
 24 23  1  0
 25 24  2  0
 25 20  1  0
 26  3  1  0
 27 26  2  0
 28 26  1  0
  2 29  1  0
  8 30  1  0
 11 31  1  0
 14 32  1  0
 14 33  1  0
 15 34  1  0
 15 35  1  0
 16 36  1  0
 16 37  1  0
 17 38  1  0
 17 39  1  0
 18 40  1  0
 18 41  1  0
 21 42  1  0
 22 43  1  0
 24 44  1  0
 25 45  1  0
M  CHG  2  16   1  28  -1
M  END
>  <score>  (2) 
-8.374

$$$$
=
     RDKit          3D

 45 48  0  0  0  0  0  0  0  0999 V2000
    1.7930   61.0300   72.6620 N   0  0  0  0  0  0  0  0  0  0  0  0
    2.9050   61.1380   71.8340 C   0  0  0  0  0  0  0  0  0  0  0  0
    3.5800   60.1270   71.2750 C   0  0  0  0  0  0  0  0  0  0  0  0
    3.1390   58.7500   71.5200 C   0  0  0  0  0  0  0  0  0  0  0  0
    3.6600   57.7570   71.0300 O   0  0  0  0  0  0  0  0  0  0  0  0
    1.9540   58.5840   72.3970 C   0  0  0  0  0  0  0  0  0  0  0  0
    1.3000   59.7110   72.9320 C   0  0  0  0  0  0  0  0  0  0  0  0
    0.1330   59.4900   73.6910 C   0  0  0  0  0  0  0  0  0  0  0  0
   -0.3650   58.2010   73.9640 C   0  0  0  0  0  0  0  0  0  0  0  0
    0.3460   57.1130   73.4260 C   0  0  0  0  0  0  0  0  0  0  0  0
    1.4840   57.2910   72.6520 C   0  0  0  0  0  0  0  0  0  0  0  0
   -0.0550   55.8530   73.6650 F   0  0  0  0  0  0  0  0  0  0  0  0
   -1.5450   58.0900   74.7390 N   0  0  0  0  0  0  0  0  0  0  0  0
   -1.3880   57.5760   76.1190 C   0  0  0  0  0  0  0  0  0  0  0  0
   -2.7630   57.1270   76.6650 C   0  0  0  0  0  0  0  0  0  0  0  0
   -3.8790   57.7180   75.8360 N   0  0  0  0  0  4  0  0  0  0  0  0
   -3.6510   59.1730   75.5210 C   0  0  0  0  0  0  0  0  0  0  0  0
   -2.3860   59.3140   74.6410 C   0  0  0  0  0  0  0  0  0  0  0  0
   -0.1940   65.6800   74.9800 F   0  0  0  0  0  0  0  0  0  0  0  0
    0.2750   64.5540   74.4260 C   0  0  0  0  0  0  0  0  0  0  0  0
    1.0020   63.6600   75.2010 C   0  0  0  0  0  0  0  0  0  0  0  0
    1.4990   62.4910   74.6180 C   0  0  0  0  0  0  0  0  0  0  0  0
    1.2800   62.2220   73.2560 C   0  0  0  0  0  0  0  0  0  0  0  0
    0.5260   63.1360   72.4980 C   0  0  0  0  0  0  0  0  0  0  0  0
    0.0260   64.3010   73.0820 C   0  0  0  0  0  0  0  0  0  0  0  0
    4.7930   60.4620   70.4460 C   0  0  0  0  0  0  0  0  0  0  0  0
    4.5870   60.4860   69.1980 O   0  0  0  0  0  0  0  0  0  0  0  0
    5.8220   60.7850   71.1000 O   0  0  0  0  0  1  0  0  0  0  0  0
    3.2651   62.1546   71.6173 H   0  0  0  0  0  0  0  0  0  0  0  0
   -0.4114   60.3602   74.0865 H   0  0  0  0  0  0  0  0  0  0  0  0
    2.0142   56.4194   72.2407 H   0  0  0  0  0  0  0  0  0  0  0  0
   -0.6985   56.7190   76.1142 H   0  0  0  0  0  0  0  0  0  0  0  0
   -0.9822   58.3716   76.7611 H   0  0  0  0  0  0  0  0  0  0  0  0
   -2.8265   56.0295   76.6280 H   0  0  0  0  0  0  0  0  0  0  0  0
   -2.8660   57.4776   77.7025 H   0  0  0  0  0  0  0  0  0  0  0  0
   -3.9469   57.1947   74.9515 H   0  0  0  0  0  0  0  0  0  0  0  0
   -4.7485   57.6476   76.3837 H   0  0  0  0  0  0  0  0  0  0  0  0
   -4.5214   59.5725   74.9799 H   0  0  0  0  0  0  0  0  0  0  0  0
   -3.5135   59.7352   76.4564 H   0  0  0  0  0  0  0  0  0  0  0  0
   -2.6880   59.4630   73.5938 H   0  0  0  0  0  0  0  0  0  0  0  0
   -1.8016   60.1769   74.9930 H   0  0  0  0  0  0  0  0  0  0  0  0
    1.1852   63.8702   76.2651 H   0  0  0  0  0  0  0  0  0  0  0  0
    2.0666   61.7751   75.2306 H   0  0  0  0  0  0  0  0  0  0  0  0
    0.3286   62.9308   71.4355 H   0  0  0  0  0  0  0  0  0  0  0  0
   -0.5606   65.0134   72.4833 H   0  0  0  0  0  0  0  0  0  0  0  0
  2  1  1  0
  3  2  2  0
  4  3  1  0
  5  4  2  0
  6  4  1  0
  7  6  2  0
  7  1  1  0
  8  7  1  0
  9  8  2  0
 10  9  1  0
 11 10  2  0
 11  6  1  0
 12 10  1  0
 13  9  1  0
 14 13  1  0
 15 14  1  0
 16 15  1  0
 17 16  1  0
 18 17  1  0
 18 13  1  0
 20 19  1  0
 21 20  2  0
 22 21  1  0
 23 22  2  0
 23  1  1  0
 24 23  1  0
 25 24  2  0
 25 20  1  0
 26  3  1  0
 27 26  2  0
 28 26  1  0
  2 29  1  0
  8 30  1  0
 11 31  1  0
 14 32  1  0
 14 33  1  0
 15 34  1  0
 15 35  1  0
 16 36  1  0
 16 37  1  0
 17 38  1  0
 17 39  1  0
 18 40  1  0
 18 41  1  0
 21 42  1  0
 22 43  1  0
 24 44  1  0
 25 45  1  0
M  CHG  2  16   1  28  -1
M  END
>  <score>  (3) 
-8.289

$$$$
=
     RDKit          3D

 45 48  0  0  0  0  0  0  0  0999 V2000
    1.6290   58.0610   73.6920 N   0  0  0  0  0  0  0  0  0  0  0  0
    2.7450   58.4630   72.9660 C   0  0  0  0  0  0  0  0  0  0  0  0
    2.8550   59.5730   72.2280 C   0  0  0  0  0  0  0  0  0  0  0  0
    1.7190   60.4960   72.1510 C   0  0  0  0  0  0  0  0  0  0  0  0
    1.7260   61.5550   71.5370 O   0  0  0  0  0  0  0  0  0  0  0  0
    0.5040   60.1110   72.9120 C   0  0  0  0  0  0  0  0  0  0  0  0
    0.4860   58.9260   73.6710 C   0  0  0  0  0  0  0  0  0  0  0  0
   -0.6690   58.6570   74.4350 C   0  0  0  0  0  0  0  0  0  0  0  0
   -1.7990   59.4970   74.4270 C   0  0  0  0  0  0  0  0  0  0  0  0
   -1.7320   60.6520   73.6270 C   0  0  0  0  0  0  0  0  0  0  0  0
   -0.6030   60.9650   72.8830 C   0  0  0  0  0  0  0  0  0  0  0  0
   -2.7810   61.4880   73.5500 F   0  0  0  0  0  0  0  0  0  0  0  0
   -2.9080   59.1340   75.2290 N   0  0  0  0  0  0  0  0  0  0  0  0
   -3.0730   57.6920   75.5220 C   0  0  0  0  0  0  0  0  0  0  0  0
   -4.5100   57.4260   76.0280 C   0  0  0  0  0  0  0  0  0  0  0  0
   -5.1610   58.7160   76.4700 N   0  0  0  0  0  4  0  0  0  0  0  0
   -4.2370   59.5730   77.2940 C   0  0  0  0  0  0  0  0  0  0  0  0
   -3.0350   60.0140   76.4230 C   0  0  0  0  0  0  0  0  0  0  0  0
    1.7560   53.0820   76.1690 F   0  0  0  0  0  0  0  0  0  0  0  0
    1.7370   54.2800   75.5710 C   0  0  0  0  0  0  0  0  0  0  0  0
    2.0260   55.4200   76.3110 C   0  0  0  0  0  0  0  0  0  0  0  0
    1.9950   56.6700   75.6870 C   0  0  0  0  0  0  0  0  0  0  0  0
    1.6640   56.7820   74.3250 C   0  0  0  0  0  0  0  0  0  0  0  0
    1.3930   55.6110   73.5950 C   0  0  0  0  0  0  0  0  0  0  0  0
    1.4280   54.3620   74.2190 C   0  0  0  0  0  0  0  0  0  0  0  0
    4.1430   59.7960   71.4780 C   0  0  0  0  0  0  0  0  0  0  0  0
    4.1780   59.2770   70.3250 O   0  0  0  0  0  0  0  0  0  0  0  0
    4.9720   60.5610   72.0440 O   0  0  0  0  0  1  0  0  0  0  0  0
    3.6241   57.8028   73.0023 H   0  0  0  0  0  0  0  0  0  0  0  0
   -0.6876   57.7539   75.0628 H   0  0  0  0  0  0  0  0  0  0  0  0
   -0.5790   61.8804   72.2735 H   0  0  0  0  0  0  0  0  0  0  0  0
   -2.8938   57.1096   74.6062 H   0  0  0  0  0  0  0  0  0  0  0  0
   -2.3518   57.3920   76.2965 H   0  0  0  0  0  0  0  0  0  0  0  0
   -5.1034   56.9804   75.2160 H   0  0  0  0  0  0  0  0  0  0  0  0
   -4.4645   56.7378   76.8850 H   0  0  0  0  0  0  0  0  0  0  0  0
   -5.4459   59.2460   75.6340 H   0  0  0  0  0  0  0  0  0  0  0  0
   -5.9713   58.4733   77.0577 H   0  0  0  0  0  0  0  0  0  0  0  0
   -4.7792   60.4618   77.6490 H   0  0  0  0  0  0  0  0  0  0  0  0
   -3.8741   58.9978   78.1585 H   0  0  0  0  0  0  0  0  0  0  0  0
   -3.1880   61.0522   76.0933 H   0  0  0  0  0  0  0  0  0  0  0  0
   -2.1148   59.9387   77.0209 H   0  0  0  0  0  0  0  0  0  0  0  0
    2.2771   55.3392   77.3789 H   0  0  0  0  0  0  0  0  0  0  0  0
    2.2317   57.5745   76.2665 H   0  0  0  0  0  0  0  0  0  0  0  0
    1.1515   55.6793   72.5240 H   0  0  0  0  0  0  0  0  0  0  0  0
    1.2124   53.4494   73.6439 H   0  0  0  0  0  0  0  0  0  0  0  0
  2  1  1  0
  3  2  2  0
  4  3  1  0
  5  4  2  0
  6  4  1  0
  7  6  2  0
  7  1  1  0
  8  7  1  0
  9  8  2  0
 10  9  1  0
 11 10  2  0
 11  6  1  0
 12 10  1  0
 13  9  1  0
 14 13  1  0
 15 14  1  0
 16 15  1  0
 17 16  1  0
 18 17  1  0
 18 13  1  0
 20 19  1  0
 21 20  2  0
 22 21  1  0
 23 22  2  0
 23  1  1  0
 24 23  1  0
 25 24  2  0
 25 20  1  0
 26  3  1  0
 27 26  2  0
 28 26  1  0
  2 29  1  0
  8 30  1  0
 11 31  1  0
 14 32  1  0
 14 33  1  0
 15 34  1  0
 15 35  1  0
 16 36  1  0
 16 37  1  0
 17 38  1  0
 17 39  1  0
 18 40  1  0
 18 41  1  0
 21 42  1  0
 22 43  1  0
 24 44  1  0
 25 45  1  0
M  CHG  2  16   1  28  -1
M  END
>  <score>  (4) 
-7.588

$$$$
=
     RDKit          3D

 45 48  0  0  0  0  0  0  0  0999 V2000
    1.5300   61.5390   73.3060 N   0  0  0  0  0  0  0  0  0  0  0  0
    1.1650   62.8720   73.4620 C   0  0  0  0  0  0  0  0  0  0  0  0
    0.0300   63.3260   74.0050 C   0  0  0  0  0  0  0  0  0  0  0  0
   -0.9560   62.3650   74.5100 C   0  0  0  0  0  0  0  0  0  0  0  0
   -2.0070   62.6720   75.0570 O   0  0  0  0  0  0  0  0  0  0  0  0
   -0.6100   60.9290   74.3670 C   0  0  0  0  0  0  0  0  0  0  0  0
    0.6170   60.5460   73.7920 C   0  0  0  0  0  0  0  0  0  0  0  0
    0.9220   59.1700   73.7590 C   0  0  0  0  0  0  0  0  0  0  0  0
    0.0360   58.1830   74.2320 C   0  0  0  0  0  0  0  0  0  0  0  0
   -1.1860   58.6240   74.7710 C   0  0  0  0  0  0  0  0  0  0  0  0
   -1.5100   59.9720   74.8460 C   0  0  0  0  0  0  0  0  0  0  0  0
   -2.0910   57.7390   75.2200 F   0  0  0  0  0  0  0  0  0  0  0  0
    0.4390   56.8280   74.1510 N   0  0  0  0  0  0  0  0  0  0  0  0
   -0.5470   55.8730   73.5960 C   0  0  0  0  0  0  0  0  0  0  0  0
   -0.1310   54.4280   73.9580 C   0  0  0  0  0  0  0  0  0  0  0  0
    1.3200   54.3860   74.3760 N   0  0  0  0  0  4  0  0  0  0  0  0
    2.2030   55.2010   73.4680 C   0  0  0  0  0  0  0  0  0  0  0  0
    1.8040   56.6930   73.5710 C   0  0  0  0  0  0  0  0  0  0  0  0
    6.2230   60.4290   70.5330 F   0  0  0  0  0  0  0  0  0  0  0  0
    5.0910   60.6850   71.2020 C   0  0  0  0  0  0  0  0  0  0  0  0
    3.8830   60.7220   70.5160 C   0  0  0  0  0  0  0  0  0  0  0  0
    2.7050   60.9990   71.2140 C   0  0  0  0  0  0  0  0  0  0  0  0
    2.7350   61.2520   72.5970 C   0  0  0  0  0  0  0  0  0  0  0  0
    3.9690   61.1910   73.2700 C   0  0  0  0  0  0  0  0  0  0  0  0
    5.1450   60.9100   72.5720 C   0  0  0  0  0  0  0  0  0  0  0  0
   -0.1910   64.8160   74.0330 C   0  0  0  0  0  0  0  0  0  0  0  0
   -0.0780   65.3440   75.1780 O   0  0  0  0  0  0  0  0  0  0  0  0
   -0.3480   65.3610   72.9060 O   0  0  0  0  0  1  0  0  0  0  0  0
    1.8800   63.6272   73.1036 H   0  0  0  0  0  0  0  0  0  0  0  0
    1.8918   58.8544   73.3469 H   0  0  0  0  0  0  0  0  0  0  0  0
   -2.4706   60.2858   75.2804 H   0  0  0  0  0  0  0  0  0  0  0  0
   -1.5400   56.0849   74.0191 H   0  0  0  0  0  0  0  0  0  0  0  0
   -0.5824   55.9795   72.5017 H   0  0  0  0  0  0  0  0  0  0  0  0
   -0.7575   54.0676   74.7872 H   0  0  0  0  0  0  0  0  0  0  0  0
   -0.2663   53.7862   73.0749 H   0  0  0  0  0  0  0  0  0  0  0  0
    1.3991   54.7562   75.3339 H   0  0  0  0  0  0  0  0  0  0  0  0
    1.6339   53.4064   74.3228 H   0  0  0  0  0  0  0  0  0  0  0  0
    3.2534   55.0797   73.7711 H   0  0  0  0  0  0  0  0  0  0  0  0
    2.0812   54.8577   72.4301 H   0  0  0  0  0  0  0  0  0  0  0  0
    2.5249   57.2170   74.2157 H   0  0  0  0  0  0  0  0  0  0  0  0
    1.8078   57.1331   72.5629 H   0  0  0  0  0  0  0  0  0  0  0  0
    3.8546   60.5347   69.4324 H   0  0  0  0  0  0  0  0  0  0  0  0
    1.7452   61.0194   70.6769 H   0  0  0  0  0  0  0  0  0  0  0  0
    4.0076   61.3662   74.3553 H   0  0  0  0  0  0  0  0  0  0  0  0
    6.1074   60.8670   73.1029 H   0  0  0  0  0  0  0  0  0  0  0  0
  2  1  1  0
  3  2  2  0
  4  3  1  0
  5  4  2  0
  6  4  1  0
  7  6  2  0
  7  1  1  0
  8  7  1  0
  9  8  2  0
 10  9  1  0
 11 10  2  0
 11  6  1  0
 12 10  1  0
 13  9  1  0
 14 13  1  0
 15 14  1  0
 16 15  1  0
 17 16  1  0
 18 17  1  0
 18 13  1  0
 20 19  1  0
 21 20  2  0
 22 21  1  0
 23 22  2  0
 23  1  1  0
 24 23  1  0
 25 24  2  0
 25 20  1  0
 26  3  1  0
 27 26  2  0
 28 26  1  0
  2 29  1  0
  8 30  1  0
 11 31  1  0
 14 32  1  0
 14 33  1  0
 15 34  1  0
 15 35  1  0
 16 36  1  0
 16 37  1  0
 17 38  1  0
 17 39  1  0
 18 40  1  0
 18 41  1  0
 21 42  1  0
 22 43  1  0
 24 44  1  0
 25 45  1  0
M  CHG  2  16   1  28  -1
M  END
>  <score>  (5) 
-7.501

$$$$
=
     RDKit          3D

 45 48  0  0  0  0  0  0  0  0999 V2000
    1.0020   61.0920   72.2510 N   0  0  0  0  0  0  0  0  0  0  0  0
    2.1340   60.5800   71.6230 C   0  0  0  0  0  0  0  0  0  0  0  0
    2.6240   59.3430   71.7550 C   0  0  0  0  0  0  0  0  0  0  0  0
    1.9320   58.3880   72.6270 C   0  0  0  0  0  0  0  0  0  0  0  0
    2.2730   57.2240   72.7900 O   0  0  0  0  0  0  0  0  0  0  0  0
    0.7170   58.8880   73.3180 C   0  0  0  0  0  0  0  0  0  0  0  0
    0.2700   60.2060   73.1080 C   0  0  0  0  0  0  0  0  0  0  0  0
   -0.9350   60.5940   73.7300 C   0  0  0  0  0  0  0  0  0  0  0  0
   -1.6660   59.7360   74.5740 C   0  0  0  0  0  0  0  0  0  0  0  0
   -1.1560   58.4400   74.7680 C   0  0  0  0  0  0  0  0  0  0  0  0
    0.0130   58.0130   74.1510 C   0  0  0  0  0  0  0  0  0  0  0  0
   -1.7860   57.5740   75.5780 F   0  0  0  0  0  0  0  0  0  0  0  0
   -2.8630   60.2260   75.1500 N   0  0  0  0  0  0  0  0  0  0  0  0
   -3.0380   61.6970   75.1710 C   0  0  0  0  0  0  0  0  0  0  0  0
   -4.1510   62.0730   76.1770 C   0  0  0  0  0  0  0  0  0  0  0  0
   -4.9940   60.8640   76.5080 N   0  0  0  0  0  4  0  0  0  0  0  0
   -5.3490   60.0590   75.2860 C   0  0  0  0  0  0  0  0  0  0  0  0
   -4.0550   59.4810   74.6610 C   0  0  0  0  0  0  0  0  0  0  0  0
   -0.1500   66.4910   71.5670 F   0  0  0  0  0  0  0  0  0  0  0  0
    0.1160   65.1880   71.7320 C   0  0  0  0  0  0  0  0  0  0  0  0
    0.1110   64.6440   73.0100 C   0  0  0  0  0  0  0  0  0  0  0  0
    0.3990   63.2870   73.1810 C   0  0  0  0  0  0  0  0  0  0  0  0
    0.7040   62.4760   72.0740 C   0  0  0  0  0  0  0  0  0  0  0  0
    0.6850   63.0480   70.7890 C   0  0  0  0  0  0  0  0  0  0  0  0
    0.3940   64.4030   70.6190 C   0  0  0  0  0  0  0  0  0  0  0  0
    3.8950   59.0060   71.0200 C   0  0  0  0  0  0  0  0  0  0  0  0
    4.8870   59.7290   71.3250 O   0  0  0  0  0  0  0  0  0  0  0  0
    3.8390   57.9830   70.2840 O   0  0  0  0  0  1  0  0  0  0  0  0
    2.6791   61.2602   70.9520 H   0  0  0  0  0  0  0  0  0  0  0  0
   -1.3195   61.6085   73.5483 H   0  0  0  0  0  0  0  0  0  0  0  0
    0.3834   56.9906   74.3171 H   0  0  0  0  0  0  0  0  0  0  0  0
   -2.0942   62.1736   75.4743 H   0  0  0  0  0  0  0  0  0  0  0  0
   -3.3205   62.0456   74.1667 H   0  0  0  0  0  0  0  0  0  0  0  0
   -3.6909   62.4572   77.0993 H   0  0  0  0  0  0  0  0  0  0  0  0
   -4.7940   62.8428   75.7255 H   0  0  0  0  0  0  0  0  0  0  0  0
   -4.4688   60.2628   77.1589 H   0  0  0  0  0  0  0  0  0  0  0  0
   -5.8722   61.1995   76.9288 H   0  0  0  0  0  0  0  0  0  0  0  0
   -6.0196   59.2348   75.5708 H   0  0  0  0  0  0  0  0  0  0  0  0
   -5.8559   60.7045   74.5536 H   0  0  0  0  0  0  0  0  0  0  0  0
   -3.9597   58.4214   74.9408 H   0  0  0  0  0  0  0  0  0  0  0  0
   -4.1128   59.5803   73.5670 H   0  0  0  0  0  0  0  0  0  0  0  0
   -0.1178   65.2761   73.8807 H   0  0  0  0  0  0  0  0  0  0  0  0
    0.3869   62.8499   74.1904 H   0  0  0  0  0  0  0  0  0  0  0  0
    0.9013   62.4224   69.9105 H   0  0  0  0  0  0  0  0  0  0  0  0
    0.3848   64.8459   69.6121 H   0  0  0  0  0  0  0  0  0  0  0  0
  2  1  1  0
  3  2  2  0
  4  3  1  0
  5  4  2  0
  6  4  1  0
  7  6  2  0
  7  1  1  0
  8  7  1  0
  9  8  2  0
 10  9  1  0
 11 10  2  0
 11  6  1  0
 12 10  1  0
 13  9  1  0
 14 13  1  0
 15 14  1  0
 16 15  1  0
 17 16  1  0
 18 17  1  0
 18 13  1  0
 20 19  1  0
 21 20  2  0
 22 21  1  0
 23 22  2  0
 23  1  1  0
 24 23  1  0
 25 24  2  0
 25 20  1  0
 26  3  1  0
 27 26  2  0
 28 26  1  0
  2 29  1  0
  8 30  1  0
 11 31  1  0
 14 32  1  0
 14 33  1  0
 15 34  1  0
 15 35  1  0
 16 36  1  0
 16 37  1  0
 17 38  1  0
 17 39  1  0
 18 40  1  0
 18 41  1  0
 21 42  1  0
 22 43  1  0
 24 44  1  0
 25 45  1  0
M  CHG  2  16   1  28  -1
M  END
>  <score>  (6) 
-7.498

$$$$
=
     RDKit          3D

 45 48  0  0  0  0  0  0  0  0999 V2000
    1.9270   59.8500   73.1250 N   0  0  0  0  0  0  0  0  0  0  0  0
    2.8380   59.6150   72.1010 C   0  0  0  0  0  0  0  0  0  0  0  0
    3.2640   60.5040   71.1960 C   0  0  0  0  0  0  0  0  0  0  0  0
    2.7580   61.8790   71.2520 C   0  0  0  0  0  0  0  0  0  0  0  0
    3.1090   62.7780   70.4990 O   0  0  0  0  0  0  0  0  0  0  0  0
    1.7840   62.1790   72.3300 C   0  0  0  0  0  0  0  0  0  0  0  0
    1.4030   61.1790   73.2450 C   0  0  0  0  0  0  0  0  0  0  0  0
    0.5360   61.5490   74.2940 C   0  0  0  0  0  0  0  0  0  0  0  0
    0.0140   62.8500   74.4270 C   0  0  0  0  0  0  0  0  0  0  0  0
    0.4090   63.8000   73.4670 C   0  0  0  0  0  0  0  0  0  0  0  0
    1.2810   63.4810   72.4360 C   0  0  0  0  0  0  0  0  0  0  0  0
   -0.0680   65.0550   73.5150 F   0  0  0  0  0  0  0  0  0  0  0  0
   -0.8500   63.1160   75.5160 N   0  0  0  0  0  0  0  0  0  0  0  0
   -2.0700   62.2820   75.6170 C   0  0  0  0  0  0  0  0  0  0  0  0
   -3.0820   62.9550   76.5730 C   0  0  0  0  0  0  0  0  0  0  0  0
   -2.3920   63.9940   77.4250 N   0  0  0  0  0  4  0  0  0  0  0  0
   -1.0740   63.5090   77.9700 C   0  0  0  0  0  0  0  0  0  0  0  0
   -0.1000   63.2480   76.7950 C   0  0  0  0  0  0  0  0  0  0  0  0
    0.2980   55.5200   76.2140 F   0  0  0  0  0  0  0  0  0  0  0  0
    0.6830   56.5700   75.4760 C   0  0  0  0  0  0  0  0  0  0  0  0
   -0.0880   56.9640   74.3890 C   0  0  0  0  0  0  0  0  0  0  0  0
    0.3210   58.0530   73.6150 C   0  0  0  0  0  0  0  0  0  0  0  0
    1.5080   58.7410   73.9200 C   0  0  0  0  0  0  0  0  0  0  0  0
    2.2610   58.3330   75.0360 C   0  0  0  0  0  0  0  0  0  0  0  0
    1.8490   57.2470   75.8110 C   0  0  0  0  0  0  0  0  0  0  0  0
    4.2220   60.0270   70.1360 C   0  0  0  0  0  0  0  0  0  0  0  0
    5.4180   60.4060   70.2980 O   0  0  0  0  0  0  0  0  0  0  0  0
    3.7370   59.2240   69.2920 O   0  0  0  0  0  1  0  0  0  0  0  0
    3.2493   58.5974   72.0276 H   0  0  0  0  0  0  0  0  0  0  0  0
    0.2560   60.7898   75.0391 H   0  0  0  0  0  0  0  0  0  0  0  0
    1.5759   64.2481   71.7049 H   0  0  0  0  0  0  0  0  0  0  0  0
   -2.5235   62.1748   74.6206 H   0  0  0  0  0  0  0  0  0  0  0  0
   -1.8022   61.2897   76.0089 H   0  0  0  0  0  0  0  0  0  0  0  0
   -3.8729   63.4389   75.9811 H   0  0  0  0  0  0  0  0  0  0  0  0
   -3.5169   62.1871   77.2297 H   0  0  0  0  0  0  0  0  0  0  0  0
   -2.2239   64.8330   76.8516 H   0  0  0  0  0  0  0  0  0  0  0  0
   -3.0056   64.2001   78.2262 H   0  0  0  0  0  0  0  0  0  0  0  0
   -0.6486   64.2731   78.6372 H   0  0  0  0  0  0  0  0  0  0  0  0
   -1.2287   62.5777   78.5346 H   0  0  0  0  0  0  0  0  0  0  0  0
    0.6054   64.0883   76.7160 H   0  0  0  0  0  0  0  0  0  0  0  0
    0.4453   62.3120   76.9860 H   0  0  0  0  0  0  0  0  0  0  0  0
   -1.0128   56.4229   74.1400 H   0  0  0  0  0  0  0  0  0  0  0  0
   -0.2913   58.3746   72.7596 H   0  0  0  0  0  0  0  0  0  0  0  0
    3.1817   58.8738   75.3002 H   0  0  0  0  0  0  0  0  0  0  0  0
    2.4434   56.9298   76.6805 H   0  0  0  0  0  0  0  0  0  0  0  0
  2  1  1  0
  3  2  2  0
  4  3  1  0
  5  4  2  0
  6  4  1  0
  7  6  2  0
  7  1  1  0
  8  7  1  0
  9  8  2  0
 10  9  1  0
 11 10  2  0
 11  6  1  0
 12 10  1  0
 13  9  1  0
 14 13  1  0
 15 14  1  0
 16 15  1  0
 17 16  1  0
 18 17  1  0
 18 13  1  0
 20 19  1  0
 21 20  2  0
 22 21  1  0
 23 22  2  0
 23  1  1  0
 24 23  1  0
 25 24  2  0
 25 20  1  0
 26  3  1  0
 27 26  2  0
 28 26  1  0
  2 29  1  0
  8 30  1  0
 11 31  1  0
 14 32  1  0
 14 33  1  0
 15 34  1  0
 15 35  1  0
 16 36  1  0
 16 37  1  0
 17 38  1  0
 17 39  1  0
 18 40  1  0
 18 41  1  0
 21 42  1  0
 22 43  1  0
 24 44  1  0
 25 45  1  0
M  CHG  2  16   1  28  -1
M  END
>  <score>  (7) 
-7.447

$$$$
=
     RDKit          3D

 45 48  0  0  0  0  0  0  0  0999 V2000
    0.0270   60.7340   73.2400 N   0  0  0  0  0  0  0  0  0  0  0  0
    0.6340   61.6820   72.4220 C   0  0  0  0  0  0  0  0  0  0  0  0
    1.7060   61.4900   71.6450 C   0  0  0  0  0  0  0  0  0  0  0  0
    2.3350   60.1660   71.6080 C   0  0  0  0  0  0  0  0  0  0  0  0
    3.2940   59.8740   70.9050 O   0  0  0  0  0  0  0  0  0  0  0  0
    1.7210   59.1210   72.4630 C   0  0  0  0  0  0  0  0  0  0  0  0
    0.5850   59.4130   73.2410 C   0  0  0  0  0  0  0  0  0  0  0  0
    0.0010   58.3560   73.9690 C   0  0  0  0  0  0  0  0  0  0  0  0
    0.5360   57.0530   73.9790 C   0  0  0  0  0  0  0  0  0  0  0  0
    1.6880   56.8280   73.2050 C   0  0  0  0  0  0  0  0  0  0  0  0
    2.2760   57.8370   72.4540 C   0  0  0  0  0  0  0  0  0  0  0  0
    2.2690   55.6170   73.1850 F   0  0  0  0  0  0  0  0  0  0  0  0
   -0.1260   56.0650   74.7460 N   0  0  0  0  0  0  0  0  0  0  0  0
    0.5010   55.6910   76.0350 C   0  0  0  0  0  0  0  0  0  0  0  0
   -0.0870   54.3490   76.5290 C   0  0  0  0  0  0  0  0  0  0  0  0
   -1.3800   54.0430   75.8110 N   0  0  0  0  0  4  0  0  0  0  0  0
   -2.2790   55.2470   75.7070 C   0  0  0  0  0  0  0  0  0  0  0  0
   -1.5890   56.3270   74.8390 C   0  0  0  0  0  0  0  0  0  0  0  0
   -4.1370   62.3870   76.5370 F   0  0  0  0  0  0  0  0  0  0  0  0
   -3.1360   61.9990   75.7360 C   0  0  0  0  0  0  0  0  0  0  0  0
   -3.4200   61.2700   74.5880 C   0  0  0  0  0  0  0  0  0  0  0  0
   -2.3740   60.8570   73.7600 C   0  0  0  0  0  0  0  0  0  0  0  0
   -1.0400   61.1620   74.0860 C   0  0  0  0  0  0  0  0  0  0  0  0
   -0.7820   61.9150   75.2450 C   0  0  0  0  0  0  0  0  0  0  0  0
   -1.8290   62.3310   76.0700 C   0  0  0  0  0  0  0  0  0  0  0  0
    2.2350   62.6700   70.8710 C   0  0  0  0  0  0  0  0  0  0  0  0
    1.5350   62.9990   69.8690 O   0  0  0  0  0  0  0  0  0  0  0  0
    3.2350   63.2450   71.3800 O   0  0  0  0  0  1  0  0  0  0  0  0
    0.1888   62.6878   72.4134 H   0  0  0  0  0  0  0  0  0  0  0  0
   -0.9093   58.5571   74.5528 H   0  0  0  0  0  0  0  0  0  0  0  0
    3.1743   57.6276   71.8546 H   0  0  0  0  0  0  0  0  0  0  0  0
    1.5872   55.5857   75.8966 H   0  0  0  0  0  0  0  0  0  0  0  0
    0.2984   56.4744   76.7801 H   0  0  0  0  0  0  0  0  0  0  0  0
    0.6355   53.5430   76.3332 H   0  0  0  0  0  0  0  0  0  0  0  0
   -0.2877   54.4237   77.6079 H   0  0  0  0  0  0  0  0  0  0  0  0
   -1.1601   53.7115   74.8609 H   0  0  0  0  0  0  0  0  0  0  0  0
   -1.8789   53.3252   76.3557 H   0  0  0  0  0  0  0  0  0  0  0  0
   -3.2319   54.9550   75.2415 H   0  0  0  0  0  0  0  0  0  0  0  0
   -2.4727   55.6502   76.7119 H   0  0  0  0  0  0  0  0  0  0  0  0
   -2.0243   56.3122   73.8289 H   0  0  0  0  0  0  0  0  0  0  0  0
   -1.7453   57.3112   75.3048 H   0  0  0  0  0  0  0  0  0  0  0  0
   -4.4605   61.0201   74.3332 H   0  0  0  0  0  0  0  0  0  0  0  0
   -2.5952   60.2882   72.8448 H   0  0  0  0  0  0  0  0  0  0  0  0
    0.2540   62.1788   75.5042 H   0  0  0  0  0  0  0  0  0  0  0  0
   -1.6205   62.9170   76.9773 H   0  0  0  0  0  0  0  0  0  0  0  0
  2  1  1  0
  3  2  2  0
  4  3  1  0
  5  4  2  0
  6  4  1  0
  7  6  2  0
  7  1  1  0
  8  7  1  0
  9  8  2  0
 10  9  1  0
 11 10  2  0
 11  6  1  0
 12 10  1  0
 13  9  1  0
 14 13  1  0
 15 14  1  0
 16 15  1  0
 17 16  1  0
 18 17  1  0
 18 13  1  0
 20 19  1  0
 21 20  2  0
 22 21  1  0
 23 22  2  0
 23  1  1  0
 24 23  1  0
 25 24  2  0
 25 20  1  0
 26  3  1  0
 27 26  2  0
 28 26  1  0
  2 29  1  0
  8 30  1  0
 11 31  1  0
 14 32  1  0
 14 33  1  0
 15 34  1  0
 15 35  1  0
 16 36  1  0
 16 37  1  0
 17 38  1  0
 17 39  1  0
 18 40  1  0
 18 41  1  0
 21 42  1  0
 22 43  1  0
 24 44  1  0
 25 45  1  0
M  CHG  2  16   1  28  -1
M  END
>  <score>  (8) 
-7.344

$$$$
=
     RDKit          3D

 45 48  0  0  0  0  0  0  0  0999 V2000
    0.4220   58.9000   74.4540 N   0  0  0  0  0  0  0  0  0  0  0  0
    0.0980   57.7160   75.1100 C   0  0  0  0  0  0  0  0  0  0  0  0
    0.5190   56.4880   74.7850 C   0  0  0  0  0  0  0  0  0  0  0  0
    1.4200   56.3200   73.6410 C   0  0  0  0  0  0  0  0  0  0  0  0
    1.8930   55.2490   73.2820 O   0  0  0  0  0  0  0  0  0  0  0  0
    1.7950   57.5560   72.9110 C   0  0  0  0  0  0  0  0  0  0  0  0
    1.3110   58.8080   73.3330 C   0  0  0  0  0  0  0  0  0  0  0  0
    1.7690   59.9520   72.6480 C   0  0  0  0  0  0  0  0  0  0  0  0
    2.6430   59.8790   71.5460 C   0  0  0  0  0  0  0  0  0  0  0  0
    3.0710   58.5990   71.1520 C   0  0  0  0  0  0  0  0  0  0  0  0
    2.6640   57.4520   71.8190 C   0  0  0  0  0  0  0  0  0  0  0  0
    3.8860   58.4490   70.0940 F   0  0  0  0  0  0  0  0  0  0  0  0
    3.0400   61.0890   70.9260 N   0  0  0  0  0  0  0  0  0  0  0  0
    2.0440   62.1850   70.9060 C   0  0  0  0  0  0  0  0  0  0  0  0
    2.4590   63.2450   69.8600 C   0  0  0  0  0  0  0  0  0  0  0  0
    3.9150   63.0800   69.4910 N   0  0  0  0  0  4  0  0  0  0  0  0
    4.7900   62.8510   70.6950 C   0  0  0  0  0  0  0  0  0  0  0  0
    4.3980   61.5130   71.3660 C   0  0  0  0  0  0  0  0  0  0  0  0
   -2.0720   63.5880   76.1120 F   0  0  0  0  0  0  0  0  0  0  0  0
   -1.4760   62.4530   75.7230 C   0  0  0  0  0  0  0  0  0  0  0  0
   -0.2180   62.1340   76.2210 C   0  0  0  0  0  0  0  0  0  0  0  0
    0.4060   60.9550   75.8050 C   0  0  0  0  0  0  0  0  0  0  0  0
   -0.2210   60.1010   74.8810 C   0  0  0  0  0  0  0  0  0  0  0  0
   -1.5010   60.4390   74.4060 C   0  0  0  0  0  0  0  0  0  0  0  0
   -2.1260   61.6150   74.8250 C   0  0  0  0  0  0  0  0  0  0  0  0
    0.0080   55.3300   75.6020 C   0  0  0  0  0  0  0  0  0  0  0  0
    0.7460   55.0060   76.5770 O   0  0  0  0  0  0  0  0  0  0  0  0
   -1.1370   54.9060   75.2810 O   0  0  0  0  0  1  0  0  0  0  0  0
   -0.5693   57.7976   75.9807 H   0  0  0  0  0  0  0  0  0  0  0  0
    1.4300   60.9417   72.9880 H   0  0  0  0  0  0  0  0  0  0  0  0
    3.0229   56.4654   71.4907 H   0  0  0  0  0  0  0  0  0  0  0  0
    1.0568   61.7776   70.6423 H   0  0  0  0  0  0  0  0  0  0  0  0
    1.9961   62.6528   71.9004 H   0  0  0  0  0  0  0  0  0  0  0  0
    1.8408   63.1254   68.9580 H   0  0  0  0  0  0  0  0  0  0  0  0
    2.3114   64.2468   70.2897 H   0  0  0  0  0  0  0  0  0  0  0  0
    4.0063   62.2730   68.8575 H   0  0  0  0  0  0  0  0  0  0  0  0
    4.2251   63.9519   69.0387 H   0  0  0  0  0  0  0  0  0  0  0  0
    5.8434   62.8097   70.3810 H   0  0  0  0  0  0  0  0  0  0  0  0
    4.6546   63.6753   71.4107 H   0  0  0  0  0  0  0  0  0  0  0  0
    5.1278   60.7394   71.0852 H   0  0  0  0  0  0  0  0  0  0  0  0
    4.3926   61.6497   72.4575 H   0  0  0  0  0  0  0  0  0  0  0  0
    0.2818   62.8038   76.9362 H   0  0  0  0  0  0  0  0  0  0  0  0
    1.3969   60.6927   76.2042 H   0  0  0  0  0  0  0  0  0  0  0  0
   -2.0140   59.7711   73.6984 H   0  0  0  0  0  0  0  0  0  0  0  0
   -3.1255   61.8763   74.4471 H   0  0  0  0  0  0  0  0  0  0  0  0
  2  1  1  0
  3  2  2  0
  4  3  1  0
  5  4  2  0
  6  4  1  0
  7  6  2  0
  7  1  1  0
  8  7  1  0
  9  8  2  0
 10  9  1  0
 11 10  2  0
 11  6  1  0
 12 10  1  0
 13  9  1  0
 14 13  1  0
 15 14  1  0
 16 15  1  0
 17 16  1  0
 18 17  1  0
 18 13  1  0
 20 19  1  0
 21 20  2  0
 22 21  1  0
 23 22  2  0
 23  1  1  0
 24 23  1  0
 25 24  2  0
 25 20  1  0
 26  3  1  0
 27 26  2  0
 28 26  1  0
  2 29  1  0
  8 30  1  0
 11 31  1  0
 14 32  1  0
 14 33  1  0
 15 34  1  0
 15 35  1  0
 16 36  1  0
 16 37  1  0
 17 38  1  0
 17 39  1  0
 18 40  1  0
 18 41  1  0
 21 42  1  0
 22 43  1  0
 24 44  1  0
 25 45  1  0
M  CHG  2  16   1  28  -1
M  END
>  <score>  (9) 
-7.303

$$$$
