=
     RDKit          3D

 44 48  0  0  0  0  0  0  0  0999 V2000
    0.0420   68.3970   67.6670 C   0  0  1  0  0  0  0  0  0  0  0  0
    0.7260   67.1150   67.5020 N   0  0  0  0  0  0  0  0  0  0  0  0
    1.9300   67.2500   66.8560 N   0  0  0  0  0  0  0  0  0  0  0  0
    2.1840   68.5220   66.8100 C   0  0  0  0  0  0  0  0  0  0  0  0
    1.1520   69.4190   67.4360 C   0  0  0  0  0  0  0  0  0  0  0  0
    3.3830   69.1000   66.1840 C   0  0  0  0  0  0  0  0  0  0  0  0
    3.5800   68.9230   64.7880 C   0  0  0  0  0  0  0  0  0  0  0  0
    2.6300   68.3440   63.9110 C   0  0  0  0  0  0  0  0  0  0  0  0
    2.8880   68.1870   62.5480 C   0  0  0  0  0  0  0  0  0  0  0  0
    4.1010   68.6140   62.0230 C   0  0  0  0  0  0  0  0  0  0  0  0
    5.0470   69.2040   62.8590 C   0  0  0  0  0  0  0  0  0  0  0  0
    4.7980   69.3710   64.2320 C   0  0  0  0  0  0  0  0  0  0  0  0
    5.7550   69.9830   65.0550 C   0  0  0  0  0  0  0  0  0  0  0  0
    5.5390   70.1870   66.4270 C   0  0  0  0  0  0  0  0  0  0  0  0
    4.3320   69.7540   67.0170 C   0  0  0  0  0  0  0  0  0  0  0  0
    4.1510   69.9990   68.4010 C   0  0  0  0  0  0  0  0  0  0  0  0
    5.1300   70.6300   69.1700 C   0  0  0  0  0  0  0  0  0  0  0  0
    6.3170   71.0360   68.5750 C   0  0  0  0  0  0  0  0  0  0  0  0
    6.5180   70.8180   67.2130 C   0  0  0  0  0  0  0  0  0  0  0  0
   -2.4000   67.8510   67.2380 C   0  0  0  0  0  0  0  0  0  0  0  0
   -3.5650   67.9120   66.4730 C   0  0  0  0  0  0  0  0  0  0  0  0
   -3.5540   68.5450   65.2340 C   0  0  0  0  0  0  0  0  0  0  0  0
   -2.3750   69.1130   64.7640 C   0  0  0  0  0  0  0  0  0  0  0  0
   -1.2110   69.0610   65.5380 C   0  0  0  0  0  0  0  0  0  0  0  0
   -1.2020   68.4460   66.8030 C   0  0  0  0  0  0  0  0  0  0  0  0
   -2.5090   67.1740   68.4210 O   0  0  0  0  0  0  0  0  0  0  0  0
   -0.4000   68.6035   68.6529 H   0  0  0  0  0  0  0  0  0  0  0  0
    0.3484   66.2153   67.8320 H   0  0  0  0  0  0  0  0  0  0  0  0
    1.5080   69.8593   68.3791 H   0  0  0  0  0  0  0  0  0  0  0  0
    0.8658   70.2955   66.8362 H   0  0  0  0  0  0  0  0  0  0  0  0
    1.6631   68.0091   64.3148 H   0  0  0  0  0  0  0  0  0  0  0  0
    2.1338   67.7270   61.8925 H   0  0  0  0  0  0  0  0  0  0  0  0
    4.3141   68.4869   60.9513 H   0  0  0  0  0  0  0  0  0  0  0  0
    6.0042   69.5446   62.4374 H   0  0  0  0  0  0  0  0  0  0  0  0
    6.7055   70.3138   64.6109 H   0  0  0  0  0  0  0  0  0  0  0  0
    3.2136   69.6833   68.8822 H   0  0  0  0  0  0  0  0  0  0  0  0
    4.9619   70.8049   70.2429 H   0  0  0  0  0  0  0  0  0  0  0  0
    7.0959   71.5279   69.1762 H   0  0  0  0  0  0  0  0  0  0  0  0
    7.4585   71.1453   66.7458 H   0  0  0  0  0  0  0  0  0  0  0  0
   -4.4938   67.4589   66.8499 H   0  0  0  0  0  0  0  0  0  0  0  0
   -4.4720   68.5958   64.6302 H   0  0  0  0  0  0  0  0  0  0  0  0
   -2.3576   69.6049   63.7802 H   0  0  0  0  0  0  0  0  0  0  0  0
   -0.2847   69.5098   65.1499 H   0  0  0  0  0  0  0  0  0  0  0  0
   -1.7231   67.0893   69.0171 H   0  0  0  0  0  0  0  0  0  0  0  0
  2  1  1  0
  3  2  1  0
  4  3  2  0
  5  4  1  0
  5  1  1  0
  6  4  1  0
  7  6  1  0
  8  7  2  0
  9  8  1  0
 10  9  2  0
 11 10  1  0
 12 11  2  0
 12  7  1  0
 13 12  1  0
 14 13  2  0
 15  6  2  0
 15 14  1  0
 16 15  1  0
 17 16  2  0
 18 17  1  0
 19 14  1  0
 19 18  2  0
 21 20  2  0
 22 21  1  0
 23 22  2  0
 24 23  1  0
 25 24  2  0
 25 20  1  0
 25  1  1  0
 26 20  1  0
  1 27  1  1
  2 28  1  0
  5 29  1  0
  5 30  1  0
  8 31  1  0
  9 32  1  0
 10 33  1  0
 11 34  1  0
 13 35  1  0
 16 36  1  0
 17 37  1  0
 18 38  1  0
 19 39  1  0
 21 40  1  0
 22 41  1  0
 23 42  1  0
 24 43  1  0
 26 44  1  0
M  END
>  <score>  (1) 
-12.431

$$$$
=
     RDKit          3D

 44 48  0  0  0  0  0  0  0  0999 V2000
    0.5200   68.2040   67.4930 C   0  0  1  0  0  0  0  0  0  0  0  0
    0.6640   69.5380   68.0780 N   0  0  0  0  0  0  0  0  0  0  0  0
    1.9010   70.0800   67.8310 N   0  0  0  0  0  0  0  0  0  0  0  0
    2.4670   69.3200   66.9450 C   0  0  0  0  0  0  0  0  0  0  0  0
    1.6580   68.1430   66.4770 C   0  0  0  0  0  0  0  0  0  0  0  0
    3.8200   69.5450   66.4100 C   0  0  0  0  0  0  0  0  0  0  0  0
    4.8270   70.0370   67.2830 C   0  0  0  0  0  0  0  0  0  0  0  0
    4.6680   70.2020   68.6810 C   0  0  0  0  0  0  0  0  0  0  0  0
    5.6950   70.7030   69.4830 C   0  0  0  0  0  0  0  0  0  0  0  0
    6.9120   71.0460   68.9110 C   0  0  0  0  0  0  0  0  0  0  0  0
    7.1040   70.8770   67.5400 C   0  0  0  0  0  0  0  0  0  0  0  0
    6.0790   70.3700   66.7220 C   0  0  0  0  0  0  0  0  0  0  0  0
    6.2960   70.1910   65.3470 C   0  0  0  0  0  0  0  0  0  0  0  0
    5.3070   69.6700   64.4980 C   0  0  0  0  0  0  0  0  0  0  0  0
    4.0440   69.3250   65.0230 C   0  0  0  0  0  0  0  0  0  0  0  0
    3.0840   68.7840   64.1310 C   0  0  0  0  0  0  0  0  0  0  0  0
    3.3600   68.6090   62.7740 C   0  0  0  0  0  0  0  0  0  0  0  0
    4.6030   68.9680   62.2720 C   0  0  0  0  0  0  0  0  0  0  0  0
    5.5710   69.4920   63.1290 C   0  0  0  0  0  0  0  0  0  0  0  0
   -0.7390   66.4230   68.7920 C   0  0  0  0  0  0  0  0  0  0  0  0
   -0.8220   65.4310   69.7690 C   0  0  0  0  0  0  0  0  0  0  0  0
    0.2710   65.1670   70.5880 C   0  0  0  0  0  0  0  0  0  0  0  0
    1.4420   65.8990   70.4280 C   0  0  0  0  0  0  0  0  0  0  0  0
    1.5260   66.8850   69.4390 C   0  0  0  0  0  0  0  0  0  0  0  0
    0.4430   67.1560   68.5850 C   0  0  0  0  0  0  0  0  0  0  0  0
   -1.8810   66.6290   68.0670 O   0  0  0  0  0  0  0  0  0  0  0  0
   -0.4162   67.9916   66.9560 H   0  0  0  0  0  0  0  0  0  0  0  0
   -0.0763   70.0145   68.6126 H   0  0  0  0  0  0  0  0  0  0  0  0
    1.2966   68.2764   65.4467 H   0  0  0  0  0  0  0  0  0  0  0  0
    2.2003   67.1869   66.4363 H   0  0  0  0  0  0  0  0  0  0  0  0
    3.7099   69.9281   69.1469 H   0  0  0  0  0  0  0  0  0  0  0  0
    5.5400   70.8255   70.5651 H   0  0  0  0  0  0  0  0  0  0  0  0
    7.7219   71.4495   69.5364 H   0  0  0  0  0  0  0  0  0  0  0  0
    8.0723   71.1445   67.0917 H   0  0  0  0  0  0  0  0  0  0  0  0
    7.2718   70.4677   64.9212 H   0  0  0  0  0  0  0  0  0  0  0  0
    2.0960   68.4946   64.5184 H   0  0  0  0  0  0  0  0  0  0  0  0
    2.5951   68.1881   62.1049 H   0  0  0  0  0  0  0  0  0  0  0  0
    4.8242   68.8398   61.2021 H   0  0  0  0  0  0  0  0  0  0  0  0
    6.5564   69.7703   62.7270 H   0  0  0  0  0  0  0  0  0  0  0  0
   -1.7523   64.8571   69.8920 H   0  0  0  0  0  0  0  0  0  0  0  0
    0.2091   64.3836   71.3577 H   0  0  0  0  0  0  0  0  0  0  0  0
    2.3051   65.7024   71.0810 H   0  0  0  0  0  0  0  0  0  0  0  0
    2.4576   67.4592   69.3276 H   0  0  0  0  0  0  0  0  0  0  0  0
   -1.8983   67.3172   67.3555 H   0  0  0  0  0  0  0  0  0  0  0  0
  2  1  1  0
  3  2  1  0
  4  3  2  0
  5  4  1  0
  5  1  1  0
  6  4  1  0
  7  6  1  0
  8  7  2  0
  9  8  1  0
 10  9  2  0
 11 10  1  0
 12 11  2  0
 12  7  1  0
 13 12  1  0
 14 13  2  0
 15  6  2  0
 15 14  1  0
 16 15  1  0
 17 16  2  0
 18 17  1  0
 19 14  1  0
 19 18  2  0
 21 20  2  0
 22 21  1  0
 23 22  2  0
 24 23  1  0
 25 24  2  0
 25 20  1  0
 25  1  1  0
 26 20  1  0
  1 27  1  6
  2 28  1  0
  5 29  1  0
  5 30  1  0
  8 31  1  0
  9 32  1  0
 10 33  1  0
 11 34  1  0
 13 35  1  0
 16 36  1  0
 17 37  1  0
 18 38  1  0
 19 39  1  0
 21 40  1  0
 22 41  1  0
 23 42  1  0
 24 43  1  0
 26 44  1  0
M  END
>  <score>  (2) 
-11.56

$$$$
=
     RDKit          3D

 44 48  0  0  0  0  0  0  0  0999 V2000
    0.4540   67.6650   67.2720 C   0  0  1  0  0  0  0  0  0  0  0  0
    0.2950   69.0870   67.5770 N   0  0  0  0  0  0  0  0  0  0  0  0
    1.4230   69.8100   67.2770 N   0  0  0  0  0  0  0  0  0  0  0  0
    2.1940   69.0240   66.5910 C   0  0  0  0  0  0  0  0  0  0  0  0
    1.6630   67.6400   66.3400 C   0  0  0  0  0  0  0  0  0  0  0  0
    3.5190   69.4100   66.0800 C   0  0  0  0  0  0  0  0  0  0  0  0
    3.8070   69.2070   64.7030 C   0  0  0  0  0  0  0  0  0  0  0  0
    2.8600   68.7840   63.7380 C   0  0  0  0  0  0  0  0  0  0  0  0
    3.2100   68.5920   62.4010 C   0  0  0  0  0  0  0  0  0  0  0  0
    4.5150   68.8250   61.9890 C   0  0  0  0  0  0  0  0  0  0  0  0
    5.4640   69.2600   62.9130 C   0  0  0  0  0  0  0  0  0  0  0  0
    5.1240   69.4610   64.2620 C   0  0  0  0  0  0  0  0  0  0  0  0
    6.0890   69.9160   65.1740 C   0  0  0  0  0  0  0  0  0  0  0  0
    5.7870   70.1480   66.5250 C   0  0  0  0  0  0  0  0  0  0  0  0
    4.4810   69.9070   67.0020 C   0  0  0  0  0  0  0  0  0  0  0  0
    4.2190   70.1740   68.3690 C   0  0  0  0  0  0  0  0  0  0  0  0
    5.2120   70.6440   69.2280 C   0  0  0  0  0  0  0  0  0  0  0  0
    6.4950   70.8630   68.7450 C   0  0  0  0  0  0  0  0  0  0  0  0
    6.7790   70.6180   67.4020 C   0  0  0  0  0  0  0  0  0  0  0  0
   -0.7070   66.4830   69.1950 C   0  0  0  0  0  0  0  0  0  0  0  0
   -0.7010   65.7080   70.3550 C   0  0  0  0  0  0  0  0  0  0  0  0
    0.5060   65.3080   70.9200 C   0  0  0  0  0  0  0  0  0  0  0  0
    1.7030   65.6890   70.3230 C   0  0  0  0  0  0  0  0  0  0  0  0
    1.6940   66.4550   69.1530 C   0  0  0  0  0  0  0  0  0  0  0  0
    0.4870   66.8530   68.5510 C   0  0  0  0  0  0  0  0  0  0  0  0
   -1.9440   66.8530   68.7430 O   0  0  0  0  0  0  0  0  0  0  0  0
   -0.3781   67.1696   66.7503 H   0  0  0  0  0  0  0  0  0  0  0  0
   -0.5634   69.4980   67.9710 H   0  0  0  0  0  0  0  0  0  0  0  0
    1.3693   67.4968   65.2897 H   0  0  0  0  0  0  0  0  0  0  0  0
    2.3775   66.8232   66.5197 H   0  0  0  0  0  0  0  0  0  0  0  0
    1.8213   68.6021   64.0510 H   0  0  0  0  0  0  0  0  0  0  0  0
    2.4540   68.2570   61.6756 H   0  0  0  0  0  0  0  0  0  0  0  0
    4.7991   68.6671   60.9381 H   0  0  0  0  0  0  0  0  0  0  0  0
    6.4955   69.4490   62.5810 H   0  0  0  0  0  0  0  0  0  0  0  0
    7.1143   70.0965   64.8188 H   0  0  0  0  0  0  0  0  0  0  0  0
    3.2057   70.0061   68.7628 H   0  0  0  0  0  0  0  0  0  0  0  0
    4.9794   70.8406   70.2850 H   0  0  0  0  0  0  0  0  0  0  0  0
    7.2841   71.2282   69.4188 H   0  0  0  0  0  0  0  0  0  0  0  0
    7.7963   70.7956   67.0230 H   0  0  0  0  0  0  0  0  0  0  0  0
   -1.6515   65.4128   70.8235 H   0  0  0  0  0  0  0  0  0  0  0  0
    0.5134   64.6944   71.8329 H   0  0  0  0  0  0  0  0  0  0  0  0
    2.6603   65.3867   70.7728 H   0  0  0  0  0  0  0  0  0  0  0  0
    2.6490   66.7518   68.6950 H   0  0  0  0  0  0  0  0  0  0  0  0
   -2.0276   67.4040   67.9248 H   0  0  0  0  0  0  0  0  0  0  0  0
  2  1  1  0
  3  2  1  0
  4  3  2  0
  5  4  1  0
  5  1  1  0
  6  4  1  0
  7  6  1  0
  8  7  2  0
  9  8  1  0
 10  9  2  0
 11 10  1  0
 12 11  2  0
 12  7  1  0
 13 12  1  0
 14 13  2  0
 15  6  2  0
 15 14  1  0
 16 15  1  0
 17 16  2  0
 18 17  1  0
 19 14  1  0
 19 18  2  0
 21 20  2  0
 22 21  1  0
 23 22  2  0
 24 23  1  0
 25 24  2  0
 25 20  1  0
 25  1  1  0
 26 20  1  0
  1 27  1  6
  2 28  1  0
  5 29  1  0
  5 30  1  0
  8 31  1  0
  9 32  1  0
 10 33  1  0
 11 34  1  0
 13 35  1  0
 16 36  1  0
 17 37  1  0
 18 38  1  0
 19 39  1  0
 21 40  1  0
 22 41  1  0
 23 42  1  0
 24 43  1  0
 26 44  1  0
M  END
>  <score>  (3) 
-11.543

$$$$
=
     RDKit          3D

 44 48  0  0  0  0  0  0  0  0999 V2000
    4.1190   59.4380   71.4130 C   0  0  1  0  0  0  0  0  0  0  0  0
    4.4400   59.5640   72.8350 N   0  0  0  0  0  0  0  0  0  0  0  0
    3.3620   59.2830   73.6360 N   0  0  0  0  0  0  0  0  0  0  0  0
    2.4570   58.7600   72.8670 C   0  0  0  0  0  0  0  0  0  0  0  0
    2.8280   58.6230   71.4170 C   0  0  0  0  0  0  0  0  0  0  0  0
    1.1310   58.3260   73.3340 C   0  0  0  0  0  0  0  0  0  0  0  0
    0.0940   59.2910   73.4450 C   0  0  0  0  0  0  0  0  0  0  0  0
    0.1970   60.6340   73.0050 C   0  0  0  0  0  0  0  0  0  0  0  0
   -0.8550   61.5390   73.1540 C   0  0  0  0  0  0  0  0  0  0  0  0
   -2.0440   61.1230   73.7390 C   0  0  0  0  0  0  0  0  0  0  0  0
   -2.1800   59.8030   74.1650 C   0  0  0  0  0  0  0  0  0  0  0  0
   -1.1300   58.8810   74.0180 C   0  0  0  0  0  0  0  0  0  0  0  0
   -1.2920   57.5520   74.4370 C   0  0  0  0  0  0  0  0  0  0  0  0
   -0.2740   56.5950   74.2910 C   0  0  0  0  0  0  0  0  0  0  0  0
    0.9610   56.9680   73.7210 C   0  0  0  0  0  0  0  0  0  0  0  0
    1.9500   55.9630   73.5760 C   0  0  0  0  0  0  0  0  0  0  0  0
    1.7280   54.6490   73.9930 C   0  0  0  0  0  0  0  0  0  0  0  0
    0.5110   54.3030   74.5640 C   0  0  0  0  0  0  0  0  0  0  0  0
   -0.4840   55.2700   74.7090 C   0  0  0  0  0  0  0  0  0  0  0  0
    4.9020   61.8490   71.2810 C   0  0  0  0  0  0  0  0  0  0  0  0
    4.9570   63.1000   70.6670 C   0  0  0  0  0  0  0  0  0  0  0  0
    4.2180   63.3420   69.5130 C   0  0  0  0  0  0  0  0  0  0  0  0
    3.4240   62.3330   68.9810 C   0  0  0  0  0  0  0  0  0  0  0  0
    3.3800   61.0750   69.5930 C   0  0  0  0  0  0  0  0  0  0  0  0
    4.1350   60.7980   70.7470 C   0  0  0  0  0  0  0  0  0  0  0  0
    5.6360   61.7270   72.4290 O   0  0  0  0  0  0  0  0  0  0  0  0
    4.8460   58.9062   70.7816 H   0  0  0  0  0  0  0  0  0  0  0  0
    5.3676   59.8325   73.1932 H   0  0  0  0  0  0  0  0  0  0  0  0
    3.0032   57.5743   71.1349 H   0  0  0  0  0  0  0  0  0  0  0  0
    2.0606   58.9555   70.7025 H   0  0  0  0  0  0  0  0  0  0  0  0
    1.1313   60.9724   72.5333 H   0  0  0  0  0  0  0  0  0  0  0  0
   -0.7429   62.5776   72.8095 H   0  0  0  0  0  0  0  0  0  0  0  0
   -2.8750   61.8325   73.8656 H   0  0  0  0  0  0  0  0  0  0  0  0
   -3.1252   59.4775   74.6240 H   0  0  0  0  0  0  0  0  0  0  0  0
   -2.2458   57.2499   74.8941 H   0  0  0  0  0  0  0  0  0  0  0  0
    2.9176   56.2250   73.1232 H   0  0  0  0  0  0  0  0  0  0  0  0
    2.5150   53.8905   73.8694 H   0  0  0  0  0  0  0  0  0  0  0  0
    0.3320   53.2712   74.9006 H   0  0  0  0  0  0  0  0  0  0  0  0
   -1.4486   54.9907   75.1579 H   0  0  0  0  0  0  0  0  0  0  0  0
    5.5846   63.8955   71.0950 H   0  0  0  0  0  0  0  0  0  0  0  0
    4.2620   64.3266   69.0245 H   0  0  0  0  0  0  0  0  0  0  0  0
    2.8283   62.5237   68.0761 H   0  0  0  0  0  0  0  0  0  0  0  0
    2.7429   60.2880   69.1633 H   0  0  0  0  0  0  0  0  0  0  0  0
    5.6462   60.8680   72.9211 H   0  0  0  0  0  0  0  0  0  0  0  0
  2  1  1  0
  3  2  1  0
  4  3  2  0
  5  4  1  0
  5  1  1  0
  6  4  1  0
  7  6  1  0
  8  7  2  0
  9  8  1  0
 10  9  2  0
 11 10  1  0
 12 11  2  0
 12  7  1  0
 13 12  1  0
 14 13  2  0
 15  6  2  0
 15 14  1  0
 16 15  1  0
 17 16  2  0
 18 17  1  0
 19 14  1  0
 19 18  2  0
 21 20  2  0
 22 21  1  0
 23 22  2  0
 24 23  1  0
 25 24  2  0
 25 20  1  0
 25  1  1  0
 26 20  1  0
  1 27  1  6
  2 28  1  0
  5 29  1  0
  5 30  1  0
  8 31  1  0
  9 32  1  0
 10 33  1  0
 11 34  1  0
 13 35  1  0
 16 36  1  0
 17 37  1  0
 18 38  1  0
 19 39  1  0
 21 40  1  0
 22 41  1  0
 23 42  1  0
 24 43  1  0
 26 44  1  0
M  END
>  <score>  (4) 
-10.936

$$$$
=
     RDKit          3D

 44 48  0  0  0  0  0  0  0  0999 V2000
   -0.0950   68.1690   67.4580 C   0  0  1  0  0  0  0  0  0  0  0  0
    0.5250   66.8940   67.0990 N   0  0  0  0  0  0  0  0  0  0  0  0
    1.7780   67.0600   66.5620 N   0  0  0  0  0  0  0  0  0  0  0  0
    2.1060   68.2980   66.7680 C   0  0  0  0  0  0  0  0  0  0  0  0
    1.0860   69.1360   67.4880 C   0  0  0  0  0  0  0  0  0  0  0  0
    3.3780   68.8960   66.3330 C   0  0  0  0  0  0  0  0  0  0  0  0
    4.1330   69.6540   67.2680 C   0  0  0  0  0  0  0  0  0  0  0  0
    3.8230   69.7690   68.6450 C   0  0  0  0  0  0  0  0  0  0  0  0
    4.6000   70.5410   69.5110 C   0  0  0  0  0  0  0  0  0  0  0  0
    5.7130   71.2140   69.0250 C   0  0  0  0  0  0  0  0  0  0  0  0
    6.0530   71.1040   67.6780 C   0  0  0  0  0  0  0  0  0  0  0  0
    5.2810   70.3270   66.7960 C   0  0  0  0  0  0  0  0  0  0  0  0
    5.6490   70.2150   65.4460 C   0  0  0  0  0  0  0  0  0  0  0  0
    4.9180   69.4340   64.5370 C   0  0  0  0  0  0  0  0  0  0  0  0
    3.7650   68.7460   64.9730 C   0  0  0  0  0  0  0  0  0  0  0  0
    3.0720   67.9550   64.0240 C   0  0  0  0  0  0  0  0  0  0  0  0
    3.4930   67.8630   62.6960 C   0  0  0  0  0  0  0  0  0  0  0  0
    4.6210   68.5580   62.2810 C   0  0  0  0  0  0  0  0  0  0  0  0
    5.3290   69.3360   63.1970 C   0  0  0  0  0  0  0  0  0  0  0  0
   -1.0640   68.7540   65.1860 C   0  0  0  0  0  0  0  0  0  0  0  0
   -2.1320   68.9930   64.3210 C   0  0  0  0  0  0  0  0  0  0  0  0
   -3.4370   68.9750   64.8040 C   0  0  0  0  0  0  0  0  0  0  0  0
   -3.6670   68.7200   66.1510 C   0  0  0  0  0  0  0  0  0  0  0  0
   -2.5950   68.4690   67.0140 C   0  0  0  0  0  0  0  0  0  0  0  0
   -1.2690   68.4600   66.5460 C   0  0  0  0  0  0  0  0  0  0  0  0
    0.1790   68.8320   64.6190 O   0  0  0  0  0  0  0  0  0  0  0  0
   -0.5944   68.2237   68.4366 H   0  0  0  0  0  0  0  0  0  0  0  0
    0.0741   65.9777   67.2334 H   0  0  0  0  0  0  0  0  0  0  0  0
    1.3988   69.3709   68.5161 H   0  0  0  0  0  0  0  0  0  0  0  0
    0.8945   70.1251   67.0465 H   0  0  0  0  0  0  0  0  0  0  0  0
    2.9469   69.2360   69.0429 H   0  0  0  0  0  0  0  0  0  0  0  0
    4.3312   70.6158   70.5750 H   0  0  0  0  0  0  0  0  0  0  0  0
    6.3237   71.8313   69.7003 H   0  0  0  0  0  0  0  0  0  0  0  0
    6.9394   71.6334   67.2986 H   0  0  0  0  0  0  0  0  0  0  0  0
    6.5378   70.7561   65.0893 H   0  0  0  0  0  0  0  0  0  0  0  0
    2.1781   67.3983   64.3419 H   0  0  0  0  0  0  0  0  0  0  0  0
    2.9331   67.2422   61.9811 H   0  0  0  0  0  0  0  0  0  0  0  0
    4.9548   68.4954   61.2347 H   0  0  0  0  0  0  0  0  0  0  0  0
    6.2242   69.8820   62.8647 H   0  0  0  0  0  0  0  0  0  0  0  0
   -1.9425   69.1958   63.2566 H   0  0  0  0  0  0  0  0  0  0  0  0
   -4.2813   69.1614   64.1240 H   0  0  0  0  0  0  0  0  0  0  0  0
   -4.6960   68.7156   66.5398 H   0  0  0  0  0  0  0  0  0  0  0  0
   -2.7930   68.2751   68.0785 H   0  0  0  0  0  0  0  0  0  0  0  0
    0.9856   68.6744   65.1709 H   0  0  0  0  0  0  0  0  0  0  0  0
  2  1  1  0
  3  2  1  0
  4  3  2  0
  5  4  1  0
  5  1  1  0
  6  4  1  0
  7  6  1  0
  8  7  2  0
  9  8  1  0
 10  9  2  0
 11 10  1  0
 12 11  2  0
 12  7  1  0
 13 12  1  0
 14 13  2  0
 15  6  2  0
 15 14  1  0
 16 15  1  0
 17 16  2  0
 18 17  1  0
 19 14  1  0
 19 18  2  0
 21 20  2  0
 22 21  1  0
 23 22  2  0
 24 23  1  0
 25 24  2  0
 25 20  1  0
 25  1  1  0
 26 20  1  0
  1 27  1  1
  2 28  1  0
  5 29  1  0
  5 30  1  0
  8 31  1  0
  9 32  1  0
 10 33  1  0
 11 34  1  0
 13 35  1  0
 16 36  1  0
 17 37  1  0
 18 38  1  0
 19 39  1  0
 21 40  1  0
 22 41  1  0
 23 42  1  0
 24 43  1  0
 26 44  1  0
M  END
>  <score>  (5) 
-10.791

$$$$
=
     RDKit          3D

 44 48  0  0  0  0  0  0  0  0999 V2000
    4.0990   59.4320   71.4260 C   0  0  1  0  0  0  0  0  0  0  0  0
    4.5080   59.5540   72.8260 N   0  0  0  0  0  0  0  0  0  0  0  0
    3.4710   59.3110   73.6910 N   0  0  0  0  0  0  0  0  0  0  0  0
    2.5060   58.8130   72.9810 C   0  0  0  0  0  0  0  0  0  0  0  0
    2.7860   58.6580   71.5120 C   0  0  0  0  0  0  0  0  0  0  0  0
    1.1970   58.4230   73.5280 C   0  0  0  0  0  0  0  0  0  0  0  0
    0.9960   57.0730   73.9240 C   0  0  0  0  0  0  0  0  0  0  0  0
    2.0130   56.0880   73.9640 C   0  0  0  0  0  0  0  0  0  0  0  0
    1.7480   54.7740   74.3530 C   0  0  0  0  0  0  0  0  0  0  0  0
    0.4600   54.4100   74.7200 C   0  0  0  0  0  0  0  0  0  0  0  0
   -0.5580   55.3630   74.7080 C   0  0  0  0  0  0  0  0  0  0  0  0
   -0.3040   56.6900   74.3220 C   0  0  0  0  0  0  0  0  0  0  0  0
   -1.3370   57.6400   74.3330 C   0  0  0  0  0  0  0  0  0  0  0  0
   -1.1220   58.9800   73.9740 C   0  0  0  0  0  0  0  0  0  0  0  0
    0.1640   59.4000   73.5720 C   0  0  0  0  0  0  0  0  0  0  0  0
    0.3370   60.7660   73.2390 C   0  0  0  0  0  0  0  0  0  0  0  0
   -0.7230   61.6730   73.2850 C   0  0  0  0  0  0  0  0  0  0  0  0
   -1.9850   61.2390   73.6690 C   0  0  0  0  0  0  0  0  0  0  0  0
   -2.1810   59.9030   74.0140 C   0  0  0  0  0  0  0  0  0  0  0  0
    4.8430   61.8560   71.3100 C   0  0  0  0  0  0  0  0  0  0  0  0
    4.9000   63.1040   70.6890 C   0  0  0  0  0  0  0  0  0  0  0  0
    4.2050   63.3260   69.5040 C   0  0  0  0  0  0  0  0  0  0  0  0
    3.4520   62.2980   68.9470 C   0  0  0  0  0  0  0  0  0  0  0  0
    3.4070   61.0440   69.5660 C   0  0  0  0  0  0  0  0  0  0  0  0
    4.1180   60.7880   70.7520 C   0  0  0  0  0  0  0  0  0  0  0  0
    5.5310   61.7550   72.4880 O   0  0  0  0  0  0  0  0  0  0  0  0
    4.7699   58.8749   70.7555 H   0  0  0  0  0  0  0  0  0  0  0  0
    5.4633   59.7943   73.1269 H   0  0  0  0  0  0  0  0  0  0  0  0
    2.9115   57.6031   71.2267 H   0  0  0  0  0  0  0  0  0  0  0  0
    1.9881   59.0113   70.8422 H   0  0  0  0  0  0  0  0  0  0  0  0
    3.0390   56.3660   73.6810 H   0  0  0  0  0  0  0  0  0  0  0  0
    2.5574   54.0293   74.3686 H   0  0  0  0  0  0  0  0  0  0  0  0
    0.2430   53.3739   75.0191 H   0  0  0  0  0  0  0  0  0  0  0  0
   -1.5760   55.0713   75.0054 H   0  0  0  0  0  0  0  0  0  0  0  0
   -2.3473   57.3245   74.6325 H   0  0  0  0  0  0  0  0  0  0  0  0
    1.3330   61.1213   72.9362 H   0  0  0  0  0  0  0  0  0  0  0  0
   -0.5593   62.7275   73.0181 H   0  0  0  0  0  0  0  0  0  0  0  0
   -2.8265   61.9468   73.7007 H   0  0  0  0  0  0  0  0  0  0  0  0
   -3.1813   59.5653   74.3228 H   0  0  0  0  0  0  0  0  0  0  0  0
    5.4951   63.9136   71.1367 H   0  0  0  0  0  0  0  0  0  0  0  0
    4.2509   64.3083   69.0110 H   0  0  0  0  0  0  0  0  0  0  0  0
    2.8902   62.4712   68.0173 H   0  0  0  0  0  0  0  0  0  0  0  0
    2.8033   60.2422   69.1159 H   0  0  0  0  0  0  0  0  0  0  0  0
    5.5365   60.8995   72.9862 H   0  0  0  0  0  0  0  0  0  0  0  0
  2  1  1  0
  3  2  1  0
  4  3  2  0
  5  4  1  0
  5  1  1  0
  6  4  1  0
  7  6  1  0
  8  7  2  0
  9  8  1  0
 10  9  2  0
 11 10  1  0
 12 11  2  0
 12  7  1  0
 13 12  1  0
 14 13  2  0
 15  6  2  0
 15 14  1  0
 16 15  1  0
 17 16  2  0
 18 17  1  0
 19 14  1  0
 19 18  2  0
 21 20  2  0
 22 21  1  0
 23 22  2  0
 24 23  1  0
 25 24  2  0
 25 20  1  0
 25  1  1  0
 26 20  1  0
  1 27  1  6
  2 28  1  0
  5 29  1  0
  5 30  1  0
  8 31  1  0
  9 32  1  0
 10 33  1  0
 11 34  1  0
 13 35  1  0
 16 36  1  0
 17 37  1  0
 18 38  1  0
 19 39  1  0
 21 40  1  0
 22 41  1  0
 23 42  1  0
 24 43  1  0
 26 44  1  0
M  END
>  <score>  (6) 
-10.469

$$$$
=
     RDKit          3D

 44 48  0  0  0  0  0  0  0  0999 V2000
    2.3880   56.4820   73.8690 C   0  0  1  0  0  0  0  0  0  0  0  0
    2.6250   56.3970   72.4280 N   0  0  0  0  0  0  0  0  0  0  0  0
    2.4300   57.6020   71.8000 N   0  0  0  0  0  0  0  0  0  0  0  0
    2.3250   58.4940   72.7360 C   0  0  0  0  0  0  0  0  0  0  0  0
    2.4410   57.9820   74.1450 C   0  0  0  0  0  0  0  0  0  0  0  0
    2.0950   59.9260   72.4870 C   0  0  0  0  0  0  0  0  0  0  0  0
    0.8090   60.4690   72.7560 C   0  0  0  0  0  0  0  0  0  0  0  0
   -0.2460   59.7610   73.3830 C   0  0  0  0  0  0  0  0  0  0  0  0
   -1.4920   60.3490   73.6080 C   0  0  0  0  0  0  0  0  0  0  0  0
   -1.7150   61.6630   73.2200 C   0  0  0  0  0  0  0  0  0  0  0  0
   -0.6890   62.3890   72.6170 C   0  0  0  0  0  0  0  0  0  0  0  0
    0.5710   61.8110   72.3870 C   0  0  0  0  0  0  0  0  0  0  0  0
    1.5970   62.5630   71.7950 C   0  0  0  0  0  0  0  0  0  0  0  0
    2.8750   62.0300   71.5660 C   0  0  0  0  0  0  0  0  0  0  0  0
    3.1510   60.6920   71.9220 C   0  0  0  0  0  0  0  0  0  0  0  0
    4.4610   60.2050   71.6900 C   0  0  0  0  0  0  0  0  0  0  0  0
    5.4500   61.0040   71.1140 C   0  0  0  0  0  0  0  0  0  0  0  0
    5.1570   62.3130   70.7570 C   0  0  0  0  0  0  0  0  0  0  0  0
    3.8790   62.8230   70.9840 C   0  0  0  0  0  0  0  0  0  0  0  0
    1.1320   54.2970   74.1780 C   0  0  0  0  0  0  0  0  0  0  0  0
    0.0090   53.5580   74.5500 C   0  0  0  0  0  0  0  0  0  0  0  0
   -1.1460   54.2100   74.9730 C   0  0  0  0  0  0  0  0  0  0  0  0
   -1.1730   55.5990   75.0170 C   0  0  0  0  0  0  0  0  0  0  0  0
   -0.0410   56.3370   74.6550 C   0  0  0  0  0  0  0  0  0  0  0  0
    1.1450   55.7020   74.2460 C   0  0  0  0  0  0  0  0  0  0  0  0
    2.2010   53.5620   73.7430 O   0  0  0  0  0  0  0  0  0  0  0  0
    3.1254   55.9972   74.5257 H   0  0  0  0  0  0  0  0  0  0  0  0
    2.9055   55.5337   71.9413 H   0  0  0  0  0  0  0  0  0  0  0  0
    3.3903   58.2803   74.6138 H   0  0  0  0  0  0  0  0  0  0  0  0
    1.6805   58.3578   74.8453 H   0  0  0  0  0  0  0  0  0  0  0  0
   -0.0790   58.7212   73.7007 H   0  0  0  0  0  0  0  0  0  0  0  0
   -2.2947   59.7728   74.0913 H   0  0  0  0  0  0  0  0  0  0  0  0
   -2.6970   62.1294   73.3876 H   0  0  0  0  0  0  0  0  0  0  0  0
   -0.8687   63.4317   72.3162 H   0  0  0  0  0  0  0  0  0  0  0  0
    1.3933   63.6032   71.5011 H   0  0  0  0  0  0  0  0  0  0  0  0
    4.7052   59.1700   71.9712 H   0  0  0  0  0  0  0  0  0  0  0  0
    6.4580   60.5978   70.9436 H   0  0  0  0  0  0  0  0  0  0  0  0
    5.9301   62.9458   70.2967 H   0  0  0  0  0  0  0  0  0  0  0  0
    3.6531   63.8623   70.7031 H   0  0  0  0  0  0  0  0  0  0  0  0
    0.0360   52.4591   74.5091 H   0  0  0  0  0  0  0  0  0  0  0  0
   -2.0317   53.6296   75.2706 H   0  0  0  0  0  0  0  0  0  0  0  0
   -2.0874   56.1197   75.3375 H   0  0  0  0  0  0  0  0  0  0  0  0
   -0.0795   57.4357   74.6910 H   0  0  0  0  0  0  0  0  0  0  0  0
    3.0337   54.0179   73.4620 H   0  0  0  0  0  0  0  0  0  0  0  0
  2  1  1  0
  3  2  1  0
  4  3  2  0
  5  4  1  0
  5  1  1  0
  6  4  1  0
  7  6  1  0
  8  7  2  0
  9  8  1  0
 10  9  2  0
 11 10  1  0
 12 11  2  0
 12  7  1  0
 13 12  1  0
 14 13  2  0
 15  6  2  0
 15 14  1  0
 16 15  1  0
 17 16  2  0
 18 17  1  0
 19 14  1  0
 19 18  2  0
 21 20  2  0
 22 21  1  0
 23 22  2  0
 24 23  1  0
 25 24  2  0
 25 20  1  0
 25  1  1  0
 26 20  1  0
  1 27  1  1
  2 28  1  0
  5 29  1  0
  5 30  1  0
  8 31  1  0
  9 32  1  0
 10 33  1  0
 11 34  1  0
 13 35  1  0
 16 36  1  0
 17 37  1  0
 18 38  1  0
 19 39  1  0
 21 40  1  0
 22 41  1  0
 23 42  1  0
 24 43  1  0
 26 44  1  0
M  END
>  <score>  (7) 
-10.115

$$$$
=
     RDKit          3D

 44 48  0  0  0  0  0  0  0  0999 V2000
   -0.9370   60.3140   74.2560 C   0  0  1  0  0  0  0  0  0  0  0  0
    0.1160   60.9010   75.0840 N   0  0  0  0  0  0  0  0  0  0  0  0
    1.0780   61.5260   74.3310 N   0  0  0  0  0  0  0  0  0  0  0  0
    0.6130   61.5980   73.1220 C   0  0  0  0  0  0  0  0  0  0  0  0
   -0.7560   61.0130   72.9110 C   0  0  0  0  0  0  0  0  0  0  0  0
    1.3450   62.1900   71.9910 C   0  0  0  0  0  0  0  0  0  0  0  0
    1.0480   63.5260   71.6090 C   0  0  0  0  0  0  0  0  0  0  0  0
    0.1880   64.3940   72.3260 C   0  0  0  0  0  0  0  0  0  0  0  0
   -0.0720   65.6950   71.8910 C   0  0  0  0  0  0  0  0  0  0  0  0
    0.5260   66.1660   70.7300 C   0  0  0  0  0  0  0  0  0  0  0  0
    1.3910   65.3410   70.0140 C   0  0  0  0  0  0  0  0  0  0  0  0
    1.6650   64.0300   70.4430 C   0  0  0  0  0  0  0  0  0  0  0  0
    2.5520   63.2200   69.7180 C   0  0  0  0  0  0  0  0  0  0  0  0
    2.8670   61.9130   70.1230 C   0  0  0  0  0  0  0  0  0  0  0  0
    2.2710   61.3760   71.2840 C   0  0  0  0  0  0  0  0  0  0  0  0
    2.6360   60.0600   71.6630 C   0  0  0  0  0  0  0  0  0  0  0  0
    3.5390   59.3040   70.9150 C   0  0  0  0  0  0  0  0  0  0  0  0
    4.1050   59.8430   69.7680 C   0  0  0  0  0  0  0  0  0  0  0  0
    3.7730   61.1390   69.3760 C   0  0  0  0  0  0  0  0  0  0  0  0
   -1.7820   58.0800   75.1160 C   0  0  0  0  0  0  0  0  0  0  0  0
   -1.7640   56.6860   75.1650 C   0  0  0  0  0  0  0  0  0  0  0  0
   -0.8140   55.9760   74.4370 C   0  0  0  0  0  0  0  0  0  0  0  0
    0.1160   56.6640   73.6670 C   0  0  0  0  0  0  0  0  0  0  0  0
    0.0880   58.0620   73.6110 C   0  0  0  0  0  0  0  0  0  0  0  0
   -0.8750   58.8010   74.3190 C   0  0  0  0  0  0  0  0  0  0  0  0
   -2.7310   58.6820   75.8970 O   0  0  0  0  0  0  0  0  0  0  0  0
   -1.9757   60.4782   74.5788 H   0  0  0  0  0  0  0  0  0  0  0  0
    0.1335   60.8511   76.1126 H   0  0  0  0  0  0  0  0  0  0  0  0
   -1.5151   61.7921   72.7473 H   0  0  0  0  0  0  0  0  0  0  0  0
   -0.8591   60.3657   72.0276 H   0  0  0  0  0  0  0  0  0  0  0  0
   -0.2876   64.0334   73.2500 H   0  0  0  0  0  0  0  0  0  0  0  0
   -0.7483   66.3445   72.4662 H   0  0  0  0  0  0  0  0  0  0  0  0
    0.3177   67.1867   70.3767 H   0  0  0  0  0  0  0  0  0  0  0  0
    1.8673   65.7213   69.0983 H   0  0  0  0  0  0  0  0  0  0  0  0
    3.0148   63.6212   68.8043 H   0  0  0  0  0  0  0  0  0  0  0  0
    2.1955   59.6230   72.5713 H   0  0  0  0  0  0  0  0  0  0  0  0
    3.8015   58.2843   71.2332 H   0  0  0  0  0  0  0  0  0  0  0  0
    4.8129   59.2498   69.1705 H   0  0  0  0  0  0  0  0  0  0  0  0
    4.2268   61.5629   68.4681 H   0  0  0  0  0  0  0  0  0  0  0  0
   -2.5009   56.1478   75.7793 H   0  0  0  0  0  0  0  0  0  0  0  0
   -0.7993   54.8766   74.4709 H   0  0  0  0  0  0  0  0  0  0  0  0
    0.8767   56.1078   73.0996 H   0  0  0  0  0  0  0  0  0  0  0  0
    0.8340   58.5926   73.0011 H   0  0  0  0  0  0  0  0  0  0  0  0
   -2.8046   59.6691   75.9141 H   0  0  0  0  0  0  0  0  0  0  0  0
  2  1  1  0
  3  2  1  0
  4  3  2  0
  5  4  1  0
  5  1  1  0
  6  4  1  0
  7  6  1  0
  8  7  2  0
  9  8  1  0
 10  9  2  0
 11 10  1  0
 12 11  2  0
 12  7  1  0
 13 12  1  0
 14 13  2  0
 15  6  2  0
 15 14  1  0
 16 15  1  0
 17 16  2  0
 18 17  1  0
 19 14  1  0
 19 18  2  0
 21 20  2  0
 22 21  1  0
 23 22  2  0
 24 23  1  0
 25 24  2  0
 25 20  1  0
 25  1  1  0
 26 20  1  0
  1 27  1  1
  2 28  1  0
  5 29  1  0
  5 30  1  0
  8 31  1  0
  9 32  1  0
 10 33  1  0
 11 34  1  0
 13 35  1  0
 16 36  1  0
 17 37  1  0
 18 38  1  0
 19 39  1  0
 21 40  1  0
 22 41  1  0
 23 42  1  0
 24 43  1  0
 26 44  1  0
M  END
>  <score>  (8) 
-9.746

$$$$
=
     RDKit          3D

 44 48  0  0  0  0  0  0  0  0999 V2000
    2.3740   56.5750   73.8960 C   0  0  1  0  0  0  0  0  0  0  0  0
    2.6460   56.4490   72.4640 N   0  0  0  0  0  0  0  0  0  0  0  0
    2.4040   57.6180   71.7860 N   0  0  0  0  0  0  0  0  0  0  0  0
    2.2340   58.5380   72.6850 C   0  0  0  0  0  0  0  0  0  0  0  0
    2.3450   58.0860   74.1150 C   0  0  0  0  0  0  0  0  0  0  0  0
    1.9350   59.9450   72.3770 C   0  0  0  0  0  0  0  0  0  0  0  0
    2.9500   60.7470   71.7880 C   0  0  0  0  0  0  0  0  0  0  0  0
    4.2010   60.2570   71.3400 C   0  0  0  0  0  0  0  0  0  0  0  0
    5.1630   61.0990   70.7800 C   0  0  0  0  0  0  0  0  0  0  0  0
    4.8960   62.4550   70.6450 C   0  0  0  0  0  0  0  0  0  0  0  0
    3.6660   62.9630   71.0600 C   0  0  0  0  0  0  0  0  0  0  0  0
    2.6880   62.1240   71.6230 C   0  0  0  0  0  0  0  0  0  0  0  0
    1.4490   62.6500   72.0190 C   0  0  0  0  0  0  0  0  0  0  0  0
    0.4380   61.8450   72.5670 C   0  0  0  0  0  0  0  0  0  0  0  0
    0.6640   60.4630   72.7470 C   0  0  0  0  0  0  0  0  0  0  0  0
   -0.3930   59.6880   73.2850 C   0  0  0  0  0  0  0  0  0  0  0  0
   -1.6140   60.2600   73.6450 C   0  0  0  0  0  0  0  0  0  0  0  0
   -1.8130   61.6240   73.4750 C   0  0  0  0  0  0  0  0  0  0  0  0
   -0.7950   62.4090   72.9370 C   0  0  0  0  0  0  0  0  0  0  0  0
    1.1920   54.3450   74.1650 C   0  0  0  0  0  0  0  0  0  0  0  0
    0.1020   53.5600   74.5410 C   0  0  0  0  0  0  0  0  0  0  0  0
   -1.0610   54.1630   75.0120 C   0  0  0  0  0  0  0  0  0  0  0  0
   -1.1280   55.5480   75.1010 C   0  0  0  0  0  0  0  0  0  0  0  0
   -0.0290   56.3320   74.7350 C   0  0  0  0  0  0  0  0  0  0  0  0
    1.1650   55.7460   74.2770 C   0  0  0  0  0  0  0  0  0  0  0  0
    2.2710   53.6560   73.6810 O   0  0  0  0  0  0  0  0  0  0  0  0
    3.1202   56.1542   74.5861 H   0  0  0  0  0  0  0  0  0  0  0  0
    2.9803   55.5836   72.0164 H   0  0  0  0  0  0  0  0  0  0  0  0
    3.2676   58.4501   74.5907 H   0  0  0  0  0  0  0  0  0  0  0  0
    1.5514   58.4483   74.7851 H   0  0  0  0  0  0  0  0  0  0  0  0
    4.4205   59.1834   71.4360 H   0  0  0  0  0  0  0  0  0  0  0  0
    6.1284   60.6902   70.4471 H   0  0  0  0  0  0  0  0  0  0  0  0
    5.6525   63.1260   70.2121 H   0  0  0  0  0  0  0  0  0  0  0  0
    3.4572   64.0369   70.9453 H   0  0  0  0  0  0  0  0  0  0  0  0
    1.2640   63.7274   71.8961 H   0  0  0  0  0  0  0  0  0  0  0  0
   -0.2473   58.6064   73.4226 H   0  0  0  0  0  0  0  0  0  0  0  0
   -2.4158   59.6329   74.0619 H   0  0  0  0  0  0  0  0  0  0  0  0
   -2.7702   62.0827   73.7638 H   0  0  0  0  0  0  0  0  0  0  0  0
   -0.9592   63.4880   72.7996 H   0  0  0  0  0  0  0  0  0  0  0  0
    0.1614   52.4642   74.4653 H   0  0  0  0  0  0  0  0  0  0  0  0
   -1.9215   53.5469   75.3118 H   0  0  0  0  0  0  0  0  0  0  0  0
   -2.0491   56.0299   75.4608 H   0  0  0  0  0  0  0  0  0  0  0  0
   -0.0997   57.4274   74.8067 H   0  0  0  0  0  0  0  0  0  0  0  0
    3.0824   54.1451   73.3938 H   0  0  0  0  0  0  0  0  0  0  0  0
  2  1  1  0
  3  2  1  0
  4  3  2  0
  5  4  1  0
  5  1  1  0
  6  4  1  0
  7  6  1  0
  8  7  2  0
  9  8  1  0
 10  9  2  0
 11 10  1  0
 12 11  2  0
 12  7  1  0
 13 12  1  0
 14 13  2  0
 15  6  2  0
 15 14  1  0
 16 15  1  0
 17 16  2  0
 18 17  1  0
 19 14  1  0
 19 18  2  0
 21 20  2  0
 22 21  1  0
 23 22  2  0
 24 23  1  0
 25 24  2  0
 25 20  1  0
 25  1  1  0
 26 20  1  0
  1 27  1  1
  2 28  1  0
  5 29  1  0
  5 30  1  0
  8 31  1  0
  9 32  1  0
 10 33  1  0
 11 34  1  0
 13 35  1  0
 16 36  1  0
 17 37  1  0
 18 38  1  0
 19 39  1  0
 21 40  1  0
 22 41  1  0
 23 42  1  0
 24 43  1  0
 26 44  1  0
M  END
>  <score>  (9) 
-9.631

$$$$
