=
     RDKit          3D

 40 41  0  0  0  0  0  0  0  0999 V2000
    1.1260   66.7160   69.0430 C   0  0  0  0  0  0  0  0  0  0  0  0
    0.5980   67.7870   68.4160 C   0  0  0  0  0  0  0  0  0  0  0  0
    0.5420   66.0440   70.2670 C   0  0  0  0  0  0  0  0  0  0  0  0
    2.4510   62.2990   70.9860 C   0  0  0  0  0  0  0  0  0  0  0  0
    3.1530   63.3600   70.4360 C   0  0  0  0  0  0  0  0  0  0  0  0
    4.4440   63.2420   70.1060 F   0  0  0  0  0  0  0  0  0  0  0  0
    2.5170   64.5750   70.2060 C   0  0  0  0  0  0  0  0  0  0  0  0
    1.2040   64.7370   70.5080 N   0  0  0  0  0  4  0  0  0  0  0  0
    0.5060   63.7140   71.0630 C   0  0  0  0  0  0  0  0  0  0  0  0
    1.1130   62.4850   71.3040 C   0  0  0  0  0  0  0  0  0  0  0  0
    0.3620   61.5190   71.8420 F   0  0  0  0  0  0  0  0  0  0  0  0
    3.5030   60.2720   70.2140 N   0  0  0  0  0  0  0  0  0  0  0  0
    3.1490   61.0250   71.2020 C   0  0  0  0  0  0  0  0  0  0  0  0
    4.1450   59.1400   70.7270 O   0  0  0  0  0  0  0  0  0  0  0  0
    1.1690   68.4500   67.1780 C   0  0  0  0  0  0  0  0  0  0  0  0
    2.4160   69.1840   67.5130 N   0  0  0  0  0  4  0  0  0  0  0  0
    2.5250   69.8320   68.7000 C   0  0  0  0  0  0  0  0  0  0  0  0
    3.6810   70.5310   69.0310 C   0  0  0  0  0  0  0  0  0  0  0  0
    4.7390   70.5560   68.1260 C   0  0  0  0  0  0  0  0  0  0  0  0
    4.6160   69.8740   66.9160 C   0  0  0  0  0  0  0  0  0  0  0  0
    3.4460   69.1860   66.6350 C   0  0  0  0  0  0  0  0  0  0  0  0
    5.9780   71.3360   68.3590 C   0  0  0  0  0  0  0  0  0  0  0  0
    6.0070   72.5230   68.0690 O   0  0  0  0  0  0  0  0  0  0  0  0
    7.0570   70.6920   68.8850 N   0  0  0  0  0  0  0  0  0  0  0  0
    2.0562   66.2970   68.6316 H   0  0  0  0  0  0  0  0  0  0  0  0
   -0.3234   68.2149   68.8379 H   0  0  0  0  0  0  0  0  0  0  0  0
    0.6922   66.6928   71.1425 H   0  0  0  0  0  0  0  0  0  0  0  0
   -0.5320   65.8737   70.1011 H   0  0  0  0  0  0  0  0  0  0  0  0
    3.0840   65.4133   69.7749 H   0  0  0  0  0  0  0  0  0  0  0  0
   -0.5525   63.8579   71.3256 H   0  0  0  0  0  0  0  0  0  0  0  0
    3.3757   60.7044   72.2295 H   0  0  0  0  0  0  0  0  0  0  0  0
    4.4884   58.4444   70.1120 H   0  0  0  0  0  0  0  0  0  0  0  0
    1.3927   67.6801   66.4249 H   0  0  0  0  0  0  0  0  0  0  0  0
    0.4306   69.1626   66.7818 H   0  0  0  0  0  0  0  0  0  0  0  0
    1.6864   69.8041   69.4114 H   0  0  0  0  0  0  0  0  0  0  0  0
    3.7584   71.0567   69.9942 H   0  0  0  0  0  0  0  0  0  0  0  0
    5.4419   69.8819   66.1894 H   0  0  0  0  0  0  0  0  0  0  0  0
    3.3535   68.6352   65.6873 H   0  0  0  0  0  0  0  0  0  0  0  0
    7.9313   71.2085   69.0577 H   0  0  0  0  0  0  0  0  0  0  0  0
    6.9986   69.6886   69.1100 H   0  0  0  0  0  0  0  0  0  0  0  0
  2  1  2  0
  3  1  1  0
  5  4  2  0
  6  5  1  0
  7  5  1  0
  8  7  2  0
  8  3  1  0
  9  8  1  0
 10  9  2  0
 10  4  1  0
 11 10  1  0
 13 12  2  0
 13  4  1  0
 14 12  1  0
 15  2  1  0
 16 15  1  0
 17 16  2  0
 18 17  1  0
 19 18  2  0
 20 19  1  0
 21 20  2  0
 21 16  1  0
 22 19  1  0
 23 22  2  0
 24 22  1  0
  1 25  1  0
  2 26  1  0
  3 27  1  0
  3 28  1  0
  7 29  1  0
  9 30  1  0
 13 31  1  0
 14 32  1  0
 15 33  1  0
 15 34  1  0
 17 35  1  0
 18 36  1  0
 20 37  1  0
 21 38  1  0
 24 39  1  0
 24 40  1  0
M  CHG  2   8   1  16   1
M  END
>  <score>  (1) 
-9.222

$$$$
=
     RDKit          3D

 40 41  0  0  0  0  0  0  0  0999 V2000
    0.1560   66.0550   69.6110 C   0  0  0  0  0  0  0  0  0  0  0  0
    0.7270   67.1520   69.0730 C   0  0  0  0  0  0  0  0  0  0  0  0
    0.4580   65.4970   70.9850 C   0  0  0  0  0  0  0  0  0  0  0  0
    2.6610   61.8610   70.6410 C   0  0  0  0  0  0  0  0  0  0  0  0
    1.4540   61.8990   71.3220 C   0  0  0  0  0  0  0  0  0  0  0  0
    0.9480   60.8030   71.9000 F   0  0  0  0  0  0  0  0  0  0  0  0
    0.7480   63.0920   71.4280 C   0  0  0  0  0  0  0  0  0  0  0  0
    1.2300   64.2330   70.8740 N   0  0  0  0  0  4  0  0  0  0  0  0
    2.4010   64.2100   70.1880 C   0  0  0  0  0  0  0  0  0  0  0  0
    3.1330   63.0330   70.0660 C   0  0  0  0  0  0  0  0  0  0  0  0
    4.2830   63.0870   69.3880 F   0  0  0  0  0  0  0  0  0  0  0  0
    3.1740   59.7440   69.6080 N   0  0  0  0  0  0  0  0  0  0  0  0
    3.3890   60.5880   70.5610 C   0  0  0  0  0  0  0  0  0  0  0  0
    4.0110   58.6390   69.7960 O   0  0  0  0  0  0  0  0  0  0  0  0
    0.4120   67.7260   67.7050 C   0  0  0  0  0  0  0  0  0  0  0  0
    1.6400   68.2850   67.0840 N   0  0  0  0  0  4  0  0  0  0  0  0
    2.0180   67.8840   65.8450 C   0  0  0  0  0  0  0  0  0  0  0  0
    3.1680   68.3900   65.2480 C   0  0  0  0  0  0  0  0  0  0  0  0
    3.9320   69.3270   65.9380 C   0  0  0  0  0  0  0  0  0  0  0  0
    3.5220   69.7390   67.2060 C   0  0  0  0  0  0  0  0  0  0  0  0
    2.3650   69.2100   67.7560 C   0  0  0  0  0  0  0  0  0  0  0  0
    5.2110   69.8640   65.4150 C   0  0  0  0  0  0  0  0  0  0  0  0
    5.8790   70.6150   66.1100 O   0  0  0  0  0  0  0  0  0  0  0  0
    5.5970   69.5050   64.1590 N   0  0  0  0  0  0  0  0  0  0  0  0
   -0.5895   65.5228   69.0019 H   0  0  0  0  0  0  0  0  0  0  0  0
    1.4842   67.6738   69.6766 H   0  0  0  0  0  0  0  0  0  0  0  0
    1.0468   66.2323   71.5531 H   0  0  0  0  0  0  0  0  0  0  0  0
   -0.4908   65.2906   71.5020 H   0  0  0  0  0  0  0  0  0  0  0  0
   -0.2110   63.1111   71.9664 H   0  0  0  0  0  0  0  0  0  0  0  0
    2.7760   65.1335   69.7226 H   0  0  0  0  0  0  0  0  0  0  0  0
    4.1358   60.3477   71.3320 H   0  0  0  0  0  0  0  0  0  0  0  0
    3.9848   57.8837   69.1565 H   0  0  0  0  0  0  0  0  0  0  0  0
    0.0104   66.9296   67.0613 H   0  0  0  0  0  0  0  0  0  0  0  0
   -0.3297   68.5306   67.8173 H   0  0  0  0  0  0  0  0  0  0  0  0
    1.4060   67.1474   65.3038 H   0  0  0  0  0  0  0  0  0  0  0  0
    3.4694   68.0544   64.2447 H   0  0  0  0  0  0  0  0  0  0  0  0
    4.1130   70.4789   67.7657 H   0  0  0  0  0  0  0  0  0  0  0  0
    2.0322   69.5454   68.7494 H   0  0  0  0  0  0  0  0  0  0  0  0
    6.4809   69.8630   63.7698 H   0  0  0  0  0  0  0  0  0  0  0  0
    5.0050   68.8756   63.5984 H   0  0  0  0  0  0  0  0  0  0  0  0
  2  1  2  0
  3  1  1  0
  5  4  2  0
  6  5  1  0
  7  5  1  0
  8  7  2  0
  8  3  1  0
  9  8  1  0
 10  9  2  0
 10  4  1  0
 11 10  1  0
 13 12  2  0
 13  4  1  0
 14 12  1  0
 15  2  1  0
 16 15  1  0
 17 16  2  0
 18 17  1  0
 19 18  2  0
 20 19  1  0
 21 20  2  0
 21 16  1  0
 22 19  1  0
 23 22  2  0
 24 22  1  0
  1 25  1  0
  2 26  1  0
  3 27  1  0
  3 28  1  0
  7 29  1  0
  9 30  1  0
 13 31  1  0
 14 32  1  0
 15 33  1  0
 15 34  1  0
 17 35  1  0
 18 36  1  0
 20 37  1  0
 21 38  1  0
 24 39  1  0
 24 40  1  0
M  CHG  2   8   1  16   1
M  END
>  <score>  (2) 
-9.173

$$$$
=
     RDKit          3D

 40 41  0  0  0  0  0  0  0  0999 V2000
    1.8620   65.3620   70.2630 C   0  0  0  0  0  0  0  0  0  0  0  0
    2.1290   64.0750   70.5660 C   0  0  0  0  0  0  0  0  0  0  0  0
    0.5120   66.0330   70.4090 C   0  0  0  0  0  0  0  0  0  0  0  0
   -0.5210   68.0590   66.8010 C   0  0  0  0  0  0  0  0  0  0  0  0
    0.7220   68.2430   67.3880 C   0  0  0  0  0  0  0  0  0  0  0  0
    1.6300   69.0650   66.8500 F   0  0  0  0  0  0  0  0  0  0  0  0
    1.0440   67.5770   68.5660 C   0  0  0  0  0  0  0  0  0  0  0  0
    0.1490   66.7460   69.1580 N   0  0  0  0  0  4  0  0  0  0  0  0
   -1.0650   66.5410   68.5880 C   0  0  0  0  0  0  0  0  0  0  0  0
   -1.4190   67.1940   67.4110 C   0  0  0  0  0  0  0  0  0  0  0  0
   -2.6360   66.9550   66.9120 F   0  0  0  0  0  0  0  0  0  0  0  0
   -0.3590   68.4230   64.4240 N   0  0  0  0  0  0  0  0  0  0  0  0
   -0.8350   68.7900   65.5670 C   0  0  0  0  0  0  0  0  0  0  0  0
   -0.8320   69.3010   63.4430 O   0  0  0  0  0  0  0  0  0  0  0  0
    3.4830   63.4060   70.4410 C   0  0  0  0  0  0  0  0  0  0  0  0
    3.3570   61.9410   70.6510 N   0  0  0  0  0  4  0  0  0  0  0  0
    3.5780   61.0850   69.6210 C   0  0  0  0  0  0  0  0  0  0  0  0
    3.4580   59.7100   69.7950 C   0  0  0  0  0  0  0  0  0  0  0  0
    3.1130   59.2140   71.0490 C   0  0  0  0  0  0  0  0  0  0  0  0
    2.9030   60.1070   72.1000 C   0  0  0  0  0  0  0  0  0  0  0  0
    3.0400   61.4680   71.8790 C   0  0  0  0  0  0  0  0  0  0  0  0
    2.8890   57.7720   71.3090 C   0  0  0  0  0  0  0  0  0  0  0  0
    2.0670   57.4320   72.1480 O   0  0  0  0  0  0  0  0  0  0  0  0
    3.6220   56.8670   70.6030 N   0  0  0  0  0  0  0  0  0  0  0  0
    2.6917   65.9736   69.8789 H   0  0  0  0  0  0  0  0  0  0  0  0
    1.2947   63.4600   70.9344 H   0  0  0  0  0  0  0  0  0  0  0  0
   -0.2503   65.2700   70.6253 H   0  0  0  0  0  0  0  0  0  0  0  0
    0.5631   66.7610   71.2320 H   0  0  0  0  0  0  0  0  0  0  0  0
    2.0339   67.7253   69.0223 H   0  0  0  0  0  0  0  0  0  0  0  0
   -1.7781   65.8504   69.0618 H   0  0  0  0  0  0  0  0  0  0  0  0
   -1.4914   69.6713   65.6173 H   0  0  0  0  0  0  0  0  0  0  0  0
   -0.5690   69.1744   62.4970 H   0  0  0  0  0  0  0  0  0  0  0  0
    3.8893   63.5947   69.4364 H   0  0  0  0  0  0  0  0  0  0  0  0
    4.1577   63.8197   71.2050 H   0  0  0  0  0  0  0  0  0  0  0  0
    3.8560   61.4843   68.6345 H   0  0  0  0  0  0  0  0  0  0  0  0
    3.6334   59.0241   68.9531 H   0  0  0  0  0  0  0  0  0  0  0  0
    2.6304   59.7330   73.0979 H   0  0  0  0  0  0  0  0  0  0  0  0
    2.8895   62.1719   72.7108 H   0  0  0  0  0  0  0  0  0  0  0  0
    3.4875   55.8584   70.7628 H   0  0  0  0  0  0  0  0  0  0  0  0
    4.3109   57.1911   69.9093 H   0  0  0  0  0  0  0  0  0  0  0  0
  2  1  2  0
  3  1  1  0
  5  4  2  0
  6  5  1  0
  7  5  1  0
  8  7  2  0
  8  3  1  0
  9  8  1  0
 10  9  2  0
 10  4  1  0
 11 10  1  0
 13 12  2  0
 13  4  1  0
 14 12  1  0
 15  2  1  0
 16 15  1  0
 17 16  2  0
 18 17  1  0
 19 18  2  0
 20 19  1  0
 21 20  2  0
 21 16  1  0
 22 19  1  0
 23 22  2  0
 24 22  1  0
  1 25  1  0
  2 26  1  0
  3 27  1  0
  3 28  1  0
  7 29  1  0
  9 30  1  0
 13 31  1  0
 14 32  1  0
 15 33  1  0
 15 34  1  0
 17 35  1  0
 18 36  1  0
 20 37  1  0
 21 38  1  0
 24 39  1  0
 24 40  1  0
M  CHG  2   8   1  16   1
M  END
>  <score>  (3) 
-9.154

$$$$
=
     RDKit          3D

 40 41  0  0  0  0  0  0  0  0999 V2000
    1.3750   64.9510   70.5300 C   0  0  0  0  0  0  0  0  0  0  0  0
    0.8700   66.1670   70.2380 C   0  0  0  0  0  0  0  0  0  0  0  0
    0.8620   64.0300   71.6170 C   0  0  0  0  0  0  0  0  0  0  0  0
    2.6790   60.1850   71.2880 C   0  0  0  0  0  0  0  0  0  0  0  0
    1.6410   60.4070   72.1800 C   0  0  0  0  0  0  0  0  0  0  0  0
    1.1840   59.4290   72.9710 F   0  0  0  0  0  0  0  0  0  0  0  0
    1.0590   61.6660   72.2780 C   0  0  0  0  0  0  0  0  0  0  0  0
    1.5010   62.6940   71.5090 N   0  0  0  0  0  4  0  0  0  0  0  0
    2.5040   62.4900   70.6180 C   0  0  0  0  0  0  0  0  0  0  0  0
    3.1080   61.2430   70.4980 C   0  0  0  0  0  0  0  0  0  0  0  0
    4.0980   61.1170   69.6080 F   0  0  0  0  0  0  0  0  0  0  0  0
    3.4570   58.2410   70.0950 N   0  0  0  0  0  0  0  0  0  0  0  0
    3.2810   58.8480   71.2210 C   0  0  0  0  0  0  0  0  0  0  0  0
    4.0490   56.9990   70.3480 O   0  0  0  0  0  0  0  0  0  0  0  0
    1.3680   67.0840   69.1380 C   0  0  0  0  0  0  0  0  0  0  0  0
    0.2480   67.4720   68.2430 N   0  0  0  0  0  4  0  0  0  0  0  0
   -0.9400   66.8210   68.3190 C   0  0  0  0  0  0  0  0  0  0  0  0
   -1.9990   67.1640   67.4850 C   0  0  0  0  0  0  0  0  0  0  0  0
   -1.8300   68.1960   66.5670 C   0  0  0  0  0  0  0  0  0  0  0  0
   -0.6070   68.8650   66.5100 C   0  0  0  0  0  0  0  0  0  0  0  0
    0.4170   68.4900   67.3660 C   0  0  0  0  0  0  0  0  0  0  0  0
   -2.8750   68.5810   65.5880 C   0  0  0  0  0  0  0  0  0  0  0  0
   -2.5620   68.8020   64.4270 O   0  0  0  0  0  0  0  0  0  0  0  0
   -4.1610   68.6840   66.0230 N   0  0  0  0  0  0  0  0  0  0  0  0
    2.2279   64.6001   69.9305 H   0  0  0  0  0  0  0  0  0  0  0  0
    0.0270   66.5230   70.8484 H   0  0  0  0  0  0  0  0  0  0  0  0
    1.0953   64.4648   72.6001 H   0  0  0  0  0  0  0  0  0  0  0  0
   -0.2260   63.9150   71.5026 H   0  0  0  0  0  0  0  0  0  0  0  0
    0.2327   61.8307   72.9852 H   0  0  0  0  0  0  0  0  0  0  0  0
    2.8436   63.3213   69.9827 H   0  0  0  0  0  0  0  0  0  0  0  0
    3.5897   58.3511   72.1526 H   0  0  0  0  0  0  0  0  0  0  0  0
    4.2603   56.3892   69.5972 H   0  0  0  0  0  0  0  0  0  0  0  0
    1.8023   67.9886   69.5887 H   0  0  0  0  0  0  0  0  0  0  0  0
    2.1299   66.5536   68.5479 H   0  0  0  0  0  0  0  0  0  0  0  0
   -1.0675   66.0099   69.0510 H   0  0  0  0  0  0  0  0  0  0  0  0
   -2.9568   66.6269   67.5502 H   0  0  0  0  0  0  0  0  0  0  0  0
   -0.4564   69.6839   65.7912 H   0  0  0  0  0  0  0  0  0  0  0  0
    1.3774   69.0253   67.3325 H   0  0  0  0  0  0  0  0  0  0  0  0
   -4.9075   68.9497   65.3650 H   0  0  0  0  0  0  0  0  0  0  0  0
   -4.3874   68.4962   67.0101 H   0  0  0  0  0  0  0  0  0  0  0  0
  2  1  2  0
  3  1  1  0
  5  4  2  0
  6  5  1  0
  7  5  1  0
  8  7  2  0
  8  3  1  0
  9  8  1  0
 10  9  2  0
 10  4  1  0
 11 10  1  0
 13 12  2  0
 13  4  1  0
 14 12  1  0
 15  2  1  0
 16 15  1  0
 17 16  2  0
 18 17  1  0
 19 18  2  0
 20 19  1  0
 21 20  2  0
 21 16  1  0
 22 19  1  0
 23 22  2  0
 24 22  1  0
  1 25  1  0
  2 26  1  0
  3 27  1  0
  3 28  1  0
  7 29  1  0
  9 30  1  0
 13 31  1  0
 14 32  1  0
 15 33  1  0
 15 34  1  0
 17 35  1  0
 18 36  1  0
 20 37  1  0
 21 38  1  0
 24 39  1  0
 24 40  1  0
M  CHG  2   8   1  16   1
M  END
>  <score>  (4) 
-9.074

$$$$
=
     RDKit          3D

 40 41  0  0  0  0  0  0  0  0999 V2000
    0.8400   67.1150   68.8760 C   0  0  0  0  0  0  0  0  0  0  0  0
    1.2730   66.4240   69.9500 C   0  0  0  0  0  0  0  0  0  0  0  0
    1.4690   68.3840   68.3420 C   0  0  0  0  0  0  0  0  0  0  0  0
    3.0320   67.7340   64.4280 C   0  0  0  0  0  0  0  0  0  0  0  0
    3.4050   68.8470   65.1660 C   0  0  0  0  0  0  0  0  0  0  0  0
    4.2570   69.7540   64.6730 F   0  0  0  0  0  0  0  0  0  0  0  0
    2.8860   69.0470   66.4410 C   0  0  0  0  0  0  0  0  0  0  0  0
    2.0050   68.1630   66.9750 N   0  0  0  0  0  4  0  0  0  0  0  0
    1.6430   67.0600   66.2730 C   0  0  0  0  0  0  0  0  0  0  0  0
    2.1430   66.8320   64.9950 C   0  0  0  0  0  0  0  0  0  0  0  0
    1.7340   65.7310   64.3570 F   0  0  0  0  0  0  0  0  0  0  0  0
    3.0900   68.1780   62.0590 N   0  0  0  0  0  0  0  0  0  0  0  0
    3.5870   67.5620   63.0800 C   0  0  0  0  0  0  0  0  0  0  0  0
    3.8250   67.8220   60.9240 O   0  0  0  0  0  0  0  0  0  0  0  0
    0.6580   65.1410   70.4750 C   0  0  0  0  0  0  0  0  0  0  0  0
    1.6970   64.0900   70.6170 N   0  0  0  0  0  4  0  0  0  0  0  0
    1.3420   62.8230   70.9470 C   0  0  0  0  0  0  0  0  0  0  0  0
    2.3010   61.8250   71.0920 C   0  0  0  0  0  0  0  0  0  0  0  0
    3.6410   62.1400   70.8860 C   0  0  0  0  0  0  0  0  0  0  0  0
    3.9890   63.4440   70.5340 C   0  0  0  0  0  0  0  0  0  0  0  0
    2.9960   64.4020   70.3960 C   0  0  0  0  0  0  0  0  0  0  0  0
    4.7370   61.1630   71.0910 C   0  0  0  0  0  0  0  0  0  0  0  0
    4.8090   60.1780   70.3710 O   0  0  0  0  0  0  0  0  0  0  0  0
    5.6300   61.3940   72.0930 N   0  0  0  0  0  0  0  0  0  0  0  0
   -0.0411   66.7251   68.3453 H   0  0  0  0  0  0  0  0  0  0  0  0
    2.1441   66.8239   70.4898 H   0  0  0  0  0  0  0  0  0  0  0  0
    0.7090   69.1786   68.3088 H   0  0  0  0  0  0  0  0  0  0  0  0
    2.2959   68.6778   69.0053 H   0  0  0  0  0  0  0  0  0  0  0  0
    3.1923   69.9295   67.0218 H   0  0  0  0  0  0  0  0  0  0  0  0
    0.9452   66.3367   66.7201 H   0  0  0  0  0  0  0  0  0  0  0  0
    4.4474   66.8920   62.9356 H   0  0  0  0  0  0  0  0  0  0  0  0
    3.5862   68.2003   60.0409 H   0  0  0  0  0  0  0  0  0  0  0  0
    0.2004   65.3335   71.4566 H   0  0  0  0  0  0  0  0  0  0  0  0
   -0.1060   64.7941   69.7637 H   0  0  0  0  0  0  0  0  0  0  0  0
    0.2803   62.5808   71.1023 H   0  0  0  0  0  0  0  0  0  0  0  0
    2.0042   60.8017   71.3655 H   0  0  0  0  0  0  0  0  0  0  0  0
    5.0431   63.7104   70.3671 H   0  0  0  0  0  0  0  0  0  0  0  0
    3.2667   65.4273   70.1036 H   0  0  0  0  0  0  0  0  0  0  0  0
    6.4015   60.7318   72.2581 H   0  0  0  0  0  0  0  0  0  0  0  0
    5.5339   62.2309   72.6857 H   0  0  0  0  0  0  0  0  0  0  0  0
  2  1  2  0
  3  1  1  0
  5  4  2  0
  6  5  1  0
  7  5  1  0
  8  7  2  0
  8  3  1  0
  9  8  1  0
 10  9  2  0
 10  4  1  0
 11 10  1  0
 13 12  2  0
 13  4  1  0
 14 12  1  0
 15  2  1  0
 16 15  1  0
 17 16  2  0
 18 17  1  0
 19 18  2  0
 20 19  1  0
 21 20  2  0
 21 16  1  0
 22 19  1  0
 23 22  2  0
 24 22  1  0
  1 25  1  0
  2 26  1  0
  3 27  1  0
  3 28  1  0
  7 29  1  0
  9 30  1  0
 13 31  1  0
 14 32  1  0
 15 33  1  0
 15 34  1  0
 17 35  1  0
 18 36  1  0
 20 37  1  0
 21 38  1  0
 24 39  1  0
 24 40  1  0
M  CHG  2   8   1  16   1
M  END
>  <score>  (5) 
-8.921

$$$$
=
     RDKit          3D

 40 41  0  0  0  0  0  0  0  0999 V2000
    0.6520   67.9460   68.0450 C   0  0  0  0  0  0  0  0  0  0  0  0
    1.0400   66.9520   68.8700 C   0  0  0  0  0  0  0  0  0  0  0  0
    1.4130   68.4150   66.8240 C   0  0  0  0  0  0  0  0  0  0  0  0
    4.9100   70.5730   67.9680 C   0  0  0  0  0  0  0  0  0  0  0  0
    4.8740   69.8550   66.7830 C   0  0  0  0  0  0  0  0  0  0  0  0
    5.9340   69.8070   65.9670 F   0  0  0  0  0  0  0  0  0  0  0  0
    3.7270   69.1540   66.4230 C   0  0  0  0  0  0  0  0  0  0  0  0
    2.6340   69.1590   67.2270 N   0  0  0  0  0  4  0  0  0  0  0  0
    2.6450   69.8710   68.3820 C   0  0  0  0  0  0  0  0  0  0  0  0
    3.7770   70.5800   68.7710 C   0  0  0  0  0  0  0  0  0  0  0  0
    3.7220   71.2490   69.9270 F   0  0  0  0  0  0  0  0  0  0  0  0
    6.9580   70.8270   69.2130 N   0  0  0  0  0  0  0  0  0  0  0  0
    6.1410   71.2880   68.3250 C   0  0  0  0  0  0  0  0  0  0  0  0
    8.0310   71.7160   69.3320 O   0  0  0  0  0  0  0  0  0  0  0  0
    0.2700   66.4650   70.0830 C   0  0  0  0  0  0  0  0  0  0  0  0
    0.9590   65.3040   70.7000 N   0  0  0  0  0  4  0  0  0  0  0  0
    0.3800   64.6400   71.7320 C   0  0  0  0  0  0  0  0  0  0  0  0
    1.0120   63.5540   72.3300 C   0  0  0  0  0  0  0  0  0  0  0  0
    2.2540   63.1460   71.8500 C   0  0  0  0  0  0  0  0  0  0  0  0
    2.8290   63.8310   70.7790 C   0  0  0  0  0  0  0  0  0  0  0  0
    2.1580   64.9030   70.2140 C   0  0  0  0  0  0  0  0  0  0  0  0
    3.0340   62.0490   72.4710 C   0  0  0  0  0  0  0  0  0  0  0  0
    3.7930   61.3840   71.7810 O   0  0  0  0  0  0  0  0  0  0  0  0
    2.8700   61.8130   73.8020 N   0  0  0  0  0  0  0  0  0  0  0  0
   -0.2938   68.4569   68.2785 H   0  0  0  0  0  0  0  0  0  0  0  0
    1.9940   66.4530   68.6446 H   0  0  0  0  0  0  0  0  0  0  0  0
    1.7033   67.5421   66.2209 H   0  0  0  0  0  0  0  0  0  0  0  0
    0.7664   69.0833   66.2364 H   0  0  0  0  0  0  0  0  0  0  0  0
    3.7063   68.5909   65.4783 H   0  0  0  0  0  0  0  0  0  0  0  0
    1.7480   69.8878   69.0185 H   0  0  0  0  0  0  0  0  0  0  0  0
    6.3735   72.2394   67.8243 H   0  0  0  0  0  0  0  0  0  0  0  0
    8.7627   71.5259   69.9712 H   0  0  0  0  0  0  0  0  0  0  0  0
    0.2009   67.2791   70.8195 H   0  0  0  0  0  0  0  0  0  0  0  0
   -0.7371   66.1559   69.7665 H   0  0  0  0  0  0  0  0  0  0  0  0
   -0.6038   64.9651   72.1015 H   0  0  0  0  0  0  0  0  0  0  0  0
    0.5374   63.0254   73.1698 H   0  0  0  0  0  0  0  0  0  0  0  0
    3.8087   63.5217   70.3859 H   0  0  0  0  0  0  0  0  0  0  0  0
    2.6041   65.4348   69.3607 H   0  0  0  0  0  0  0  0  0  0  0  0
    3.3990   61.0572   74.2600 H   0  0  0  0  0  0  0  0  0  0  0  0
    2.2169   62.3903   74.3508 H   0  0  0  0  0  0  0  0  0  0  0  0
  2  1  2  0
  3  1  1  0
  5  4  2  0
  6  5  1  0
  7  5  1  0
  8  7  2  0
  8  3  1  0
  9  8  1  0
 10  9  2  0
 10  4  1  0
 11 10  1  0
 13 12  2  0
 13  4  1  0
 14 12  1  0
 15  2  1  0
 16 15  1  0
 17 16  2  0
 18 17  1  0
 19 18  2  0
 20 19  1  0
 21 20  2  0
 21 16  1  0
 22 19  1  0
 23 22  2  0
 24 22  1  0
  1 25  1  0
  2 26  1  0
  3 27  1  0
  3 28  1  0
  7 29  1  0
  9 30  1  0
 13 31  1  0
 14 32  1  0
 15 33  1  0
 15 34  1  0
 17 35  1  0
 18 36  1  0
 20 37  1  0
 21 38  1  0
 24 39  1  0
 24 40  1  0
M  CHG  2   8   1  16   1
M  END
>  <score>  (6) 
-8.905

$$$$
=
     RDKit          3D

 40 41  0  0  0  0  0  0  0  0999 V2000
    1.0290   67.0760   69.4360 C   0  0  0  0  0  0  0  0  0  0  0  0
    1.0600   67.6000   68.1930 C   0  0  0  0  0  0  0  0  0  0  0  0
    0.1290   65.9450   69.8850 C   0  0  0  0  0  0  0  0  0  0  0  0
    2.4500   62.6570   71.2940 C   0  0  0  0  0  0  0  0  0  0  0  0
    1.0660   62.6350   71.3740 C   0  0  0  0  0  0  0  0  0  0  0  0
    0.4170   61.5910   71.9020 F   0  0  0  0  0  0  0  0  0  0  0  0
    0.3220   63.7160   70.9130 C   0  0  0  0  0  0  0  0  0  0  0  0
    0.9380   64.8040   70.3850 N   0  0  0  0  0  4  0  0  0  0  0  0
    2.2900   64.8350   70.2830 C   0  0  0  0  0  0  0  0  0  0  0  0
    3.0630   63.7710   70.7380 C   0  0  0  0  0  0  0  0  0  0  0  0
    4.3900   63.8740   70.6170 F   0  0  0  0  0  0  0  0  0  0  0  0
    3.9010   61.5820   72.8910 N   0  0  0  0  0  0  0  0  0  0  0  0
    3.2060   61.5060   71.8050 C   0  0  0  0  0  0  0  0  0  0  0  0
    4.4990   60.3390   73.1230 O   0  0  0  0  0  0  0  0  0  0  0  0
    1.9750   68.7190   67.7340 C   0  0  0  0  0  0  0  0  0  0  0  0
    2.2260   68.6140   66.2740 N   0  0  0  0  0  4  0  0  0  0  0  0
    3.3700   69.1150   65.7430 C   0  0  0  0  0  0  0  0  0  0  0  0
    3.6210   69.0340   64.3770 C   0  0  0  0  0  0  0  0  0  0  0  0
    2.6820   68.4210   63.5520 C   0  0  0  0  0  0  0  0  0  0  0  0
    1.5180   67.8990   64.1150 C   0  0  0  0  0  0  0  0  0  0  0  0
    1.3150   68.0000   65.4830 C   0  0  0  0  0  0  0  0  0  0  0  0
    2.8290   68.3550   62.0780 C   0  0  0  0  0  0  0  0  0  0  0  0
    3.6910   67.6400   61.5900 O   0  0  0  0  0  0  0  0  0  0  0  0
    1.9950   69.1110   61.3120 N   0  0  0  0  0  0  0  0  0  0  0  0
    1.7128   67.5053   70.1831 H   0  0  0  0  0  0  0  0  0  0  0  0
    0.3641   67.1809   67.4513 H   0  0  0  0  0  0  0  0  0  0  0  0
   -0.5283   66.3035   70.6909 H   0  0  0  0  0  0  0  0  0  0  0  0
   -0.4719   65.6067   69.0280 H   0  0  0  0  0  0  0  0  0  0  0  0
   -0.7758   63.6888   70.9769 H   0  0  0  0  0  0  0  0  0  0  0  0
    2.7814   65.7115   69.8354 H   0  0  0  0  0  0  0  0  0  0  0  0
    3.1796   60.5569   71.2496 H   0  0  0  0  0  0  0  0  0  0  0  0
    5.0745   60.2072   73.9177 H   0  0  0  0  0  0  0  0  0  0  0  0
    1.5012   69.6875   67.9519 H   0  0  0  0  0  0  0  0  0  0  0  0
    2.9332   68.6393   68.2683 H   0  0  0  0  0  0  0  0  0  0  0  0
    4.1098   69.5922   66.4025 H   0  0  0  0  0  0  0  0  0  0  0  0
    4.5483   69.4485   63.9548 H   0  0  0  0  0  0  0  0  0  0  0  0
    0.7658   67.4104   63.4782 H   0  0  0  0  0  0  0  0  0  0  0  0
    0.4037   67.5765   65.9304 H   0  0  0  0  0  0  0  0  0  0  0  0
    2.0739   69.0854   60.2853 H   0  0  0  0  0  0  0  0  0  0  0  0
    1.2851   69.7085   61.7592 H   0  0  0  0  0  0  0  0  0  0  0  0
  2  1  2  0
  3  1  1  0
  5  4  2  0
  6  5  1  0
  7  5  1  0
  8  7  2  0
  8  3  1  0
  9  8  1  0
 10  9  2  0
 10  4  1  0
 11 10  1  0
 13 12  2  0
 13  4  1  0
 14 12  1  0
 15  2  1  0
 16 15  1  0
 17 16  2  0
 18 17  1  0
 19 18  2  0
 20 19  1  0
 21 20  2  0
 21 16  1  0
 22 19  1  0
 23 22  2  0
 24 22  1  0
  1 25  1  0
  2 26  1  0
  3 27  1  0
  3 28  1  0
  7 29  1  0
  9 30  1  0
 13 31  1  0
 14 32  1  0
 15 33  1  0
 15 34  1  0
 17 35  1  0
 18 36  1  0
 20 37  1  0
 21 38  1  0
 24 39  1  0
 24 40  1  0
M  CHG  2   8   1  16   1
M  END
>  <score>  (7) 
-8.652

$$$$
=
     RDKit          3D

 40 41  0  0  0  0  0  0  0  0999 V2000
    1.0250   67.0170   69.3500 C   0  0  0  0  0  0  0  0  0  0  0  0
    0.8340   67.6320   68.1650 C   0  0  0  0  0  0  0  0  0  0  0  0
    0.1400   65.9310   69.9250 C   0  0  0  0  0  0  0  0  0  0  0  0
    2.4930   62.6310   71.2520 C   0  0  0  0  0  0  0  0  0  0  0  0
    3.0920   63.7630   70.7200 C   0  0  0  0  0  0  0  0  0  0  0  0
    4.4210   63.8520   70.5980 F   0  0  0  0  0  0  0  0  0  0  0  0
    2.3120   64.8310   70.2900 C   0  0  0  0  0  0  0  0  0  0  0  0
    0.9580   64.7780   70.3780 N   0  0  0  0  0  4  0  0  0  0  0  0
    0.3560   63.6850   70.9120 C   0  0  0  0  0  0  0  0  0  0  0  0
    1.1080   62.6000   71.3490 C   0  0  0  0  0  0  0  0  0  0  0  0
    0.4480   61.5520   71.8530 F   0  0  0  0  0  0  0  0  0  0  0  0
    4.0170   61.5640   72.7840 N   0  0  0  0  0  0  0  0  0  0  0  0
    3.3450   61.5160   71.6820 C   0  0  0  0  0  0  0  0  0  0  0  0
    4.7230   60.3650   72.9260 O   0  0  0  0  0  0  0  0  0  0  0  0
    1.7300   68.7040   67.5770 C   0  0  0  0  0  0  0  0  0  0  0  0
    2.3810   68.2110   66.3370 N   0  0  0  0  0  4  0  0  0  0  0  0
    2.1270   66.9560   65.8890 C   0  0  0  0  0  0  0  0  0  0  0  0
    2.7320   66.4720   64.7330 C   0  0  0  0  0  0  0  0  0  0  0  0
    3.6030   67.2980   64.0290 C   0  0  0  0  0  0  0  0  0  0  0  0
    3.8430   68.5910   64.4950 C   0  0  0  0  0  0  0  0  0  0  0  0
    3.2120   69.0290   65.6490 C   0  0  0  0  0  0  0  0  0  0  0  0
    4.3500   66.8440   62.8320 C   0  0  0  0  0  0  0  0  0  0  0  0
    4.2110   65.6960   62.4340 O   0  0  0  0  0  0  0  0  0  0  0  0
    5.1810   67.7290   62.2150 N   0  0  0  0  0  0  0  0  0  0  0  0
    1.8942   67.3296   69.9473 H   0  0  0  0  0  0  0  0  0  0  0  0
   -0.0450   67.3307   67.5763 H   0  0  0  0  0  0  0  0  0  0  0  0
   -0.4199   66.3359   70.7809 H   0  0  0  0  0  0  0  0  0  0  0  0
   -0.5552   65.5886   69.1443 H   0  0  0  0  0  0  0  0  0  0  0  0
    2.7964   65.7271   69.8747 H   0  0  0  0  0  0  0  0  0  0  0  0
   -0.7401   63.6571   71.0002 H   0  0  0  0  0  0  0  0  0  0  0  0
    3.4129   60.6178   71.0506 H   0  0  0  0  0  0  0  0  0  0  0  0
    5.2984   60.2202   73.7185 H   0  0  0  0  0  0  0  0  0  0  0  0
    1.1256   69.5922   67.3406 H   0  0  0  0  0  0  0  0  0  0  0  0
    2.5081   68.9609   68.3108 H   0  0  0  0  0  0  0  0  0  0  0  0
    1.4325   66.3114   66.4477 H   0  0  0  0  0  0  0  0  0  0  0  0
    2.5246   65.4508   64.3807 H   0  0  0  0  0  0  0  0  0  0  0  0
    4.5278   69.2579   63.9507 H   0  0  0  0  0  0  0  0  0  0  0  0
    3.3885   70.0530   66.0099 H   0  0  0  0  0  0  0  0  0  0  0  0
    5.7126   67.4409   61.3811 H   0  0  0  0  0  0  0  0  0  0  0  0
    5.2779   68.6864   62.5822 H   0  0  0  0  0  0  0  0  0  0  0  0
  2  1  2  0
  3  1  1  0
  5  4  2  0
  6  5  1  0
  7  5  1  0
  8  7  2  0
  8  3  1  0
  9  8  1  0
 10  9  2  0
 10  4  1  0
 11 10  1  0
 13 12  2  0
 13  4  1  0
 14 12  1  0
 15  2  1  0
 16 15  1  0
 17 16  2  0
 18 17  1  0
 19 18  2  0
 20 19  1  0
 21 20  2  0
 21 16  1  0
 22 19  1  0
 23 22  2  0
 24 22  1  0
  1 25  1  0
  2 26  1  0
  3 27  1  0
  3 28  1  0
  7 29  1  0
  9 30  1  0
 13 31  1  0
 14 32  1  0
 15 33  1  0
 15 34  1  0
 17 35  1  0
 18 36  1  0
 20 37  1  0
 21 38  1  0
 24 39  1  0
 24 40  1  0
M  CHG  2   8   1  16   1
M  END
>  <score>  (8) 
-8.635

$$$$
=
     RDKit          3D

 40 41  0  0  0  0  0  0  0  0999 V2000
    0.8160   67.2850   68.5880 C   0  0  0  0  0  0  0  0  0  0  0  0
    1.1060   66.7250   69.7790 C   0  0  0  0  0  0  0  0  0  0  0  0
    1.5180   68.4870   67.9920 C   0  0  0  0  0  0  0  0  0  0  0  0
    0.7180   68.7910   63.8140 C   0  0  0  0  0  0  0  0  0  0  0  0
   -0.3180   68.6910   64.7300 C   0  0  0  0  0  0  0  0  0  0  0  0
   -1.5960   68.6760   64.3340 F   0  0  0  0  0  0  0  0  0  0  0  0
   -0.0420   68.5900   66.0900 C   0  0  0  0  0  0  0  0  0  0  0  0
    1.2400   68.5830   66.5370 N   0  0  0  0  0  4  0  0  0  0  0  0
    2.2650   68.6990   65.6550 C   0  0  0  0  0  0  0  0  0  0  0  0
    2.0230   68.7990   64.2890 C   0  0  0  0  0  0  0  0  0  0  0  0
    3.0810   68.8970   63.4780 F   0  0  0  0  0  0  0  0  0  0  0  0
    0.4700   69.9970   61.7420 N   0  0  0  0  0  0  0  0  0  0  0  0
    0.3920   68.8800   62.3850 C   0  0  0  0  0  0  0  0  0  0  0  0
    0.1070   69.7690   60.4100 O   0  0  0  0  0  0  0  0  0  0  0  0
    0.4190   65.5090   70.3690 C   0  0  0  0  0  0  0  0  0  0  0  0
    1.4260   64.5090   70.8080 N   0  0  0  0  0  4  0  0  0  0  0  0
    2.6880   64.5520   70.3110 C   0  0  0  0  0  0  0  0  0  0  0  0
    3.6440   63.6200   70.7030 C   0  0  0  0  0  0  0  0  0  0  0  0
    3.2930   62.6370   71.6240 C   0  0  0  0  0  0  0  0  0  0  0  0
    1.9950   62.6150   72.1360 C   0  0  0  0  0  0  0  0  0  0  0  0
    1.0800   63.5680   71.7180 C   0  0  0  0  0  0  0  0  0  0  0  0
    4.2200   61.5590   72.0430 C   0  0  0  0  0  0  0  0  0  0  0  0
    3.8130   60.6600   72.7640 O   0  0  0  0  0  0  0  0  0  0  0  0
    5.5120   61.6150   71.6130 N   0  0  0  0  0  0  0  0  0  0  0  0
    0.0033   66.8321   68.0012 H   0  0  0  0  0  0  0  0  0  0  0  0
    1.9078   67.1887   70.3724 H   0  0  0  0  0  0  0  0  0  0  0  0
    1.1589   69.3997   68.4901 H   0  0  0  0  0  0  0  0  0  0  0  0
    2.6022   68.3754   68.1404 H   0  0  0  0  0  0  0  0  0  0  0  0
   -0.8703   68.5151   66.8099 H   0  0  0  0  0  0  0  0  0  0  0  0
    3.3007   68.7141   66.0253 H   0  0  0  0  0  0  0  0  0  0  0  0
    0.0737   67.9734   61.8495 H   0  0  0  0  0  0  0  0  0  0  0  0
    0.1077   70.5172   59.7617 H   0  0  0  0  0  0  0  0  0  0  0  0
   -0.1860   65.8183   71.2341 H   0  0  0  0  0  0  0  0  0  0  0  0
   -0.2247   65.0547   69.6014 H   0  0  0  0  0  0  0  0  0  0  0  0
    2.9592   65.3351   69.5877 H   0  0  0  0  0  0  0  0  0  0  0  0
    4.6631   63.6595   70.2908 H   0  0  0  0  0  0  0  0  0  0  0  0
    1.7004   61.8468   72.8661 H   0  0  0  0  0  0  0  0  0  0  0  0
    0.0603   63.5599   72.1304 H   0  0  0  0  0  0  0  0  0  0  0  0
    6.1787   60.8797   71.8883 H   0  0  0  0  0  0  0  0  0  0  0  0
    5.8217   62.3926   71.0127 H   0  0  0  0  0  0  0  0  0  0  0  0
  2  1  2  0
  3  1  1  0
  5  4  2  0
  6  5  1  0
  7  5  1  0
  8  7  2  0
  8  3  1  0
  9  8  1  0
 10  9  2  0
 10  4  1  0
 11 10  1  0
 13 12  2  0
 13  4  1  0
 14 12  1  0
 15  2  1  0
 16 15  1  0
 17 16  2  0
 18 17  1  0
 19 18  2  0
 20 19  1  0
 21 20  2  0
 21 16  1  0
 22 19  1  0
 23 22  2  0
 24 22  1  0
  1 25  1  0
  2 26  1  0
  3 27  1  0
  3 28  1  0
  7 29  1  0
  9 30  1  0
 13 31  1  0
 14 32  1  0
 15 33  1  0
 15 34  1  0
 17 35  1  0
 18 36  1  0
 20 37  1  0
 21 38  1  0
 24 39  1  0
 24 40  1  0
M  CHG  2   8   1  16   1
M  END
>  <score>  (9) 
-8.515

$$$$
