=
     RDKit          3D

 22 21  0  0  0  0  0  0  0  0999 V2000
    4.1710   69.1120   64.5240 C   0  0  0  0  0  0  0  0  0  0  0  0
    4.3110   68.9030   63.0660 N   0  0  0  0  0  0  0  0  0  0  0  0
    3.2210   68.7680   62.2280 C   0  0  0  0  0  0  0  0  0  0  0  0
    3.4080   68.7360   60.8800 N   0  0  0  0  0  4  0  0  0  0  0  0
    1.9780   68.6350   62.7480 N   0  0  0  0  0  0  0  0  0  0  0  0
    0.8070   68.8660   62.1410 C   0  0  0  0  0  0  0  0  0  0  0  0
    0.6900   69.5900   61.0170 N   0  0  0  0  0  4  0  0  0  0  0  0
   -0.3190   68.3790   62.6950 N   0  0  0  0  0  0  0  0  0  0  0  0
    5.6980   68.8810   62.5490 C   0  0  0  0  0  0  0  0  0  0  0  0
    4.7051   68.3147   65.0617 H   0  0  0  0  0  0  0  0  0  0  0  0
    4.5981   70.0882   64.7972 H   0  0  0  0  0  0  0  0  0  0  0  0
    3.1057   69.0885   64.7972 H   0  0  0  0  0  0  0  0  0  0  0  0
    2.5993   68.6355   60.2501 H   0  0  0  0  0  0  0  0  0  0  0  0
    4.3582   68.8123   60.4899 H   0  0  0  0  0  0  0  0  0  0  0  0
    1.9271   68.3185   63.7268 H   0  0  0  0  0  0  0  0  0  0  0  0
   -0.2371   69.7359   60.5925 H   0  0  0  0  0  0  0  0  0  0  0  0
    1.5273   69.9997   60.5788 H   0  0  0  0  0  0  0  0  0  0  0  0
   -1.2293   68.5462   62.2430 H   0  0  0  0  0  0  0  0  0  0  0  0
   -0.2703   67.8392   63.5709 H   0  0  0  0  0  0  0  0  0  0  0  0
    6.4037   68.8698   63.3927 H   0  0  0  0  0  0  0  0  0  0  0  0
    5.8462   67.9804   61.9351 H   0  0  0  0  0  0  0  0  0  0  0  0
    5.8747   69.7765   61.9351 H   0  0  0  0  0  0  0  0  0  0  0  0
  2  1  1  0
  3  2  1  0
  4  3  2  3
  5  3  1  0
  6  5  1  0
  7  6  2  3
  8  6  1  0
  9  2  1  0
  1 10  1  0
  1 11  1  0
  1 12  1  0
  4 13  1  0
  4 14  1  0
  5 15  1  0
  7 16  1  0
  7 17  1  0
  8 18  1  0
  8 19  1  0
  9 20  1  0
  9 21  1  0
  9 22  1  0
M  CHG  2   4   1   7   1
M  END
>  <score>  (1) 
-5.453

$$$$
=
     RDKit          3D

 22 21  0  0  0  0  0  0  0  0999 V2000
   -0.2300   68.8490   63.0500 C   0  0  0  0  0  0  0  0  0  0  0  0
    0.2580   68.7720   64.4450 N   0  0  0  0  0  0  0  0  0  0  0  0
   -0.5940   68.6390   65.5240 C   0  0  0  0  0  0  0  0  0  0  0  0
   -0.0810   68.4160   66.7640 N   0  0  0  0  0  4  0  0  0  0  0  0
   -1.9320   68.7650   65.3500 N   0  0  0  0  0  0  0  0  0  0  0  0
   -2.9070   68.3150   66.1500 C   0  0  0  0  0  0  0  0  0  0  0  0
   -2.7160   67.3720   67.0860 N   0  0  0  0  0  4  0  0  0  0  0  0
   -4.1510   68.8030   65.9940 N   0  0  0  0  0  0  0  0  0  0  0  0
    1.7290   68.8110   64.6150 C   0  0  0  0  0  0  0  0  0  0  0  0
   -1.3166   69.0204   63.0506 H   0  0  0  0  0  0  0  0  0  0  0  0
    0.2719   69.6791   62.5313 H   0  0  0  0  0  0  0  0  0  0  0  0
   -0.0081   67.9047   62.5313 H   0  0  0  0  0  0  0  0  0  0  0  0
   -0.7119   68.3161   67.5720 H   0  0  0  0  0  0  0  0  0  0  0  0
    0.9383   68.3471   66.8949 H   0  0  0  0  0  0  0  0  0  0  0  0
   -2.2347   69.2660   64.5025 H   0  0  0  0  0  0  0  0  0  0  0  0
   -3.5032   67.0632   67.6741 H   0  0  0  0  0  0  0  0  0  0  0  0
   -1.7822   66.9572   67.2161 H   0  0  0  0  0  0  0  0  0  0  0  0
   -4.9147   68.4696   66.5995 H   0  0  0  0  0  0  0  0  0  0  0  0
   -4.3397   69.5100   65.2691 H   0  0  0  0  0  0  0  0  0  0  0  0
    1.9741   68.8175   65.6873 H   0  0  0  0  0  0  0  0  0  0  0  0
    2.1764   67.9244   64.1420 H   0  0  0  0  0  0  0  0  0  0  0  0
    2.1288   69.7201   64.1420 H   0  0  0  0  0  0  0  0  0  0  0  0
  2  1  1  0
  3  2  1  0
  4  3  2  3
  5  3  1  0
  6  5  1  0
  7  6  2  3
  8  6  1  0
  9  2  1  0
  1 10  1  0
  1 11  1  0
  1 12  1  0
  4 13  1  0
  4 14  1  0
  5 15  1  0
  7 16  1  0
  7 17  1  0
  8 18  1  0
  8 19  1  0
  9 20  1  0
  9 21  1  0
  9 22  1  0
M  CHG  2   4   1   7   1
M  END
>  <score>  (2) 
-5.429

$$$$
=
     RDKit          3D

 22 21  0  0  0  0  0  0  0  0999 V2000
    1.4090   69.0860   67.2730 C   0  0  0  0  0  0  0  0  0  0  0  0
    1.1240   68.7870   65.8520 N   0  0  0  0  0  0  0  0  0  0  0  0
   -0.1540   68.5490   65.3850 C   0  0  0  0  0  0  0  0  0  0  0  0
   -0.3730   68.4360   64.0470 N   0  0  0  0  0  4  0  0  0  0  0  0
   -1.1780   68.3960   66.2600 N   0  0  0  0  0  0  0  0  0  0  0  0
   -2.4880   68.5340   66.0190 C   0  0  0  0  0  0  0  0  0  0  0  0
   -2.9760   69.1770   64.9460 N   0  0  0  0  0  4  0  0  0  0  0  0
   -3.3670   68.0360   66.9070 N   0  0  0  0  0  0  0  0  0  0  0  0
    2.2950   68.7920   64.9460 C   0  0  0  0  0  0  0  0  0  0  0  0
    0.7925   68.4392   67.9146 H   0  0  0  0  0  0  0  0  0  0  0  0
    2.4733   68.9008   67.4804 H   0  0  0  0  0  0  0  0  0  0  0  0
    1.1730   70.1402   67.4804 H   0  0  0  0  0  0  0  0  0  0  0  0
   -1.3242   68.2585   63.6940 H   0  0  0  0  0  0  0  0  0  0  0  0
    0.4124   68.5279   63.3870 H   0  0  0  0  0  0  0  0  0  0  0  0
   -0.9177   68.1438   67.2241 H   0  0  0  0  0  0  0  0  0  0  0  0
   -3.9942   69.2532   64.8103 H   0  0  0  0  0  0  0  0  0  0  0  0
   -2.3322   69.5940   64.2586 H   0  0  0  0  0  0  0  0  0  0  0  0
   -4.3787   68.1321   66.7395 H   0  0  0  0  0  0  0  0  0  0  0  0
   -3.0284   67.5585   67.7545 H   0  0  0  0  0  0  0  0  0  0  0  0
    3.2196   68.7959   65.5419 H   0  0  0  0  0  0  0  0  0  0  0  0
    2.2715   67.8937   64.3115 H   0  0  0  0  0  0  0  0  0  0  0  0
    2.2639   69.6900   64.3115 H   0  0  0  0  0  0  0  0  0  0  0  0
  2  1  1  0
  3  2  1  0
  4  3  2  3
  5  3  1  0
  6  5  1  0
  7  6  2  3
  8  6  1  0
  9  2  1  0
  1 10  1  0
  1 11  1  0
  1 12  1  0
  4 13  1  0
  4 14  1  0
  5 15  1  0
  7 16  1  0
  7 17  1  0
  8 18  1  0
  8 19  1  0
  9 20  1  0
  9 21  1  0
  9 22  1  0
M  CHG  2   4   1   7   1
M  END
>  <score>  (3) 
-5.225

$$$$
=
     RDKit          3D

 22 21  0  0  0  0  0  0  0  0999 V2000
    2.3530   68.6740   64.2160 C   0  0  0  0  0  0  0  0  0  0  0  0
    1.0700   68.8120   63.4910 N   0  0  0  0  0  0  0  0  0  0  0  0
   -0.1540   68.7010   64.1210 C   0  0  0  0  0  0  0  0  0  0  0  0
   -1.2930   68.9920   63.4360 N   0  0  0  0  0  4  0  0  0  0  0  0
   -0.2200   68.2730   65.4050 N   0  0  0  0  0  0  0  0  0  0  0  0
   -1.2190   68.4530   66.2780 C   0  0  0  0  0  0  0  0  0  0  0  0
   -2.1780   69.3800   66.1200 N   0  0  0  0  0  4  0  0  0  0  0  0
   -1.2550   67.6940   67.3880 N   0  0  0  0  0  0  0  0  0  0  0  0
    1.1770   69.1100   62.0450 C   0  0  0  0  0  0  0  0  0  0  0  0
    2.1658   68.6941   65.2998 H   0  0  0  0  0  0  0  0  0  0  0  0
    2.8273   67.7197   63.9435 H   0  0  0  0  0  0  0  0  0  0  0  0
    3.0194   69.5056   63.9435 H   0  0  0  0  0  0  0  0  0  0  0  0
   -2.2085   68.9109   63.9009 H   0  0  0  0  0  0  0  0  0  0  0  0
   -1.2397   69.2934   62.4525 H   0  0  0  0  0  0  0  0  0  0  0  0
    0.5952   67.7467   65.7504 H   0  0  0  0  0  0  0  0  0  0  0  0
   -2.9238   69.4747   66.8241 H   0  0  0  0  0  0  0  0  0  0  0  0
   -2.1677   69.9962   65.2947 H   0  0  0  0  0  0  0  0  0  0  0  0
   -2.0154   67.8173   68.0718 H   0  0  0  0  0  0  0  0  0  0  0  0
   -0.5222   66.9895   67.5542 H   0  0  0  0  0  0  0  0  0  0  0  0
    1.5459   70.1373   61.9087 H   0  0  0  0  0  0  0  0  0  0  0  0
    1.8776   68.4036   61.5759 H   0  0  0  0  0  0  0  0  0  0  0  0
    0.1870   69.0106   61.5759 H   0  0  0  0  0  0  0  0  0  0  0  0
  2  1  1  0
  3  2  1  0
  4  3  2  3
  5  3  1  0
  6  5  1  0
  7  6  2  3
  8  6  1  0
  9  2  1  0
  1 10  1  0
  1 11  1  0
  1 12  1  0
  4 13  1  0
  4 14  1  0
  5 15  1  0
  7 16  1  0
  7 17  1  0
  8 18  1  0
  8 19  1  0
  9 20  1  0
  9 21  1  0
  9 22  1  0
M  CHG  2   4   1   7   1
M  END
>  <score>  (4) 
-5.166

$$$$
=
     RDKit          3D

 22 21  0  0  0  0  0  0  0  0999 V2000
    0.0200   69.5500   61.6720 C   0  0  0  0  0  0  0  0  0  0  0  0
    1.0340   68.9880   62.5910 N   0  0  0  0  0  0  0  0  0  0  0  0
    0.7660   68.7230   63.9200 C   0  0  0  0  0  0  0  0  0  0  0  0
    1.6860   68.0620   64.6740 N   0  0  0  0  0  4  0  0  0  0  0  0
   -0.3930   69.1490   64.4760 N   0  0  0  0  0  0  0  0  0  0  0  0
   -0.9880   68.6890   65.5830 C   0  0  0  0  0  0  0  0  0  0  0  0
   -0.6980   67.5000   66.1370 N   0  0  0  0  0  4  0  0  0  0  0  0
   -1.9500   69.4320   66.1610 N   0  0  0  0  0  0  0  0  0  0  0  0
    2.3540   68.6920   61.9890 C   0  0  0  0  0  0  0  0  0  0  0  0
   -0.7948   70.0016   62.2569 H   0  0  0  0  0  0  0  0  0  0  0  0
    0.4858   70.3187   61.0379 H   0  0  0  0  0  0  0  0  0  0  0  0
   -0.3850   68.7476   61.0379 H   0  0  0  0  0  0  0  0  0  0  0  0
    1.4914   67.8618   65.6654 H   0  0  0  0  0  0  0  0  0  0  0  0
    2.5770   67.7619   64.2533 H   0  0  0  0  0  0  0  0  0  0  0  0
   -0.8739   69.9187   63.9889 H   0  0  0  0  0  0  0  0  0  0  0  0
   -1.1880   67.1963   66.9905 H   0  0  0  0  0  0  0  0  0  0  0  0
    0.0144   66.8921   65.7082 H   0  0  0  0  0  0  0  0  0  0  0  0
   -2.4192   69.0943   67.0135 H   0  0  0  0  0  0  0  0  0  0  0  0
   -2.2170   70.3383   65.7508 H   0  0  0  0  0  0  0  0  0  0  0  0
    3.0923   68.5264   62.7874 H   0  0  0  0  0  0  0  0  0  0  0  0
    2.2786   67.7884   61.3662 H   0  0  0  0  0  0  0  0  0  0  0  0
    2.6717   69.5412   61.3662 H   0  0  0  0  0  0  0  0  0  0  0  0
  2  1  1  0
  3  2  1  0
  4  3  2  3
  5  3  1  0
  6  5  1  0
  7  6  2  3
  8  6  1  0
  9  2  1  0
  1 10  1  0
  1 11  1  0
  1 12  1  0
  4 13  1  0
  4 14  1  0
  5 15  1  0
  7 16  1  0
  7 17  1  0
  8 18  1  0
  8 19  1  0
  9 20  1  0
  9 21  1  0
  9 22  1  0
M  CHG  2   4   1   7   1
M  END
>  <score>  (5) 
-4.991

$$$$
=
     RDKit          3D

 22 21  0  0  0  0  0  0  0  0999 V2000
    4.2520   70.9200   68.9730 C   0  0  0  0  0  0  0  0  0  0  0  0
    5.4170   70.5430   68.1420 N   0  0  0  0  0  0  0  0  0  0  0  0
    5.2870   69.8760   66.9400 C   0  0  0  0  0  0  0  0  0  0  0  0
    6.3780   69.6950   66.1480 N   0  0  0  0  0  4  0  0  0  0  0  0
    4.0840   69.3740   66.5700 N   0  0  0  0  0  0  0  0  0  0  0  0
    3.6780   69.0480   65.3370 C   0  0  0  0  0  0  0  0  0  0  0  0
    4.2860   69.4820   64.2210 N   0  0  0  0  0  4  0  0  0  0  0  0
    2.5870   68.2730   65.1960 N   0  0  0  0  0  0  0  0  0  0  0  0
    6.7400   70.9570   68.6630 C   0  0  0  0  0  0  0  0  0  0  0  0
    4.5174   70.8341   70.0370 H   0  0  0  0  0  0  0  0  0  0  0  0
    3.9628   71.9576   68.7498 H   0  0  0  0  0  0  0  0  0  0  0  0
    3.4098   70.2485   68.7498 H   0  0  0  0  0  0  0  0  0  0  0  0
    6.2861   69.1981   65.2505 H   0  0  0  0  0  0  0  0  0  0  0  0
    7.2960   70.0548   66.4458 H   0  0  0  0  0  0  0  0  0  0  0  0
    3.4014   69.2258   67.3270 H   0  0  0  0  0  0  0  0  0  0  0  0
    3.9297   69.1988   63.2970 H   0  0  0  0  0  0  0  0  0  0  0  0
    5.1086   70.0981   64.2890 H   0  0  0  0  0  0  0  0  0  0  0  0
    2.2591   68.0115   64.2552 H   0  0  0  0  0  0  0  0  0  0  0  0
    2.0798   67.9413   66.0288 H   0  0  0  0  0  0  0  0  0  0  0  0
    6.7194   70.9505   69.7628 H   0  0  0  0  0  0  0  0  0  0  0  0
    7.5099   70.2568   68.3066 H   0  0  0  0  0  0  0  0  0  0  0  0
    6.9734   71.9711   68.3066 H   0  0  0  0  0  0  0  0  0  0  0  0
  2  1  1  0
  3  2  1  0
  4  3  2  3
  5  3  1  0
  6  5  1  0
  7  6  2  3
  8  6  1  0
  9  2  1  0
  1 10  1  0
  1 11  1  0
  1 12  1  0
  4 13  1  0
  4 14  1  0
  5 15  1  0
  7 16  1  0
  7 17  1  0
  8 18  1  0
  8 19  1  0
  9 20  1  0
  9 21  1  0
  9 22  1  0
M  CHG  2   4   1   7   1
M  END
>  <score>  (6) 
-4.922

$$$$
=
     RDKit          3D

 22 21  0  0  0  0  0  0  0  0999 V2000
    1.2040   68.5000   64.6130 C   0  0  0  0  0  0  0  0  0  0  0  0
    1.3450   68.6920   63.1530 N   0  0  0  0  0  0  0  0  0  0  0  0
    2.5750   68.7520   62.5270 C   0  0  0  0  0  0  0  0  0  0  0  0
    2.6390   68.7720   61.1680 N   0  0  0  0  0  4  0  0  0  0  0  0
    3.7090   68.8260   63.2650 N   0  0  0  0  0  0  0  0  0  0  0  0
    4.9550   68.5210   62.8840 C   0  0  0  0  0  0  0  0  0  0  0  0
    5.2340   67.7720   61.8040 N   0  0  0  0  0  4  0  0  0  0  0  0
    5.9870   68.9550   63.6300 N   0  0  0  0  0  0  0  0  0  0  0  0
    0.0790   68.7820   62.3900 C   0  0  0  0  0  0  0  0  0  0  0  0
    1.7749   69.2774   65.1419 H   0  0  0  0  0  0  0  0  0  0  0  0
    0.1422   68.5715   64.8914 H   0  0  0  0  0  0  0  0  0  0  0  0
    1.5900   67.5083   64.8914 H   0  0  0  0  0  0  0  0  0  0  0  0
    3.5534   68.8167   60.6961 H   0  0  0  0  0  0  0  0  0  0  0  0
    1.7730   68.7424   60.6112 H   0  0  0  0  0  0  0  0  0  0  0  0
    3.5989   69.1562   64.2344 H   0  0  0  0  0  0  0  0  0  0  0  0
    6.2131   67.5685   61.5574 H   0  0  0  0  0  0  0  0  0  0  0  0
    4.4688   67.4014   61.2227 H   0  0  0  0  0  0  0  0  0  0  0  0
    6.9532   68.7303   63.3528 H   0  0  0  0  0  0  0  0  0  0  0  0
    5.8109   69.5120   64.4783 H   0  0  0  0  0  0  0  0  0  0  0  0
   -0.7675   68.8422   63.0899 H   0  0  0  0  0  0  0  0  0  0  0  0
    0.0957   69.6812   61.7567 H   0  0  0  0  0  0  0  0  0  0  0  0
   -0.0317   67.8895   61.7567 H   0  0  0  0  0  0  0  0  0  0  0  0
  2  1  1  0
  3  2  1  0
  4  3  2  3
  5  3  1  0
  6  5  1  0
  7  6  2  3
  8  6  1  0
  9  2  1  0
  1 10  1  0
  1 11  1  0
  1 12  1  0
  4 13  1  0
  4 14  1  0
  5 15  1  0
  7 16  1  0
  7 17  1  0
  8 18  1  0
  8 19  1  0
  9 20  1  0
  9 21  1  0
  9 22  1  0
M  CHG  2   4   1   7   1
M  END
>  <score>  (7) 
-4.903

$$$$
=
     RDKit          3D

 22 21  0  0  0  0  0  0  0  0999 V2000
    4.3630   68.3520   63.5730 C   0  0  0  0  0  0  0  0  0  0  0  0
    3.0980   67.7470   64.0430 N   0  0  0  0  0  0  0  0  0  0  0  0
    2.9580   66.3900   64.2590 C   0  0  0  0  0  0  0  0  0  0  0  0
    1.8240   65.9130   64.8390 N   0  0  0  0  0  4  0  0  0  0  0  0
    3.9340   65.5370   63.8630 N   0  0  0  0  0  0  0  0  0  0  0  0
    4.1590   64.2920   64.3000 C   0  0  0  0  0  0  0  0  0  0  0  0
    3.6520   63.8090   65.4460 N   0  0  0  0  0  4  0  0  0  0  0  0
    4.9580   63.4850   63.5770 N   0  0  0  0  0  0  0  0  0  0  0  0
    1.9890   68.6940   64.3040 C   0  0  0  0  0  0  0  0  0  0  0  0
    4.9740   68.6442   64.4398 H   0  0  0  0  0  0  0  0  0  0  0  0
    4.9155   67.6207   62.9648 H   0  0  0  0  0  0  0  0  0  0  0  0
    4.1405   69.2411   62.9648 H   0  0  0  0  0  0  0  0  0  0  0  0
    1.7151   64.9018   65.0021 H   0  0  0  0  0  0  0  0  0  0  0  0
    1.0742   66.5629   65.1151 H   0  0  0  0  0  0  0  0  0  0  0  0
    4.5786   65.8883   63.1405 H   0  0  0  0  0  0  0  0  0  0  0  0
    3.8586   62.8417   65.7333 H   0  0  0  0  0  0  0  0  0  0  0  0
    3.0565   64.4059   66.0377 H   0  0  0  0  0  0  0  0  0  0  0  0
    5.1436   62.5235   63.8963 H   0  0  0  0  0  0  0  0  0  0  0  0
    5.3838   63.8291   62.7045 H   0  0  0  0  0  0  0  0  0  0  0  0
    1.8535   68.8097   65.3895 H   0  0  0  0  0  0  0  0  0  0  0  0
    2.2283   69.6707   63.8582 H   0  0  0  0  0  0  0  0  0  0  0  0
    1.0618   68.3047   63.8582 H   0  0  0  0  0  0  0  0  0  0  0  0
  2  1  1  0
  3  2  1  0
  4  3  2  3
  5  3  1  0
  6  5  1  0
  7  6  2  3
  8  6  1  0
  9  2  1  0
  1 10  1  0
  1 11  1  0
  1 12  1  0
  4 13  1  0
  4 14  1  0
  5 15  1  0
  7 16  1  0
  7 17  1  0
  8 18  1  0
  8 19  1  0
  9 20  1  0
  9 21  1  0
  9 22  1  0
M  CHG  2   4   1   7   1
M  END
>  <score>  (8) 
-4.8

$$$$
=
     RDKit          3D

 22 21  0  0  0  0  0  0  0  0999 V2000
    3.3690   64.4830   64.6590 C   0  0  0  0  0  0  0  0  0  0  0  0
    3.3980   65.8420   64.0740 N   0  0  0  0  0  0  0  0  0  0  0  0
    2.5270   66.8390   64.4690 C   0  0  0  0  0  0  0  0  0  0  0  0
    2.7030   68.1080   64.0110 N   0  0  0  0  0  4  0  0  0  0  0  0
    1.4830   66.5440   65.2810 N   0  0  0  0  0  0  0  0  0  0  0  0
    0.7820   67.3860   66.0510 C   0  0  0  0  0  0  0  0  0  0  0  0
    1.2200   68.6080   66.3950 N   0  0  0  0  0  4  0  0  0  0  0  0
   -0.4070   66.9850   66.5350 N   0  0  0  0  0  0  0  0  0  0  0  0
    4.4470   66.0830   63.0570 C   0  0  0  0  0  0  0  0  0  0  0  0
    3.3706   64.5562   65.7566 H   0  0  0  0  0  0  0  0  0  0  0  0
    2.4595   63.9605   64.3276 H   0  0  0  0  0  0  0  0  0  0  0  0
    4.2554   63.9222   64.3276 H   0  0  0  0  0  0  0  0  0  0  0  0
    2.0565   68.8550   64.3024 H   0  0  0  0  0  0  0  0  0  0  0  0
    3.4828   68.3217   63.3729 H   0  0  0  0  0  0  0  0  0  0  0  0
    1.1946   65.5556   65.3093 H   0  0  0  0  0  0  0  0  0  0  0  0
    0.6385   69.2148   66.9905 H   0  0  0  0  0  0  0  0  0  0  0  0
    2.1374   68.9385   66.0634 H   0  0  0  0  0  0  0  0  0  0  0  0
   -0.9612   67.6181   67.1291 H   0  0  0  0  0  0  0  0  0  0  0  0
   -0.7634   66.0448   66.3116 H   0  0  0  0  0  0  0  0  0  0  0  0
    5.4009   66.3022   63.5590 H   0  0  0  0  0  0  0  0  0  0  0  0
    4.5608   65.1876   62.4283 H   0  0  0  0  0  0  0  0  0  0  0  0
    4.1586   66.9383   62.4283 H   0  0  0  0  0  0  0  0  0  0  0  0
  2  1  1  0
  3  2  1  0
  4  3  2  3
  5  3  1  0
  6  5  1  0
  7  6  2  3
  8  6  1  0
  9  2  1  0
  1 10  1  0
  1 11  1  0
  1 12  1  0
  4 13  1  0
  4 14  1  0
  5 15  1  0
  7 16  1  0
  7 17  1  0
  8 18  1  0
  8 19  1  0
  9 20  1  0
  9 21  1  0
  9 22  1  0
M  CHG  2   4   1   7   1
M  END
>  <score>  (9) 
-4.782

$$$$
