=
     RDKit          3D

 57 59  0  0  0  0  0  0  0  0999 V2000
    1.0160   68.7450   67.5150 C   0  0  0  0  0  0  0  0  0  0  0  0
    2.4080   69.3810   67.6560 C   0  0  0  0  0  0  0  0  0  0  0  0
    3.4070   69.2730   66.6730 C   0  0  0  0  0  0  0  0  0  0  0  0
    4.6600   69.8670   66.8560 C   0  0  0  0  0  0  0  0  0  0  0  0
    4.9380   70.5730   68.0230 C   0  0  0  0  0  0  0  0  0  0  0  0
    3.9670   70.6910   69.0110 C   0  0  0  0  0  0  0  0  0  0  0  0
    2.7150   70.1010   68.8290 C   0  0  0  0  0  0  0  0  0  0  0  0
    0.7440   67.6040   68.5130 C   0  0  0  0  0  0  0  0  0  0  0  0
    1.7510   67.1190   69.3710 C   0  0  0  0  0  0  0  0  0  0  0  0
    1.5020   66.0550   70.2410 C   0  0  0  0  0  0  0  0  0  0  0  0
    0.2480   65.4500   70.2640 C   0  0  0  0  0  0  0  0  0  0  0  0
   -0.7580   65.9070   69.4190 C   0  0  0  0  0  0  0  0  0  0  0  0
   -0.5120   66.9710   68.5490 C   0  0  0  0  0  0  0  0  0  0  0  0
    0.7040   68.2780   66.0600 C   0  0  0  0  0  0  0  0  0  0  0  0
    0.3650   69.0210   65.1440 O   0  0  0  0  0  0  0  0  0  0  0  0
    0.8800   66.9300   65.8890 O   0  0  0  0  0  0  0  0  0  0  0  0
    1.4830   66.5590   64.6400 C   0  0  0  0  0  0  0  0  0  0  0  0
    2.9790   66.3340   64.9000 C   0  0  0  0  0  0  0  0  0  0  0  0
    3.9380   66.6640   63.7200 N   0  0  0  0  0  4  0  0  0  0  0  0
    3.2260   67.4760   62.6100 C   0  0  0  0  0  0  0  0  0  0  0  0
    3.5240   68.9650   62.7180 C   0  0  0  0  0  0  0  0  0  0  0  0
    5.0110   69.2570   62.5520 C   0  0  0  0  0  0  0  0  0  0  0  0
    5.8990   68.1730   63.1570 C   0  0  0  0  0  0  0  0  0  0  0  0
    5.1890   67.4100   64.2650 C   0  0  0  0  0  0  0  0  0  0  0  0
    4.4510   64.1540   64.1120 C   0  0  0  0  0  0  0  0  0  0  0  0
    4.4440   65.3090   63.1200 C   0  0  0  0  0  0  0  0  0  0  0  0
    0.0770   69.8080   67.7870 O   0  0  0  0  0  0  0  0  0  0  0  0
    3.2007   68.7143   65.7482 H   0  0  0  0  0  0  0  0  0  0  0  0
    5.4288   69.7759   66.0746 H   0  0  0  0  0  0  0  0  0  0  0  0
    5.9253   71.0372   68.1634 H   0  0  0  0  0  0  0  0  0  0  0  0
    4.1848   71.2481   69.9342 H   0  0  0  0  0  0  0  0  0  0  0  0
    1.9529   70.1997   69.6161 H   0  0  0  0  0  0  0  0  0  0  0  0
    2.7473   67.5849   69.3554 H   0  0  0  0  0  0  0  0  0  0  0  0
    2.2979   65.6943   70.9092 H   0  0  0  0  0  0  0  0  0  0  0  0
    0.0532   64.6119   70.9494 H   0  0  0  0  0  0  0  0  0  0  0  0
   -1.7488   65.4295   69.4362 H   0  0  0  0  0  0  0  0  0  0  0  0
   -1.3132   67.3200   67.8809 H   0  0  0  0  0  0  0  0  0  0  0  0
    1.0241   65.6338   64.2613 H   0  0  0  0  0  0  0  0  0  0  0  0
    1.3344   67.3479   63.8880 H   0  0  0  0  0  0  0  0  0  0  0  0
    3.2695   66.9627   65.7546 H   0  0  0  0  0  0  0  0  0  0  0  0
    3.0884   65.2536   65.0752 H   0  0  0  0  0  0  0  0  0  0  0  0
    3.5688   67.1147   61.6292 H   0  0  0  0  0  0  0  0  0  0  0  0
    2.1413   67.3355   62.7266 H   0  0  0  0  0  0  0  0  0  0  0  0
    2.9666   69.4977   61.9335 H   0  0  0  0  0  0  0  0  0  0  0  0
    3.2181   69.3037   63.7189 H   0  0  0  0  0  0  0  0  0  0  0  0
    5.2356   69.3362   61.4781 H   0  0  0  0  0  0  0  0  0  0  0  0
    5.2252   70.1953   63.0846 H   0  0  0  0  0  0  0  0  0  0  0  0
    6.1855   67.4652   62.3652 H   0  0  0  0  0  0  0  0  0  0  0  0
    6.7835   68.6610   63.5923 H   0  0  0  0  0  0  0  0  0  0  0  0
    4.8729   68.1195   65.0439 H   0  0  0  0  0  0  0  0  0  0  0  0
    5.8861   66.6663   64.6784 H   0  0  0  0  0  0  0  0  0  0  0  0
    4.4486   64.5515   65.1376 H   0  0  0  0  0  0  0  0  0  0  0  0
    3.5566   63.5326   63.9575 H   0  0  0  0  0  0  0  0  0  0  0  0
    5.3529   63.5434   63.9575 H   0  0  0  0  0  0  0  0  0  0  0  0
    5.4706   65.4556   62.7532 H   0  0  0  0  0  0  0  0  0  0  0  0
    3.7417   65.0349   62.3189 H   0  0  0  0  0  0  0  0  0  0  0  0
   -0.0212   69.9191   68.7658 H   0  0  0  0  0  0  0  0  0  0  0  0
  2  1  1  0
  3  2  2  0
  4  3  1  0
  5  4  2  0
  6  5  1  0
  7  6  2  0
  7  2  1  0
  8  1  1  0
  9  8  2  0
 10  9  1  0
 11 10  2  0
 12 11  1  0
 13 12  2  0
 13  8  1  0
 14  1  1  0
 15 14  2  0
 16 14  1  0
 17 16  1  0
 18 17  1  0
 19 18  1  0
 20 19  1  0
 21 20  1  0
 22 21  1  0
 23 22  1  0
 24 19  1  0
 24 23  1  0
 26 25  1  0
 26 19  1  0
 27  1  1  0
  3 28  1  0
  4 29  1  0
  5 30  1  0
  6 31  1  0
  7 32  1  0
  9 33  1  0
 10 34  1  0
 11 35  1  0
 12 36  1  0
 13 37  1  0
 17 38  1  0
 17 39  1  0
 18 40  1  0
 18 41  1  0
 20 42  1  0
 20 43  1  0
 21 44  1  0
 21 45  1  0
 22 46  1  0
 22 47  1  0
 23 48  1  0
 23 49  1  0
 24 50  1  0
 24 51  1  0
 25 52  1  0
 25 53  1  0
 25 54  1  0
 26 55  1  0
 26 56  1  0
 27 57  1  0
M  CHG  1  19   1
M  END
>  <score>  (1) 
-9.109

$$$$
=
     RDKit          3D

 57 59  0  0  0  0  0  0  0  0999 V2000
    0.6750   63.8130   70.7700 C   0  0  0  0  0  0  0  0  0  0  0  0
    0.2060   63.3170   72.1470 C   0  0  0  0  0  0  0  0  0  0  0  0
    0.5800   63.9310   73.3550 C   0  0  0  0  0  0  0  0  0  0  0  0
    0.1290   63.4330   74.5820 C   0  0  0  0  0  0  0  0  0  0  0  0
   -0.6970   62.3130   74.6240 C   0  0  0  0  0  0  0  0  0  0  0  0
   -1.0770   61.6870   73.4430 C   0  0  0  0  0  0  0  0  0  0  0  0
   -0.6310   62.1830   72.2170 C   0  0  0  0  0  0  0  0  0  0  0  0
    2.0820   63.3310   70.3760 C   0  0  0  0  0  0  0  0  0  0  0  0
    3.2430   63.9460   70.8860 C   0  0  0  0  0  0  0  0  0  0  0  0
    4.5140   63.5260   70.4860 C   0  0  0  0  0  0  0  0  0  0  0  0
    4.6500   62.4920   69.5620 C   0  0  0  0  0  0  0  0  0  0  0  0
    3.5170   61.8770   69.0380 C   0  0  0  0  0  0  0  0  0  0  0  0
    2.2450   62.2940   69.4390 C   0  0  0  0  0  0  0  0  0  0  0  0
    0.5680   65.3610   70.6120 C   0  0  0  0  0  0  0  0  0  0  0  0
    0.0340   66.1130   71.4240 O   0  0  0  0  0  0  0  0  0  0  0  0
    1.1690   65.8180   69.4690 O   0  0  0  0  0  0  0  0  0  0  0  0
    0.9320   67.2040   69.1810 C   0  0  0  0  0  0  0  0  0  0  0  0
    0.1230   67.2730   67.8790 C   0  0  0  0  0  0  0  0  0  0  0  0
    0.4880   68.4300   66.9040 N   0  0  0  0  0  4  0  0  0  0  0  0
    1.6710   69.2760   67.4330 C   0  0  0  0  0  0  0  0  0  0  0  0
    2.9890   68.8760   66.7840 C   0  0  0  0  0  0  0  0  0  0  0  0
    2.9660   69.0970   65.2760 C   0  0  0  0  0  0  0  0  0  0  0  0
    1.6000   68.8160   64.6560 C   0  0  0  0  0  0  0  0  0  0  0  0
    0.7850   67.8430   65.4950 C   0  0  0  0  0  0  0  0  0  0  0  0
   -1.9160   68.7110   65.9760 C   0  0  0  0  0  0  0  0  0  0  0  0
   -0.7730   69.3470   66.7550 C   0  0  0  0  0  0  0  0  0  0  0  0
   -0.2660   63.2640   69.8220 O   0  0  0  0  0  0  0  0  0  0  0  0
    1.2355   64.8141   73.3352 H   0  0  0  0  0  0  0  0  0  0  0  0
    0.4282   63.9283   75.5175 H   0  0  0  0  0  0  0  0  0  0  0  0
   -1.0484   61.9240   75.5911 H   0  0  0  0  0  0  0  0  0  0  0  0
   -1.7287   60.8014   73.4744 H   0  0  0  0  0  0  0  0  0  0  0  0
   -0.9377   61.6805   71.2878 H   0  0  0  0  0  0  0  0  0  0  0  0
    3.1470   64.7688   71.6097 H   0  0  0  0  0  0  0  0  0  0  0  0
    5.4089   64.0125   70.9013 H   0  0  0  0  0  0  0  0  0  0  0  0
    5.6512   62.1624   69.2473 H   0  0  0  0  0  0  0  0  0  0  0  0
    3.6228   61.0616   68.3073 H   0  0  0  0  0  0  0  0  0  0  0  0
    1.3564   61.8034   69.0151 H   0  0  0  0  0  0  0  0  0  0  0  0
    0.3633   67.6661   70.0014 H   0  0  0  0  0  0  0  0  0  0  0  0
    1.8834   67.7458   69.0750 H   0  0  0  0  0  0  0  0  0  0  0  0
    0.2685   66.3237   67.3427 H   0  0  0  0  0  0  0  0  0  0  0  0
   -0.9154   67.4642   68.1873 H   0  0  0  0  0  0  0  0  0  0  0  0
    1.4750   70.3365   67.2161 H   0  0  0  0  0  0  0  0  0  0  0  0
    1.7573   69.1025   68.5158 H   0  0  0  0  0  0  0  0  0  0  0  0
    3.7986   69.4796   67.2202 H   0  0  0  0  0  0  0  0  0  0  0  0
    3.1512   67.8041   66.9706 H   0  0  0  0  0  0  0  0  0  0  0  0
    3.2364   70.1432   65.0703 H   0  0  0  0  0  0  0  0  0  0  0  0
    3.6832   68.3935   64.8280 H   0  0  0  0  0  0  0  0  0  0  0  0
    1.0464   69.7628   64.5714 H   0  0  0  0  0  0  0  0  0  0  0  0
    1.7615   68.3612   63.6675 H   0  0  0  0  0  0  0  0  0  0  0  0
    1.3499   66.9059   65.6081 H   0  0  0  0  0  0  0  0  0  0  0  0
   -0.1720   67.6589   64.9848 H   0  0  0  0  0  0  0  0  0  0  0  0
   -2.6550   68.2998   66.6794 H   0  0  0  0  0  0  0  0  0  0  0  0
   -2.3961   69.4717   65.3429 H   0  0  0  0  0  0  0  0  0  0  0  0
   -1.5227   67.9020   65.3429 H   0  0  0  0  0  0  0  0  0  0  0  0
   -0.4708   70.2679   66.2348 H   0  0  0  0  0  0  0  0  0  0  0  0
   -1.1489   69.5367   67.7712 H   0  0  0  0  0  0  0  0  0  0  0  0
   -1.0102   62.8298   70.3095 H   0  0  0  0  0  0  0  0  0  0  0  0
  2  1  1  0
  3  2  2  0
  4  3  1  0
  5  4  2  0
  6  5  1  0
  7  6  2  0
  7  2  1  0
  8  1  1  0
  9  8  2  0
 10  9  1  0
 11 10  2  0
 12 11  1  0
 13 12  2  0
 13  8  1  0
 14  1  1  0
 15 14  2  0
 16 14  1  0
 17 16  1  0
 18 17  1  0
 19 18  1  0
 20 19  1  0
 21 20  1  0
 22 21  1  0
 23 22  1  0
 24 19  1  0
 24 23  1  0
 26 25  1  0
 26 19  1  0
 27  1  1  0
  3 28  1  0
  4 29  1  0
  5 30  1  0
  6 31  1  0
  7 32  1  0
  9 33  1  0
 10 34  1  0
 11 35  1  0
 12 36  1  0
 13 37  1  0
 17 38  1  0
 17 39  1  0
 18 40  1  0
 18 41  1  0
 20 42  1  0
 20 43  1  0
 21 44  1  0
 21 45  1  0
 22 46  1  0
 22 47  1  0
 23 48  1  0
 23 49  1  0
 24 50  1  0
 24 51  1  0
 25 52  1  0
 25 53  1  0
 25 54  1  0
 26 55  1  0
 26 56  1  0
 27 57  1  0
M  CHG  1  19   1
M  END
>  <score>  (2) 
-8.384

$$$$
=
     RDKit          3D

 57 59  0  0  0  0  0  0  0  0999 V2000
    1.4560   68.6150   66.9080 C   0  0  0  0  0  0  0  0  0  0  0  0
    1.2230   68.7070   65.3920 C   0  0  0  0  0  0  0  0  0  0  0  0
    2.2580   68.6030   64.4460 C   0  0  0  0  0  0  0  0  0  0  0  0
    1.9910   68.7000   63.0770 C   0  0  0  0  0  0  0  0  0  0  0  0
    0.6890   68.9060   62.6290 C   0  0  0  0  0  0  0  0  0  0  0  0
   -0.3510   69.0140   63.5450 C   0  0  0  0  0  0  0  0  0  0  0  0
   -0.0870   68.9150   64.9120 C   0  0  0  0  0  0  0  0  0  0  0  0
    2.7100   69.3630   67.3960 C   0  0  0  0  0  0  0  0  0  0  0  0
    3.8750   69.4420   66.6070 C   0  0  0  0  0  0  0  0  0  0  0  0
    5.0210   70.0870   67.0800 C   0  0  0  0  0  0  0  0  0  0  0  0
    5.0280   70.6550   68.3510 C   0  0  0  0  0  0  0  0  0  0  0  0
    3.8910   70.5800   69.1510 C   0  0  0  0  0  0  0  0  0  0  0  0
    2.7450   69.9380   68.6790 C   0  0  0  0  0  0  0  0  0  0  0  0
    1.4600   67.1480   67.4370 C   0  0  0  0  0  0  0  0  0  0  0  0
    2.1550   66.2420   66.9840 O   0  0  0  0  0  0  0  0  0  0  0  0
    0.6170   66.9680   68.5020 O   0  0  0  0  0  0  0  0  0  0  0  0
    1.2480   66.4490   69.6830 C   0  0  0  0  0  0  0  0  0  0  0  0
    0.6160   65.0810   69.9790 C   0  0  0  0  0  0  0  0  0  0  0  0
    1.5570   64.0130   70.6080 N   0  0  0  0  0  4  0  0  0  0  0  0
    1.4600   62.6550   69.8700 C   0  0  0  0  0  0  0  0  0  0  0  0
    2.6000   62.4660   68.8790 C   0  0  0  0  0  0  0  0  0  0  0  0
    3.9570   62.4620   69.5730 C   0  0  0  0  0  0  0  0  0  0  0  0
    4.0200   63.4210   70.7580 C   0  0  0  0  0  0  0  0  0  0  0  0
    3.0140   64.5550   70.6250 C   0  0  0  0  0  0  0  0  0  0  0  0
   -0.0200   62.8380   72.2960 C   0  0  0  0  0  0  0  0  0  0  0  0
    1.1290   63.8180   72.1010 C   0  0  0  0  0  0  0  0  0  0  0  0
    0.3020   69.2380   67.5140 O   0  0  0  0  0  0  0  0  0  0  0  0
    3.2914   68.4432   64.7875 H   0  0  0  0  0  0  0  0  0  0  0  0
    2.8129   68.6132   62.3511 H   0  0  0  0  0  0  0  0  0  0  0  0
    0.4835   68.9832   61.5511 H   0  0  0  0  0  0  0  0  0  0  0  0
   -1.3803   69.1772   63.1931 H   0  0  0  0  0  0  0  0  0  0  0  0
   -0.9167   69.0009   65.6290 H   0  0  0  0  0  0  0  0  0  0  0  0
    3.8824   68.9895   65.6044 H   0  0  0  0  0  0  0  0  0  0  0  0
    5.9188   70.1460   66.4471 H   0  0  0  0  0  0  0  0  0  0  0  0
    5.9305   71.1623   68.7226 H   0  0  0  0  0  0  0  0  0  0  0  0
    3.8958   71.0271   70.1560 H   0  0  0  0  0  0  0  0  0  0  0  0
    1.8540   69.8808   69.3215 H   0  0  0  0  0  0  0  0  0  0  0  0
    2.3287   66.3347   69.5124 H   0  0  0  0  0  0  0  0  0  0  0  0
    1.1058   67.1340   70.5319 H   0  0  0  0  0  0  0  0  0  0  0  0
   -0.2219   65.2412   70.6734 H   0  0  0  0  0  0  0  0  0  0  0  0
    0.3205   64.6745   69.0005 H   0  0  0  0  0  0  0  0  0  0  0  0
    1.4952   61.8436   70.6118 H   0  0  0  0  0  0  0  0  0  0  0  0
    0.5138   62.6381   69.3092 H   0  0  0  0  0  0  0  0  0  0  0  0
    2.4636   61.5070   68.3577 H   0  0  0  0  0  0  0  0  0  0  0  0
    2.5804   63.3069   68.1702 H   0  0  0  0  0  0  0  0  0  0  0  0
    4.1637   61.4437   69.9340 H   0  0  0  0  0  0  0  0  0  0  0  0
    4.7048   62.7952   68.8383 H   0  0  0  0  0  0  0  0  0  0  0  0
    3.8049   62.8613   71.6802 H   0  0  0  0  0  0  0  0  0  0  0  0
    5.0277   63.8612   70.7869 H   0  0  0  0  0  0  0  0  0  0  0  0
    3.2063   65.0974   69.6876 H   0  0  0  0  0  0  0  0  0  0  0  0
    3.1270   65.2249   71.4901 H   0  0  0  0  0  0  0  0  0  0  0  0
   -0.1956   62.6882   73.3715 H   0  0  0  0  0  0  0  0  0  0  0  0
   -0.9300   63.2423   71.8287 H   0  0  0  0  0  0  0  0  0  0  0  0
    0.2356   61.8756   71.8287 H   0  0  0  0  0  0  0  0  0  0  0  0
    0.8216   64.7949   72.5025 H   0  0  0  0  0  0  0  0  0  0  0  0
    1.9980   63.3964   72.6274 H   0  0  0  0  0  0  0  0  0  0  0  0
    0.3829   69.1943   68.4997 H   0  0  0  0  0  0  0  0  0  0  0  0
  2  1  1  0
  3  2  2  0
  4  3  1  0
  5  4  2  0
  6  5  1  0
  7  6  2  0
  7  2  1  0
  8  1  1  0
  9  8  2  0
 10  9  1  0
 11 10  2  0
 12 11  1  0
 13 12  2  0
 13  8  1  0
 14  1  1  0
 15 14  2  0
 16 14  1  0
 17 16  1  0
 18 17  1  0
 19 18  1  0
 20 19  1  0
 21 20  1  0
 22 21  1  0
 23 22  1  0
 24 19  1  0
 24 23  1  0
 26 25  1  0
 26 19  1  0
 27  1  1  0
  3 28  1  0
  4 29  1  0
  5 30  1  0
  6 31  1  0
  7 32  1  0
  9 33  1  0
 10 34  1  0
 11 35  1  0
 12 36  1  0
 13 37  1  0
 17 38  1  0
 17 39  1  0
 18 40  1  0
 18 41  1  0
 20 42  1  0
 20 43  1  0
 21 44  1  0
 21 45  1  0
 22 46  1  0
 22 47  1  0
 23 48  1  0
 23 49  1  0
 24 50  1  0
 24 51  1  0
 25 52  1  0
 25 53  1  0
 25 54  1  0
 26 55  1  0
 26 56  1  0
 27 57  1  0
M  CHG  1  19   1
M  END
>  <score>  (3) 
-8.325

$$$$
=
     RDKit          3D

 57 59  0  0  0  0  0  0  0  0999 V2000
    0.9020   68.4470   67.6390 C   0  0  0  0  0  0  0  0  0  0  0  0
   -0.5590   68.2530   67.2030 C   0  0  0  0  0  0  0  0  0  0  0  0
   -1.3900   67.2450   67.7230 C   0  0  0  0  0  0  0  0  0  0  0  0
   -2.7110   67.1100   67.2860 C   0  0  0  0  0  0  0  0  0  0  0  0
   -3.2240   67.9730   66.3210 C   0  0  0  0  0  0  0  0  0  0  0  0
   -2.4200   68.9770   65.7910 C   0  0  0  0  0  0  0  0  0  0  0  0
   -1.1020   69.1150   66.2270 C   0  0  0  0  0  0  0  0  0  0  0  0
    1.9280   68.2080   66.5160 C   0  0  0  0  0  0  0  0  0  0  0  0
    1.8840   67.0530   65.7100 C   0  0  0  0  0  0  0  0  0  0  0  0
    2.8470   66.8290   64.7230 C   0  0  0  0  0  0  0  0  0  0  0  0
    3.8760   67.7460   64.5290 C   0  0  0  0  0  0  0  0  0  0  0  0
    3.9450   68.8890   65.3200 C   0  0  0  0  0  0  0  0  0  0  0  0
    2.9820   69.1160   66.3060 C   0  0  0  0  0  0  0  0  0  0  0  0
    1.2780   67.6140   68.9020 C   0  0  0  0  0  0  0  0  0  0  0  0
    2.0740   67.9720   69.7660 O   0  0  0  0  0  0  0  0  0  0  0  0
    0.5950   66.4280   68.9750 O   0  0  0  0  0  0  0  0  0  0  0  0
    0.4990   65.8730   70.2960 C   0  0  0  0  0  0  0  0  0  0  0  0
    0.4190   64.3470   70.1490 C   0  0  0  0  0  0  0  0  0  0  0  0
    1.5970   63.5360   70.7630 N   0  0  0  0  0  4  0  0  0  0  0  0
    1.7010   62.1190   70.1480 C   0  0  0  0  0  0  0  0  0  0  0  0
    2.7680   62.0480   69.0650 C   0  0  0  0  0  0  0  0  0  0  0  0
    4.1550   62.3610   69.6160 C   0  0  0  0  0  0  0  0  0  0  0  0
    4.1320   63.4250   70.7090 C   0  0  0  0  0  0  0  0  0  0  0  0
    2.9190   64.3360   70.5890 C   0  0  0  0  0  0  0  0  0  0  0  0
    0.0750   62.6480   72.6630 C   0  0  0  0  0  0  0  0  0  0  0  0
    1.3430   63.4110   72.3020 C   0  0  0  0  0  0  0  0  0  0  0  0
    1.0030   69.8290   68.0470 O   0  0  0  0  0  0  0  0  0  0  0  0
   -0.9959   66.5542   68.4829 H   0  0  0  0  0  0  0  0  0  0  0  0
   -3.3484   66.3182   67.7065 H   0  0  0  0  0  0  0  0  0  0  0  0
   -4.2633   67.8610   65.9784 H   0  0  0  0  0  0  0  0  0  0  0  0
   -2.8228   69.6609   65.0294 H   0  0  0  0  0  0  0  0  0  0  0  0
   -0.4739   69.9115   65.8015 H   0  0  0  0  0  0  0  0  0  0  0  0
    1.0801   66.3174   65.8601 H   0  0  0  0  0  0  0  0  0  0  0  0
    2.7919   65.9257   64.0976 H   0  0  0  0  0  0  0  0  0  0  0  0
    4.6335   67.5675   63.7516 H   0  0  0  0  0  0  0  0  0  0  0  0
    4.7583   69.6140   65.1686 H   0  0  0  0  0  0  0  0  0  0  0  0
    3.0488   70.0201   66.9289 H   0  0  0  0  0  0  0  0  0  0  0  0
    1.3867   66.1479   70.8846 H   0  0  0  0  0  0  0  0  0  0  0  0
   -0.3899   66.2599   70.8158 H   0  0  0  0  0  0  0  0  0  0  0  0
   -0.5091   64.0110   70.6346 H   0  0  0  0  0  0  0  0  0  0  0  0
    0.4593   64.1524   69.0671 H   0  0  0  0  0  0  0  0  0  0  0  0
    1.9540   61.4033   70.9441 H   0  0  0  0  0  0  0  0  0  0  0  0
    0.7319   61.8744   69.6887 H   0  0  0  0  0  0  0  0  0  0  0  0
    2.7749   61.0344   68.6377 H   0  0  0  0  0  0  0  0  0  0  0  0
    2.5272   62.7985   68.2977 H   0  0  0  0  0  0  0  0  0  0  0  0
    4.5836   61.4379   70.0334 H   0  0  0  0  0  0  0  0  0  0  0  0
    4.7600   62.7534   68.7853 H   0  0  0  0  0  0  0  0  0  0  0  0
    4.1071   62.9270   71.6895 H   0  0  0  0  0  0  0  0  0  0  0  0
    5.0350   64.0439   70.6012 H   0  0  0  0  0  0  0  0  0  0  0  0
    2.9234   64.8108   69.5968 H   0  0  0  0  0  0  0  0  0  0  0  0
    2.9738   65.0961   71.3823 H   0  0  0  0  0  0  0  0  0  0  0  0
   -0.0196   62.5911   73.7574 H   0  0  0  0  0  0  0  0  0  0  0  0
   -0.7986   63.1705   72.2461 H   0  0  0  0  0  0  0  0  0  0  0  0
    0.1276   61.6314   72.2461 H   0  0  0  0  0  0  0  0  0  0  0  0
    1.2681   64.4244   72.7232 H   0  0  0  0  0  0  0  0  0  0  0  0
    2.1862   62.8396   72.7173 H   0  0  0  0  0  0  0  0  0  0  0  0
    1.0069   69.8818   69.0356 H   0  0  0  0  0  0  0  0  0  0  0  0
  2  1  1  0
  3  2  2  0
  4  3  1  0
  5  4  2  0
  6  5  1  0
  7  6  2  0
  7  2  1  0
  8  1  1  0
  9  8  2  0
 10  9  1  0
 11 10  2  0
 12 11  1  0
 13 12  2  0
 13  8  1  0
 14  1  1  0
 15 14  2  0
 16 14  1  0
 17 16  1  0
 18 17  1  0
 19 18  1  0
 20 19  1  0
 21 20  1  0
 22 21  1  0
 23 22  1  0
 24 19  1  0
 24 23  1  0
 26 25  1  0
 26 19  1  0
 27  1  1  0
  3 28  1  0
  4 29  1  0
  5 30  1  0
  6 31  1  0
  7 32  1  0
  9 33  1  0
 10 34  1  0
 11 35  1  0
 12 36  1  0
 13 37  1  0
 17 38  1  0
 17 39  1  0
 18 40  1  0
 18 41  1  0
 20 42  1  0
 20 43  1  0
 21 44  1  0
 21 45  1  0
 22 46  1  0
 22 47  1  0
 23 48  1  0
 23 49  1  0
 24 50  1  0
 24 51  1  0
 25 52  1  0
 25 53  1  0
 25 54  1  0
 26 55  1  0
 26 56  1  0
 27 57  1  0
M  CHG  1  19   1
M  END
>  <score>  (4) 
-8.193

$$$$
=
     RDKit          3D

 57 59  0  0  0  0  0  0  0  0999 V2000
    1.0290   68.4350   67.6280 C   0  0  0  0  0  0  0  0  0  0  0  0
   -0.4420   68.2220   67.2360 C   0  0  0  0  0  0  0  0  0  0  0  0
   -1.2510   67.2200   67.7990 C   0  0  0  0  0  0  0  0  0  0  0  0
   -2.5830   67.0660   67.4000 C   0  0  0  0  0  0  0  0  0  0  0  0
   -3.1280   67.9060   66.4320 C   0  0  0  0  0  0  0  0  0  0  0  0
   -2.3460   68.9030   65.8590 C   0  0  0  0  0  0  0  0  0  0  0  0
   -1.0170   69.0590   66.2570 C   0  0  0  0  0  0  0  0  0  0  0  0
    2.0260   68.1730   66.4840 C   0  0  0  0  0  0  0  0  0  0  0  0
    1.9800   66.9890   65.7220 C   0  0  0  0  0  0  0  0  0  0  0  0
    2.9180   66.7450   64.7150 C   0  0  0  0  0  0  0  0  0  0  0  0
    3.9250   67.6720   64.4600 C   0  0  0  0  0  0  0  0  0  0  0  0
    3.9960   68.8440   65.2080 C   0  0  0  0  0  0  0  0  0  0  0  0
    3.0570   69.0910   66.2120 C   0  0  0  0  0  0  0  0  0  0  0  0
    1.4420   67.6360   68.9010 C   0  0  0  0  0  0  0  0  0  0  0  0
    2.0290   68.1140   69.8680 O   0  0  0  0  0  0  0  0  0  0  0  0
    1.0500   66.3240   68.8520 O   0  0  0  0  0  0  0  0  0  0  0  0
    0.8500   65.7110   70.1350 C   0  0  0  0  0  0  0  0  0  0  0  0
    2.0380   64.7720   70.3870 C   0  0  0  0  0  0  0  0  0  0  0  0
    1.6860   63.3350   70.8700 N   0  0  0  0  0  4  0  0  0  0  0  0
    2.5430   62.9120   72.0890 C   0  0  0  0  0  0  0  0  0  0  0  0
    1.7890   63.0850   73.3990 C   0  0  0  0  0  0  0  0  0  0  0  0
    0.5390   62.2130   73.4510 C   0  0  0  0  0  0  0  0  0  0  0  0
   -0.1460   62.0770   72.0950 C   0  0  0  0  0  0  0  0  0  0  0  0
    0.1650   63.2540   71.1810 C   0  0  0  0  0  0  0  0  0  0  0  0
    3.4110   62.3150   69.2260 C   0  0  0  0  0  0  0  0  0  0  0  0
    1.9590   62.3510   69.6840 C   0  0  0  0  0  0  0  0  0  0  0  0
    1.1310   69.8280   67.9980 O   0  0  0  0  0  0  0  0  0  0  0  0
   -0.8316   66.5486   68.5628 H   0  0  0  0  0  0  0  0  0  0  0  0
   -3.2026   66.2780   67.8528 H   0  0  0  0  0  0  0  0  0  0  0  0
   -4.1757   67.7810   66.1211 H   0  0  0  0  0  0  0  0  0  0  0  0
   -2.7737   69.5674   65.0937 H   0  0  0  0  0  0  0  0  0  0  0  0
   -0.4061   69.8503   65.7980 H   0  0  0  0  0  0  0  0  0  0  0  0
    1.1943   66.2457   65.9225 H   0  0  0  0  0  0  0  0  0  0  0  0
    2.8606   65.8195   64.1233 H   0  0  0  0  0  0  0  0  0  0  0  0
    4.6638   67.4786   63.6683 H   0  0  0  0  0  0  0  0  0  0  0  0
    4.7923   69.5761   65.0081 H   0  0  0  0  0  0  0  0  0  0  0  0
    3.1246   70.0184   66.7997 H   0  0  0  0  0  0  0  0  0  0  0  0
    0.8085   66.4827   70.9177 H   0  0  0  0  0  0  0  0  0  0  0  0
   -0.0971   65.1519   70.1542 H   0  0  0  0  0  0  0  0  0  0  0  0
    2.6002   64.6817   69.4459 H   0  0  0  0  0  0  0  0  0  0  0  0
    2.6058   65.2292   71.2108 H   0  0  0  0  0  0  0  0  0  0  0  0
    2.8234   61.8543   71.9769 H   0  0  0  0  0  0  0  0  0  0  0  0
    3.4337   63.5568   72.1202 H   0  0  0  0  0  0  0  0  0  0  0  0
    2.4523   62.8069   74.2313 H   0  0  0  0  0  0  0  0  0  0  0  0
    1.4764   64.1367   73.4779 H   0  0  0  0  0  0  0  0  0  0  0  0
    0.8247   61.2105   73.8022 H   0  0  0  0  0  0  0  0  0  0  0  0
   -0.1739   62.6980   74.1341 H   0  0  0  0  0  0  0  0  0  0  0  0
    0.2006   61.1511   71.6128 H   0  0  0  0  0  0  0  0  0  0  0  0
   -1.2328   62.0539   72.2630 H   0  0  0  0  0  0  0  0  0  0  0  0
   -0.1508   64.1851   71.6743 H   0  0  0  0  0  0  0  0  0  0  0  0
   -0.3780   63.1142   70.2346 H   0  0  0  0  0  0  0  0  0  0  0  0
    4.0724   62.2986   70.1048 H   0  0  0  0  0  0  0  0  0  0  0  0
    3.5824   61.4123   68.6212 H   0  0  0  0  0  0  0  0  0  0  0  0
    3.6270   63.2081   68.6212 H   0  0  0  0  0  0  0  0  0  0  0  0
    1.3355   62.6570   68.8310 H   0  0  0  0  0  0  0  0  0  0  0  0
    1.7166   61.3416   70.0478 H   0  0  0  0  0  0  0  0  0  0  0  0
    1.1368   69.9078   68.9848 H   0  0  0  0  0  0  0  0  0  0  0  0
  2  1  1  0
  3  2  2  0
  4  3  1  0
  5  4  2  0
  6  5  1  0
  7  6  2  0
  7  2  1  0
  8  1  1  0
  9  8  2  0
 10  9  1  0
 11 10  2  0
 12 11  1  0
 13 12  2  0
 13  8  1  0
 14  1  1  0
 15 14  2  0
 16 14  1  0
 17 16  1  0
 18 17  1  0
 19 18  1  0
 20 19  1  0
 21 20  1  0
 22 21  1  0
 23 22  1  0
 24 19  1  0
 24 23  1  0
 26 25  1  0
 26 19  1  0
 27  1  1  0
  3 28  1  0
  4 29  1  0
  5 30  1  0
  6 31  1  0
  7 32  1  0
  9 33  1  0
 10 34  1  0
 11 35  1  0
 12 36  1  0
 13 37  1  0
 17 38  1  0
 17 39  1  0
 18 40  1  0
 18 41  1  0
 20 42  1  0
 20 43  1  0
 21 44  1  0
 21 45  1  0
 22 46  1  0
 22 47  1  0
 23 48  1  0
 23 49  1  0
 24 50  1  0
 24 51  1  0
 25 52  1  0
 25 53  1  0
 25 54  1  0
 26 55  1  0
 26 56  1  0
 27 57  1  0
M  CHG  1  19   1
M  END
>  <score>  (5) 
-8.054

$$$$
=
     RDKit          3D

 57 59  0  0  0  0  0  0  0  0999 V2000
    1.5310   62.7790   71.7560 C   0  0  0  0  0  0  0  0  0  0  0  0
    2.8370   62.1190   71.2880 C   0  0  0  0  0  0  0  0  0  0  0  0
    3.9870   62.0310   72.0930 C   0  0  0  0  0  0  0  0  0  0  0  0
    5.1530   61.4250   71.6140 C   0  0  0  0  0  0  0  0  0  0  0  0
    5.1930   60.9000   70.3250 C   0  0  0  0  0  0  0  0  0  0  0  0
    4.0690   60.9760   69.5100 C   0  0  0  0  0  0  0  0  0  0  0  0
    2.9040   61.5790   69.9860 C   0  0  0  0  0  0  0  0  0  0  0  0
    0.5250   61.7990   72.3860 C   0  0  0  0  0  0  0  0  0  0  0  0
   -0.7950   62.1890   72.6880 C   0  0  0  0  0  0  0  0  0  0  0  0
   -1.6850   61.3020   73.3000 C   0  0  0  0  0  0  0  0  0  0  0  0
   -1.2710   60.0150   73.6320 C   0  0  0  0  0  0  0  0  0  0  0  0
    0.0320   59.6120   73.3520 C   0  0  0  0  0  0  0  0  0  0  0  0
    0.9220   60.4960   72.7390 C   0  0  0  0  0  0  0  0  0  0  0  0
    0.8400   63.6210   70.6400 C   0  0  0  0  0  0  0  0  0  0  0  0
   -0.0650   63.2160   69.9150 O   0  0  0  0  0  0  0  0  0  0  0  0
    1.3290   64.8990   70.5640 O   0  0  0  0  0  0  0  0  0  0  0  0
    0.4340   65.8470   69.9630 C   0  0  0  0  0  0  0  0  0  0  0  0
    1.2720   67.0540   69.5200 C   0  0  0  0  0  0  0  0  0  0  0  0
    0.9690   67.6160   68.1010 N   0  0  0  0  0  4  0  0  0  0  0  0
    1.2050   69.1440   68.0250 C   0  0  0  0  0  0  0  0  0  0  0  0
    2.5570   69.4790   67.4110 C   0  0  0  0  0  0  0  0  0  0  0  0
    2.6670   68.9730   65.9770 C   0  0  0  0  0  0  0  0  0  0  0  0
    1.9470   67.6460   65.7590 C   0  0  0  0  0  0  0  0  0  0  0  0
    1.8210   66.8500   67.0500 C   0  0  0  0  0  0  0  0  0  0  0  0
   -1.2710   68.4660   67.1120 C   0  0  0  0  0  0  0  0  0  0  0  0
   -0.5320   67.3120   67.7750 C   0  0  0  0  0  0  0  0  0  0  0  0
    1.9210   63.7300   72.7700 O   0  0  0  0  0  0  0  0  0  0  0  0
    3.9691   62.4441   73.1123 H   0  0  0  0  0  0  0  0  0  0  0  0
    6.0423   61.3629   72.2584 H   0  0  0  0  0  0  0  0  0  0  0  0
    6.1127   60.4257   69.9519 H   0  0  0  0  0  0  0  0  0  0  0  0
    4.0981   60.5614   68.4915 H   0  0  0  0  0  0  0  0  0  0  0  0
    2.0203   61.6345   69.3333 H   0  0  0  0  0  0  0  0  0  0  0  0
   -1.1299   63.2066   72.4384 H   0  0  0  0  0  0  0  0  0  0  0  0
   -2.7144   61.6214   73.5197 H   0  0  0  0  0  0  0  0  0  0  0  0
   -1.9718   59.3179   74.1145 H   0  0  0  0  0  0  0  0  0  0  0  0
    0.3607   58.5955   73.6142 H   0  0  0  0  0  0  0  0  0  0  0  0
    1.9508   60.1684   72.5285 H   0  0  0  0  0  0  0  0  0  0  0  0
   -0.0631   65.3947   69.0922 H   0  0  0  0  0  0  0  0  0  0  0  0
   -0.3422   66.1554   70.6788 H   0  0  0  0  0  0  0  0  0  0  0  0
    1.1035   67.8640   70.2450 H   0  0  0  0  0  0  0  0  0  0  0  0
    2.3102   66.6928   69.4785 H   0  0  0  0  0  0  0  0  0  0  0  0
    0.4131   69.5961   67.4098 H   0  0  0  0  0  0  0  0  0  0  0  0
    1.1873   69.5434   69.0498 H   0  0  0  0  0  0  0  0  0  0  0  0
    2.6893   70.5710   67.4147 H   0  0  0  0  0  0  0  0  0  0  0  0
    3.3368   68.9850   68.0093 H   0  0  0  0  0  0  0  0  0  0  0  0
    2.2281   69.7250   65.3048 H   0  0  0  0  0  0  0  0  0  0  0  0
    3.7339   68.8083   65.7660 H   0  0  0  0  0  0  0  0  0  0  0  0
    0.9396   67.8483   65.3662 H   0  0  0  0  0  0  0  0  0  0  0  0
    2.5378   67.0504   65.0475 H   0  0  0  0  0  0  0  0  0  0  0  0
    2.8254   66.6732   67.4621 H   0  0  0  0  0  0  0  0  0  0  0  0
    1.3214   65.8964   66.8243 H   0  0  0  0  0  0  0  0  0  0  0  0
   -1.6926   69.1243   67.8859 H   0  0  0  0  0  0  0  0  0  0  0  0
   -0.5709   69.0381   66.4855 H   0  0  0  0  0  0  0  0  0  0  0  0
   -2.0836   68.0694   66.4855 H   0  0  0  0  0  0  0  0  0  0  0  0
   -1.0469   67.0673   68.7157 H   0  0  0  0  0  0  0  0  0  0  0  0
   -0.5378   66.4782   67.0576 H   0  0  0  0  0  0  0  0  0  0  0  0
    1.7614   63.3409   73.6662 H   0  0  0  0  0  0  0  0  0  0  0  0
  2  1  1  0
  3  2  2  0
  4  3  1  0
  5  4  2  0
  6  5  1  0
  7  6  2  0
  7  2  1  0
  8  1  1  0
  9  8  2  0
 10  9  1  0
 11 10  2  0
 12 11  1  0
 13 12  2  0
 13  8  1  0
 14  1  1  0
 15 14  2  0
 16 14  1  0
 17 16  1  0
 18 17  1  0
 19 18  1  0
 20 19  1  0
 21 20  1  0
 22 21  1  0
 23 22  1  0
 24 19  1  0
 24 23  1  0
 26 25  1  0
 26 19  1  0
 27  1  1  0
  3 28  1  0
  4 29  1  0
  5 30  1  0
  6 31  1  0
  7 32  1  0
  9 33  1  0
 10 34  1  0
 11 35  1  0
 12 36  1  0
 13 37  1  0
 17 38  1  0
 17 39  1  0
 18 40  1  0
 18 41  1  0
 20 42  1  0
 20 43  1  0
 21 44  1  0
 21 45  1  0
 22 46  1  0
 22 47  1  0
 23 48  1  0
 23 49  1  0
 24 50  1  0
 24 51  1  0
 25 52  1  0
 25 53  1  0
 25 54  1  0
 26 55  1  0
 26 56  1  0
 27 57  1  0
M  CHG  1  19   1
M  END
>  <score>  (6) 
-7.884

$$$$
=
     RDKit          3D

 57 59  0  0  0  0  0  0  0  0999 V2000
    1.8140   68.1980   66.4120 C   0  0  0  0  0  0  0  0  0  0  0  0
    2.5340   67.4130   65.3050 C   0  0  0  0  0  0  0  0  0  0  0  0
    2.7540   66.0250   65.3640 C   0  0  0  0  0  0  0  0  0  0  0  0
    3.4220   65.3610   64.3290 C   0  0  0  0  0  0  0  0  0  0  0  0
    3.8820   66.0690   63.2220 C   0  0  0  0  0  0  0  0  0  0  0  0
    3.6770   67.4420   63.1430 C   0  0  0  0  0  0  0  0  0  0  0  0
    3.0100   68.1070   64.1730 C   0  0  0  0  0  0  0  0  0  0  0  0
    2.7300   69.1520   67.2000 C   0  0  0  0  0  0  0  0  0  0  0  0
    4.0680   69.3730   66.8180 C   0  0  0  0  0  0  0  0  0  0  0  0
    4.9010   70.2080   67.5670 C   0  0  0  0  0  0  0  0  0  0  0  0
    4.4180   70.8290   68.7160 C   0  0  0  0  0  0  0  0  0  0  0  0
    3.1020   70.6170   69.1170 C   0  0  0  0  0  0  0  0  0  0  0  0
    2.2670   69.7840   68.3690 C   0  0  0  0  0  0  0  0  0  0  0  0
    1.0170   67.2820   67.3900 C   0  0  0  0  0  0  0  0  0  0  0  0
   -0.1860   67.0460   67.3050 O   0  0  0  0  0  0  0  0  0  0  0  0
    1.8100   66.7250   68.3580 O   0  0  0  0  0  0  0  0  0  0  0  0
    1.0930   66.1230   69.4460 C   0  0  0  0  0  0  0  0  0  0  0  0
    2.0940   65.2800   70.2470 C   0  0  0  0  0  0  0  0  0  0  0  0
    1.6280   63.8470   70.6380 N   0  0  0  0  0  4  0  0  0  0  0  0
    2.2470   63.3860   71.9790 C   0  0  0  0  0  0  0  0  0  0  0  0
    1.2800   63.5640   73.1410 C   0  0  0  0  0  0  0  0  0  0  0  0
    0.0190   62.7260   72.9600 C   0  0  0  0  0  0  0  0  0  0  0  0
   -0.4220   62.6260   71.5030 C   0  0  0  0  0  0  0  0  0  0  0  0
    0.0740   63.8040   70.6770 C   0  0  0  0  0  0  0  0  0  0  0  0
    3.5680   62.9260   69.1860 C   0  0  0  0  0  0  0  0  0  0  0  0
    2.0790   62.8700   69.5010 C   0  0  0  0  0  0  0  0  0  0  0  0
    0.8190   68.9960   65.7350 O   0  0  0  0  0  0  0  0  0  0  0  0
    2.3967   65.4546   66.2341 H   0  0  0  0  0  0  0  0  0  0  0  0
    3.5844   64.2748   64.3904 H   0  0  0  0  0  0  0  0  0  0  0  0
    4.4069   65.5429   62.4110 H   0  0  0  0  0  0  0  0  0  0  0  0
    4.0401   68.0035   62.2696 H   0  0  0  0  0  0  0  0  0  0  0  0
    2.8525   69.1933   64.1006 H   0  0  0  0  0  0  0  0  0  0  0  0
    4.4626   68.8809   65.9168 H   0  0  0  0  0  0  0  0  0  0  0  0
    5.9405   70.3752   67.2484 H   0  0  0  0  0  0  0  0  0  0  0  0
    5.0749   71.4856   69.3054 H   0  0  0  0  0  0  0  0  0  0  0  0
    2.7190   71.1064   70.0246 H   0  0  0  0  0  0  0  0  0  0  0  0
    1.2307   69.6193   68.6990 H   0  0  0  0  0  0  0  0  0  0  0  0
    0.6606   66.9040   70.0887 H   0  0  0  0  0  0  0  0  0  0  0  0
    0.2719   65.4955   69.0691 H   0  0  0  0  0  0  0  0  0  0  0  0
    3.0088   65.1825   69.6440 H   0  0  0  0  0  0  0  0  0  0  0  0
    2.2335   65.8140   71.1985 H   0  0  0  0  0  0  0  0  0  0  0  0
    2.5158   62.3223   71.8997 H   0  0  0  0  0  0  0  0  0  0  0  0
    3.1344   64.0054   72.1758 H   0  0  0  0  0  0  0  0  0  0  0  0
    1.7807   63.2579   74.0714 H   0  0  0  0  0  0  0  0  0  0  0  0
    0.9847   64.6228   73.1817 H   0  0  0  0  0  0  0  0  0  0  0  0
    0.2141   61.7117   73.3383 H   0  0  0  0  0  0  0  0  0  0  0  0
   -0.7899   63.2214   73.5169 H   0  0  0  0  0  0  0  0  0  0  0  0
   -0.0207   61.6964   71.0731 H   0  0  0  0  0  0  0  0  0  0  0  0
   -1.5217   62.6322   71.4789 H   0  0  0  0  0  0  0  0  0  0  0  0
   -0.3000   64.7377   71.1224 H   0  0  0  0  0  0  0  0  0  0  0  0
   -0.2978   63.6898   69.6481 H   0  0  0  0  0  0  0  0  0  0  0  0
    4.1408   62.9475   70.1248 H   0  0  0  0  0  0  0  0  0  0  0  0
    3.8531   62.0379   68.6028 H   0  0  0  0  0  0  0  0  0  0  0  0
    3.7856   63.8330   68.6028 H   0  0  0  0  0  0  0  0  0  0  0  0
    1.5229   63.1242   68.5866 H   0  0  0  0  0  0  0  0  0  0  0  0
    1.8687   61.8508   69.8573 H   0  0  0  0  0  0  0  0  0  0  0  0
    0.2502   69.4522   66.4047 H   0  0  0  0  0  0  0  0  0  0  0  0
  2  1  1  0
  3  2  2  0
  4  3  1  0
  5  4  2  0
  6  5  1  0
  7  6  2  0
  7  2  1  0
  8  1  1  0
  9  8  2  0
 10  9  1  0
 11 10  2  0
 12 11  1  0
 13 12  2  0
 13  8  1  0
 14  1  1  0
 15 14  2  0
 16 14  1  0
 17 16  1  0
 18 17  1  0
 19 18  1  0
 20 19  1  0
 21 20  1  0
 22 21  1  0
 23 22  1  0
 24 19  1  0
 24 23  1  0
 26 25  1  0
 26 19  1  0
 27  1  1  0
  3 28  1  0
  4 29  1  0
  5 30  1  0
  6 31  1  0
  7 32  1  0
  9 33  1  0
 10 34  1  0
 11 35  1  0
 12 36  1  0
 13 37  1  0
 17 38  1  0
 17 39  1  0
 18 40  1  0
 18 41  1  0
 20 42  1  0
 20 43  1  0
 21 44  1  0
 21 45  1  0
 22 46  1  0
 22 47  1  0
 23 48  1  0
 23 49  1  0
 24 50  1  0
 24 51  1  0
 25 52  1  0
 25 53  1  0
 25 54  1  0
 26 55  1  0
 26 56  1  0
 27 57  1  0
M  CHG  1  19   1
M  END
>  <score>  (7) 
-7.681

$$$$
=
     RDKit          3D

 57 59  0  0  0  0  0  0  0  0999 V2000
    1.6980   62.5380   72.6520 C   0  0  0  0  0  0  0  0  0  0  0  0
    1.3370   63.8000   71.8530 C   0  0  0  0  0  0  0  0  0  0  0  0
    2.0780   64.2470   70.7450 C   0  0  0  0  0  0  0  0  0  0  0  0
    1.7080   65.4080   70.0570 C   0  0  0  0  0  0  0  0  0  0  0  0
    0.5980   66.1420   70.4650 C   0  0  0  0  0  0  0  0  0  0  0  0
   -0.1490   65.7200   71.5590 C   0  0  0  0  0  0  0  0  0  0  0  0
    0.2170   64.5620   72.2460 C   0  0  0  0  0  0  0  0  0  0  0  0
    2.8660   61.7310   72.0550 C   0  0  0  0  0  0  0  0  0  0  0  0
    4.1570   61.7750   72.6180 C   0  0  0  0  0  0  0  0  0  0  0  0
    5.2170   61.0710   72.0410 C   0  0  0  0  0  0  0  0  0  0  0  0
    5.0110   60.3210   70.8860 C   0  0  0  0  0  0  0  0  0  0  0  0
    3.7460   60.2720   70.3070 C   0  0  0  0  0  0  0  0  0  0  0  0
    2.6840   60.9730   70.8840 C   0  0  0  0  0  0  0  0  0  0  0  0
    0.4730   61.6090   72.9110 C   0  0  0  0  0  0  0  0  0  0  0  0
   -0.5950   61.6750   72.3080 O   0  0  0  0  0  0  0  0  0  0  0  0
    0.7190   60.6680   73.8760 O   0  0  0  0  0  0  0  0  0  0  0  0
    0.1530   59.3750   73.6080 C   0  0  0  0  0  0  0  0  0  0  0  0
    1.3100   58.4300   73.2580 C   0  0  0  0  0  0  0  0  0  0  0  0
    1.4950   57.1960   74.1900 N   0  0  0  0  0  4  0  0  0  0  0  0
    0.1910   56.8490   74.9480 C   0  0  0  0  0  0  0  0  0  0  0  0
   -0.5640   55.7060   74.2830 C   0  0  0  0  0  0  0  0  0  0  0  0
    0.2570   54.4220   74.2650 C   0  0  0  0  0  0  0  0  0  0  0  0
    1.7490   54.6750   74.0680 C   0  0  0  0  0  0  0  0  0  0  0  0
    2.0120   55.9920   73.3540 C   0  0  0  0  0  0  0  0  0  0  0  0
    3.5880   58.6160   74.7570 C   0  0  0  0  0  0  0  0  0  0  0  0
    2.6150   57.5430   75.2270 C   0  0  0  0  0  0  0  0  0  0  0  0
    2.1050   63.0100   73.9560 O   0  0  0  0  0  0  0  0  0  0  0  0
    2.9592   63.6773   70.4150 H   0  0  0  0  0  0  0  0  0  0  0  0
    2.2969   65.7420   69.1900 H   0  0  0  0  0  0  0  0  0  0  0  0
    0.3121   67.0551   69.9224 H   0  0  0  0  0  0  0  0  0  0  0  0
   -1.0272   66.2981   71.8825 H   0  0  0  0  0  0  0  0  0  0  0  0
   -0.3796   64.2370   73.1111 H   0  0  0  0  0  0  0  0  0  0  0  0
    4.3328   62.3722   73.5249 H   0  0  0  0  0  0  0  0  0  0  0  0
    6.2160   61.1093   72.4999 H   0  0  0  0  0  0  0  0  0  0  0  0
    5.8465   59.7681   70.4318 H   0  0  0  0  0  0  0  0  0  0  0  0
    3.5823   59.6806   69.3940 H   0  0  0  0  0  0  0  0  0  0  0  0
    1.6898   60.9315   70.4152 H   0  0  0  0  0  0  0  0  0  0  0  0
   -0.3780   59.0055   74.4977 H   0  0  0  0  0  0  0  0  0  0  0  0
   -0.5667   59.4311   72.7780 H   0  0  0  0  0  0  0  0  0  0  0  0
    1.1419   58.0573   72.2368 H   0  0  0  0  0  0  0  0  0  0  0  0
    2.2254   59.0285   73.3762 H   0  0  0  0  0  0  0  0  0  0  0  0
    0.4450   56.5563   75.9775 H   0  0  0  0  0  0  0  0  0  0  0  0
   -0.4569   57.7379   74.9374 H   0  0  0  0  0  0  0  0  0  0  0  0
   -1.4967   55.5248   74.8374 H   0  0  0  0  0  0  0  0  0  0  0  0
   -0.7731   55.9935   73.2420 H   0  0  0  0  0  0  0  0  0  0  0  0
    0.1128   53.8995   75.2222 H   0  0  0  0  0  0  0  0  0  0  0  0
   -0.0912   53.8189   73.4135 H   0  0  0  0  0  0  0  0  0  0  0  0
    2.2383   54.7006   75.0528 H   0  0  0  0  0  0  0  0  0  0  0  0
    2.1529   53.8632   73.4452 H   0  0  0  0  0  0  0  0  0  0  0  0
    1.4973   55.9824   72.3819 H   0  0  0  0  0  0  0  0  0  0  0  0
    3.0976   56.1034   73.2162 H   0  0  0  0  0  0  0  0  0  0  0  0
    4.0373   59.1115   75.6303 H   0  0  0  0  0  0  0  0  0  0  0  0
    4.3801   58.1525   74.1506 H   0  0  0  0  0  0  0  0  0  0  0  0
    3.0494   59.3591   74.1506 H   0  0  0  0  0  0  0  0  0  0  0  0
    3.1865   56.6270   75.4375 H   0  0  0  0  0  0  0  0  0  0  0  0
    2.1088   57.9427   76.1181 H   0  0  0  0  0  0  0  0  0  0  0  0
    1.6480   62.4800   74.6562 H   0  0  0  0  0  0  0  0  0  0  0  0
  2  1  1  0
  3  2  2  0
  4  3  1  0
  5  4  2  0
  6  5  1  0
  7  6  2  0
  7  2  1  0
  8  1  1  0
  9  8  2  0
 10  9  1  0
 11 10  2  0
 12 11  1  0
 13 12  2  0
 13  8  1  0
 14  1  1  0
 15 14  2  0
 16 14  1  0
 17 16  1  0
 18 17  1  0
 19 18  1  0
 20 19  1  0
 21 20  1  0
 22 21  1  0
 23 22  1  0
 24 19  1  0
 24 23  1  0
 26 25  1  0
 26 19  1  0
 27  1  1  0
  3 28  1  0
  4 29  1  0
  5 30  1  0
  6 31  1  0
  7 32  1  0
  9 33  1  0
 10 34  1  0
 11 35  1  0
 12 36  1  0
 13 37  1  0
 17 38  1  0
 17 39  1  0
 18 40  1  0
 18 41  1  0
 20 42  1  0
 20 43  1  0
 21 44  1  0
 21 45  1  0
 22 46  1  0
 22 47  1  0
 23 48  1  0
 23 49  1  0
 24 50  1  0
 24 51  1  0
 25 52  1  0
 25 53  1  0
 25 54  1  0
 26 55  1  0
 26 56  1  0
 27 57  1  0
M  CHG  1  19   1
M  END
>  <score>  (8) 
-7.477

$$$$
=
     RDKit          3D

 57 59  0  0  0  0  0  0  0  0999 V2000
    2.9300   60.6370   72.4700 C   0  0  0  0  0  0  0  0  0  0  0  0
    1.5850   61.0740   73.0710 C   0  0  0  0  0  0  0  0  0  0  0  0
    0.3420   60.7110   72.5220 C   0  0  0  0  0  0  0  0  0  0  0  0
   -0.8530   61.1430   73.1060 C   0  0  0  0  0  0  0  0  0  0  0  0
   -0.8280   61.9470   74.2430 C   0  0  0  0  0  0  0  0  0  0  0  0
    0.3880   62.3210   74.8020 C   0  0  0  0  0  0  0  0  0  0  0  0
    1.5820   61.8890   74.2230 C   0  0  0  0  0  0  0  0  0  0  0  0
    3.3870   61.4870   71.2710 C   0  0  0  0  0  0  0  0  0  0  0  0
    4.5170   62.3240   71.3480 C   0  0  0  0  0  0  0  0  0  0  0  0
    4.8960   63.1220   70.2650 C   0  0  0  0  0  0  0  0  0  0  0  0
    4.1470   63.1080   69.0920 C   0  0  0  0  0  0  0  0  0  0  0  0
    3.0200   62.2960   68.9970 C   0  0  0  0  0  0  0  0  0  0  0  0
    2.6420   61.4960   70.0770 C   0  0  0  0  0  0  0  0  0  0  0  0
    2.9710   59.1210   72.1080 C   0  0  0  0  0  0  0  0  0  0  0  0
    3.3690   58.6670   71.0380 O   0  0  0  0  0  0  0  0  0  0  0  0
    2.5420   58.3200   73.1330 O   0  0  0  0  0  0  0  0  0  0  0  0
    1.8490   57.1330   72.7160 C   0  0  0  0  0  0  0  0  0  0  0  0
    1.7550   56.2030   73.9340 C   0  0  0  0  0  0  0  0  0  0  0  0
    0.5410   56.4320   74.8800 N   0  0  0  0  0  4  0  0  0  0  0  0
    0.9710   57.0720   76.2220 C   0  0  0  0  0  0  0  0  0  0  0  0
    0.7300   58.5750   76.2370 C   0  0  0  0  0  0  0  0  0  0  0  0
   -0.7480   58.9110   76.0750 C   0  0  0  0  0  0  0  0  0  0  0  0
   -1.4760   57.9490   75.1410 C   0  0  0  0  0  0  0  0  0  0  0  0
   -0.5270   57.2930   74.1490 C   0  0  0  0  0  0  0  0  0  0  0  0
    0.0320   54.0390   74.0230 C   0  0  0  0  0  0  0  0  0  0  0  0
   -0.1150   55.0390   75.1620 C   0  0  0  0  0  0  0  0  0  0  0  0
    3.8980   60.8050   73.5290 O   0  0  0  0  0  0  0  0  0  0  0  0
    0.3094   60.0794   71.6220 H   0  0  0  0  0  0  0  0  0  0  0  0
   -1.8165   60.8467   72.6656 H   0  0  0  0  0  0  0  0  0  0  0  0
   -1.7703   62.2858   74.6983 H   0  0  0  0  0  0  0  0  0  0  0  0
    0.4094   62.9566   75.6995 H   0  0  0  0  0  0  0  0  0  0  0  0
    2.5395   62.1896   74.6734 H   0  0  0  0  0  0  0  0  0  0  0  0
    5.1100   62.3501   72.2741 H   0  0  0  0  0  0  0  0  0  0  0  0
    5.7875   63.7620   70.3398 H   0  0  0  0  0  0  0  0  0  0  0  0
    4.4451   63.7378   68.2409 H   0  0  0  0  0  0  0  0  0  0  0  0
    2.4271   62.2848   68.0705 H   0  0  0  0  0  0  0  0  0  0  0  0
    1.7469   60.8621   69.9933 H   0  0  0  0  0  0  0  0  0  0  0  0
    0.8402   57.3916   72.3620 H   0  0  0  0  0  0  0  0  0  0  0  0
    2.3854   56.6399   71.8919 H   0  0  0  0  0  0  0  0  0  0  0  0
    1.7015   55.1687   73.5634 H   0  0  0  0  0  0  0  0  0  0  0  0
    2.6465   56.4206   74.5405 H   0  0  0  0  0  0  0  0  0  0  0  0
    0.3936   56.6111   77.0370 H   0  0  0  0  0  0  0  0  0  0  0  0
    2.0493   56.8983   76.3525 H   0  0  0  0  0  0  0  0  0  0  0  0
    1.0855   58.9834   77.1945 H   0  0  0  0  0  0  0  0  0  0  0  0
    1.2769   59.0183   75.3918 H   0  0  0  0  0  0  0  0  0  0  0  0
   -1.2277   58.8706   77.0641 H   0  0  0  0  0  0  0  0  0  0  0  0
   -0.8117   59.9150   75.6302 H   0  0  0  0  0  0  0  0  0  0  0  0
   -1.9581   57.1650   75.7435 H   0  0  0  0  0  0  0  0  0  0  0  0
   -2.2197   58.5251   74.5709 H   0  0  0  0  0  0  0  0  0  0  0  0
   -0.0196   58.0758   73.5661 H   0  0  0  0  0  0  0  0  0  0  0  0
   -1.1121   56.6363   73.4884 H   0  0  0  0  0  0  0  0  0  0  0  0
    0.1802   53.0308   74.4371 H   0  0  0  0  0  0  0  0  0  0  0  0
   -0.8776   54.0513   73.4046 H   0  0  0  0  0  0  0  0  0  0  0  0
    0.8996   54.3126   73.4046 H   0  0  0  0  0  0  0  0  0  0  0  0
   -1.1879   55.1942   75.3488 H   0  0  0  0  0  0  0  0  0  0  0  0
    0.4104   54.6113   76.0286 H   0  0  0  0  0  0  0  0  0  0  0  0
    3.4449   60.7264   74.4057 H   0  0  0  0  0  0  0  0  0  0  0  0
  2  1  1  0
  3  2  2  0
  4  3  1  0
  5  4  2  0
  6  5  1  0
  7  6  2  0
  7  2  1  0
  8  1  1  0
  9  8  2  0
 10  9  1  0
 11 10  2  0
 12 11  1  0
 13 12  2  0
 13  8  1  0
 14  1  1  0
 15 14  2  0
 16 14  1  0
 17 16  1  0
 18 17  1  0
 19 18  1  0
 20 19  1  0
 21 20  1  0
 22 21  1  0
 23 22  1  0
 24 19  1  0
 24 23  1  0
 26 25  1  0
 26 19  1  0
 27  1  1  0
  3 28  1  0
  4 29  1  0
  5 30  1  0
  6 31  1  0
  7 32  1  0
  9 33  1  0
 10 34  1  0
 11 35  1  0
 12 36  1  0
 13 37  1  0
 17 38  1  0
 17 39  1  0
 18 40  1  0
 18 41  1  0
 20 42  1  0
 20 43  1  0
 21 44  1  0
 21 45  1  0
 22 46  1  0
 22 47  1  0
 23 48  1  0
 23 49  1  0
 24 50  1  0
 24 51  1  0
 25 52  1  0
 25 53  1  0
 25 54  1  0
 26 55  1  0
 26 56  1  0
 27 57  1  0
M  CHG  1  19   1
M  END
>  <score>  (9) 
-7.341

$$$$
