=
     RDKit          3D

 34 35  0  0  0  0  0  0  0  0999 V2000
    1.2560   68.9750   67.2590 C   0  0  1  0  0  0  0  0  0  0  0  0
    2.5630   69.5840   67.7500 C   0  0  0  0  0  0  0  0  0  0  0  0
    2.6340   70.2430   68.9870 C   0  0  0  0  0  0  0  0  0  0  0  0
    3.8290   70.8170   69.4180 C   0  0  0  0  0  0  0  0  0  0  0  0
    4.9680   70.7480   68.6160 C   0  0  0  0  0  0  0  0  0  0  0  0
    4.9220   70.1090   67.3690 C   0  0  0  0  0  0  0  0  0  0  0  0
    3.7140   69.5270   66.9480 C   0  0  0  0  0  0  0  0  0  0  0  0
    6.1610   70.0160   66.5110 C   0  0  0  0  0  0  0  0  0  0  0  0
    7.2900   69.7650   67.2300 F   0  0  0  0  0  0  0  0  0  0  0  0
    6.0790   69.0240   65.5840 F   0  0  0  0  0  0  0  0  0  0  0  0
    6.4140   71.1610   65.8150 F   0  0  0  0  0  0  0  0  0  0  0  0
    1.8710   66.8220   66.3100 O   0  0  0  0  0  0  0  0  0  0  0  0
    1.4930   67.9780   66.0990 C   0  0  0  0  0  0  0  0  0  0  0  0
    1.3260   68.3980   64.6800 C   0  0  0  0  0  0  0  0  0  0  0  0
    0.1140   68.8660   64.1660 C   0  0  0  0  0  0  0  0  0  0  0  0
    0.0110   69.2180   62.8180 C   0  0  0  0  0  0  0  0  0  0  0  0
    1.1160   69.0940   61.9740 C   0  0  0  0  0  0  0  0  0  0  0  0
    2.3380   68.6160   62.4660 C   0  0  0  0  0  0  0  0  0  0  0  0
    2.4270   68.2590   63.8220 C   0  0  0  0  0  0  0  0  0  0  0  0
    3.5270   68.4480   61.5520 C   0  0  0  0  0  0  0  0  0  0  0  0
    3.2310   68.6850   60.2440 F   0  0  0  0  0  0  0  0  0  0  0  0
    4.0390   67.1890   61.5970 F   0  0  0  0  0  0  0  0  0  0  0  0
    4.5560   69.2870   61.8570 F   0  0  0  0  0  0  0  0  0  0  0  0
    0.5050   68.5400   68.3810 O   0  0  0  0  0  0  0  0  0  0  0  0
    0.6077   69.7165   66.7693 H   0  0  0  0  0  0  0  0  0  0  0  0
    1.7384   70.3072   69.6224 H   0  0  0  0  0  0  0  0  0  0  0  0
    3.8737   71.3253   70.3925 H   0  0  0  0  0  0  0  0  0  0  0  0
    5.9092   71.1982   68.9644 H   0  0  0  0  0  0  0  0  0  0  0  0
    3.6695   69.0182   65.9737 H   0  0  0  0  0  0  0  0  0  0  0  0
   -0.7620   68.9576   64.8249 H   0  0  0  0  0  0  0  0  0  0  0  0
   -0.9434   69.5939   62.4206 H   0  0  0  0  0  0  0  0  0  0  0  0
    1.0268   69.3738   60.9139 H   0  0  0  0  0  0  0  0  0  0  0  0
    3.3748   67.8644   64.2169 H   0  0  0  0  0  0  0  0  0  0  0  0
    0.9691   68.8088   69.2131 H   0  0  0  0  0  0  0  0  0  0  0  0
  2  1  1  0
  3  2  2  0
  4  3  1  0
  5  4  2  0
  6  5  1  0
  7  6  2  0
  7  2  1  0
  8  6  1  0
  9  8  1  0
 10  8  1  0
 11  8  1  0
 13 12  2  0
 13  1  1  0
 14 13  1  0
 15 14  2  0
 16 15  1  0
 17 16  2  0
 18 17  1  0
 19 18  2  0
 19 14  1  0
 20 18  1  0
 21 20  1  0
 22 20  1  0
 23 20  1  0
 24  1  1  0
  1 25  1  6
  3 26  1  0
  4 27  1  0
  5 28  1  0
  7 29  1  0
 15 30  1  0
 16 31  1  0
 17 32  1  0
 19 33  1  0
 24 34  1  0
M  END
>  <score>  (1) 
-11.224

$$$$
=
     RDKit          3D

 34 35  0  0  0  0  0  0  0  0999 V2000
    1.0820   67.7980   66.1400 C   0  0  1  0  0  0  0  0  0  0  0  0
    1.0930   68.2850   64.6970 C   0  0  0  0  0  0  0  0  0  0  0  0
   -0.0510   68.8540   64.1170 C   0  0  0  0  0  0  0  0  0  0  0  0
   -0.0380   69.2750   62.7880 C   0  0  0  0  0  0  0  0  0  0  0  0
    1.1140   69.1270   62.0170 C   0  0  0  0  0  0  0  0  0  0  0  0
    2.2670   68.5470   62.5660 C   0  0  0  0  0  0  0  0  0  0  0  0
    2.2460   68.1340   63.9100 C   0  0  0  0  0  0  0  0  0  0  0  0
    3.5220   68.4070   61.7380 C   0  0  0  0  0  0  0  0  0  0  0  0
    4.0320   67.1450   61.7530 F   0  0  0  0  0  0  0  0  0  0  0  0
    3.3180   68.7130   60.4280 F   0  0  0  0  0  0  0  0  0  0  0  0
    4.5320   69.2190   62.1600 F   0  0  0  0  0  0  0  0  0  0  0  0
    0.0900   69.5350   67.5250 O   0  0  0  0  0  0  0  0  0  0  0  0
    1.1230   68.9800   67.1390 C   0  0  0  0  0  0  0  0  0  0  0  0
    2.4210   69.5260   67.6270 C   0  0  0  0  0  0  0  0  0  0  0  0
    2.5520   70.1910   68.8490 C   0  0  0  0  0  0  0  0  0  0  0  0
    3.7910   70.7060   69.2380 C   0  0  0  0  0  0  0  0  0  0  0  0
    4.9020   70.5700   68.4050 C   0  0  0  0  0  0  0  0  0  0  0  0
    4.7890   69.9170   67.1700 C   0  0  0  0  0  0  0  0  0  0  0  0
    3.5380   69.4090   66.7860 C   0  0  0  0  0  0  0  0  0  0  0  0
    5.9790   69.7960   66.2490 C   0  0  0  0  0  0  0  0  0  0  0  0
    5.9170   68.7000   65.4410 F   0  0  0  0  0  0  0  0  0  0  0  0
    7.1520   69.6920   66.9290 F   0  0  0  0  0  0  0  0  0  0  0  0
    6.1180   70.8630   65.4150 F   0  0  0  0  0  0  0  0  0  0  0  0
    0.0590   66.8260   66.2860 O   0  0  0  0  0  0  0  0  0  0  0  0
    2.0053   67.2633   66.4077 H   0  0  0  0  0  0  0  0  0  0  0  0
   -0.9662   68.9689   64.7163 H   0  0  0  0  0  0  0  0  0  0  0  0
   -0.9393   69.7252   62.3465 H   0  0  0  0  0  0  0  0  0  0  0  0
    1.1188   69.4674   60.9710 H   0  0  0  0  0  0  0  0  0  0  0  0
    3.1477   67.6852   64.3521 H   0  0  0  0  0  0  0  0  0  0  0  0
    1.6777   70.3092   69.5060 H   0  0  0  0  0  0  0  0  0  0  0  0
    3.8911   71.2208   70.2049 H   0  0  0  0  0  0  0  0  0  0  0  0
    5.8737   70.9783   68.7198 H   0  0  0  0  0  0  0  0  0  0  0  0
    3.4318   68.9115   65.8107 H   0  0  0  0  0  0  0  0  0  0  0  0
   -0.1093   66.6661   67.2484 H   0  0  0  0  0  0  0  0  0  0  0  0
  2  1  1  0
  3  2  2  0
  4  3  1  0
  5  4  2  0
  6  5  1  0
  7  6  2  0
  7  2  1  0
  8  6  1  0
  9  8  1  0
 10  8  1  0
 11  8  1  0
 13 12  2  0
 13  1  1  0
 14 13  1  0
 15 14  2  0
 16 15  1  0
 17 16  2  0
 18 17  1  0
 19 18  2  0
 19 14  1  0
 20 18  1  0
 21 20  1  0
 22 20  1  0
 23 20  1  0
 24  1  1  0
  1 25  1  6
  3 26  1  0
  4 27  1  0
  5 28  1  0
  7 29  1  0
 15 30  1  0
 16 31  1  0
 17 32  1  0
 19 33  1  0
 24 34  1  0
M  END
>  <score>  (2) 
-11.221

$$$$
=
     RDKit          3D

 34 35  0  0  0  0  0  0  0  0999 V2000
    3.2880   67.8640   64.2310 C   0  0  1  0  0  0  0  0  0  0  0  0
    1.8720   68.2990   63.8760 C   0  0  0  0  0  0  0  0  0  0  0  0
    1.5500   68.7220   62.5770 C   0  0  0  0  0  0  0  0  0  0  0  0
    0.2570   69.1410   62.2680 C   0  0  0  0  0  0  0  0  0  0  0  0
   -0.7300   69.1520   63.2520 C   0  0  0  0  0  0  0  0  0  0  0  0
   -0.4330   68.7490   64.5620 C   0  0  0  0  0  0  0  0  0  0  0  0
    0.8720   68.3210   64.8610 C   0  0  0  0  0  0  0  0  0  0  0  0
   -1.5080   68.7400   65.6220 C   0  0  0  0  0  0  0  0  0  0  0  0
   -2.7670   68.7630   65.1050 F   0  0  0  0  0  0  0  0  0  0  0  0
   -1.4480   67.6370   66.4150 F   0  0  0  0  0  0  0  0  0  0  0  0
   -1.4360   69.8110   66.4630 F   0  0  0  0  0  0  0  0  0  0  0  0
    4.9010   69.6700   63.9950 O   0  0  0  0  0  0  0  0  0  0  0  0
    4.1370   69.0530   64.7430 C   0  0  0  0  0  0  0  0  0  0  0  0
    4.1010   69.4590   66.1760 C   0  0  0  0  0  0  0  0  0  0  0  0
    2.9310   69.4440   66.9390 C   0  0  0  0  0  0  0  0  0  0  0  0
    2.9560   69.8640   68.2710 C   0  0  0  0  0  0  0  0  0  0  0  0
    4.1470   70.3120   68.8450 C   0  0  0  0  0  0  0  0  0  0  0  0
    5.3300   70.3460   68.0940 C   0  0  0  0  0  0  0  0  0  0  0  0
    5.2920   69.9270   66.7530 C   0  0  0  0  0  0  0  0  0  0  0  0
    6.6140   70.8610   68.6960 C   0  0  0  0  0  0  0  0  0  0  0  0
    6.6670   70.7060   70.0490 F   0  0  0  0  0  0  0  0  0  0  0  0
    6.7980   72.1890   68.4650 F   0  0  0  0  0  0  0  0  0  0  0  0
    7.7200   70.2340   68.2090 F   0  0  0  0  0  0  0  0  0  0  0  0
    3.2190   66.6910   65.0260 O   0  0  0  0  0  0  0  0  0  0  0  0
    3.8660   67.5590   63.3461 H   0  0  0  0  0  0  0  0  0  0  0  0
    2.3247   68.7229   61.7961 H   0  0  0  0  0  0  0  0  0  0  0  0
    0.0149   69.4639   61.2447 H   0  0  0  0  0  0  0  0  0  0  0  0
   -1.7494   69.4792   62.9992 H   0  0  0  0  0  0  0  0  0  0  0  0
    1.1138   67.9978   65.8843 H   0  0  0  0  0  0  0  0  0  0  0  0
    1.9875   69.1005   66.4897 H   0  0  0  0  0  0  0  0  0  0  0  0
    2.0336   69.8416   68.8699 H   0  0  0  0  0  0  0  0  0  0  0  0
    4.1572   70.6408   69.8946 H   0  0  0  0  0  0  0  0  0  0  0  0
    6.2090   69.9664   66.1467 H   0  0  0  0  0  0  0  0  0  0  0  0
    3.2337   66.9403   65.9840 H   0  0  0  0  0  0  0  0  0  0  0  0
  2  1  1  0
  3  2  2  0
  4  3  1  0
  5  4  2  0
  6  5  1  0
  7  6  2  0
  7  2  1  0
  8  6  1  0
  9  8  1  0
 10  8  1  0
 11  8  1  0
 13 12  2  0
 13  1  1  0
 14 13  1  0
 15 14  2  0
 16 15  1  0
 17 16  2  0
 18 17  1  0
 19 18  2  0
 19 14  1  0
 20 18  1  0
 21 20  1  0
 22 20  1  0
 23 20  1  0
 24  1  1  0
  1 25  1  6
  3 26  1  0
  4 27  1  0
  5 28  1  0
  7 29  1  0
 15 30  1  0
 16 31  1  0
 17 32  1  0
 19 33  1  0
 24 34  1  0
M  END
>  <score>  (3) 
-10.695

$$$$
=
     RDKit          3D

 34 35  0  0  0  0  0  0  0  0999 V2000
    1.2700   68.2680   66.7100 C   0  0  1  0  0  0  0  0  0  0  0  0
    2.4040   69.0900   67.3090 C   0  0  0  0  0  0  0  0  0  0  0  0
    2.2180   69.8250   68.4900 C   0  0  0  0  0  0  0  0  0  0  0  0
    3.2550   70.5930   69.0180 C   0  0  0  0  0  0  0  0  0  0  0  0
    4.4890   70.6450   68.3710 C   0  0  0  0  0  0  0  0  0  0  0  0
    4.6970   69.9330   67.1810 C   0  0  0  0  0  0  0  0  0  0  0  0
    3.6480   69.1550   66.6610 C   0  0  0  0  0  0  0  0  0  0  0  0
    6.0400   69.9720   66.4910 C   0  0  0  0  0  0  0  0  0  0  0  0
    6.2560   71.1310   65.8090 F   0  0  0  0  0  0  0  0  0  0  0  0
    7.0770   69.8510   67.3640 F   0  0  0  0  0  0  0  0  0  0  0  0
    6.1990   68.9720   65.5790 F   0  0  0  0  0  0  0  0  0  0  0  0
    0.4930   68.7980   64.4660 O   0  0  0  0  0  0  0  0  0  0  0  0
    1.3440   68.2390   65.1640 C   0  0  0  0  0  0  0  0  0  0  0  0
    2.4210   67.4850   64.4620 C   0  0  0  0  0  0  0  0  0  0  0  0
    3.1110   67.9970   63.3610 C   0  0  0  0  0  0  0  0  0  0  0  0
    4.0910   67.2290   62.7270 C   0  0  0  0  0  0  0  0  0  0  0  0
    4.3800   65.9430   63.1840 C   0  0  0  0  0  0  0  0  0  0  0  0
    3.6910   65.4050   64.2800 C   0  0  0  0  0  0  0  0  0  0  0  0
    2.7030   66.1840   64.9050 C   0  0  0  0  0  0  0  0  0  0  0  0
    3.9740   64.0020   64.7580 C   0  0  0  0  0  0  0  0  0  0  0  0
    3.0540   63.0960   64.3240 F   0  0  0  0  0  0  0  0  0  0  0  0
    3.9760   63.9090   66.1160 F   0  0  0  0  0  0  0  0  0  0  0  0
    5.1820   63.5310   64.3440 F   0  0  0  0  0  0  0  0  0  0  0  0
    1.1840   67.0350   67.4050 O   0  0  0  0  0  0  0  0  0  0  0  0
    0.2869   68.7365   66.8650 H   0  0  0  0  0  0  0  0  0  0  0  0
    1.2457   69.7949   69.0035 H   0  0  0  0  0  0  0  0  0  0  0  0
    3.0991   71.1596   69.9479 H   0  0  0  0  0  0  0  0  0  0  0  0
    5.3044   71.2483   68.7967 H   0  0  0  0  0  0  0  0  0  0  0  0
    3.8042   68.5880   65.7314 H   0  0  0  0  0  0  0  0  0  0  0  0
    2.8823   69.0077   62.9919 H   0  0  0  0  0  0  0  0  0  0  0  0
    4.6365   67.6398   61.8646 H   0  0  0  0  0  0  0  0  0  0  0  0
    5.1548   65.3463   62.6803 H   0  0  0  0  0  0  0  0  0  0  0  0
    2.1420   65.7676   65.7546 H   0  0  0  0  0  0  0  0  0  0  0  0
    1.1958   67.2044   68.3803 H   0  0  0  0  0  0  0  0  0  0  0  0
  2  1  1  0
  3  2  2  0
  4  3  1  0
  5  4  2  0
  6  5  1  0
  7  6  2  0
  7  2  1  0
  8  6  1  0
  9  8  1  0
 10  8  1  0
 11  8  1  0
 13 12  2  0
 13  1  1  0
 14 13  1  0
 15 14  2  0
 16 15  1  0
 17 16  2  0
 18 17  1  0
 19 18  2  0
 19 14  1  0
 20 18  1  0
 21 20  1  0
 22 20  1  0
 23 20  1  0
 24  1  1  0
  1 25  1  6
  3 26  1  0
  4 27  1  0
  5 28  1  0
  7 29  1  0
 15 30  1  0
 16 31  1  0
 17 32  1  0
 19 33  1  0
 24 34  1  0
M  END
>  <score>  (4) 
-10.379

$$$$
=
     RDKit          3D

 34 35  0  0  0  0  0  0  0  0999 V2000
    4.0020   67.9050   63.7250 C   0  0  1  0  0  0  0  0  0  0  0  0
    2.5400   68.2980   63.5500 C   0  0  0  0  0  0  0  0  0  0  0  0
    2.0500   68.7220   62.3060 C   0  0  0  0  0  0  0  0  0  0  0  0
    0.7160   69.1010   62.1610 C   0  0  0  0  0  0  0  0  0  0  0  0
   -0.1440   69.0710   63.2580 C   0  0  0  0  0  0  0  0  0  0  0  0
    0.3230   68.6660   64.5170 C   0  0  0  0  0  0  0  0  0  0  0  0
    1.6670   68.2770   64.6500 C   0  0  0  0  0  0  0  0  0  0  0  0
   -0.6150   68.6120   65.6990 C   0  0  0  0  0  0  0  0  0  0  0  0
   -0.2590   69.4640   66.7010 F   0  0  0  0  0  0  0  0  0  0  0  0
   -1.8920   68.9380   65.3660 F   0  0  0  0  0  0  0  0  0  0  0  0
   -0.6790   67.3760   66.2720 F   0  0  0  0  0  0  0  0  0  0  0  0
    5.5280   69.7080   63.1440 O   0  0  0  0  0  0  0  0  0  0  0  0
    4.8880   69.1360   64.0320 C   0  0  0  0  0  0  0  0  0  0  0  0
    5.0430   69.6420   65.4250 C   0  0  0  0  0  0  0  0  0  0  0  0
    6.2420   70.1660   65.9120 C   0  0  0  0  0  0  0  0  0  0  0  0
    6.3330   70.5970   67.2380 C   0  0  0  0  0  0  0  0  0  0  0  0
    5.2300   70.4970   68.0870 C   0  0  0  0  0  0  0  0  0  0  0  0
    4.0200   69.9630   67.6210 C   0  0  0  0  0  0  0  0  0  0  0  0
    3.9420   69.5270   66.2880 C   0  0  0  0  0  0  0  0  0  0  0  0
    2.8330   69.8200   68.5420 C   0  0  0  0  0  0  0  0  0  0  0  0
    2.0500   70.9340   68.5790 F   0  0  0  0  0  0  0  0  0  0  0  0
    3.2030   69.5800   69.8290 F   0  0  0  0  0  0  0  0  0  0  0  0
    2.0050   68.7980   68.1890 F   0  0  0  0  0  0  0  0  0  0  0  0
    4.0730   66.7880   64.5970 O   0  0  0  0  0  0  0  0  0  0  0  0
    4.4540   67.5478   62.7879 H   0  0  0  0  0  0  0  0  0  0  0  0
    2.7239   68.7558   61.4373 H   0  0  0  0  0  0  0  0  0  0  0  0
    0.3412   69.4245   61.1787 H   0  0  0  0  0  0  0  0  0  0  0  0
   -1.1963   69.3671   63.1352 H   0  0  0  0  0  0  0  0  0  0  0  0
    2.0412   67.9508   65.6316 H   0  0  0  0  0  0  0  0  0  0  0  0
    7.1174   70.2397   65.2500 H   0  0  0  0  0  0  0  0  0  0  0  0
    7.2777   71.0167   67.6141 H   0  0  0  0  0  0  0  0  0  0  0  0
    5.3103   70.8395   69.1292 H   0  0  0  0  0  0  0  0  0  0  0  0
    3.0044   69.0891   65.9150 H   0  0  0  0  0  0  0  0  0  0  0  0
    4.0531   67.1007   65.5361 H   0  0  0  0  0  0  0  0  0  0  0  0
  2  1  1  0
  3  2  2  0
  4  3  1  0
  5  4  2  0
  6  5  1  0
  7  6  2  0
  7  2  1  0
  8  6  1  0
  9  8  1  0
 10  8  1  0
 11  8  1  0
 13 12  2  0
 13  1  1  0
 14 13  1  0
 15 14  2  0
 16 15  1  0
 17 16  2  0
 18 17  1  0
 19 18  2  0
 19 14  1  0
 20 18  1  0
 21 20  1  0
 22 20  1  0
 23 20  1  0
 24  1  1  0
  1 25  1  6
  3 26  1  0
  4 27  1  0
  5 28  1  0
  7 29  1  0
 15 30  1  0
 16 31  1  0
 17 32  1  0
 19 33  1  0
 24 34  1  0
M  END
>  <score>  (5) 
-10.332

$$$$
=
     RDKit          3D

 34 35  0  0  0  0  0  0  0  0999 V2000
    1.4290   67.9160   66.1360 C   0  0  1  0  0  0  0  0  0  0  0  0
    1.2430   68.3450   64.6860 C   0  0  0  0  0  0  0  0  0  0  0  0
    0.0070   68.8230   64.2260 C   0  0  0  0  0  0  0  0  0  0  0  0
   -0.1600   69.1910   62.8920 C   0  0  0  0  0  0  0  0  0  0  0  0
    0.9040   69.0800   61.9970 C   0  0  0  0  0  0  0  0  0  0  0  0
    2.1460   68.5920   62.4260 C   0  0  0  0  0  0  0  0  0  0  0  0
    2.3060   68.2310   63.7750 C   0  0  0  0  0  0  0  0  0  0  0  0
    3.3040   68.4930   61.4610 C   0  0  0  0  0  0  0  0  0  0  0  0
    3.8500   67.2470   61.4110 F   0  0  0  0  0  0  0  0  0  0  0  0
    2.9460   68.7970   60.1850 F   0  0  0  0  0  0  0  0  0  0  0  0
    4.3310   69.3330   61.7730 F   0  0  0  0  0  0  0  0  0  0  0  0
    1.4670   69.6400   67.8520 O   0  0  0  0  0  0  0  0  0  0  0  0
    2.0930   69.0320   66.9790 C   0  0  0  0  0  0  0  0  0  0  0  0
    3.5000   69.4500   66.7250 C   0  0  0  0  0  0  0  0  0  0  0  0
    4.1220   69.3030   65.4820 C   0  0  0  0  0  0  0  0  0  0  0  0
    5.4540   69.6870   65.3140 C   0  0  0  0  0  0  0  0  0  0  0  0
    6.1770   70.2080   66.3880 C   0  0  0  0  0  0  0  0  0  0  0  0
    5.5760   70.3520   67.6460 C   0  0  0  0  0  0  0  0  0  0  0  0
    4.2380   69.9570   67.8060 C   0  0  0  0  0  0  0  0  0  0  0  0
    6.3610   70.8830   68.8210 C   0  0  0  0  0  0  0  0  0  0  0  0
    5.7250   70.7000   70.0130 F   0  0  0  0  0  0  0  0  0  0  0  0
    6.5960   72.2190   68.7250 F   0  0  0  0  0  0  0  0  0  0  0  0
    7.5800   70.2920   68.9590 F   0  0  0  0  0  0  0  0  0  0  0  0
    0.2150   67.3500   66.6030 O   0  0  0  0  0  0  0  0  0  0  0  0
    2.1659   67.1061   66.2407 H   0  0  0  0  0  0  0  0  0  0  0  0
   -0.8384   68.9082   64.9246 H   0  0  0  0  0  0  0  0  0  0  0  0
   -1.1326   69.5696   62.5445 H   0  0  0  0  0  0  0  0  0  0  0  0
    0.7675   69.3776   60.9469 H   0  0  0  0  0  0  0  0  0  0  0  0
    3.2789   67.8533   64.1227 H   0  0  0  0  0  0  0  0  0  0  0  0
    3.5608   68.8837   64.6339 H   0  0  0  0  0  0  0  0  0  0  0  0
    5.9355   69.5784   64.3309 H   0  0  0  0  0  0  0  0  0  0  0  0
    7.2258   70.5077   66.2462 H   0  0  0  0  0  0  0  0  0  0  0  0
    3.7611   70.0462   68.7932 H   0  0  0  0  0  0  0  0  0  0  0  0
    0.2111   67.3482   67.5930 H   0  0  0  0  0  0  0  0  0  0  0  0
  2  1  1  0
  3  2  2  0
  4  3  1  0
  5  4  2  0
  6  5  1  0
  7  6  2  0
  7  2  1  0
  8  6  1  0
  9  8  1  0
 10  8  1  0
 11  8  1  0
 13 12  2  0
 13  1  1  0
 14 13  1  0
 15 14  2  0
 16 15  1  0
 17 16  2  0
 18 17  1  0
 19 18  2  0
 19 14  1  0
 20 18  1  0
 21 20  1  0
 22 20  1  0
 23 20  1  0
 24  1  1  0
  1 25  1  6
  3 26  1  0
  4 27  1  0
  5 28  1  0
  7 29  1  0
 15 30  1  0
 16 31  1  0
 17 32  1  0
 19 33  1  0
 24 34  1  0
M  END
>  <score>  (6) 
-10.295

$$$$
=
     RDKit          3D

 34 35  0  0  0  0  0  0  0  0999 V2000
    2.3970   69.8800   68.1590 C   0  0  1  0  0  0  0  0  0  0  0  0
    3.7270   69.8340   67.4180 C   0  0  0  0  0  0  0  0  0  0  0  0
    4.9020   70.3220   68.0110 C   0  0  0  0  0  0  0  0  0  0  0  0
    6.1100   70.2980   67.3150 C   0  0  0  0  0  0  0  0  0  0  0  0
    6.1610   69.7930   66.0170 C   0  0  0  0  0  0  0  0  0  0  0  0
    4.9990   69.3130   65.3940 C   0  0  0  0  0  0  0  0  0  0  0  0
    3.7880   69.3350   66.1070 C   0  0  0  0  0  0  0  0  0  0  0  0
    5.0590   68.7470   63.9960 C   0  0  0  0  0  0  0  0  0  0  0  0
    4.3200   69.4580   63.1010 F   0  0  0  0  0  0  0  0  0  0  0  0
    6.3250   68.7180   63.4990 F   0  0  0  0  0  0  0  0  0  0  0  0
    4.5970   67.4660   63.9200 F   0  0  0  0  0  0  0  0  0  0  0  0
    1.7380   67.5470   68.3620 O   0  0  0  0  0  0  0  0  0  0  0  0
    1.5230   68.6430   67.8360 C   0  0  0  0  0  0  0  0  0  0  0  0
    0.4240   68.7220   66.8330 C   0  0  0  0  0  0  0  0  0  0  0  0
   -0.9260   68.6320   67.1800 C   0  0  0  0  0  0  0  0  0  0  0  0
   -1.9100   68.6830   66.1900 C   0  0  0  0  0  0  0  0  0  0  0  0
   -1.5510   68.8150   64.8480 C   0  0  0  0  0  0  0  0  0  0  0  0
   -0.2020   68.8950   64.4780 C   0  0  0  0  0  0  0  0  0  0  0  0
    0.7800   68.8360   65.4800 C   0  0  0  0  0  0  0  0  0  0  0  0
    0.1960   69.0030   63.0260 C   0  0  0  0  0  0  0  0  0  0  0  0
   -0.2880   70.1250   62.4230 F   0  0  0  0  0  0  0  0  0  0  0  0
   -0.2590   67.9560   62.2860 F   0  0  0  0  0  0  0  0  0  0  0  0
    1.5450   69.0380   62.8440 F   0  0  0  0  0  0  0  0  0  0  0  0
    2.6430   70.1960   69.5200 O   0  0  0  0  0  0  0  0  0  0  0  0
    1.7489   70.6947   67.8038 H   0  0  0  0  0  0  0  0  0  0  0  0
    4.8695   70.7267   69.0333 H   0  0  0  0  0  0  0  0  0  0  0  0
    7.0253   70.6787   67.7917 H   0  0  0  0  0  0  0  0  0  0  0  0
    7.1191   69.7706   65.4771 H   0  0  0  0  0  0  0  0  0  0  0  0
    2.8726   68.9549   65.6299 H   0  0  0  0  0  0  0  0  0  0  0  0
   -1.2149   68.5207   68.2355 H   0  0  0  0  0  0  0  0  0  0  0  0
   -2.9720   68.6189   66.4693 H   0  0  0  0  0  0  0  0  0  0  0  0
   -2.3326   68.8565   64.0751 H   0  0  0  0  0  0  0  0  0  0  0  0
    1.8431   68.8797   65.2008 H   0  0  0  0  0  0  0  0  0  0  0  0
    2.1502   69.5629   70.1000 H   0  0  0  0  0  0  0  0  0  0  0  0
  2  1  1  0
  3  2  2  0
  4  3  1  0
  5  4  2  0
  6  5  1  0
  7  6  2  0
  7  2  1  0
  8  6  1  0
  9  8  1  0
 10  8  1  0
 11  8  1  0
 13 12  2  0
 13  1  1  0
 14 13  1  0
 15 14  2  0
 16 15  1  0
 17 16  2  0
 18 17  1  0
 19 18  2  0
 19 14  1  0
 20 18  1  0
 21 20  1  0
 22 20  1  0
 23 20  1  0
 24  1  1  0
  1 25  1  6
  3 26  1  0
  4 27  1  0
  5 28  1  0
  7 29  1  0
 15 30  1  0
 16 31  1  0
 17 32  1  0
 19 33  1  0
 24 34  1  0
M  END
>  <score>  (7) 
-10.206

$$$$
=
     RDKit          3D

 34 35  0  0  0  0  0  0  0  0999 V2000
    4.0410   67.8800   64.4170 C   0  0  1  0  0  0  0  0  0  0  0  0
    4.4460   68.8590   65.5120 C   0  0  0  0  0  0  0  0  0  0  0  0
    5.6890   69.5090   65.4760 C   0  0  0  0  0  0  0  0  0  0  0  0
    6.0600   70.3860   66.4950 C   0  0  0  0  0  0  0  0  0  0  0  0
    5.1990   70.6190   67.5670 C   0  0  0  0  0  0  0  0  0  0  0  0
    3.9580   69.9700   67.6360 C   0  0  0  0  0  0  0  0  0  0  0  0
    3.5900   69.0950   66.6000 C   0  0  0  0  0  0  0  0  0  0  0  0
    3.0170   70.2390   68.7860 C   0  0  0  0  0  0  0  0  0  0  0  0
    2.6090   69.1040   69.4180 F   0  0  0  0  0  0  0  0  0  0  0  0
    3.5780   71.0220   69.7460 F   0  0  0  0  0  0  0  0  0  0  0  0
    1.8750   70.8770   68.4020 F   0  0  0  0  0  0  0  0  0  0  0  0
    3.8760   69.0810   62.3080 O   0  0  0  0  0  0  0  0  0  0  0  0
    3.2800   68.5910   63.2710 C   0  0  0  0  0  0  0  0  0  0  0  0
    1.8000   68.7550   63.3210 C   0  0  0  0  0  0  0  0  0  0  0  0
    1.0330   69.0550   62.1930 C   0  0  0  0  0  0  0  0  0  0  0  0
   -0.3490   69.2260   62.3090 C   0  0  0  0  0  0  0  0  0  0  0  0
   -0.9690   69.1090   63.5540 C   0  0  0  0  0  0  0  0  0  0  0  0
   -0.2160   68.8200   64.7000 C   0  0  0  0  0  0  0  0  0  0  0  0
    1.1730   68.6570   64.5730 C   0  0  0  0  0  0  0  0  0  0  0  0
   -0.8750   68.7260   66.0550 C   0  0  0  0  0  0  0  0  0  0  0  0
   -1.9860   69.5080   66.1630 F   0  0  0  0  0  0  0  0  0  0  0  0
   -0.0460   69.1140   67.0610 F   0  0  0  0  0  0  0  0  0  0  0  0
   -1.2800   67.4630   66.3630 F   0  0  0  0  0  0  0  0  0  0  0  0
    5.1620   67.0770   64.0860 O   0  0  0  0  0  0  0  0  0  0  0  0
    3.2823   67.1608   64.7592 H   0  0  0  0  0  0  0  0  0  0  0  0
    6.3765   69.3254   64.6372 H   0  0  0  0  0  0  0  0  0  0  0  0
    7.0342   70.8952   66.4530 H   0  0  0  0  0  0  0  0  0  0  0  0
    5.4955   71.3168   68.3640 H   0  0  0  0  0  0  0  0  0  0  0  0
    2.6155   68.5865   66.6419 H   0  0  0  0  0  0  0  0  0  0  0  0
    1.5180   69.1569   61.2110 H   0  0  0  0  0  0  0  0  0  0  0  0
   -0.9502   69.4535   61.4163 H   0  0  0  0  0  0  0  0  0  0  0  0
   -2.0575   69.2447   63.6363 H   0  0  0  0  0  0  0  0  0  0  0  0
    1.7784   68.4495   65.4676 H   0  0  0  0  0  0  0  0  0  0  0  0
    5.6000   66.7633   64.9166 H   0  0  0  0  0  0  0  0  0  0  0  0
  2  1  1  0
  3  2  2  0
  4  3  1  0
  5  4  2  0
  6  5  1  0
  7  6  2  0
  7  2  1  0
  8  6  1  0
  9  8  1  0
 10  8  1  0
 11  8  1  0
 13 12  2  0
 13  1  1  0
 14 13  1  0
 15 14  2  0
 16 15  1  0
 17 16  2  0
 18 17  1  0
 19 18  2  0
 19 14  1  0
 20 18  1  0
 21 20  1  0
 22 20  1  0
 23 20  1  0
 24  1  1  0
  1 25  1  1
  3 26  1  0
  4 27  1  0
  5 28  1  0
  7 29  1  0
 15 30  1  0
 16 31  1  0
 17 32  1  0
 19 33  1  0
 24 34  1  0
M  END
>  <score>  (8) 
-10.14

$$$$
=
     RDKit          3D

 34 35  0  0  0  0  0  0  0  0999 V2000
    2.6060   70.2810   68.4870 C   0  0  1  0  0  0  0  0  0  0  0  0
    4.0480   70.2320   67.9980 C   0  0  0  0  0  0  0  0  0  0  0  0
    4.3540   69.8280   66.6900 C   0  0  0  0  0  0  0  0  0  0  0  0
    5.6790   69.7650   66.2590 C   0  0  0  0  0  0  0  0  0  0  0  0
    6.7160   70.0960   67.1300 C   0  0  0  0  0  0  0  0  0  0  0  0
    6.4400   70.4890   68.4480 C   0  0  0  0  0  0  0  0  0  0  0  0
    5.1000   70.5570   68.8700 C   0  0  0  0  0  0  0  0  0  0  0  0
    7.5620   70.8680   69.3840 C   0  0  0  0  0  0  0  0  0  0  0  0
    7.1910   70.8510   70.6940 F   0  0  0  0  0  0  0  0  0  0  0  0
    8.6290   70.0310   69.2850 F   0  0  0  0  0  0  0  0  0  0  0  0
    8.0460   72.1220   69.1540 F   0  0  0  0  0  0  0  0  0  0  0  0
    2.0450   67.9290   68.7570 O   0  0  0  0  0  0  0  0  0  0  0  0
    1.8440   68.9790   68.1390 C   0  0  0  0  0  0  0  0  0  0  0  0
    0.8770   68.9360   67.0070 C   0  0  0  0  0  0  0  0  0  0  0  0
   -0.5020   69.0730   67.1810 C   0  0  0  0  0  0  0  0  0  0  0  0
   -1.3600   68.9950   66.0820 C   0  0  0  0  0  0  0  0  0  0  0  0
   -0.8470   68.7690   64.8040 C   0  0  0  0  0  0  0  0  0  0  0  0
    0.5320   68.6170   64.6080 C   0  0  0  0  0  0  0  0  0  0  0  0
    1.3860   68.6910   65.7210 C   0  0  0  0  0  0  0  0  0  0  0  0
    1.0920   68.3390   63.2350 C   0  0  0  0  0  0  0  0  0  0  0  0
    1.9180   67.2550   63.2050 F   0  0  0  0  0  0  0  0  0  0  0  0
    1.8250   69.3790   62.7540 F   0  0  0  0  0  0  0  0  0  0  0  0
    0.1270   68.0940   62.3050 F   0  0  0  0  0  0  0  0  0  0  0  0
    2.5960   70.7300   69.8330 O   0  0  0  0  0  0  0  0  0  0  0  0
    2.0059   71.0279   67.9466 H   0  0  0  0  0  0  0  0  0  0  0  0
    3.5421   69.5586   65.9984 H   0  0  0  0  0  0  0  0  0  0  0  0
    5.9064   69.4533   65.2289 H   0  0  0  0  0  0  0  0  0  0  0  0
    7.7582   70.0487   66.7812 H   0  0  0  0  0  0  0  0  0  0  0  0
    4.8722   70.8698   69.8997 H   0  0  0  0  0  0  0  0  0  0  0  0
   -0.9135   69.2429   68.1869 H   0  0  0  0  0  0  0  0  0  0  0  0
   -2.4445   69.1122   66.2242 H   0  0  0  0  0  0  0  0  0  0  0  0
   -1.5304   68.7097   63.9441 H   0  0  0  0  0  0  0  0  0  0  0  0
    2.4689   68.5551   65.5834 H   0  0  0  0  0  0  0  0  0  0  0  0
    2.6134   69.9492   70.4415 H   0  0  0  0  0  0  0  0  0  0  0  0
  2  1  1  0
  3  2  2  0
  4  3  1  0
  5  4  2  0
  6  5  1  0
  7  6  2  0
  7  2  1  0
  8  6  1  0
  9  8  1  0
 10  8  1  0
 11  8  1  0
 13 12  2  0
 13  1  1  0
 14 13  1  0
 15 14  2  0
 16 15  1  0
 17 16  2  0
 18 17  1  0
 19 18  2  0
 19 14  1  0
 20 18  1  0
 21 20  1  0
 22 20  1  0
 23 20  1  0
 24  1  1  0
  1 25  1  6
  3 26  1  0
  4 27  1  0
  5 28  1  0
  7 29  1  0
 15 30  1  0
 16 31  1  0
 17 32  1  0
 19 33  1  0
 24 34  1  0
M  END
>  <score>  (9) 
-9.973

$$$$
