=
     RDKit          3D

 17 17  0  0  0  0  0  0  0  0999 V2000
    3.4050   69.8360   67.7150 C   0  0  0  0  0  0  0  0  0  0  0  0
    4.0000   69.4920   66.4930 C   0  0  0  0  0  0  0  0  0  0  0  0
    5.3420   69.8000   66.2510 C   0  0  0  0  0  0  0  0  0  0  0  0
    6.0970   70.4570   67.2230 C   0  0  0  0  0  0  0  0  0  0  0  0
    5.5090   70.8180   68.4340 C   0  0  0  0  0  0  0  0  0  0  0  0
    4.1690   70.5180   68.6750 C   0  0  0  0  0  0  0  0  0  0  0  0
    1.1530   70.5240   68.4110 N   0  0  0  0  0  0  0  0  0  0  0  0
    1.9830   69.5150   68.0090 C   0  0  0  0  0  0  0  0  0  0  0  0
    1.5550   68.3750   67.8520 O   0  0  0  0  0  0  0  0  0  0  0  0
    3.6690   70.9260   69.8840 O   0  0  0  0  0  0  0  0  0  0  0  0
    3.4084   68.9776   65.7214 H   0  0  0  0  0  0  0  0  0  0  0  0
    5.8039   69.5236   65.2917 H   0  0  0  0  0  0  0  0  0  0  0  0
    7.1553   70.6899   67.0338 H   0  0  0  0  0  0  0  0  0  0  0  0
    6.1022   71.3396   69.1996 H   0  0  0  0  0  0  0  0  0  0  0  0
    0.1643   70.3251   68.6201 H   0  0  0  0  0  0  0  0  0  0  0  0
    1.5163   71.4832   68.5048 H   0  0  0  0  0  0  0  0  0  0  0  0
    4.2526   71.4041   70.5251 H   0  0  0  0  0  0  0  0  0  0  0  0
  2  1  2  0
  3  2  1  0
  4  3  2  0
  5  4  1  0
  6  1  1  0
  6  5  2  0
  8  7  1  0
  8  1  1  0
  9  8  2  0
 10  6  1  0
  2 11  1  0
  3 12  1  0
  4 13  1  0
  5 14  1  0
  7 15  1  0
  7 16  1  0
 10 17  1  0
M  END
>  <score>  (1) 
-6.832

$$$$
=
     RDKit          3D

 17 17  0  0  0  0  0  0  0  0999 V2000
    4.8160   70.4720   67.7550 C   0  0  0  0  0  0  0  0  0  0  0  0
    4.9780   69.9520   66.4630 C   0  0  0  0  0  0  0  0  0  0  0  0
    3.9540   69.2080   65.8700 C   0  0  0  0  0  0  0  0  0  0  0  0
    2.7650   68.9740   66.5620 C   0  0  0  0  0  0  0  0  0  0  0  0
    2.6020   69.4730   67.8530 C   0  0  0  0  0  0  0  0  0  0  0  0
    3.6250   70.2090   68.4500 C   0  0  0  0  0  0  0  0  0  0  0  0
    6.6960   70.6640   69.3230 N   0  0  0  0  0  0  0  0  0  0  0  0
    5.8810   71.2760   68.4110 C   0  0  0  0  0  0  0  0  0  0  0  0
    6.0510   72.4530   68.1090 O   0  0  0  0  0  0  0  0  0  0  0  0
    3.3870   70.6450   69.7270 O   0  0  0  0  0  0  0  0  0  0  0  0
    5.9144   70.1302   65.9140 H   0  0  0  0  0  0  0  0  0  0  0  0
    4.0858   68.8057   64.8547 H   0  0  0  0  0  0  0  0  0  0  0  0
    1.9572   68.3963   66.0890 H   0  0  0  0  0  0  0  0  0  0  0  0
    1.6666   69.2863   68.4009 H   0  0  0  0  0  0  0  0  0  0  0  0
    7.4406   71.2008   69.7901 H   0  0  0  0  0  0  0  0  0  0  0  0
    6.5651   69.6663   69.5427 H   0  0  0  0  0  0  0  0  0  0  0  0
    2.5285   70.4310   70.1712 H   0  0  0  0  0  0  0  0  0  0  0  0
  2  1  2  0
  3  2  1  0
  4  3  2  0
  5  4  1  0
  6  1  1  0
  6  5  2  0
  8  7  1  0
  8  1  1  0
  9  8  2  0
 10  6  1  0
  2 11  1  0
  3 12  1  0
  4 13  1  0
  5 14  1  0
  7 15  1  0
  7 16  1  0
 10 17  1  0
M  END
>  <score>  (2) 
-6.763

$$$$
=
     RDKit          3D

 17 17  0  0  0  0  0  0  0  0999 V2000
    3.8880   70.0440   67.6300 C   0  0  0  0  0  0  0  0  0  0  0  0
    3.2890   69.3810   66.5490 C   0  0  0  0  0  0  0  0  0  0  0  0
    4.0550   69.0090   65.4390 C   0  0  0  0  0  0  0  0  0  0  0  0
    5.4180   69.2990   65.3990 C   0  0  0  0  0  0  0  0  0  0  0  0
    6.0190   69.9720   66.4620 C   0  0  0  0  0  0  0  0  0  0  0  0
    5.2570   70.3500   67.5660 C   0  0  0  0  0  0  0  0  0  0  0  0
    1.7630   70.6570   68.6940 N   0  0  0  0  0  0  0  0  0  0  0  0
    3.1070   70.4440   68.8290 C   0  0  0  0  0  0  0  0  0  0  0  0
    3.6500   70.5400   69.9260 O   0  0  0  0  0  0  0  0  0  0  0  0
    5.9240   71.0220   68.5560 O   0  0  0  0  0  0  0  0  0  0  0  0
    2.2132   69.1527   66.5740 H   0  0  0  0  0  0  0  0  0  0  0  0
    3.5805   68.4862   64.5955 H   0  0  0  0  0  0  0  0  0  0  0  0
    6.0193   68.9969   64.5289 H   0  0  0  0  0  0  0  0  0  0  0  0
    7.0937   70.2044   66.4293 H   0  0  0  0  0  0  0  0  0  0  0  0
    1.2010   70.9350   69.5112 H   0  0  0  0  0  0  0  0  0  0  0  0
    1.3127   70.5395   67.7751 H   0  0  0  0  0  0  0  0  0  0  0  0
    6.8908   71.2123   68.4604 H   0  0  0  0  0  0  0  0  0  0  0  0
  2  1  2  0
  3  2  1  0
  4  3  2  0
  5  4  1  0
  6  1  1  0
  6  5  2  0
  8  7  1  0
  8  1  1  0
  9  8  2  0
 10  6  1  0
  2 11  1  0
  3 12  1  0
  4 13  1  0
  5 14  1  0
  7 15  1  0
  7 16  1  0
 10 17  1  0
M  END
>  <score>  (3) 
-6.616

$$$$
=
     RDKit          3D

 17 17  0  0  0  0  0  0  0  0999 V2000
    4.0260   70.0780   67.9170 C   0  0  0  0  0  0  0  0  0  0  0  0
    4.7540   70.5950   68.9980 C   0  0  0  0  0  0  0  0  0  0  0  0
    6.1170   70.8730   68.8600 C   0  0  0  0  0  0  0  0  0  0  0  0
    6.7640   70.6330   67.6480 C   0  0  0  0  0  0  0  0  0  0  0  0
    6.0520   70.1030   66.5730 C   0  0  0  0  0  0  0  0  0  0  0  0
    4.6940   69.8190   66.7090 C   0  0  0  0  0  0  0  0  0  0  0  0
    1.7690   70.6740   68.6750 N   0  0  0  0  0  0  0  0  0  0  0  0
    2.5740   69.7800   68.0250 C   0  0  0  0  0  0  0  0  0  0  0  0
    2.1020   68.7740   67.5040 O   0  0  0  0  0  0  0  0  0  0  0  0
    4.0780   69.2840   65.6080 O   0  0  0  0  0  0  0  0  0  0  0  0
    4.2508   70.7825   69.9580 H   0  0  0  0  0  0  0  0  0  0  0  0
    6.6815   71.2826   69.7106 H   0  0  0  0  0  0  0  0  0  0  0  0
    7.8346   70.8616   67.5405 H   0  0  0  0  0  0  0  0  0  0  0  0
    6.5616   69.9090   65.6177 H   0  0  0  0  0  0  0  0  0  0  0  0
    0.7595   70.4891   68.7625 H   0  0  0  0  0  0  0  0  0  0  0  0
    2.1721   71.5323   69.0771 H   0  0  0  0  0  0  0  0  0  0  0  0
    4.5968   69.1215   64.7806 H   0  0  0  0  0  0  0  0  0  0  0  0
  2  1  2  0
  3  2  1  0
  4  3  2  0
  5  4  1  0
  6  1  1  0
  6  5  2  0
  8  7  1  0
  8  1  1  0
  9  8  2  0
 10  6  1  0
  2 11  1  0
  3 12  1  0
  4 13  1  0
  5 14  1  0
  7 15  1  0
  7 16  1  0
 10 17  1  0
M  END
>  <score>  (4) 
-6.553

$$$$
=
     RDKit          3D

 17 17  0  0  0  0  0  0  0  0999 V2000
    4.5560   69.6260   66.3120 C   0  0  0  0  0  0  0  0  0  0  0  0
    3.2840   69.4270   66.8680 C   0  0  0  0  0  0  0  0  0  0  0  0
    3.0160   69.8370   68.1770 C   0  0  0  0  0  0  0  0  0  0  0  0
    4.0130   70.4440   68.9410 C   0  0  0  0  0  0  0  0  0  0  0  0
    5.2850   70.6310   68.4030 C   0  0  0  0  0  0  0  0  0  0  0  0
    5.5580   70.2160   67.1000 C   0  0  0  0  0  0  0  0  0  0  0  0
    6.0650   68.5870   64.6790 N   0  0  0  0  0  0  0  0  0  0  0  0
    4.8730   69.2110   64.9200 C   0  0  0  0  0  0  0  0  0  0  0  0
    4.0630   69.3880   64.0160 O   0  0  0  0  0  0  0  0  0  0  0  0
    6.8380   70.4220   66.6580 O   0  0  0  0  0  0  0  0  0  0  0  0
    2.4943   68.9465   66.2717 H   0  0  0  0  0  0  0  0  0  0  0  0
    2.0154   69.6805   68.6063 H   0  0  0  0  0  0  0  0  0  0  0  0
    3.7954   70.7748   69.9673 H   0  0  0  0  0  0  0  0  0  0  0  0
    6.0732   71.1057   69.0059 H   0  0  0  0  0  0  0  0  0  0  0  0
    6.3069   68.2902   63.7228 H   0  0  0  0  0  0  0  0  0  0  0  0
    6.7214   68.4136   65.4536 H   0  0  0  0  0  0  0  0  0  0  0  0
    7.5062   70.8426   67.2552 H   0  0  0  0  0  0  0  0  0  0  0  0
  2  1  2  0
  3  2  1  0
  4  3  2  0
  5  4  1  0
  6  1  1  0
  6  5  2  0
  8  7  1  0
  8  1  1  0
  9  8  2  0
 10  6  1  0
  2 11  1  0
  3 12  1  0
  4 13  1  0
  5 14  1  0
  7 15  1  0
  7 16  1  0
 10 17  1  0
M  END
>  <score>  (5) 
-6.428

$$$$
=
     RDKit          3D

 17 17  0  0  0  0  0  0  0  0999 V2000
    3.5590   68.7280   63.3180 C   0  0  0  0  0  0  0  0  0  0  0  0
    2.6110   68.7180   64.3510 C   0  0  0  0  0  0  0  0  0  0  0  0
    2.9680   69.1330   65.6380 C   0  0  0  0  0  0  0  0  0  0  0  0
    4.2700   69.5550   65.9040 C   0  0  0  0  0  0  0  0  0  0  0  0
    5.2240   69.5530   64.8860 C   0  0  0  0  0  0  0  0  0  0  0  0
    4.8730   69.1330   63.6040 C   0  0  0  0  0  0  0  0  0  0  0  0
    2.2340   68.9870   61.2680 N   0  0  0  0  0  0  0  0  0  0  0  0
    3.2120   68.3040   61.9360 C   0  0  0  0  0  0  0  0  0  0  0  0
    3.8200   67.3870   61.3920 O   0  0  0  0  0  0  0  0  0  0  0  0
    5.8760   69.1460   62.6710 O   0  0  0  0  0  0  0  0  0  0  0  0
    1.5831   68.3827   64.1485 H   0  0  0  0  0  0  0  0  0  0  0  0
    2.2188   69.1264   66.4434 H   0  0  0  0  0  0  0  0  0  0  0  0
    4.5447   69.8891   66.9154 H   0  0  0  0  0  0  0  0  0  0  0  0
    6.2525   69.8826   65.0949 H   0  0  0  0  0  0  0  0  0  0  0  0
    1.9764   68.7116   60.3095 H   0  0  0  0  0  0  0  0  0  0  0  0
    1.7548   69.7770   61.7232 H   0  0  0  0  0  0  0  0  0  0  0  0
    6.7858   69.4412   62.9264 H   0  0  0  0  0  0  0  0  0  0  0  0
  2  1  2  0
  3  2  1  0
  4  3  2  0
  5  4  1  0
  6  1  1  0
  6  5  2  0
  8  7  1  0
  8  1  1  0
  9  8  2  0
 10  6  1  0
  2 11  1  0
  3 12  1  0
  4 13  1  0
  5 14  1  0
  7 15  1  0
  7 16  1  0
 10 17  1  0
M  END
>  <score>  (6) 
-6.393

$$$$
=
     RDKit          3D

 17 17  0  0  0  0  0  0  0  0999 V2000
    3.0470   69.4900   67.0420 C   0  0  0  0  0  0  0  0  0  0  0  0
    4.2720   69.9340   67.5620 C   0  0  0  0  0  0  0  0  0  0  0  0
    5.3990   70.0150   66.7390 C   0  0  0  0  0  0  0  0  0  0  0  0
    5.3140   69.6490   65.3950 C   0  0  0  0  0  0  0  0  0  0  0  0
    4.1060   69.1900   64.8740 C   0  0  0  0  0  0  0  0  0  0  0  0
    2.9820   69.1020   65.6940 C   0  0  0  0  0  0  0  0  0  0  0  0
    1.3580   70.5410   68.4800 N   0  0  0  0  0  0  0  0  0  0  0  0
    1.8270   69.4020   67.8860 C   0  0  0  0  0  0  0  0  0  0  0  0
    1.2290   68.3370   68.0110 O   0  0  0  0  0  0  0  0  0  0  0  0
    1.8410   68.6250   65.1030 O   0  0  0  0  0  0  0  0  0  0  0  0
    4.3460   70.2196   68.6217 H   0  0  0  0  0  0  0  0  0  0  0  0
    6.3554   70.3682   67.1519 H   0  0  0  0  0  0  0  0  0  0  0  0
    6.2001   69.7228   64.7474 H   0  0  0  0  0  0  0  0  0  0  0  0
    4.0392   68.8971   63.8158 H   0  0  0  0  0  0  0  0  0  0  0  0
    0.5141   70.5045   69.0694 H   0  0  0  0  0  0  0  0  0  0  0  0
    1.8487   71.4354   68.3380 H   0  0  0  0  0  0  0  0  0  0  0  0
    1.8498   68.3652   64.1477 H   0  0  0  0  0  0  0  0  0  0  0  0
  2  1  2  0
  3  2  1  0
  4  3  2  0
  5  4  1  0
  6  1  1  0
  6  5  2  0
  8  7  1  0
  8  1  1  0
  9  8  2  0
 10  6  1  0
  2 11  1  0
  3 12  1  0
  4 13  1  0
  5 14  1  0
  7 15  1  0
  7 16  1  0
 10 17  1  0
M  END
>  <score>  (7) 
-6.315

$$$$
=
     RDKit          3D

 17 17  0  0  0  0  0  0  0  0999 V2000
    3.6540   68.7170   63.3400 C   0  0  0  0  0  0  0  0  0  0  0  0
    4.9240   69.2110   63.6720 C   0  0  0  0  0  0  0  0  0  0  0  0
    5.1970   69.6300   64.9780 C   0  0  0  0  0  0  0  0  0  0  0  0
    4.2070   69.5640   65.9580 C   0  0  0  0  0  0  0  0  0  0  0  0
    2.9370   69.0890   65.6330 C   0  0  0  0  0  0  0  0  0  0  0  0
    2.6600   68.6770   64.3310 C   0  0  0  0  0  0  0  0  0  0  0  0
    2.4140   68.9570   61.2350 N   0  0  0  0  0  0  0  0  0  0  0  0
    3.3320   68.2530   61.9650 C   0  0  0  0  0  0  0  0  0  0  0  0
    3.9100   67.2850   61.4800 O   0  0  0  0  0  0  0  0  0  0  0  0
    1.3810   68.2420   64.0960 O   0  0  0  0  0  0  0  0  0  0  0  0
    5.7079   69.2691   62.9025 H   0  0  0  0  0  0  0  0  0  0  0  0
    6.1961   70.0130   65.2332 H   0  0  0  0  0  0  0  0  0  0  0  0
    4.4278   69.8863   66.9863 H   0  0  0  0  0  0  0  0  0  0  0  0
    2.1541   69.0395   66.4041 H   0  0  0  0  0  0  0  0  0  0  0  0
    2.1744   68.6549   60.2799 H   0  0  0  0  0  0  0  0  0  0  0  0
    1.9623   69.7892   61.6405 H   0  0  0  0  0  0  0  0  0  0  0  0
    0.7179   68.2341   64.8311 H   0  0  0  0  0  0  0  0  0  0  0  0
  2  1  2  0
  3  2  1  0
  4  3  2  0
  5  4  1  0
  6  1  1  0
  6  5  2  0
  8  7  1  0
  8  1  1  0
  9  8  2  0
 10  6  1  0
  2 11  1  0
  3 12  1  0
  4 13  1  0
  5 14  1  0
  7 15  1  0
  7 16  1  0
 10 17  1  0
M  END
>  <score>  (8) 
-6.299

$$$$
=
     RDKit          3D

 17 17  0  0  0  0  0  0  0  0999 V2000
    3.7450   69.4430   66.7240 C   0  0  0  0  0  0  0  0  0  0  0  0
    5.0760   69.7640   66.4160 C   0  0  0  0  0  0  0  0  0  0  0  0
    5.8680   70.4470   67.3420 C   0  0  0  0  0  0  0  0  0  0  0  0
    5.3400   70.8200   68.5780 C   0  0  0  0  0  0  0  0  0  0  0  0
    4.0140   70.5200   68.8870 C   0  0  0  0  0  0  0  0  0  0  0  0
    3.2190   69.8450   67.9620 C   0  0  0  0  0  0  0  0  0  0  0  0
    2.9010   69.0730   64.4490 N   0  0  0  0  0  0  0  0  0  0  0  0
    2.8780   68.7080   65.7670 C   0  0  0  0  0  0  0  0  0  0  0  0
    2.1880   67.7660   66.1450 O   0  0  0  0  0  0  0  0  0  0  0  0
    1.9240   69.6080   68.3410 O   0  0  0  0  0  0  0  0  0  0  0  0
    5.4973   69.4766   65.4414 H   0  0  0  0  0  0  0  0  0  0  0  0
    6.9118   70.6916   67.0956 H   0  0  0  0  0  0  0  0  0  0  0  0
    5.9691   71.3503   69.3081 H   0  0  0  0  0  0  0  0  0  0  0  0
    3.5953   70.8158   69.8602 H   0  0  0  0  0  0  0  0  0  0  0  0
    2.3086   68.5780   63.7671 H   0  0  0  0  0  0  0  0  0  0  0  0
    3.5107   69.8429   64.1384 H   0  0  0  0  0  0  0  0  0  0  0  0
    1.6036   69.9133   69.2266 H   0  0  0  0  0  0  0  0  0  0  0  0
  2  1  2  0
  3  2  1  0
  4  3  2  0
  5  4  1  0
  6  1  1  0
  6  5  2  0
  8  7  1  0
  8  1  1  0
  9  8  2  0
 10  6  1  0
  2 11  1  0
  3 12  1  0
  4 13  1  0
  5 14  1  0
  7 15  1  0
  7 16  1  0
 10 17  1  0
M  END
>  <score>  (9) 
-6.156

$$$$
