=
     RDKit          3D

 46 47  0  0  0  0  0  0  0  0999 V2000
    2.1140   68.4630   66.2420 C   0  0  0  0  0  0  0  0  0  0  0  0
    1.5370   67.4430   67.3030 C   0  0  0  0  0  0  0  0  0  0  0  0
    0.1170   67.9070   66.9580 C   0  0  0  0  0  0  0  0  0  0  0  0
    0.7180   69.1910   66.3690 C   0  0  0  0  0  0  0  0  0  0  0  0
    3.4040   69.2880   66.8450 C   0  0  0  0  0  0  0  0  0  0  0  0
    3.3700   69.8500   68.1410 C   0  0  0  0  0  0  0  0  0  0  0  0
    4.4660   70.5270   68.6860 C   0  0  0  0  0  0  0  0  0  0  0  0
    5.6310   70.6690   67.9420 C   0  0  0  0  0  0  0  0  0  0  0  0
    5.7020   70.1410   66.6590 C   0  0  0  0  0  0  0  0  0  0  0  0
    4.6030   69.4640   66.1190 C   0  0  0  0  0  0  0  0  0  0  0  0
    6.9830   71.4900   68.6090 Cl  0  0  0  0  0  0  0  0  0  0  0  0
    2.5320   67.8490   64.8490 C   0  0  2  0  0  0  0  0  0  0  0  0
    1.9520   68.6540   63.6450 N   0  0  0  0  0  4  0  0  0  0  0  0
    2.8850   68.7150   62.4600 C   0  0  0  0  0  0  0  0  0  0  0  0
    0.5500   68.3100   63.2350 C   0  0  0  0  0  0  0  0  0  0  0  0
    2.2170   66.3460   64.6390 C   0  0  0  0  0  0  0  0  0  0  0  0
    4.6870   66.2790   64.1770 C   0  0  0  0  0  0  0  0  0  0  0  0
    3.3870   65.4680   64.1390 C   0  0  0  0  0  0  0  0  0  0  0  0
    3.5580   64.1960   64.9740 C   0  0  0  0  0  0  0  0  0  0  0  0
    1.7359   66.3870   67.0679 H   0  0  0  0  0  0  0  0  0  0  0  0
    1.8935   67.4544   68.3436 H   0  0  0  0  0  0  0  0  0  0  0  0
   -0.4032   67.2717   66.2261 H   0  0  0  0  0  0  0  0  0  0  0  0
   -0.6699   67.9478   67.7256 H   0  0  0  0  0  0  0  0  0  0  0  0
    0.2786   69.4948   65.4074 H   0  0  0  0  0  0  0  0  0  0  0  0
    0.6309   70.1481   66.9041 H   0  0  0  0  0  0  0  0  0  0  0  0
    2.4527   69.7520   68.7402 H   0  0  0  0  0  0  0  0  0  0  0  0
    4.4058   70.9460   69.7013 H   0  0  0  0  0  0  0  0  0  0  0  0
    6.6224   70.2552   66.0675 H   0  0  0  0  0  0  0  0  0  0  0  0
    4.6747   69.0570   65.0996 H   0  0  0  0  0  0  0  0  0  0  0  0
    3.6283   67.9336   64.8814 H   0  0  0  0  0  0  0  0  0  0  0  0
    1.8769   69.6056   64.0319 H   0  0  0  0  0  0  0  0  0  0  0  0
    3.9241   68.7829   62.8146 H   0  0  0  0  0  0  0  0  0  0  0  0
    2.7640   67.8070   61.8509 H   0  0  0  0  0  0  0  0  0  0  0  0
    2.6468   69.5995   61.8509 H   0  0  0  0  0  0  0  0  0  0  0  0
   -0.0677   68.1584   64.1325 H   0  0  0  0  0  0  0  0  0  0  0  0
    0.1310   69.1320   62.6360 H   0  0  0  0  0  0  0  0  0  0  0  0
    0.5591   67.3874   62.6360 H   0  0  0  0  0  0  0  0  0  0  0  0
    1.8773   65.9364   65.6017 H   0  0  0  0  0  0  0  0  0  0  0  0
    1.4607   66.3119   63.8409 H   0  0  0  0  0  0  0  0  0  0  0  0
    4.9762   66.4594   65.2229 H   0  0  0  0  0  0  0  0  0  0  0  0
    5.4843   65.7178   63.6677 H   0  0  0  0  0  0  0  0  0  0  0  0
    4.5335   67.2418   63.6677 H   0  0  0  0  0  0  0  0  0  0  0  0
    3.1530   65.1610   63.1090 H   0  0  0  0  0  0  0  0  0  0  0  0
    3.5236   64.4519   66.0433 H   0  0  0  0  0  0  0  0  0  0  0  0
    2.7465   63.4915   64.7393 H   0  0  0  0  0  0  0  0  0  0  0  0
    4.5268   63.7308   64.7393 H   0  0  0  0  0  0  0  0  0  0  0  0
  2  1  1  0
  3  2  1  0
  4  3  1  0
  4  1  1  0
  5  1  1  0
  6  5  2  0
  7  6  1  0
  8  7  2  0
  9  8  1  0
 10  5  1  0
 10  9  2  0
 11  8  1  0
 12  1  1  0
 13 12  1  0
 14 13  1  0
 15 13  1  0
 16 12  1  0
 18 17  1  0
 18 16  1  0
 19 18  1  0
  2 20  1  0
  2 21  1  0
  3 22  1  0
  3 23  1  0
  4 24  1  0
  4 25  1  0
  6 26  1  0
  7 27  1  0
  9 28  1  0
 10 29  1  0
 12 30  1  6
 13 31  1  0
 14 32  1  0
 14 33  1  0
 14 34  1  0
 15 35  1  0
 15 36  1  0
 15 37  1  0
 16 38  1  0
 16 39  1  0
 17 40  1  0
 17 41  1  0
 17 42  1  0
 18 43  1  0
 19 44  1  0
 19 45  1  0
 19 46  1  0
M  CHG  1  13   1
M  END
>  <score>  (1) 
-8.501

$$$$
=
     RDKit          3D

 46 47  0  0  0  0  0  0  0  0999 V2000
    4.0260   68.4810   64.3030 C   0  0  0  0  0  0  0  0  0  0  0  0
    4.5290   69.2200   62.9990 C   0  0  0  0  0  0  0  0  0  0  0  0
    4.8160   67.8580   62.3540 C   0  0  0  0  0  0  0  0  0  0  0  0
    4.8320   67.2370   63.7580 C   0  0  0  0  0  0  0  0  0  0  0  0
    4.6350   69.1840   65.6620 C   0  0  0  0  0  0  0  0  0  0  0  0
    6.0140   69.4650   65.7830 C   0  0  0  0  0  0  0  0  0  0  0  0
    6.5480   70.0900   66.9140 C   0  0  0  0  0  0  0  0  0  0  0  0
    5.7120   70.4480   67.9650 C   0  0  0  0  0  0  0  0  0  0  0  0
    4.3510   70.1800   67.8910 C   0  0  0  0  0  0  0  0  0  0  0  0
    3.8230   69.5540   66.7570 C   0  0  0  0  0  0  0  0  0  0  0  0
    6.3610   71.2260   69.3520 Cl  0  0  0  0  0  0  0  0  0  0  0  0
    2.4600   68.3630   64.4710 C   0  0  2  0  0  0  0  0  0  0  0  0
    2.0470   67.1630   65.3780 N   0  0  0  0  0  4  0  0  0  0  0  0
    0.8920   67.4760   66.2960 C   0  0  0  0  0  0  0  0  0  0  0  0
    1.8680   65.8430   64.6840 C   0  0  0  0  0  0  0  0  0  0  0  0
    1.6320   68.3050   63.1620 C   0  0  0  0  0  0  0  0  0  0  0  0
    0.4060   69.7310   61.4930 C   0  0  0  0  0  0  0  0  0  0  0  0
    0.5620   69.4080   62.9830 C   0  0  0  0  0  0  0  0  0  0  0  0
   -0.7960   68.9980   63.5590 C   0  0  0  0  0  0  0  0  0  0  0  0
    3.7534   69.8075   62.4860 H   0  0  0  0  0  0  0  0  0  0  0  0
    5.3128   69.9896   63.0572 H   0  0  0  0  0  0  0  0  0  0  0  0
    4.0122   67.4858   61.7017 H   0  0  0  0  0  0  0  0  0  0  0  0
    5.6611   67.7230   61.6629 H   0  0  0  0  0  0  0  0  0  0  0  0
    4.2925   66.2814   63.8346 H   0  0  0  0  0  0  0  0  0  0  0  0
    5.7799   66.9338   64.2265 H   0  0  0  0  0  0  0  0  0  0  0  0
    6.6891   69.1832   64.9615 H   0  0  0  0  0  0  0  0  0  0  0  0
    7.6267   70.2978   66.9718 H   0  0  0  0  0  0  0  0  0  0  0  0
    3.6889   70.4599   68.7236 H   0  0  0  0  0  0  0  0  0  0  0  0
    2.7440   69.3437   66.7168 H   0  0  0  0  0  0  0  0  0  0  0  0
    2.2085   69.3190   64.9535 H   0  0  0  0  0  0  0  0  0  0  0  0
    2.8834   67.0308   65.9644 H   0  0  0  0  0  0  0  0  0  0  0  0
    1.2205   67.3870   67.3420 H   0  0  0  0  0  0  0  0  0  0  0  0
    0.5415   68.5015   66.1078 H   0  0  0  0  0  0  0  0  0  0  0  0
    0.0716   66.7678   66.1078 H   0  0  0  0  0  0  0  0  0  0  0  0
    1.7599   65.0459   65.4343 H   0  0  0  0  0  0  0  0  0  0  0  0
    0.9665   65.8789   64.0547 H   0  0  0  0  0  0  0  0  0  0  0  0
    2.7465   65.6375   64.0547 H   0  0  0  0  0  0  0  0  0  0  0  0
    2.3332   68.3770   62.3175 H   0  0  0  0  0  0  0  0  0  0  0  0
    1.0746   67.3577   63.2071 H   0  0  0  0  0  0  0  0  0  0  0  0
   -0.0698   70.7162   61.3793 H   0  0  0  0  0  0  0  0  0  0  0  0
    1.3967   69.7449   61.0151 H   0  0  0  0  0  0  0  0  0  0  0  0
   -0.2208   68.9637   61.0151 H   0  0  0  0  0  0  0  0  0  0  0  0
    0.9043   70.2950   63.5363 H   0  0  0  0  0  0  0  0  0  0  0  0
   -0.7477   69.0126   64.6578 H   0  0  0  0  0  0  0  0  0  0  0  0
   -1.5676   69.7032   63.2165 H   0  0  0  0  0  0  0  0  0  0  0  0
   -1.0484   67.9836   63.2165 H   0  0  0  0  0  0  0  0  0  0  0  0
  2  1  1  0
  3  2  1  0
  4  3  1  0
  4  1  1  0
  5  1  1  0
  6  5  2  0
  7  6  1  0
  8  7  2  0
  9  8  1  0
 10  5  1  0
 10  9  2  0
 11  8  1  0
 12  1  1  0
 13 12  1  0
 14 13  1  0
 15 13  1  0
 16 12  1  0
 18 17  1  0
 18 16  1  0
 19 18  1  0
  2 20  1  0
  2 21  1  0
  3 22  1  0
  3 23  1  0
  4 24  1  0
  4 25  1  0
  6 26  1  0
  7 27  1  0
  9 28  1  0
 10 29  1  0
 12 30  1  1
 13 31  1  0
 14 32  1  0
 14 33  1  0
 14 34  1  0
 15 35  1  0
 15 36  1  0
 15 37  1  0
 16 38  1  0
 16 39  1  0
 17 40  1  0
 17 41  1  0
 17 42  1  0
 18 43  1  0
 19 44  1  0
 19 45  1  0
 19 46  1  0
M  CHG  1  13   1
M  END
>  <score>  (2) 
-7.885

$$$$
=
     RDKit          3D

 46 47  0  0  0  0  0  0  0  0999 V2000
    2.0280   68.3070   64.0840 C   0  0  0  0  0  0  0  0  0  0  0  0
    0.8770   69.3620   63.8320 C   0  0  0  0  0  0  0  0  0  0  0  0
    0.8300   68.9390   62.3590 C   0  0  0  0  0  0  0  0  0  0  0  0
    2.2390   68.3510   62.5190 C   0  0  0  0  0  0  0  0  0  0  0  0
    3.2450   68.9540   64.9840 C   0  0  0  0  0  0  0  0  0  0  0  0
    3.0430   69.3110   66.3370 C   0  0  0  0  0  0  0  0  0  0  0  0
    4.0710   69.8320   67.1290 C   0  0  0  0  0  0  0  0  0  0  0  0
    5.3360   70.0170   66.5850 C   0  0  0  0  0  0  0  0  0  0  0  0
    5.5750   69.6900   65.2560 C   0  0  0  0  0  0  0  0  0  0  0  0
    4.5420   69.1690   64.4680 C   0  0  0  0  0  0  0  0  0  0  0  0
    6.6050   70.6470   67.5550 Cl  0  0  0  0  0  0  0  0  0  0  0  0
    1.5860   66.9500   64.7580 C   0  0  2  0  0  0  0  0  0  0  0  0
    0.4980   67.1570   65.8570 N   0  0  0  0  0  4  0  0  0  0  0  0
    1.0480   67.1050   67.2610 C   0  0  0  0  0  0  0  0  0  0  0  0
   -0.4250   68.3250   65.6610 C   0  0  0  0  0  0  0  0  0  0  0  0
    2.7230   66.0730   65.3440 C   0  0  0  0  0  0  0  0  0  0  0  0
    4.4220   65.5750   63.5590 C   0  0  0  0  0  0  0  0  0  0  0  0
    3.2920   64.9820   64.4080 C   0  0  0  0  0  0  0  0  0  0  0  0
    3.8210   63.7710   65.1820 C   0  0  0  0  0  0  0  0  0  0  0  0
   -0.0498   69.1600   64.3890 H   0  0  0  0  0  0  0  0  0  0  0  0
    1.0133   70.4179   64.1085 H   0  0  0  0  0  0  0  0  0  0  0  0
    0.0524   68.1973   62.1241 H   0  0  0  0  0  0  0  0  0  0  0  0
    0.6049   69.6671   61.5657 H   0  0  0  0  0  0  0  0  0  0  0  0
    2.3709   67.3630   62.0537 H   0  0  0  0  0  0  0  0  0  0  0  0
    3.1121   68.8600   62.0846 H   0  0  0  0  0  0  0  0  0  0  0  0
    2.0457   69.1746   66.7807 H   0  0  0  0  0  0  0  0  0  0  0  0
    3.8787   70.0946   68.1797 H   0  0  0  0  0  0  0  0  0  0  0  0
    6.5751   69.8404   64.8234 H   0  0  0  0  0  0  0  0  0  0  0  0
    4.7464   68.9198   63.4163 H   0  0  0  0  0  0  0  0  0  0  0  0
    1.1741   66.3931   63.9035 H   0  0  0  0  0  0  0  0  0  0  0  0
   -0.1057   66.3325   65.7279 H   0  0  0  0  0  0  0  0  0  0  0  0
    0.2209   67.1832   67.9819 H   0  0  0  0  0  0  0  0  0  0  0  0
    1.5775   66.1528   67.4123 H   0  0  0  0  0  0  0  0  0  0  0  0
    1.7466   67.9411   67.4123 H   0  0  0  0  0  0  0  0  0  0  0  0
   -0.7343   68.7164   66.6414 H   0  0  0  0  0  0  0  0  0  0  0  0
    0.0962   69.1140   65.0990 H   0  0  0  0  0  0  0  0  0  0  0  0
   -1.3131   68.0003   65.0990 H   0  0  0  0  0  0  0  0  0  0  0  0
    3.5512   66.7402   65.6248 H   0  0  0  0  0  0  0  0  0  0  0  0
    2.2727   65.5316   66.1891 H   0  0  0  0  0  0  0  0  0  0  0  0
    5.2010   65.9838   64.2194 H   0  0  0  0  0  0  0  0  0  0  0  0
    4.8553   64.7881   62.9242 H   0  0  0  0  0  0  0  0  0  0  0  0
    4.0206   66.3787   62.9242 H   0  0  0  0  0  0  0  0  0  0  0  0
    2.4688   64.6343   63.7665 H   0  0  0  0  0  0  0  0  0  0  0  0
    3.7378   63.9614   66.2622 H   0  0  0  0  0  0  0  0  0  0  0  0
    3.2295   62.8814   64.9199 H   0  0  0  0  0  0  0  0  0  0  0  0
    4.8756   63.6004   64.9199 H   0  0  0  0  0  0  0  0  0  0  0  0
  2  1  1  0
  3  2  1  0
  4  3  1  0
  4  1  1  0
  5  1  1  0
  6  5  2  0
  7  6  1  0
  8  7  2  0
  9  8  1  0
 10  5  1  0
 10  9  2  0
 11  8  1  0
 12  1  1  0
 13 12  1  0
 14 13  1  0
 15 13  1  0
 16 12  1  0
 18 17  1  0
 18 16  1  0
 19 18  1  0
  2 20  1  0
  2 21  1  0
  3 22  1  0
  3 23  1  0
  4 24  1  0
  4 25  1  0
  6 26  1  0
  7 27  1  0
  9 28  1  0
 10 29  1  0
 12 30  1  6
 13 31  1  0
 14 32  1  0
 14 33  1  0
 14 34  1  0
 15 35  1  0
 15 36  1  0
 15 37  1  0
 16 38  1  0
 16 39  1  0
 17 40  1  0
 17 41  1  0
 17 42  1  0
 18 43  1  0
 19 44  1  0
 19 45  1  0
 19 46  1  0
M  CHG  1  13   1
M  END
>  <score>  (3) 
-7.8

$$$$
=
     RDKit          3D

 46 47  0  0  0  0  0  0  0  0999 V2000
    1.8100   68.4130   66.2620 C   0  0  0  0  0  0  0  0  0  0  0  0
    1.3150   67.3040   67.2740 C   0  0  0  0  0  0  0  0  0  0  0  0
   -0.1350   67.7330   67.0160 C   0  0  0  0  0  0  0  0  0  0  0  0
    0.3940   69.0760   66.4910 C   0  0  0  0  0  0  0  0  0  0  0  0
    3.0920   69.2480   66.8690 C   0  0  0  0  0  0  0  0  0  0  0  0
    3.0540   69.8040   68.1670 C   0  0  0  0  0  0  0  0  0  0  0  0
    4.1440   70.4890   68.7150 C   0  0  0  0  0  0  0  0  0  0  0  0
    5.3070   70.6440   67.9700 C   0  0  0  0  0  0  0  0  0  0  0  0
    5.3830   70.1230   66.6850 C   0  0  0  0  0  0  0  0  0  0  0  0
    4.2890   69.4380   66.1430 C   0  0  0  0  0  0  0  0  0  0  0  0
    6.6510   71.4750   68.6420 Cl  0  0  0  0  0  0  0  0  0  0  0  0
    2.1920   67.9090   64.8160 C   0  0  2  0  0  0  0  0  0  0  0  0
    3.2270   66.7420   64.8460 N   0  0  0  0  0  4  0  0  0  0  0  0
    2.5980   65.3800   64.6830 C   0  0  0  0  0  0  0  0  0  0  0  0
    4.4360   66.9080   63.9720 C   0  0  0  0  0  0  0  0  0  0  0  0
    2.6920   68.9890   63.8220 C   0  0  0  0  0  0  0  0  0  0  0  0
    2.6350   68.7640   61.3190 C   0  0  0  0  0  0  0  0  0  0  0  0
    1.8340   69.1960   62.5520 C   0  0  0  0  0  0  0  0  0  0  0  0
    0.5210   68.4100   62.6040 C   0  0  0  0  0  0  0  0  0  0  0  0
    1.5429   66.2743   66.9613 H   0  0  0  0  0  0  0  0  0  0  0  0
    1.7134   67.2617   68.2984 H   0  0  0  0  0  0  0  0  0  0  0  0
   -0.6612   67.1267   66.2640 H   0  0  0  0  0  0  0  0  0  0  0  0
   -0.8906   67.6924   67.8144 H   0  0  0  0  0  0  0  0  0  0  0  0
   -0.0953   69.4243   65.5694 H   0  0  0  0  0  0  0  0  0  0  0  0
    0.2938   69.9920   67.0917 H   0  0  0  0  0  0  0  0  0  0  0  0
    2.1380   69.6949   68.7662 H   0  0  0  0  0  0  0  0  0  0  0  0
    4.0807   70.9034   69.7320 H   0  0  0  0  0  0  0  0  0  0  0  0
    6.3019   70.2484   66.0936 H   0  0  0  0  0  0  0  0  0  0  0  0
    4.3636   69.0359   65.1219 H   0  0  0  0  0  0  0  0  0  0  0  0
    1.2221   67.5598   64.4321 H   0  0  0  0  0  0  0  0  0  0  0  0
    3.5984   66.8014   65.8049 H   0  0  0  0  0  0  0  0  0  0  0  0
    2.3982   64.9474   65.6744 H   0  0  0  0  0  0  0  0  0  0  0  0
    1.6533   65.4765   64.1279 H   0  0  0  0  0  0  0  0  0  0  0  0
    3.2840   64.7233   64.1279 H   0  0  0  0  0  0  0  0  0  0  0  0
    5.3296   67.0307   64.6017 H   0  0  0  0  0  0  0  0  0  0  0  0
    4.5544   66.0177   63.3369 H   0  0  0  0  0  0  0  0  0  0  0  0
    4.3100   67.7973   63.3369 H   0  0  0  0  0  0  0  0  0  0  0  0
    2.7324   69.9476   64.3600 H   0  0  0  0  0  0  0  0  0  0  0  0
    3.6681   68.6304   63.4633 H   0  0  0  0  0  0  0  0  0  0  0  0
    3.5611   68.2646   61.6399 H   0  0  0  0  0  0  0  0  0  0  0  0
    2.0331   68.0682   60.7160 H   0  0  0  0  0  0  0  0  0  0  0  0
    2.8858   69.6492   60.7160 H   0  0  0  0  0  0  0  0  0  0  0  0
    1.5810   70.2649   62.4938 H   0  0  0  0  0  0  0  0  0  0  0  0
    0.2368   68.2399   63.6529 H   0  0  0  0  0  0  0  0  0  0  0  0
   -0.2698   68.9833   62.0982 H   0  0  0  0  0  0  0  0  0  0  0  0
    0.6528   67.4421   62.0982 H   0  0  0  0  0  0  0  0  0  0  0  0
  2  1  1  0
  3  2  1  0
  4  3  1  0
  4  1  1  0
  5  1  1  0
  6  5  2  0
  7  6  1  0
  8  7  2  0
  9  8  1  0
 10  5  1  0
 10  9  2  0
 11  8  1  0
 12  1  1  0
 13 12  1  0
 14 13  1  0
 15 13  1  0
 16 12  1  0
 18 17  1  0
 18 16  1  0
 19 18  1  0
  2 20  1  0
  2 21  1  0
  3 22  1  0
  3 23  1  0
  4 24  1  0
  4 25  1  0
  6 26  1  0
  7 27  1  0
  9 28  1  0
 10 29  1  0
 12 30  1  6
 13 31  1  0
 14 32  1  0
 14 33  1  0
 14 34  1  0
 15 35  1  0
 15 36  1  0
 15 37  1  0
 16 38  1  0
 16 39  1  0
 17 40  1  0
 17 41  1  0
 17 42  1  0
 18 43  1  0
 19 44  1  0
 19 45  1  0
 19 46  1  0
M  CHG  1  13   1
M  END
>  <score>  (4) 
-7.729

$$$$
=
     RDKit          3D

 46 47  0  0  0  0  0  0  0  0999 V2000
    3.3380   67.0430   64.1780 C   0  0  0  0  0  0  0  0  0  0  0  0
    4.7750   66.4060   64.0120 C   0  0  0  0  0  0  0  0  0  0  0  0
    4.1280   65.0320   63.8030 C   0  0  0  0  0  0  0  0  0  0  0  0
    2.8560   65.5680   64.4750 C   0  0  0  0  0  0  0  0  0  0  0  0
    3.2870   68.0790   65.4560 C   0  0  0  0  0  0  0  0  0  0  0  0
    2.1920   68.0820   66.3500 C   0  0  0  0  0  0  0  0  0  0  0  0
    2.1430   68.9310   67.4610 C   0  0  0  0  0  0  0  0  0  0  0  0
    3.1910   69.8110   67.7050 C   0  0  0  0  0  0  0  0  0  0  0  0
    4.2810   69.8480   66.8450 C   0  0  0  0  0  0  0  0  0  0  0  0
    4.3250   68.9960   65.7360 C   0  0  0  0  0  0  0  0  0  0  0  0
    3.1410   70.8480   69.0730 Cl  0  0  0  0  0  0  0  0  0  0  0  0
    2.7640   67.7950   62.9140 C   0  0  2  0  0  0  0  0  0  0  0  0
    3.8830   68.2190   61.9140 N   0  0  0  0  0  4  0  0  0  0  0  0
    3.3500   68.6980   60.5860 C   0  0  0  0  0  0  0  0  0  0  0  0
    4.9400   69.1360   62.4560 C   0  0  0  0  0  0  0  0  0  0  0  0
    1.8610   69.0230   63.1980 C   0  0  0  0  0  0  0  0  0  0  0  0
   -0.4840   69.0220   64.1040 C   0  0  0  0  0  0  0  0  0  0  0  0
    0.3650   68.8660   62.8380 C   0  0  0  0  0  0  0  0  0  0  0  0
   -0.0910   69.8870   61.7920 C   0  0  0  0  0  0  0  0  0  0  0  0
    5.3352   66.7777   63.1414 H   0  0  0  0  0  0  0  0  0  0  0  0
    5.5456   66.5516   64.7834 H   0  0  0  0  0  0  0  0  0  0  0  0
    3.9988   64.7465   62.7486 H   0  0  0  0  0  0  0  0  0  0  0  0
    4.6161   64.1136   64.1612 H   0  0  0  0  0  0  0  0  0  0  0  0
    1.9232   65.2868   63.9643 H   0  0  0  0  0  0  0  0  0  0  0  0
    2.5883   65.2599   65.4965 H   0  0  0  0  0  0  0  0  0  0  0  0
    1.3523   67.3955   66.1665 H   0  0  0  0  0  0  0  0  0  0  0  0
    1.2776   68.9022   68.1395 H   0  0  0  0  0  0  0  0  0  0  0  0
    5.1090   70.5466   67.0356 H   0  0  0  0  0  0  0  0  0  0  0  0
    5.1933   69.0414   65.0622 H   0  0  0  0  0  0  0  0  0  0  0  0
    2.1135   67.0286   62.4673 H   0  0  0  0  0  0  0  0  0  0  0  0
    4.3784   67.3312   61.7485 H   0  0  0  0  0  0  0  0  0  0  0  0
    2.5417   69.4245   60.7558 H   0  0  0  0  0  0  0  0  0  0  0  0
    4.1603   69.1774   60.0171 H   0  0  0  0  0  0  0  0  0  0  0  0
    2.9596   67.8413   60.0171 H   0  0  0  0  0  0  0  0  0  0  0  0
    4.9153   69.1146   63.5555 H   0  0  0  0  0  0  0  0  0  0  0  0
    5.9283   68.8044   62.1049 H   0  0  0  0  0  0  0  0  0  0  0  0
    4.7512   70.1612   62.1049 H   0  0  0  0  0  0  0  0  0  0  0  0
    1.9262   69.2465   64.2731 H   0  0  0  0  0  0  0  0  0  0  0  0
    2.2390   69.8244   62.5462 H   0  0  0  0  0  0  0  0  0  0  0  0
    0.1556   68.9045   64.9912 H   0  0  0  0  0  0  0  0  0  0  0  0
   -0.9462   70.0201   64.1148 H   0  0  0  0  0  0  0  0  0  0  0  0
   -1.2709   68.2534   64.1148 H   0  0  0  0  0  0  0  0  0  0  0  0
    0.2321   67.8636   62.4050 H   0  0  0  0  0  0  0  0  0  0  0  0
   -0.4891   70.7784   62.2989 H   0  0  0  0  0  0  0  0  0  0  0  0
    0.7643   70.1743   61.1628 H   0  0  0  0  0  0  0  0  0  0  0  0
   -0.8758   69.4418   61.1628 H   0  0  0  0  0  0  0  0  0  0  0  0
  2  1  1  0
  3  2  1  0
  4  3  1  0
  4  1  1  0
  5  1  1  0
  6  5  2  0
  7  6  1  0
  8  7  2  0
  9  8  1  0
 10  5  1  0
 10  9  2  0
 11  8  1  0
 12  1  1  0
 13 12  1  0
 14 13  1  0
 15 13  1  0
 16 12  1  0
 18 17  1  0
 18 16  1  0
 19 18  1  0
  2 20  1  0
  2 21  1  0
  3 22  1  0
  3 23  1  0
  4 24  1  0
  4 25  1  0
  6 26  1  0
  7 27  1  0
  9 28  1  0
 10 29  1  0
 12 30  1  6
 13 31  1  0
 14 32  1  0
 14 33  1  0
 14 34  1  0
 15 35  1  0
 15 36  1  0
 15 37  1  0
 16 38  1  0
 16 39  1  0
 17 40  1  0
 17 41  1  0
 17 42  1  0
 18 43  1  0
 19 44  1  0
 19 45  1  0
 19 46  1  0
M  CHG  1  13   1
M  END
>  <score>  (5) 
-7.636

$$$$
=
     RDKit          3D

 46 47  0  0  0  0  0  0  0  0999 V2000
    2.8700   67.6170   64.8700 C   0  0  0  0  0  0  0  0  0  0  0  0
    3.7910   66.4210   64.3990 C   0  0  0  0  0  0  0  0  0  0  0  0
    2.6630   65.4370   64.7340 C   0  0  0  0  0  0  0  0  0  0  0  0
    2.0430   66.5120   65.6390 C   0  0  0  0  0  0  0  0  0  0  0  0
    3.7010   68.6730   65.8200 C   0  0  0  0  0  0  0  0  0  0  0  0
    4.9820   69.1390   65.4480 C   0  0  0  0  0  0  0  0  0  0  0  0
    5.6920   70.0610   66.2240 C   0  0  0  0  0  0  0  0  0  0  0  0
    5.1400   70.5400   67.4060 C   0  0  0  0  0  0  0  0  0  0  0  0
    3.8870   70.0990   67.8150 C   0  0  0  0  0  0  0  0  0  0  0  0
    3.1820   69.1770   67.0340 C   0  0  0  0  0  0  0  0  0  0  0  0
    6.0020   71.6790   68.3570 Cl  0  0  0  0  0  0  0  0  0  0  0  0
    2.1640   68.4400   63.7230 C   0  0  2  0  0  0  0  0  0  0  0  0
    0.6090   68.3320   63.7820 N   0  0  0  0  0  4  0  0  0  0  0  0
    0.0100   68.9840   65.0040 C   0  0  0  0  0  0  0  0  0  0  0  0
   -0.1270   68.7090   62.5290 C   0  0  0  0  0  0  0  0  0  0  0  0
    2.6280   68.1350   62.2750 C   0  0  0  0  0  0  0  0  0  0  0  0
    4.9880   68.9780   62.0730 C   0  0  0  0  0  0  0  0  0  0  0  0
    3.5410   69.1950   61.6150 C   0  0  0  0  0  0  0  0  0  0  0  0
    3.4800   69.1440   60.0860 C   0  0  0  0  0  0  0  0  0  0  0  0
    4.0604   66.4521   63.3330 H   0  0  0  0  0  0  0  0  0  0  0  0
    4.7968   66.2868   64.8236 H   0  0  0  0  0  0  0  0  0  0  0  0
    2.0388   65.1516   63.8744 H   0  0  0  0  0  0  0  0  0  0  0  0
    2.8825   64.4293   65.1165 H   0  0  0  0  0  0  0  0  0  0  0  0
    0.9523   66.6128   65.5375 H   0  0  0  0  0  0  0  0  0  0  0  0
    2.1034   66.4266   66.7340 H   0  0  0  0  0  0  0  0  0  0  0  0
    5.4354   68.7647   64.5183 H   0  0  0  0  0  0  0  0  0  0  0  0
    6.6848   70.4061   65.8995 H   0  0  0  0  0  0  0  0  0  0  0  0
    3.4500   70.4746   68.7520 H   0  0  0  0  0  0  0  0  0  0  0  0
    2.1940   68.8340   67.3751 H   0  0  0  0  0  0  0  0  0  0  0  0
    2.4906   69.4669   63.9437 H   0  0  0  0  0  0  0  0  0  0  0  0
    0.4609   67.3162   63.8666 H   0  0  0  0  0  0  0  0  0  0  0  0
    0.4326   68.5240   65.9094 H   0  0  0  0  0  0  0  0  0  0  0  0
    0.2418   70.0593   64.9967 H   0  0  0  0  0  0  0  0  0  0  0  0
   -1.0810   68.8440   64.9967 H   0  0  0  0  0  0  0  0  0  0  0  0
   -1.0771   69.1957   62.7942 H   0  0  0  0  0  0  0  0  0  0  0  0
    0.4879   69.4031   61.9373 H   0  0  0  0  0  0  0  0  0  0  0  0
   -0.3310   67.8044   61.9373 H   0  0  0  0  0  0  0  0  0  0  0  0
    3.1773   67.1821   62.2919 H   0  0  0  0  0  0  0  0  0  0  0  0
    1.7104   68.1168   61.6686 H   0  0  0  0  0  0  0  0  0  0  0  0
    5.0277   68.9721   63.1723 H   0  0  0  0  0  0  0  0  0  0  0  0
    5.3540   68.0149   61.6877 H   0  0  0  0  0  0  0  0  0  0  0  0
    5.6204   69.7913   61.6877 H   0  0  0  0  0  0  0  0  0  0  0  0
    3.1798   70.1852   61.9296 H   0  0  0  0  0  0  0  0  0  0  0  0
    2.6708   68.4675   59.7737 H   0  0  0  0  0  0  0  0  0  0  0  0
    3.2866   70.1530   59.6929 H   0  0  0  0  0  0  0  0  0  0  0  0
    4.4388   68.7749   59.6929 H   0  0  0  0  0  0  0  0  0  0  0  0
  2  1  1  0
  3  2  1  0
  4  3  1  0
  4  1  1  0
  5  1  1  0
  6  5  2  0
  7  6  1  0
  8  7  2  0
  9  8  1  0
 10  5  1  0
 10  9  2  0
 11  8  1  0
 12  1  1  0
 13 12  1  0
 14 13  1  0
 15 13  1  0
 16 12  1  0
 18 17  1  0
 18 16  1  0
 19 18  1  0
  2 20  1  0
  2 21  1  0
  3 22  1  0
  3 23  1  0
  4 24  1  0
  4 25  1  0
  6 26  1  0
  7 27  1  0
  9 28  1  0
 10 29  1  0
 12 30  1  1
 13 31  1  0
 14 32  1  0
 14 33  1  0
 14 34  1  0
 15 35  1  0
 15 36  1  0
 15 37  1  0
 16 38  1  0
 16 39  1  0
 17 40  1  0
 17 41  1  0
 17 42  1  0
 18 43  1  0
 19 44  1  0
 19 45  1  0
 19 46  1  0
M  CHG  1  13   1
M  END
>  <score>  (6) 
-7.391

$$$$
=
     RDKit          3D

 46 47  0  0  0  0  0  0  0  0999 V2000
    2.1140   69.0050   66.7190 C   0  0  0  0  0  0  0  0  0  0  0  0
    1.7840   67.5910   67.3430 C   0  0  0  0  0  0  0  0  0  0  0  0
    0.3200   68.0190   67.5080 C   0  0  0  0  0  0  0  0  0  0  0  0
    0.7750   69.4820   67.4090 C   0  0  0  0  0  0  0  0  0  0  0  0
    3.5010   69.6280   67.3500 C   0  0  0  0  0  0  0  0  0  0  0  0
    4.6870   69.6950   66.5850 C   0  0  0  0  0  0  0  0  0  0  0  0
    5.8670   70.2490   67.0900 C   0  0  0  0  0  0  0  0  0  0  0  0
    5.8960   70.7490   68.3860 C   0  0  0  0  0  0  0  0  0  0  0  0
    4.7550   70.6930   69.1770 C   0  0  0  0  0  0  0  0  0  0  0  0
    3.5770   70.1380   68.6660 C   0  0  0  0  0  0  0  0  0  0  0  0
    7.3400   71.4400   69.0080 Cl  0  0  0  0  0  0  0  0  0  0  0  0
    2.2240   69.0580   65.1450 C   0  0  2  0  0  0  0  0  0  0  0  0
    0.9580   68.4810   64.4390 N   0  0  0  0  0  4  0  0  0  0  0  0
    0.4030   69.3890   63.3690 C   0  0  0  0  0  0  0  0  0  0  0  0
    1.0540   67.0580   63.9710 C   0  0  0  0  0  0  0  0  0  0  0  0
    3.4820   68.4000   64.5230 C   0  0  0  0  0  0  0  0  0  0  0  0
    5.5760   69.1240   63.3350 C   0  0  0  0  0  0  0  0  0  0  0  0
    4.0470   69.0760   63.2520 C   0  0  0  0  0  0  0  0  0  0  0  0
    3.6310   68.3470   61.9720 C   0  0  0  0  0  0  0  0  0  0  0  0
    1.9321   66.7478   66.6523 H   0  0  0  0  0  0  0  0  0  0  0  0
    2.3567   67.2093   68.2011 H   0  0  0  0  0  0  0  0  0  0  0  0
   -0.3433   67.6933   66.6931 H   0  0  0  0  0  0  0  0  0  0  0  0
   -0.2831   67.6672   68.3580 H   0  0  0  0  0  0  0  0  0  0  0  0
    0.1373   70.1103   66.7698 H   0  0  0  0  0  0  0  0  0  0  0  0
    0.8018   70.1228   68.3027 H   0  0  0  0  0  0  0  0  0  0  0  0
    4.6817   69.2985   65.5590 H   0  0  0  0  0  0  0  0  0  0  0  0
    6.7700   70.2890   66.4631 H   0  0  0  0  0  0  0  0  0  0  0  0
    4.7780   71.0849   70.2046 H   0  0  0  0  0  0  0  0  0  0  0  0
    2.6839   70.0973   69.3069 H   0  0  0  0  0  0  0  0  0  0  0  0
    2.3147   70.1382   64.9582 H   0  0  0  0  0  0  0  0  0  0  0  0
    0.2722   68.4492   65.2068 H   0  0  0  0  0  0  0  0  0  0  0  0
   -0.1153   70.2370   63.8404 H   0  0  0  0  0  0  0  0  0  0  0  0
    1.2262   69.7643   62.7434 H   0  0  0  0  0  0  0  0  0  0  0  0
   -0.3064   68.8275   62.7434 H   0  0  0  0  0  0  0  0  0  0  0  0
    1.0992   66.3878   64.8421 H   0  0  0  0  0  0  0  0  0  0  0  0
    0.1705   66.8112   63.3640 H   0  0  0  0  0  0  0  0  0  0  0  0
    1.9627   66.9322   63.3640 H   0  0  0  0  0  0  0  0  0  0  0  0
    4.2746   68.4033   65.2857 H   0  0  0  0  0  0  0  0  0  0  0  0
    3.1635   67.3959   64.2062 H   0  0  0  0  0  0  0  0  0  0  0  0
    5.8858   69.1337   64.3904 H   0  0  0  0  0  0  0  0  0  0  0  0
    5.9982   68.2387   62.8371 H   0  0  0  0  0  0  0  0  0  0  0  0
    5.9418   70.0341   62.8371 H   0  0  0  0  0  0  0  0  0  0  0  0
    3.6308   70.0932   63.2061 H   0  0  0  0  0  0  0  0  0  0  0  0
    3.1015   67.4191   62.2341 H   0  0  0  0  0  0  0  0  0  0  0  0
    2.9662   68.9941   61.3810 H   0  0  0  0  0  0  0  0  0  0  0  0
    4.5263   68.1038   61.3810 H   0  0  0  0  0  0  0  0  0  0  0  0
  2  1  1  0
  3  2  1  0
  4  3  1  0
  4  1  1  0
  5  1  1  0
  6  5  2  0
  7  6  1  0
  8  7  2  0
  9  8  1  0
 10  5  1  0
 10  9  2  0
 11  8  1  0
 12  1  1  0
 13 12  1  0
 14 13  1  0
 15 13  1  0
 16 12  1  0
 18 17  1  0
 18 16  1  0
 19 18  1  0
  2 20  1  0
  2 21  1  0
  3 22  1  0
  3 23  1  0
  4 24  1  0
  4 25  1  0
  6 26  1  0
  7 27  1  0
  9 28  1  0
 10 29  1  0
 12 30  1  1
 13 31  1  0
 14 32  1  0
 14 33  1  0
 14 34  1  0
 15 35  1  0
 15 36  1  0
 15 37  1  0
 16 38  1  0
 16 39  1  0
 17 40  1  0
 17 41  1  0
 17 42  1  0
 18 43  1  0
 19 44  1  0
 19 45  1  0
 19 46  1  0
M  CHG  1  13   1
M  END
>  <score>  (7) 
-7.358

$$$$
=
     RDKit          3D

 46 47  0  0  0  0  0  0  0  0999 V2000
    2.7450   67.1130   64.6150 C   0  0  0  0  0  0  0  0  0  0  0  0
    2.1020   65.6850   64.8330 C   0  0  0  0  0  0  0  0  0  0  0  0
    3.4980   65.0560   64.7390 C   0  0  0  0  0  0  0  0  0  0  0  0
    3.9830   66.3270   64.0270 C   0  0  0  0  0  0  0  0  0  0  0  0
    1.8820   67.9970   63.5260 C   0  0  0  0  0  0  0  0  0  0  0  0
    0.5410   68.3600   63.7800 C   0  0  0  0  0  0  0  0  0  0  0  0
   -0.2010   69.1380   62.8850 C   0  0  0  0  0  0  0  0  0  0  0  0
    0.3820   69.5710   61.6990 C   0  0  0  0  0  0  0  0  0  0  0  0
    1.6950   69.2260   61.4060 C   0  0  0  0  0  0  0  0  0  0  0  0
    2.4320   68.4480   62.3060 C   0  0  0  0  0  0  0  0  0  0  0  0
   -0.5200   70.5340   60.6010 Cl  0  0  0  0  0  0  0  0  0  0  0  0
    2.9410   67.9880   65.9130 C   0  0  2  0  0  0  0  0  0  0  0  0
    1.6050   68.2180   66.6840 N   0  0  0  0  0  4  0  0  0  0  0  0
    1.2300   67.0690   67.5880 C   0  0  0  0  0  0  0  0  0  0  0  0
    1.4600   69.5430   67.3750 C   0  0  0  0  0  0  0  0  0  0  0  0
    3.6430   69.3570   65.7180 C   0  0  0  0  0  0  0  0  0  0  0  0
    5.5000   69.6500   64.0480 C   0  0  0  0  0  0  0  0  0  0  0  0
    5.1750   69.3130   65.5080 C   0  0  0  0  0  0  0  0  0  0  0  0
    5.9160   70.2850   66.4300 C   0  0  0  0  0  0  0  0  0  0  0  0
    1.6136   65.5548   65.8100 H   0  0  0  0  0  0  0  0  0  0  0  0
    1.2839   65.3337   64.1870 H   0  0  0  0  0  0  0  0  0  0  0  0
    3.9781   64.8683   65.7107 H   0  0  0  0  0  0  0  0  0  0  0  0
    3.6449   64.0621   64.2911 H   0  0  0  0  0  0  0  0  0  0  0  0
    4.9586   66.6955   64.3769 H   0  0  0  0  0  0  0  0  0  0  0  0
    4.1822   66.3226   62.9452 H   0  0  0  0  0  0  0  0  0  0  0  0
    0.0647   68.0201   64.7115 H   0  0  0  0  0  0  0  0  0  0  0  0
   -1.2419   69.4063   63.1185 H   0  0  0  0  0  0  0  0  0  0  0  0
    2.1558   69.5644   60.4662 H   0  0  0  0  0  0  0  0  0  0  0  0
    3.4692   68.1802   62.0560 H   0  0  0  0  0  0  0  0  0  0  0  0
    3.6299   67.3677   66.5052 H   0  0  0  0  0  0  0  0  0  0  0  0
    0.9139   68.2534   65.9211 H   0  0  0  0  0  0  0  0  0  0  0  0
    1.3316   67.3804   68.6381 H   0  0  0  0  0  0  0  0  0  0  0  0
    0.1887   66.7733   67.3924 H   0  0  0  0  0  0  0  0  0  0  0  0
    1.8964   66.2159   67.3924 H   0  0  0  0  0  0  0  0  0  0  0  0
    1.4765   69.3921   68.4645 H   0  0  0  0  0  0  0  0  0  0  0  0
    2.2914   70.2015   67.0834 H   0  0  0  0  0  0  0  0  0  0  0  0
    0.5058   70.0061   67.0834 H   0  0  0  0  0  0  0  0  0  0  0  0
    3.1968   69.8408   64.8366 H   0  0  0  0  0  0  0  0  0  0  0  0
    3.4897   69.9042   66.6598 H   0  0  0  0  0  0  0  0  0  0  0  0
    6.2633   70.4414   64.0155 H   0  0  0  0  0  0  0  0  0  0  0  0
    5.8814   68.7517   63.5405 H   0  0  0  0  0  0  0  0  0  0  0  0
    4.5885   69.9986   63.5405 H   0  0  0  0  0  0  0  0  0  0  0  0
    5.5140   68.2960   65.7547 H   0  0  0  0  0  0  0  0  0  0  0  0
    5.7148   70.0211   67.4788 H   0  0  0  0  0  0  0  0  0  0  0  0
    6.9971   70.2216   66.2368 H   0  0  0  0  0  0  0  0  0  0  0  0
    5.5685   71.3106   66.2368 H   0  0  0  0  0  0  0  0  0  0  0  0
  2  1  1  0
  3  2  1  0
  4  3  1  0
  4  1  1  0
  5  1  1  0
  6  5  2  0
  7  6  1  0
  8  7  2  0
  9  8  1  0
 10  5  1  0
 10  9  2  0
 11  8  1  0
 12  1  1  0
 13 12  1  0
 14 13  1  0
 15 13  1  0
 16 12  1  0
 18 17  1  0
 18 16  1  0
 19 18  1  0
  2 20  1  0
  2 21  1  0
  3 22  1  0
  3 23  1  0
  4 24  1  0
  4 25  1  0
  6 26  1  0
  7 27  1  0
  9 28  1  0
 10 29  1  0
 12 30  1  1
 13 31  1  0
 14 32  1  0
 14 33  1  0
 14 34  1  0
 15 35  1  0
 15 36  1  0
 15 37  1  0
 16 38  1  0
 16 39  1  0
 17 40  1  0
 17 41  1  0
 17 42  1  0
 18 43  1  0
 19 44  1  0
 19 45  1  0
 19 46  1  0
M  CHG  1  13   1
M  END
>  <score>  (8) 
-7.168

$$$$
=
     RDKit          3D

 46 47  0  0  0  0  0  0  0  0999 V2000
    2.6550   61.3080   72.5850 C   0  0  0  0  0  0  0  0  0  0  0  0
    3.0030   60.2240   71.4880 C   0  0  0  0  0  0  0  0  0  0  0  0
    4.3310   59.9450   72.2040 C   0  0  0  0  0  0  0  0  0  0  0  0
    4.2040   61.3100   72.8940 C   0  0  0  0  0  0  0  0  0  0  0  0
    2.0650   62.6840   71.8990 C   0  0  0  0  0  0  0  0  0  0  0  0
    2.7920   63.3740   70.9030 C   0  0  0  0  0  0  0  0  0  0  0  0
    2.2960   64.5260   70.2850 C   0  0  0  0  0  0  0  0  0  0  0  0
    1.0530   65.0270   70.6530 C   0  0  0  0  0  0  0  0  0  0  0  0
    0.3100   64.3850   71.6360 C   0  0  0  0  0  0  0  0  0  0  0  0
    0.8120   63.2330   72.2510 C   0  0  0  0  0  0  0  0  0  0  0  0
    0.4340   66.4350   69.8900 Cl  0  0  0  0  0  0  0  0  0  0  0  0
    1.6500   60.8530   73.7130 C   0  0  2  0  0  0  0  0  0  0  0  0
    2.1750   61.1810   75.1460 N   0  0  0  0  0  4  0  0  0  0  0  0
    1.2520   62.0820   75.9290 C   0  0  0  0  0  0  0  0  0  0  0  0
    2.6400   60.0110   75.9630 C   0  0  0  0  0  0  0  0  0  0  0  0
    1.2040   59.3680   73.6760 C   0  0  0  0  0  0  0  0  0  0  0  0
   -0.7640   58.3030   74.8230 C   0  0  0  0  0  0  0  0  0  0  0  0
   -0.3200   59.1170   73.6020 C   0  0  0  0  0  0  0  0  0  0  0  0
   -1.1220   60.4200   73.5430 C   0  0  0  0  0  0  0  0  0  0  0  0
    2.3137   59.3670   71.4661 H   0  0  0  0  0  0  0  0  0  0  0  0
    2.9854   60.4820   70.4188 H   0  0  0  0  0  0  0  0  0  0  0  0
    4.3056   59.0852   72.8897 H   0  0  0  0  0  0  0  0  0  0  0  0
    5.2357   59.6753   71.6394 H   0  0  0  0  0  0  0  0  0  0  0  0
    4.4499   61.2979   73.9661 H   0  0  0  0  0  0  0  0  0  0  0  0
    4.8363   62.1554   72.5851 H   0  0  0  0  0  0  0  0  0  0  0  0
    3.7796   62.9927   70.6043 H   0  0  0  0  0  0  0  0  0  0  0  0
    2.8880   65.0344   69.5097 H   0  0  0  0  0  0  0  0  0  0  0  0
   -0.6725   64.7823   71.9306 H   0  0  0  0  0  0  0  0  0  0  0  0
    0.2135   62.7404   73.0314 H   0  0  0  0  0  0  0  0  0  0  0  0
    0.7567   61.4509   73.4795 H   0  0  0  0  0  0  0  0  0  0  0  0
    3.0363   61.7108   74.9500 H   0  0  0  0  0  0  0  0  0  0  0  0
    1.4128   61.9250   77.0058 H   0  0  0  0  0  0  0  0  0  0  0  0
    1.4625   63.1316   75.6760 H   0  0  0  0  0  0  0  0  0  0  0  0
    0.2078   61.8462   75.6760 H   0  0  0  0  0  0  0  0  0  0  0  0
    2.5451   60.2498   77.0326 H   0  0  0  0  0  0  0  0  0  0  0  0
    2.0232   59.1311   75.7276 H   0  0  0  0  0  0  0  0  0  0  0  0
    3.6925   59.7946   75.7276 H   0  0  0  0  0  0  0  0  0  0  0  0
    1.6648   58.9006   72.7933 H   0  0  0  0  0  0  0  0  0  0  0  0
    1.5280   58.9382   74.6354 H   0  0  0  0  0  0  0  0  0  0  0  0
   -0.4747   58.8334   75.7422 H   0  0  0  0  0  0  0  0  0  0  0  0
   -1.8564   58.1759   74.8014 H   0  0  0  0  0  0  0  0  0  0  0  0
   -0.2795   57.3157   74.8014 H   0  0  0  0  0  0  0  0  0  0  0  0
   -0.5184   58.5612   72.6737 H   0  0  0  0  0  0  0  0  0  0  0  0
   -1.3350   60.7661   74.5652 H   0  0  0  0  0  0  0  0  0  0  0  0
   -0.5387   61.1858   73.0107 H   0  0  0  0  0  0  0  0  0  0  0  0
   -2.0685   60.2442   73.0107 H   0  0  0  0  0  0  0  0  0  0  0  0
  2  1  1  0
  3  2  1  0
  4  3  1  0
  4  1  1  0
  5  1  1  0
  6  5  2  0
  7  6  1  0
  8  7  2  0
  9  8  1  0
 10  5  1  0
 10  9  2  0
 11  8  1  0
 12  1  1  0
 13 12  1  0
 14 13  1  0
 15 13  1  0
 16 12  1  0
 18 17  1  0
 18 16  1  0
 19 18  1  0
  2 20  1  0
  2 21  1  0
  3 22  1  0
  3 23  1  0
  4 24  1  0
  4 25  1  0
  6 26  1  0
  7 27  1  0
  9 28  1  0
 10 29  1  0
 12 30  1  6
 13 31  1  0
 14 32  1  0
 14 33  1  0
 14 34  1  0
 15 35  1  0
 15 36  1  0
 15 37  1  0
 16 38  1  0
 16 39  1  0
 17 40  1  0
 17 41  1  0
 17 42  1  0
 18 43  1  0
 19 44  1  0
 19 45  1  0
 19 46  1  0
M  CHG  1  13   1
M  END
>  <score>  (9) 
-6.768

$$$$
