=
     RDKit          3D

 39 40  0  0  0  0  0  0  0  0999 V2000
   -0.0970   67.5010   66.8070 C   0  0  0  0  0  0  0  0  0  0  0  0
    1.7290   68.2900   63.0150 C   0  0  0  0  0  0  0  0  0  0  0  0
    2.3270   67.4160   63.9260 C   0  0  0  0  0  0  0  0  0  0  0  0
    3.7720   66.5280   63.6230 Cl  0  0  0  0  0  0  0  0  0  0  0  0
    1.7080   67.1740   65.1540 C   0  0  0  0  0  0  0  0  0  0  0  0
    0.5250   67.7540   65.4710 N   0  0  0  0  0  4  0  0  0  0  0  0
   -0.0750   68.5940   64.5900 C   0  0  0  0  0  0  0  0  0  0  0  0
    0.5050   68.8720   63.3520 C   0  0  0  0  0  0  0  0  0  0  0  0
   -0.3390   69.9690   62.3250 Cl  0  0  0  0  0  0  0  0  0  0  0  0
    3.5950   69.0210   61.6800 N   0  0  0  0  0  0  0  0  0  0  0  0
    2.3620   68.6400   61.7300 C   0  0  0  0  0  0  0  0  0  0  0  0
    3.9130   69.3110   60.3500 O   0  0  0  0  0  0  0  0  0  0  0  0
    0.8470   67.9570   67.9210 C   0  0  0  0  0  0  0  0  0  0  0  0
    1.0520   69.4790   67.9890 C   0  0  0  0  0  0  0  0  0  0  0  0
    2.4940   69.8470   67.9890 N   0  0  0  0  0  4  0  0  0  0  0  0
    3.0390   70.4790   69.0600 C   0  0  0  0  0  0  0  0  0  0  0  0
    4.3860   70.8260   69.0800 C   0  0  0  0  0  0  0  0  0  0  0  0
    5.1840   70.4970   67.9900 C   0  0  0  0  0  0  0  0  0  0  0  0
    4.6250   69.8070   66.9160 C   0  0  0  0  0  0  0  0  0  0  0  0
    3.2790   69.4730   66.9460 C   0  0  0  0  0  0  0  0  0  0  0  0
    6.6010   70.9140   67.8830 C   0  0  0  0  0  0  0  0  0  0  0  0
    7.0590   71.6860   68.7120 O   0  0  0  0  0  0  0  0  0  0  0  0
    7.3430   70.4170   66.8550 N   0  0  0  0  0  0  0  0  0  0  0  0
   -1.0422   68.0590   66.8799 H   0  0  0  0  0  0  0  0  0  0  0  0
   -0.2892   66.4235   66.9165 H   0  0  0  0  0  0  0  0  0  0  0  0
    2.1897   66.4999   65.8776 H   0  0  0  0  0  0  0  0  0  0  0  0
   -1.0337   69.0630   64.8562 H   0  0  0  0  0  0  0  0  0  0  0  0
    1.7760   68.5757   60.8013 H   0  0  0  0  0  0  0  0  0  0  0  0
    4.8233   69.6211   60.1150 H   0  0  0  0  0  0  0  0  0  0  0  0
    0.4329   67.6213   68.8832 H   0  0  0  0  0  0  0  0  0  0  0  0
    1.8304   67.5148   67.7030 H   0  0  0  0  0  0  0  0  0  0  0  0
    0.5671   69.9421   67.1170 H   0  0  0  0  0  0  0  0  0  0  0  0
    0.6088   69.8403   68.9287 H   0  0  0  0  0  0  0  0  0  0  0  0
    2.4051   70.7206   69.9259 H   0  0  0  0  0  0  0  0  0  0  0  0
    4.8136   71.3531   69.9457 H   0  0  0  0  0  0  0  0  0  0  0  0
    5.2460   69.5295   66.0515 H   0  0  0  0  0  0  0  0  0  0  0  0
    2.8426   68.8987   66.1155 H   0  0  0  0  0  0  0  0  0  0  0  0
    8.3314   70.6890   66.7547 H   0  0  0  0  0  0  0  0  0  0  0  0
    6.9159   69.7691   66.1777 H   0  0  0  0  0  0  0  0  0  0  0  0
  3  2  2  0
  4  3  1  0
  5  3  1  0
  6  5  2  0
  6  1  1  0
  7  6  1  0
  8  7  2  0
  8  2  1  0
  9  8  1  0
 11 10  2  0
 11  2  1  0
 12 10  1  0
 13  1  1  0
 14 13  1  0
 15 14  1  0
 16 15  2  0
 17 16  1  0
 18 17  2  0
 19 18  1  0
 20 19  2  0
 20 15  1  0
 21 18  1  0
 22 21  2  0
 23 21  1  0
  1 24  1  0
  1 25  1  0
  5 26  1  0
  7 27  1  0
 11 28  1  0
 12 29  1  0
 13 30  1  0
 13 31  1  0
 14 32  1  0
 14 33  1  0
 16 34  1  0
 17 35  1  0
 19 36  1  0
 20 37  1  0
 23 38  1  0
 23 39  1  0
M  CHG  2   6   1  15   1
M  END
>  <score>  (1) 
-9.084

$$$$
=
     RDKit          3D

 39 40  0  0  0  0  0  0  0  0999 V2000
   -0.0020   67.5860   66.4630 C   0  0  0  0  0  0  0  0  0  0  0  0
    2.2770   68.2170   62.8920 C   0  0  0  0  0  0  0  0  0  0  0  0
    1.0410   68.8430   63.0690 C   0  0  0  0  0  0  0  0  0  0  0  0
    0.3430   69.9570   61.9550 Cl  0  0  0  0  0  0  0  0  0  0  0  0
    0.3200   68.6230   64.2450 C   0  0  0  0  0  0  0  0  0  0  0  0
    0.8070   67.8290   65.2290 N   0  0  0  0  0  4  0  0  0  0  0  0
    2.0130   67.2260   65.0770 C   0  0  0  0  0  0  0  0  0  0  0  0
    2.7710   67.4100   63.9200 C   0  0  0  0  0  0  0  0  0  0  0  0
    4.2760   66.5760   63.8320 Cl  0  0  0  0  0  0  0  0  0  0  0  0
    2.6200   69.0730   60.6680 N   0  0  0  0  0  0  0  0  0  0  0  0
    3.0570   68.3550   61.6490 C   0  0  0  0  0  0  0  0  0  0  0  0
    3.5440   68.9990   59.6210 O   0  0  0  0  0  0  0  0  0  0  0  0
    0.8300   67.9010   67.7070 C   0  0  0  0  0  0  0  0  0  0  0  0
    1.0230   69.4030   67.9710 C   0  0  0  0  0  0  0  0  0  0  0  0
    2.4630   69.7790   68.0140 N   0  0  0  0  0  4  0  0  0  0  0  0
    3.0010   70.2990   69.1480 C   0  0  0  0  0  0  0  0  0  0  0  0
    4.3450   70.6510   69.2090 C   0  0  0  0  0  0  0  0  0  0  0  0
    5.1480   70.4440   68.0930 C   0  0  0  0  0  0  0  0  0  0  0  0
    4.5960   69.8660   66.9510 C   0  0  0  0  0  0  0  0  0  0  0  0
    3.2540   69.5210   66.9410 C   0  0  0  0  0  0  0  0  0  0  0  0
    6.5620   70.8800   68.0350 C   0  0  0  0  0  0  0  0  0  0  0  0
    7.0820   71.0770   66.9480 O   0  0  0  0  0  0  0  0  0  0  0  0
    7.2330   71.0460   69.2090 N   0  0  0  0  0  0  0  0  0  0  0  0
   -0.8923   68.2319   66.4475 H   0  0  0  0  0  0  0  0  0  0  0  0
   -0.3068   66.5295   66.4916 H   0  0  0  0  0  0  0  0  0  0  0  0
   -0.6611   69.1032   64.3746 H   0  0  0  0  0  0  0  0  0  0  0  0
    2.3998   66.5810   65.8797 H   0  0  0  0  0  0  0  0  0  0  0  0
    4.0243   67.8396   61.5554 H   0  0  0  0  0  0  0  0  0  0  0  0
    3.3770   69.4901   58.7778 H   0  0  0  0  0  0  0  0  0  0  0  0
    0.3270   67.4590   68.5797 H   0  0  0  0  0  0  0  0  0  0  0  0
    1.8309   67.4789   67.5336 H   0  0  0  0  0  0  0  0  0  0  0  0
    0.5310   69.9713   67.1679 H   0  0  0  0  0  0  0  0  0  0  0  0
    0.5805   69.6364   68.9507 H   0  0  0  0  0  0  0  0  0  0  0  0
    2.3631   70.4440   70.0323 H   0  0  0  0  0  0  0  0  0  0  0  0
    4.7666   71.0868   70.1268 H   0  0  0  0  0  0  0  0  0  0  0  0
    5.2212   69.6851   66.0642 H   0  0  0  0  0  0  0  0  0  0  0  0
    2.8247   69.0326   66.0538 H   0  0  0  0  0  0  0  0  0  0  0  0
    8.2176   71.3485   69.2011 H   0  0  0  0  0  0  0  0  0  0  0  0
    6.7557   70.8690   70.1044 H   0  0  0  0  0  0  0  0  0  0  0  0
  3  2  2  0
  4  3  1  0
  5  3  1  0
  6  5  2  0
  6  1  1  0
  7  6  1  0
  8  7  2  0
  8  2  1  0
  9  8  1  0
 11 10  2  0
 11  2  1  0
 12 10  1  0
 13  1  1  0
 14 13  1  0
 15 14  1  0
 16 15  2  0
 17 16  1  0
 18 17  2  0
 19 18  1  0
 20 19  2  0
 20 15  1  0
 21 18  1  0
 22 21  2  0
 23 21  1  0
  1 24  1  0
  1 25  1  0
  5 26  1  0
  7 27  1  0
 11 28  1  0
 12 29  1  0
 13 30  1  0
 13 31  1  0
 14 32  1  0
 14 33  1  0
 16 34  1  0
 17 35  1  0
 19 36  1  0
 20 37  1  0
 23 38  1  0
 23 39  1  0
M  CHG  2   6   1  15   1
M  END
>  <score>  (2) 
-8.72

$$$$
=
     RDKit          3D

 39 40  0  0  0  0  0  0  0  0999 V2000
    0.1890   65.8640   70.1600 C   0  0  0  0  0  0  0  0  0  0  0  0
    2.3290   62.3790   71.4330 C   0  0  0  0  0  0  0  0  0  0  0  0
    2.9920   63.4290   70.7920 C   0  0  0  0  0  0  0  0  0  0  0  0
    4.6910   63.4830   70.5090 Cl  0  0  0  0  0  0  0  0  0  0  0  0
    2.2710   64.5550   70.3900 C   0  0  0  0  0  0  0  0  0  0  0  0
    0.9410   64.6600   70.6310 N   0  0  0  0  0  4  0  0  0  0  0  0
    0.2870   63.6550   71.2670 C   0  0  0  0  0  0  0  0  0  0  0  0
    0.9610   62.5070   71.6840 C   0  0  0  0  0  0  0  0  0  0  0  0
    0.0210   61.2910   72.4620 Cl  0  0  0  0  0  0  0  0  0  0  0  0
    3.0860   60.1330   71.0120 N   0  0  0  0  0  0  0  0  0  0  0  0
    3.0180   61.1360   71.8230 C   0  0  0  0  0  0  0  0  0  0  0  0
    3.7660   59.0930   71.6530 O   0  0  0  0  0  0  0  0  0  0  0  0
    1.1590   66.8940   69.5780 C   0  0  0  0  0  0  0  0  0  0  0  0
    0.6250   67.6310   68.3400 C   0  0  0  0  0  0  0  0  0  0  0  0
    1.7270   68.1500   67.4830 N   0  0  0  0  0  4  0  0  0  0  0  0
    1.9340   67.6280   66.2460 C   0  0  0  0  0  0  0  0  0  0  0  0
    2.9550   68.1040   65.4290 C   0  0  0  0  0  0  0  0  0  0  0  0
    3.7570   69.1440   65.8870 C   0  0  0  0  0  0  0  0  0  0  0  0
    3.5050   69.7020   67.1380 C   0  0  0  0  0  0  0  0  0  0  0  0
    2.4690   69.2020   67.9120 C   0  0  0  0  0  0  0  0  0  0  0  0
    4.9260   69.6430   65.1270 C   0  0  0  0  0  0  0  0  0  0  0  0
    4.8920   69.6370   63.9060 O   0  0  0  0  0  0  0  0  0  0  0  0
    6.0040   70.0940   65.8280 N   0  0  0  0  0  0  0  0  0  0  0  0
   -0.5309   65.5632   69.3846 H   0  0  0  0  0  0  0  0  0  0  0  0
   -0.3442   66.3119   71.0116 H   0  0  0  0  0  0  0  0  0  0  0  0
    2.7915   65.3717   69.8683 H   0  0  0  0  0  0  0  0  0  0  0  0
   -0.7926   63.7473   71.4568 H   0  0  0  0  0  0  0  0  0  0  0  0
    3.4806   61.0614   72.8182 H   0  0  0  0  0  0  0  0  0  0  0  0
    3.9157   58.2352   71.1820 H   0  0  0  0  0  0  0  0  0  0  0  0
    1.3781   67.6400   70.3561 H   0  0  0  0  0  0  0  0  0  0  0  0
    2.0531   66.3402   69.2557 H   0  0  0  0  0  0  0  0  0  0  0  0
    0.0126   66.9346   67.7484 H   0  0  0  0  0  0  0  0  0  0  0  0
    0.0293   68.4889   68.6852 H   0  0  0  0  0  0  0  0  0  0  0  0
    1.2848   66.8168   65.8847 H   0  0  0  0  0  0  0  0  0  0  0  0
    3.1253   67.6641   64.4353 H   0  0  0  0  0  0  0  0  0  0  0  0
    4.1231   70.5329   67.5090 H   0  0  0  0  0  0  0  0  0  0  0  0
    2.2459   69.6635   68.8853 H   0  0  0  0  0  0  0  0  0  0  0  0
    6.8323   70.4473   65.3280 H   0  0  0  0  0  0  0  0  0  0  0  0
    5.9905   70.0816   66.8578 H   0  0  0  0  0  0  0  0  0  0  0  0
  3  2  2  0
  4  3  1  0
  5  3  1  0
  6  5  2  0
  6  1  1  0
  7  6  1  0
  8  7  2  0
  8  2  1  0
  9  8  1  0
 11 10  2  0
 11  2  1  0
 12 10  1  0
 13  1  1  0
 14 13  1  0
 15 14  1  0
 16 15  2  0
 17 16  1  0
 18 17  2  0
 19 18  1  0
 20 19  2  0
 20 15  1  0
 21 18  1  0
 22 21  2  0
 23 21  1  0
  1 24  1  0
  1 25  1  0
  5 26  1  0
  7 27  1  0
 11 28  1  0
 12 29  1  0
 13 30  1  0
 13 31  1  0
 14 32  1  0
 14 33  1  0
 16 34  1  0
 17 35  1  0
 19 36  1  0
 20 37  1  0
 23 38  1  0
 23 39  1  0
M  CHG  2   6   1  15   1
M  END
>  <score>  (3) 
-8.546

$$$$
=
     RDKit          3D

 39 40  0  0  0  0  0  0  0  0999 V2000
    0.2290   65.9550   70.1850 C   0  0  0  0  0  0  0  0  0  0  0  0
    2.4010   62.4900   71.4570 C   0  0  0  0  0  0  0  0  0  0  0  0
    1.0310   62.6040   71.7050 C   0  0  0  0  0  0  0  0  0  0  0  0
    0.0700   61.3860   72.4560 Cl  0  0  0  0  0  0  0  0  0  0  0  0
    0.3460   63.7430   71.2760 C   0  0  0  0  0  0  0  0  0  0  0  0
    0.9820   64.7330   70.6030 N   0  0  0  0  0  4  0  0  0  0  0  0
    2.3100   64.6290   70.3420 C   0  0  0  0  0  0  0  0  0  0  0  0
    3.0400   63.5130   70.7540 C   0  0  0  0  0  0  0  0  0  0  0  0
    4.7230   63.5030   70.3830 Cl  0  0  0  0  0  0  0  0  0  0  0  0
    3.5920   61.2860   73.1690 N   0  0  0  0  0  0  0  0  0  0  0  0
    3.1950   61.3460   71.9410 C   0  0  0  0  0  0  0  0  0  0  0  0
    4.3400   60.1150   73.3330 O   0  0  0  0  0  0  0  0  0  0  0  0
    1.1770   66.9540   69.5200 C   0  0  0  0  0  0  0  0  0  0  0  0
    0.6050   67.6210   68.2590 C   0  0  0  0  0  0  0  0  0  0  0  0
    1.6790   68.1100   67.3510 N   0  0  0  0  0  4  0  0  0  0  0  0
    1.8470   67.5490   66.1250 C   0  0  0  0  0  0  0  0  0  0  0  0
    2.8410   67.9960   65.2620 C   0  0  0  0  0  0  0  0  0  0  0  0
    3.6590   69.0480   65.6610 C   0  0  0  0  0  0  0  0  0  0  0  0
    3.4480   69.6460   66.9010 C   0  0  0  0  0  0  0  0  0  0  0  0
    2.4360   69.1730   67.7240 C   0  0  0  0  0  0  0  0  0  0  0  0
    4.8040   69.5210   64.8490 C   0  0  0  0  0  0  0  0  0  0  0  0
    4.7080   69.5310   63.6310 O   0  0  0  0  0  0  0  0  0  0  0  0
    5.9290   69.9290   65.4990 N   0  0  0  0  0  0  0  0  0  0  0  0
   -0.5588   65.6708   69.4719 H   0  0  0  0  0  0  0  0  0  0  0  0
   -0.2213   66.4221   71.0733 H   0  0  0  0  0  0  0  0  0  0  0  0
   -0.7291   63.8385   71.4881 H   0  0  0  0  0  0  0  0  0  0  0  0
    2.8192   65.4375   69.7969 H   0  0  0  0  0  0  0  0  0  0  0  0
    3.4530   60.5324   71.2471 H   0  0  0  0  0  0  0  0  0  0  0  0
    4.7303   59.8966   74.2162 H   0  0  0  0  0  0  0  0  0  0  0  0
    1.4149   67.7421   70.2495 H   0  0  0  0  0  0  0  0  0  0  0  0
    2.0637   66.3856   69.2027 H   0  0  0  0  0  0  0  0  0  0  0  0
   -0.0112   66.8879   67.7178 H   0  0  0  0  0  0  0  0  0  0  0  0
    0.0061   68.4879   68.5749 H   0  0  0  0  0  0  0  0  0  0  0  0
    1.1860   66.7280   65.8103 H   0  0  0  0  0  0  0  0  0  0  0  0
    2.9787   67.5246   64.2777 H   0  0  0  0  0  0  0  0  0  0  0  0
    4.0788   70.4868   67.2254 H   0  0  0  0  0  0  0  0  0  0  0  0
    2.2452   69.6649   68.6892 H   0  0  0  0  0  0  0  0  0  0  0  0
    6.7417   70.2632   64.9616 H   0  0  0  0  0  0  0  0  0  0  0  0
    5.9672   69.9034   66.5280 H   0  0  0  0  0  0  0  0  0  0  0  0
  3  2  2  0
  4  3  1  0
  5  3  1  0
  6  5  2  0
  6  1  1  0
  7  6  1  0
  8  7  2  0
  8  2  1  0
  9  8  1  0
 11 10  2  0
 11  2  1  0
 12 10  1  0
 13  1  1  0
 14 13  1  0
 15 14  1  0
 16 15  2  0
 17 16  1  0
 18 17  2  0
 19 18  1  0
 20 19  2  0
 20 15  1  0
 21 18  1  0
 22 21  2  0
 23 21  1  0
  1 24  1  0
  1 25  1  0
  5 26  1  0
  7 27  1  0
 11 28  1  0
 12 29  1  0
 13 30  1  0
 13 31  1  0
 14 32  1  0
 14 33  1  0
 16 34  1  0
 17 35  1  0
 19 36  1  0
 20 37  1  0
 23 38  1  0
 23 39  1  0
M  CHG  2   6   1  15   1
M  END
>  <score>  (4) 
-8.495

$$$$
=
     RDKit          3D

 39 40  0  0  0  0  0  0  0  0999 V2000
    0.6230   65.9950   70.6570 C   0  0  0  0  0  0  0  0  0  0  0  0
   -0.2510   68.0260   66.9900 C   0  0  0  0  0  0  0  0  0  0  0  0
    1.0040   68.1490   67.5920 C   0  0  0  0  0  0  0  0  0  0  0  0
    2.3240   69.0340   66.9260 Cl  0  0  0  0  0  0  0  0  0  0  0  0
    1.2640   67.4720   68.7860 C   0  0  0  0  0  0  0  0  0  0  0  0
    0.3270   66.6800   69.3620 N   0  0  0  0  0  4  0  0  0  0  0  0
   -0.8910   66.5400   68.7810 C   0  0  0  0  0  0  0  0  0  0  0  0
   -1.2020   67.1990   67.5900 C   0  0  0  0  0  0  0  0  0  0  0  0
   -2.7870   66.9600   66.9580 Cl  0  0  0  0  0  0  0  0  0  0  0  0
   -0.2450   68.3380   64.6030 N   0  0  0  0  0  0  0  0  0  0  0  0
   -0.6100   68.7650   65.7660 C   0  0  0  0  0  0  0  0  0  0  0  0
   -0.6980   69.2450   63.6390 O   0  0  0  0  0  0  0  0  0  0  0  0
    0.9500   64.5210   70.4090 C   0  0  0  0  0  0  0  0  0  0  0  0
    2.4530   64.2200   70.3020 C   0  0  0  0  0  0  0  0  0  0  0  0
    2.7450   62.7720   70.4890 N   0  0  0  0  0  4  0  0  0  0  0  0
    3.2940   62.0480   69.4790 C   0  0  0  0  0  0  0  0  0  0  0  0
    3.5780   60.6960   69.6370 C   0  0  0  0  0  0  0  0  0  0  0  0
    3.3130   60.0890   70.8600 C   0  0  0  0  0  0  0  0  0  0  0  0
    2.7940   60.8520   71.9040 C   0  0  0  0  0  0  0  0  0  0  0  0
    2.5370   62.1990   71.7020 C   0  0  0  0  0  0  0  0  0  0  0  0
    3.4910   58.6360   71.0840 C   0  0  0  0  0  0  0  0  0  0  0  0
    3.9120   57.9390   70.1740 O   0  0  0  0  0  0  0  0  0  0  0  0
    3.1750   58.1300   72.3090 N   0  0  0  0  0  0  0  0  0  0  0  0
    1.4836   66.4827   71.1382 H   0  0  0  0  0  0  0  0  0  0  0  0
   -0.2593   66.0632   71.3104 H   0  0  0  0  0  0  0  0  0  0  0  0
    2.2468   67.5837   69.2673 H   0  0  0  0  0  0  0  0  0  0  0  0
   -1.6461   65.8966   69.2562 H   0  0  0  0  0  0  0  0  0  0  0  0
   -1.1965   69.6923   65.8442 H   0  0  0  0  0  0  0  0  0  0  0  0
   -0.5110   69.0831   62.6804 H   0  0  0  0  0  0  0  0  0  0  0  0
    0.5382   63.9313   71.2413 H   0  0  0  0  0  0  0  0  0  0  0  0
    0.5042   64.2566   69.4387 H   0  0  0  0  0  0  0  0  0  0  0  0
    2.8073   64.5285   69.3074 H   0  0  0  0  0  0  0  0  0  0  0  0
    2.9692   64.7769   71.0978 H   0  0  0  0  0  0  0  0  0  0  0  0
    3.5175   62.5394   68.5206 H   0  0  0  0  0  0  0  0  0  0  0  0
    4.0060   60.1150   68.8068 H   0  0  0  0  0  0  0  0  0  0  0  0
    2.5898   60.3891   72.8807 H   0  0  0  0  0  0  0  0  0  0  0  0
    2.1600   62.8111   72.5346 H   0  0  0  0  0  0  0  0  0  0  0  0
    3.2881   57.1233   72.4952 H   0  0  0  0  0  0  0  0  0  0  0  0
    2.8230   58.7542   73.0489 H   0  0  0  0  0  0  0  0  0  0  0  0
  3  2  2  0
  4  3  1  0
  5  3  1  0
  6  5  2  0
  6  1  1  0
  7  6  1  0
  8  7  2  0
  8  2  1  0
  9  8  1  0
 11 10  2  0
 11  2  1  0
 12 10  1  0
 13  1  1  0
 14 13  1  0
 15 14  1  0
 16 15  2  0
 17 16  1  0
 18 17  2  0
 19 18  1  0
 20 19  2  0
 20 15  1  0
 21 18  1  0
 22 21  2  0
 23 21  1  0
  1 24  1  0
  1 25  1  0
  5 26  1  0
  7 27  1  0
 11 28  1  0
 12 29  1  0
 13 30  1  0
 13 31  1  0
 14 32  1  0
 14 33  1  0
 16 34  1  0
 17 35  1  0
 19 36  1  0
 20 37  1  0
 23 38  1  0
 23 39  1  0
M  CHG  2   6   1  15   1
M  END
>  <score>  (5) 
-8.354

$$$$
=
     RDKit          3D

 39 40  0  0  0  0  0  0  0  0999 V2000
    1.1320   66.2040   70.2560 C   0  0  0  0  0  0  0  0  0  0  0  0
   -0.3010   68.1920   66.7440 C   0  0  0  0  0  0  0  0  0  0  0  0
   -1.1590   67.4100   67.5210 C   0  0  0  0  0  0  0  0  0  0  0  0
   -2.8440   67.2140   67.2190 Cl  0  0  0  0  0  0  0  0  0  0  0  0
   -0.6670   66.7760   68.6630 C   0  0  0  0  0  0  0  0  0  0  0  0
    0.6260   66.9220   69.0460 N   0  0  0  0  0  4  0  0  0  0  0  0
    1.4670   67.6910   68.3090 C   0  0  0  0  0  0  0  0  0  0  0  0
    1.0240   68.3420   67.1570 C   0  0  0  0  0  0  0  0  0  0  0  0
    2.1880   69.2730   66.2930 Cl  0  0  0  0  0  0  0  0  0  0  0  0
   -0.4180   68.3390   64.3430 N   0  0  0  0  0  0  0  0  0  0  0  0
   -0.7410   68.8340   65.4920 C   0  0  0  0  0  0  0  0  0  0  0  0
   -0.9450   69.1640   63.3440 O   0  0  0  0  0  0  0  0  0  0  0  0
    0.3530   64.9030   70.4600 C   0  0  0  0  0  0  0  0  0  0  0  0
    0.7910   64.0940   71.6900 C   0  0  0  0  0  0  0  0  0  0  0  0
    1.5150   62.8500   71.3090 N   0  0  0  0  0  4  0  0  0  0  0  0
    2.2570   62.8110   70.1710 C   0  0  0  0  0  0  0  0  0  0  0  0
    2.9450   61.6610   69.8020 C   0  0  0  0  0  0  0  0  0  0  0  0
    2.8830   60.5430   70.6270 C   0  0  0  0  0  0  0  0  0  0  0  0
    2.1570   60.6090   71.8150 C   0  0  0  0  0  0  0  0  0  0  0  0
    1.4970   61.7820   72.1470 C   0  0  0  0  0  0  0  0  0  0  0  0
    3.5000   59.2470   70.2630 C   0  0  0  0  0  0  0  0  0  0  0  0
    4.0260   59.1240   69.1680 O   0  0  0  0  0  0  0  0  0  0  0  0
    3.4550   58.2340   71.1730 N   0  0  0  0  0  0  0  0  0  0  0  0
    2.1988   65.9719   70.1217 H   0  0  0  0  0  0  0  0  0  0  0  0
    0.9968   66.8466   71.1385 H   0  0  0  0  0  0  0  0  0  0  0  0
   -1.3402   66.1464   69.2634 H   0  0  0  0  0  0  0  0  0  0  0  0
    2.5147   67.8029   68.6248 H   0  0  0  0  0  0  0  0  0  0  0  0
   -1.3528   69.7471   65.5366 H   0  0  0  0  0  0  0  0  0  0  0  0
   -0.7985   68.9421   62.3904 H   0  0  0  0  0  0  0  0  0  0  0  0
   -0.7123   65.1527   70.5726 H   0  0  0  0  0  0  0  0  0  0  0  0
    0.5521   64.2737   69.5801 H   0  0  0  0  0  0  0  0  0  0  0  0
    1.4553   64.7170   72.3070 H   0  0  0  0  0  0  0  0  0  0  0  0
   -0.1127   63.8049   72.2466 H   0  0  0  0  0  0  0  0  0  0  0  0
    2.3140   63.7042   69.5315 H   0  0  0  0  0  0  0  0  0  0  0  0
    3.5301   61.6355   68.8709 H   0  0  0  0  0  0  0  0  0  0  0  0
    2.1081   59.7371   72.4839 H   0  0  0  0  0  0  0  0  0  0  0  0
    0.9524   61.8482   73.1004 H   0  0  0  0  0  0  0  0  0  0  0  0
    3.8756   57.3210   70.9485 H   0  0  0  0  0  0  0  0  0  0  0  0
    3.0004   58.3812   72.0855 H   0  0  0  0  0  0  0  0  0  0  0  0
  3  2  2  0
  4  3  1  0
  5  3  1  0
  6  5  2  0
  6  1  1  0
  7  6  1  0
  8  7  2  0
  8  2  1  0
  9  8  1  0
 11 10  2  0
 11  2  1  0
 12 10  1  0
 13  1  1  0
 14 13  1  0
 15 14  1  0
 16 15  2  0
 17 16  1  0
 18 17  2  0
 19 18  1  0
 20 19  2  0
 20 15  1  0
 21 18  1  0
 22 21  2  0
 23 21  1  0
  1 24  1  0
  1 25  1  0
  5 26  1  0
  7 27  1  0
 11 28  1  0
 12 29  1  0
 13 30  1  0
 13 31  1  0
 14 32  1  0
 14 33  1  0
 16 34  1  0
 17 35  1  0
 19 36  1  0
 20 37  1  0
 23 38  1  0
 23 39  1  0
M  CHG  2   6   1  15   1
M  END
>  <score>  (6) 
-8.272

$$$$
=
     RDKit          3D

 39 40  0  0  0  0  0  0  0  0999 V2000
    0.7780   64.1950   71.6720 C   0  0  0  0  0  0  0  0  0  0  0  0
    2.6990   60.3820   71.3280 C   0  0  0  0  0  0  0  0  0  0  0  0
    1.6920   60.5910   72.2730 C   0  0  0  0  0  0  0  0  0  0  0  0
    1.0720   59.3740   73.3240 Cl  0  0  0  0  0  0  0  0  0  0  0  0
    1.0800   61.8430   72.3620 C   0  0  0  0  0  0  0  0  0  0  0  0
    1.4290   62.8560   71.5320 N   0  0  0  0  0  4  0  0  0  0  0  0
    2.3950   62.6630   70.5980 C   0  0  0  0  0  0  0  0  0  0  0  0
    3.0400   61.4320   70.4720 C   0  0  0  0  0  0  0  0  0  0  0  0
    4.2640   61.3140   69.2650 Cl  0  0  0  0  0  0  0  0  0  0  0  0
    3.0250   58.1710   70.4310 N   0  0  0  0  0  0  0  0  0  0  0  0
    3.4300   59.1060   71.2270 C   0  0  0  0  0  0  0  0  0  0  0  0
    3.8860   57.0770   70.5640 O   0  0  0  0  0  0  0  0  0  0  0  0
    0.4200   64.7520   70.2930 C   0  0  0  0  0  0  0  0  0  0  0  0
    0.9400   66.1750   70.0350 C   0  0  0  0  0  0  0  0  0  0  0  0
    0.2230   66.8340   68.9100 N   0  0  0  0  0  4  0  0  0  0  0  0
   -1.0590   66.4890   68.6190 C   0  0  0  0  0  0  0  0  0  0  0  0
   -1.7470   67.0980   67.5750 C   0  0  0  0  0  0  0  0  0  0  0  0
   -1.1110   68.0900   66.8360 C   0  0  0  0  0  0  0  0  0  0  0  0
    0.1860   68.4690   67.1730 C   0  0  0  0  0  0  0  0  0  0  0  0
    0.8280   67.8410   68.2290 C   0  0  0  0  0  0  0  0  0  0  0  0
   -1.7310   68.7190   65.6470 C   0  0  0  0  0  0  0  0  0  0  0  0
   -2.9190   69.0040   65.6740 O   0  0  0  0  0  0  0  0  0  0  0  0
   -0.9440   68.9580   64.5610 N   0  0  0  0  0  0  0  0  0  0  0  0
   -0.1381   64.0932   72.2723 H   0  0  0  0  0  0  0  0  0  0  0  0
    1.4762   64.8847   72.1688 H   0  0  0  0  0  0  0  0  0  0  0  0
    0.3003   62.0101   73.1197 H   0  0  0  0  0  0  0  0  0  0  0  0
    2.6740   63.4907   69.9294 H   0  0  0  0  0  0  0  0  0  0  0  0
    4.3317   58.9472   71.8367 H   0  0  0  0  0  0  0  0  0  0  0  0
    3.7331   56.2587   70.0281 H   0  0  0  0  0  0  0  0  0  0  0  0
    0.8470   64.0848   69.5298 H   0  0  0  0  0  0  0  0  0  0  0  0
   -0.6779   64.8031   70.2476 H   0  0  0  0  0  0  0  0  0  0  0  0
    0.7996   66.7752   70.9460 H   0  0  0  0  0  0  0  0  0  0  0  0
    2.0042   66.1047   69.7655 H   0  0  0  0  0  0  0  0  0  0  0  0
   -1.5606   65.7155   69.2190 H   0  0  0  0  0  0  0  0  0  0  0  0
   -2.7787   66.7996   67.3372 H   0  0  0  0  0  0  0  0  0  0  0  0
    0.6971   69.2607   66.6056 H   0  0  0  0  0  0  0  0  0  0  0  0
    1.8394   68.1622   68.5187 H   0  0  0  0  0  0  0  0  0  0  0  0
   -1.3465   69.3943   63.7193 H   0  0  0  0  0  0  0  0  0  0  0  0
    0.0536   68.7024   64.5816 H   0  0  0  0  0  0  0  0  0  0  0  0
  3  2  2  0
  4  3  1  0
  5  3  1  0
  6  5  2  0
  6  1  1  0
  7  6  1  0
  8  7  2  0
  8  2  1  0
  9  8  1  0
 11 10  2  0
 11  2  1  0
 12 10  1  0
 13  1  1  0
 14 13  1  0
 15 14  1  0
 16 15  2  0
 17 16  1  0
 18 17  2  0
 19 18  1  0
 20 19  2  0
 20 15  1  0
 21 18  1  0
 22 21  2  0
 23 21  1  0
  1 24  1  0
  1 25  1  0
  5 26  1  0
  7 27  1  0
 11 28  1  0
 12 29  1  0
 13 30  1  0
 13 31  1  0
 14 32  1  0
 14 33  1  0
 16 34  1  0
 17 35  1  0
 19 36  1  0
 20 37  1  0
 23 38  1  0
 23 39  1  0
M  CHG  2   6   1  15   1
M  END
>  <score>  (7) 
-8.176

$$$$
=
     RDKit          3D

 39 40  0  0  0  0  0  0  0  0999 V2000
    0.4150   68.3440   67.8540 C   0  0  0  0  0  0  0  0  0  0  0  0
    3.1750   68.9950   64.6440 C   0  0  0  0  0  0  0  0  0  0  0  0
    1.8600   68.6020   64.3850 C   0  0  0  0  0  0  0  0  0  0  0  0
    1.1910   68.4100   62.8090 Cl  0  0  0  0  0  0  0  0  0  0  0  0
    0.9800   68.4010   65.4500 C   0  0  0  0  0  0  0  0  0  0  0  0
    1.3710   68.5990   66.7320 N   0  0  0  0  0  4  0  0  0  0  0  0
    2.6410   68.9960   66.9980 C   0  0  0  0  0  0  0  0  0  0  0  0
    3.5610   69.2060   65.9700 C   0  0  0  0  0  0  0  0  0  0  0  0
    5.1490   69.6880   66.4310 Cl  0  0  0  0  0  0  0  0  0  0  0  0
    4.8450   68.1510   63.1290 N   0  0  0  0  0  0  0  0  0  0  0  0
    4.1710   69.1610   63.5710 C   0  0  0  0  0  0  0  0  0  0  0  0
    5.7260   68.6060   62.1430 O   0  0  0  0  0  0  0  0  0  0  0  0
    0.5960   66.9200   68.3840 C   0  0  0  0  0  0  0  0  0  0  0  0
    1.2450   66.8450   69.7750 C   0  0  0  0  0  0  0  0  0  0  0  0
    1.3340   65.4450   70.2730 N   0  0  0  0  0  4  0  0  0  0  0  0
    2.4950   64.7500   70.1570 C   0  0  0  0  0  0  0  0  0  0  0  0
    2.5980   63.4430   70.6210 C   0  0  0  0  0  0  0  0  0  0  0  0
    1.4960   62.8540   71.2320 C   0  0  0  0  0  0  0  0  0  0  0  0
    0.3250   63.5930   71.3870 C   0  0  0  0  0  0  0  0  0  0  0  0
    0.2730   64.8970   70.9180 C   0  0  0  0  0  0  0  0  0  0  0  0
    1.4850   61.4380   71.6640 C   0  0  0  0  0  0  0  0  0  0  0  0
    0.5390   61.0190   72.3130 O   0  0  0  0  0  0  0  0  0  0  0  0
    2.5410   60.6510   71.3170 N   0  0  0  0  0  0  0  0  0  0  0  0
    0.6063   69.0615   68.6655 H   0  0  0  0  0  0  0  0  0  0  0  0
   -0.6143   68.4632   67.4848 H   0  0  0  0  0  0  0  0  0  0  0  0
   -0.0505   68.0757   65.2444 H   0  0  0  0  0  0  0  0  0  0  0  0
    2.9505   69.1550   68.0415 H   0  0  0  0  0  0  0  0  0  0  0  0
    4.3432   70.1584   63.1403 H   0  0  0  0  0  0  0  0  0  0  0  0
    6.3295   67.9681   61.6859 H   0  0  0  0  0  0  0  0  0  0  0  0
   -0.3939   66.4435   68.4387 H   0  0  0  0  0  0  0  0  0  0  0  0
    1.2769   66.4073   67.6887 H   0  0  0  0  0  0  0  0  0  0  0  0
    2.2593   67.2667   69.7170 H   0  0  0  0  0  0  0  0  0  0  0  0
    0.6168   67.4157   70.4747 H   0  0  0  0  0  0  0  0  0  0  0  0
    3.3678   65.2284   69.6886 H   0  0  0  0  0  0  0  0  0  0  0  0
    3.5378   62.8829   70.5064 H   0  0  0  0  0  0  0  0  0  0  0  0
   -0.5518   63.1454   71.8778 H   0  0  0  0  0  0  0  0  0  0  0  0
   -0.6383   65.4939   71.0704 H   0  0  0  0  0  0  0  0  0  0  0  0
    2.5619   59.6617   71.6030 H   0  0  0  0  0  0  0  0  0  0  0  0
    3.3187   61.0451   70.7686 H   0  0  0  0  0  0  0  0  0  0  0  0
  3  2  2  0
  4  3  1  0
  5  3  1  0
  6  5  2  0
  6  1  1  0
  7  6  1  0
  8  7  2  0
  8  2  1  0
  9  8  1  0
 11 10  2  0
 11  2  1  0
 12 10  1  0
 13  1  1  0
 14 13  1  0
 15 14  1  0
 16 15  2  0
 17 16  1  0
 18 17  2  0
 19 18  1  0
 20 19  2  0
 20 15  1  0
 21 18  1  0
 22 21  2  0
 23 21  1  0
  1 24  1  0
  1 25  1  0
  5 26  1  0
  7 27  1  0
 11 28  1  0
 12 29  1  0
 13 30  1  0
 13 31  1  0
 14 32  1  0
 14 33  1  0
 16 34  1  0
 17 35  1  0
 19 36  1  0
 20 37  1  0
 23 38  1  0
 23 39  1  0
M  CHG  2   6   1  15   1
M  END
>  <score>  (8) 
-7.883

$$$$
=
     RDKit          3D

 39 40  0  0  0  0  0  0  0  0999 V2000
    0.4110   68.3730   67.9960 C   0  0  0  0  0  0  0  0  0  0  0  0
    3.4840   69.0290   65.0860 C   0  0  0  0  0  0  0  0  0  0  0  0
    3.6910   69.3570   66.4290 C   0  0  0  0  0  0  0  0  0  0  0  0
    5.1690   69.9720   67.0670 Cl  0  0  0  0  0  0  0  0  0  0  0  0
    2.6730   69.1290   67.3570 C   0  0  0  0  0  0  0  0  0  0  0  0
    1.4930   68.5750   66.9840 N   0  0  0  0  0  4  0  0  0  0  0  0
    1.2840   68.2370   65.6870 C   0  0  0  0  0  0  0  0  0  0  0  0
    2.2680   68.4490   64.7200 C   0  0  0  0  0  0  0  0  0  0  0  0
    1.8800   67.9990   63.1030 Cl  0  0  0  0  0  0  0  0  0  0  0  0
    5.3850   68.4230   63.7380 N   0  0  0  0  0  0  0  0  0  0  0  0
    4.4920   69.3050   64.0460 C   0  0  0  0  0  0  0  0  0  0  0  0
    6.2150   68.9640   62.7510 O   0  0  0  0  0  0  0  0  0  0  0  0
    0.4640   66.9460   68.5450 C   0  0  0  0  0  0  0  0  0  0  0  0
    1.2800   66.8000   69.8390 C   0  0  0  0  0  0  0  0  0  0  0  0
    1.3150   65.3920   70.3190 N   0  0  0  0  0  4  0  0  0  0  0  0
    0.2010   64.8220   70.8490 C   0  0  0  0  0  0  0  0  0  0  0  0
    0.2130   63.5050   71.2970 C   0  0  0  0  0  0  0  0  0  0  0  0
    1.3830   62.7620   71.1790 C   0  0  0  0  0  0  0  0  0  0  0  0
    2.5050   63.3420   70.5920 C   0  0  0  0  0  0  0  0  0  0  0  0
    2.4420   64.6550   70.1490 C   0  0  0  0  0  0  0  0  0  0  0  0
    1.5140   61.3900   71.7200 C   0  0  0  0  0  0  0  0  0  0  0  0
    2.5080   60.7330   71.4470 O   0  0  0  0  0  0  0  0  0  0  0  0
    0.5120   60.9100   72.5080 N   0  0  0  0  0  0  0  0  0  0  0  0
    0.5481   69.0860   68.8223 H   0  0  0  0  0  0  0  0  0  0  0  0
   -0.5653   68.5383   67.5169 H   0  0  0  0  0  0  0  0  0  0  0  0
    2.8312   69.4039   68.4103 H   0  0  0  0  0  0  0  0  0  0  0  0
    0.3236   67.7886   65.3926 H   0  0  0  0  0  0  0  0  0  0  0  0
    4.4839   70.2741   63.5256 H   0  0  0  0  0  0  0  0  0  0  0  0
    6.9644   68.4293   62.3867 H   0  0  0  0  0  0  0  0  0  0  0  0
   -0.5655   66.6154   68.7470 H   0  0  0  0  0  0  0  0  0  0  0  0
    0.9664   66.3321   67.7830 H   0  0  0  0  0  0  0  0  0  0  0  0
    2.3100   67.1365   69.6494 H   0  0  0  0  0  0  0  0  0  0  0  0
    0.7985   67.4123   70.6157 H   0  0  0  0  0  0  0  0  0  0  0  0
   -0.7248   65.4112   70.9250 H   0  0  0  0  0  0  0  0  0  0  0  0
   -0.6898   63.0576   71.7382 H   0  0  0  0  0  0  0  0  0  0  0  0
    3.4339   62.7634   70.4806 H   0  0  0  0  0  0  0  0  0  0  0  0
    3.3157   65.1042   69.6541 H   0  0  0  0  0  0  0  0  0  0  0  0
    0.5748   59.9591   72.8989 H   0  0  0  0  0  0  0  0  0  0  0  0
   -0.3085   61.4979   72.7130 H   0  0  0  0  0  0  0  0  0  0  0  0
  3  2  2  0
  4  3  1  0
  5  3  1  0
  6  5  2  0
  6  1  1  0
  7  6  1  0
  8  7  2  0
  8  2  1  0
  9  8  1  0
 11 10  2  0
 11  2  1  0
 12 10  1  0
 13  1  1  0
 14 13  1  0
 15 14  1  0
 16 15  2  0
 17 16  1  0
 18 17  2  0
 19 18  1  0
 20 19  2  0
 20 15  1  0
 21 18  1  0
 22 21  2  0
 23 21  1  0
  1 24  1  0
  1 25  1  0
  5 26  1  0
  7 27  1  0
 11 28  1  0
 12 29  1  0
 13 30  1  0
 13 31  1  0
 14 32  1  0
 14 33  1  0
 16 34  1  0
 17 35  1  0
 19 36  1  0
 20 37  1  0
 23 38  1  0
 23 39  1  0
M  CHG  2   6   1  15   1
M  END
>  <score>  (9) 
-7.744

$$$$
