=
     RDKit          3D

 10  9  0  0  0  0  0  0  0  0999 V2000
   18.3610   64.1840   66.5850 C   0  0  0  0  0  0  0  0  0  0  0  0
   17.0590   64.3020   67.1410 O   0  0  0  0  0  0  0  0  0  0  0  0
   18.2730   63.8250   65.1070 C   0  0  0  0  0  0  0  0  0  0  0  0
   17.7720   64.9210   64.3510 O   0  0  0  0  0  0  0  0  0  0  0  0
   18.8910   65.1416   66.6951 H   0  0  0  0  0  0  0  0  0  0  0  0
   18.9062   63.3891   67.1150 H   0  0  0  0  0  0  0  0  0  0  0  0
   17.1204   64.2964   68.1291 H   0  0  0  0  0  0  0  0  0  0  0  0
   19.2757   63.5614   64.7394 H   0  0  0  0  0  0  0  0  0  0  0  0
   17.5870   62.9730   64.9908 H   0  0  0  0  0  0  0  0  0  0  0  0
   17.4496   65.6264   64.9663 H   0  0  0  0  0  0  0  0  0  0  0  0
  2  1  1  0
  3  1  1  0
  4  3  1  0
  1  5  1  0
  1  6  1  0
  2  7  1  0
  3  8  1  0
  3  9  1  0
  4 10  1  0
M  END
>  <score>  (1) 
-3.215

$$$$
=
     RDKit          3D

 10  9  0  0  0  0  0  0  0  0999 V2000
   18.0940   63.8640   65.0570 C   0  0  0  0  0  0  0  0  0  0  0  0
   17.8120   65.0300   64.2970 O   0  0  0  0  0  0  0  0  0  0  0  0
   18.3250   64.2310   66.5180 C   0  0  0  0  0  0  0  0  0  0  0  0
   17.0890   64.3260   67.2160 O   0  0  0  0  0  0  0  0  0  0  0  0
   17.2434   63.1700   64.9868 H   0  0  0  0  0  0  0  0  0  0  0  0
   19.0018   63.3870   64.6589 H   0  0  0  0  0  0  0  0  0  0  0  0
   17.6290   65.7865   64.9089 H   0  0  0  0  0  0  0  0  0  0  0  0
   18.9474   63.4568   66.9904 H   0  0  0  0  0  0  0  0  0  0  0  0
   18.8304   65.2071   66.5609 H   0  0  0  0  0  0  0  0  0  0  0  0
   17.2589   64.3129   68.1912 H   0  0  0  0  0  0  0  0  0  0  0  0
  2  1  1  0
  3  1  1  0
  4  3  1  0
  1  5  1  0
  1  6  1  0
  2  7  1  0
  3  8  1  0
  3  9  1  0
  4 10  1  0
M  END
>  <score>  (2) 
-3.154

$$$$
=
     RDKit          3D

 10  9  0  0  0  0  0  0  0  0999 V2000
    3.0010   57.3390   71.1410 C   0  0  0  0  0  0  0  0  0  0  0  0
    3.7290   56.3100   70.4880 O   0  0  0  0  0  0  0  0  0  0  0  0
    3.5180   58.7060   70.7100 C   0  0  0  0  0  0  0  0  0  0  0  0
    3.7550   58.7370   69.3070 O   0  0  0  0  0  0  0  0  0  0  0  0
    1.9364   57.2539   70.8777 H   0  0  0  0  0  0  0  0  0  0  0  0
    3.1291   57.2339   72.2285 H   0  0  0  0  0  0  0  0  0  0  0  0
    4.1462   55.7203   71.1650 H   0  0  0  0  0  0  0  0  0  0  0  0
    2.7709   59.4715   70.9666 H   0  0  0  0  0  0  0  0  0  0  0  0
    4.4653   58.9055   71.2322 H   0  0  0  0  0  0  0  0  0  0  0  0
    4.7223   58.8635   69.1384 H   0  0  0  0  0  0  0  0  0  0  0  0
  2  1  1  0
  3  1  1  0
  4  3  1  0
  1  5  1  0
  1  6  1  0
  2  7  1  0
  3  8  1  0
  3  9  1  0
  4 10  1  0
M  END
>  <score>  (3) 
-3.103

$$$$
=
     RDKit          3D

 10  9  0  0  0  0  0  0  0  0999 V2000
   -8.1230   70.3520   56.0750 C   0  0  0  0  0  0  0  0  0  0  0  0
   -7.4890   71.6210   56.0110 O   0  0  0  0  0  0  0  0  0  0  0  0
   -7.1280   69.2870   56.5200 C   0  0  0  0  0  0  0  0  0  0  0  0
   -7.4310   68.8290   57.8320 O   0  0  0  0  0  0  0  0  0  0  0  0
   -8.9533   70.3968   56.7952 H   0  0  0  0  0  0  0  0  0  0  0  0
   -8.5045   70.0912   55.0768 H   0  0  0  0  0  0  0  0  0  0  0  0
   -7.3229   71.9535   56.9286 H   0  0  0  0  0  0  0  0  0  0  0  0
   -7.1727   68.4377   55.8223 H   0  0  0  0  0  0  0  0  0  0  0  0
   -6.1196   69.7265   56.5242 H   0  0  0  0  0  0  0  0  0  0  0  0
   -7.0262   69.4408   58.4968 H   0  0  0  0  0  0  0  0  0  0  0  0
  2  1  1  0
  3  1  1  0
  4  3  1  0
  1  5  1  0
  1  6  1  0
  2  7  1  0
  3  8  1  0
  3  9  1  0
  4 10  1  0
M  END
>  <score>  (4) 
-3.07

$$$$
=
     RDKit          3D

 10  9  0  0  0  0  0  0  0  0999 V2000
    6.3800   70.3780   67.3210 C   0  0  0  0  0  0  0  0  0  0  0  0
    6.4140   71.0530   66.0710 O   0  0  0  0  0  0  0  0  0  0  0  0
    6.4210   71.3850   68.4640 C   0  0  0  0  0  0  0  0  0  0  0  0
    5.7750   72.5970   68.0940 O   0  0  0  0  0  0  0  0  0  0  0  0
    5.4545   69.7875   67.3900 H   0  0  0  0  0  0  0  0  0  0  0  0
    7.2548   69.7152   67.3950 H   0  0  0  0  0  0  0  0  0  0  0  0
    6.4632   72.0298   66.2246 H   0  0  0  0  0  0  0  0  0  0  0  0
    5.9108   70.9573   69.3396 H   0  0  0  0  0  0  0  0  0  0  0  0
    7.4722   71.6047   68.7022 H   0  0  0  0  0  0  0  0  0  0  0  0
    5.5109   73.0925   68.9094 H   0  0  0  0  0  0  0  0  0  0  0  0
  2  1  1  0
  3  1  1  0
  4  3  1  0
  1  5  1  0
  1  6  1  0
  2  7  1  0
  3  8  1  0
  3  9  1  0
  4 10  1  0
M  END
>  <score>  (5) 
-3.026

$$$$
=
     RDKit          3D

 10  9  0  0  0  0  0  0  0  0999 V2000
    6.3280   71.3440   68.4460 C   0  0  0  0  0  0  0  0  0  0  0  0
    5.7750   72.6040   68.0940 O   0  0  0  0  0  0  0  0  0  0  0  0
    6.1910   70.3660   67.2860 C   0  0  0  0  0  0  0  0  0  0  0  0
    6.4120   71.0220   66.0430 O   0  0  0  0  0  0  0  0  0  0  0  0
    7.3930   71.4703   68.6907 H   0  0  0  0  0  0  0  0  0  0  0  0
    5.7869   70.9455   69.3169 H   0  0  0  0  0  0  0  0  0  0  0  0
    5.5536   73.1086   68.9165 H   0  0  0  0  0  0  0  0  0  0  0  0
    6.9301   69.5600   67.4047 H   0  0  0  0  0  0  0  0  0  0  0  0
    5.1710   69.9542   67.2908 H   0  0  0  0  0  0  0  0  0  0  0  0
    6.7236   71.9469   66.2088 H   0  0  0  0  0  0  0  0  0  0  0  0
  2  1  1  0
  3  1  1  0
  4  3  1  0
  1  5  1  0
  1  6  1  0
  2  7  1  0
  3  8  1  0
  3  9  1  0
  4 10  1  0
M  END
>  <score>  (6) 
-3.024

$$$$
=
     RDKit          3D

 10  9  0  0  0  0  0  0  0  0999 V2000
   -2.0520   67.9460   66.9050 C   0  0  0  0  0  0  0  0  0  0  0  0
   -3.3600   68.0230   67.4510 O   0  0  0  0  0  0  0  0  0  0  0  0
   -1.9370   68.8480   65.6820 C   0  0  0  0  0  0  0  0  0  0  0  0
   -3.2200   69.1090   65.1240 O   0  0  0  0  0  0  0  0  0  0  0  0
   -1.3226   68.2673   67.6631 H   0  0  0  0  0  0  0  0  0  0  0  0
   -1.8495   66.9073   66.6046 H   0  0  0  0  0  0  0  0  0  0  0  0
   -3.3057   68.0198   68.4395 H   0  0  0  0  0  0  0  0  0  0  0  0
   -1.4722   69.7999   65.9784 H   0  0  0  0  0  0  0  0  0  0  0  0
   -1.3204   68.3399   64.9259 H   0  0  0  0  0  0  0  0  0  0  0  0
   -3.8761   69.2425   65.8533 H   0  0  0  0  0  0  0  0  0  0  0  0
  2  1  1  0
  3  1  1  0
  4  3  1  0
  1  5  1  0
  1  6  1  0
  2  7  1  0
  3  8  1  0
  3  9  1  0
  4 10  1  0
M  END
>  <score>  (7) 
-2.891

$$$$
=
     RDKit          3D

 10  9  0  0  0  0  0  0  0  0999 V2000
   -1.2560   68.5700   66.3200 C   0  0  0  0  0  0  0  0  0  0  0  0
   -1.8560   69.8460   66.4920 O   0  0  0  0  0  0  0  0  0  0  0  0
   -1.9760   67.5300   67.1700 C   0  0  0  0  0  0  0  0  0  0  0  0
   -3.2910   67.9660   67.4950 O   0  0  0  0  0  0  0  0  0  0  0  0
   -1.3178   68.2794   65.2609 H   0  0  0  0  0  0  0  0  0  0  0  0
   -0.2032   68.6235   66.6344 H   0  0  0  0  0  0  0  0  0  0  0  0
   -1.9473   70.0402   67.4585 H   0  0  0  0  0  0  0  0  0  0  0  0
   -2.0374   66.5856   66.6093 H   0  0  0  0  0  0  0  0  0  0  0  0
   -1.4117   67.3851   68.1031 H   0  0  0  0  0  0  0  0  0  0  0  0
   -3.3936   68.0000   68.4791 H   0  0  0  0  0  0  0  0  0  0  0  0
  2  1  1  0
  3  1  1  0
  4  3  1  0
  1  5  1  0
  1  6  1  0
  2  7  1  0
  3  8  1  0
  3  9  1  0
  4 10  1  0
M  END
>  <score>  (8) 
-2.858

$$$$
=
     RDKit          3D

 10  9  0  0  0  0  0  0  0  0999 V2000
   -0.1550   68.7720   62.7110 C   0  0  0  0  0  0  0  0  0  0  0  0
   -1.4120   68.8100   63.3710 O   0  0  0  0  0  0  0  0  0  0  0  0
   -0.0250   69.9520   61.7570 C   0  0  0  0  0  0  0  0  0  0  0  0
    0.4460   69.5240   60.4840 O   0  0  0  0  0  0  0  0  0  0  0  0
    0.6498   68.8197   63.4594 H   0  0  0  0  0  0  0  0  0  0  0  0
   -0.0796   67.8368   62.1369 H   0  0  0  0  0  0  0  0  0  0  0  0
   -1.2705   68.8057   64.3508 H   0  0  0  0  0  0  0  0  0  0  0  0
   -1.0093   70.4278   61.6359 H   0  0  0  0  0  0  0  0  0  0  0  0
    0.6972   70.6672   62.1776 H   0  0  0  0  0  0  0  0  0  0  0  0
    1.1731   68.8633   60.6062 H   0  0  0  0  0  0  0  0  0  0  0  0
  2  1  1  0
  3  1  1  0
  4  3  1  0
  1  5  1  0
  1  6  1  0
  2  7  1  0
  3  8  1  0
  3  9  1  0
  4 10  1  0
M  END
>  <score>  (9) 
-2.725

$$$$
