=
     RDKit          3D

 43 45  0  0  0  0  0  0  0  0999 V2000
    3.1310   58.3840   75.2230 C   0  0  0  0  0  0  0  0  0  0  0  0
    2.6700   59.3860   75.7750 O   0  0  0  0  0  0  0  0  0  0  0  0
    3.5660   58.3920   73.9110 N   0  0  0  0  0  0  0  0  0  0  0  0
    2.5340   58.8440   72.8870 C   0  0  2  0  0  0  0  0  0  0  0  0
    3.0710   58.7210   71.4190 C   0  0  0  0  0  0  0  0  0  0  0  0
    3.7840   57.9180   70.8460 O   0  0  0  0  0  0  0  0  0  0  0  0
    2.6990   59.9900   71.1450 N   0  0  0  0  0  0  0  0  0  0  0  0
    2.5080   60.3650   72.5490 C   0  0  2  0  0  0  0  0  0  0  0  0
    4.0740   61.2420   73.0130 S   0  0  0  0  0  0  0  0  0  0  0  0
    4.5520   61.5720   71.2330 C   0  0  0  0  0  0  0  0  0  0  0  0
    3.4560   60.9510   70.3260 C   0  0  2  0  0  0  0  0  0  0  0  0
    5.8930   60.8530   71.0020 C   0  0  0  0  0  0  0  0  0  0  0  0
    4.7810   63.0820   71.0890 C   0  0  0  0  0  0  0  0  0  0  0  0
    2.5570   62.0420   69.6910 C   0  0  0  0  0  0  0  0  0  0  0  0
    1.6250   62.4720   70.4280 O   0  0  0  0  0  0  0  0  0  0  0  0
    2.8860   62.3640   68.5160 O   0  0  0  0  0  1  0  0  0  0  0  0
    2.9510   56.9890   75.8630 C   0  0  1  0  0  0  0  0  0  0  0  0
    1.9090   56.1280   75.1900 C   0  0  0  0  0  0  0  0  0  0  0  0
    2.2040   54.8380   74.7180 C   0  0  0  0  0  0  0  0  0  0  0  0
    1.2120   54.0510   74.1310 C   0  0  0  0  0  0  0  0  0  0  0  0
   -0.0880   54.5370   74.0160 C   0  0  0  0  0  0  0  0  0  0  0  0
   -0.3990   55.8100   74.4840 C   0  0  0  0  0  0  0  0  0  0  0  0
    0.5910   56.6010   75.0710 C   0  0  0  0  0  0  0  0  0  0  0  0
    4.2900   56.3140   75.8540 N   0  0  0  0  0  4  0  0  0  0  0  0
    4.5208   58.1120   73.6449 H   0  0  0  0  0  0  0  0  0  0  0  0
    1.6610   58.3215   73.3050 H   0  0  0  0  0  0  0  0  0  0  0  0
    1.6949   60.9871   72.9513 H   0  0  0  0  0  0  0  0  0  0  0  0
    3.9090   60.4244   69.4731 H   0  0  0  0  0  0  0  0  0  0  0  0
    6.3497   60.6081   71.9723 H   0  0  0  0  0  0  0  0  0  0  0  0
    5.7195   59.9269   70.4343 H   0  0  0  0  0  0  0  0  0  0  0  0
    6.5683   61.5100   70.4343 H   0  0  0  0  0  0  0  0  0  0  0  0
    4.8503   63.5392   72.0871 H   0  0  0  0  0  0  0  0  0  0  0  0
    5.7164   63.2601   70.5383 H   0  0  0  0  0  0  0  0  0  0  0  0
    3.9404   63.5295   70.5383 H   0  0  0  0  0  0  0  0  0  0  0  0
    2.5734   57.1281   76.8868 H   0  0  0  0  0  0  0  0  0  0  0  0
    3.2269   54.4444   74.8120 H   0  0  0  0  0  0  0  0  0  0  0  0
    1.4574   53.0454   73.7587 H   0  0  0  0  0  0  0  0  0  0  0  0
   -0.8691   53.9145   73.5551 H   0  0  0  0  0  0  0  0  0  0  0  0
   -1.4257   56.1937   74.3915 H   0  0  0  0  0  0  0  0  0  0  0  0
    0.3366   57.6041   75.4439 H   0  0  0  0  0  0  0  0  0  0  0  0
    4.6018   56.1568   76.8230 H   0  0  0  0  0  0  0  0  0  0  0  0
    4.2154   55.4098   75.3664 H   0  0  0  0  0  0  0  0  0  0  0  0
    4.9725   56.9117   75.3664 H   0  0  0  0  0  0  0  0  0  0  0  0
  2  1  2  0
  3  1  1  0
  4  3  1  0
  5  4  1  0
  6  5  2  0
  7  5  1  0
  8  4  1  0
  8  7  1  0
  9  8  1  0
 10  9  1  0
 11 10  1  0
 11  7  1  0
 12 10  1  0
 13 10  1  0
 14 11  1  0
 15 14  2  0
 16 14  1  0
 17  1  1  0
 18 17  1  0
 19 18  2  0
 20 19  1  0
 21 20  2  0
 22 21  1  0
 23 22  2  0
 23 18  1  0
 24 17  1  0
  3 25  1  0
  4 26  1  6
  8 27  1  6
 11 28  1  6
 12 29  1  0
 12 30  1  0
 12 31  1  0
 13 32  1  0
 13 33  1  0
 13 34  1  0
 17 35  1  1
 19 36  1  0
 20 37  1  0
 21 38  1  0
 22 39  1  0
 23 40  1  0
 24 41  1  0
 24 42  1  0
 24 43  1  0
M  CHG  2  16  -1  24   1
M  END
>  <score>  (1) 
-7.721

$$$$
=
     RDKit          3D

 43 45  0  0  0  0  0  0  0  0999 V2000
    0.4950   63.6310   72.3950 C   0  0  0  0  0  0  0  0  0  0  0  0
   -0.2070   64.2690   73.1830 O   0  0  0  0  0  0  0  0  0  0  0  0
    0.8830   62.3250   72.6330 N   0  0  0  0  0  0  0  0  0  0  0  0
    1.6280   62.0980   73.9420 C   0  0  2  0  0  0  0  0  0  0  0  0
    3.0530   61.4880   73.7070 C   0  0  0  0  0  0  0  0  0  0  0  0
    3.9080   61.6450   72.8560 O   0  0  0  0  0  0  0  0  0  0  0  0
    2.8200   60.5180   74.6180 N   0  0  0  0  0  0  0  0  0  0  0  0
    1.3710   60.7410   74.6630 C   0  0  2  0  0  0  0  0  0  0  0  0
    0.6670   59.4420   73.5430 S   0  0  0  0  0  0  0  0  0  0  0  0
    2.2100   58.3840   73.6100 C   0  0  0  0  0  0  0  0  0  0  0  0
    3.2460   59.1130   74.5080 C   0  0  2  0  0  0  0  0  0  0  0  0
    2.7380   58.2910   72.1680 C   0  0  0  0  0  0  0  0  0  0  0  0
    1.7870   56.9790   74.0620 C   0  0  0  0  0  0  0  0  0  0  0  0
    3.3960   58.4180   75.8850 C   0  0  0  0  0  0  0  0  0  0  0  0
    2.4930   58.6850   76.7270 O   0  0  0  0  0  0  0  0  0  0  0  0
    4.4050   57.6660   75.9770 O   0  0  0  0  0  1  0  0  0  0  0  0
    1.2440   64.3560   71.2540 C   0  0  1  0  0  0  0  0  0  0  0  0
    2.2900   63.5140   70.5660 C   0  0  0  0  0  0  0  0  0  0  0  0
    1.9520   62.3600   69.8380 C   0  0  0  0  0  0  0  0  0  0  0  0
    2.9380   61.6200   69.1830 C   0  0  0  0  0  0  0  0  0  0  0  0
    4.2690   62.0250   69.2370 C   0  0  0  0  0  0  0  0  0  0  0  0
    4.6190   63.1700   69.9490 C   0  0  0  0  0  0  0  0  0  0  0  0
    3.6370   63.9130   70.6060 C   0  0  0  0  0  0  0  0  0  0  0  0
    0.2140   64.8390   70.2760 N   0  0  0  0  0  4  0  0  0  0  0  0
    0.6825   61.5606   71.9724 H   0  0  0  0  0  0  0  0  0  0  0  0
    1.4062   63.0648   74.4176 H   0  0  0  0  0  0  0  0  0  0  0  0
    0.7376   60.7260   75.5622 H   0  0  0  0  0  0  0  0  0  0  0  0
    4.2492   59.0706   74.0588 H   0  0  0  0  0  0  0  0  0  0  0  0
    3.8212   58.1002   72.1857 H   0  0  0  0  0  0  0  0  0  0  0  0
    2.2294   57.4686   71.6436 H   0  0  0  0  0  0  0  0  0  0  0  0
    2.5410   59.2377   71.6436 H   0  0  0  0  0  0  0  0  0  0  0  0
    1.7740   56.9358   75.1611 H   0  0  0  0  0  0  0  0  0  0  0  0
    0.7820   56.7562   73.6744 H   0  0  0  0  0  0  0  0  0  0  0  0
    2.5020   56.2384   73.6744 H   0  0  0  0  0  0  0  0  0  0  0  0
    1.8101   65.1914   71.6918 H   0  0  0  0  0  0  0  0  0  0  0  0
    0.9018   62.0373   69.7840 H   0  0  0  0  0  0  0  0  0  0  0  0
    2.6626   60.7144   68.6226 H   0  0  0  0  0  0  0  0  0  0  0  0
    5.0435   61.4413   68.7179 H   0  0  0  0  0  0  0  0  0  0  0  0
    5.6708   63.4890   69.9935 H   0  0  0  0  0  0  0  0  0  0  0  0
    3.9201   64.8198   71.1606 H   0  0  0  0  0  0  0  0  0  0  0  0
   -0.5949   65.2183   70.7886 H   0  0  0  0  0  0  0  0  0  0  0  0
    0.6219   65.5766   69.6840 H   0  0  0  0  0  0  0  0  0  0  0  0
   -0.0922   64.0537   69.6840 H   0  0  0  0  0  0  0  0  0  0  0  0
  2  1  2  0
  3  1  1  0
  4  3  1  0
  5  4  1  0
  6  5  2  0
  7  5  1  0
  8  4  1  0
  8  7  1  0
  9  8  1  0
 10  9  1  0
 11 10  1  0
 11  7  1  0
 12 10  1  0
 13 10  1  0
 14 11  1  0
 15 14  2  0
 16 14  1  0
 17  1  1  0
 18 17  1  0
 19 18  2  0
 20 19  1  0
 21 20  2  0
 22 21  1  0
 23 22  2  0
 23 18  1  0
 24 17  1  0
  3 25  1  0
  4 26  1  1
  8 27  1  1
 11 28  1  6
 12 29  1  0
 12 30  1  0
 12 31  1  0
 13 32  1  0
 13 33  1  0
 13 34  1  0
 17 35  1  1
 19 36  1  0
 20 37  1  0
 21 38  1  0
 22 39  1  0
 23 40  1  0
 24 41  1  0
 24 42  1  0
 24 43  1  0
M  CHG  2  16  -1  24   1
M  END
>  <score>  (2) 
-7.346

$$$$
=
     RDKit          3D

 43 45  0  0  0  0  0  0  0  0999 V2000
    4.4560   61.1120   71.4380 C   0  0  0  0  0  0  0  0  0  0  0  0
    5.6060   60.8090   71.1100 O   0  0  0  0  0  0  0  0  0  0  0  0
    3.9960   60.9860   72.7370 N   0  0  0  0  0  0  0  0  0  0  0  0
    4.1150   59.5910   73.3350 C   0  0  2  0  0  0  0  0  0  0  0  0
    3.0450   58.6070   72.7470 C   0  0  0  0  0  0  0  0  0  0  0  0
    2.5510   58.4600   71.6450 O   0  0  0  0  0  0  0  0  0  0  0  0
    2.6770   58.2190   73.9870 N   0  0  0  0  0  0  0  0  0  0  0  0
    3.3450   59.3340   74.6650 C   0  0  2  0  0  0  0  0  0  0  0  0
    1.9940   60.5660   74.9730 S   0  0  0  0  0  0  0  0  0  0  0  0
    0.6320   59.2980   74.7600 C   0  0  0  0  0  0  0  0  0  0  0  0
    1.3010   57.9370   74.4270 C   0  0  2  0  0  0  0  0  0  0  0  0
   -0.2190   59.7710   73.5680 C   0  0  0  0  0  0  0  0  0  0  0  0
   -0.2380   59.3390   76.0230 C   0  0  0  0  0  0  0  0  0  0  0  0
    1.2400   56.9640   75.6320 C   0  0  0  0  0  0  0  0  0  0  0  0
    2.1240   57.1410   76.5160 O   0  0  0  0  0  0  0  0  0  0  0  0
    0.3010   56.1220   75.5690 O   0  0  0  0  0  1  0  0  0  0  0  0
    3.3720   61.3450   70.3620 C   0  0  1  0  0  0  0  0  0  0  0  0
    2.4690   62.5220   70.6370 C   0  0  0  0  0  0  0  0  0  0  0  0
    2.7980   63.8240   70.2220 C   0  0  0  0  0  0  0  0  0  0  0  0
    1.9260   64.8880   70.4600 C   0  0  0  0  0  0  0  0  0  0  0  0
    0.7130   64.6660   71.1050 C   0  0  0  0  0  0  0  0  0  0  0  0
    0.3680   63.3810   71.5170 C   0  0  0  0  0  0  0  0  0  0  0  0
    1.2370   62.3140   71.2820 C   0  0  0  0  0  0  0  0  0  0  0  0
    4.0730   61.5040   69.0450 N   0  0  0  0  0  4  0  0  0  0  0  0
    3.6012   61.7794   73.2619 H   0  0  0  0  0  0  0  0  0  0  0  0
    5.2072   59.4832   73.2603 H   0  0  0  0  0  0  0  0  0  0  0  0
    3.9103   59.2776   75.6069 H   0  0  0  0  0  0  0  0  0  0  0  0
    0.7593   57.4235   73.6190 H   0  0  0  0  0  0  0  0  0  0  0  0
   -1.1238   60.2739   73.9401 H   0  0  0  0  0  0  0  0  0  0  0  0
    0.3656   60.4736   72.9560 H   0  0  0  0  0  0  0  0  0  0  0  0
   -0.5070   58.9035   72.9560 H   0  0  0  0  0  0  0  0  0  0  0  0
    0.4069   59.3086   76.9136 H   0  0  0  0  0  0  0  0  0  0  0  0
   -0.8301   60.2660   76.0305 H   0  0  0  0  0  0  0  0  0  0  0  0
   -0.9146   58.4717   76.0305 H   0  0  0  0  0  0  0  0  0  0  0  0
    2.6978   60.4758   70.3609 H   0  0  0  0  0  0  0  0  0  0  0  0
    3.7516   64.0063   69.7048 H   0  0  0  0  0  0  0  0  0  0  0  0
    2.1982   65.9037   70.1371 H   0  0  0  0  0  0  0  0  0  0  0  0
    0.0266   65.5055   71.2895 H   0  0  0  0  0  0  0  0  0  0  0  0
   -0.5903   63.2067   72.0281 H   0  0  0  0  0  0  0  0  0  0  0  0
    0.9552   61.3008   71.6045 H   0  0  0  0  0  0  0  0  0  0  0  0
    5.0647   61.7289   69.2089 H   0  0  0  0  0  0  0  0  0  0  0  0
    4.0038   60.6260   68.5110 H   0  0  0  0  0  0  0  0  0  0  0  0
    3.6317   62.2663   68.5110 H   0  0  0  0  0  0  0  0  0  0  0  0
  2  1  2  0
  3  1  1  0
  4  3  1  0
  5  4  1  0
  6  5  2  0
  7  5  1  0
  8  4  1  0
  8  7  1  0
  9  8  1  0
 10  9  1  0
 11 10  1  0
 11  7  1  0
 12 10  1  0
 13 10  1  0
 14 11  1  0
 15 14  2  0
 16 14  1  0
 17  1  1  0
 18 17  1  0
 19 18  2  0
 20 19  1  0
 21 20  2  0
 22 21  1  0
 23 22  2  0
 23 18  1  0
 24 17  1  0
  3 25  1  0
  4 26  1  1
  8 27  1  1
 11 28  1  6
 12 29  1  0
 12 30  1  0
 12 31  1  0
 13 32  1  0
 13 33  1  0
 13 34  1  0
 17 35  1  6
 19 36  1  0
 20 37  1  0
 21 38  1  0
 22 39  1  0
 23 40  1  0
 24 41  1  0
 24 42  1  0
 24 43  1  0
M  CHG  2  16  -1  24   1
M  END
>  <score>  (3) 
-7.162

$$$$
=
     RDKit          3D

 43 45  0  0  0  0  0  0  0  0999 V2000
    4.1460   59.4100   72.5120 C   0  0  0  0  0  0  0  0  0  0  0  0
    4.5220   59.0400   71.3980 O   0  0  0  0  0  0  0  0  0  0  0  0
    3.4560   58.5810   73.3780 N   0  0  0  0  0  0  0  0  0  0  0  0
    2.1730   57.9820   72.8190 C   0  0  2  0  0  0  0  0  0  0  0  0
    0.8970   58.5840   73.5050 C   0  0  0  0  0  0  0  0  0  0  0  0
    0.6030   59.6910   73.9140 O   0  0  0  0  0  0  0  0  0  0  0  0
    0.4060   57.3480   73.7410 N   0  0  0  0  0  0  0  0  0  0  0  0
    1.6740   56.6610   73.4780 C   0  0  2  0  0  0  0  0  0  0  0  0
    2.4000   56.3670   75.1590 S   0  0  0  0  0  0  0  0  0  0  0  0
    0.7600   56.5980   76.0330 C   0  0  0  0  0  0  0  0  0  0  0  0
   -0.3090   56.9230   74.9560 C   0  0  2  0  0  0  0  0  0  0  0  0
    0.9360   57.7980   76.9790 C   0  0  0  0  0  0  0  0  0  0  0  0
    0.5100   55.3440   76.8830 C   0  0  0  0  0  0  0  0  0  0  0  0
   -1.2550   55.7210   74.7100 C   0  0  0  0  0  0  0  0  0  0  0  0
   -0.7470   54.7530   74.0780 O   0  0  0  0  0  0  0  0  0  0  0  0
   -2.4150   55.8690   75.1870 O   0  0  0  0  0  1  0  0  0  0  0  0
    4.1440   60.9120   72.8770 C   0  0  1  0  0  0  0  0  0  0  0  0
    3.7680   61.8260   71.7370 C   0  0  0  0  0  0  0  0  0  0  0  0
    4.7330   62.5620   71.0260 C   0  0  0  0  0  0  0  0  0  0  0  0
    4.3590   63.3730   69.9540 C   0  0  0  0  0  0  0  0  0  0  0  0
    3.0230   63.4550   69.5700 C   0  0  0  0  0  0  0  0  0  0  0  0
    2.0560   62.7270   70.2590 C   0  0  0  0  0  0  0  0  0  0  0  0
    2.4250   61.9150   71.3330 C   0  0  0  0  0  0  0  0  0  0  0  0
    3.2120   61.0910   74.0380 N   0  0  0  0  0  4  0  0  0  0  0  0
    3.7868   58.3831   74.3332 H   0  0  0  0  0  0  0  0  0  0  0  0
    2.4262   58.0434   71.7503 H   0  0  0  0  0  0  0  0  0  0  0  0
    1.7996   55.7126   72.9350 H   0  0  0  0  0  0  0  0  0  0  0  0
   -0.9674   57.7365   75.2946 H   0  0  0  0  0  0  0  0  0  0  0  0
    0.8854   57.4530   78.0223 H   0  0  0  0  0  0  0  0  0  0  0  0
    1.9129   58.2693   76.7956 H   0  0  0  0  0  0  0  0  0  0  0  0
    0.1356   58.5299   76.7956 H   0  0  0  0  0  0  0  0  0  0  0  0
    0.5625   55.6076   77.9497 H   0  0  0  0  0  0  0  0  0  0  0  0
   -0.4866   54.9386   76.6541 H   0  0  0  0  0  0  0  0  0  0  0  0
    1.2750   54.5874   76.6541 H   0  0  0  0  0  0  0  0  0  0  0  0
    5.1729   61.2038   73.1344 H   0  0  0  0  0  0  0  0  0  0  0  0
    5.7917   62.4977   71.3176 H   0  0  0  0  0  0  0  0  0  0  0  0
    5.1220   63.9495   69.4104 H   0  0  0  0  0  0  0  0  0  0  0  0
    2.7317   64.0941   68.7234 H   0  0  0  0  0  0  0  0  0  0  0  0
    1.0004   62.7919   69.9566 H   0  0  0  0  0  0  0  0  0  0  0  0
    1.6563   61.3387   71.8687 H   0  0  0  0  0  0  0  0  0  0  0  0
    3.7370   60.9902   74.9184 H   0  0  0  0  0  0  0  0  0  0  0  0
    2.7880   62.0288   73.9965 H   0  0  0  0  0  0  0  0  0  0  0  0
    2.4708   60.3770   73.9965 H   0  0  0  0  0  0  0  0  0  0  0  0
  2  1  2  0
  3  1  1  0
  4  3  1  0
  5  4  1  0
  6  5  2  0
  7  5  1  0
  8  4  1  0
  8  7  1  0
  9  8  1  0
 10  9  1  0
 11 10  1  0
 11  7  1  0
 12 10  1  0
 13 10  1  0
 14 11  1  0
 15 14  2  0
 16 14  1  0
 17  1  1  0
 18 17  1  0
 19 18  2  0
 20 19  1  0
 21 20  2  0
 22 21  1  0
 23 22  2  0
 23 18  1  0
 24 17  1  0
  3 25  1  0
  4 26  1  6
  8 27  1  6
 11 28  1  1
 12 29  1  0
 12 30  1  0
 12 31  1  0
 13 32  1  0
 13 33  1  0
 13 34  1  0
 17 35  1  1
 19 36  1  0
 20 37  1  0
 21 38  1  0
 22 39  1  0
 23 40  1  0
 24 41  1  0
 24 42  1  0
 24 43  1  0
M  CHG  2  16  -1  24   1
M  END
>  <score>  (4) 
-7.071

$$$$
=
     RDKit          3D

 43 45  0  0  0  0  0  0  0  0999 V2000
    2.1920   64.2830   70.5480 C   0  0  0  0  0  0  0  0  0  0  0  0
    2.6090   64.1890   69.3920 O   0  0  0  0  0  0  0  0  0  0  0  0
    2.3550   63.2770   71.4830 N   0  0  0  0  0  0  0  0  0  0  0  0
    1.7980   61.9190   71.0780 C   0  0  2  0  0  0  0  0  0  0  0  0
    0.8000   61.3530   72.1480 C   0  0  0  0  0  0  0  0  0  0  0  0
   -0.0370   61.8590   72.8710 O   0  0  0  0  0  0  0  0  0  0  0  0
    1.4490   60.1680   72.1680 N   0  0  0  0  0  0  0  0  0  0  0  0
    2.6410   60.6720   71.4800 C   0  0  2  0  0  0  0  0  0  0  0  0
    3.8520   61.0180   72.8410 S   0  0  0  0  0  0  0  0  0  0  0  0
    2.9520   59.9320   74.0730 C   0  0  0  0  0  0  0  0  0  0  0  0
    1.7020   59.3460   73.3620 C   0  0  2  0  0  0  0  0  0  0  0  0
    2.5170   60.8520   75.2270 C   0  0  0  0  0  0  0  0  0  0  0  0
    3.9640   58.9160   74.6180 C   0  0  0  0  0  0  0  0  0  0  0  0
    1.8870   57.8430   73.0330 C   0  0  0  0  0  0  0  0  0  0  0  0
    2.4620   57.5960   71.9360 O   0  0  0  0  0  0  0  0  0  0  0  0
    1.4400   57.0610   73.9180 O   0  0  0  0  0  1  0  0  0  0  0  0
    1.1850   65.3940   70.9260 C   0  0  1  0  0  0  0  0  0  0  0  0
    0.7280   66.2390   69.7630 C   0  0  0  0  0  0  0  0  0  0  0  0
   -0.5310   66.0600   69.1650 C   0  0  0  0  0  0  0  0  0  0  0  0
   -0.9410   66.8800   68.1120 C   0  0  0  0  0  0  0  0  0  0  0  0
   -0.1060   67.8930   67.6480 C   0  0  0  0  0  0  0  0  0  0  0  0
    1.1420   68.0870   68.2340 C   0  0  0  0  0  0  0  0  0  0  0  0
    1.5570   67.2690   69.2860 C   0  0  0  0  0  0  0  0  0  0  0  0
    0.0190   64.7330   71.6000 N   0  0  0  0  0  4  0  0  0  0  0  0
    2.8199   63.4351   72.3884 H   0  0  0  0  0  0  0  0  0  0  0  0
    1.5626   62.1532   70.0293 H   0  0  0  0  0  0  0  0  0  0  0  0
    3.2161   60.1446   70.7047 H   0  0  0  0  0  0  0  0  0  0  0  0
    0.8234   59.3856   74.0227 H   0  0  0  0  0  0  0  0  0  0  0  0
    2.7458   60.3680   76.1879 H   0  0  0  0  0  0  0  0  0  0  0  0
    3.0590   61.8068   75.1590 H   0  0  0  0  0  0  0  0  0  0  0  0
    1.4351   61.0389   75.1590 H   0  0  0  0  0  0  0  0  0  0  0  0
    3.9459   58.9342   75.7177 H   0  0  0  0  0  0  0  0  0  0  0  0
    3.6996   57.9088   74.2635 H   0  0  0  0  0  0  0  0  0  0  0  0
    4.9722   59.1765   74.2635 H   0  0  0  0  0  0  0  0  0  0  0  0
    1.6929   66.1030   71.5963 H   0  0  0  0  0  0  0  0  0  0  0  0
   -1.1997   65.2665   69.5299 H   0  0  0  0  0  0  0  0  0  0  0  0
   -1.9262   66.7254   67.6478 H   0  0  0  0  0  0  0  0  0  0  0  0
   -0.4319   68.5392   66.8196 H   0  0  0  0  0  0  0  0  0  0  0  0
    1.8023   68.8866   67.8671 H   0  0  0  0  0  0  0  0  0  0  0  0
    2.5426   67.4320   69.7464 H   0  0  0  0  0  0  0  0  0  0  0  0
    0.1317   64.7969   72.6218 H   0  0  0  0  0  0  0  0  0  0  0  0
   -0.8524   65.2058   71.3205 H   0  0  0  0  0  0  0  0  0  0  0  0
   -0.0229   63.7425   71.3205 H   0  0  0  0  0  0  0  0  0  0  0  0
  2  1  2  0
  3  1  1  0
  4  3  1  0
  5  4  1  0
  6  5  2  0
  7  5  1  0
  8  4  1  0
  8  7  1  0
  9  8  1  0
 10  9  1  0
 11 10  1  0
 11  7  1  0
 12 10  1  0
 13 10  1  0
 14 11  1  0
 15 14  2  0
 16 14  1  0
 17  1  1  0
 18 17  1  0
 19 18  2  0
 20 19  1  0
 21 20  2  0
 22 21  1  0
 23 22  2  0
 23 18  1  0
 24 17  1  0
  3 25  1  0
  4 26  1  6
  8 27  1  6
 11 28  1  1
 12 29  1  0
 12 30  1  0
 12 31  1  0
 13 32  1  0
 13 33  1  0
 13 34  1  0
 17 35  1  1
 19 36  1  0
 20 37  1  0
 21 38  1  0
 22 39  1  0
 23 40  1  0
 24 41  1  0
 24 42  1  0
 24 43  1  0
M  CHG  2  16  -1  24   1
M  END
>  <score>  (5) 
-7.029

$$$$
=
     RDKit          3D

 43 45  0  0  0  0  0  0  0  0999 V2000
    2.2240   58.0290   72.7460 C   0  0  0  0  0  0  0  0  0  0  0  0
    1.9130   56.8820   73.0740 O   0  0  0  0  0  0  0  0  0  0  0  0
    1.9080   59.1350   73.5140 N   0  0  0  0  0  0  0  0  0  0  0  0
    0.4270   59.3090   73.8230 C   0  0  2  0  0  0  0  0  0  0  0  0
   -0.1460   60.6350   73.2150 C   0  0  0  0  0  0  0  0  0  0  0  0
    0.0570   61.2470   72.1830 O   0  0  0  0  0  0  0  0  0  0  0  0
   -0.6960   60.9760   74.4010 N   0  0  0  0  0  0  0  0  0  0  0  0
    0.0740   59.9970   75.1760 C   0  0  2  0  0  0  0  0  0  0  0  0
    1.4810   60.9710   75.8880 S   0  0  0  0  0  0  0  0  0  0  0  0
    0.6230   62.6160   75.6320 C   0  0  0  0  0  0  0  0  0  0  0  0
   -0.7510   62.3340   74.9660 C   0  0  2  0  0  0  0  0  0  0  0  0
    1.5140   63.4270   74.6760 C   0  0  0  0  0  0  0  0  0  0  0  0
    0.5880   63.3330   76.9880 C   0  0  0  0  0  0  0  0  0  0  0  0
   -1.9190   62.5240   75.9670 C   0  0  0  0  0  0  0  0  0  0  0  0
   -2.1230   61.5550   76.7500 O   0  0  0  0  0  0  0  0  0  0  0  0
   -2.5080   63.6370   75.8680 O   0  0  0  0  0  1  0  0  0  0  0  0
    2.7020   58.3270   71.3060 C   0  0  1  0  0  0  0  0  0  0  0  0
    3.4910   59.6050   71.1670 C   0  0  0  0  0  0  0  0  0  0  0  0
    4.6190   59.8710   71.9620 C   0  0  0  0  0  0  0  0  0  0  0  0
    5.3510   61.0470   71.7880 C   0  0  0  0  0  0  0  0  0  0  0  0
    4.9730   61.9670   70.8130 C   0  0  0  0  0  0  0  0  0  0  0  0
    3.8620   61.7150   70.0120 C   0  0  0  0  0  0  0  0  0  0  0  0
    3.1270   60.5410   70.1840 C   0  0  0  0  0  0  0  0  0  0  0  0
    3.5060   57.1470   70.8460 N   0  0  0  0  0  4  0  0  0  0  0  0
    2.6234   59.7940   73.8528 H   0  0  0  0  0  0  0  0  0  0  0  0
    0.0960   58.2881   73.5817 H   0  0  0  0  0  0  0  0  0  0  0  0
   -0.3036   59.3812   76.0056 H   0  0  0  0  0  0  0  0  0  0  0  0
   -0.9479   63.0558   74.1596 H   0  0  0  0  0  0  0  0  0  0  0  0
    2.2031   64.0543   75.2605 H   0  0  0  0  0  0  0  0  0  0  0  0
    2.0926   62.7392   74.0419 H   0  0  0  0  0  0  0  0  0  0  0  0
    0.8835   64.0676   74.0419 H   0  0  0  0  0  0  0  0  0  0  0  0
    0.6243   62.5889   77.7973 H   0  0  0  0  0  0  0  0  0  0  0  0
    1.4544   64.0059   77.0694 H   0  0  0  0  0  0  0  0  0  0  0  0
   -0.3398   63.9183   77.0694 H   0  0  0  0  0  0  0  0  0  0  0  0
    1.8142   58.4833   70.6756 H   0  0  0  0  0  0  0  0  0  0  0  0
    4.9282   59.1455   72.7289 H   0  0  0  0  0  0  0  0  0  0  0  0
    6.2275   61.2473   72.4218 H   0  0  0  0  0  0  0  0  0  0  0  0
    5.5518   62.8923   70.6757 H   0  0  0  0  0  0  0  0  0  0  0  0
    3.5633   62.4422   69.2427 H   0  0  0  0  0  0  0  0  0  0  0  0
    2.2540   60.3464   69.5437 H   0  0  0  0  0  0  0  0  0  0  0  0
    3.8577   56.6309   71.6650 H   0  0  0  0  0  0  0  0  0  0  0  0
    2.9112   56.5264   70.2786 H   0  0  0  0  0  0  0  0  0  0  0  0
    4.3012   57.4735   70.2786 H   0  0  0  0  0  0  0  0  0  0  0  0
  2  1  2  0
  3  1  1  0
  4  3  1  0
  5  4  1  0
  6  5  2  0
  7  5  1  0
  8  4  1  0
  8  7  1  0
  9  8  1  0
 10  9  1  0
 11 10  1  0
 11  7  1  0
 12 10  1  0
 13 10  1  0
 14 11  1  0
 15 14  2  0
 16 14  1  0
 17  1  1  0
 18 17  1  0
 19 18  2  0
 20 19  1  0
 21 20  2  0
 22 21  1  0
 23 22  2  0
 23 18  1  0
 24 17  1  0
  3 25  1  0
  4 26  1  6
  8 27  1  1
 11 28  1  6
 12 29  1  0
 12 30  1  0
 12 31  1  0
 13 32  1  0
 13 33  1  0
 13 34  1  0
 17 35  1  6
 19 36  1  0
 20 37  1  0
 21 38  1  0
 22 39  1  0
 23 40  1  0
 24 41  1  0
 24 42  1  0
 24 43  1  0
M  CHG  2  16  -1  24   1
M  END
>  <score>  (6) 
-6.921

$$$$
=
     RDKit          3D

 43 45  0  0  0  0  0  0  0  0999 V2000
    1.7700   60.0120   72.4990 C   0  0  0  0  0  0  0  0  0  0  0  0
    1.1710   61.0730   72.6860 O   0  0  0  0  0  0  0  0  0  0  0  0
    1.2790   58.7940   72.9350 N   0  0  0  0  0  0  0  0  0  0  0  0
    0.9880   58.7090   74.4270 C   0  0  2  0  0  0  0  0  0  0  0  0
    2.0510   57.8390   75.1830 C   0  0  0  0  0  0  0  0  0  0  0  0
    3.2520   57.6840   75.0650 O   0  0  0  0  0  0  0  0  0  0  0  0
    1.0780   57.1170   75.7820 N   0  0  0  0  0  0  0  0  0  0  0  0
    0.0150   57.5790   74.8830 C   0  0  2  0  0  0  0  0  0  0  0  0
   -0.1600   56.2200   73.6350 S   0  0  0  0  0  0  0  0  0  0  0  0
    0.6960   54.9570   74.7200 C   0  0  0  0  0  0  0  0  0  0  0  0
    1.1130   55.6680   76.0350 C   0  0  2  0  0  0  0  0  0  0  0  0
    1.9480   54.4990   73.9510 C   0  0  0  0  0  0  0  0  0  0  0  0
   -0.2490   53.7570   74.8650 C   0  0  0  0  0  0  0  0  0  0  0  0
    0.2150   55.2420   77.2240 C   0  0  0  0  0  0  0  0  0  0  0  0
    0.6950   54.3440   77.9710 O   0  0  0  0  0  0  0  0  0  0  0  0
   -0.8840   55.8610   77.2890 O   0  0  0  0  0  1  0  0  0  0  0  0
    3.2490   60.0180   72.0510 C   0  0  1  0  0  0  0  0  0  0  0  0
    3.5900   61.0930   71.0500 C   0  0  0  0  0  0  0  0  0  0  0  0
    3.0620   61.0880   69.7470 C   0  0  0  0  0  0  0  0  0  0  0  0
    3.3680   62.1150   68.8520 C   0  0  0  0  0  0  0  0  0  0  0  0
    4.1940   63.1640   69.2470 C   0  0  0  0  0  0  0  0  0  0  0  0
    4.7190   63.1880   70.5360 C   0  0  0  0  0  0  0  0  0  0  0  0
    4.4180   62.1620   71.4340 C   0  0  0  0  0  0  0  0  0  0  0  0
    4.0920   60.1480   73.2850 N   0  0  0  0  0  4  0  0  0  0  0  0
    1.1217   58.0017   72.2960 H   0  0  0  0  0  0  0  0  0  0  0  0
    0.7748   59.7733   74.6056 H   0  0  0  0  0  0  0  0  0  0  0  0
   -1.0127   57.8441   75.1722 H   0  0  0  0  0  0  0  0  0  0  0  0
    2.1313   55.3739   76.3293 H   0  0  0  0  0  0  0  0  0  0  0  0
    2.7329   54.2119   74.6661 H   0  0  0  0  0  0  0  0  0  0  0  0
    1.6944   53.6354   73.3186 H   0  0  0  0  0  0  0  0  0  0  0  0
    2.3115   55.3224   73.3186 H   0  0  0  0  0  0  0  0  0  0  0  0
   -0.4142   53.5472   75.9321 H   0  0  0  0  0  0  0  0  0  0  0  0
   -1.2108   53.9874   74.3834 H   0  0  0  0  0  0  0  0  0  0  0  0
    0.2005   52.8760   74.3834 H   0  0  0  0  0  0  0  0  0  0  0  0
    3.4491   59.0758   71.5197 H   0  0  0  0  0  0  0  0  0  0  0  0
    2.4017   60.2674   69.4297 H   0  0  0  0  0  0  0  0  0  0  0  0
    2.9556   62.0953   67.8324 H   0  0  0  0  0  0  0  0  0  0  0  0
    4.4316   63.9733   68.5409 H   0  0  0  0  0  0  0  0  0  0  0  0
    5.3720   64.0165   70.8476 H   0  0  0  0  0  0  0  0  0  0  0  0
    4.8331   62.1906   72.4523 H   0  0  0  0  0  0  0  0  0  0  0  0
    3.4954   60.0560   74.1196 H   0  0  0  0  0  0  0  0  0  0  0  0
    4.8079   59.4075   73.2913 H   0  0  0  0  0  0  0  0  0  0  0  0
    4.5515   61.0698   73.2913 H   0  0  0  0  0  0  0  0  0  0  0  0
  2  1  2  0
  3  1  1  0
  4  3  1  0
  5  4  1  0
  6  5  2  0
  7  5  1  0
  8  4  1  0
  8  7  1  0
  9  8  1  0
 10  9  1  0
 11 10  1  0
 11  7  1  0
 12 10  1  0
 13 10  1  0
 14 11  1  0
 15 14  2  0
 16 14  1  0
 17  1  1  0
 18 17  1  0
 19 18  2  0
 20 19  1  0
 21 20  2  0
 22 21  1  0
 23 22  2  0
 23 18  1  0
 24 17  1  0
  3 25  1  0
  4 26  1  1
  8 27  1  1
 11 28  1  1
 12 29  1  0
 12 30  1  0
 12 31  1  0
 13 32  1  0
 13 33  1  0
 13 34  1  0
 17 35  1  6
 19 36  1  0
 20 37  1  0
 21 38  1  0
 22 39  1  0
 23 40  1  0
 24 41  1  0
 24 42  1  0
 24 43  1  0
M  CHG  2  16  -1  24   1
M  END
>  <score>  (7) 
-6.901

$$$$
=
     RDKit          3D

 43 45  0  0  0  0  0  0  0  0999 V2000
    2.1700   60.1660   73.3980 C   0  0  0  0  0  0  0  0  0  0  0  0
    2.4130   59.2780   72.5770 O   0  0  0  0  0  0  0  0  0  0  0  0
    1.0380   60.1560   74.1920 N   0  0  0  0  0  0  0  0  0  0  0  0
   -0.2830   60.0840   73.4380 C   0  0  2  0  0  0  0  0  0  0  0  0
   -1.0750   61.4360   73.5120 C   0  0  0  0  0  0  0  0  0  0  0  0
   -0.7460   62.6070   73.5050 O   0  0  0  0  0  0  0  0  0  0  0  0
   -2.1970   60.7910   73.8970 N   0  0  0  0  0  0  0  0  0  0  0  0
   -1.5090   59.5390   74.2300 C   0  0  2  0  0  0  0  0  0  0  0  0
   -1.2790   59.6120   76.0690 S   0  0  0  0  0  0  0  0  0  0  0  0
   -2.6000   60.9190   76.2980 C   0  0  0  0  0  0  0  0  0  0  0  0
   -3.1660   61.2710   74.8950 C   0  0  2  0  0  0  0  0  0  0  0  0
   -1.8970   62.1470   76.9030 C   0  0  0  0  0  0  0  0  0  0  0  0
   -3.6080   60.3830   77.3240 C   0  0  0  0  0  0  0  0  0  0  0  0
   -4.5860   60.6830   74.6900 C   0  0  0  0  0  0  0  0  0  0  0  0
   -5.5330   61.5140   74.7730 O   0  0  0  0  0  0  0  0  0  0  0  0
   -4.6030   59.4420   74.4560 O   0  0  0  0  0  1  0  0  0  0  0  0
    2.9520   61.4980   73.3610 C   0  0  1  0  0  0  0  0  0  0  0  0
    3.1150   62.0830   71.9790 C   0  0  0  0  0  0  0  0  0  0  0  0
    4.3820   62.3320   71.4230 C   0  0  0  0  0  0  0  0  0  0  0  0
    4.5030   62.8410   70.1290 C   0  0  0  0  0  0  0  0  0  0  0  0
    3.3650   63.1000   69.3710 C   0  0  0  0  0  0  0  0  0  0  0  0
    2.1020   62.8540   69.9040 C   0  0  0  0  0  0  0  0  0  0  0  0
    1.9760   62.3450   71.1980 C   0  0  0  0  0  0  0  0  0  0  0  0
    2.2450   62.4600   74.2700 N   0  0  0  0  0  4  0  0  0  0  0  0
    1.0850   60.1945   75.2202 H   0  0  0  0  0  0  0  0  0  0  0  0
    0.0863   59.5971   72.5234 H   0  0  0  0  0  0  0  0  0  0  0  0
   -1.8708   58.5216   74.0203 H   0  0  0  0  0  0  0  0  0  0  0  0
   -3.2909   62.3585   74.7867 H   0  0  0  0  0  0  0  0  0  0  0  0
   -1.9321   62.0857   78.0007 H   0  0  0  0  0  0  0  0  0  0  0  0
   -0.8488   62.1703   76.5704 H   0  0  0  0  0  0  0  0  0  0  0  0
   -2.4077   63.0627   76.5704 H   0  0  0  0  0  0  0  0  0  0  0  0
   -3.2367   60.5804   78.3405 H   0  0  0  0  0  0  0  0  0  0  0  0
   -4.5765   60.8852   77.1834 H   0  0  0  0  0  0  0  0  0  0  0  0
   -3.7332   59.2992   77.1834 H   0  0  0  0  0  0  0  0  0  0  0  0
    3.9801   61.3011   73.6990 H   0  0  0  0  0  0  0  0  0  0  0  0
    5.2865   62.1237   72.0133 H   0  0  0  0  0  0  0  0  0  0  0  0
    5.4998   63.0378   69.7075 H   0  0  0  0  0  0  0  0  0  0  0  0
    3.4630   63.4991   68.3507 H   0  0  0  0  0  0  0  0  0  0  0  0
    1.2029   63.0609   69.3049 H   0  0  0  0  0  0  0  0  0  0  0  0
    0.9756   62.1471   71.6104 H   0  0  0  0  0  0  0  0  0  0  0  0
    2.4316   62.2061   75.2506 H   0  0  0  0  0  0  0  0  0  0  0  0
    2.5867   63.4152   74.0917 H   0  0  0  0  0  0  0  0  0  0  0  0
    1.2314   62.4191   74.0917 H   0  0  0  0  0  0  0  0  0  0  0  0
  2  1  2  0
  3  1  1  0
  4  3  1  0
  5  4  1  0
  6  5  2  0
  7  5  1  0
  8  4  1  0
  8  7  1  0
  9  8  1  0
 10  9  1  0
 11 10  1  0
 11  7  1  0
 12 10  1  0
 13 10  1  0
 14 11  1  0
 15 14  2  0
 16 14  1  0
 17  1  1  0
 18 17  1  0
 19 18  2  0
 20 19  1  0
 21 20  2  0
 22 21  1  0
 23 22  2  0
 23 18  1  0
 24 17  1  0
  3 25  1  0
  4 26  1  6
  8 27  1  6
 11 28  1  1
 12 29  1  0
 12 30  1  0
 12 31  1  0
 13 32  1  0
 13 33  1  0
 13 34  1  0
 17 35  1  1
 19 36  1  0
 20 37  1  0
 21 38  1  0
 22 39  1  0
 23 40  1  0
 24 41  1  0
 24 42  1  0
 24 43  1  0
M  CHG  2  16  -1  24   1
M  END
>  <score>  (8) 
-6.57

$$$$
=
     RDKit          3D

 43 45  0  0  0  0  0  0  0  0999 V2000
    2.8940   58.5880   73.7730 C   0  0  0  0  0  0  0  0  0  0  0  0
    4.0470   58.9550   74.0100 O   0  0  0  0  0  0  0  0  0  0  0  0
    2.0880   57.9990   74.7300 N   0  0  0  0  0  0  0  0  0  0  0  0
    2.6660   56.7530   75.3870 C   0  0  2  0  0  0  0  0  0  0  0  0
    2.1860   55.4400   74.6760 C   0  0  0  0  0  0  0  0  0  0  0  0
    1.9690   55.1400   73.5170 O   0  0  0  0  0  0  0  0  0  0  0  0
    1.8190   54.8980   75.8570 N   0  0  0  0  0  0  0  0  0  0  0  0
    1.8690   56.1670   76.5910 C   0  0  2  0  0  0  0  0  0  0  0  0
    0.1060   56.7400   76.6470 S   0  0  0  0  0  0  0  0  0  0  0  0
   -0.5790   55.0390   76.2700 C   0  0  0  0  0  0  0  0  0  0  0  0
    0.6230   54.0730   76.0910 C   0  0  2  0  0  0  0  0  0  0  0  0
   -1.3540   55.1650   74.9470 C   0  0  0  0  0  0  0  0  0  0  0  0
   -1.5760   54.6870   77.3830 C   0  0  0  0  0  0  0  0  0  0  0  0
    0.7750   53.1210   77.3040 C   0  0  0  0  0  0  0  0  0  0  0  0
    0.2620   51.9760   77.1610 O   0  0  0  0  0  0  0  0  0  0  0  0
    1.4050   53.6210   78.2780 O   0  0  0  0  0  1  0  0  0  0  0  0
    2.3970   58.4710   72.3140 C   0  0  1  0  0  0  0  0  0  0  0  0
    2.6590   59.6940   71.4700 C   0  0  0  0  0  0  0  0  0  0  0  0
    3.4760   59.6460   70.3260 C   0  0  0  0  0  0  0  0  0  0  0  0
    3.6740   60.7860   69.5450 C   0  0  0  0  0  0  0  0  0  0  0  0
    3.0530   61.9840   69.8870 C   0  0  0  0  0  0  0  0  0  0  0  0
    2.2350   62.0470   71.0130 C   0  0  0  0  0  0  0  0  0  0  0  0
    2.0360   60.9100   71.7980 C   0  0  0  0  0  0  0  0  0  0  0  0
    3.0430   57.2570   71.7140 N   0  0  0  0  0  4  0  0  0  0  0  0
    1.1629   58.3762   74.9804 H   0  0  0  0  0  0  0  0  0  0  0  0
    3.7065   57.0962   75.4845 H   0  0  0  0  0  0  0  0  0  0  0  0
    2.2569   56.3146   77.6097 H   0  0  0  0  0  0  0  0  0  0  0  0
    0.4637   53.4095   75.2282 H   0  0  0  0  0  0  0  0  0  0  0  0
   -2.4190   55.3381   75.1610 H   0  0  0  0  0  0  0  0  0  0  0  0
   -0.9544   56.0100   74.3670 H   0  0  0  0  0  0  0  0  0  0  0  0
   -1.2427   54.2370   74.3670 H   0  0  0  0  0  0  0  0  0  0  0  0
   -1.1051   54.8532   78.3631 H   0  0  0  0  0  0  0  0  0  0  0  0
   -2.4676   55.3247   77.2917 H   0  0  0  0  0  0  0  0  0  0  0  0
   -1.8696   53.6309   77.2917 H   0  0  0  0  0  0  0  0  0  0  0  0
    1.3009   58.3797   72.3322 H   0  0  0  0  0  0  0  0  0  0  0  0
    3.9636   58.7011   70.0441 H   0  0  0  0  0  0  0  0  0  0  0  0
    4.3221   60.7375   68.6575 H   0  0  0  0  0  0  0  0  0  0  0  0
    3.2081   62.8804   69.2686 H   0  0  0  0  0  0  0  0  0  0  0  0
    1.7453   62.9940   71.2838 H   0  0  0  0  0  0  0  0  0  0  0  0
    1.3847   60.9666   72.6826 H   0  0  0  0  0  0  0  0  0  0  0  0
    3.3733   56.6364   72.4668 H   0  0  0  0  0  0  0  0  0  0  0  0
    2.3572   56.7555   71.1317 H   0  0  0  0  0  0  0  0  0  0  0  0
    3.8420   57.5457   71.1317 H   0  0  0  0  0  0  0  0  0  0  0  0
  2  1  2  0
  3  1  1  0
  4  3  1  0
  5  4  1  0
  6  5  2  0
  7  5  1  0
  8  4  1  0
  8  7  1  0
  9  8  1  0
 10  9  1  0
 11 10  1  0
 11  7  1  0
 12 10  1  0
 13 10  1  0
 14 11  1  0
 15 14  2  0
 16 14  1  0
 17  1  1  0
 18 17  1  0
 19 18  2  0
 20 19  1  0
 21 20  2  0
 22 21  1  0
 23 22  2  0
 23 18  1  0
 24 17  1  0
  3 25  1  0
  4 26  1  1
  8 27  1  1
 11 28  1  6
 12 29  1  0
 12 30  1  0
 12 31  1  0
 13 32  1  0
 13 33  1  0
 13 34  1  0
 17 35  1  1
 19 36  1  0
 20 37  1  0
 21 38  1  0
 22 39  1  0
 23 40  1  0
 24 41  1  0
 24 42  1  0
 24 43  1  0
M  CHG  2  16  -1  24   1
M  END
>  <score>  (9) 
-6.54

$$$$
