=
     RDKit          3D

 28 28  0  0  0  0  0  0  0  0999 V2000
    1.9850   63.0300   71.7660 C   0  0  0  0  0  0  0  0  0  0  0  0
    1.3720   62.5250   72.9370 C   0  0  0  0  0  0  0  0  0  0  0  0
    0.2040   63.8310   74.1960 I   0  0  0  0  0  0  0  0  0  0  0  0
    1.5290   61.1610   73.2800 C   0  0  0  0  0  0  0  0  0  0  0  0
    2.2490   60.3040   72.4130 C   0  0  0  0  0  0  0  0  0  0  0  0
    2.9120   60.8040   71.2780 C   0  0  0  0  0  0  0  0  0  0  0  0
    2.7970   62.1730   70.9820 C   0  0  0  0  0  0  0  0  0  0  0  0
    3.8110   62.9920   69.2670 I   0  0  0  0  0  0  0  0  0  0  0  0
    2.3750   58.2100   72.8990 I   0  0  0  0  0  0  0  0  0  0  0  0
    1.0200   66.2120   70.0210 C   0  0  0  0  0  0  0  0  0  0  0  0
    0.8650   64.7770   70.4600 C   0  0  0  0  0  0  0  0  0  0  0  0
   -0.0310   64.0700   70.0110 O   0  0  0  0  0  0  0  0  0  0  0  0
    1.8590   64.3860   71.3480 N   0  0  0  0  0  0  0  0  0  0  0  0
    0.9540   60.5870   74.4530 N   0  0  0  0  0  0  0  0  0  0  0  0
   -0.3620   60.1450   74.4670 C   0  0  0  0  0  0  0  0  0  0  0  0
   -1.1310   60.1110   73.5120 O   0  0  0  0  0  0  0  0  0  0  0  0
   -0.8150   59.7380   75.8460 C   0  0  0  0  0  0  0  0  0  0  0  0
    3.7190   59.9020   70.4100 C   0  0  0  0  0  0  0  0  0  0  0  0
    3.1020   59.3460   69.4520 O   0  0  0  0  0  0  0  0  0  0  0  0
    4.9430   59.7810   70.7130 O   0  0  0  0  0  1  0  0  0  0  0  0
    1.0901   66.8608   70.9065 H   0  0  0  0  0  0  0  0  0  0  0  0
    1.9344   66.3143   69.4182 H   0  0  0  0  0  0  0  0  0  0  0  0
    0.1485   66.5072   69.4182 H   0  0  0  0  0  0  0  0  0  0  0  0
    2.5175   65.0899   71.7111 H   0  0  0  0  0  0  0  0  0  0  0  0
    1.5259   60.4990   75.3051 H   0  0  0  0  0  0  0  0  0  0  0  0
   -0.2195   60.2731   76.6004 H   0  0  0  0  0  0  0  0  0  0  0  0
   -1.8783   59.9901   75.9719 H   0  0  0  0  0  0  0  0  0  0  0  0
   -0.6778   58.6539   75.9719 H   0  0  0  0  0  0  0  0  0  0  0  0
  2  1  2  0
  3  2  1  0
  4  2  1  0
  5  4  2  0
  6  5  1  0
  7  6  2  0
  7  1  1  0
  8  7  1  0
  9  5  1  0
 11 10  1  0
 12 11  2  0
 13 11  1  0
 13  1  1  0
 14  4  1  0
 15 14  1  0
 16 15  2  0
 17 15  1  0
 18  6  1  0
 19 18  2  0
 20 18  1  0
 10 21  1  0
 10 22  1  0
 10 23  1  0
 13 24  1  0
 14 25  1  0
 17 26  1  0
 17 27  1  0
 17 28  1  0
M  CHG  1  20  -1
M  END
>  <score>  (1) 
-6.438

$$$$
=
     RDKit          3D

 28 28  0  0  0  0  0  0  0  0999 V2000
    1.5420   61.1680   73.2880 C   0  0  0  0  0  0  0  0  0  0  0  0
    1.3860   62.5330   72.9480 C   0  0  0  0  0  0  0  0  0  0  0  0
    0.2200   63.8360   74.2120 I   0  0  0  0  0  0  0  0  0  0  0  0
    1.9950   63.0390   71.7760 C   0  0  0  0  0  0  0  0  0  0  0  0
    2.8060   62.1850   70.9890 C   0  0  0  0  0  0  0  0  0  0  0  0
    2.9220   60.8160   71.2820 C   0  0  0  0  0  0  0  0  0  0  0  0
    2.2610   60.3130   72.4170 C   0  0  0  0  0  0  0  0  0  0  0  0
    2.3900   58.2170   72.8980 I   0  0  0  0  0  0  0  0  0  0  0  0
    3.8150   63.0090   69.2740 I   0  0  0  0  0  0  0  0  0  0  0  0
   -0.7910   59.7300   75.8550 C   0  0  0  0  0  0  0  0  0  0  0  0
   -0.3420   60.1400   74.4750 C   0  0  0  0  0  0  0  0  0  0  0  0
   -1.1110   60.1050   73.5210 O   0  0  0  0  0  0  0  0  0  0  0  0
    0.9720   60.5910   74.4590 N   0  0  0  0  0  0  0  0  0  0  0  0
    1.8680   64.3990   71.3620 N   0  0  0  0  0  0  0  0  0  0  0  0
    0.8800   64.7890   70.4680 C   0  0  0  0  0  0  0  0  0  0  0  0
   -0.0110   64.0810   70.0100 O   0  0  0  0  0  0  0  0  0  0  0  0
    1.0340   66.2250   70.0350 C   0  0  0  0  0  0  0  0  0  0  0  0
    3.7260   59.9160   70.4090 C   0  0  0  0  0  0  0  0  0  0  0  0
    3.1050   59.3560   69.4570 O   0  0  0  0  0  0  0  0  0  0  0  0
    4.9530   59.7990   70.7050 O   0  0  0  0  0  1  0  0  0  0  0  0
   -0.1993   60.2703   76.6087 H   0  0  0  0  0  0  0  0  0  0  0  0
   -1.8562   59.9736   75.9815 H   0  0  0  0  0  0  0  0  0  0  0  0
   -0.6450   58.6471   75.9815 H   0  0  0  0  0  0  0  0  0  0  0  0
    1.5452   60.5065   75.3106 H   0  0  0  0  0  0  0  0  0  0  0  0
    2.5211   65.1037   71.7331 H   0  0  0  0  0  0  0  0  0  0  0  0
    1.1032   66.8704   70.9231 H   0  0  0  0  0  0  0  0  0  0  0  0
    1.9486   66.3304   69.4330 H   0  0  0  0  0  0  0  0  0  0  0  0
    0.1625   66.5219   69.4330 H   0  0  0  0  0  0  0  0  0  0  0  0
  2  1  2  0
  3  2  1  0
  4  2  1  0
  5  4  2  0
  6  5  1  0
  7  6  2  0
  7  1  1  0
  8  7  1  0
  9  5  1  0
 11 10  1  0
 12 11  2  0
 13 11  1  0
 13  1  1  0
 14  4  1  0
 15 14  1  0
 16 15  2  0
 17 15  1  0
 18  6  1  0
 19 18  2  0
 20 18  1  0
 10 21  1  0
 10 22  1  0
 10 23  1  0
 13 24  1  0
 14 25  1  0
 17 26  1  0
 17 27  1  0
 17 28  1  0
M  CHG  1  20  -1
M  END
>  <score>  (2) 
-6.431

$$$$
=
     RDKit          3D

 28 28  0  0  0  0  0  0  0  0999 V2000
    2.1250   61.4960   71.5550 C   0  0  0  0  0  0  0  0  0  0  0  0
    2.5030   60.2770   72.1670 C   0  0  0  0  0  0  0  0  0  0  0  0
    3.5610   58.7790   71.0320 I   0  0  0  0  0  0  0  0  0  0  0  0
    2.1830   60.0450   73.5260 C   0  0  0  0  0  0  0  0  0  0  0  0
    1.5410   61.0620   74.2730 C   0  0  0  0  0  0  0  0  0  0  0  0
    1.1080   62.2520   73.6630 C   0  0  0  0  0  0  0  0  0  0  0  0
    1.3790   62.4450   72.2970 C   0  0  0  0  0  0  0  0  0  0  0  0
    0.7180   64.2410   71.3110 I   0  0  0  0  0  0  0  0  0  0  0  0
    1.1690   60.7280   76.3680 I   0  0  0  0  0  0  0  0  0  0  0  0
    3.6710   62.7950   68.3890 C   0  0  0  0  0  0  0  0  0  0  0  0
    3.6320   62.3960   69.8430 C   0  0  0  0  0  0  0  0  0  0  0  0
    4.5740   62.6360   70.5910 O   0  0  0  0  0  0  0  0  0  0  0  0
    2.4260   61.8070   70.1970 N   0  0  0  0  0  0  0  0  0  0  0  0
    2.5180   58.8350   74.2040 N   0  0  0  0  0  0  0  0  0  0  0  0
    1.6790   57.7300   74.1600 C   0  0  0  0  0  0  0  0  0  0  0  0
    0.6480   57.6220   73.5040 O   0  0  0  0  0  0  0  0  0  0  0  0
    2.1350   56.6270   75.0820 C   0  0  0  0  0  0  0  0  0  0  0  0
    0.3760   63.2870   74.4460 C   0  0  0  0  0  0  0  0  0  0  0  0
    1.0890   64.1610   75.0250 O   0  0  0  0  0  0  0  0  0  0  0  0
   -0.8880   63.1910   74.4560 O   0  0  0  0  0  1  0  0  0  0  0  0
    3.7777   63.8870   68.3112 H   0  0  0  0  0  0  0  0  0  0  0  0
    4.5257   62.3071   67.8977 H   0  0  0  0  0  0  0  0  0  0  0  0
    2.7380   62.4819   67.8977 H   0  0  0  0  0  0  0  0  0  0  0  0
    1.7353   61.5905   69.4642 H   0  0  0  0  0  0  0  0  0  0  0  0
    3.3984   58.7805   74.7358 H   0  0  0  0  0  0  0  0  0  0  0  0
    2.0036   56.9448   76.1269 H   0  0  0  0  0  0  0  0  0  0  0  0
    1.5370   55.7227   74.8958 H   0  0  0  0  0  0  0  0  0  0  0  0
    3.1970   56.4090   74.8958 H   0  0  0  0  0  0  0  0  0  0  0  0
  2  1  2  0
  3  2  1  0
  4  2  1  0
  5  4  2  0
  6  5  1  0
  7  6  2  0
  7  1  1  0
  8  7  1  0
  9  5  1  0
 11 10  1  0
 12 11  2  0
 13 11  1  0
 13  1  1  0
 14  4  1  0
 15 14  1  0
 16 15  2  0
 17 15  1  0
 18  6  1  0
 19 18  2  0
 20 18  1  0
 10 21  1  0
 10 22  1  0
 10 23  1  0
 13 24  1  0
 14 25  1  0
 17 26  1  0
 17 27  1  0
 17 28  1  0
M  CHG  1  20  -1
M  END
>  <score>  (3) 
-6.157

$$$$
=
     RDKit          3D

 28 28  0  0  0  0  0  0  0  0999 V2000
    1.8350   61.6580   71.1810 C   0  0  0  0  0  0  0  0  0  0  0  0
    1.0150   62.5670   71.8920 C   0  0  0  0  0  0  0  0  0  0  0  0
    0.5530   64.4960   71.0450 I   0  0  0  0  0  0  0  0  0  0  0  0
    0.5000   62.2060   73.1590 C   0  0  0  0  0  0  0  0  0  0  0  0
    0.7630   60.9130   73.6750 C   0  0  0  0  0  0  0  0  0  0  0  0
    1.6230   60.0240   73.0080 C   0  0  0  0  0  0  0  0  0  0  0  0
    2.1760   60.4190   71.7770 C   0  0  0  0  0  0  0  0  0  0  0  0
    3.5170   59.1010   70.7260 I   0  0  0  0  0  0  0  0  0  0  0  0
   -0.1270   60.3480   75.5520 I   0  0  0  0  0  0  0  0  0  0  0  0
    3.8590   62.9920   68.3140 C   0  0  0  0  0  0  0  0  0  0  0  0
    3.5620   62.6520   69.7530 C   0  0  0  0  0  0  0  0  0  0  0  0
    4.2990   63.0270   70.6580 O   0  0  0  0  0  0  0  0  0  0  0  0
    2.3750   61.9450   69.8950 N   0  0  0  0  0  0  0  0  0  0  0  0
   -0.3190   63.0760   73.9390 N   0  0  0  0  0  0  0  0  0  0  0  0
    0.2320   63.9210   74.8920 C   0  0  0  0  0  0  0  0  0  0  0  0
    1.4270   64.0850   75.1180 O   0  0  0  0  0  0  0  0  0  0  0  0
   -0.8200   64.6190   75.7160 C   0  0  0  0  0  0  0  0  0  0  0  0
    1.9430   58.6910   73.5930 C   0  0  0  0  0  0  0  0  0  0  0  0
    1.1800   57.7350   73.2610 O   0  0  0  0  0  0  0  0  0  0  0  0
    2.9470   58.6450   74.3640 O   0  0  0  0  0  1  0  0  0  0  0  0
    4.5822   63.8199   68.2746 H   0  0  0  0  0  0  0  0  0  0  0  0
    4.2821   62.1112   67.8089 H   0  0  0  0  0  0  0  0  0  0  0  0
    2.9293   63.2929   67.8089 H   0  0  0  0  0  0  0  0  0  0  0  0
    1.8757   61.6221   69.0540 H   0  0  0  0  0  0  0  0  0  0  0  0
   -1.3384   63.0768   73.7919 H   0  0  0  0  0  0  0  0  0  0  0  0
   -0.6035   64.4754   76.7849 H   0  0  0  0  0  0  0  0  0  0  0  0
   -0.8155   65.6938   75.4822 H   0  0  0  0  0  0  0  0  0  0  0  0
   -1.8086   64.1971   75.4822 H   0  0  0  0  0  0  0  0  0  0  0  0
  2  1  2  0
  3  2  1  0
  4  2  1  0
  5  4  2  0
  6  5  1  0
  7  6  2  0
  7  1  1  0
  8  7  1  0
  9  5  1  0
 11 10  1  0
 12 11  2  0
 13 11  1  0
 13  1  1  0
 14  4  1  0
 15 14  1  0
 16 15  2  0
 17 15  1  0
 18  6  1  0
 19 18  2  0
 20 18  1  0
 10 21  1  0
 10 22  1  0
 10 23  1  0
 13 24  1  0
 14 25  1  0
 17 26  1  0
 17 27  1  0
 17 28  1  0
M  CHG  1  20  -1
M  END
>  <score>  (4) 
-6.095

$$$$
=
     RDKit          3D

 28 28  0  0  0  0  0  0  0  0999 V2000
    0.5970   62.1300   73.0700 C   0  0  0  0  0  0  0  0  0  0  0  0
    1.0870   62.5110   71.7980 C   0  0  0  0  0  0  0  0  0  0  0  0
    0.5750   64.4370   70.9740 I   0  0  0  0  0  0  0  0  0  0  0  0
    1.9140   61.6230   71.0690 C   0  0  0  0  0  0  0  0  0  0  0  0
    2.2890   60.3860   71.6490 C   0  0  0  0  0  0  0  0  0  0  0  0
    1.7630   59.9710   72.8840 C   0  0  0  0  0  0  0  0  0  0  0  0
    0.8950   60.8380   73.5710 C   0  0  0  0  0  0  0  0  0  0  0  0
    0.0440   60.2390   75.4570 I   0  0  0  0  0  0  0  0  0  0  0  0
    3.6400   59.1050   70.5670 I   0  0  0  0  0  0  0  0  0  0  0  0
   -0.7320   64.4900   75.6700 C   0  0  0  0  0  0  0  0  0  0  0  0
    0.3230   63.8190   74.8260 C   0  0  0  0  0  0  0  0  0  0  0  0
    1.5160   63.9980   75.0420 O   0  0  0  0  0  0  0  0  0  0  0  0
   -0.2250   62.9750   73.8680 N   0  0  0  0  0  0  0  0  0  0  0  0
    2.4300   61.9320   69.7760 N   0  0  0  0  0  0  0  0  0  0  0  0
    3.6040   62.6580   69.6240 C   0  0  0  0  0  0  0  0  0  0  0  0
    4.3510   63.0330   70.5220 O   0  0  0  0  0  0  0  0  0  0  0  0
    3.8720   63.0200   68.1850 C   0  0  0  0  0  0  0  0  0  0  0  0
    2.1160   58.6410   73.4540 C   0  0  0  0  0  0  0  0  0  0  0  0
    1.3690   57.6720   73.1200 O   0  0  0  0  0  0  0  0  0  0  0  0
    3.1290   58.6090   74.2150 O   0  0  0  0  0  1  0  0  0  0  0  0
   -0.4988   64.3417   76.7347 H   0  0  0  0  0  0  0  0  0  0  0  0
   -0.7512   65.5666   75.4454 H   0  0  0  0  0  0  0  0  0  0  0  0
   -1.7152   64.0509   75.4454 H   0  0  0  0  0  0  0  0  0  0  0  0
   -1.2459   62.9604   73.7325 H   0  0  0  0  0  0  0  0  0  0  0  0
    1.9225   61.6107   68.9393 H   0  0  0  0  0  0  0  0  0  0  0  0
    4.5261   63.9035   68.1449 H   0  0  0  0  0  0  0  0  0  0  0  0
    4.3646   62.1759   67.6802 H   0  0  0  0  0  0  0  0  0  0  0  0
    2.9209   63.2447   67.6802 H   0  0  0  0  0  0  0  0  0  0  0  0
  2  1  2  0
  3  2  1  0
  4  2  1  0
  5  4  2  0
  6  5  1  0
  7  6  2  0
  7  1  1  0
  8  7  1  0
  9  5  1  0
 11 10  1  0
 12 11  2  0
 13 11  1  0
 13  1  1  0
 14  4  1  0
 15 14  1  0
 16 15  2  0
 17 15  1  0
 18  6  1  0
 19 18  2  0
 20 18  1  0
 10 21  1  0
 10 22  1  0
 10 23  1  0
 13 24  1  0
 14 25  1  0
 17 26  1  0
 17 27  1  0
 17 28  1  0
M  CHG  1  20  -1
M  END
>  <score>  (5) 
-6.091

$$$$
=
     RDKit          3D

 28 28  0  0  0  0  0  0  0  0999 V2000
    1.7500   60.7470   72.0400 C   0  0  0  0  0  0  0  0  0  0  0  0
    1.8730   59.3510   72.2370 C   0  0  0  0  0  0  0  0  0  0  0  0
    3.4330   58.2500   71.2330 I   0  0  0  0  0  0  0  0  0  0  0  0
    0.9690   58.6790   73.0930 C   0  0  0  0  0  0  0  0  0  0  0  0
   -0.0130   59.4250   73.7910 C   0  0  0  0  0  0  0  0  0  0  0  0
   -0.1840   60.8010   73.5600 C   0  0  0  0  0  0  0  0  0  0  0  0
    0.6840   61.4440   72.6600 C   0  0  0  0  0  0  0  0  0  0  0  0
    0.4490   63.5470   72.2550 I   0  0  0  0  0  0  0  0  0  0  0  0
   -1.3010   58.3960   75.1760 I   0  0  0  0  0  0  0  0  0  0  0  0
    4.5450   62.8600   70.6920 C   0  0  0  0  0  0  0  0  0  0  0  0
    3.8540   61.9520   71.6780 C   0  0  0  0  0  0  0  0  0  0  0  0
    4.3440   61.7210   72.7780 O   0  0  0  0  0  0  0  0  0  0  0  0
    2.6310   61.4930   71.2060 N   0  0  0  0  0  0  0  0  0  0  0  0
    1.0230   57.2730   73.3270 N   0  0  0  0  0  0  0  0  0  0  0  0
    1.8880   56.7320   74.2680 C   0  0  0  0  0  0  0  0  0  0  0  0
    2.6120   57.3560   75.0360 O   0  0  0  0  0  0  0  0  0  0  0  0
    1.9080   55.2250   74.2290 C   0  0  0  0  0  0  0  0  0  0  0  0
   -1.2610   61.5610   74.2530 C   0  0  0  0  0  0  0  0  0  0  0  0
   -2.3910   61.5820   73.6790 O   0  0  0  0  0  0  0  0  0  0  0  0
   -0.9420   62.1110   75.3490 O   0  0  0  0  0  1  0  0  0  0  0  0
    5.1237   63.6204   71.2370 H   0  0  0  0  0  0  0  0  0  0  0  0
    5.2224   62.2671   70.0599 H   0  0  0  0  0  0  0  0  0  0  0  0
    3.7930   63.3549   70.0599 H   0  0  0  0  0  0  0  0  0  0  0  0
    2.3560   61.6960   70.2344 H   0  0  0  0  0  0  0  0  0  0  0  0
    0.4083   56.6472   72.7873 H   0  0  0  0  0  0  0  0  0  0  0  0
    1.9132   54.8317   75.2563 H   0  0  0  0  0  0  0  0  0  0  0  0
    1.0146   54.8600   73.7011 H   0  0  0  0  0  0  0  0  0  0  0  0
    2.8108   54.8838   73.7011 H   0  0  0  0  0  0  0  0  0  0  0  0
  2  1  2  0
  3  2  1  0
  4  2  1  0
  5  4  2  0
  6  5  1  0
  7  6  2  0
  7  1  1  0
  8  7  1  0
  9  5  1  0
 11 10  1  0
 12 11  2  0
 13 11  1  0
 13  1  1  0
 14  4  1  0
 15 14  1  0
 16 15  2  0
 17 15  1  0
 18  6  1  0
 19 18  2  0
 20 18  1  0
 10 21  1  0
 10 22  1  0
 10 23  1  0
 13 24  1  0
 14 25  1  0
 17 26  1  0
 17 27  1  0
 17 28  1  0
M  CHG  1  20  -1
M  END
>  <score>  (6) 
-6.007

$$$$
=
     RDKit          3D

 28 28  0  0  0  0  0  0  0  0999 V2000
    1.7240   59.7920   73.7270 C   0  0  0  0  0  0  0  0  0  0  0  0
    2.1510   60.0030   72.3940 C   0  0  0  0  0  0  0  0  0  0  0  0
    3.1510   58.4260   71.3160 I   0  0  0  0  0  0  0  0  0  0  0  0
    1.9200   61.2530   71.7730 C   0  0  0  0  0  0  0  0  0  0  0  0
    1.2090   62.2580   72.4730 C   0  0  0  0  0  0  0  0  0  0  0  0
    0.8320   62.0830   73.8160 C   0  0  0  0  0  0  0  0  0  0  0  0
    1.1210   60.8560   74.4410 C   0  0  0  0  0  0  0  0  0  0  0  0
    0.5820   60.5460   76.5030 I   0  0  0  0  0  0  0  0  0  0  0  0
    0.7700   64.1090   71.4640 I   0  0  0  0  0  0  0  0  0  0  0  0
    3.1440   56.8300   75.5470 C   0  0  0  0  0  0  0  0  0  0  0  0
    3.1090   58.2490   75.0360 C   0  0  0  0  0  0  0  0  0  0  0  0
    4.0830   58.9860   75.1450 O   0  0  0  0  0  0  0  0  0  0  0  0
    1.9070   58.5560   74.4130 N   0  0  0  0  0  0  0  0  0  0  0  0
    2.3360   61.5430   70.4390 N   0  0  0  0  0  0  0  0  0  0  0  0
    3.5790   62.1050   70.1800 C   0  0  0  0  0  0  0  0  0  0  0  0
    4.4620   62.3320   70.9990 O   0  0  0  0  0  0  0  0  0  0  0  0
    3.7420   62.4880   68.7300 C   0  0  0  0  0  0  0  0  0  0  0  0
    0.1410   63.1720   74.5610 C   0  0  0  0  0  0  0  0  0  0  0  0
   -1.1250   63.1260   74.5760 O   0  0  0  0  0  0  0  0  0  0  0  0
    0.8890   64.0370   75.1080 O   0  0  0  0  0  1  0  0  0  0  0  0
    3.1438   56.8363   76.6470 H   0  0  0  0  0  0  0  0  0  0  0  0
    2.2590   56.2874   75.1833 H   0  0  0  0  0  0  0  0  0  0  0  0
    4.0547   56.3317   75.1833 H   0  0  0  0  0  0  0  0  0  0  0  0
    1.1326   57.8777   74.4471 H   0  0  0  0  0  0  0  0  0  0  0  0
    1.7030   61.3317   69.6545 H   0  0  0  0  0  0  0  0  0  0  0  0
    4.1720   63.4983   68.6637 H   0  0  0  0  0  0  0  0  0  0  0  0
    4.4129   61.7708   68.2345 H   0  0  0  0  0  0  0  0  0  0  0  0
    2.7600   62.4742   68.2345 H   0  0  0  0  0  0  0  0  0  0  0  0
  2  1  2  0
  3  2  1  0
  4  2  1  0
  5  4  2  0
  6  5  1  0
  7  6  2  0
  7  1  1  0
  8  7  1  0
  9  5  1  0
 11 10  1  0
 12 11  2  0
 13 11  1  0
 13  1  1  0
 14  4  1  0
 15 14  1  0
 16 15  2  0
 17 15  1  0
 18  6  1  0
 19 18  2  0
 20 18  1  0
 10 21  1  0
 10 22  1  0
 10 23  1  0
 13 24  1  0
 14 25  1  0
 17 26  1  0
 17 27  1  0
 17 28  1  0
M  CHG  1  20  -1
M  END
>  <score>  (7) 
-5.742

$$$$
=
     RDKit          3D

 28 28  0  0  0  0  0  0  0  0999 V2000
    1.4710   68.9900   65.4090 C   0  0  0  0  0  0  0  0  0  0  0  0
    2.6260   69.0680   66.2230 C   0  0  0  0  0  0  0  0  0  0  0  0
    2.4320   69.3230   68.3560 I   0  0  0  0  0  0  0  0  0  0  0  0
    3.9090   68.9790   65.6330 C   0  0  0  0  0  0  0  0  0  0  0  0
    4.0190   68.7520   64.2390 C   0  0  0  0  0  0  0  0  0  0  0  0
    2.8830   68.7320   63.4120 C   0  0  0  0  0  0  0  0  0  0  0  0
    1.6170   68.8820   64.0040 C   0  0  0  0  0  0  0  0  0  0  0  0
   -0.1540   68.8790   62.7780 I   0  0  0  0  0  0  0  0  0  0  0  0
    5.9800   68.5060   63.3830 I   0  0  0  0  0  0  0  0  0  0  0  0
   -1.9630   68.1860   66.6970 C   0  0  0  0  0  0  0  0  0  0  0  0
   -0.5240   67.9100   66.3410 C   0  0  0  0  0  0  0  0  0  0  0  0
   -0.0680   66.7730   66.3790 O   0  0  0  0  0  0  0  0  0  0  0  0
    0.1480   69.0560   65.9340 N   0  0  0  0  0  0  0  0  0  0  0  0
    5.1160   69.0650   66.3870 N   0  0  0  0  0  0  0  0  0  0  0  0
    5.5370   70.2690   66.9370 C   0  0  0  0  0  0  0  0  0  0  0  0
    4.9250   71.3320   66.9220 O   0  0  0  0  0  0  0  0  0  0  0  0
    6.9160   70.1730   67.5400 C   0  0  0  0  0  0  0  0  0  0  0  0
    3.0170   68.5570   61.9390 C   0  0  0  0  0  0  0  0  0  0  0  0
    3.3480   67.4000   61.5390 O   0  0  0  0  0  0  0  0  0  0  0  0
    2.7860   69.5810   61.2290 O   0  0  0  0  0  1  0  0  0  0  0  0
   -2.0724   68.2070   67.7913 H   0  0  0  0  0  0  0  0  0  0  0  0
   -2.2640   69.1582   66.2797 H   0  0  0  0  0  0  0  0  0  0  0  0
   -2.6023   67.3941   66.2797 H   0  0  0  0  0  0  0  0  0  0  0  0
   -0.3190   69.9706   66.0133 H   0  0  0  0  0  0  0  0  0  0  0  0
    5.6863   68.2187   66.5264 H   0  0  0  0  0  0  0  0  0  0  0  0
    6.8376   70.1785   68.6372 H   0  0  0  0  0  0  0  0  0  0  0  0
    7.3957   69.2393   67.2113 H   0  0  0  0  0  0  0  0  0  0  0  0
    7.5205   71.0312   67.2113 H   0  0  0  0  0  0  0  0  0  0  0  0
  2  1  2  0
  3  2  1  0
  4  2  1  0
  5  4  2  0
  6  5  1  0
  7  6  2  0
  7  1  1  0
  8  7  1  0
  9  5  1  0
 11 10  1  0
 12 11  2  0
 13 11  1  0
 13  1  1  0
 14  4  1  0
 15 14  1  0
 16 15  2  0
 17 15  1  0
 18  6  1  0
 19 18  2  0
 20 18  1  0
 10 21  1  0
 10 22  1  0
 10 23  1  0
 13 24  1  0
 14 25  1  0
 17 26  1  0
 17 27  1  0
 17 28  1  0
M  CHG  1  20  -1
M  END
>  <score>  (8) 
-5.74

$$$$
=
     RDKit          3D

 28 28  0  0  0  0  0  0  0  0999 V2000
    3.9180   68.9680   65.6670 C   0  0  0  0  0  0  0  0  0  0  0  0
    2.6280   69.0610   66.2420 C   0  0  0  0  0  0  0  0  0  0  0  0
    2.4080   69.3330   68.3700 I   0  0  0  0  0  0  0  0  0  0  0  0
    1.4820   68.9750   65.4150 C   0  0  0  0  0  0  0  0  0  0  0  0
    1.6440   68.8560   64.0130 C   0  0  0  0  0  0  0  0  0  0  0  0
    2.9160   68.7030   63.4360 C   0  0  0  0  0  0  0  0  0  0  0  0
    4.0430   68.7310   64.2760 C   0  0  0  0  0  0  0  0  0  0  0  0
    6.0140   68.4790   63.4440 I   0  0  0  0  0  0  0  0  0  0  0  0
   -0.1130   68.8410   62.7680 I   0  0  0  0  0  0  0  0  0  0  0  0
    6.8950   70.1810   67.6070 C   0  0  0  0  0  0  0  0  0  0  0  0
    5.5220   70.2680   66.9900 C   0  0  0  0  0  0  0  0  0  0  0  0
    4.9020   71.3260   66.9700 O   0  0  0  0  0  0  0  0  0  0  0  0
    5.1150   69.0620   66.4330 N   0  0  0  0  0  0  0  0  0  0  0  0
    0.1520   69.0440   65.9260 N   0  0  0  0  0  0  0  0  0  0  0  0
   -0.5180   67.9030   66.3460 C   0  0  0  0  0  0  0  0  0  0  0  0
   -0.0570   66.7690   66.4110 O   0  0  0  0  0  0  0  0  0  0  0  0
   -1.9620   68.1780   66.6810 C   0  0  0  0  0  0  0  0  0  0  0  0
    3.0680   68.5140   61.9660 C   0  0  0  0  0  0  0  0  0  0  0  0
    2.8340   69.5290   61.2440 O   0  0  0  0  0  0  0  0  0  0  0  0
    3.4170   67.3580   61.5840 O   0  0  0  0  0  1  0  0  0  0  0  0
    6.8053   70.1867   68.7033 H   0  0  0  0  0  0  0  0  0  0  0  0
    7.3839   69.2501   67.2839 H   0  0  0  0  0  0  0  0  0  0  0  0
    7.4975   71.0428   67.2839 H   0  0  0  0  0  0  0  0  0  0  0  0
    5.6900   68.2197   66.5768 H   0  0  0  0  0  0  0  0  0  0  0  0
   -0.3201   69.9576   65.9845 H   0  0  0  0  0  0  0  0  0  0  0  0
   -2.0868   68.2018   67.7736 H   0  0  0  0  0  0  0  0  0  0  0  0
   -2.2584   69.1487   66.2569 H   0  0  0  0  0  0  0  0  0  0  0  0
   -2.5944   67.3841   66.2569 H   0  0  0  0  0  0  0  0  0  0  0  0
  2  1  2  0
  3  2  1  0
  4  2  1  0
  5  4  2  0
  6  5  1  0
  7  6  2  0
  7  1  1  0
  8  7  1  0
  9  5  1  0
 11 10  1  0
 12 11  2  0
 13 11  1  0
 13  1  1  0
 14  4  1  0
 15 14  1  0
 16 15  2  0
 17 15  1  0
 18  6  1  0
 19 18  2  0
 20 18  1  0
 10 21  1  0
 10 22  1  0
 10 23  1  0
 13 24  1  0
 14 25  1  0
 17 26  1  0
 17 27  1  0
 17 28  1  0
M  CHG  1  20  -1
M  END
>  <score>  (9) 
-5.72

$$$$
