=
     RDKit          3D

  6  5  0  0  0  0  0  0  0  0999 V2000
   -9.9250   54.2580   56.8790 N   0  0  0  0  0  0  0  0  0  0  0  0
   -9.9750   53.2290   55.8810 N   0  0  0  0  0  0  0  0  0  0  0  0
   -9.9458   53.8294   57.8154 H   0  0  0  0  0  0  0  0  0  0  0  0
   -9.0566   54.8009   56.7691 H   0  0  0  0  0  0  0  0  0  0  0  0
  -10.0198   52.3078   56.3396 H   0  0  0  0  0  0  0  0  0  0  0  0
  -10.8106   53.3609   55.2934 H   0  0  0  0  0  0  0  0  0  0  0  0
  2  1  1  0
  1  3  1  0
  1  4  1  0
  2  5  1  0
  2  6  1  0
M  END
>  <score>  (1) 
-2.874

$$$$
=
     RDKit          3D

  6  5  0  0  0  0  0  0  0  0999 V2000
   17.4600   64.3610   67.0210 N   0  0  0  0  0  0  0  0  0  0  0  0
   18.6370   64.8860   67.6500 N   0  0  0  0  0  0  0  0  0  0  0  0
   16.7892   64.0618   67.7431 H   0  0  0  0  0  0  0  0  0  0  0  0
   17.0301   65.0901   66.4341 H   0  0  0  0  0  0  0  0  0  0  0  0
   18.5298   64.8382   68.6733 H   0  0  0  0  0  0  0  0  0  0  0  0
   19.4559   64.3304   67.3642 H   0  0  0  0  0  0  0  0  0  0  0  0
  2  1  1  0
  1  3  1  0
  1  4  1  0
  2  5  1  0
  2  6  1  0
M  END
>  <score>  (2) 
-2.743

$$$$
=
     RDKit          3D

  6  5  0  0  0  0  0  0  0  0999 V2000
   -2.2080   73.1910   73.6320 N   0  0  0  0  0  0  0  0  0  0  0  0
   -1.2410   72.1370   73.5340 N   0  0  0  0  0  0  0  0  0  0  0  0
   -2.3947   73.3945   74.6243 H   0  0  0  0  0  0  0  0  0  0  0  0
   -1.8423   74.0364   73.1711 H   0  0  0  0  0  0  0  0  0  0  0  0
   -0.9646   71.8357   74.4794 H   0  0  0  0  0  0  0  0  0  0  0  0
   -1.6516   71.3405   73.0261 H   0  0  0  0  0  0  0  0  0  0  0  0
  2  1  1  0
  1  3  1  0
  1  4  1  0
  2  5  1  0
  2  6  1  0
M  END
>  <score>  (3) 
-2.695

$$$$
=
     RDKit          3D

  6  5  0  0  0  0  0  0  0  0999 V2000
   -8.5170   71.9940   55.4280 N   0  0  0  0  0  0  0  0  0  0  0  0
   -7.4660   71.2620   56.0730 N   0  0  0  0  0  0  0  0  0  0  0  0
   -9.1270   72.4189   56.1409 H   0  0  0  0  0  0  0  0  0  0  0  0
   -8.1088   72.7345   54.8399 H   0  0  0  0  0  0  0  0  0  0  0  0
   -7.5728   71.3364   57.0947 H   0  0  0  0  0  0  0  0  0  0  0  0
   -7.5158   70.2718   55.7938 H   0  0  0  0  0  0  0  0  0  0  0  0
  2  1  1  0
  1  3  1  0
  1  4  1  0
  2  5  1  0
  2  6  1  0
M  END
>  <score>  (4) 
-2.587

$$$$
=
     RDKit          3D

  6  5  0  0  0  0  0  0  0  0999 V2000
    3.7060   57.7410   70.2020 N   0  0  0  0  0  0  0  0  0  0  0  0
    3.6800   56.3430   70.5210 N   0  0  0  0  0  0  0  0  0  0  0  0
    3.7162   58.2916   71.0724 H   0  0  0  0  0  0  0  0  0  0  0  0
    4.5511   57.9521   69.6522 H   0  0  0  0  0  0  0  0  0  0  0  0
    3.6778   56.2243   71.5441 H   0  0  0  0  0  0  0  0  0  0  0  0
    2.8309   55.9160   70.1240 H   0  0  0  0  0  0  0  0  0  0  0  0
  2  1  1  0
  1  3  1  0
  1  4  1  0
  2  5  1  0
  2  6  1  0
M  END
>  <score>  (5) 
-2.461

$$$$
=
     RDKit          3D

  6  5  0  0  0  0  0  0  0  0999 V2000
   -3.3210   68.1030   67.1860 N   0  0  0  0  0  0  0  0  0  0  0  0
   -4.0840   68.5890   66.0730 N   0  0  0  0  0  0  0  0  0  0  0  0
   -3.7739   68.3915   68.0649 H   0  0  0  0  0  0  0  0  0  0  0  0
   -3.2724   67.0749   67.1462 H   0  0  0  0  0  0  0  0  0  0  0  0
   -4.9022   69.1102   66.4191 H   0  0  0  0  0  0  0  0  0  0  0  0
   -3.4970   69.2122   65.5003 H   0  0  0  0  0  0  0  0  0  0  0  0
  2  1  1  0
  1  3  1  0
  1  4  1  0
  2  5  1  0
  2  6  1  0
M  END
>  <score>  (6) 
-2.303

$$$$
=
     RDKit          3D

  6  5  0  0  0  0  0  0  0  0999 V2000
   -2.4390   68.8970   63.7370 N   0  0  0  0  0  0  0  0  0  0  0  0
   -3.2230   69.1430   64.9120 N   0  0  0  0  0  0  0  0  0  0  0  0
   -1.4920   68.5998   64.0122 H   0  0  0  0  0  0  0  0  0  0  0  0
   -2.8827   68.1548   63.1774 H   0  0  0  0  0  0  0  0  0  0  0  0
   -2.6514   68.9637   65.7499 H   0  0  0  0  0  0  0  0  0  0  0  0
   -3.5386   70.1234   64.9151 H   0  0  0  0  0  0  0  0  0  0  0  0
  2  1  1  0
  1  3  1  0
  1  4  1  0
  2  5  1  0
  2  6  1  0
M  END
>  <score>  (7) 
-2.243

$$$$
=
     RDKit          3D

  6  5  0  0  0  0  0  0  0  0999 V2000
   -0.7210   78.4530   62.8450 N   0  0  0  0  0  0  0  0  0  0  0  0
    0.4140   77.9170   62.1520 N   0  0  0  0  0  0  0  0  0  0  0  0
   -0.5684   78.3809   63.8611 H   0  0  0  0  0  0  0  0  0  0  0  0
   -0.8459   79.4420   62.5859 H   0  0  0  0  0  0  0  0  0  0  0  0
    1.1102   77.5882   62.8362 H   0  0  0  0  0  0  0  0  0  0  0  0
    0.1145   77.1284   61.5610 H   0  0  0  0  0  0  0  0  0  0  0  0
  2  1  1  0
  1  3  1  0
  1  4  1  0
  2  5  1  0
  2  6  1  0
M  END
>  <score>  (8) 
-2.173

$$$$
=
     RDKit          3D

  6  5  0  0  0  0  0  0  0  0999 V2000
   19.3970   62.9710   65.7520 N   0  0  0  0  0  0  0  0  0  0  0  0
   18.9210   64.2100   66.2970 N   0  0  0  0  0  0  0  0  0  0  0  0
   19.6432   62.3302   66.5199 H   0  0  0  0  0  0  0  0  0  0  0  0
   18.6597   62.5451   65.1724 H   0  0  0  0  0  0  0  0  0  0  0  0
   18.9394   64.1621   67.3257 H   0  0  0  0  0  0  0  0  0  0  0  0
   19.5260   64.9802   65.9783 H   0  0  0  0  0  0  0  0  0  0  0  0
  2  1  1  0
  1  3  1  0
  1  4  1  0
  2  5  1  0
  2  6  1  0
M  END
>  <score>  (9) 
-2.096

$$$$
