=
     RDKit          3D

 44 46  0  0  0  0  0  0  0  0999 V2000
    3.3730   69.2330   65.8000 C   0  0  0  0  0  0  0  0  0  0  0  0
   -1.4080   66.7060   68.0260 C   0  0  0  0  0  0  0  0  0  0  0  0
   -0.1220   67.1900   67.3780 N   0  0  0  0  0  4  0  0  0  0  0  0
   -0.4020   68.2200   66.2890 C   0  0  0  0  0  0  0  0  0  0  0  0
    0.8940   68.6290   65.5330 C   0  0  0  0  0  0  0  0  0  0  0  0
    2.1480   68.4840   66.3960 N   0  0  0  0  0  4  0  0  0  0  0  0
    1.8700   68.7380   67.8660 C   0  0  0  0  0  0  0  0  0  0  0  0
    0.8750   67.6880   68.4330 C   0  0  0  0  0  0  0  0  0  0  0  0
    3.9230   68.4950   64.5810 C   0  0  0  0  0  0  0  0  0  0  0  0
    4.4210   69.2560   63.5000 C   0  0  0  0  0  0  0  0  0  0  0  0
    4.8890   68.6410   62.3380 C   0  0  0  0  0  0  0  0  0  0  0  0
    4.8730   67.2550   62.2310 C   0  0  0  0  0  0  0  0  0  0  0  0
    4.4040   66.4850   63.2900 C   0  0  0  0  0  0  0  0  0  0  0  0
    3.9350   67.0970   64.4560 C   0  0  0  0  0  0  0  0  0  0  0  0
    4.3630   69.7670   66.8260 C   0  0  0  0  0  0  0  0  0  0  0  0
    3.9950   70.2090   68.1090 C   0  0  0  0  0  0  0  0  0  0  0  0
    4.9470   70.7250   68.9940 C   0  0  0  0  0  0  0  0  0  0  0  0
    6.2830   70.8040   68.6190 C   0  0  0  0  0  0  0  0  0  0  0  0
    6.6760   70.3560   67.3620 C   0  0  0  0  0  0  0  0  0  0  0  0
    5.7280   69.8390   66.4760 C   0  0  0  0  0  0  0  0  0  0  0  0
    3.0250   70.1944   65.3943 H   0  0  0  0  0  0  0  0  0  0  0  0
   -1.3044   66.7450   69.1204 H   0  0  0  0  0  0  0  0  0  0  0  0
   -2.2418   67.3519   67.7134 H   0  0  0  0  0  0  0  0  0  0  0  0
   -1.6090   65.6707   67.7134 H   0  0  0  0  0  0  0  0  0  0  0  0
    0.3249   66.3896   66.9083 H   0  0  0  0  0  0  0  0  0  0  0  0
   -1.1142   67.7915   65.5685 H   0  0  0  0  0  0  0  0  0  0  0  0
   -0.8164   69.1194   66.7679 H   0  0  0  0  0  0  0  0  0  0  0  0
    1.0012   67.9884   64.6452 H   0  0  0  0  0  0  0  0  0  0  0  0
    0.7991   69.6899   65.2583 H   0  0  0  0  0  0  0  0  0  0  0  0
    2.4342   67.4950   66.3681 H   0  0  0  0  0  0  0  0  0  0  0  0
    2.8146   68.6781   68.4265 H   0  0  0  0  0  0  0  0  0  0  0  0
    1.4229   69.7375   67.9709 H   0  0  0  0  0  0  0  0  0  0  0  0
    1.4475   66.8279   68.8104 H   0  0  0  0  0  0  0  0  0  0  0  0
    0.2980   68.1740   69.2335 H   0  0  0  0  0  0  0  0  0  0  0  0
    4.4402   70.3532   63.5756 H   0  0  0  0  0  0  0  0  0  0  0  0
    5.2704   69.2526   61.5071 H   0  0  0  0  0  0  0  0  0  0  0  0
    5.2303   66.7687   61.3113 H   0  0  0  0  0  0  0  0  0  0  0  0
    4.4021   65.3879   63.2096 H   0  0  0  0  0  0  0  0  0  0  0  0
    3.5705   66.4747   65.2866 H   0  0  0  0  0  0  0  0  0  0  0  0
    2.9421   70.1480   68.4215 H   0  0  0  0  0  0  0  0  0  0  0  0
    4.6370   71.0699   69.9915 H   0  0  0  0  0  0  0  0  0  0  0  0
    7.0274   71.2195   69.3141 H   0  0  0  0  0  0  0  0  0  0  0  0
    7.7340   70.4089   67.0656 H   0  0  0  0  0  0  0  0  0  0  0  0
    6.0515   69.4814   65.4873 H   0  0  0  0  0  0  0  0  0  0  0  0
  3  2  1  0
  4  3  1  0
  5  4  1  0
  6  5  1  0
  6  1  1  0
  7  6  1  0
  8  7  1  0
  8  3  1  0
  9  1  1  0
 10  9  2  0
 11 10  1  0
 12 11  2  0
 13 12  1  0
 14 13  2  0
 14  9  1  0
 15  1  1  0
 16 15  2  0
 17 16  1  0
 18 17  2  0
 19 18  1  0
 20 15  1  0
 20 19  2  0
  1 21  1  0
  2 22  1  0
  2 23  1  0
  2 24  1  0
  3 25  1  0
  4 26  1  0
  4 27  1  0
  5 28  1  0
  5 29  1  0
  6 30  1  0
  7 31  1  0
  7 32  1  0
  8 33  1  0
  8 34  1  0
 10 35  1  0
 11 36  1  0
 12 37  1  0
 13 38  1  0
 14 39  1  0
 16 40  1  0
 17 41  1  0
 18 42  1  0
 19 43  1  0
 20 44  1  0
M  CHG  2   3   1   6   1
M  END
>  <score>  (1) 
-10.562

$$$$
=
     RDKit          3D

 44 46  0  0  0  0  0  0  0  0999 V2000
    2.9510   68.3110   65.9480 C   0  0  0  0  0  0  0  0  0  0  0  0
   -2.8750   68.7740   65.7540 C   0  0  0  0  0  0  0  0  0  0  0  0
   -1.3650   68.8160   65.9060 N   0  0  0  0  0  4  0  0  0  0  0  0
   -0.8520   67.6190   66.7010 C   0  0  0  0  0  0  0  0  0  0  0  0
    0.6760   67.7160   66.9720 C   0  0  0  0  0  0  0  0  0  0  0  0
    1.4120   68.5240   65.9020 N   0  0  0  0  0  4  0  0  0  0  0  0
    0.7670   68.3930   64.5350 C   0  0  0  0  0  0  0  0  0  0  0  0
   -0.6760   68.9700   64.5430 C   0  0  0  0  0  0  0  0  0  0  0  0
    3.6110   69.3060   66.9000 C   0  0  0  0  0  0  0  0  0  0  0  0
    4.9390   69.7110   66.6380 C   0  0  0  0  0  0  0  0  0  0  0  0
    5.6140   70.5770   67.5010 C   0  0  0  0  0  0  0  0  0  0  0  0
    4.9780   71.0580   68.6390 C   0  0  0  0  0  0  0  0  0  0  0  0
    3.6650   70.6860   68.9080 C   0  0  0  0  0  0  0  0  0  0  0  0
    2.9850   69.8200   68.0470 C   0  0  0  0  0  0  0  0  0  0  0  0
    3.6070   68.0650   64.5960 C   0  0  0  0  0  0  0  0  0  0  0  0
    3.9090   69.0850   63.6770 C   0  0  0  0  0  0  0  0  0  0  0  0
    4.4780   68.7900   62.4340 C   0  0  0  0  0  0  0  0  0  0  0  0
    4.7600   67.4740   62.0870 C   0  0  0  0  0  0  0  0  0  0  0  0
    4.4880   66.4480   62.9850 C   0  0  0  0  0  0  0  0  0  0  0  0
    3.9210   66.7390   64.2280 C   0  0  0  0  0  0  0  0  0  0  0  0
    3.1496   67.3314   66.4073 H   0  0  0  0  0  0  0  0  0  0  0  0
   -3.3435   68.7610   66.7492 H   0  0  0  0  0  0  0  0  0  0  0  0
   -3.2128   69.6631   65.2013 H   0  0  0  0  0  0  0  0  0  0  0  0
   -3.1628   67.8675   65.2013 H   0  0  0  0  0  0  0  0  0  0  0  0
   -1.1189   69.6523   66.4546 H   0  0  0  0  0  0  0  0  0  0  0  0
   -1.3822   67.5778   67.6639 H   0  0  0  0  0  0  0  0  0  0  0  0
   -1.0365   66.7111   66.1080 H   0  0  0  0  0  0  0  0  0  0  0  0
    0.8309   68.1997   67.9477 H   0  0  0  0  0  0  0  0  0  0  0  0
    1.0830   66.6942   66.9572 H   0  0  0  0  0  0  0  0  0  0  0  0
    1.3007   69.5222   66.1302 H   0  0  0  0  0  0  0  0  0  0  0  0
    1.3705   68.9433   63.7982 H   0  0  0  0  0  0  0  0  0  0  0  0
    0.7166   67.3261   64.2718 H   0  0  0  0  0  0  0  0  0  0  0  0
   -0.6293   70.0396   64.2906 H   0  0  0  0  0  0  0  0  0  0  0  0
   -1.2652   68.4049   63.8058 H   0  0  0  0  0  0  0  0  0  0  0  0
    5.4502   69.3376   65.7384 H   0  0  0  0  0  0  0  0  0  0  0  0
    6.6486   70.8782   67.2800 H   0  0  0  0  0  0  0  0  0  0  0  0
    5.5118   71.7315   69.3257 H   0  0  0  0  0  0  0  0  0  0  0  0
    3.1588   71.0756   69.8035 H   0  0  0  0  0  0  0  0  0  0  0  0
    1.9458   69.5374   68.2709 H   0  0  0  0  0  0  0  0  0  0  0  0
    3.6944   70.1314   63.9396 H   0  0  0  0  0  0  0  0  0  0  0  0
    4.7033   69.6029   61.7280 H   0  0  0  0  0  0  0  0  0  0  0  0
    5.1974   67.2447   61.1041 H   0  0  0  0  0  0  0  0  0  0  0  0
    4.7194   65.4067   62.7165 H   0  0  0  0  0  0  0  0  0  0  0  0
    3.7155   65.9199   64.9329 H   0  0  0  0  0  0  0  0  0  0  0  0
  3  2  1  0
  4  3  1  0
  5  4  1  0
  6  5  1  0
  6  1  1  0
  7  6  1  0
  8  7  1  0
  8  3  1  0
  9  1  1  0
 10  9  2  0
 11 10  1  0
 12 11  2  0
 13 12  1  0
 14 13  2  0
 14  9  1  0
 15  1  1  0
 16 15  2  0
 17 16  1  0
 18 17  2  0
 19 18  1  0
 20 15  1  0
 20 19  2  0
  1 21  1  0
  2 22  1  0
  2 23  1  0
  2 24  1  0
  3 25  1  0
  4 26  1  0
  4 27  1  0
  5 28  1  0
  5 29  1  0
  6 30  1  0
  7 31  1  0
  7 32  1  0
  8 33  1  0
  8 34  1  0
 10 35  1  0
 11 36  1  0
 12 37  1  0
 13 38  1  0
 14 39  1  0
 16 40  1  0
 17 41  1  0
 18 42  1  0
 19 43  1  0
 20 44  1  0
M  CHG  2   3   1   6   1
M  END
>  <score>  (2) 
-10.427

$$$$
=
     RDKit          3D

 44 46  0  0  0  0  0  0  0  0999 V2000
    2.9950   68.6820   65.2120 C   0  0  0  0  0  0  0  0  0  0  0  0
    4.9370   63.4270   63.5340 C   0  0  0  0  0  0  0  0  0  0  0  0
    4.5960   64.8080   64.0680 N   0  0  0  0  0  4  0  0  0  0  0  0
    4.4700   65.8240   62.9380 C   0  0  0  0  0  0  0  0  0  0  0  0
    4.2470   67.2660   63.4780 C   0  0  0  0  0  0  0  0  0  0  0  0
    3.5570   67.2800   64.8430 N   0  0  0  0  0  4  0  0  0  0  0  0
    2.6000   66.1160   65.0190 C   0  0  0  0  0  0  0  0  0  0  0  0
    3.3570   64.7610   64.9730 C   0  0  0  0  0  0  0  0  0  0  0  0
    3.9100   69.3940   66.2050 C   0  0  0  0  0  0  0  0  0  0  0  0
    5.2480   69.6430   65.8290 C   0  0  0  0  0  0  0  0  0  0  0  0
    6.1480   70.2430   66.7130 C   0  0  0  0  0  0  0  0  0  0  0  0
    5.7300   70.6090   67.9870 C   0  0  0  0  0  0  0  0  0  0  0  0
    4.4120   70.3880   68.3720 C   0  0  0  0  0  0  0  0  0  0  0  0
    3.5080   69.7890   67.4910 C   0  0  0  0  0  0  0  0  0  0  0  0
    1.4920   68.7280   65.4560 C   0  0  0  0  0  0  0  0  0  0  0  0
    0.9060   68.6420   66.7310 C   0  0  0  0  0  0  0  0  0  0  0  0
   -0.4840   68.6520   66.8870 C   0  0  0  0  0  0  0  0  0  0  0  0
   -1.3130   68.7530   65.7760 C   0  0  0  0  0  0  0  0  0  0  0  0
   -0.7580   68.8570   64.5060 C   0  0  0  0  0  0  0  0  0  0  0  0
    0.6290   68.8490   64.3460 C   0  0  0  0  0  0  0  0  0  0  0  0
    3.0354   69.3163   64.3142 H   0  0  0  0  0  0  0  0  0  0  0  0
    5.1067   62.7399   64.3761 H   0  0  0  0  0  0  0  0  0  0  0  0
    4.1036   63.0554   62.9197 H   0  0  0  0  0  0  0  0  0  0  0  0
    5.8476   63.4860   62.9197 H   0  0  0  0  0  0  0  0  0  0  0  0
    5.3768   65.1286   64.6583 H   0  0  0  0  0  0  0  0  0  0  0  0
    5.3928   65.8069   62.3396 H   0  0  0  0  0  0  0  0  0  0  0  0
    3.5971   65.5492   62.3277 H   0  0  0  0  0  0  0  0  0  0  0  0
    5.2240   67.7627   63.5715 H   0  0  0  0  0  0  0  0  0  0  0  0
    3.5925   67.7916   62.7672 H   0  0  0  0  0  0  0  0  0  0  0  0
    4.2771   67.1133   65.5604 H   0  0  0  0  0  0  0  0  0  0  0  0
    2.0922   66.2115   65.9901 H   0  0  0  0  0  0  0  0  0  0  0  0
    1.8685   66.1367   64.1978 H   0  0  0  0  0  0  0  0  0  0  0  0
    3.6754   64.5004   65.9931 H   0  0  0  0  0  0  0  0  0  0  0  0
    2.6696   64.0090   64.5583 H   0  0  0  0  0  0  0  0  0  0  0  0
    5.5878   69.3594   64.8220 H   0  0  0  0  0  0  0  0  0  0  0  0
    7.1869   70.4257   66.4010 H   0  0  0  0  0  0  0  0  0  0  0  0
    6.4395   71.0720   68.6886 H   0  0  0  0  0  0  0  0  0  0  0  0
    4.0790   70.6868   69.3769 H   0  0  0  0  0  0  0  0  0  0  0  0
    2.4679   69.6247   67.8090 H   0  0  0  0  0  0  0  0  0  0  0  0
    1.5503   68.5657   67.6193 H   0  0  0  0  0  0  0  0  0  0  0  0
   -0.9228   68.5796   67.8931 H   0  0  0  0  0  0  0  0  0  0  0  0
   -2.4058   68.7506   65.9016 H   0  0  0  0  0  0  0  0  0  0  0  0
   -1.4121   68.9457   63.6261 H   0  0  0  0  0  0  0  0  0  0  0  0
    1.0568   68.9386   63.3365 H   0  0  0  0  0  0  0  0  0  0  0  0
  3  2  1  0
  4  3  1  0
  5  4  1  0
  6  5  1  0
  6  1  1  0
  7  6  1  0
  8  7  1  0
  8  3  1  0
  9  1  1  0
 10  9  2  0
 11 10  1  0
 12 11  2  0
 13 12  1  0
 14 13  2  0
 14  9  1  0
 15  1  1  0
 16 15  2  0
 17 16  1  0
 18 17  2  0
 19 18  1  0
 20 15  1  0
 20 19  2  0
  1 21  1  0
  2 22  1  0
  2 23  1  0
  2 24  1  0
  3 25  1  0
  4 26  1  0
  4 27  1  0
  5 28  1  0
  5 29  1  0
  6 30  1  0
  7 31  1  0
  7 32  1  0
  8 33  1  0
  8 34  1  0
 10 35  1  0
 11 36  1  0
 12 37  1  0
 13 38  1  0
 14 39  1  0
 16 40  1  0
 17 41  1  0
 18 42  1  0
 19 43  1  0
 20 44  1  0
M  CHG  2   3   1   6   1
M  END
>  <score>  (3) 
-10.282

$$$$
=
     RDKit          3D

 44 46  0  0  0  0  0  0  0  0999 V2000
    2.9870   68.7330   64.9590 C   0  0  0  0  0  0  0  0  0  0  0  0
   -2.8250   68.8170   65.6000 C   0  0  0  0  0  0  0  0  0  0  0  0
   -1.3160   68.9660   65.5200 N   0  0  0  0  0  4  0  0  0  0  0  0
   -0.6080   67.8820   66.3270 C   0  0  0  0  0  0  0  0  0  0  0  0
    0.9320   68.0970   66.3580 C   0  0  0  0  0  0  0  0  0  0  0  0
    1.4450   68.8450   65.1270 N   0  0  0  0  0  4  0  0  0  0  0  0
    0.6230   68.5490   63.8860 C   0  0  0  0  0  0  0  0  0  0  0  0
   -0.8430   69.0340   64.0620 C   0  0  0  0  0  0  0  0  0  0  0  0
    3.3810   67.3500   64.4470 C   0  0  0  0  0  0  0  0  0  0  0  0
    2.9460   66.2150   65.1670 C   0  0  0  0  0  0  0  0  0  0  0  0
    3.3180   64.9260   64.7790 C   0  0  0  0  0  0  0  0  0  0  0  0
    4.1270   64.7430   63.6640 C   0  0  0  0  0  0  0  0  0  0  0  0
    4.5530   65.8450   62.9300 C   0  0  0  0  0  0  0  0  0  0  0  0
    4.1830   67.1370   63.3150 C   0  0  0  0  0  0  0  0  0  0  0  0
    3.8030   69.3410   66.0920 C   0  0  0  0  0  0  0  0  0  0  0  0
    3.2710   69.6600   67.3540 C   0  0  0  0  0  0  0  0  0  0  0  0
    4.0630   70.2520   68.3420 C   0  0  0  0  0  0  0  0  0  0  0  0
    5.4010   70.5330   68.0920 C   0  0  0  0  0  0  0  0  0  0  0  0
    5.9570   70.2120   66.8580 C   0  0  0  0  0  0  0  0  0  0  0  0
    5.1680   69.6180   65.8700 C   0  0  0  0  0  0  0  0  0  0  0  0
    3.2960   69.4128   64.1513 H   0  0  0  0  0  0  0  0  0  0  0  0
   -3.1350   68.7864   66.6550 H   0  0  0  0  0  0  0  0  0  0  0  0
   -3.3048   69.6721   65.1015 H   0  0  0  0  0  0  0  0  0  0  0  0
   -3.1283   67.8845   65.1015 H   0  0  0  0  0  0  0  0  0  0  0  0
   -1.0559   69.8637   65.9529 H   0  0  0  0  0  0  0  0  0  0  0  0
   -0.9906   67.8989   67.3582 H   0  0  0  0  0  0  0  0  0  0  0  0
   -0.8080   66.9129   65.8465 H   0  0  0  0  0  0  0  0  0  0  0  0
    1.1888   68.6781   67.2560 H   0  0  0  0  0  0  0  0  0  0  0  0
    1.4073   67.1050   66.3678 H   0  0  0  0  0  0  0  0  0  0  0  0
    1.2928   69.8510   65.2875 H   0  0  0  0  0  0  0  0  0  0  0  0
    1.0722   69.0656   63.0250 H   0  0  0  0  0  0  0  0  0  0  0  0
    0.6156   67.4615   63.7210 H   0  0  0  0  0  0  0  0  0  0  0  0
   -0.9131   70.0762   63.7171 H   0  0  0  0  0  0  0  0  0  0  0  0
   -1.4878   68.3669   63.4711 H   0  0  0  0  0  0  0  0  0  0  0  0
    2.3027   66.3489   66.0492 H   0  0  0  0  0  0  0  0  0  0  0  0
    2.9708   64.0560   65.3557 H   0  0  0  0  0  0  0  0  0  0  0  0
    4.4297   63.7293   63.3627 H   0  0  0  0  0  0  0  0  0  0  0  0
    5.1847   65.6991   62.0414 H   0  0  0  0  0  0  0  0  0  0  0  0
    4.5251   67.9985   62.7227 H   0  0  0  0  0  0  0  0  0  0  0  0
    2.2145   69.4401   67.5671 H   0  0  0  0  0  0  0  0  0  0  0  0
    3.6256   70.4964   69.3212 H   0  0  0  0  0  0  0  0  0  0  0  0
    6.0189   71.0082   68.8682 H   0  0  0  0  0  0  0  0  0  0  0  0
    7.0177   70.4258   66.6602 H   0  0  0  0  0  0  0  0  0  0  0  0
    5.6199   69.3614   64.9005 H   0  0  0  0  0  0  0  0  0  0  0  0
  3  2  1  0
  4  3  1  0
  5  4  1  0
  6  5  1  0
  6  1  1  0
  7  6  1  0
  8  7  1  0
  8  3  1  0
  9  1  1  0
 10  9  2  0
 11 10  1  0
 12 11  2  0
 13 12  1  0
 14 13  2  0
 14  9  1  0
 15  1  1  0
 16 15  2  0
 17 16  1  0
 18 17  2  0
 19 18  1  0
 20 15  1  0
 20 19  2  0
  1 21  1  0
  2 22  1  0
  2 23  1  0
  2 24  1  0
  3 25  1  0
  4 26  1  0
  4 27  1  0
  5 28  1  0
  5 29  1  0
  6 30  1  0
  7 31  1  0
  7 32  1  0
  8 33  1  0
  8 34  1  0
 10 35  1  0
 11 36  1  0
 12 37  1  0
 13 38  1  0
 14 39  1  0
 16 40  1  0
 17 41  1  0
 18 42  1  0
 19 43  1  0
 20 44  1  0
M  CHG  2   3   1   6   1
M  END
>  <score>  (4) 
-10.211

$$$$
=
     RDKit          3D

 44 46  0  0  0  0  0  0  0  0999 V2000
    2.1610   69.0140   66.6440 C   0  0  0  0  0  0  0  0  0  0  0  0
    4.4810   66.2850   62.0200 C   0  0  0  0  0  0  0  0  0  0  0  0
    4.0540   67.0630   63.2530 N   0  0  0  0  0  4  0  0  0  0  0  0
    3.0390   68.1460   62.9030 C   0  0  0  0  0  0  0  0  0  0  0  0
    2.6890   69.0310   64.1330 C   0  0  0  0  0  0  0  0  0  0  0  0
    2.8570   68.2860   65.4580 N   0  0  0  0  0  4  0  0  0  0  0  0
    2.5620   66.8040   65.3290 C   0  0  0  0  0  0  0  0  0  0  0  0
    3.5660   66.1190   64.3600 C   0  0  0  0  0  0  0  0  0  0  0  0
    3.1870   69.7150   67.5310 C   0  0  0  0  0  0  0  0  0  0  0  0
    4.5280   69.7790   67.0910 C   0  0  0  0  0  0  0  0  0  0  0  0
    5.5210   70.3590   67.8820 C   0  0  0  0  0  0  0  0  0  0  0  0
    5.1980   70.8920   69.1250 C   0  0  0  0  0  0  0  0  0  0  0  0
    3.8810   70.8560   69.5700 C   0  0  0  0  0  0  0  0  0  0  0  0
    2.8830   70.2750   68.7820 C   0  0  0  0  0  0  0  0  0  0  0  0
    1.0450   68.2260   67.3170 C   0  0  0  0  0  0  0  0  0  0  0  0
    1.2280   67.4440   68.4700 C   0  0  0  0  0  0  0  0  0  0  0  0
    0.1700   66.7120   69.0200 C   0  0  0  0  0  0  0  0  0  0  0  0
   -1.0890   66.7520   68.4320 C   0  0  0  0  0  0  0  0  0  0  0  0
   -1.3000   67.5320   67.3010 C   0  0  0  0  0  0  0  0  0  0  0  0
   -0.2470   68.2650   66.7500 C   0  0  0  0  0  0  0  0  0  0  0  0
    1.5561   69.8373   66.2361 H   0  0  0  0  0  0  0  0  0  0  0  0
    4.9890   65.3593   62.3283 H   0  0  0  0  0  0  0  0  0  0  0  0
    3.5942   66.0340   61.4195 H   0  0  0  0  0  0  0  0  0  0  0  0
    5.1689   66.8983   61.4195 H   0  0  0  0  0  0  0  0  0  0  0  0
    4.8787   67.5527   63.6284 H   0  0  0  0  0  0  0  0  0  0  0  0
    3.4592   68.7854   62.1127 H   0  0  0  0  0  0  0  0  0  0  0  0
    2.1163   67.6522   62.5643 H   0  0  0  0  0  0  0  0  0  0  0  0
    3.3516   69.9091   64.1357 H   0  0  0  0  0  0  0  0  0  0  0  0
    1.6318   69.3220   64.0451 H   0  0  0  0  0  0  0  0  0  0  0  0
    3.8554   68.3155   65.7093 H   0  0  0  0  0  0  0  0  0  0  0  0
    2.6409   66.3338   66.3203 H   0  0  0  0  0  0  0  0  0  0  0  0
    1.5462   66.6825   64.9249 H   0  0  0  0  0  0  0  0  0  0  0  0
    4.4359   65.7753   64.9389 H   0  0  0  0  0  0  0  0  0  0  0  0
    3.0436   65.2802   63.8767 H   0  0  0  0  0  0  0  0  0  0  0  0
    4.7942   69.3644   66.1075 H   0  0  0  0  0  0  0  0  0  0  0  0
    6.5598   70.3945   67.5218 H   0  0  0  0  0  0  0  0  0  0  0  0
    5.9812   71.3404   69.7539 H   0  0  0  0  0  0  0  0  0  0  0  0
    3.6228   71.2875   70.5484 H   0  0  0  0  0  0  0  0  0  0  0  0
    1.8455   70.2564   69.1471 H   0  0  0  0  0  0  0  0  0  0  0  0
    2.2182   67.4067   68.9475 H   0  0  0  0  0  0  0  0  0  0  0  0
    0.3351   66.1027   69.9209 H   0  0  0  0  0  0  0  0  0  0  0  0
   -1.9165   66.1677   68.8608 H   0  0  0  0  0  0  0  0  0  0  0  0
   -2.2977   67.5719   66.8395 H   0  0  0  0  0  0  0  0  0  0  0  0
   -0.4275   68.8836   65.8585 H   0  0  0  0  0  0  0  0  0  0  0  0
  3  2  1  0
  4  3  1  0
  5  4  1  0
  6  5  1  0
  6  1  1  0
  7  6  1  0
  8  7  1  0
  8  3  1  0
  9  1  1  0
 10  9  2  0
 11 10  1  0
 12 11  2  0
 13 12  1  0
 14 13  2  0
 14  9  1  0
 15  1  1  0
 16 15  2  0
 17 16  1  0
 18 17  2  0
 19 18  1  0
 20 15  1  0
 20 19  2  0
  1 21  1  0
  2 22  1  0
  2 23  1  0
  2 24  1  0
  3 25  1  0
  4 26  1  0
  4 27  1  0
  5 28  1  0
  5 29  1  0
  6 30  1  0
  7 31  1  0
  7 32  1  0
  8 33  1  0
  8 34  1  0
 10 35  1  0
 11 36  1  0
 12 37  1  0
 13 38  1  0
 14 39  1  0
 16 40  1  0
 17 41  1  0
 18 42  1  0
 19 43  1  0
 20 44  1  0
M  CHG  2   3   1   6   1
M  END
>  <score>  (5) 
-9.924

$$$$
=
     RDKit          3D

 44 46  0  0  0  0  0  0  0  0999 V2000
    2.7590   67.9130   65.1470 C   0  0  0  0  0  0  0  0  0  0  0  0
    5.2760   62.9530   63.3400 C   0  0  0  0  0  0  0  0  0  0  0  0
    4.7840   64.2730   63.9080 N   0  0  0  0  0  4  0  0  0  0  0  0
    4.5430   65.2980   62.8040 C   0  0  0  0  0  0  0  0  0  0  0  0
    4.1610   66.6910   63.3800 C   0  0  0  0  0  0  0  0  0  0  0  0
    3.4750   66.5930   64.7440 N   0  0  0  0  0  4  0  0  0  0  0  0
    2.6540   65.3250   64.8880 C   0  0  0  0  0  0  0  0  0  0  0  0
    3.5590   64.0640   64.8090 C   0  0  0  0  0  0  0  0  0  0  0  0
    1.9570   68.4780   63.9780 C   0  0  0  0  0  0  0  0  0  0  0  0
    0.5750   68.7090   64.1570 C   0  0  0  0  0  0  0  0  0  0  0  0
   -0.2220   69.1750   63.1090 C   0  0  0  0  0  0  0  0  0  0  0  0
    0.3430   69.4230   61.8640 C   0  0  0  0  0  0  0  0  0  0  0  0
    1.7050   69.2200   61.6700 C   0  0  0  0  0  0  0  0  0  0  0  0
    2.5070   68.7540   62.7160 C   0  0  0  0  0  0  0  0  0  0  0  0
    3.6010   68.8750   65.9750 C   0  0  0  0  0  0  0  0  0  0  0  0
    4.8730   69.3300   65.5870 C   0  0  0  0  0  0  0  0  0  0  0  0
    5.6150   70.1840   66.4090 C   0  0  0  0  0  0  0  0  0  0  0  0
    5.0990   70.6040   67.6300 C   0  0  0  0  0  0  0  0  0  0  0  0
    3.8360   70.1820   68.0290 C   0  0  0  0  0  0  0  0  0  0  0  0
    3.0920   69.3300   67.2090 C   0  0  0  0  0  0  0  0  0  0  0  0
    1.9950   67.6736   65.9013 H   0  0  0  0  0  0  0  0  0  0  0  0
    5.5302   62.2710   64.1647 H   0  0  0  0  0  0  0  0  0  0  0  0
    4.4855   62.5024   62.7220 H   0  0  0  0  0  0  0  0  0  0  0  0
    6.1686   63.1297   62.7220 H   0  0  0  0  0  0  0  0  0  0  0  0
    5.5253   64.6639   64.5068 H   0  0  0  0  0  0  0  0  0  0  0  0
    5.4610   65.3997   62.2065 H   0  0  0  0  0  0  0  0  0  0  0  0
    3.7051   64.9430   62.1860 H   0  0  0  0  0  0  0  0  0  0  0  0
    5.0765   67.2912   63.4879 H   0  0  0  0  0  0  0  0  0  0  0  0
    3.4510   67.1581   62.6816 H   0  0  0  0  0  0  0  0  0  0  0  0
    4.2100   66.4901   65.4582 H   0  0  0  0  0  0  0  0  0  0  0  0
    2.1393   65.3381   65.8600 H   0  0  0  0  0  0  0  0  0  0  0  0
    1.9240   65.2847   64.0661 H   0  0  0  0  0  0  0  0  0  0  0  0
    3.9056   63.8148   65.8228 H   0  0  0  0  0  0  0  0  0  0  0  0
    2.9600   63.2504   64.3740 H   0  0  0  0  0  0  0  0  0  0  0  0
    0.1183   68.5185   65.1394 H   0  0  0  0  0  0  0  0  0  0  0  0
   -1.2968   69.3457   63.2692 H   0  0  0  0  0  0  0  0  0  0  0  0
   -0.2853   69.7789   61.0342 H   0  0  0  0  0  0  0  0  0  0  0  0
    2.1541   69.4274   60.6875 H   0  0  0  0  0  0  0  0  0  0  0  0
    3.5834   68.6015   62.5480 H   0  0  0  0  0  0  0  0  0  0  0  0
    5.2914   69.0093   64.6216 H   0  0  0  0  0  0  0  0  0  0  0  0
    6.6106   70.5248   66.0885 H   0  0  0  0  0  0  0  0  0  0  0  0
    5.6887   71.2685   68.2786 H   0  0  0  0  0  0  0  0  0  0  0  0
    3.4222   70.5191   68.9908 H   0  0  0  0  0  0  0  0  0  0  0  0
    2.0909   69.0082   67.5318 H   0  0  0  0  0  0  0  0  0  0  0  0
  3  2  1  0
  4  3  1  0
  5  4  1  0
  6  5  1  0
  6  1  1  0
  7  6  1  0
  8  7  1  0
  8  3  1  0
  9  1  1  0
 10  9  2  0
 11 10  1  0
 12 11  2  0
 13 12  1  0
 14 13  2  0
 14  9  1  0
 15  1  1  0
 16 15  2  0
 17 16  1  0
 18 17  2  0
 19 18  1  0
 20 15  1  0
 20 19  2  0
  1 21  1  0
  2 22  1  0
  2 23  1  0
  2 24  1  0
  3 25  1  0
  4 26  1  0
  4 27  1  0
  5 28  1  0
  5 29  1  0
  6 30  1  0
  7 31  1  0
  7 32  1  0
  8 33  1  0
  8 34  1  0
 10 35  1  0
 11 36  1  0
 12 37  1  0
 13 38  1  0
 14 39  1  0
 16 40  1  0
 17 41  1  0
 18 42  1  0
 19 43  1  0
 20 44  1  0
M  CHG  2   3   1   6   1
M  END
>  <score>  (6) 
-9.711

$$$$
=
     RDKit          3D

 44 46  0  0  0  0  0  0  0  0999 V2000
    2.7410   68.5460   66.4300 C   0  0  0  0  0  0  0  0  0  0  0  0
    3.3380   68.6320   60.6130 C   0  0  0  0  0  0  0  0  0  0  0  0
    3.2460   68.7900   62.1200 N   0  0  0  0  0  4  0  0  0  0  0  0
    1.8050   68.6720   62.6050 C   0  0  0  0  0  0  0  0  0  0  0  0
    1.6820   68.9580   64.1290 C   0  0  0  0  0  0  0  0  0  0  0  0
    2.9660   68.6290   64.8930 N   0  0  0  0  0  4  0  0  0  0  0  0
    3.7270   67.4720   64.2730 C   0  0  0  0  0  0  0  0  0  0  0  0
    4.2010   67.8250   62.8360 C   0  0  0  0  0  0  0  0  0  0  0  0
    1.2510   68.5050   66.7620 C   0  0  0  0  0  0  0  0  0  0  0  0
    0.5820   67.2630   66.7050 C   0  0  0  0  0  0  0  0  0  0  0  0
   -0.7900   67.1690   66.9470 C   0  0  0  0  0  0  0  0  0  0  0  0
   -1.5210   68.3100   67.2530 C   0  0  0  0  0  0  0  0  0  0  0  0
   -0.8800   69.5420   67.3310 C   0  0  0  0  0  0  0  0  0  0  0  0
    0.4940   69.6410   67.0900 C   0  0  0  0  0  0  0  0  0  0  0  0
    3.6390   69.4520   67.2610 C   0  0  0  0  0  0  0  0  0  0  0  0
    3.2860   69.9560   68.5250 C   0  0  0  0  0  0  0  0  0  0  0  0
    4.1400   70.8150   69.2230 C   0  0  0  0  0  0  0  0  0  0  0  0
    5.3640   71.1830   68.6770 C   0  0  0  0  0  0  0  0  0  0  0  0
    5.7450   70.6840   67.4360 C   0  0  0  0  0  0  0  0  0  0  0  0
    4.8950   69.8250   66.7360 C   0  0  0  0  0  0  0  0  0  0  0  0
    3.1181   67.5743   66.7814 H   0  0  0  0  0  0  0  0  0  0  0  0
    3.8783   67.7041   60.3739 H   0  0  0  0  0  0  0  0  0  0  0  0
    2.3250   68.5868   60.1865 H   0  0  0  0  0  0  0  0  0  0  0  0
    3.8773   69.4906   60.1865 H   0  0  0  0  0  0  0  0  0  0  0  0
    3.5540   69.7419   62.3646 H   0  0  0  0  0  0  0  0  0  0  0  0
    1.1844   69.3954   62.0559 H   0  0  0  0  0  0  0  0  0  0  0  0
    1.4667   67.6413   62.4226 H   0  0  0  0  0  0  0  0  0  0  0  0
    1.4510   70.0242   64.2702 H   0  0  0  0  0  0  0  0  0  0  0  0
    0.8830   68.3147   64.5261 H   0  0  0  0  0  0  0  0  0  0  0  0
    3.6073   69.4279   64.7866 H   0  0  0  0  0  0  0  0  0  0  0  0
    4.6047   67.2437   64.8956 H   0  0  0  0  0  0  0  0  0  0  0  0
    3.0574   66.6011   64.2176 H   0  0  0  0  0  0  0  0  0  0  0  0
    5.1943   68.2935   62.8978 H   0  0  0  0  0  0  0  0  0  0  0  0
    4.2283   66.8912   62.2553 H   0  0  0  0  0  0  0  0  0  0  0  0
    1.1518   66.3531   66.4657 H   0  0  0  0  0  0  0  0  0  0  0  0
   -1.2920   66.1916   66.8953 H   0  0  0  0  0  0  0  0  0  0  0  0
   -2.6038   68.2394   67.4331 H   0  0  0  0  0  0  0  0  0  0  0  0
   -1.4572   70.4437   67.5837 H   0  0  0  0  0  0  0  0  0  0  0  0
    0.9880   70.6215   67.1583 H   0  0  0  0  0  0  0  0  0  0  0  0
    2.3225   69.6699   68.9719 H   0  0  0  0  0  0  0  0  0  0  0  0
    3.8419   71.2014   70.2088 H   0  0  0  0  0  0  0  0  0  0  0  0
    6.0293   71.8667   69.2247 H   0  0  0  0  0  0  0  0  0  0  0  0
    6.7170   70.9663   67.0053 H   0  0  0  0  0  0  0  0  0  0  0  0
    5.2100   69.4321   65.7580 H   0  0  0  0  0  0  0  0  0  0  0  0
  3  2  1  0
  4  3  1  0
  5  4  1  0
  6  5  1  0
  6  1  1  0
  7  6  1  0
  8  7  1  0
  8  3  1  0
  9  1  1  0
 10  9  2  0
 11 10  1  0
 12 11  2  0
 13 12  1  0
 14 13  2  0
 14  9  1  0
 15  1  1  0
 16 15  2  0
 17 16  1  0
 18 17  2  0
 19 18  1  0
 20 15  1  0
 20 19  2  0
  1 21  1  0
  2 22  1  0
  2 23  1  0
  2 24  1  0
  3 25  1  0
  4 26  1  0
  4 27  1  0
  5 28  1  0
  5 29  1  0
  6 30  1  0
  7 31  1  0
  7 32  1  0
  8 33  1  0
  8 34  1  0
 10 35  1  0
 11 36  1  0
 12 37  1  0
 13 38  1  0
 14 39  1  0
 16 40  1  0
 17 41  1  0
 18 42  1  0
 19 43  1  0
 20 44  1  0
M  CHG  2   3   1   6   1
M  END
>  <score>  (7) 
-9.411

$$$$
=
     RDKit          3D

 44 46  0  0  0  0  0  0  0  0999 V2000
    2.1460   67.3860   64.8450 C   0  0  0  0  0  0  0  0  0  0  0  0
    4.0630   70.8500   69.1480 C   0  0  0  0  0  0  0  0  0  0  0  0
    3.6140   69.8040   68.1430 N   0  0  0  0  0  4  0  0  0  0  0  0
    2.1130   69.8840   67.8900 C   0  0  0  0  0  0  0  0  0  0  0  0
    1.6200   68.7380   66.9600 C   0  0  0  0  0  0  0  0  0  0  0  0
    2.7130   68.2420   66.0120 N   0  0  0  0  0  4  0  0  0  0  0  0
    3.6780   69.3430   65.6160 C   0  0  0  0  0  0  0  0  0  0  0  0
    4.4450   69.8830   66.8550 C   0  0  0  0  0  0  0  0  0  0  0  0
    3.0750   66.2180   64.5220 C   0  0  0  0  0  0  0  0  0  0  0  0
    2.7640   64.9440   65.0440 C   0  0  0  0  0  0  0  0  0  0  0  0
    3.6030   63.8490   64.8280 C   0  0  0  0  0  0  0  0  0  0  0  0
    4.7670   64.0020   64.0840 C   0  0  0  0  0  0  0  0  0  0  0  0
    5.0840   65.2440   63.5440 C   0  0  0  0  0  0  0  0  0  0  0  0
    4.2470   66.3430   63.7580 C   0  0  0  0  0  0  0  0  0  0  0  0
    1.5630   68.1840   63.6860 C   0  0  0  0  0  0  0  0  0  0  0  0
    2.2600   68.4580   62.4970 C   0  0  0  0  0  0  0  0  0  0  0  0
    1.6840   69.2300   61.4840 C   0  0  0  0  0  0  0  0  0  0  0  0
    0.3980   69.7380   61.6360 C   0  0  0  0  0  0  0  0  0  0  0  0
   -0.3200   69.4670   62.7950 C   0  0  0  0  0  0  0  0  0  0  0  0
    0.2530   68.6940   63.8080 C   0  0  0  0  0  0  0  0  0  0  0  0
    1.2216   66.9011   65.1921 H   0  0  0  0  0  0  0  0  0  0  0  0
    3.9007   70.4718   70.1681 H   0  0  0  0  0  0  0  0  0  0  0  0
    5.1321   71.0637   69.0020 H   0  0  0  0  0  0  0  0  0  0  0  0
    3.4815   71.7722   69.0020 H   0  0  0  0  0  0  0  0  0  0  0  0
    3.7875   68.8723   68.5464 H   0  0  0  0  0  0  0  0  0  0  0  0
    1.5857   69.8126   68.8527 H   0  0  0  0  0  0  0  0  0  0  0  0
    1.9015   70.8420   67.3924 H   0  0  0  0  0  0  0  0  0  0  0  0
    1.2857   67.8962   67.5842 H   0  0  0  0  0  0  0  0  0  0  0  0
    0.7995   69.1362   66.3450 H   0  0  0  0  0  0  0  0  0  0  0  0
    3.3024   67.5775   66.5335 H   0  0  0  0  0  0  0  0  0  0  0  0
    4.4020   68.9432   64.8908 H   0  0  0  0  0  0  0  0  0  0  0  0
    3.1039   70.1693   65.1715 H   0  0  0  0  0  0  0  0  0  0  0  0
    5.3607   69.2885   66.9893 H   0  0  0  0  0  0  0  0  0  0  0  0
    4.6735   70.9430   66.6699 H   0  0  0  0  0  0  0  0  0  0  0  0
    1.8437   64.8113   65.6318 H   0  0  0  0  0  0  0  0  0  0  0  0
    3.3428   62.8656   65.2465 H   0  0  0  0  0  0  0  0  0  0  0  0
    5.4355   63.1435   63.9227 H   0  0  0  0  0  0  0  0  0  0  0  0
    5.9989   65.3622   62.9449 H   0  0  0  0  0  0  0  0  0  0  0  0
    4.5096   67.3183   63.3224 H   0  0  0  0  0  0  0  0  0  0  0  0
    3.2758   68.0583   62.3612 H   0  0  0  0  0  0  0  0  0  0  0  0
    2.2496   69.4365   60.5634 H   0  0  0  0  0  0  0  0  0  0  0  0
   -0.0496   70.3526   60.8411 H   0  0  0  0  0  0  0  0  0  0  0  0
   -1.3399   69.8614   62.9147 H   0  0  0  0  0  0  0  0  0  0  0  0
   -0.3277   68.4791   64.7172 H   0  0  0  0  0  0  0  0  0  0  0  0
  3  2  1  0
  4  3  1  0
  5  4  1  0
  6  5  1  0
  6  1  1  0
  7  6  1  0
  8  7  1  0
  8  3  1  0
  9  1  1  0
 10  9  2  0
 11 10  1  0
 12 11  2  0
 13 12  1  0
 14 13  2  0
 14  9  1  0
 15  1  1  0
 16 15  2  0
 17 16  1  0
 18 17  2  0
 19 18  1  0
 20 15  1  0
 20 19  2  0
  1 21  1  0
  2 22  1  0
  2 23  1  0
  2 24  1  0
  3 25  1  0
  4 26  1  0
  4 27  1  0
  5 28  1  0
  5 29  1  0
  6 30  1  0
  7 31  1  0
  7 32  1  0
  8 33  1  0
  8 34  1  0
 10 35  1  0
 11 36  1  0
 12 37  1  0
 13 38  1  0
 14 39  1  0
 16 40  1  0
 17 41  1  0
 18 42  1  0
 19 43  1  0
 20 44  1  0
M  CHG  2   3   1   6   1
M  END
>  <score>  (8) 
-9.372

$$$$
=
     RDKit          3D

 44 46  0  0  0  0  0  0  0  0999 V2000
    2.1340   59.2200   72.9890 C   0  0  0  0  0  0  0  0  0  0  0  0
    4.0760   57.0800   78.0730 C   0  0  0  0  0  0  0  0  0  0  0  0
    3.7480   57.6020   76.6850 N   0  0  0  0  0  4  0  0  0  0  0  0
    2.6710   56.7550   76.0130 C   0  0  0  0  0  0  0  0  0  0  0  0
    2.4160   57.2010   74.5450 C   0  0  0  0  0  0  0  0  0  0  0  0
    2.7330   58.6800   74.3180 N   0  0  0  0  0  4  0  0  0  0  0  0
    2.4710   59.5230   75.5520 C   0  0  0  0  0  0  0  0  0  0  0  0
    3.3970   59.0960   76.7240 C   0  0  0  0  0  0  0  0  0  0  0  0
    3.2150   59.8680   72.1270 C   0  0  0  0  0  0  0  0  0  0  0  0
    4.2810   60.5340   72.7700 C   0  0  0  0  0  0  0  0  0  0  0  0
    5.2710   61.1900   72.0360 C   0  0  0  0  0  0  0  0  0  0  0  0
    5.2210   61.1920   70.6470 C   0  0  0  0  0  0  0  0  0  0  0  0
    4.1890   60.5270   69.9920 C   0  0  0  0  0  0  0  0  0  0  0  0
    3.1960   59.8690   70.7230 C   0  0  0  0  0  0  0  0  0  0  0  0
    0.7990   59.9390   73.1310 C   0  0  0  0  0  0  0  0  0  0  0  0
   -0.3440   59.3580   73.7070 C   0  0  0  0  0  0  0  0  0  0  0  0
   -1.5530   60.0570   73.7740 C   0  0  0  0  0  0  0  0  0  0  0  0
   -1.6430   61.3510   73.2730 C   0  0  0  0  0  0  0  0  0  0  0  0
   -0.5220   61.9550   72.7140 C   0  0  0  0  0  0  0  0  0  0  0  0
    0.6870   61.2600   72.6470 C   0  0  0  0  0  0  0  0  0  0  0  0
    1.7954   58.3620   72.3896 H   0  0  0  0  0  0  0  0  0  0  0  0
    3.6509   57.7565   78.8291 H   0  0  0  0  0  0  0  0  0  0  0  0
    3.6468   56.0749   78.1976 H   0  0  0  0  0  0  0  0  0  0  0  0
    5.1678   57.0306   78.1976 H   0  0  0  0  0  0  0  0  0  0  0  0
    4.5909   57.5146   76.0995 H   0  0  0  0  0  0  0  0  0  0  0  0
    2.9931   55.7032   76.0145 H   0  0  0  0  0  0  0  0  0  0  0  0
    1.7349   56.8833   76.5763 H   0  0  0  0  0  0  0  0  0  0  0  0
    3.0499   56.5981   73.8781 H   0  0  0  0  0  0  0  0  0  0  0  0
    1.3472   57.0520   74.3316 H   0  0  0  0  0  0  0  0  0  0  0  0
    3.7496   58.7650   74.1761 H   0  0  0  0  0  0  0  0  0  0  0  0
    2.6584   60.5800   75.3121 H   0  0  0  0  0  0  0  0  0  0  0  0
    1.4252   59.3777   75.8605 H   0  0  0  0  0  0  0  0  0  0  0  0
    4.3285   59.6783   76.6671 H   0  0  0  0  0  0  0  0  0  0  0  0
    2.8559   59.2867   77.6625 H   0  0  0  0  0  0  0  0  0  0  0  0
    4.3324   60.5361   73.8688 H   0  0  0  0  0  0  0  0  0  0  0  0
    6.0910   61.7056   72.5573 H   0  0  0  0  0  0  0  0  0  0  0  0
    5.9945   61.7174   70.0676 H   0  0  0  0  0  0  0  0  0  0  0  0
    4.1545   60.5191   68.8926 H   0  0  0  0  0  0  0  0  0  0  0  0
    2.3884   59.3447   70.1911 H   0  0  0  0  0  0  0  0  0  0  0  0
   -0.2863   58.3368   74.1116 H   0  0  0  0  0  0  0  0  0  0  0  0
   -2.4365   59.5814   74.2248 H   0  0  0  0  0  0  0  0  0  0  0  0
   -2.5979   61.8952   73.3187 H   0  0  0  0  0  0  0  0  0  0  0  0
   -0.5879   62.9815   72.3242 H   0  0  0  0  0  0  0  0  0  0  0  0
    1.5685   61.7510   72.2089 H   0  0  0  0  0  0  0  0  0  0  0  0
  3  2  1  0
  4  3  1  0
  5  4  1  0
  6  5  1  0
  6  1  1  0
  7  6  1  0
  8  7  1  0
  8  3  1  0
  9  1  1  0
 10  9  2  0
 11 10  1  0
 12 11  2  0
 13 12  1  0
 14 13  2  0
 14  9  1  0
 15  1  1  0
 16 15  2  0
 17 16  1  0
 18 17  2  0
 19 18  1  0
 20 15  1  0
 20 19  2  0
  1 21  1  0
  2 22  1  0
  2 23  1  0
  2 24  1  0
  3 25  1  0
  4 26  1  0
  4 27  1  0
  5 28  1  0
  5 29  1  0
  6 30  1  0
  7 31  1  0
  7 32  1  0
  8 33  1  0
  8 34  1  0
 10 35  1  0
 11 36  1  0
 12 37  1  0
 13 38  1  0
 14 39  1  0
 16 40  1  0
 17 41  1  0
 18 42  1  0
 19 43  1  0
 20 44  1  0
M  CHG  2   3   1   6   1
M  END
>  <score>  (9) 
-8.082

$$$$
