=
     RDKit          3D

 28 29  0  0  0  0  0  0  0  0999 V2000
    1.5170   67.0640   68.0850 O   0  0  0  0  0  0  0  0  0  0  0  0
    1.1050   67.9240   67.3250 C   0  0  0  0  0  0  0  0  0  0  0  0
    0.2270   67.6260   66.0970 C   0  0  0  0  0  0  0  0  0  0  0  0
   -0.7800   68.2540   65.8180 O   0  0  0  0  0  0  0  0  0  0  0  0
    0.7920   66.5630   65.4260 O   0  0  0  0  0  0  0  0  0  0  0  0
    1.8230   66.9560   64.5750 C   0  0  0  0  0  0  0  0  0  0  0  0
    1.6370   68.0580   63.7420 C   0  0  0  0  0  0  0  0  0  0  0  0
    2.6850   68.4760   62.9240 C   0  0  0  0  0  0  0  0  0  0  0  0
    3.9090   67.8030   62.9560 C   0  0  0  0  0  0  0  0  0  0  0  0
    4.0900   66.7130   63.8110 C   0  0  0  0  0  0  0  0  0  0  0  0
    3.0460   66.2890   64.6310 C   0  0  0  0  0  0  0  0  0  0  0  0
    1.3090   69.2850   67.3720 O   0  0  0  0  0  0  0  0  0  0  0  0
    2.6490   69.6180   67.5640 C   0  0  0  0  0  0  0  0  0  0  0  0
    3.5520   69.4450   66.5160 C   0  0  0  0  0  0  0  0  0  0  0  0
    4.8820   69.8200   66.6970 C   0  0  0  0  0  0  0  0  0  0  0  0
    5.2930   70.3750   67.9110 C   0  0  0  0  0  0  0  0  0  0  0  0
    4.3750   70.5610   68.9460 C   0  0  0  0  0  0  0  0  0  0  0  0
    3.0430   70.1890   68.7730 C   0  0  0  0  0  0  0  0  0  0  0  0
    0.6749   68.5911   63.7304 H   0  0  0  0  0  0  0  0  0  0  0  0
    2.5484   69.3365   62.2526 H   0  0  0  0  0  0  0  0  0  0  0  0
    4.7329   68.1324   62.3059 H   0  0  0  0  0  0  0  0  0  0  0  0
    5.0570   66.1893   63.8369 H   0  0  0  0  0  0  0  0  0  0  0  0
    3.1852   65.4382   65.3143 H   0  0  0  0  0  0  0  0  0  0  0  0
    3.2190   69.0180   65.5585 H   0  0  0  0  0  0  0  0  0  0  0  0
    5.6085   69.6788   65.8832 H   0  0  0  0  0  0  0  0  0  0  0  0
    6.3442   70.6667   68.0521 H   0  0  0  0  0  0  0  0  0  0  0  0
    4.7032   71.0016   69.8990 H   0  0  0  0  0  0  0  0  0  0  0  0
    2.3120   70.3440   69.5802 H   0  0  0  0  0  0  0  0  0  0  0  0
  2  1  2  0
  3  2  1  0
  4  3  2  0
  5  3  1  0
  6  5  1  0
  7  6  2  0
  8  7  1  0
  9  8  2  0
 10  9  1  0
 11 10  2  0
 11  6  1  0
 12  2  1  0
 13 12  1  0
 14 13  2  0
 15 14  1  0
 16 15  2  0
 17 16  1  0
 18 17  2  0
 18 13  1  0
  7 19  1  0
  8 20  1  0
  9 21  1  0
 10 22  1  0
 11 23  1  0
 14 24  1  0
 15 25  1  0
 16 26  1  0
 17 27  1  0
 18 28  1  0
M  END
>  <score>  (1) 
-8.344

$$$$
=
     RDKit          3D

 28 29  0  0  0  0  0  0  0  0999 V2000
   -0.8510   68.3190   65.9030 O   0  0  0  0  0  0  0  0  0  0  0  0
    0.1400   67.6710   66.1950 C   0  0  0  0  0  0  0  0  0  0  0  0
    1.0000   67.9430   67.4410 C   0  0  0  0  0  0  0  0  0  0  0  0
    1.4010   67.0680   68.1890 O   0  0  0  0  0  0  0  0  0  0  0  0
    1.2050   69.3030   67.5190 O   0  0  0  0  0  0  0  0  0  0  0  0
    2.5490   69.6320   67.6800 C   0  0  0  0  0  0  0  0  0  0  0  0
    3.4320   69.4340   66.6190 C   0  0  0  0  0  0  0  0  0  0  0  0
    4.7670   69.8050   66.7670 C   0  0  0  0  0  0  0  0  0  0  0  0
    5.2040   70.3820   67.9620 C   0  0  0  0  0  0  0  0  0  0  0  0
    4.3050   70.5950   69.0110 C   0  0  0  0  0  0  0  0  0  0  0  0
    2.9690   70.2260   68.8700 C   0  0  0  0  0  0  0  0  0  0  0  0
    0.6980   66.6040   65.5250 O   0  0  0  0  0  0  0  0  0  0  0  0
    1.7340   66.9890   64.6770 C   0  0  0  0  0  0  0  0  0  0  0  0
    2.9320   66.2760   64.6960 C   0  0  0  0  0  0  0  0  0  0  0  0
    3.9500   66.6350   63.8150 C   0  0  0  0  0  0  0  0  0  0  0  0
    3.7600   67.6880   62.9170 C   0  0  0  0  0  0  0  0  0  0  0  0
    2.5480   68.3820   62.8940 C   0  0  0  0  0  0  0  0  0  0  0  0
    1.5240   68.0290   63.7720 C   0  0  0  0  0  0  0  0  0  0  0  0
    3.0789   68.9902   65.6765 H   0  0  0  0  0  0  0  0  0  0  0  0
    5.4771   69.6435   65.9426 H   0  0  0  0  0  0  0  0  0  0  0  0
    6.2594   70.6697   68.0778 H   0  0  0  0  0  0  0  0  0  0  0  0
    4.6526   71.0542   69.9482 H   0  0  0  0  0  0  0  0  0  0  0  0
    2.2540   70.4010   69.6874 H   0  0  0  0  0  0  0  0  0  0  0  0
    3.0717   65.4405   65.3977 H   0  0  0  0  0  0  0  0  0  0  0  0
    4.9046   66.0885   63.8266 H   0  0  0  0  0  0  0  0  0  0  0  0
    4.5674   67.9716   62.2258 H   0  0  0  0  0  0  0  0  0  0  0  0
    2.4012   69.2079   62.1824 H   0  0  0  0  0  0  0  0  0  0  0  0
    0.5630   68.5639   63.7511 H   0  0  0  0  0  0  0  0  0  0  0  0
  2  1  2  0
  3  2  1  0
  4  3  2  0
  5  3  1  0
  6  5  1  0
  7  6  2  0
  8  7  1  0
  9  8  2  0
 10  9  1  0
 11 10  2  0
 11  6  1  0
 12  2  1  0
 13 12  1  0
 14 13  2  0
 15 14  1  0
 16 15  2  0
 17 16  1  0
 18 17  2  0
 18 13  1  0
  7 19  1  0
  8 20  1  0
  9 21  1  0
 10 22  1  0
 11 23  1  0
 14 24  1  0
 15 25  1  0
 16 26  1  0
 17 27  1  0
 18 28  1  0
M  END
>  <score>  (2) 
-8.339

$$$$
=
     RDKit          3D

 28 29  0  0  0  0  0  0  0  0999 V2000
    3.5200   67.0330   65.0460 O   0  0  0  0  0  0  0  0  0  0  0  0
    2.9240   68.0850   64.8870 C   0  0  0  0  0  0  0  0  0  0  0  0
    1.4020   68.1800   64.6850 C   0  0  0  0  0  0  0  0  0  0  0  0
    0.8110   67.6650   63.7510 O   0  0  0  0  0  0  0  0  0  0  0  0
    0.8880   68.9250   65.7230 O   0  0  0  0  0  0  0  0  0  0  0  0
   -0.2390   68.3380   66.2950 C   0  0  0  0  0  0  0  0  0  0  0  0
   -0.0780   67.4120   67.3240 C   0  0  0  0  0  0  0  0  0  0  0  0
   -1.2080   66.8600   67.9250 C   0  0  0  0  0  0  0  0  0  0  0  0
   -2.4830   67.2470   67.5040 C   0  0  0  0  0  0  0  0  0  0  0  0
   -2.6320   68.1910   66.4850 C   0  0  0  0  0  0  0  0  0  0  0  0
   -1.5060   68.7470   65.8800 C   0  0  0  0  0  0  0  0  0  0  0  0
    3.4310   69.3650   64.8520 O   0  0  0  0  0  0  0  0  0  0  0  0
    4.2080   69.6630   65.9700 C   0  0  0  0  0  0  0  0  0  0  0  0
    5.5790   69.8560   65.8160 C   0  0  0  0  0  0  0  0  0  0  0  0
    6.3460   70.1990   66.9280 C   0  0  0  0  0  0  0  0  0  0  0  0
    5.7370   70.3580   68.1750 C   0  0  0  0  0  0  0  0  0  0  0  0
    4.3590   70.1810   68.3130 C   0  0  0  0  0  0  0  0  0  0  0  0
    3.5850   69.8400   67.2050 C   0  0  0  0  0  0  0  0  0  0  0  0
    0.9287   67.1203   67.6579 H   0  0  0  0  0  0  0  0  0  0  0  0
   -1.0961   66.1196   68.7308 H   0  0  0  0  0  0  0  0  0  0  0  0
   -3.3731   66.8065   67.9769 H   0  0  0  0  0  0  0  0  0  0  0  0
   -3.6378   68.4955   66.1601 H   0  0  0  0  0  0  0  0  0  0  0  0
   -1.6155   69.4992   65.0849 H   0  0  0  0  0  0  0  0  0  0  0  0
    6.0504   69.7391   64.8290 H   0  0  0  0  0  0  0  0  0  0  0  0
    7.4313   70.3446   66.8236 H   0  0  0  0  0  0  0  0  0  0  0  0
    6.3456   70.6238   69.0519 H   0  0  0  0  0  0  0  0  0  0  0  0
    3.8839   70.3107   69.2966 H   0  0  0  0  0  0  0  0  0  0  0  0
    2.4969   69.7122   67.3035 H   0  0  0  0  0  0  0  0  0  0  0  0
  2  1  2  0
  3  2  1  0
  4  3  2  0
  5  3  1  0
  6  5  1  0
  7  6  2  0
  8  7  1  0
  9  8  2  0
 10  9  1  0
 11 10  2  0
 11  6  1  0
 12  2  1  0
 13 12  1  0
 14 13  2  0
 15 14  1  0
 16 15  2  0
 17 16  1  0
 18 17  2  0
 18 13  1  0
  7 19  1  0
  8 20  1  0
  9 21  1  0
 10 22  1  0
 11 23  1  0
 14 24  1  0
 15 25  1  0
 16 26  1  0
 17 27  1  0
 18 28  1  0
M  END
>  <score>  (3) 
-7.75

$$$$
=
     RDKit          3D

 28 29  0  0  0  0  0  0  0  0999 V2000
    1.5670   66.6860   65.4940 O   0  0  0  0  0  0  0  0  0  0  0  0
    1.1680   67.8280   65.3430 C   0  0  0  0  0  0  0  0  0  0  0  0
   -0.1510   68.3550   65.9350 C   0  0  0  0  0  0  0  0  0  0  0  0
   -1.2170   68.3240   65.3430 O   0  0  0  0  0  0  0  0  0  0  0  0
    0.1190   68.8380   67.1960 O   0  0  0  0  0  0  0  0  0  0  0  0
    0.2420   67.8220   68.1420 C   0  0  0  0  0  0  0  0  0  0  0  0
    1.3940   67.7550   68.9250 C   0  0  0  0  0  0  0  0  0  0  0  0
    1.4950   66.7660   69.9000 C   0  0  0  0  0  0  0  0  0  0  0  0
    0.4450   65.8650   70.0950 C   0  0  0  0  0  0  0  0  0  0  0  0
   -0.7130   65.9550   69.3180 C   0  0  0  0  0  0  0  0  0  0  0  0
   -0.8210   66.9420   68.3400 C   0  0  0  0  0  0  0  0  0  0  0  0
    1.7590   68.8620   64.6520 O   0  0  0  0  0  0  0  0  0  0  0  0
    3.0650   69.1080   65.0720 C   0  0  0  0  0  0  0  0  0  0  0  0
    4.0970   69.0890   64.1360 C   0  0  0  0  0  0  0  0  0  0  0  0
    5.3960   69.3780   64.5500 C   0  0  0  0  0  0  0  0  0  0  0  0
    5.6490   69.6960   65.8870 C   0  0  0  0  0  0  0  0  0  0  0  0
    4.6030   69.7310   66.8120 C   0  0  0  0  0  0  0  0  0  0  0  0
    3.3010   69.4430   66.4050 C   0  0  0  0  0  0  0  0  0  0  0  0
    2.2125   68.4743   68.7743 H   0  0  0  0  0  0  0  0  0  0  0  0
    2.4025   66.6940   70.5175 H   0  0  0  0  0  0  0  0  0  0  0  0
    0.5302   65.0820   70.8629 H   0  0  0  0  0  0  0  0  0  0  0  0
   -1.5393   65.2468   69.4783 H   0  0  0  0  0  0  0  0  0  0  0  0
   -1.7337   67.0256   67.7318 H   0  0  0  0  0  0  0  0  0  0  0  0
    3.8889   68.8488   63.0829 H   0  0  0  0  0  0  0  0  0  0  0  0
    6.2223   69.3558   63.8242 H   0  0  0  0  0  0  0  0  0  0  0  0
    6.6758   69.9196   66.2122 H   0  0  0  0  0  0  0  0  0  0  0  0
    4.8067   69.9860   67.8625 H   0  0  0  0  0  0  0  0  0  0  0  0
    2.4709   69.4795   67.1258 H   0  0  0  0  0  0  0  0  0  0  0  0
  2  1  2  0
  3  2  1  0
  4  3  2  0
  5  3  1  0
  6  5  1  0
  7  6  2  0
  8  7  1  0
  9  8  2  0
 10  9  1  0
 11 10  2  0
 11  6  1  0
 12  2  1  0
 13 12  1  0
 14 13  2  0
 15 14  1  0
 16 15  2  0
 17 16  1  0
 18 17  2  0
 18 13  1  0
  7 19  1  0
  8 20  1  0
  9 21  1  0
 10 22  1  0
 11 23  1  0
 14 24  1  0
 15 25  1  0
 16 26  1  0
 17 27  1  0
 18 28  1  0
M  END
>  <score>  (4) 
-7.579

$$$$
=
     RDKit          3D

 28 29  0  0  0  0  0  0  0  0999 V2000
    4.9240   69.4640   61.8640 O   0  0  0  0  0  0  0  0  0  0  0  0
    4.4970   68.5710   62.5770 C   0  0  0  0  0  0  0  0  0  0  0  0
    5.1030   68.2070   63.9430 C   0  0  0  0  0  0  0  0  0  0  0  0
    5.0750   67.0840   64.4170 O   0  0  0  0  0  0  0  0  0  0  0  0
    5.6480   69.3540   64.4780 O   0  0  0  0  0  0  0  0  0  0  0  0
    5.1870   69.6140   65.7670 C   0  0  0  0  0  0  0  0  0  0  0  0
    6.0580   70.1650   66.7050 C   0  0  0  0  0  0  0  0  0  0  0  0
    5.5840   70.4650   67.9800 C   0  0  0  0  0  0  0  0  0  0  0  0
    4.2450   70.2260   68.3020 C   0  0  0  0  0  0  0  0  0  0  0  0
    3.3760   69.6920   67.3470 C   0  0  0  0  0  0  0  0  0  0  0  0
    3.8440   69.3890   66.0700 C   0  0  0  0  0  0  0  0  0  0  0  0
    3.4350   67.7230   62.3510 O   0  0  0  0  0  0  0  0  0  0  0  0
    2.2030   68.3480   62.5360 C   0  0  0  0  0  0  0  0  0  0  0  0
    1.6500   69.0870   61.4910 C   0  0  0  0  0  0  0  0  0  0  0  0
    0.3980   69.6740   61.6630 C   0  0  0  0  0  0  0  0  0  0  0  0
   -0.2940   69.5070   62.8660 C   0  0  0  0  0  0  0  0  0  0  0  0
    0.2630   68.7470   63.8980 C   0  0  0  0  0  0  0  0  0  0  0  0
    1.5150   68.1570   63.7330 C   0  0  0  0  0  0  0  0  0  0  0  0
    7.1079   70.3608   66.4415 H   0  0  0  0  0  0  0  0  0  0  0  0
    6.2635   70.8900   68.7335 H   0  0  0  0  0  0  0  0  0  0  0  0
    3.8740   70.4592   69.3110 H   0  0  0  0  0  0  0  0  0  0  0  0
    2.3218   69.5107   67.6034 H   0  0  0  0  0  0  0  0  0  0  0  0
    3.1631   68.9776   65.3104 H   0  0  0  0  0  0  0  0  0  0  0  0
    2.1951   69.2051   60.5429 H   0  0  0  0  0  0  0  0  0  0  0  0
   -0.0461   70.2692   60.8515 H   0  0  0  0  0  0  0  0  0  0  0  0
   -1.2802   69.9753   63.0008 H   0  0  0  0  0  0  0  0  0  0  0  0
   -0.2871   68.6143   64.8413 H   0  0  0  0  0  0  0  0  0  0  0  0
    1.9544   67.5485   64.5371 H   0  0  0  0  0  0  0  0  0  0  0  0
  2  1  2  0
  3  2  1  0
  4  3  2  0
  5  3  1  0
  6  5  1  0
  7  6  2  0
  8  7  1  0
  9  8  2  0
 10  9  1  0
 11 10  2  0
 11  6  1  0
 12  2  1  0
 13 12  1  0
 14 13  2  0
 15 14  1  0
 16 15  2  0
 17 16  1  0
 18 17  2  0
 18 13  1  0
  7 19  1  0
  8 20  1  0
  9 21  1  0
 10 22  1  0
 11 23  1  0
 14 24  1  0
 15 25  1  0
 16 26  1  0
 17 27  1  0
 18 28  1  0
M  END
>  <score>  (5) 
-7.531

$$$$
=
     RDKit          3D

 28 29  0  0  0  0  0  0  0  0999 V2000
    4.5110   59.5060   73.8090 O   0  0  0  0  0  0  0  0  0  0  0  0
    3.5240   59.3090   73.1200 C   0  0  0  0  0  0  0  0  0  0  0  0
    3.5880   58.8580   71.6500 C   0  0  0  0  0  0  0  0  0  0  0  0
    2.8260   58.0420   71.1610 O   0  0  0  0  0  0  0  0  0  0  0  0
    4.6260   59.5350   71.0490 O   0  0  0  0  0  0  0  0  0  0  0  0
    4.2450   60.7920   70.5810 C   0  0  0  0  0  0  0  0  0  0  0  0
    3.1280   60.9010   69.7540 C   0  0  0  0  0  0  0  0  0  0  0  0
    2.7230   62.1630   69.3240 C   0  0  0  0  0  0  0  0  0  0  0  0
    3.4240   63.3000   69.7330 C   0  0  0  0  0  0  0  0  0  0  0  0
    4.5290   63.1790   70.5790 C   0  0  0  0  0  0  0  0  0  0  0  0
    4.9400   61.9200   71.0130 C   0  0  0  0  0  0  0  0  0  0  0  0
    2.1960   59.4330   73.4630 O   0  0  0  0  0  0  0  0  0  0  0  0
    1.6930   60.7060   73.1990 C   0  0  0  0  0  0  0  0  0  0  0  0
    2.4080   61.8240   73.6240 C   0  0  0  0  0  0  0  0  0  0  0  0
    1.9260   63.0950   73.3210 C   0  0  0  0  0  0  0  0  0  0  0  0
    0.7460   63.2380   72.5860 C   0  0  0  0  0  0  0  0  0  0  0  0
    0.0490   62.1100   72.1480 C   0  0  0  0  0  0  0  0  0  0  0  0
    0.5250   60.8350   72.4470 C   0  0  0  0  0  0  0  0  0  0  0  0
    2.5737   60.0026   69.4450 H   0  0  0  0  0  0  0  0  0  0  0  0
    1.8505   62.2641   68.6618 H   0  0  0  0  0  0  0  0  0  0  0  0
    3.1047   64.2943   69.3876 H   0  0  0  0  0  0  0  0  0  0  0  0
    5.0748   64.0775   70.9027 H   0  0  0  0  0  0  0  0  0  0  0  0
    5.8024   61.8179   71.6882 H   0  0  0  0  0  0  0  0  0  0  0  0
    3.3422   61.7041   74.1922 H   0  0  0  0  0  0  0  0  0  0  0  0
    2.4741   63.9864   73.6602 H   0  0  0  0  0  0  0  0  0  0  0  0
    0.3648   64.2429   72.3516 H   0  0  0  0  0  0  0  0  0  0  0  0
   -0.8770   62.2281   71.5662 H   0  0  0  0  0  0  0  0  0  0  0  0
   -0.0128   59.9424   72.0949 H   0  0  0  0  0  0  0  0  0  0  0  0
  2  1  2  0
  3  2  1  0
  4  3  2  0
  5  3  1  0
  6  5  1  0
  7  6  2  0
  8  7  1  0
  9  8  2  0
 10  9  1  0
 11 10  2  0
 11  6  1  0
 12  2  1  0
 13 12  1  0
 14 13  2  0
 15 14  1  0
 16 15  2  0
 17 16  1  0
 18 17  2  0
 18 13  1  0
  7 19  1  0
  8 20  1  0
  9 21  1  0
 10 22  1  0
 11 23  1  0
 14 24  1  0
 15 25  1  0
 16 26  1  0
 17 27  1  0
 18 28  1  0
M  END
>  <score>  (6) 
-7.337

$$$$
=
     RDKit          3D

 28 29  0  0  0  0  0  0  0  0999 V2000
    2.6750   57.9340   71.2780 O   0  0  0  0  0  0  0  0  0  0  0  0
    3.4760   58.7460   71.7090 C   0  0  0  0  0  0  0  0  0  0  0  0
    3.4830   59.2490   73.1630 C   0  0  0  0  0  0  0  0  0  0  0  0
    4.4980   59.4060   73.8190 O   0  0  0  0  0  0  0  0  0  0  0  0
    2.1750   59.4690   73.5350 O   0  0  0  0  0  0  0  0  0  0  0  0
    1.7210   60.7350   73.1700 C   0  0  0  0  0  0  0  0  0  0  0  0
    0.5330   60.8510   72.4500 C   0  0  0  0  0  0  0  0  0  0  0  0
    0.0580   62.1200   72.1250 C   0  0  0  0  0  0  0  0  0  0  0  0
    0.7620   63.2570   72.5320 C   0  0  0  0  0  0  0  0  0  0  0  0
    1.9410   63.1270   73.2710 C   0  0  0  0  0  0  0  0  0  0  0  0
    2.4220   61.8610   73.5990 C   0  0  0  0  0  0  0  0  0  0  0  0
    4.5070   59.3740   71.0450 O   0  0  0  0  0  0  0  0  0  0  0  0
    4.1640   60.6550   70.6150 C   0  0  0  0  0  0  0  0  0  0  0  0
    4.9490   61.7380   71.0070 C   0  0  0  0  0  0  0  0  0  0  0  0
    4.6310   63.0120   70.5400 C   0  0  0  0  0  0  0  0  0  0  0  0
    3.5450   63.1900   69.6790 C   0  0  0  0  0  0  0  0  0  0  0  0
    2.7790   62.0930   69.2780 C   0  0  0  0  0  0  0  0  0  0  0  0
    3.0910   60.8160   69.7400 C   0  0  0  0  0  0  0  0  0  0  0  0
   -0.0222   59.9526   72.1425 H   0  0  0  0  0  0  0  0  0  0  0  0
   -0.8720   62.2272   71.5475 H   0  0  0  0  0  0  0  0  0  0  0  0
    0.3868   64.2572   72.2698 H   0  0  0  0  0  0  0  0  0  0  0  0
    2.4894   64.0242   73.5938 H   0  0  0  0  0  0  0  0  0  0  0  0
    3.3437   61.7514   74.1893 H   0  0  0  0  0  0  0  0  0  0  0  0
    5.8089   61.5890   71.6767 H   0  0  0  0  0  0  0  0  0  0  0  0
    5.2351   63.8777   70.8493 H   0  0  0  0  0  0  0  0  0  0  0  0
    3.2925   64.1972   69.3159 H   0  0  0  0  0  0  0  0  0  0  0  0
    1.9279   62.2375   68.5963 H   0  0  0  0  0  0  0  0  0  0  0  0
    2.4985   59.9467   69.4186 H   0  0  0  0  0  0  0  0  0  0  0  0
  2  1  2  0
  3  2  1  0
  4  3  2  0
  5  3  1  0
  6  5  1  0
  7  6  2  0
  8  7  1  0
  9  8  2  0
 10  9  1  0
 11 10  2  0
 11  6  1  0
 12  2  1  0
 13 12  1  0
 14 13  2  0
 15 14  1  0
 16 15  2  0
 17 16  1  0
 18 17  2  0
 18 13  1  0
  7 19  1  0
  8 20  1  0
  9 21  1  0
 10 22  1  0
 11 23  1  0
 14 24  1  0
 15 25  1  0
 16 26  1  0
 17 27  1  0
 18 28  1  0
M  END
>  <score>  (7) 
-7.327

$$$$
=
     RDKit          3D

 28 29  0  0  0  0  0  0  0  0999 V2000
    1.6890   69.8590   67.8490 O   0  0  0  0  0  0  0  0  0  0  0  0
    2.0160   68.9460   67.1100 C   0  0  0  0  0  0  0  0  0  0  0  0
    3.2140   69.0170   66.1470 C   0  0  0  0  0  0  0  0  0  0  0  0
    4.0110   69.9390   66.1270 O   0  0  0  0  0  0  0  0  0  0  0  0
    3.1900   67.8830   65.3650 O   0  0  0  0  0  0  0  0  0  0  0  0
    3.1950   68.1740   64.0020 C   0  0  0  0  0  0  0  0  0  0  0  0
    1.9930   68.4750   63.3650 C   0  0  0  0  0  0  0  0  0  0  0  0
    2.0070   68.8090   62.0120 C   0  0  0  0  0  0  0  0  0  0  0  0
    3.2170   68.8530   61.3150 C   0  0  0  0  0  0  0  0  0  0  0  0
    4.4180   68.5690   61.9700 C   0  0  0  0  0  0  0  0  0  0  0  0
    4.4110   68.2340   63.3230 C   0  0  0  0  0  0  0  0  0  0  0  0
    1.4340   67.7060   66.9630 O   0  0  0  0  0  0  0  0  0  0  0  0
    0.0460   67.7770   66.8570 C   0  0  0  0  0  0  0  0  0  0  0  0
   -0.7440   67.0420   67.7400 C   0  0  0  0  0  0  0  0  0  0  0  0
   -2.1310   67.1490   67.6610 C   0  0  0  0  0  0  0  0  0  0  0  0
   -2.7140   67.9960   66.7160 C   0  0  0  0  0  0  0  0  0  0  0  0
   -1.9120   68.7430   65.8500 C   0  0  0  0  0  0  0  0  0  0  0  0
   -0.5240   68.6410   65.9230 C   0  0  0  0  0  0  0  0  0  0  0  0
    1.0452   68.4494   63.9227 H   0  0  0  0  0  0  0  0  0  0  0  0
    1.0648   69.0381   61.4926 H   0  0  0  0  0  0  0  0  0  0  0  0
    3.2242   69.1123   60.2460 H   0  0  0  0  0  0  0  0  0  0  0  0
    5.3687   68.6098   61.4182 H   0  0  0  0  0  0  0  0  0  0  0  0
    5.3533   68.0196   63.8484 H   0  0  0  0  0  0  0  0  0  0  0  0
   -0.2780   66.3857   68.4898 H   0  0  0  0  0  0  0  0  0  0  0  0
   -2.7671   66.5660   68.3433 H   0  0  0  0  0  0  0  0  0  0  0  0
   -3.8094   68.0752   66.6534 H   0  0  0  0  0  0  0  0  0  0  0  0
   -2.3761   69.4119   65.1103 H   0  0  0  0  0  0  0  0  0  0  0  0
    0.1140   69.2349   65.2520 H   0  0  0  0  0  0  0  0  0  0  0  0
  2  1  2  0
  3  2  1  0
  4  3  2  0
  5  3  1  0
  6  5  1  0
  7  6  2  0
  8  7  1  0
  9  8  2  0
 10  9  1  0
 11 10  2  0
 11  6  1  0
 12  2  1  0
 13 12  1  0
 14 13  2  0
 15 14  1  0
 16 15  2  0
 17 16  1  0
 18 17  2  0
 18 13  1  0
  7 19  1  0
  8 20  1  0
  9 21  1  0
 10 22  1  0
 11 23  1  0
 14 24  1  0
 15 25  1  0
 16 26  1  0
 17 27  1  0
 18 28  1  0
M  END
>  <score>  (8) 
-7.13

$$$$
=
     RDKit          3D

 28 29  0  0  0  0  0  0  0  0999 V2000
    4.7060   69.0530   65.1640 O   0  0  0  0  0  0  0  0  0  0  0  0
    3.7390   69.0820   65.9060 C   0  0  0  0  0  0  0  0  0  0  0  0
    2.5150   68.1640   65.7480 C   0  0  0  0  0  0  0  0  0  0  0  0
    2.5610   67.0590   65.2370 O   0  0  0  0  0  0  0  0  0  0  0  0
    1.4270   68.8230   66.2770 O   0  0  0  0  0  0  0  0  0  0  0  0
    0.6520   68.0040   67.0950 C   0  0  0  0  0  0  0  0  0  0  0  0
    1.1480   67.6170   68.3390 C   0  0  0  0  0  0  0  0  0  0  0  0
    0.3530   66.8350   69.1740 C   0  0  0  0  0  0  0  0  0  0  0  0
   -0.9300   66.4590   68.7670 C   0  0  0  0  0  0  0  0  0  0  0  0
   -1.4240   66.8700   67.5270 C   0  0  0  0  0  0  0  0  0  0  0  0
   -0.6340   67.6520   66.6860 C   0  0  0  0  0  0  0  0  0  0  0  0
    3.5180   69.8910   66.9990 O   0  0  0  0  0  0  0  0  0  0  0  0
    4.7000   70.2670   67.6340 C   0  0  0  0  0  0  0  0  0  0  0  0
    4.6750   70.5820   68.9920 C   0  0  0  0  0  0  0  0  0  0  0  0
    5.8650   70.9140   69.6340 C   0  0  0  0  0  0  0  0  0  0  0  0
    7.0670   70.9160   68.9220 C   0  0  0  0  0  0  0  0  0  0  0  0
    7.0820   70.5800   67.5670 C   0  0  0  0  0  0  0  0  0  0  0  0
    5.8960   70.2450   66.9170 C   0  0  0  0  0  0  0  0  0  0  0  0
    2.1548   67.9253   68.6574 H   0  0  0  0  0  0  0  0  0  0  0  0
    0.7353   66.5134   70.1540 H   0  0  0  0  0  0  0  0  0  0  0  0
   -1.5533   65.8368   69.4260 H   0  0  0  0  0  0  0  0  0  0  0  0
   -2.4368   66.5765   67.2139 H   0  0  0  0  0  0  0  0  0  0  0  0
   -1.0200   67.9872   65.7120 H   0  0  0  0  0  0  0  0  0  0  0  0
    3.7267   70.5684   69.5493 H   0  0  0  0  0  0  0  0  0  0  0  0
    5.8587   71.1749   70.7026 H   0  0  0  0  0  0  0  0  0  0  0  0
    8.0049   71.1833   69.4308 H   0  0  0  0  0  0  0  0  0  0  0  0
    8.0316   70.5797   67.0117 H   0  0  0  0  0  0  0  0  0  0  0  0
    5.9029   69.9669   65.8527 H   0  0  0  0  0  0  0  0  0  0  0  0
  2  1  2  0
  3  2  1  0
  4  3  2  0
  5  3  1  0
  6  5  1  0
  7  6  2  0
  8  7  1  0
  9  8  2  0
 10  9  1  0
 11 10  2  0
 11  6  1  0
 12  2  1  0
 13 12  1  0
 14 13  2  0
 15 14  1  0
 16 15  2  0
 17 16  1  0
 18 17  2  0
 18 13  1  0
  7 19  1  0
  8 20  1  0
  9 21  1  0
 10 22  1  0
 11 23  1  0
 14 24  1  0
 15 25  1  0
 16 26  1  0
 17 27  1  0
 18 28  1  0
M  END
>  <score>  (9) 
-6.841

$$$$
