=
     RDKit          3D

 30 29  0  0  0  0  0  0  0  0999 V2000
    2.9560   68.8780   65.0280 C   0  0  0  0  0  0  0  0  0  0  0  0
    2.4740   68.0440   63.8410 C   0  0  0  0  0  0  0  0  0  0  0  0
    3.6140   69.0180   60.4400 N   0  0  0  0  0  0  0  0  0  0  0  0
    2.7730   68.8210   61.4600 C   0  0  0  0  0  0  0  0  0  0  0  0
    1.4840   69.1210   61.2880 N   0  0  0  0  0  4  0  0  0  0  0  0
    3.2430   68.3290   62.6160 N   0  0  0  0  0  0  0  0  0  0  0  0
    2.1210   68.6870   66.3020 C   0  0  0  0  0  0  0  0  0  0  0  0
    0.9680   67.6970   66.1560 C   0  0  0  0  0  0  0  0  0  0  0  0
   -0.3310   68.3140   66.4850 N   0  0  0  0  0  0  0  0  0  0  0  0
   -1.2170   68.8320   65.6160 C   0  0  0  0  0  0  0  0  0  0  0  0
   -0.9970   68.8450   64.2990 N   0  0  0  0  0  4  0  0  0  0  0  0
   -2.3590   69.3510   66.0760 N   0  0  0  0  0  0  0  0  0  0  0  0
    3.9959   68.5962   65.2499 H   0  0  0  0  0  0  0  0  0  0  0  0
    2.8578   69.9343   64.7371 H   0  0  0  0  0  0  0  0  0  0  0  0
    2.5832   66.9778   64.0887 H   0  0  0  0  0  0  0  0  0  0  0  0
    1.4222   68.3028   63.6493 H   0  0  0  0  0  0  0  0  0  0  0  0
    4.6139   68.7947   60.5464 H   0  0  0  0  0  0  0  0  0  0  0  0
    3.2622   69.3931   59.5476 H   0  0  0  0  0  0  0  0  0  0  0  0
    0.8149   68.9787   62.0580 H   0  0  0  0  0  0  0  0  0  0  0  0
    1.1583   69.4949   60.3852 H   0  0  0  0  0  0  0  0  0  0  0  0
    4.2526   68.1282   62.6517 H   0  0  0  0  0  0  0  0  0  0  0  0
    2.7869   68.3249   67.0991 H   0  0  0  0  0  0  0  0  0  0  0  0
    1.6700   69.6636   66.5319 H   0  0  0  0  0  0  0  0  0  0  0  0
    0.9378   67.3368   65.1171 H   0  0  0  0  0  0  0  0  0  0  0  0
    1.1394   66.8677   66.8581 H   0  0  0  0  0  0  0  0  0  0  0  0
   -0.5854   68.3519   67.4824 H   0  0  0  0  0  0  0  0  0  0  0  0
   -1.6989   69.2505   63.6636 H   0  0  0  0  0  0  0  0  0  0  0  0
   -0.1254   68.4495   63.9185 H   0  0  0  0  0  0  0  0  0  0  0  0
   -3.0446   69.7504   65.4192 H   0  0  0  0  0  0  0  0  0  0  0  0
   -2.5538   69.3517   67.0874 H   0  0  0  0  0  0  0  0  0  0  0  0
  2  1  1  0
  4  3  1  0
  5  4  2  3
  6  4  1  0
  6  2  1  0
  7  1  1  0
  8  7  1  0
  9  8  1  0
 10  9  1  0
 11 10  2  3
 12 10  1  0
  1 13  1  0
  1 14  1  0
  2 15  1  0
  2 16  1  0
  3 17  1  0
  3 18  1  0
  5 19  1  0
  5 20  1  0
  6 21  1  0
  7 22  1  0
  7 23  1  0
  8 24  1  0
  8 25  1  0
  9 26  1  0
 11 27  1  0
 11 28  1  0
 12 29  1  0
 12 30  1  0
M  CHG  2   5   1  11   1
M  END
>  <score>  (1) 
-6.124

$$$$
=
     RDKit          3D

 30 29  0  0  0  0  0  0  0  0999 V2000
    2.1620   68.5970   66.3850 C   0  0  0  0  0  0  0  0  0  0  0  0
    1.0100   67.6060   66.2200 C   0  0  0  0  0  0  0  0  0  0  0  0
   -2.2960   69.3000   66.1030 N   0  0  0  0  0  0  0  0  0  0  0  0
   -1.1460   68.7870   65.6550 C   0  0  0  0  0  0  0  0  0  0  0  0
   -0.8820   68.8620   64.3490 N   0  0  0  0  0  4  0  0  0  0  0  0
   -0.2960   68.2180   66.5230 N   0  0  0  0  0  0  0  0  0  0  0  0
    2.8260   69.0060   65.0630 C   0  0  0  0  0  0  0  0  0  0  0  0
    2.7030   67.9680   63.9510 C   0  0  0  0  0  0  0  0  0  0  0  0
    2.6730   68.5930   62.6150 N   0  0  0  0  0  0  0  0  0  0  0  0
    3.4980   68.3300   61.5870 C   0  0  0  0  0  0  0  0  0  0  0  0
    4.4830   67.4330   61.6760 N   0  0  0  0  0  4  0  0  0  0  0  0
    3.3340   68.9830   60.4320 N   0  0  0  0  0  0  0  0  0  0  0  0
    1.7720   69.5033   66.8714 H   0  0  0  0  0  0  0  0  0  0  0  0
    2.9328   68.0927   66.9863 H   0  0  0  0  0  0  0  0  0  0  0  0
    0.9996   67.2441   65.1813 H   0  0  0  0  0  0  0  0  0  0  0  0
    1.1696   66.7803   66.9290 H   0  0  0  0  0  0  0  0  0  0  0  0
   -2.5237   69.2550   67.1065 H   0  0  0  0  0  0  0  0  0  0  0  0
   -2.9546   69.7403   65.4447 H   0  0  0  0  0  0  0  0  0  0  0  0
   -0.0027   68.4743   63.9782 H   0  0  0  0  0  0  0  0  0  0  0  0
   -1.5575   69.3076   63.7118 H   0  0  0  0  0  0  0  0  0  0  0  0
   -0.5885   68.2077   67.5105 H   0  0  0  0  0  0  0  0  0  0  0  0
    2.3578   69.9392   64.7166 H   0  0  0  0  0  0  0  0  0  0  0  0
    3.9002   69.1185   65.2716 H   0  0  0  0  0  0  0  0  0  0  0  0
    3.5640   67.2855   64.0049 H   0  0  0  0  0  0  0  0  0  0  0  0
    1.7569   67.4255   64.0946 H   0  0  0  0  0  0  0  0  0  0  0  0
    1.9452   69.3038   62.4535 H   0  0  0  0  0  0  0  0  0  0  0  0
    5.0953   67.2585   60.8664 H   0  0  0  0  0  0  0  0  0  0  0  0
    4.6305   66.9156   62.5543 H   0  0  0  0  0  0  0  0  0  0  0  0
    3.9604   68.7895   59.6376 H   0  0  0  0  0  0  0  0  0  0  0  0
    2.5813   69.6796   60.3366 H   0  0  0  0  0  0  0  0  0  0  0  0
  2  1  1  0
  4  3  1  0
  5  4  2  3
  6  4  1  0
  6  2  1  0
  7  1  1  0
  8  7  1  0
  9  8  1  0
 10  9  1  0
 11 10  2  3
 12 10  1  0
  1 13  1  0
  1 14  1  0
  2 15  1  0
  2 16  1  0
  3 17  1  0
  3 18  1  0
  5 19  1  0
  5 20  1  0
  6 21  1  0
  7 22  1  0
  7 23  1  0
  8 24  1  0
  8 25  1  0
  9 26  1  0
 11 27  1  0
 11 28  1  0
 12 29  1  0
 12 30  1  0
M  CHG  2   5   1  11   1
M  END
>  <score>  (2) 
-6.044

$$$$
=
     RDKit          3D

 30 29  0  0  0  0  0  0  0  0999 V2000
    4.8130   69.4350   65.2330 C   0  0  0  0  0  0  0  0  0  0  0  0
    5.2550   69.9790   66.5920 C   0  0  0  0  0  0  0  0  0  0  0  0
    2.9690   70.3820   69.4950 N   0  0  0  0  0  0  0  0  0  0  0  0
    3.9780   70.6520   68.6620 C   0  0  0  0  0  0  0  0  0  0  0  0
    4.7380   71.7210   68.9070 N   0  0  0  0  0  4  0  0  0  0  0  0
    4.1980   69.8460   67.6110 N   0  0  0  0  0  0  0  0  0  0  0  0
    3.3190   69.0910   65.1570 C   0  0  0  0  0  0  0  0  0  0  0  0
    2.9650   68.0590   64.0900 C   0  0  0  0  0  0  0  0  0  0  0  0
    2.8480   68.6690   62.7520 N   0  0  0  0  0  0  0  0  0  0  0  0
    3.5850   68.3710   61.6670 C   0  0  0  0  0  0  0  0  0  0  0  0
    4.5490   67.4480   61.6930 N   0  0  0  0  0  4  0  0  0  0  0  0
    3.3500   69.0140   60.5190 N   0  0  0  0  0  0  0  0  0  0  0  0
    5.0330   70.1940   64.4679 H   0  0  0  0  0  0  0  0  0  0  0  0
    5.3652   68.4979   65.0692 H   0  0  0  0  0  0  0  0  0  0  0  0
    6.1424   69.4214   66.9261 H   0  0  0  0  0  0  0  0  0  0  0  0
    5.4789   71.0493   66.4728 H   0  0  0  0  0  0  0  0  0  0  0  0
    2.3680   69.5625   69.3273 H   0  0  0  0  0  0  0  0  0  0  0  0
    2.7921   70.9933   70.3049 H   0  0  0  0  0  0  0  0  0  0  0  0
    5.5219   71.9503   68.2795 H   0  0  0  0  0  0  0  0  0  0  0  0
    4.5407   72.3169   69.7236 H   0  0  0  0  0  0  0  0  0  0  0  0
    3.5575   69.0464   67.5050 H   0  0  0  0  0  0  0  0  0  0  0  0
    3.0063   68.6963   66.1350 H   0  0  0  0  0  0  0  0  0  0  0  0
    2.7959   70.0191   64.8830 H   0  0  0  0  0  0  0  0  0  0  0  0
    3.7520   67.2910   64.0631 H   0  0  0  0  0  0  0  0  0  0  0  0
    1.9908   67.6196   64.3507 H   0  0  0  0  0  0  0  0  0  0  0  0
    2.1287   69.3972   62.6369 H   0  0  0  0  0  0  0  0  0  0  0  0
    5.0927   67.2470   60.8416 H   0  0  0  0  0  0  0  0  0  0  0  0
    4.7492   66.9368   62.5645 H   0  0  0  0  0  0  0  0  0  0  0  0
    3.9082   68.7939   59.6818 H   0  0  0  0  0  0  0  0  0  0  0  0
    2.6107   69.7296   60.4715 H   0  0  0  0  0  0  0  0  0  0  0  0
  2  1  1  0
  4  3  1  0
  5  4  2  3
  6  4  1  0
  6  2  1  0
  7  1  1  0
  8  7  1  0
  9  8  1  0
 10  9  1  0
 11 10  2  3
 12 10  1  0
  1 13  1  0
  1 14  1  0
  2 15  1  0
  2 16  1  0
  3 17  1  0
  3 18  1  0
  5 19  1  0
  5 20  1  0
  6 21  1  0
  7 22  1  0
  7 23  1  0
  8 24  1  0
  8 25  1  0
  9 26  1  0
 11 27  1  0
 11 28  1  0
 12 29  1  0
 12 30  1  0
M  CHG  2   5   1  11   1
M  END
>  <score>  (3) 
-5.981

$$$$
=
     RDKit          3D

 30 29  0  0  0  0  0  0  0  0999 V2000
    0.8950   67.9050   66.2390 C   0  0  0  0  0  0  0  0  0  0  0  0
   -0.2250   68.7770   66.8050 C   0  0  0  0  0  0  0  0  0  0  0  0
   -3.3550   69.1310   64.8320 N   0  0  0  0  0  0  0  0  0  0  0  0
   -2.5580   68.7780   65.8440 C   0  0  0  0  0  0  0  0  0  0  0  0
   -3.0940   68.1260   66.8780 N   0  0  0  0  0  4  0  0  0  0  0  0
   -1.2520   69.0840   65.7930 N   0  0  0  0  0  0  0  0  0  0  0  0
    1.8790   68.6630   65.3370 C   0  0  0  0  0  0  0  0  0  0  0  0
    2.3550   67.8740   64.1210 C   0  0  0  0  0  0  0  0  0  0  0  0
    2.2150   68.6480   62.8730 N   0  0  0  0  0  0  0  0  0  0  0  0
    1.1030   68.7730   62.1270 C   0  0  0  0  0  0  0  0  0  0  0  0
   -0.0450   68.1750   62.4540 N   0  0  0  0  0  4  0  0  0  0  0  0
    1.1380   69.5200   61.0190 N   0  0  0  0  0  0  0  0  0  0  0  0
    1.4577   67.4748   67.0806 H   0  0  0  0  0  0  0  0  0  0  0  0
    0.4162   67.1368   65.6140 H   0  0  0  0  0  0  0  0  0  0  0  0
   -0.6999   68.2453   67.6427 H   0  0  0  0  0  0  0  0  0  0  0  0
    0.2193   69.7270   67.1367 H   0  0  0  0  0  0  0  0  0  0  0  0
   -2.9665   69.6350   64.0221 H   0  0  0  0  0  0  0  0  0  0  0  0
   -4.3582   68.8993   64.8615 H   0  0  0  0  0  0  0  0  0  0  0  0
   -2.5013   67.8424   67.6712 H   0  0  0  0  0  0  0  0  0  0  0  0
   -4.1003   67.9065   66.8827 H   0  0  0  0  0  0  0  0  0  0  0  0
   -0.9322   69.5890   64.9542 H   0  0  0  0  0  0  0  0  0  0  0  0
    1.3841   69.5786   64.9809 H   0  0  0  0  0  0  0  0  0  0  0  0
    2.7709   68.8675   65.9474 H   0  0  0  0  0  0  0  0  0  0  0  0
    3.4142   67.6118   64.2598 H   0  0  0  0  0  0  0  0  0  0  0  0
    1.7309   66.9723   64.0344 H   0  0  0  0  0  0  0  0  0  0  0  0
    3.0542   69.1430   62.5390 H   0  0  0  0  0  0  0  0  0  0  0  0
   -0.8761   68.2944   61.8573 H   0  0  0  0  0  0  0  0  0  0  0  0
   -0.0996   67.5943   63.3029 H   0  0  0  0  0  0  0  0  0  0  0  0
    0.2922   69.6227   60.4402 H   0  0  0  0  0  0  0  0  0  0  0  0
    2.0107   69.9929   60.7441 H   0  0  0  0  0  0  0  0  0  0  0  0
  2  1  1  0
  4  3  1  0
  5  4  2  3
  6  4  1  0
  6  2  1  0
  7  1  1  0
  8  7  1  0
  9  8  1  0
 10  9  1  0
 11 10  2  3
 12 10  1  0
  1 13  1  0
  1 14  1  0
  2 15  1  0
  2 16  1  0
  3 17  1  0
  3 18  1  0
  5 19  1  0
  5 20  1  0
  6 21  1  0
  7 22  1  0
  7 23  1  0
  8 24  1  0
  8 25  1  0
  9 26  1  0
 11 27  1  0
 11 28  1  0
 12 29  1  0
 12 30  1  0
M  CHG  2   5   1  11   1
M  END
>  <score>  (4) 
-5.923

$$$$
=
     RDKit          3D

 30 29  0  0  0  0  0  0  0  0999 V2000
    3.2990   68.9550   65.1120 C   0  0  0  0  0  0  0  0  0  0  0  0
    2.7300   68.0920   63.9860 C   0  0  0  0  0  0  0  0  0  0  0  0
    3.5030   68.9940   60.4650 N   0  0  0  0  0  0  0  0  0  0  0  0
    2.7670   68.7770   61.5590 C   0  0  0  0  0  0  0  0  0  0  0  0
    1.4480   68.9630   61.4850 N   0  0  0  0  0  4  0  0  0  0  0  0
    3.3700   68.3800   62.6900 N   0  0  0  0  0  0  0  0  0  0  0  0
    4.7420   69.4200   64.8700 C   0  0  0  0  0  0  0  0  0  0  0  0
    5.4610   69.9170   66.1210 C   0  0  0  0  0  0  0  0  0  0  0  0
    4.5790   69.9120   67.3030 N   0  0  0  0  0  0  0  0  0  0  0  0
    4.7220   70.6540   68.4150 C   0  0  0  0  0  0  0  0  0  0  0  0
    5.7320   71.5130   68.5720 N   0  0  0  0  0  4  0  0  0  0  0  0
    3.8270   70.5370   69.4000 N   0  0  0  0  0  0  0  0  0  0  0  0
    2.6620   69.8450   65.2221 H   0  0  0  0  0  0  0  0  0  0  0  0
    3.3120   68.3308   66.0177 H   0  0  0  0  0  0  0  0  0  0  0  0
    2.8923   67.0327   64.2342 H   0  0  0  0  0  0  0  0  0  0  0  0
    1.6580   68.3201   63.8928 H   0  0  0  0  0  0  0  0  0  0  0  0
    4.5235   68.8577   60.4954 H   0  0  0  0  0  0  0  0  0  0  0  0
    3.0498   69.2976   59.5913 H   0  0  0  0  0  0  0  0  0  0  0  0
    0.8580   68.8026   62.3139 H   0  0  0  0  0  0  0  0  0  0  0  0
    1.0197   69.2670   60.5990 H   0  0  0  0  0  0  0  0  0  0  0  0
    4.3925   68.2637   62.6478 H   0  0  0  0  0  0  0  0  0  0  0  0
    5.3120   68.5739   64.4586 H   0  0  0  0  0  0  0  0  0  0  0  0
    4.6855   70.2743   64.1794 H   0  0  0  0  0  0  0  0  0  0  0  0
    6.3234   69.2633   66.3185 H   0  0  0  0  0  0  0  0  0  0  0  0
    5.7812   70.9537   65.9400 H   0  0  0  0  0  0  0  0  0  0  0  0
    3.7704   69.2746   67.2736 H   0  0  0  0  0  0  0  0  0  0  0  0
    5.8089   72.0648   69.4383 H   0  0  0  0  0  0  0  0  0  0  0  0
    6.4343   71.6239   67.8268 H   0  0  0  0  0  0  0  0  0  0  0  0
    3.9269   71.1006   70.2563 H   0  0  0  0  0  0  0  0  0  0  0  0
    3.0371   69.8831   69.3031 H   0  0  0  0  0  0  0  0  0  0  0  0
  2  1  1  0
  4  3  1  0
  5  4  2  3
  6  4  1  0
  6  2  1  0
  7  1  1  0
  8  7  1  0
  9  8  1  0
 10  9  1  0
 11 10  2  3
 12 10  1  0
  1 13  1  0
  1 14  1  0
  2 15  1  0
  2 16  1  0
  3 17  1  0
  3 18  1  0
  5 19  1  0
  5 20  1  0
  6 21  1  0
  7 22  1  0
  7 23  1  0
  8 24  1  0
  8 25  1  0
  9 26  1  0
 11 27  1  0
 11 28  1  0
 12 29  1  0
 12 30  1  0
M  CHG  2   5   1  11   1
M  END
>  <score>  (5) 
-5.92

$$$$
=
     RDKit          3D

 30 29  0  0  0  0  0  0  0  0999 V2000
    1.9270   68.7530   66.5380 C   0  0  0  0  0  0  0  0  0  0  0  0
    3.0620   68.9790   65.5390 C   0  0  0  0  0  0  0  0  0  0  0  0
    6.3700   70.4890   66.3060 N   0  0  0  0  0  0  0  0  0  0  0  0
    5.4050   69.9140   65.5840 C   0  0  0  0  0  0  0  0  0  0  0  0
    5.6420   69.6550   64.2960 N   0  0  0  0  0  4  0  0  0  0  0  0
    4.2340   69.6130   66.1680 N   0  0  0  0  0  0  0  0  0  0  0  0
    1.0050   67.5810   66.1770 C   0  0  0  0  0  0  0  0  0  0  0  0
   -0.4170   67.7070   66.7190 C   0  0  0  0  0  0  0  0  0  0  0  0
   -1.3140   68.3770   65.7600 N   0  0  0  0  0  0  0  0  0  0  0  0
   -2.6430   68.5460   65.8860 C   0  0  0  0  0  0  0  0  0  0  0  0
   -3.3190   68.0960   66.9460 N   0  0  0  0  0  4  0  0  0  0  0  0
   -3.3160   69.1850   64.9250 N   0  0  0  0  0  0  0  0  0  0  0  0
    2.3692   68.5543   67.5254 H   0  0  0  0  0  0  0  0  0  0  0  0
    1.3071   69.6617   66.5278 H   0  0  0  0  0  0  0  0  0  0  0  0
    3.3655   68.0079   65.1208 H   0  0  0  0  0  0  0  0  0  0  0  0
    2.6926   69.6534   64.7525 H   0  0  0  0  0  0  0  0  0  0  0  0
    6.2122   70.6992   67.3019 H   0  0  0  0  0  0  0  0  0  0  0  0
    7.2721   70.7223   65.8670 H   0  0  0  0  0  0  0  0  0  0  0  0
    4.9141   69.2120   63.7174 H   0  0  0  0  0  0  0  0  0  0  0  0
    6.5527   69.8982   63.8809 H   0  0  0  0  0  0  0  0  0  0  0  0
    4.1452   69.8517   67.1660 H   0  0  0  0  0  0  0  0  0  0  0  0
    0.9504   67.5113   65.0806 H   0  0  0  0  0  0  0  0  0  0  0  0
    1.4401   66.6843   66.6425 H   0  0  0  0  0  0  0  0  0  0  0  0
   -0.8082   66.7004   66.9282 H   0  0  0  0  0  0  0  0  0  0  0  0
   -0.3801   68.3165   67.6340 H   0  0  0  0  0  0  0  0  0  0  0  0
   -0.8789   68.7544   64.9061 H   0  0  0  0  0  0  0  0  0  0  0  0
   -4.3364   68.2436   67.0086 H   0  0  0  0  0  0  0  0  0  0  0  0
   -2.8230   67.6013   67.7011 H   0  0  0  0  0  0  0  0  0  0  0  0
   -4.3335   69.3199   65.0113 H   0  0  0  0  0  0  0  0  0  0  0  0
   -2.8174   69.5428   64.0978 H   0  0  0  0  0  0  0  0  0  0  0  0
  2  1  1  0
  4  3  1  0
  5  4  2  3
  6  4  1  0
  6  2  1  0
  7  1  1  0
  8  7  1  0
  9  8  1  0
 10  9  1  0
 11 10  2  3
 12 10  1  0
  1 13  1  0
  1 14  1  0
  2 15  1  0
  2 16  1  0
  3 17  1  0
  3 18  1  0
  5 19  1  0
  5 20  1  0
  6 21  1  0
  7 22  1  0
  7 23  1  0
  8 24  1  0
  8 25  1  0
  9 26  1  0
 11 27  1  0
 11 28  1  0
 12 29  1  0
 12 30  1  0
M  CHG  2   5   1  11   1
M  END
>  <score>  (6) 
-5.919

$$$$
=
     RDKit          3D

 30 29  0  0  0  0  0  0  0  0999 V2000
    1.1200   68.2330   64.0670 C   0  0  0  0  0  0  0  0  0  0  0  0
    0.2860   68.5570   65.3060 C   0  0  0  0  0  0  0  0  0  0  0  0
   -3.3840   69.1450   65.3120 N   0  0  0  0  0  0  0  0  0  0  0  0
   -2.1740   68.8410   65.7900 C   0  0  0  0  0  0  0  0  0  0  0  0
   -2.0620   68.5210   67.0800 N   0  0  0  0  0  4  0  0  0  0  0  0
   -1.1160   68.8620   64.9650 N   0  0  0  0  0  0  0  0  0  0  0  0
    2.5730   68.7220   64.1500 C   0  0  0  0  0  0  0  0  0  0  0  0
    3.0510   69.0360   65.5650 C   0  0  0  0  0  0  0  0  0  0  0  0
    4.5040   69.2810   65.6140 N   0  0  0  0  0  0  0  0  0  0  0  0
    5.1960   69.8100   66.6390 C   0  0  0  0  0  0  0  0  0  0  0  0
    4.6050   70.1910   67.7740 N   0  0  0  0  0  4  0  0  0  0  0  0
    6.5190   69.9620   66.5280 N   0  0  0  0  0  0  0  0  0  0  0  0
    1.1291   67.1414   63.9313 H   0  0  0  0  0  0  0  0  0  0  0  0
    0.6536   68.7597   63.2214 H   0  0  0  0  0  0  0  0  0  0  0  0
    0.3061   67.6909   65.9839 H   0  0  0  0  0  0  0  0  0  0  0  0
    0.7204   69.4473   65.7842 H   0  0  0  0  0  0  0  0  0  0  0  0
   -3.4976   69.3956   64.3194 H   0  0  0  0  0  0  0  0  0  0  0  0
   -4.2033   69.1288   65.9361 H   0  0  0  0  0  0  0  0  0  0  0  0
   -1.1404   68.2826   67.4733 H   0  0  0  0  0  0  0  0  0  0  0  0
   -2.8971   68.5123   67.6828 H   0  0  0  0  0  0  0  0  0  0  0  0
   -1.3037   69.1195   63.9855 H   0  0  0  0  0  0  0  0  0  0  0  0
    3.2239   67.9398   63.7323 H   0  0  0  0  0  0  0  0  0  0  0  0
    2.6204   69.6649   63.5854 H   0  0  0  0  0  0  0  0  0  0  0  0
    2.5269   69.9331   65.9263 H   0  0  0  0  0  0  0  0  0  0  0  0
    2.8311   68.1649   66.1997 H   0  0  0  0  0  0  0  0  0  0  0  0
    5.0449   69.0202   64.7772 H   0  0  0  0  0  0  0  0  0  0  0  0
    5.1674   70.5923   68.5379 H   0  0  0  0  0  0  0  0  0  0  0  0
    3.5867   70.0836   67.8856 H   0  0  0  0  0  0  0  0  0  0  0  0
    7.0581   70.3661   67.3071 H   0  0  0  0  0  0  0  0  0  0  0  0
    6.9996   69.6751   65.6634 H   0  0  0  0  0  0  0  0  0  0  0  0
  2  1  1  0
  4  3  1  0
  5  4  2  3
  6  4  1  0
  6  2  1  0
  7  1  1  0
  8  7  1  0
  9  8  1  0
 10  9  1  0
 11 10  2  3
 12 10  1  0
  1 13  1  0
  1 14  1  0
  2 15  1  0
  2 16  1  0
  3 17  1  0
  3 18  1  0
  5 19  1  0
  5 20  1  0
  6 21  1  0
  7 22  1  0
  7 23  1  0
  8 24  1  0
  8 25  1  0
  9 26  1  0
 11 27  1  0
 11 28  1  0
 12 29  1  0
 12 30  1  0
M  CHG  2   5   1  11   1
M  END
>  <score>  (7) 
-5.853

$$$$
=
     RDKit          3D

 30 29  0  0  0  0  0  0  0  0999 V2000
    1.4570   68.1570   68.0540 C   0  0  0  0  0  0  0  0  0  0  0  0
   -0.0020   67.9880   67.6330 C   0  0  0  0  0  0  0  0  0  0  0  0
   -1.2010   68.8750   64.2280 N   0  0  0  0  0  0  0  0  0  0  0  0
   -1.1900   68.8060   65.5620 C   0  0  0  0  0  0  0  0  0  0  0  0
   -2.1910   69.3760   66.2370 N   0  0  0  0  0  4  0  0  0  0  0  0
   -0.1840   68.1690   66.1810 N   0  0  0  0  0  0  0  0  0  0  0  0
    2.0870   69.4810   67.5970 C   0  0  0  0  0  0  0  0  0  0  0  0
    3.1680   69.3280   66.5310 C   0  0  0  0  0  0  0  0  0  0  0  0
    4.4870   69.7750   67.0170 N   0  0  0  0  0  0  0  0  0  0  0  0
    5.6100   69.9010   66.2890 C   0  0  0  0  0  0  0  0  0  0  0  0
    5.6480   69.6160   64.9850 N   0  0  0  0  0  4  0  0  0  0  0  0
    6.7300   70.3270   66.8800 N   0  0  0  0  0  0  0  0  0  0  0  0
    1.5085   68.1096   69.1518 H   0  0  0  0  0  0  0  0  0  0  0  0
    2.0249   67.3491   67.5694 H   0  0  0  0  0  0  0  0  0  0  0  0
   -0.3362   66.9771   67.9092 H   0  0  0  0  0  0  0  0  0  0  0  0
   -0.5949   68.7584   68.1477 H   0  0  0  0  0  0  0  0  0  0  0  0
   -0.4405   68.4434   63.6837 H   0  0  0  0  0  0  0  0  0  0  0  0
   -1.9700   69.3598   63.7437 H   0  0  0  0  0  0  0  0  0  0  0  0
   -2.2061   69.3370   67.2661 H   0  0  0  0  0  0  0  0  0  0  0  0
   -2.9481   69.8548   65.7286 H   0  0  0  0  0  0  0  0  0  0  0  0
    0.5417   67.7612   65.5744 H   0  0  0  0  0  0  0  0  0  0  0  0
    1.2893   70.1193   67.1893 H   0  0  0  0  0  0  0  0  0  0  0  0
    2.5757   69.9183   68.4802 H   0  0  0  0  0  0  0  0  0  0  0  0
    3.2356   68.2686   66.2426 H   0  0  0  0  0  0  0  0  0  0  0  0
    2.8906   69.9561   65.6716 H   0  0  0  0  0  0  0  0  0  0  0  0
    4.5545   70.0151   68.0163 H   0  0  0  0  0  0  0  0  0  0  0  0
    6.5272   69.7247   64.4595 H   0  0  0  0  0  0  0  0  0  0  0  0
    4.7981   69.2875   64.5047 H   0  0  0  0  0  0  0  0  0  0  0  0
    7.5959   70.4270   66.3312 H   0  0  0  0  0  0  0  0  0  0  0  0
    6.7275   70.5554   67.8844 H   0  0  0  0  0  0  0  0  0  0  0  0
  2  1  1  0
  4  3  1  0
  5  4  2  3
  6  4  1  0
  6  2  1  0
  7  1  1  0
  8  7  1  0
  9  8  1  0
 10  9  1  0
 11 10  2  3
 12 10  1  0
  1 13  1  0
  1 14  1  0
  2 15  1  0
  2 16  1  0
  3 17  1  0
  3 18  1  0
  5 19  1  0
  5 20  1  0
  6 21  1  0
  7 22  1  0
  7 23  1  0
  8 24  1  0
  8 25  1  0
  9 26  1  0
 11 27  1  0
 11 28  1  0
 12 29  1  0
 12 30  1  0
M  CHG  2   5   1  11   1
M  END
>  <score>  (8) 
-5.848

$$$$
=
     RDKit          3D

 30 29  0  0  0  0  0  0  0  0999 V2000
    1.3330   68.1390   65.1350 C   0  0  0  0  0  0  0  0  0  0  0  0
    0.1590   68.5270   66.0350 C   0  0  0  0  0  0  0  0  0  0  0  0
   -3.3160   69.1050   64.8510 N   0  0  0  0  0  0  0  0  0  0  0  0
   -2.3260   68.8030   65.6950 C   0  0  0  0  0  0  0  0  0  0  0  0
   -2.6370   68.4820   66.9520 N   0  0  0  0  0  4  0  0  0  0  0  0
   -1.0570   68.8290   65.2580 N   0  0  0  0  0  0  0  0  0  0  0  0
    2.6320   68.8950   65.4480 C   0  0  0  0  0  0  0  0  0  0  0  0
    3.7790   68.5980   64.4870 C   0  0  0  0  0  0  0  0  0  0  0  0
    3.8620   67.1640   64.1540 N   0  0  0  0  0  0  0  0  0  0  0  0
    4.3880   66.6280   63.0380 C   0  0  0  0  0  0  0  0  0  0  0  0
    4.9110   67.3790   62.0670 N   0  0  0  0  0  4  0  0  0  0  0  0
    4.3920   65.3000   62.8890 N   0  0  0  0  0  0  0  0  0  0  0  0
    1.5211   67.0620   65.2559 H   0  0  0  0  0  0  0  0  0  0  0  0
    1.0485   68.4046   64.1062 H   0  0  0  0  0  0  0  0  0  0  0  0
   -0.0549   67.6925   66.7190 H   0  0  0  0  0  0  0  0  0  0  0  0
    0.4416   69.4340   66.5895 H   0  0  0  0  0  0  0  0  0  0  0  0
   -3.1023   69.3562   63.8752 H   0  0  0  0  0  0  0  0  0  0  0  0
   -4.2933   69.0867   65.1759 H   0  0  0  0  0  0  0  0  0  0  0  0
   -1.8918   68.2451   67.6224 H   0  0  0  0  0  0  0  0  0  0  0  0
   -3.6223   68.4711   67.2520 H   0  0  0  0  0  0  0  0  0  0  0  0
   -0.9175   69.0885   64.2711 H   0  0  0  0  0  0  0  0  0  0  0  0
    2.4206   69.9738   65.4090 H   0  0  0  0  0  0  0  0  0  0  0  0
    2.9598   68.5590   66.4428 H   0  0  0  0  0  0  0  0  0  0  0  0
    3.6231   69.1696   63.5602 H   0  0  0  0  0  0  0  0  0  0  0  0
    4.7190   68.8879   64.9793 H   0  0  0  0  0  0  0  0  0  0  0  0
    3.4780   66.5055   64.8467 H   0  0  0  0  0  0  0  0  0  0  0  0
    5.3049   66.9328   61.2264 H   0  0  0  0  0  0  0  0  0  0  0  0
    4.9208   68.4049   62.1581 H   0  0  0  0  0  0  0  0  0  0  0  0
    4.7921   64.8784   62.0387 H   0  0  0  0  0  0  0  0  0  0  0  0
    3.9950   64.6980   63.6245 H   0  0  0  0  0  0  0  0  0  0  0  0
  2  1  1  0
  4  3  1  0
  5  4  2  3
  6  4  1  0
  6  2  1  0
  7  1  1  0
  8  7  1  0
  9  8  1  0
 10  9  1  0
 11 10  2  3
 12 10  1  0
  1 13  1  0
  1 14  1  0
  2 15  1  0
  2 16  1  0
  3 17  1  0
  3 18  1  0
  5 19  1  0
  5 20  1  0
  6 21  1  0
  7 22  1  0
  7 23  1  0
  8 24  1  0
  8 25  1  0
  9 26  1  0
 11 27  1  0
 11 28  1  0
 12 29  1  0
 12 30  1  0
M  CHG  2   5   1  11   1
M  END
>  <score>  (9) 
-5.73

$$$$
