=
     RDKit          3D

 32 34  0  0  0  0  0  0  0  0999 V2000
    5.7260   69.6900   65.5510 C   0  0  0  0  0  0  0  0  0  0  0  0
    6.0170   69.5420   64.1970 C   0  0  0  0  0  0  0  0  0  0  0  0
    5.0090   69.1610   63.3170 C   0  0  0  0  0  0  0  0  0  0  0  0
    3.7160   68.9310   63.7930 C   0  0  0  0  0  0  0  0  0  0  0  0
    3.4340   69.0800   65.1490 C   0  0  0  0  0  0  0  0  0  0  0  0
    4.4410   69.4610   66.0370 C   0  0  0  0  0  0  0  0  0  0  0  0
    2.1870   68.8660   65.6790 O   0  0  0  0  0  0  0  0  0  0  0  0
    1.1470   68.4980   64.8320 C   0  0  0  0  0  0  0  0  0  0  0  0
    1.2900   68.3180   63.5070 C   0  0  0  0  0  0  0  0  0  0  0  0
    2.6250   68.5290   62.9020 C   0  0  0  0  0  0  0  0  0  0  0  0
    2.7950   68.3700   61.6960 O   0  0  0  0  0  0  0  0  0  0  0  0
   -0.1340   68.3000   65.5470 C   0  0  0  0  0  0  0  0  0  0  0  0
   -0.1690   67.4900   66.6980 C   0  0  0  0  0  0  0  0  0  0  0  0
   -1.3560   67.3030   67.4110 C   0  0  0  0  0  0  0  0  0  0  0  0
   -2.5100   67.9310   66.9740 C   0  0  0  0  0  0  0  0  0  0  0  0
   -2.4960   68.7390   65.8420 C   0  0  0  0  0  0  0  0  0  0  0  0
   -1.3160   68.9350   65.1290 C   0  0  0  0  0  0  0  0  0  0  0  0
   -3.6720   69.3280   65.4660 O   0  0  0  0  0  0  0  0  0  0  0  0
   -3.6730   67.7490   67.6680 O   0  0  0  0  0  0  0  0  0  0  0  0
    6.7410   70.0650   66.3800 O   0  0  0  0  0  0  0  0  0  0  0  0
    5.3530   69.0320   61.9990 O   0  0  0  0  0  0  0  0  0  0  0  0
    0.2700   67.9290   62.6570 O   0  0  0  0  0  0  0  0  0  0  0  0
    7.0363   69.7250   63.8261 H   0  0  0  0  0  0  0  0  0  0  0  0
    4.2223   69.5791   67.1086 H   0  0  0  0  0  0  0  0  0  0  0  0
    0.7523   66.9967   67.0413 H   0  0  0  0  0  0  0  0  0  0  0  0
   -1.3734   66.6655   68.3073 H   0  0  0  0  0  0  0  0  0  0  0  0
   -1.3091   69.5848   64.2414 H   0  0  0  0  0  0  0  0  0  0  0  0
   -3.7005   69.9098   64.6655 H   0  0  0  0  0  0  0  0  0  0  0  0
   -4.5046   68.1927   67.3654 H   0  0  0  0  0  0  0  0  0  0  0  0
    6.5721   70.1802   67.3486 H   0  0  0  0  0  0  0  0  0  0  0  0
    4.6712   68.7630   61.3335 H   0  0  0  0  0  0  0  0  0  0  0  0
    0.4479   67.8157   61.6897 H   0  0  0  0  0  0  0  0  0  0  0  0
  2  1  2  0
  3  2  1  0
  4  3  2  0
  5  4  1  0
  6  5  2  0
  6  1  1  0
  7  5  1  0
  8  7  1  0
  9  8  2  0
 10  9  1  0
 10  4  1  0
 11 10  2  0
 12  8  1  0
 13 12  2  0
 14 13  1  0
 15 14  2  0
 16 15  1  0
 17 16  2  0
 17 12  1  0
 18 16  1  0
 19 15  1  0
 20  1  1  0
 21  3  1  0
 22  9  1  0
  2 23  1  0
  6 24  1  0
 13 25  1  0
 14 26  1  0
 17 27  1  0
 18 28  1  0
 19 29  1  0
 20 30  1  0
 21 31  1  0
 22 32  1  0
M  END
>  <score>  (1) 
-9.969

$$$$
=
     RDKit          3D

 32 34  0  0  0  0  0  0  0  0999 V2000
   -0.1400   66.5600   69.0000 C   0  0  0  0  0  0  0  0  0  0  0  0
   -1.4740   66.8920   68.7770 C   0  0  0  0  0  0  0  0  0  0  0  0
   -1.8300   67.5500   67.6030 C   0  0  0  0  0  0  0  0  0  0  0  0
   -0.8520   67.8720   66.6590 C   0  0  0  0  0  0  0  0  0  0  0  0
    0.4790   67.5380   66.8910 C   0  0  0  0  0  0  0  0  0  0  0  0
    0.8430   66.8780   68.0660 C   0  0  0  0  0  0  0  0  0  0  0  0
    1.4860   67.8270   66.0050 O   0  0  0  0  0  0  0  0  0  0  0  0
    1.1720   68.4710   64.8140 C   0  0  0  0  0  0  0  0  0  0  0  0
   -0.0730   68.8510   64.4730 C   0  0  0  0  0  0  0  0  0  0  0  0
   -1.1830   68.5630   65.4110 C   0  0  0  0  0  0  0  0  0  0  0  0
   -2.3320   68.8990   65.1370 O   0  0  0  0  0  0  0  0  0  0  0  0
    2.3580   68.7200   63.9640 C   0  0  0  0  0  0  0  0  0  0  0  0
    3.5780   69.0870   64.5650 C   0  0  0  0  0  0  0  0  0  0  0  0
    4.7230   69.3040   63.7950 C   0  0  0  0  0  0  0  0  0  0  0  0
    4.6500   69.1500   62.4200 C   0  0  0  0  0  0  0  0  0  0  0  0
    3.4560   68.7840   61.8080 C   0  0  0  0  0  0  0  0  0  0  0  0
    2.3110   68.5610   62.5690 C   0  0  0  0  0  0  0  0  0  0  0  0
    3.4540   68.6510   60.4460 O   0  0  0  0  0  0  0  0  0  0  0  0
    5.7680   69.3620   61.6640 O   0  0  0  0  0  0  0  0  0  0  0  0
    0.1670   65.9150   70.1600 O   0  0  0  0  0  0  0  0  0  0  0  0
   -3.1550   67.8510   67.4390 O   0  0  0  0  0  0  0  0  0  0  0  0
   -0.3960   69.5130   63.3030 O   0  0  0  0  0  0  0  0  0  0  0  0
   -2.2408   66.6362   69.5231 H   0  0  0  0  0  0  0  0  0  0  0  0
    1.8941   66.6122   68.2521 H   0  0  0  0  0  0  0  0  0  0  0  0
    3.6298   69.2045   65.6575 H   0  0  0  0  0  0  0  0  0  0  0  0
    5.6701   69.5933   64.2739 H   0  0  0  0  0  0  0  0  0  0  0  0
    1.3728   68.2613   62.0792 H   0  0  0  0  0  0  0  0  0  0  0  0
    2.6226   68.3918   59.9752 H   0  0  0  0  0  0  0  0  0  0  0  0
    5.7282   69.2550   60.6806 H   0  0  0  0  0  0  0  0  0  0  0  0
    1.1047   65.6630   70.3530 H   0  0  0  0  0  0  0  0  0  0  0  0
   -3.4588   68.3186   66.6210 H   0  0  0  0  0  0  0  0  0  0  0  0
   -1.3363   69.7619   63.1185 H   0  0  0  0  0  0  0  0  0  0  0  0
  2  1  2  0
  3  2  1  0
  4  3  2  0
  5  4  1  0
  6  5  2  0
  6  1  1  0
  7  5  1  0
  8  7  1  0
  9  8  2  0
 10  9  1  0
 10  4  1  0
 11 10  2  0
 12  8  1  0
 13 12  2  0
 14 13  1  0
 15 14  2  0
 16 15  1  0
 17 16  2  0
 17 12  1  0
 18 16  1  0
 19 15  1  0
 20  1  1  0
 21  3  1  0
 22  9  1  0
  2 23  1  0
  6 24  1  0
 13 25  1  0
 14 26  1  0
 17 27  1  0
 18 28  1  0
 19 29  1  0
 20 30  1  0
 21 31  1  0
 22 32  1  0
M  END
>  <score>  (2) 
-9.351

$$$$
=
     RDKit          3D

 32 34  0  0  0  0  0  0  0  0999 V2000
   -2.4920   68.8150   64.9560 C   0  0  0  0  0  0  0  0  0  0  0  0
   -3.0900   68.0540   65.9590 C   0  0  0  0  0  0  0  0  0  0  0  0
   -2.3380   67.6650   67.0640 C   0  0  0  0  0  0  0  0  0  0  0  0
   -0.9950   68.0390   67.1620 C   0  0  0  0  0  0  0  0  0  0  0  0
   -0.4060   68.7980   66.1540 C   0  0  0  0  0  0  0  0  0  0  0  0
   -1.1540   69.1910   65.0430 C   0  0  0  0  0  0  0  0  0  0  0  0
    0.9070   69.1950   66.1900 O   0  0  0  0  0  0  0  0  0  0  0  0
    1.6890   68.8400   67.2830 C   0  0  0  0  0  0  0  0  0  0  0  0
    1.2410   68.1060   68.3180 C   0  0  0  0  0  0  0  0  0  0  0  0
   -0.1690   67.6520   68.3070 C   0  0  0  0  0  0  0  0  0  0  0  0
   -0.6120   66.9760   69.2320 O   0  0  0  0  0  0  0  0  0  0  0  0
    3.0800   69.3340   67.1790 C   0  0  0  0  0  0  0  0  0  0  0  0
    3.6590   70.0150   68.2680 C   0  0  0  0  0  0  0  0  0  0  0  0
    4.9780   70.4710   68.2130 C   0  0  0  0  0  0  0  0  0  0  0  0
    5.7230   70.2430   67.0680 C   0  0  0  0  0  0  0  0  0  0  0  0
    5.1720   69.5680   65.9830 C   0  0  0  0  0  0  0  0  0  0  0  0
    3.8590   69.1050   66.0320 C   0  0  0  0  0  0  0  0  0  0  0  0
    5.9630   69.3780   64.8830 O   0  0  0  0  0  0  0  0  0  0  0  0
    7.0120   70.6880   67.0100 O   0  0  0  0  0  0  0  0  0  0  0  0
   -3.2630   69.1760   63.8920 O   0  0  0  0  0  0  0  0  0  0  0  0
   -2.9770   66.9190   68.0160 O   0  0  0  0  0  0  0  0  0  0  0  0
    2.0140   67.7260   69.3990 O   0  0  0  0  0  0  0  0  0  0  0  0
   -4.1477   67.7631   65.8780 H   0  0  0  0  0  0  0  0  0  0  0  0
   -0.6918   69.7909   64.2452 H   0  0  0  0  0  0  0  0  0  0  0  0
    3.0629   70.1903   69.1757 H   0  0  0  0  0  0  0  0  0  0  0  0
    5.4193   71.0042   69.0679 H   0  0  0  0  0  0  0  0  0  0  0  0
    3.4333   68.5618   65.1754 H   0  0  0  0  0  0  0  0  0  0  0  0
    5.6051   68.9020   64.0922 H   0  0  0  0  0  0  0  0  0  0  0  0
    7.5539   70.5306   66.1965 H   0  0  0  0  0  0  0  0  0  0  0  0
   -2.8739   69.7166   63.1595 H   0  0  0  0  0  0  0  0  0  0  0  0
   -2.4857   66.6176   68.8209 H   0  0  0  0  0  0  0  0  0  0  0  0
    1.6162   67.1845   70.1260 H   0  0  0  0  0  0  0  0  0  0  0  0
  2  1  2  0
  3  2  1  0
  4  3  2  0
  5  4  1  0
  6  5  2  0
  6  1  1  0
  7  5  1  0
  8  7  1  0
  9  8  2  0
 10  9  1  0
 10  4  1  0
 11 10  2  0
 12  8  1  0
 13 12  2  0
 14 13  1  0
 15 14  2  0
 16 15  1  0
 17 16  2  0
 17 12  1  0
 18 16  1  0
 19 15  1  0
 20  1  1  0
 21  3  1  0
 22  9  1  0
  2 23  1  0
  6 24  1  0
 13 25  1  0
 14 26  1  0
 17 27  1  0
 18 28  1  0
 19 29  1  0
 20 30  1  0
 21 31  1  0
 22 32  1  0
M  END
>  <score>  (3) 
-8.746

$$$$
=
     RDKit          3D

 32 34  0  0  0  0  0  0  0  0999 V2000
    6.6620   71.0070   68.7230 C   0  0  0  0  0  0  0  0  0  0  0  0
    5.6330   71.0000   69.6620 C   0  0  0  0  0  0  0  0  0  0  0  0
    4.3690   70.5480   69.2910 C   0  0  0  0  0  0  0  0  0  0  0  0
    4.1420   70.1050   67.9850 C   0  0  0  0  0  0  0  0  0  0  0  0
    5.1760   70.1160   67.0530 C   0  0  0  0  0  0  0  0  0  0  0  0
    6.4460   70.5680   67.4190 C   0  0  0  0  0  0  0  0  0  0  0  0
    5.0170   69.6970   65.7570 O   0  0  0  0  0  0  0  0  0  0  0  0
    3.7750   69.2240   65.3490 C   0  0  0  0  0  0  0  0  0  0  0  0
    2.6960   69.1650   66.1500 C   0  0  0  0  0  0  0  0  0  0  0  0
    2.8290   69.6210   67.5530 C   0  0  0  0  0  0  0  0  0  0  0  0
    1.8650   69.5870   68.3130 O   0  0  0  0  0  0  0  0  0  0  0  0
    3.7550   68.8120   63.9270 C   0  0  0  0  0  0  0  0  0  0  0  0
    4.7930   68.0040   63.4240 C   0  0  0  0  0  0  0  0  0  0  0  0
    4.7910   67.5760   62.0930 C   0  0  0  0  0  0  0  0  0  0  0  0
    3.7470   67.9540   61.2650 C   0  0  0  0  0  0  0  0  0  0  0  0
    2.7100   68.7480   61.7450 C   0  0  0  0  0  0  0  0  0  0  0  0
    2.7020   69.1740   63.0700 C   0  0  0  0  0  0  0  0  0  0  0  0
    1.7110   69.0850   60.8720 O   0  0  0  0  0  0  0  0  0  0  0  0
    3.7430   67.5380   59.9640 O   0  0  0  0  0  0  0  0  0  0  0  0
    7.8840   71.4560   69.1260 O   0  0  0  0  0  0  0  0  0  0  0  0
    3.3980   70.5640   70.2540 O   0  0  0  0  0  0  0  0  0  0  0  0
    1.4490   68.7200   65.7500 O   0  0  0  0  0  0  0  0  0  0  0  0
    5.8174   71.3489   70.6888 H   0  0  0  0  0  0  0  0  0  0  0  0
    7.2660   70.5771   66.6858 H   0  0  0  0  0  0  0  0  0  0  0  0
    5.6175   67.7052   64.0881 H   0  0  0  0  0  0  0  0  0  0  0  0
    5.6077   66.9474   61.7085 H   0  0  0  0  0  0  0  0  0  0  0  0
    1.8734   69.7925   63.4453 H   0  0  0  0  0  0  0  0  0  0  0  0
    0.9564   69.6486   61.1770 H   0  0  0  0  0  0  0  0  0  0  0  0
    3.0023   67.8016   59.3623 H   0  0  0  0  0  0  0  0  0  0  0  0
    8.6396   71.4757   68.4867 H   0  0  0  0  0  0  0  0  0  0  0  0
    2.4830   70.2526   70.0396 H   0  0  0  0  0  0  0  0  0  0  0  0
    0.6986   68.7041   66.3955 H   0  0  0  0  0  0  0  0  0  0  0  0
  2  1  2  0
  3  2  1  0
  4  3  2  0
  5  4  1  0
  6  5  2  0
  6  1  1  0
  7  5  1  0
  8  7  1  0
  9  8  2  0
 10  9  1  0
 10  4  1  0
 11 10  2  0
 12  8  1  0
 13 12  2  0
 14 13  1  0
 15 14  2  0
 16 15  1  0
 17 16  2  0
 17 12  1  0
 18 16  1  0
 19 15  1  0
 20  1  1  0
 21  3  1  0
 22  9  1  0
  2 23  1  0
  6 24  1  0
 13 25  1  0
 14 26  1  0
 17 27  1  0
 18 28  1  0
 19 29  1  0
 20 30  1  0
 21 31  1  0
 22 32  1  0
M  END
>  <score>  (4) 
-8.57

$$$$
=
     RDKit          3D

 32 34  0  0  0  0  0  0  0  0999 V2000
    2.9050   68.8070   61.2830 C   0  0  0  0  0  0  0  0  0  0  0  0
    1.5770   68.4300   61.4710 C   0  0  0  0  0  0  0  0  0  0  0  0
    1.0500   68.3970   62.7590 C   0  0  0  0  0  0  0  0  0  0  0  0
    1.8510   68.7410   63.8510 C   0  0  0  0  0  0  0  0  0  0  0  0
    3.1780   69.1160   63.6530 C   0  0  0  0  0  0  0  0  0  0  0  0
    3.7130   69.1510   62.3640 C   0  0  0  0  0  0  0  0  0  0  0  0
    4.0160   69.4630   64.6830 O   0  0  0  0  0  0  0  0  0  0  0  0
    3.5250   69.4570   65.9830 C   0  0  0  0  0  0  0  0  0  0  0  0
    2.2660   69.1110   66.3070 C   0  0  0  0  0  0  0  0  0  0  0  0
    1.3370   68.7200   65.2220 C   0  0  0  0  0  0  0  0  0  0  0  0
    0.1810   68.3940   65.4800 O   0  0  0  0  0  0  0  0  0  0  0  0
    4.5440   69.8480   66.9840 C   0  0  0  0  0  0  0  0  0  0  0  0
    5.8890   69.9870   66.5880 C   0  0  0  0  0  0  0  0  0  0  0  0
    6.8700   70.3800   67.5010 C   0  0  0  0  0  0  0  0  0  0  0  0
    6.5060   70.6400   68.8120 C   0  0  0  0  0  0  0  0  0  0  0  0
    5.1830   70.5130   69.2220 C   0  0  0  0  0  0  0  0  0  0  0  0
    4.1980   70.1260   68.3170 C   0  0  0  0  0  0  0  0  0  0  0  0
    4.8940   70.7830   70.5320 O   0  0  0  0  0  0  0  0  0  0  0  0
    7.4640   71.0230   69.7070 O   0  0  0  0  0  0  0  0  0  0  0  0
    3.3820   68.8280   60.0070 O   0  0  0  0  0  0  0  0  0  0  0  0
   -0.2590   68.0190   62.8840 O   0  0  0  0  0  0  0  0  0  0  0  0
    1.7730   69.0780   67.5990 O   0  0  0  0  0  0  0  0  0  0  0  0
    0.9498   68.1605   60.6084 H   0  0  0  0  0  0  0  0  0  0  0  0
    4.7603   69.4468   62.2040 H   0  0  0  0  0  0  0  0  0  0  0  0
    6.1705   69.7830   65.5444 H   0  0  0  0  0  0  0  0  0  0  0  0
    7.9182   70.4818   67.1832 H   0  0  0  0  0  0  0  0  0  0  0  0
    3.1517   70.0382   68.6449 H   0  0  0  0  0  0  0  0  0  0  0  0
    3.9634   70.7034   70.8602 H   0  0  0  0  0  0  0  0  0  0  0  0
    7.2163   71.2116   70.6468 H   0  0  0  0  0  0  0  0  0  0  0  0
    4.3207   69.0906   59.8337 H   0  0  0  0  0  0  0  0  0  0  0  0
   -0.6796   67.9799   63.7794 H   0  0  0  0  0  0  0  0  0  0  0  0
    0.8334   68.8130   67.7637 H   0  0  0  0  0  0  0  0  0  0  0  0
  2  1  2  0
  3  2  1  0
  4  3  2  0
  5  4  1  0
  6  5  2  0
  6  1  1  0
  7  5  1  0
  8  7  1  0
  9  8  2  0
 10  9  1  0
 10  4  1  0
 11 10  2  0
 12  8  1  0
 13 12  2  0
 14 13  1  0
 15 14  2  0
 16 15  1  0
 17 16  2  0
 17 12  1  0
 18 16  1  0
 19 15  1  0
 20  1  1  0
 21  3  1  0
 22  9  1  0
  2 23  1  0
  6 24  1  0
 13 25  1  0
 14 26  1  0
 17 27  1  0
 18 28  1  0
 19 29  1  0
 20 30  1  0
 21 31  1  0
 22 32  1  0
M  END
>  <score>  (5) 
-8.467

$$$$
=
     RDKit          3D

 32 34  0  0  0  0  0  0  0  0999 V2000
    3.8380   61.7550   70.9130 C   0  0  0  0  0  0  0  0  0  0  0  0
    3.4240   61.5690   72.2300 C   0  0  0  0  0  0  0  0  0  0  0  0
    2.4300   62.3880   72.7580 C   0  0  0  0  0  0  0  0  0  0  0  0
    1.8560   63.3870   71.9670 C   0  0  0  0  0  0  0  0  0  0  0  0
    2.2770   63.5660   70.6520 C   0  0  0  0  0  0  0  0  0  0  0  0
    3.2740   62.7480   70.1170 C   0  0  0  0  0  0  0  0  0  0  0  0
    1.7550   64.5300   69.8260 O   0  0  0  0  0  0  0  0  0  0  0  0
    0.7510   65.3600   70.3100 C   0  0  0  0  0  0  0  0  0  0  0  0
    0.2590   65.2920   71.5600 C   0  0  0  0  0  0  0  0  0  0  0  0
    0.8080   64.2710   72.4820 C   0  0  0  0  0  0  0  0  0  0  0  0
    0.3880   64.1820   73.6330 O   0  0  0  0  0  0  0  0  0  0  0  0
    0.2910   66.3490   69.3090 C   0  0  0  0  0  0  0  0  0  0  0  0
    1.1630   67.3770   68.8970 C   0  0  0  0  0  0  0  0  0  0  0  0
    0.7700   68.3110   67.9350 C   0  0  0  0  0  0  0  0  0  0  0  0
   -0.4960   68.2160   67.3800 C   0  0  0  0  0  0  0  0  0  0  0  0
   -1.3690   67.2060   67.7700 C   0  0  0  0  0  0  0  0  0  0  0  0
   -0.9840   66.2680   68.7240 C   0  0  0  0  0  0  0  0  0  0  0  0
   -2.6040   67.1710   67.1820 O   0  0  0  0  0  0  0  0  0  0  0  0
   -0.8830   69.1280   66.4410 O   0  0  0  0  0  0  0  0  0  0  0  0
    4.8120   60.9310   70.4330 O   0  0  0  0  0  0  0  0  0  0  0  0
    2.0640   62.1600   74.0560 O   0  0  0  0  0  0  0  0  0  0  0  0
   -0.7230   66.1270   72.0610 O   0  0  0  0  0  0  0  0  0  0  0  0
    3.8791   60.7810   72.8480 H   0  0  0  0  0  0  0  0  0  0  0  0
    3.6099   62.8866   69.0787 H   0  0  0  0  0  0  0  0  0  0  0  0
    2.1678   67.4449   69.3394 H   0  0  0  0  0  0  0  0  0  0  0  0
    1.4568   69.1114   67.6223 H   0  0  0  0  0  0  0  0  0  0  0  0
   -1.6761   65.4656   69.0190 H   0  0  0  0  0  0  0  0  0  0  0  0
   -3.2525   66.4667   67.4341 H   0  0  0  0  0  0  0  0  0  0  0  0
   -1.7851   69.0704   66.0373 H   0  0  0  0  0  0  0  0  0  0  0  0
    5.1320   61.0329   69.5017 H   0  0  0  0  0  0  0  0  0  0  0  0
    1.3614   62.7159   74.4771 H   0  0  0  0  0  0  0  0  0  0  0  0
   -1.0370   66.0180   72.9935 H   0  0  0  0  0  0  0  0  0  0  0  0
  2  1  2  0
  3  2  1  0
  4  3  2  0
  5  4  1  0
  6  5  2  0
  6  1  1  0
  7  5  1  0
  8  7  1  0
  9  8  2  0
 10  9  1  0
 10  4  1  0
 11 10  2  0
 12  8  1  0
 13 12  2  0
 14 13  1  0
 15 14  2  0
 16 15  1  0
 17 16  2  0
 17 12  1  0
 18 16  1  0
 19 15  1  0
 20  1  1  0
 21  3  1  0
 22  9  1  0
  2 23  1  0
  6 24  1  0
 13 25  1  0
 14 26  1  0
 17 27  1  0
 18 28  1  0
 19 29  1  0
 20 30  1  0
 21 31  1  0
 22 32  1  0
M  END
>  <score>  (6) 
-8.12

$$$$
=
     RDKit          3D

 32 34  0  0  0  0  0  0  0  0999 V2000
    1.0020   68.7500   62.7400 C   0  0  0  0  0  0  0  0  0  0  0  0
   -0.2210   68.4350   63.3270 C   0  0  0  0  0  0  0  0  0  0  0  0
   -0.3480   68.4810   64.7130 C   0  0  0  0  0  0  0  0  0  0  0  0
    0.7470   68.8430   65.5020 C   0  0  0  0  0  0  0  0  0  0  0  0
    1.9660   69.1540   64.9060 C   0  0  0  0  0  0  0  0  0  0  0  0
    2.1000   69.1100   63.5170 C   0  0  0  0  0  0  0  0  0  0  0  0
    3.0780   69.5140   65.6250 O   0  0  0  0  0  0  0  0  0  0  0  0
    2.9900   69.5870   67.0110 C   0  0  0  0  0  0  0  0  0  0  0  0
    1.8730   69.3080   67.7060 C   0  0  0  0  0  0  0  0  0  0  0  0
    0.6570   68.9050   66.9630 C   0  0  0  0  0  0  0  0  0  0  0  0
   -0.3800   68.6370   67.5640 O   0  0  0  0  0  0  0  0  0  0  0  0
    4.2670   69.9820   67.6480 C   0  0  0  0  0  0  0  0  0  0  0  0
    4.2660   70.4390   68.9800 C   0  0  0  0  0  0  0  0  0  0  0  0
    5.4560   70.7960   69.6190 C   0  0  0  0  0  0  0  0  0  0  0  0
    6.6510   70.6910   68.9260 C   0  0  0  0  0  0  0  0  0  0  0  0
    6.6730   70.2380   67.6120 C   0  0  0  0  0  0  0  0  0  0  0  0
    5.4920   69.8760   66.9690 C   0  0  0  0  0  0  0  0  0  0  0  0
    7.8880   70.1610   66.9860 O   0  0  0  0  0  0  0  0  0  0  0  0
    7.8150   71.0400   69.5480 O   0  0  0  0  0  0  0  0  0  0  0  0
    1.0840   68.6930   61.3800 O   0  0  0  0  0  0  0  0  0  0  0  0
   -1.5720   68.1620   65.2340 O   0  0  0  0  0  0  0  0  0  0  0  0
    1.7790   69.3530   69.0850 O   0  0  0  0  0  0  0  0  0  0  0  0
   -1.0799   68.1521   62.7007 H   0  0  0  0  0  0  0  0  0  0  0  0
    3.0611   69.3567   63.0423 H   0  0  0  0  0  0  0  0  0  0  0  0
    3.3139   70.5161   69.5256 H   0  0  0  0  0  0  0  0  0  0  0  0
    5.4443   71.1557   70.6585 H   0  0  0  0  0  0  0  0  0  0  0  0
    5.5184   69.5082   65.9326 H   0  0  0  0  0  0  0  0  0  0  0  0
    7.9434   69.8429   66.0501 H   0  0  0  0  0  0  0  0  0  0  0  0
    8.6755   70.9695   69.0636 H   0  0  0  0  0  0  0  0  0  0  0  0
    1.9366   68.9099   60.9260 H   0  0  0  0  0  0  0  0  0  0  0  0
   -1.7129   68.1799   66.2138 H   0  0  0  0  0  0  0  0  0  0  0  0
    0.9222   69.1344   69.5301 H   0  0  0  0  0  0  0  0  0  0  0  0
  2  1  2  0
  3  2  1  0
  4  3  2  0
  5  4  1  0
  6  5  2  0
  6  1  1  0
  7  5  1  0
  8  7  1  0
  9  8  2  0
 10  9  1  0
 10  4  1  0
 11 10  2  0
 12  8  1  0
 13 12  2  0
 14 13  1  0
 15 14  2  0
 16 15  1  0
 17 16  2  0
 17 12  1  0
 18 16  1  0
 19 15  1  0
 20  1  1  0
 21  3  1  0
 22  9  1  0
  2 23  1  0
  6 24  1  0
 13 25  1  0
 14 26  1  0
 17 27  1  0
 18 28  1  0
 19 29  1  0
 20 30  1  0
 21 31  1  0
 22 32  1  0
M  END
>  <score>  (7) 
-7.855

$$$$
=
     RDKit          3D

 32 34  0  0  0  0  0  0  0  0999 V2000
    1.7550   62.8250   71.8410 C   0  0  0  0  0  0  0  0  0  0  0  0
    2.6380   62.7990   70.7640 C   0  0  0  0  0  0  0  0  0  0  0  0
    3.1580   61.5830   70.3330 C   0  0  0  0  0  0  0  0  0  0  0  0
    2.7940   60.3990   70.9790 C   0  0  0  0  0  0  0  0  0  0  0  0
    1.9120   60.4340   72.0560 C   0  0  0  0  0  0  0  0  0  0  0  0
    1.3860   61.6510   72.4940 C   0  0  0  0  0  0  0  0  0  0  0  0
    1.5170   59.3080   72.7340 O   0  0  0  0  0  0  0  0  0  0  0  0
    2.0020   58.0710   72.3270 C   0  0  0  0  0  0  0  0  0  0  0  0
    2.8610   57.9020   71.3050 C   0  0  0  0  0  0  0  0  0  0  0  0
    3.3170   59.0980   70.5580 C   0  0  0  0  0  0  0  0  0  0  0  0
    4.1040   58.9840   69.6220 O   0  0  0  0  0  0  0  0  0  0  0  0
    1.4930   56.9530   73.1530 C   0  0  0  0  0  0  0  0  0  0  0  0
    0.1100   56.6850   73.1820 C   0  0  0  0  0  0  0  0  0  0  0  0
   -0.4010   55.6210   73.9310 C   0  0  0  0  0  0  0  0  0  0  0  0
    0.4730   54.8220   74.6490 C   0  0  0  0  0  0  0  0  0  0  0  0
    1.8420   55.0680   74.6300 C   0  0  0  0  0  0  0  0  0  0  0  0
    2.3600   56.1220   73.8820 C   0  0  0  0  0  0  0  0  0  0  0  0
    2.6470   54.2390   75.3640 O   0  0  0  0  0  0  0  0  0  0  0  0
   -0.0240   53.7820   75.3820 O   0  0  0  0  0  0  0  0  0  0  0  0
    1.2670   64.0360   72.2320 O   0  0  0  0  0  0  0  0  0  0  0  0
    4.0200   61.6190   69.2700 O   0  0  0  0  0  0  0  0  0  0  0  0
    3.3700   56.6800   70.9050 O   0  0  0  0  0  0  0  0  0  0  0  0
    2.9221   63.7335   70.2579 H   0  0  0  0  0  0  0  0  0  0  0  0
    0.6888   61.6824   73.3442 H   0  0  0  0  0  0  0  0  0  0  0  0
   -0.5777   57.3224   72.6068 H   0  0  0  0  0  0  0  0  0  0  0  0
   -1.4825   55.4212   73.9498 H   0  0  0  0  0  0  0  0  0  0  0  0
    3.4447   56.3035   73.8619 H   0  0  0  0  0  0  0  0  0  0  0  0
    3.6265   54.3826   75.3752 H   0  0  0  0  0  0  0  0  0  0  0  0
    0.5901   53.2033   75.8997 H   0  0  0  0  0  0  0  0  0  0  0  0
    0.6371   64.0934   72.9936 H   0  0  0  0  0  0  0  0  0  0  0  0
    4.4169   60.7798   68.9259 H   0  0  0  0  0  0  0  0  0  0  0  0
    3.9994   56.6316   70.1424 H   0  0  0  0  0  0  0  0  0  0  0  0
  2  1  2  0
  3  2  1  0
  4  3  2  0
  5  4  1  0
  6  5  2  0
  6  1  1  0
  7  5  1  0
  8  7  1  0
  9  8  2  0
 10  9  1  0
 10  4  1  0
 11 10  2  0
 12  8  1  0
 13 12  2  0
 14 13  1  0
 15 14  2  0
 16 15  1  0
 17 16  2  0
 17 12  1  0
 18 16  1  0
 19 15  1  0
 20  1  1  0
 21  3  1  0
 22  9  1  0
  2 23  1  0
  6 24  1  0
 13 25  1  0
 14 26  1  0
 17 27  1  0
 18 28  1  0
 19 29  1  0
 20 30  1  0
 21 31  1  0
 22 32  1  0
M  END
>  <score>  (8) 
-7.766

$$$$
=
     RDKit          3D

 32 34  0  0  0  0  0  0  0  0999 V2000
    0.3010   55.5630   74.1260 C   0  0  0  0  0  0  0  0  0  0  0  0
    1.4350   55.3470   74.9060 C   0  0  0  0  0  0  0  0  0  0  0  0
    2.4040   56.3420   74.9960 C   0  0  0  0  0  0  0  0  0  0  0  0
    2.2350   57.5460   74.3080 C   0  0  0  0  0  0  0  0  0  0  0  0
    1.0990   57.7520   73.5290 C   0  0  0  0  0  0  0  0  0  0  0  0
    0.1230   56.7590   73.4350 C   0  0  0  0  0  0  0  0  0  0  0  0
    0.8750   58.9100   72.8280 O   0  0  0  0  0  0  0  0  0  0  0  0
    1.8120   59.9350   72.9020 C   0  0  0  0  0  0  0  0  0  0  0  0
    2.9500   59.8590   73.6150 C   0  0  0  0  0  0  0  0  0  0  0  0
    3.2290   58.6190   74.3750 C   0  0  0  0  0  0  0  0  0  0  0  0
    4.2610   58.5110   75.0330 O   0  0  0  0  0  0  0  0  0  0  0  0
    1.4370   61.1160   72.0920 C   0  0  0  0  0  0  0  0  0  0  0  0
    0.2820   61.8500   72.4270 C   0  0  0  0  0  0  0  0  0  0  0  0
   -0.0850   62.9850   71.6990 C   0  0  0  0  0  0  0  0  0  0  0  0
    0.7050   63.3890   70.6360 C   0  0  0  0  0  0  0  0  0  0  0  0
    1.8520   62.6800   70.2920 C   0  0  0  0  0  0  0  0  0  0  0  0
    2.2280   61.5520   71.0160 C   0  0  0  0  0  0  0  0  0  0  0  0
    2.5860   63.1350   69.2300 O   0  0  0  0  0  0  0  0  0  0  0  0
    0.3480   64.4970   69.9230 O   0  0  0  0  0  0  0  0  0  0  0  0
   -0.6250   54.5650   74.0650 O   0  0  0  0  0  0  0  0  0  0  0  0
    3.4960   56.0750   75.7760 O   0  0  0  0  0  0  0  0  0  0  0  0
    3.9010   60.8610   73.6780 O   0  0  0  0  0  0  0  0  0  0  0  0
    1.5635   54.3976   75.4464 H   0  0  0  0  0  0  0  0  0  0  0  0
   -0.7764   56.9191   72.8223 H   0  0  0  0  0  0  0  0  0  0  0  0
   -0.3400   61.5249   73.2740 H   0  0  0  0  0  0  0  0  0  0  0  0
   -0.9898   63.5502   71.9670 H   0  0  0  0  0  0  0  0  0  0  0  0
    3.1424   61.0033   70.7462 H   0  0  0  0  0  0  0  0  0  0  0  0
    3.4083   62.6569   68.9555 H   0  0  0  0  0  0  0  0  0  0  0  0
    0.9047   64.7958   69.1609 H   0  0  0  0  0  0  0  0  0  0  0  0
   -1.4438   54.6820   73.5209 H   0  0  0  0  0  0  0  0  0  0  0  0
    4.2129   56.7509   75.8720 H   0  0  0  0  0  0  0  0  0  0  0  0
    4.7168   60.7355   74.2246 H   0  0  0  0  0  0  0  0  0  0  0  0
  2  1  2  0
  3  2  1  0
  4  3  2  0
  5  4  1  0
  6  5  2  0
  6  1  1  0
  7  5  1  0
  8  7  1  0
  9  8  2  0
 10  9  1  0
 10  4  1  0
 11 10  2  0
 12  8  1  0
 13 12  2  0
 14 13  1  0
 15 14  2  0
 16 15  1  0
 17 16  2  0
 17 12  1  0
 18 16  1  0
 19 15  1  0
 20  1  1  0
 21  3  1  0
 22  9  1  0
  2 23  1  0
  6 24  1  0
 13 25  1  0
 14 26  1  0
 17 27  1  0
 18 28  1  0
 19 29  1  0
 20 30  1  0
 21 31  1  0
 22 32  1  0
M  END
>  <score>  (9) 
-7.416

$$$$
