=
     RDKit          3D

 16 17  0  0  0  0  0  0  0  0999 V2000
    2.7430   70.0100   68.4480 N   0  0  0  0  0  0  0  0  0  0  0  0
    3.3690   70.5260   69.5140 N   0  0  0  0  0  0  0  0  0  0  0  0
    4.6490   70.6870   69.1960 N   0  0  0  0  0  0  0  0  0  0  0  0
    4.8180   70.2620   67.9060 C   0  0  0  0  0  0  0  0  0  0  0  0
    3.6040   69.8180   67.3990 C   0  0  0  0  0  0  0  0  0  0  0  0
    3.4540   69.3210   66.0990 C   0  0  0  0  0  0  0  0  0  0  0  0
    4.6050   69.2830   65.3040 C   0  0  0  0  0  0  0  0  0  0  0  0
    5.8390   69.7220   65.7920 C   0  0  0  0  0  0  0  0  0  0  0  0
    5.9630   70.2170   67.0980 C   0  0  0  0  0  0  0  0  0  0  0  0
    1.3680   69.7080   68.4330 N   0  0  0  0  0  0  0  0  0  0  0  0
    2.4798   68.9774   65.7211 H   0  0  0  0  0  0  0  0  0  0  0  0
    4.5373   68.9002   64.2750 H   0  0  0  0  0  0  0  0  0  0  0  0
    6.7255   69.6785   65.1422 H   0  0  0  0  0  0  0  0  0  0  0  0
    6.9354   70.5618   67.4796 H   0  0  0  0  0  0  0  0  0  0  0  0
    0.9369   69.3121   67.5855 H   0  0  0  0  0  0  0  0  0  0  0  0
    0.7931   69.8829   69.2696 H   0  0  0  0  0  0  0  0  0  0  0  0
  2  1  1  0
  3  2  2  0
  4  3  1  0
  5  4  2  0
  5  1  1  0
  6  5  1  0
  7  6  2  0
  8  7  1  0
  9  4  1  0
  9  8  2  0
 10  1  1  0
  6 11  1  0
  7 12  1  0
  8 13  1  0
  9 14  1  0
 10 15  1  0
 10 16  1  0
M  END
>  <score>  (1) 
-6.651

$$$$
=
     RDKit          3D

 16 17  0  0  0  0  0  0  0  0999 V2000
    5.4640   70.6230   68.9040 N   0  0  0  0  0  0  0  0  0  0  0  0
    4.4950   70.6590   69.8280 N   0  0  0  0  0  0  0  0  0  0  0  0
    3.3740   70.2310   69.2590 N   0  0  0  0  0  0  0  0  0  0  0  0
    3.6560   69.9240   67.9550 C   0  0  0  0  0  0  0  0  0  0  0  0
    4.9990   70.1680   67.6990 C   0  0  0  0  0  0  0  0  0  0  0  0
    5.5910   69.9490   66.4490 C   0  0  0  0  0  0  0  0  0  0  0  0
    4.7590   69.4630   65.4350 C   0  0  0  0  0  0  0  0  0  0  0  0
    3.4040   69.2100   65.6680 C   0  0  0  0  0  0  0  0  0  0  0  0
    2.8340   69.4360   66.9290 C   0  0  0  0  0  0  0  0  0  0  0  0
    6.7930   71.0120   69.1650 N   0  0  0  0  0  0  0  0  0  0  0  0
    6.6582   70.1494   66.2731 H   0  0  0  0  0  0  0  0  0  0  0  0
    5.1788   69.2764   64.4355 H   0  0  0  0  0  0  0  0  0  0  0  0
    2.7756   68.8280   64.8499 H   0  0  0  0  0  0  0  0  0  0  0  0
    1.7676   69.2353   67.1091 H   0  0  0  0  0  0  0  0  0  0  0  0
    7.4998   70.9646   68.4173 H   0  0  0  0  0  0  0  0  0  0  0  0
    7.0576   71.3438   70.1035 H   0  0  0  0  0  0  0  0  0  0  0  0
  2  1  1  0
  3  2  2  0
  4  3  1  0
  5  4  2  0
  5  1  1  0
  6  5  1  0
  7  6  2  0
  8  7  1  0
  9  4  1  0
  9  8  2  0
 10  1  1  0
  6 11  1  0
  7 12  1  0
  8 13  1  0
  9 14  1  0
 10 15  1  0
 10 16  1  0
M  END
>  <score>  (2) 
-6.64

$$$$
=
     RDKit          3D

 16 17  0  0  0  0  0  0  0  0999 V2000
    2.7440   69.6570   67.5000 N   0  0  0  0  0  0  0  0  0  0  0  0
    2.7140   69.1910   66.2440 N   0  0  0  0  0  0  0  0  0  0  0  0
    3.9450   69.2700   65.7510 N   0  0  0  0  0  0  0  0  0  0  0  0
    4.7530   69.7970   66.7210 C   0  0  0  0  0  0  0  0  0  0  0  0
    4.0040   70.0570   67.8620 C   0  0  0  0  0  0  0  0  0  0  0  0
    4.5510   70.6010   69.0290 C   0  0  0  0  0  0  0  0  0  0  0  0
    5.9210   70.8850   69.0080 C   0  0  0  0  0  0  0  0  0  0  0  0
    6.6970   70.6330   67.8730 C   0  0  0  0  0  0  0  0  0  0  0  0
    6.1250   70.0860   66.7160 C   0  0  0  0  0  0  0  0  0  0  0  0
    1.6050   69.7200   68.3260 N   0  0  0  0  0  0  0  0  0  0  0  0
    3.9347   70.7958   69.9190 H   0  0  0  0  0  0  0  0  0  0  0  0
    6.3965   71.3149   69.9019 H   0  0  0  0  0  0  0  0  0  0  0  0
    7.7717   70.8672   67.8879 H   0  0  0  0  0  0  0  0  0  0  0  0
    6.7384   69.8880   65.8246 H   0  0  0  0  0  0  0  0  0  0  0  0
    1.6839   70.0876   69.2849 H   0  0  0  0  0  0  0  0  0  0  0  0
    0.6931   69.3985   67.9711 H   0  0  0  0  0  0  0  0  0  0  0  0
  2  1  1  0
  3  2  2  0
  4  3  1  0
  5  4  2  0
  5  1  1  0
  6  5  1  0
  7  6  2  0
  8  7  1  0
  9  4  1  0
  9  8  2  0
 10  1  1  0
  6 11  1  0
  7 12  1  0
  8 13  1  0
  9 14  1  0
 10 15  1  0
 10 16  1  0
M  END
>  <score>  (3) 
-6.585

$$$$
=
     RDKit          3D

 16 17  0  0  0  0  0  0  0  0999 V2000
    4.9660   69.6340   65.4730 N   0  0  0  0  0  0  0  0  0  0  0  0
    3.6620   69.3370   65.5510 N   0  0  0  0  0  0  0  0  0  0  0  0
    3.2700   69.5500   66.8030 N   0  0  0  0  0  0  0  0  0  0  0  0
    4.3550   69.9860   67.5140 C   0  0  0  0  0  0  0  0  0  0  0  0
    5.4640   70.0500   66.6800 C   0  0  0  0  0  0  0  0  0  0  0  0
    6.7280   70.4630   67.1190 C   0  0  0  0  0  0  0  0  0  0  0  0
    6.8400   70.8190   68.4670 C   0  0  0  0  0  0  0  0  0  0  0  0
    5.7390   70.7640   69.3270 C   0  0  0  0  0  0  0  0  0  0  0  0
    4.4830   70.3480   68.8630 C   0  0  0  0  0  0  0  0  0  0  0  0
    5.7120   69.5220   64.2840 N   0  0  0  0  0  0  0  0  0  0  0  0
    7.5903   70.5054   66.4373 H   0  0  0  0  0  0  0  0  0  0  0  0
    7.8137   71.1488   68.8583 H   0  0  0  0  0  0  0  0  0  0  0  0
    5.8598   71.0510   70.3820 H   0  0  0  0  0  0  0  0  0  0  0  0
    3.6180   70.3065   69.5413 H   0  0  0  0  0  0  0  0  0  0  0  0
    6.7132   69.7637   64.2795 H   0  0  0  0  0  0  0  0  0  0  0  0
    5.2564   69.1984   63.4188 H   0  0  0  0  0  0  0  0  0  0  0  0
  2  1  1  0
  3  2  2  0
  4  3  1  0
  5  4  2  0
  5  1  1  0
  6  5  1  0
  7  6  2  0
  8  7  1  0
  9  4  1  0
  9  8  2  0
 10  1  1  0
  6 11  1  0
  7 12  1  0
  8 13  1  0
  9 14  1  0
 10 15  1  0
 10 16  1  0
M  END
>  <score>  (4) 
-6.502

$$$$
=
     RDKit          3D

 16 17  0  0  0  0  0  0  0  0999 V2000
    2.8030   69.8280   68.2500 N   0  0  0  0  0  0  0  0  0  0  0  0
    1.6550   69.3470   67.7530 N   0  0  0  0  0  0  0  0  0  0  0  0
    1.8740   68.9920   66.4920 N   0  0  0  0  0  0  0  0  0  0  0  0
    3.1850   69.2590   66.2020 C   0  0  0  0  0  0  0  0  0  0  0  0
    3.8080   69.8000   67.3190 C   0  0  0  0  0  0  0  0  0  0  0  0
    5.1560   70.1770   67.3350 C   0  0  0  0  0  0  0  0  0  0  0  0
    5.8760   69.9870   66.1510 C   0  0  0  0  0  0  0  0  0  0  0  0
    5.2720   69.4450   65.0130 C   0  0  0  0  0  0  0  0  0  0  0  0
    3.9200   69.0740   65.0230 C   0  0  0  0  0  0  0  0  0  0  0  0
    2.9340   70.2990   69.5700 N   0  0  0  0  0  0  0  0  0  0  0  0
    5.6259   70.6017   68.2344 H   0  0  0  0  0  0  0  0  0  0  0  0
    6.9384   70.2697   66.1147 H   0  0  0  0  0  0  0  0  0  0  0  0
    5.8655   69.3077   64.0971 H   0  0  0  0  0  0  0  0  0  0  0  0
    3.4469   68.6475   64.1262 H   0  0  0  0  0  0  0  0  0  0  0  0
    3.8407   70.6586   69.9009 H   0  0  0  0  0  0  0  0  0  0  0  0
    2.1232   70.2841   70.2050 H   0  0  0  0  0  0  0  0  0  0  0  0
  2  1  1  0
  3  2  2  0
  4  3  1  0
  5  4  2  0
  5  1  1  0
  6  5  1  0
  7  6  2  0
  8  7  1  0
  9  4  1  0
  9  8  2  0
 10  1  1  0
  6 11  1  0
  7 12  1  0
  8 13  1  0
  9 14  1  0
 10 15  1  0
 10 16  1  0
M  END
>  <score>  (5) 
-6.461

$$$$
=
     RDKit          3D

 16 17  0  0  0  0  0  0  0  0999 V2000
    3.3250   69.3830   66.3770 N   0  0  0  0  0  0  0  0  0  0  0  0
    2.2960   69.4560   67.2330 N   0  0  0  0  0  0  0  0  0  0  0  0
    2.7530   69.9520   68.3770 N   0  0  0  0  0  0  0  0  0  0  0  0
    4.0920   70.1920   68.2260 C   0  0  0  0  0  0  0  0  0  0  0  0
    4.4880   69.8330   66.9440 C   0  0  0  0  0  0  0  0  0  0  0  0
    5.8050   69.9610   66.4860 C   0  0  0  0  0  0  0  0  0  0  0  0
    6.7380   70.4780   67.3920 C   0  0  0  0  0  0  0  0  0  0  0  0
    6.3650   70.8450   68.6880 C   0  0  0  0  0  0  0  0  0  0  0  0
    5.0380   70.7080   69.1230 C   0  0  0  0  0  0  0  0  0  0  0  0
    3.1990   68.8990   65.0610 N   0  0  0  0  0  0  0  0  0  0  0  0
    6.0920   69.6697   65.4648 H   0  0  0  0  0  0  0  0  0  0  0  0
    7.7854   70.5979   67.0780 H   0  0  0  0  0  0  0  0  0  0  0  0
    7.1226   71.2470   69.3768 H   0  0  0  0  0  0  0  0  0  0  0  0
    4.7469   70.9985   70.1432 H   0  0  0  0  0  0  0  0  0  0  0  0
    4.0230   68.8643   64.4439 H   0  0  0  0  0  0  0  0  0  0  0  0
    2.2828   68.5796   64.7152 H   0  0  0  0  0  0  0  0  0  0  0  0
  2  1  1  0
  3  2  2  0
  4  3  1  0
  5  4  2  0
  5  1  1  0
  6  5  1  0
  7  6  2  0
  8  7  1  0
  9  4  1  0
  9  8  2  0
 10  1  1  0
  6 11  1  0
  7 12  1  0
  8 13  1  0
  9 14  1  0
 10 15  1  0
 10 16  1  0
M  END
>  <score>  (6) 
-6.401

$$$$
=
     RDKit          3D

 16 17  0  0  0  0  0  0  0  0999 V2000
    4.2890   68.8870   62.8960 N   0  0  0  0  0  0  0  0  0  0  0  0
    3.0950   68.4520   62.4730 N   0  0  0  0  0  0  0  0  0  0  0  0
    2.2810   68.4140   63.5220 N   0  0  0  0  0  0  0  0  0  0  0  0
    2.9870   68.8340   64.6170 C   0  0  0  0  0  0  0  0  0  0  0  0
    4.2870   69.1460   64.2410 C   0  0  0  0  0  0  0  0  0  0  0  0
    5.2540   69.6060   65.1430 C   0  0  0  0  0  0  0  0  0  0  0  0
    4.8550   69.7450   66.4760 C   0  0  0  0  0  0  0  0  0  0  0  0
    3.5520   69.4370   66.8800 C   0  0  0  0  0  0  0  0  0  0  0  0
    2.6010   68.9790   65.9570 C   0  0  0  0  0  0  0  0  0  0  0  0
    5.3970   69.0490   62.0410 N   0  0  0  0  0  0  0  0  0  0  0  0
    6.2774   69.8463   64.8190 H   0  0  0  0  0  0  0  0  0  0  0  0
    5.5801   70.1036   67.2214 H   0  0  0  0  0  0  0  0  0  0  0  0
    3.2693   69.5557   67.9364 H   0  0  0  0  0  0  0  0  0  0  0  0
    1.5762   68.7391   66.2767 H   0  0  0  0  0  0  0  0  0  0  0  0
    6.2937   69.3873   62.4185 H   0  0  0  0  0  0  0  0  0  0  0  0
    5.3104   68.8292   61.0385 H   0  0  0  0  0  0  0  0  0  0  0  0
  2  1  1  0
  3  2  2  0
  4  3  1  0
  5  4  2  0
  5  1  1  0
  6  5  1  0
  7  6  2  0
  8  7  1  0
  9  4  1  0
  9  8  2  0
 10  1  1  0
  6 11  1  0
  7 12  1  0
  8 13  1  0
  9 14  1  0
 10 15  1  0
 10 16  1  0
M  END
>  <score>  (7) 
-6.089

$$$$
=
     RDKit          3D

 16 17  0  0  0  0  0  0  0  0999 V2000
    2.0170   68.4390   63.3340 N   0  0  0  0  0  0  0  0  0  0  0  0
    2.5280   68.3950   62.0960 N   0  0  0  0  0  0  0  0  0  0  0  0
    3.8050   68.7570   62.1700 N   0  0  0  0  0  0  0  0  0  0  0  0
    4.0880   69.0310   63.4810 C   0  0  0  0  0  0  0  0  0  0  0  0
    2.9520   68.8340   64.2550 C   0  0  0  0  0  0  0  0  0  0  0  0
    2.9260   69.0330   65.6400 C   0  0  0  0  0  0  0  0  0  0  0  0
    4.1200   69.4510   66.2380 C   0  0  0  0  0  0  0  0  0  0  0  0
    5.2770   69.6570   65.4810 C   0  0  0  0  0  0  0  0  0  0  0  0
    5.2780   69.4490   64.0940 C   0  0  0  0  0  0  0  0  0  0  0  0
    0.6780   68.1150   63.6270 N   0  0  0  0  0  0  0  0  0  0  0  0
    2.0119   68.8689   66.2295 H   0  0  0  0  0  0  0  0  0  0  0  0
    4.1487   69.6207   67.3244 H   0  0  0  0  0  0  0  0  0  0  0  0
    6.1999   69.9870   65.9803 H   0  0  0  0  0  0  0  0  0  0  0  0
    6.1905   69.6099   63.5011 H   0  0  0  0  0  0  0  0  0  0  0  0
    0.3364   68.1657   64.5974 H   0  0  0  0  0  0  0  0  0  0  0  0
    0.0404   67.8274   62.8709 H   0  0  0  0  0  0  0  0  0  0  0  0
  2  1  1  0
  3  2  2  0
  4  3  1  0
  5  4  2  0
  5  1  1  0
  6  5  1  0
  7  6  2  0
  8  7  1  0
  9  4  1  0
  9  8  2  0
 10  1  1  0
  6 11  1  0
  7 12  1  0
  8 13  1  0
  9 14  1  0
 10 15  1  0
 10 16  1  0
M  END
>  <score>  (8) 
-6.084

$$$$
=
     RDKit          3D

 16 17  0  0  0  0  0  0  0  0999 V2000
    3.5380   65.7840   63.9400 N   0  0  0  0  0  0  0  0  0  0  0  0
    4.1460   65.2950   62.8510 N   0  0  0  0  0  0  0  0  0  0  0  0
    4.9080   66.2580   62.3430 N   0  0  0  0  0  0  0  0  0  0  0  0
    4.7670   67.3660   63.1350 C   0  0  0  0  0  0  0  0  0  0  0  0
    3.8880   67.0880   64.1740 C   0  0  0  0  0  0  0  0  0  0  0  0
    3.5400   68.0260   65.1530 C   0  0  0  0  0  0  0  0  0  0  0  0
    4.1260   69.2920   65.0470 C   0  0  0  0  0  0  0  0  0  0  0  0
    5.0130   69.5970   64.0110 C   0  0  0  0  0  0  0  0  0  0  0  0
    5.3460   68.6390   63.0420 C   0  0  0  0  0  0  0  0  0  0  0  0
    2.6500   65.0290   64.7310 N   0  0  0  0  0  0  0  0  0  0  0  0
    2.8404   67.7799   65.9654 H   0  0  0  0  0  0  0  0  0  0  0  0
    3.8838   70.0625   65.7938 H   0  0  0  0  0  0  0  0  0  0  0  0
    5.4561   70.6022   63.9547 H   0  0  0  0  0  0  0  0  0  0  0  0
    6.0452   68.8812   62.2281 H   0  0  0  0  0  0  0  0  0  0  0  0
    2.2091   65.4542   65.5591 H   0  0  0  0  0  0  0  0  0  0  0  0
    2.4415   64.0517   64.4813 H   0  0  0  0  0  0  0  0  0  0  0  0
  2  1  1  0
  3  2  2  0
  4  3  1  0
  5  4  2  0
  5  1  1  0
  6  5  1  0
  7  6  2  0
  8  7  1  0
  9  4  1  0
  9  8  2  0
 10  1  1  0
  6 11  1  0
  7 12  1  0
  8 13  1  0
  9 14  1  0
 10 15  1  0
 10 16  1  0
M  END
>  <score>  (9) 
-6.039

$$$$
