=
     RDKit          3D

 44 45  0  0  0  0  0  0  0  0999 V2000
    0.3810   66.4600   70.1820 C   0  0  0  0  0  0  0  0  0  0  0  0
    0.9300   65.1030   70.5400 C   0  0  0  0  0  0  0  0  0  0  0  0
    2.3130   64.9110   70.6660 C   0  0  0  0  0  0  0  0  0  0  0  0
    2.8320   63.6450   70.9410 C   0  0  0  0  0  0  0  0  0  0  0  0
    1.9750   62.5560   71.0650 C   0  0  0  0  0  0  0  0  0  0  0  0
    0.5950   62.7410   70.9830 C   0  0  0  0  0  0  0  0  0  0  0  0
    0.0730   64.0070   70.7080 C   0  0  0  0  0  0  0  0  0  0  0  0
    2.4360   61.3050   71.3600 O   0  0  0  0  0  0  0  0  0  0  0  0
    3.6180   60.8780   70.6150 C   0  0  0  0  0  0  0  0  0  0  0  0
    3.7020   61.5650   69.2470 C   0  0  0  0  0  0  0  0  0  0  0  0
    3.4190   59.3710   70.3840 C   0  0  0  0  0  0  0  0  0  0  0  0
    4.9380   60.9690   71.4560 C   0  0  0  0  0  0  0  0  0  0  0  0
    6.0010   60.6270   70.8550 O   0  0  0  0  0  0  0  0  0  0  0  0
    4.8210   61.3630   72.6560 O   0  0  0  0  0  1  0  0  0  0  0  0
   -0.1040   66.4940   68.7310 C   0  0  0  0  0  0  0  0  0  0  0  0
    0.9310   68.2590   67.3390 C   0  0  0  0  0  0  0  0  0  0  0  0
    0.1050   69.1070   67.6530 O   0  0  0  0  0  0  0  0  0  0  0  0
    0.9220   66.9660   67.8160 N   0  0  0  0  0  0  0  0  0  0  0  0
    5.3500   69.6450   63.5170 Cl  0  0  0  0  0  0  0  0  0  0  0  0
    4.0760   69.2430   64.6030 C   0  0  0  0  0  0  0  0  0  0  0  0
    2.9390   68.5920   64.1240 C   0  0  0  0  0  0  0  0  0  0  0  0
    1.9020   68.2630   65.0030 C   0  0  0  0  0  0  0  0  0  0  0  0
    2.0020   68.5940   66.3620 C   0  0  0  0  0  0  0  0  0  0  0  0
    3.1570   69.2330   66.8340 C   0  0  0  0  0  0  0  0  0  0  0  0
    4.1920   69.5620   65.9540 C   0  0  0  0  0  0  0  0  0  0  0  0
   -0.4627   66.6931   70.8482 H   0  0  0  0  0  0  0  0  0  0  0  0
    1.1836   67.2031   70.2991 H   0  0  0  0  0  0  0  0  0  0  0  0
    2.9951   65.7657   70.5471 H   0  0  0  0  0  0  0  0  0  0  0  0
    3.9170   63.5083   71.0595 H   0  0  0  0  0  0  0  0  0  0  0  0
   -0.0833   61.8885   71.1351 H   0  0  0  0  0  0  0  0  0  0  0  0
   -1.0151   64.1443   70.6230 H   0  0  0  0  0  0  0  0  0  0  0  0
    3.8344   62.6479   69.3880 H   0  0  0  0  0  0  0  0  0  0  0  0
    4.5574   61.1610   68.6857 H   0  0  0  0  0  0  0  0  0  0  0  0
    2.7744   61.3790   68.6857 H   0  0  0  0  0  0  0  0  0  0  0  0
    3.3511   58.8571   71.3542 H   0  0  0  0  0  0  0  0  0  0  0  0
    2.4913   59.2064   69.8163 H   0  0  0  0  0  0  0  0  0  0  0  0
    4.2722   58.9713   69.8163 H   0  0  0  0  0  0  0  0  0  0  0  0
   -0.4021   65.4777   68.4340 H   0  0  0  0  0  0  0  0  0  0  0  0
   -0.9508   67.1939   68.6762 H   0  0  0  0  0  0  0  0  0  0  0  0
    1.6627   66.3163   67.5158 H   0  0  0  0  0  0  0  0  0  0  0  0
    2.8581   68.3378   63.0568 H   0  0  0  0  0  0  0  0  0  0  0  0
    1.0074   67.7443   64.6280 H   0  0  0  0  0  0  0  0  0  0  0  0
    3.2493   69.4768   67.9027 H   0  0  0  0  0  0  0  0  0  0  0  0
    5.0936   70.0703   66.3265 H   0  0  0  0  0  0  0  0  0  0  0  0
  2  1  1  0
  3  2  2  0
  4  3  1  0
  5  4  2  0
  6  5  1  0
  7  2  1  0
  7  6  2  0
  8  5  1  0
  9  8  1  0
 10  9  1  0
 11  9  1  0
 12  9  1  0
 13 12  2  0
 14 12  1  0
 15  1  1  0
 17 16  2  0
 18 16  1  0
 18 15  1  0
 20 19  1  0
 21 20  2  0
 22 21  1  0
 23 22  2  0
 23 16  1  0
 24 23  1  0
 25 20  1  0
 25 24  2  0
  1 26  1  0
  1 27  1  0
  3 28  1  0
  4 29  1  0
  6 30  1  0
  7 31  1  0
 10 32  1  0
 10 33  1  0
 10 34  1  0
 11 35  1  0
 11 36  1  0
 11 37  1  0
 15 38  1  0
 15 39  1  0
 18 40  1  0
 21 41  1  0
 22 42  1  0
 24 43  1  0
 25 44  1  0
M  CHG  1  14  -1
M  END
>  <score>  (1) 
-9.737

$$$$
=
     RDKit          3D

 44 45  0  0  0  0  0  0  0  0999 V2000
    3.1930   68.6100   61.6430 C   0  0  0  0  0  0  0  0  0  0  0  0
    2.3410   68.1070   62.7790 C   0  0  0  0  0  0  0  0  0  0  0  0
    1.1360   68.7480   63.0970 C   0  0  0  0  0  0  0  0  0  0  0  0
    0.3700   68.3230   64.1840 C   0  0  0  0  0  0  0  0  0  0  0  0
    0.8180   67.2730   64.9790 C   0  0  0  0  0  0  0  0  0  0  0  0
    1.9940   66.6010   64.6490 C   0  0  0  0  0  0  0  0  0  0  0  0
    2.7620   67.0230   63.5610 C   0  0  0  0  0  0  0  0  0  0  0  0
    0.0890   66.8060   66.0360 O   0  0  0  0  0  0  0  0  0  0  0  0
   -0.3350   67.8170   67.0020 C   0  0  0  0  0  0  0  0  0  0  0  0
    0.5630   69.0580   66.9530 C   0  0  0  0  0  0  0  0  0  0  0  0
   -0.1600   67.1510   68.3760 C   0  0  0  0  0  0  0  0  0  0  0  0
   -1.8690   68.1360   66.9200 C   0  0  0  0  0  0  0  0  0  0  0  0
   -2.2050   69.0130   66.0680 O   0  0  0  0  0  0  0  0  0  0  0  0
   -2.6250   67.4990   67.7150 O   0  0  0  0  0  1  0  0  0  0  0  0
    4.5930   68.9930   62.1290 C   0  0  0  0  0  0  0  0  0  0  0  0
    5.3980   68.9250   64.4670 C   0  0  0  0  0  0  0  0  0  0  0  0
    6.1850   68.0100   64.2570 O   0  0  0  0  0  0  0  0  0  0  0  0
    4.5900   69.4790   63.4980 N   0  0  0  0  0  0  0  0  0  0  0  0
    4.6690   71.0850   70.0210 Cl  0  0  0  0  0  0  0  0  0  0  0  0
    4.8900   70.4690   68.4300 C   0  0  0  0  0  0  0  0  0  0  0  0
    6.1570   70.4990   67.8470 C   0  0  0  0  0  0  0  0  0  0  0  0
    6.3420   69.9990   66.5540 C   0  0  0  0  0  0  0  0  0  0  0  0
    5.2520   69.4760   65.8420 C   0  0  0  0  0  0  0  0  0  0  0  0
    3.9880   69.4360   66.4450 C   0  0  0  0  0  0  0  0  0  0  0  0
    3.8050   69.9370   67.7360 C   0  0  0  0  0  0  0  0  0  0  0  0
    3.2807   67.8197   60.8829 H   0  0  0  0  0  0  0  0  0  0  0  0
    2.7146   69.5049   61.2184 H   0  0  0  0  0  0  0  0  0  0  0  0
    0.7905   69.5938   62.4844 H   0  0  0  0  0  0  0  0  0  0  0  0
   -0.5859   68.8174   64.4114 H   0  0  0  0  0  0  0  0  0  0  0  0
    2.3180   65.7363   65.2468 H   0  0  0  0  0  0  0  0  0  0  0  0
    3.7001   66.5028   63.3174 H   0  0  0  0  0  0  0  0  0  0  0  0
    0.7973   69.3818   67.9778 H   0  0  0  0  0  0  0  0  0  0  0  0
    1.4958   68.8150   66.4230 H   0  0  0  0  0  0  0  0  0  0  0  0
    0.0405   69.8680   66.4230 H   0  0  0  0  0  0  0  0  0  0  0  0
   -0.3539   67.8888   69.1685 H   0  0  0  0  0  0  0  0  0  0  0  0
   -0.8691   66.3155   68.4715 H   0  0  0  0  0  0  0  0  0  0  0  0
    0.8682   66.7720   68.4715 H   0  0  0  0  0  0  0  0  0  0  0  0
    5.2421   68.1069   62.0701 H   0  0  0  0  0  0  0  0  0  0  0  0
    4.9610   69.8056   61.4853 H   0  0  0  0  0  0  0  0  0  0  0  0
    3.9669   70.2590   63.7513 H   0  0  0  0  0  0  0  0  0  0  0  0
    7.0095   70.9154   68.4036 H   0  0  0  0  0  0  0  0  0  0  0  0
    7.3417   70.0158   66.0954 H   0  0  0  0  0  0  0  0  0  0  0  0
    3.1348   69.0076   65.8986 H   0  0  0  0  0  0  0  0  0  0  0  0
    2.8092   69.9117   68.2026 H   0  0  0  0  0  0  0  0  0  0  0  0
  2  1  1  0
  3  2  2  0
  4  3  1  0
  5  4  2  0
  6  5  1  0
  7  2  1  0
  7  6  2  0
  8  5  1  0
  9  8  1  0
 10  9  1  0
 11  9  1  0
 12  9  1  0
 13 12  2  0
 14 12  1  0
 15  1  1  0
 17 16  2  0
 18 16  1  0
 18 15  1  0
 20 19  1  0
 21 20  2  0
 22 21  1  0
 23 22  2  0
 23 16  1  0
 24 23  1  0
 25 20  1  0
 25 24  2  0
  1 26  1  0
  1 27  1  0
  3 28  1  0
  4 29  1  0
  6 30  1  0
  7 31  1  0
 10 32  1  0
 10 33  1  0
 10 34  1  0
 11 35  1  0
 11 36  1  0
 11 37  1  0
 15 38  1  0
 15 39  1  0
 18 40  1  0
 21 41  1  0
 22 42  1  0
 24 43  1  0
 25 44  1  0
M  CHG  1  14  -1
M  END
>  <score>  (2) 
-9.676

$$$$
=
     RDKit          3D

 44 45  0  0  0  0  0  0  0  0999 V2000
    0.1530   66.0790   69.5710 C   0  0  0  0  0  0  0  0  0  0  0  0
    0.7980   64.9130   70.2740 C   0  0  0  0  0  0  0  0  0  0  0  0
    2.1900   64.8610   70.4280 C   0  0  0  0  0  0  0  0  0  0  0  0
    2.7980   63.7570   71.0280 C   0  0  0  0  0  0  0  0  0  0  0  0
    2.0220   62.6840   71.4530 C   0  0  0  0  0  0  0  0  0  0  0  0
    0.6320   62.7410   71.3430 C   0  0  0  0  0  0  0  0  0  0  0  0
    0.0210   63.8450   70.7440 C   0  0  0  0  0  0  0  0  0  0  0  0
    2.5700   61.5950   72.0680 O   0  0  0  0  0  0  0  0  0  0  0  0
    3.4370   60.7690   71.2300 C   0  0  0  0  0  0  0  0  0  0  0  0
    3.1420   60.9720   69.7400 C   0  0  0  0  0  0  0  0  0  0  0  0
    3.0810   59.3200   71.5980 C   0  0  0  0  0  0  0  0  0  0  0  0
    4.9550   60.9020   71.6030 C   0  0  0  0  0  0  0  0  0  0  0  0
    5.7770   60.5120   70.7200 O   0  0  0  0  0  0  0  0  0  0  0  0
    5.2190   61.3740   72.7500 O   0  0  0  0  0  1  0  0  0  0  0  0
    1.1640   67.2010   69.3200 C   0  0  0  0  0  0  0  0  0  0  0  0
    1.7970   68.6010   67.3810 C   0  0  0  0  0  0  0  0  0  0  0  0
    1.8940   69.6250   68.0460 O   0  0  0  0  0  0  0  0  0  0  0  0
    1.4600   67.3730   67.9080 N   0  0  0  0  0  0  0  0  0  0  0  0
    2.8370   68.8020   61.4710 Cl  0  0  0  0  0  0  0  0  0  0  0  0
    2.5270   68.7410   63.1630 C   0  0  0  0  0  0  0  0  0  0  0  0
    1.2430   68.4440   63.6200 C   0  0  0  0  0  0  0  0  0  0  0  0
    0.9860   68.3940   64.9940 C   0  0  0  0  0  0  0  0  0  0  0  0
    2.0160   68.6500   65.9100 C   0  0  0  0  0  0  0  0  0  0  0  0
    3.3060   68.9320   65.4380 C   0  0  0  0  0  0  0  0  0  0  0  0
    3.5600   68.9830   64.0650 C   0  0  0  0  0  0  0  0  0  0  0  0
   -0.2513   65.7377   68.6066 H   0  0  0  0  0  0  0  0  0  0  0  0
   -0.6511   66.4709   70.2113 H   0  0  0  0  0  0  0  0  0  0  0  0
    2.8092   65.6979   70.0728 H   0  0  0  0  0  0  0  0  0  0  0  0
    3.8893   63.7357   71.1645 H   0  0  0  0  0  0  0  0  0  0  0  0
    0.0164   61.9150   71.7287 H   0  0  0  0  0  0  0  0  0  0  0  0
   -1.0737   63.8765   70.6407 H   0  0  0  0  0  0  0  0  0  0  0  0
    2.2407   61.5922   69.6258 H   0  0  0  0  0  0  0  0  0  0  0  0
    3.9959   61.4746   69.2623 H   0  0  0  0  0  0  0  0  0  0  0  0
    2.9776   59.9949   69.2623 H   0  0  0  0  0  0  0  0  0  0  0  0
    3.0553   59.2155   72.6927 H   0  0  0  0  0  0  0  0  0  0  0  0
    2.0942   59.0680   71.1823 H   0  0  0  0  0  0  0  0  0  0  0  0
    3.8386   58.6394   71.1823 H   0  0  0  0  0  0  0  0  0  0  0  0
    0.7517   68.1425   69.7119 H   0  0  0  0  0  0  0  0  0  0  0  0
    2.1006   66.9290   69.8287 H   0  0  0  0  0  0  0  0  0  0  0  0
    1.4168   66.5548   67.2838 H   0  0  0  0  0  0  0  0  0  0  0  0
    0.4337   68.2494   62.9009 H   0  0  0  0  0  0  0  0  0  0  0  0
   -0.0246   68.1537   65.3560 H   0  0  0  0  0  0  0  0  0  0  0  0
    4.1223   69.1140   66.1525 H   0  0  0  0  0  0  0  0  0  0  0  0
    4.5712   69.2132   63.6983 H   0  0  0  0  0  0  0  0  0  0  0  0
  2  1  1  0
  3  2  2  0
  4  3  1  0
  5  4  2  0
  6  5  1  0
  7  2  1  0
  7  6  2  0
  8  5  1  0
  9  8  1  0
 10  9  1  0
 11  9  1  0
 12  9  1  0
 13 12  2  0
 14 12  1  0
 15  1  1  0
 17 16  2  0
 18 16  1  0
 18 15  1  0
 20 19  1  0
 21 20  2  0
 22 21  1  0
 23 22  2  0
 23 16  1  0
 24 23  1  0
 25 20  1  0
 25 24  2  0
  1 26  1  0
  1 27  1  0
  3 28  1  0
  4 29  1  0
  6 30  1  0
  7 31  1  0
 10 32  1  0
 10 33  1  0
 10 34  1  0
 11 35  1  0
 11 36  1  0
 11 37  1  0
 15 38  1  0
 15 39  1  0
 18 40  1  0
 21 41  1  0
 22 42  1  0
 24 43  1  0
 25 44  1  0
M  CHG  1  14  -1
M  END
>  <score>  (3) 
-9.637

$$$$
=
     RDKit          3D

 44 45  0  0  0  0  0  0  0  0999 V2000
    0.0280   66.0790   70.5710 C   0  0  0  0  0  0  0  0  0  0  0  0
    0.8920   64.8450   70.5360 C   0  0  0  0  0  0  0  0  0  0  0  0
    0.3290   63.5810   70.7580 C   0  0  0  0  0  0  0  0  0  0  0  0
    1.1320   62.4400   70.7830 C   0  0  0  0  0  0  0  0  0  0  0  0
    2.5080   62.5570   70.6170 C   0  0  0  0  0  0  0  0  0  0  0  0
    3.0760   63.8030   70.3550 C   0  0  0  0  0  0  0  0  0  0  0  0
    2.2740   64.9470   70.3280 C   0  0  0  0  0  0  0  0  0  0  0  0
    3.3290   61.4650   70.6080 O   0  0  0  0  0  0  0  0  0  0  0  0
    3.8400   61.0530   71.9140 C   0  0  0  0  0  0  0  0  0  0  0  0
    3.0780   61.7310   73.0590 C   0  0  0  0  0  0  0  0  0  0  0  0
    5.2950   61.5470   71.9450 C   0  0  0  0  0  0  0  0  0  0  0  0
    3.9570   59.4950   72.0610 C   0  0  0  0  0  0  0  0  0  0  0  0
    3.9870   58.8390   70.9760 O   0  0  0  0  0  0  0  0  0  0  0  0
    4.0000   59.0380   73.2430 O   0  0  0  0  0  1  0  0  0  0  0  0
    0.0270   66.7920   69.2170 C   0  0  0  0  0  0  0  0  0  0  0  0
    1.3210   68.4970   67.9760 C   0  0  0  0  0  0  0  0  0  0  0  0
    0.4260   68.7090   67.1680 O   0  0  0  0  0  0  0  0  0  0  0  0
    1.2210   67.5950   69.0140 N   0  0  0  0  0  0  0  0  0  0  0  0
    6.5650   71.3970   67.6060 Cl  0  0  0  0  0  0  0  0  0  0  0  0
    5.0640   70.5620   67.7000 C   0  0  0  0  0  0  0  0  0  0  0  0
    4.5960   69.8530   66.5930 C   0  0  0  0  0  0  0  0  0  0  0  0
    3.3770   69.1720   66.6650 C   0  0  0  0  0  0  0  0  0  0  0  0
    2.6210   69.2100   67.8460 C   0  0  0  0  0  0  0  0  0  0  0  0
    3.1090   69.9120   68.9570 C   0  0  0  0  0  0  0  0  0  0  0  0
    4.3270   70.5930   68.8820 C   0  0  0  0  0  0  0  0  0  0  0  0
   -1.0023   65.7887   70.8245 H   0  0  0  0  0  0  0  0  0  0  0  0
    0.4339   66.7673   71.3270 H   0  0  0  0  0  0  0  0  0  0  0  0
   -0.7559   63.4874   70.9140 H   0  0  0  0  0  0  0  0  0  0  0  0
    0.6775   61.4497   70.9337 H   0  0  0  0  0  0  0  0  0  0  0  0
    4.1571   63.8857   70.1693 H   0  0  0  0  0  0  0  0  0  0  0  0
    2.7292   65.9311   70.1428 H   0  0  0  0  0  0  0  0  0  0  0  0
    3.4743   61.3784   74.0226 H   0  0  0  0  0  0  0  0  0  0  0  0
    3.2035   62.8215   72.9879 H   0  0  0  0  0  0  0  0  0  0  0  0
    2.0095   61.4795   72.9879 H   0  0  0  0  0  0  0  0  0  0  0  0
    5.6223   61.6581   72.9893 H   0  0  0  0  0  0  0  0  0  0  0  0
    5.9408   60.8178   71.4340 H   0  0  0  0  0  0  0  0  0  0  0  0
    5.3633   62.5187   71.4340 H   0  0  0  0  0  0  0  0  0  0  0  0
   -0.0305   66.0364   68.4197 H   0  0  0  0  0  0  0  0  0  0  0  0
   -0.8403   67.4682   69.1941 H   0  0  0  0  0  0  0  0  0  0  0  0
    2.0137   67.4875   69.6628 H   0  0  0  0  0  0  0  0  0  0  0  0
    5.1855   69.8299   65.6646 H   0  0  0  0  0  0  0  0  0  0  0  0
    3.0108   68.6064   65.7955 H   0  0  0  0  0  0  0  0  0  0  0  0
    2.5303   69.9269   69.8924 H   0  0  0  0  0  0  0  0  0  0  0  0
    4.7023   71.1511   69.7524 H   0  0  0  0  0  0  0  0  0  0  0  0
  2  1  1  0
  3  2  2  0
  4  3  1  0
  5  4  2  0
  6  5  1  0
  7  2  1  0
  7  6  2  0
  8  5  1  0
  9  8  1  0
 10  9  1  0
 11  9  1  0
 12  9  1  0
 13 12  2  0
 14 12  1  0
 15  1  1  0
 17 16  2  0
 18 16  1  0
 18 15  1  0
 20 19  1  0
 21 20  2  0
 22 21  1  0
 23 22  2  0
 23 16  1  0
 24 23  1  0
 25 20  1  0
 25 24  2  0
  1 26  1  0
  1 27  1  0
  3 28  1  0
  4 29  1  0
  6 30  1  0
  7 31  1  0
 10 32  1  0
 10 33  1  0
 10 34  1  0
 11 35  1  0
 11 36  1  0
 11 37  1  0
 15 38  1  0
 15 39  1  0
 18 40  1  0
 21 41  1  0
 22 42  1  0
 24 43  1  0
 25 44  1  0
M  CHG  1  14  -1
M  END
>  <score>  (4) 
-9.618

$$$$
=
     RDKit          3D

 44 45  0  0  0  0  0  0  0  0999 V2000
    0.3880   66.0810   70.6590 C   0  0  0  0  0  0  0  0  0  0  0  0
    1.0830   64.7440   70.6580 C   0  0  0  0  0  0  0  0  0  0  0  0
    0.3970   63.5900   71.0590 C   0  0  0  0  0  0  0  0  0  0  0  0
    1.0510   62.3580   71.1160 C   0  0  0  0  0  0  0  0  0  0  0  0
    2.4020   62.2760   70.7990 C   0  0  0  0  0  0  0  0  0  0  0  0
    3.0860   63.4090   70.3590 C   0  0  0  0  0  0  0  0  0  0  0  0
    2.4340   64.6430   70.3000 C   0  0  0  0  0  0  0  0  0  0  0  0
    3.0770   61.0880   70.8150 O   0  0  0  0  0  0  0  0  0  0  0  0
    3.7650   60.7720   72.0650 C   0  0  0  0  0  0  0  0  0  0  0  0
    3.3280   61.7040   73.2010 C   0  0  0  0  0  0  0  0  0  0  0  0
    5.2520   61.0310   71.7750 C   0  0  0  0  0  0  0  0  0  0  0  0
    3.7010   59.2480   72.4300 C   0  0  0  0  0  0  0  0  0  0  0  0
    4.0230   58.9510   73.6200 O   0  0  0  0  0  0  0  0  0  0  0  0
    3.3470   58.4570   71.5040 O   0  0  0  0  0  1  0  0  0  0  0  0
   -0.1240   66.4390   69.2620 C   0  0  0  0  0  0  0  0  0  0  0  0
    0.7490   67.2010   67.0760 C   0  0  0  0  0  0  0  0  0  0  0  0
   -0.2520   66.8530   66.4610 O   0  0  0  0  0  0  0  0  0  0  0  0
    0.9030   67.0540   68.4370 N   0  0  0  0  0  0  0  0  0  0  0  0
    5.3620   69.4940   63.9920 Cl  0  0  0  0  0  0  0  0  0  0  0  0
    4.0410   68.8450   64.8850 C   0  0  0  0  0  0  0  0  0  0  0  0
    3.6410   69.4600   66.0710 C   0  0  0  0  0  0  0  0  0  0  0  0
    2.5680   68.9370   66.8000 C   0  0  0  0  0  0  0  0  0  0  0  0
    1.9010   67.7920   66.3420 C   0  0  0  0  0  0  0  0  0  0  0  0
    2.3020   67.1930   65.1400 C   0  0  0  0  0  0  0  0  0  0  0  0
    3.3750   67.7160   64.4140 C   0  0  0  0  0  0  0  0  0  0  0  0
   -0.4635   66.0424   71.3543 H   0  0  0  0  0  0  0  0  0  0  0  0
    1.1102   66.8490   70.9729 H   0  0  0  0  0  0  0  0  0  0  0  0
   -0.6667   63.6554   71.3314 H   0  0  0  0  0  0  0  0  0  0  0  0
    0.4984   61.4539   71.4112 H   0  0  0  0  0  0  0  0  0  0  0  0
    4.1411   63.3307   70.0578 H   0  0  0  0  0  0  0  0  0  0  0  0
    2.9827   65.5380   69.9716 H   0  0  0  0  0  0  0  0  0  0  0  0
    3.5497   61.2311   74.1691 H   0  0  0  0  0  0  0  0  0  0  0  0
    3.8735   62.6561   73.1245 H   0  0  0  0  0  0  0  0  0  0  0  0
    2.2472   61.8935   73.1245 H   0  0  0  0  0  0  0  0  0  0  0  0
    5.7995   61.1264   72.7243 H   0  0  0  0  0  0  0  0  0  0  0  0
    5.6645   60.1912   71.1966 H   0  0  0  0  0  0  0  0  0  0  0  0
    5.3562   61.9608   71.1966 H   0  0  0  0  0  0  0  0  0  0  0  0
   -0.4719   65.5204   68.7669 H   0  0  0  0  0  0  0  0  0  0  0  0
   -0.9404   67.1667   69.3799 H   0  0  0  0  0  0  0  0  0  0  0  0
    1.7693   67.3889   68.8822 H   0  0  0  0  0  0  0  0  0  0  0  0
    4.1685   70.3550   66.4326 H   0  0  0  0  0  0  0  0  0  0  0  0
    2.2474   69.4241   67.7327 H   0  0  0  0  0  0  0  0  0  0  0  0
    1.7690   66.3063   64.7662 H   0  0  0  0  0  0  0  0  0  0  0  0
    3.6922   67.2386   63.4752 H   0  0  0  0  0  0  0  0  0  0  0  0
  2  1  1  0
  3  2  2  0
  4  3  1  0
  5  4  2  0
  6  5  1  0
  7  2  1  0
  7  6  2  0
  8  5  1  0
  9  8  1  0
 10  9  1  0
 11  9  1  0
 12  9  1  0
 13 12  2  0
 14 12  1  0
 15  1  1  0
 17 16  2  0
 18 16  1  0
 18 15  1  0
 20 19  1  0
 21 20  2  0
 22 21  1  0
 23 22  2  0
 23 16  1  0
 24 23  1  0
 25 20  1  0
 25 24  2  0
  1 26  1  0
  1 27  1  0
  3 28  1  0
  4 29  1  0
  6 30  1  0
  7 31  1  0
 10 32  1  0
 10 33  1  0
 10 34  1  0
 11 35  1  0
 11 36  1  0
 11 37  1  0
 15 38  1  0
 15 39  1  0
 18 40  1  0
 21 41  1  0
 22 42  1  0
 24 43  1  0
 25 44  1  0
M  CHG  1  14  -1
M  END
>  <score>  (5) 
-9.57

$$$$
=
     RDKit          3D

 44 45  0  0  0  0  0  0  0  0999 V2000
    0.2670   67.1970   68.3160 C   0  0  0  0  0  0  0  0  0  0  0  0
    1.0680   67.7850   67.1830 C   0  0  0  0  0  0  0  0  0  0  0  0
    0.7610   67.4570   65.8550 C   0  0  0  0  0  0  0  0  0  0  0  0
    1.5340   67.9520   64.8040 C   0  0  0  0  0  0  0  0  0  0  0  0
    2.6370   68.7550   65.0730 C   0  0  0  0  0  0  0  0  0  0  0  0
    2.9290   69.1220   66.3860 C   0  0  0  0  0  0  0  0  0  0  0  0
    2.1560   68.6290   67.4400 C   0  0  0  0  0  0  0  0  0  0  0  0
    3.4060   69.2830   64.0760 O   0  0  0  0  0  0  0  0  0  0  0  0
    4.3070   68.3440   63.4110 C   0  0  0  0  0  0  0  0  0  0  0  0
    4.7200   67.2010   64.3460 C   0  0  0  0  0  0  0  0  0  0  0  0
    5.5610   69.1660   63.0740 C   0  0  0  0  0  0  0  0  0  0  0  0
    3.7720   67.8650   62.0160 C   0  0  0  0  0  0  0  0  0  0  0  0
    4.1520   66.7140   61.6440 O   0  0  0  0  0  0  0  0  0  0  0  0
    3.0210   68.6720   61.3890 O   0  0  0  0  0  1  0  0  0  0  0  0
    1.1470   66.9460   69.5430 C   0  0  0  0  0  0  0  0  0  0  0  0
    1.2480   64.6910   70.5540 C   0  0  0  0  0  0  0  0  0  0  0  0
    0.4240   64.9520   71.4230 O   0  0  0  0  0  0  0  0  0  0  0  0
    1.6560   65.5860   69.5890 N   0  0  0  0  0  0  0  0  0  0  0  0
    3.7510   59.2330   70.5490 Cl  0  0  0  0  0  0  0  0  0  0  0  0
    3.0390   60.8000   70.5400 C   0  0  0  0  0  0  0  0  0  0  0  0
    3.3230   61.6820   69.4970 C   0  0  0  0  0  0  0  0  0  0  0  0
    2.7470   62.9570   69.4850 C   0  0  0  0  0  0  0  0  0  0  0  0
    1.8920   63.3490   70.5240 C   0  0  0  0  0  0  0  0  0  0  0  0
    1.6020   62.4480   71.5580 C   0  0  0  0  0  0  0  0  0  0  0  0
    2.1790   61.1760   71.5690 C   0  0  0  0  0  0  0  0  0  0  0  0
   -0.5371   67.8966   68.5880 H   0  0  0  0  0  0  0  0  0  0  0  0
   -0.1518   66.2353   67.9846 H   0  0  0  0  0  0  0  0  0  0  0  0
   -0.0971   66.8034   65.6395 H   0  0  0  0  0  0  0  0  0  0  0  0
    1.2712   67.7074   63.7642 H   0  0  0  0  0  0  0  0  0  0  0  0
    3.7695   69.8009   66.5923 H   0  0  0  0  0  0  0  0  0  0  0  0
    2.4027   68.9047   68.4759 H   0  0  0  0  0  0  0  0  0  0  0  0
    4.6039   67.5224   65.3916 H   0  0  0  0  0  0  0  0  0  0  0  0
    4.0815   66.3251   64.1586 H   0  0  0  0  0  0  0  0  0  0  0  0
    5.7709   66.9355   64.1586 H   0  0  0  0  0  0  0  0  0  0  0  0
    6.0504   69.4868   64.0054 H   0  0  0  0  0  0  0  0  0  0  0  0
    6.2575   68.5486   62.4877 H   0  0  0  0  0  0  0  0  0  0  0  0
    5.2727   70.0509   62.4877 H   0  0  0  0  0  0  0  0  0  0  0  0
    1.9988   67.6415   69.5154 H   0  0  0  0  0  0  0  0  0  0  0  0
    0.5278   67.1035   70.4384 H   0  0  0  0  0  0  0  0  0  0  0  0
    2.3402   65.2827   68.8813 H   0  0  0  0  0  0  0  0  0  0  0  0
    3.9989   61.3754   68.6851 H   0  0  0  0  0  0  0  0  0  0  0  0
    2.9651   63.6515   68.6603 H   0  0  0  0  0  0  0  0  0  0  0  0
    0.9161   62.7444   72.3653 H   0  0  0  0  0  0  0  0  0  0  0  0
    1.9553   60.4747   72.3864 H   0  0  0  0  0  0  0  0  0  0  0  0
  2  1  1  0
  3  2  2  0
  4  3  1  0
  5  4  2  0
  6  5  1  0
  7  2  1  0
  7  6  2  0
  8  5  1  0
  9  8  1  0
 10  9  1  0
 11  9  1  0
 12  9  1  0
 13 12  2  0
 14 12  1  0
 15  1  1  0
 17 16  2  0
 18 16  1  0
 18 15  1  0
 20 19  1  0
 21 20  2  0
 22 21  1  0
 23 22  2  0
 23 16  1  0
 24 23  1  0
 25 20  1  0
 25 24  2  0
  1 26  1  0
  1 27  1  0
  3 28  1  0
  4 29  1  0
  6 30  1  0
  7 31  1  0
 10 32  1  0
 10 33  1  0
 10 34  1  0
 11 35  1  0
 11 36  1  0
 11 37  1  0
 15 38  1  0
 15 39  1  0
 18 40  1  0
 21 41  1  0
 22 42  1  0
 24 43  1  0
 25 44  1  0
M  CHG  1  14  -1
M  END
>  <score>  (6) 
-9.564

$$$$
=
     RDKit          3D

 44 45  0  0  0  0  0  0  0  0999 V2000
    0.2610   67.2070   67.6030 C   0  0  0  0  0  0  0  0  0  0  0  0
    1.5070   67.4730   66.8000 C   0  0  0  0  0  0  0  0  0  0  0  0
    2.2230   68.6650   66.9780 C   0  0  0  0  0  0  0  0  0  0  0  0
    3.3450   68.9440   66.1970 C   0  0  0  0  0  0  0  0  0  0  0  0
    3.7450   68.0470   65.2120 C   0  0  0  0  0  0  0  0  0  0  0  0
    3.0660   66.8390   65.0520 C   0  0  0  0  0  0  0  0  0  0  0  0
    1.9430   66.5560   65.8340 C   0  0  0  0  0  0  0  0  0  0  0  0
    4.8510   68.2650   64.4420 O   0  0  0  0  0  0  0  0  0  0  0  0
    4.6010   68.4220   63.0110 C   0  0  0  0  0  0  0  0  0  0  0  0
    5.5220   69.4780   62.3890 C   0  0  0  0  0  0  0  0  0  0  0  0
    3.1540   68.9290   62.9150 C   0  0  0  0  0  0  0  0  0  0  0  0
    4.5850   67.0560   62.2400 C   0  0  0  0  0  0  0  0  0  0  0  0
    3.8230   67.0030   61.2270 O   0  0  0  0  0  0  0  0  0  0  0  0
    5.3220   66.1340   62.7020 O   0  0  0  0  0  1  0  0  0  0  0  0
    0.5720   67.1400   69.1000 C   0  0  0  0  0  0  0  0  0  0  0  0
    1.1410   64.8780   69.9240 C   0  0  0  0  0  0  0  0  0  0  0  0
   -0.0260   64.5650   70.1230 O   0  0  0  0  0  0  0  0  0  0  0  0
    1.5340   66.0980   69.4200 N   0  0  0  0  0  0  0  0  0  0  0  0
    5.6160   61.0710   71.1670 Cl  0  0  0  0  0  0  0  0  0  0  0  0
    4.3290   62.1610   70.8230 C   0  0  0  0  0  0  0  0  0  0  0  0
    3.3820   62.4460   71.8070 C   0  0  0  0  0  0  0  0  0  0  0  0
    2.3350   63.3310   71.5320 C   0  0  0  0  0  0  0  0  0  0  0  0
    2.2320   63.9240   70.2650 C   0  0  0  0  0  0  0  0  0  0  0  0
    3.1990   63.6420   69.2900 C   0  0  0  0  0  0  0  0  0  0  0  0
    4.2430   62.7560   69.5660 C   0  0  0  0  0  0  0  0  0  0  0  0
   -0.4619   68.0162   67.4225 H   0  0  0  0  0  0  0  0  0  0  0  0
   -0.1554   66.2383   67.2897 H   0  0  0  0  0  0  0  0  0  0  0  0
    1.8971   69.3874   67.7408 H   0  0  0  0  0  0  0  0  0  0  0  0
    3.9125   69.8721   66.3600 H   0  0  0  0  0  0  0  0  0  0  0  0
    3.4154   66.1075   64.3085 H   0  0  0  0  0  0  0  0  0  0  0  0
    1.3995   65.6104   65.6909 H   0  0  0  0  0  0  0  0  0  0  0  0
    6.0188   70.0477   63.1881 H   0  0  0  0  0  0  0  0  0  0  0  0
    6.2809   68.9817   61.7663 H   0  0  0  0  0  0  0  0  0  0  0  0
    4.9271   70.1624   61.7663 H   0  0  0  0  0  0  0  0  0  0  0  0
    2.7475   69.0714   63.9272 H   0  0  0  0  0  0  0  0  0  0  0  0
    3.1362   69.8869   62.3746 H   0  0  0  0  0  0  0  0  0  0  0  0
    2.5422   68.1917   62.3746 H   0  0  0  0  0  0  0  0  0  0  0  0
    0.9820   68.1095   69.4194 H   0  0  0  0  0  0  0  0  0  0  0  0
   -0.3646   66.9052   69.6270 H   0  0  0  0  0  0  0  0  0  0  0  0
    2.5365   66.2770   69.2656 H   0  0  0  0  0  0  0  0  0  0  0  0
    3.4589   61.9750   72.7981 H   0  0  0  0  0  0  0  0  0  0  0  0
    1.5919   63.5623   72.3094 H   0  0  0  0  0  0  0  0  0  0  0  0
    3.1353   64.1212   68.3019 H   0  0  0  0  0  0  0  0  0  0  0  0
    4.9937   62.5291   68.7947 H   0  0  0  0  0  0  0  0  0  0  0  0
  2  1  1  0
  3  2  2  0
  4  3  1  0
  5  4  2  0
  6  5  1  0
  7  2  1  0
  7  6  2  0
  8  5  1  0
  9  8  1  0
 10  9  1  0
 11  9  1  0
 12  9  1  0
 13 12  2  0
 14 12  1  0
 15  1  1  0
 17 16  2  0
 18 16  1  0
 18 15  1  0
 20 19  1  0
 21 20  2  0
 22 21  1  0
 23 22  2  0
 23 16  1  0
 24 23  1  0
 25 20  1  0
 25 24  2  0
  1 26  1  0
  1 27  1  0
  3 28  1  0
  4 29  1  0
  6 30  1  0
  7 31  1  0
 10 32  1  0
 10 33  1  0
 10 34  1  0
 11 35  1  0
 11 36  1  0
 11 37  1  0
 15 38  1  0
 15 39  1  0
 18 40  1  0
 21 41  1  0
 22 42  1  0
 24 43  1  0
 25 44  1  0
M  CHG  1  14  -1
M  END
>  <score>  (7) 
-8.116

$$$$
=
     RDKit          3D

 44 45  0  0  0  0  0  0  0  0999 V2000
    3.4760   63.4100   70.0780 C   0  0  0  0  0  0  0  0  0  0  0  0
    3.5750   62.1110   70.8350 C   0  0  0  0  0  0  0  0  0  0  0  0
    2.9080   60.9690   70.3710 C   0  0  0  0  0  0  0  0  0  0  0  0
    2.9490   59.7780   71.0970 C   0  0  0  0  0  0  0  0  0  0  0  0
    3.6320   59.7270   72.3070 C   0  0  0  0  0  0  0  0  0  0  0  0
    4.3340   60.8440   72.7600 C   0  0  0  0  0  0  0  0  0  0  0  0
    4.2960   62.0370   72.0340 C   0  0  0  0  0  0  0  0  0  0  0  0
    3.7210   58.5770   73.0390 O   0  0  0  0  0  0  0  0  0  0  0  0
    2.6550   58.3700   74.0160 C   0  0  0  0  0  0  0  0  0  0  0  0
    1.6940   59.5630   74.0660 C   0  0  0  0  0  0  0  0  0  0  0  0
    3.3720   58.2740   75.3720 C   0  0  0  0  0  0  0  0  0  0  0  0
    1.9410   56.9820   73.8580 C   0  0  0  0  0  0  0  0  0  0  0  0
    2.2450   56.1030   74.7190 O   0  0  0  0  0  0  0  0  0  0  0  0
    1.1380   56.8650   72.8830 O   0  0  0  0  0  1  0  0  0  0  0  0
    2.4220   64.3320   70.6960 C   0  0  0  0  0  0  0  0  0  0  0  0
    0.6780   65.9490   70.0160 C   0  0  0  0  0  0  0  0  0  0  0  0
    0.1760   66.0040   71.1330 O   0  0  0  0  0  0  0  0  0  0  0  0
    1.7760   65.1760   69.7060 N   0  0  0  0  0  0  0  0  0  0  0  0
   -1.6050   69.1120   65.4520 Cl  0  0  0  0  0  0  0  0  0  0  0  0
   -0.9620   68.1990   66.7620 C   0  0  0  0  0  0  0  0  0  0  0  0
   -1.7710   67.2750   67.4230 C   0  0  0  0  0  0  0  0  0  0  0  0
   -1.2520   66.5310   68.4880 C   0  0  0  0  0  0  0  0  0  0  0  0
    0.0760   66.7210   68.8950 C   0  0  0  0  0  0  0  0  0  0  0  0
    0.8840   67.6400   68.2110 C   0  0  0  0  0  0  0  0  0  0  0  0
    0.3630   68.3840   67.1490 C   0  0  0  0  0  0  0  0  0  0  0  0
    4.4530   63.9149   70.1024 H   0  0  0  0  0  0  0  0  0  0  0  0
    3.1800   63.1878   69.0421 H   0  0  0  0  0  0  0  0  0  0  0  0
    2.3470   61.0120   69.4258 H   0  0  0  0  0  0  0  0  0  0  0  0
    2.4417   58.8808   70.7126 H   0  0  0  0  0  0  0  0  0  0  0  0
    4.9183   60.7855   73.6901 H   0  0  0  0  0  0  0  0  0  0  0  0
    4.8342   62.9216   72.4052 H   0  0  0  0  0  0  0  0  0  0  0  0
    1.4853   59.8220   75.1145 H   0  0  0  0  0  0  0  0  0  0  0  0
    2.1529   60.4250   73.5597 H   0  0  0  0  0  0  0  0  0  0  0  0
    0.7541   59.2981   73.5597 H   0  0  0  0  0  0  0  0  0  0  0  0
    2.6361   58.3725   76.1837 H   0  0  0  0  0  0  0  0  0  0  0  0
    3.8773   57.3002   75.4514 H   0  0  0  0  0  0  0  0  0  0  0  0
    4.1157   59.0806   75.4514 H   0  0  0  0  0  0  0  0  0  0  0  0
    1.6561   63.7138   71.1871 H   0  0  0  0  0  0  0  0  0  0  0  0
    2.9318   64.9892   71.4158 H   0  0  0  0  0  0  0  0  0  0  0  0
    2.1487   65.1973   68.7460 H   0  0  0  0  0  0  0  0  0  0  0  0
   -2.8150   67.1315   67.1076 H   0  0  0  0  0  0  0  0  0  0  0  0
   -1.8862   65.7966   69.0062 H   0  0  0  0  0  0  0  0  0  0  0  0
    1.9333   67.7761   68.5117 H   0  0  0  0  0  0  0  0  0  0  0  0
    0.9964   69.1122   66.6213 H   0  0  0  0  0  0  0  0  0  0  0  0
  2  1  1  0
  3  2  2  0
  4  3  1  0
  5  4  2  0
  6  5  1  0
  7  2  1  0
  7  6  2  0
  8  5  1  0
  9  8  1  0
 10  9  1  0
 11  9  1  0
 12  9  1  0
 13 12  2  0
 14 12  1  0
 15  1  1  0
 17 16  2  0
 18 16  1  0
 18 15  1  0
 20 19  1  0
 21 20  2  0
 22 21  1  0
 23 22  2  0
 23 16  1  0
 24 23  1  0
 25 20  1  0
 25 24  2  0
  1 26  1  0
  1 27  1  0
  3 28  1  0
  4 29  1  0
  6 30  1  0
  7 31  1  0
 10 32  1  0
 10 33  1  0
 10 34  1  0
 11 35  1  0
 11 36  1  0
 11 37  1  0
 15 38  1  0
 15 39  1  0
 18 40  1  0
 21 41  1  0
 22 42  1  0
 24 43  1  0
 25 44  1  0
M  CHG  1  14  -1
M  END
>  <score>  (8) 
-8.011

$$$$
=
     RDKit          3D

 44 45  0  0  0  0  0  0  0  0999 V2000
    3.9860   62.7670   69.2830 C   0  0  0  0  0  0  0  0  0  0  0  0
    4.0690   61.6530   70.2940 C   0  0  0  0  0  0  0  0  0  0  0  0
    3.2830   60.5020   70.1440 C   0  0  0  0  0  0  0  0  0  0  0  0
    3.3130   59.4920   71.1070 C   0  0  0  0  0  0  0  0  0  0  0  0
    4.1050   59.6370   72.2400 C   0  0  0  0  0  0  0  0  0  0  0  0
    4.9220   60.7590   72.3820 C   0  0  0  0  0  0  0  0  0  0  0  0
    4.8960   61.7710   71.4190 C   0  0  0  0  0  0  0  0  0  0  0  0
    4.1850   58.6640   73.1950 O   0  0  0  0  0  0  0  0  0  0  0  0
    3.1260   58.6820   74.2020 C   0  0  0  0  0  0  0  0  0  0  0  0
    2.5180   60.0810   74.3580 C   0  0  0  0  0  0  0  0  0  0  0  0
    3.8250   58.3130   75.5200 C   0  0  0  0  0  0  0  0  0  0  0  0
    2.0650   57.5450   73.9950 C   0  0  0  0  0  0  0  0  0  0  0  0
    2.3260   56.4380   74.5550 O   0  0  0  0  0  0  0  0  0  0  0  0
    1.0560   57.8330   73.2820 O   0  0  0  0  0  1  0  0  0  0  0  0
    3.0070   63.8530   69.7340 C   0  0  0  0  0  0  0  0  0  0  0  0
    0.9270   63.3030   70.9560 C   0  0  0  0  0  0  0  0  0  0  0  0
    0.2160   63.4130   69.9640 O   0  0  0  0  0  0  0  0  0  0  0  0
    2.2930   63.4850   70.9450 N   0  0  0  0  0  0  0  0  0  0  0  0
   -1.5000   62.1680   76.3290 Cl  0  0  0  0  0  0  0  0  0  0  0  0
   -0.8100   62.4830   74.7840 C   0  0  0  0  0  0  0  0  0  0  0  0
   -1.1140   61.6490   73.7080 C   0  0  0  0  0  0  0  0  0  0  0  0
   -0.5570   61.9010   72.4510 C   0  0  0  0  0  0  0  0  0  0  0  0
    0.3140   62.9870   72.2750 C   0  0  0  0  0  0  0  0  0  0  0  0
    0.5990   63.8270   73.3600 C   0  0  0  0  0  0  0  0  0  0  0  0
    0.0420   63.5730   74.6160 C   0  0  0  0  0  0  0  0  0  0  0  0
    4.9837   63.2130   69.1581 H   0  0  0  0  0  0  0  0  0  0  0  0
    3.6263   62.3475   68.3319 H   0  0  0  0  0  0  0  0  0  0  0  0
    2.6372   60.3939   69.2601 H   0  0  0  0  0  0  0  0  0  0  0  0
    2.7104   58.5821   70.9694 H   0  0  0  0  0  0  0  0  0  0  0  0
    5.5876   60.8470   73.2534 H   0  0  0  0  0  0  0  0  0  0  0  0
    5.5269   62.6634   71.5444 H   0  0  0  0  0  0  0  0  0  0  0  0
    2.4147   60.3188   75.4270 H   0  0  0  0  0  0  0  0  0  0  0  0
    3.1753   60.8219   73.8794 H   0  0  0  0  0  0  0  0  0  0  0  0
    1.5279   60.1059   73.8794 H   0  0  0  0  0  0  0  0  0  0  0  0
    3.2052   58.6402   76.3678 H   0  0  0  0  0  0  0  0  0  0  0  0
    3.9658   57.2231   75.5678 H   0  0  0  0  0  0  0  0  0  0  0  0
    4.8043   58.8116   75.5678 H   0  0  0  0  0  0  0  0  0  0  0  0
    3.5692   64.7795   69.9228 H   0  0  0  0  0  0  0  0  0  0  0  0
    2.2642   63.9890   68.9342 H   0  0  0  0  0  0  0  0  0  0  0  0
    2.8224   63.3567   71.8192 H   0  0  0  0  0  0  0  0  0  0  0  0
   -1.7914   60.7938   73.8486 H   0  0  0  0  0  0  0  0  0  0  0  0
   -0.8014   61.2482   71.6000 H   0  0  0  0  0  0  0  0  0  0  0  0
    1.2652   64.6914   73.2220 H   0  0  0  0  0  0  0  0  0  0  0  0
    0.2746   64.2296   75.4673 H   0  0  0  0  0  0  0  0  0  0  0  0
  2  1  1  0
  3  2  2  0
  4  3  1  0
  5  4  2  0
  6  5  1  0
  7  2  1  0
  7  6  2  0
  8  5  1  0
  9  8  1  0
 10  9  1  0
 11  9  1  0
 12  9  1  0
 13 12  2  0
 14 12  1  0
 15  1  1  0
 17 16  2  0
 18 16  1  0
 18 15  1  0
 20 19  1  0
 21 20  2  0
 22 21  1  0
 23 22  2  0
 23 16  1  0
 24 23  1  0
 25 20  1  0
 25 24  2  0
  1 26  1  0
  1 27  1  0
  3 28  1  0
  4 29  1  0
  6 30  1  0
  7 31  1  0
 10 32  1  0
 10 33  1  0
 10 34  1  0
 11 35  1  0
 11 36  1  0
 11 37  1  0
 15 38  1  0
 15 39  1  0
 18 40  1  0
 21 41  1  0
 22 42  1  0
 24 43  1  0
 25 44  1  0
M  CHG  1  14  -1
M  END
>  <score>  (9) 
-7.866

$$$$
