=
     RDKit          3D

 21 20  0  0  0  0  0  0  0  0999 V2000
    2.2680   67.5950   64.5060 N   0  0  0  0  0  0  0  0  0  0  0  0
    2.9760   66.3990   64.4790 C   0  0  0  0  0  0  0  0  0  0  0  0
    2.6500   65.4720   65.2170 O   0  0  0  0  0  0  0  0  0  0  0  0
    4.0020   66.3560   63.5250 N   0  0  0  0  0  0  0  0  0  0  0  0
    4.8940   65.1450   63.4080 N   0  0  0  0  0  0  0  0  0  0  0  0
    4.3700   64.1700   62.8650 O   0  0  0  0  0  0  0  0  0  0  0  0
    1.1640   67.7860   65.4430 C   0  0  0  0  0  0  0  0  0  0  0  0
    3.1630   69.3420   66.5330 Cl  0  0  0  0  0  0  0  0  0  0  0  0
    1.5070   68.7010   66.6190 C   0  0  0  0  0  0  0  0  0  0  0  0
    4.1120   67.2730   62.3890 C   0  0  0  0  0  0  0  0  0  0  0  0
    5.3800   68.1150   62.4680 C   0  0  0  0  0  0  0  0  0  0  0  0
    5.1590   69.4580   63.6130 Cl  0  0  0  0  0  0  0  0  0  0  0  0
    2.5245   68.3541   63.8588 H   0  0  0  0  0  0  0  0  0  0  0  0
    0.3168   68.2259   64.8964 H   0  0  0  0  0  0  0  0  0  0  0  0
    0.9249   66.7981   65.8636 H   0  0  0  0  0  0  0  0  0  0  0  0
    1.3996   68.1289   67.5524 H   0  0  0  0  0  0  0  0  0  0  0  0
    0.8180   69.5578   66.5839 H   0  0  0  0  0  0  0  0  0  0  0  0
    4.1299   66.6874   61.4580 H   0  0  0  0  0  0  0  0  0  0  0  0
    3.2466   67.9517   62.4098 H   0  0  0  0  0  0  0  0  0  0  0  0
    6.2145   67.4833   62.8064 H   0  0  0  0  0  0  0  0  0  0  0  0
    5.5988   68.5266   61.4717 H   0  0  0  0  0  0  0  0  0  0  0  0
  2  1  1  0
  3  2  2  0
  4  2  1  0
  5  4  1  0
  6  5  2  0
  7  1  1  0
  9  8  1  0
  9  7  1  0
 10  4  1  0
 11 10  1  0
 12 11  1  0
  1 13  1  0
  7 14  1  0
  7 15  1  0
  9 16  1  0
  9 17  1  0
 10 18  1  0
 10 19  1  0
 11 20  1  0
 11 21  1  0
M  END
>  <score>  (1) 
-5.372

$$$$
=
     RDKit          3D

 21 20  0  0  0  0  0  0  0  0999 V2000
    3.5240   69.3850   66.2360 N   0  0  0  0  0  0  0  0  0  0  0  0
    2.2220   68.9790   66.5090 C   0  0  0  0  0  0  0  0  0  0  0  0
    1.7610   69.1030   67.6410 O   0  0  0  0  0  0  0  0  0  0  0  0
    1.5210   68.5000   65.3930 N   0  0  0  0  0  0  0  0  0  0  0  0
    0.1150   67.9740   65.5360 N   0  0  0  0  0  0  0  0  0  0  0  0
    0.0320   66.8590   66.0570 O   0  0  0  0  0  0  0  0  0  0  0  0
    4.3750   69.9150   67.2980 C   0  0  0  0  0  0  0  0  0  0  0  0
    6.8700   70.6340   68.2270 Cl  0  0  0  0  0  0  0  0  0  0  0  0
    5.8440   70.0580   66.8950 C   0  0  0  0  0  0  0  0  0  0  0  0
    1.9140   68.7440   64.0050 C   0  0  0  0  0  0  0  0  0  0  0  0
    0.7930   68.3880   63.0340 C   0  0  0  0  0  0  0  0  0  0  0  0
    0.0720   69.8680   62.3560 Cl  0  0  0  0  0  0  0  0  0  0  0  0
    3.8912   69.3112   65.2765 H   0  0  0  0  0  0  0  0  0  0  0  0
    3.9954   70.9068   67.5848 H   0  0  0  0  0  0  0  0  0  0  0  0
    4.3381   69.1952   68.1290 H   0  0  0  0  0  0  0  0  0  0  0  0
    5.9122   70.7748   66.0634 H   0  0  0  0  0  0  0  0  0  0  0  0
    6.2066   69.0609   66.6047 H   0  0  0  0  0  0  0  0  0  0  0  0
    2.1644   69.8086   63.8866 H   0  0  0  0  0  0  0  0  0  0  0  0
    2.7824   68.1088   63.7762 H   0  0  0  0  0  0  0  0  0  0  0  0
    1.2014   67.7756   62.2166 H   0  0  0  0  0  0  0  0  0  0  0  0
    0.0166   67.8257   63.5734 H   0  0  0  0  0  0  0  0  0  0  0  0
  2  1  1  0
  3  2  2  0
  4  2  1  0
  5  4  1  0
  6  5  2  0
  7  1  1  0
  9  8  1  0
  9  7  1  0
 10  4  1  0
 11 10  1  0
 12 11  1  0
  1 13  1  0
  7 14  1  0
  7 15  1  0
  9 16  1  0
  9 17  1  0
 10 18  1  0
 10 19  1  0
 11 20  1  0
 11 21  1  0
M  END
>  <score>  (2) 
-5.236

$$$$
=
     RDKit          3D

 21 20  0  0  0  0  0  0  0  0999 V2000
    2.8010   69.4110   67.7320 N   0  0  0  0  0  0  0  0  0  0  0  0
    1.5160   69.0800   67.3170 C   0  0  0  0  0  0  0  0  0  0  0  0
    0.5440   69.6520   67.8020 O   0  0  0  0  0  0  0  0  0  0  0  0
    1.4690   68.1190   66.2960 N   0  0  0  0  0  0  0  0  0  0  0  0
    0.1470   67.6170   65.7740 N   0  0  0  0  0  0  0  0  0  0  0  0
   -0.4210   66.8040   66.5060 O   0  0  0  0  0  0  0  0  0  0  0  0
    3.0100   70.4040   68.7840 C   0  0  0  0  0  0  0  0  0  0  0  0
    5.5270   70.1980   67.6760 Cl  0  0  0  0  0  0  0  0  0  0  0  0
    4.4760   70.7910   68.9810 C   0  0  0  0  0  0  0  0  0  0  0  0
    2.6060   67.7620   65.4470 C   0  0  0  0  0  0  0  0  0  0  0  0
    2.7820   68.7510   64.3000 C   0  0  0  0  0  0  0  0  0  0  0  0
    4.4400   69.3990   64.2930 Cl  0  0  0  0  0  0  0  0  0  0  0  0
    3.6128   68.9524   67.2943 H   0  0  0  0  0  0  0  0  0  0  0  0
    2.4435   71.3103   68.5237 H   0  0  0  0  0  0  0  0  0  0  0  0
    2.6675   69.9513   69.7262 H   0  0  0  0  0  0  0  0  0  0  0  0
    4.8262   70.3676   69.9339 H   0  0  0  0  0  0  0  0  0  0  0  0
    4.5316   71.8896   68.9773 H   0  0  0  0  0  0  0  0  0  0  0  0
    3.5205   67.7577   66.0582 H   0  0  0  0  0  0  0  0  0  0  0  0
    2.4160   66.7672   65.0176 H   0  0  0  0  0  0  0  0  0  0  0  0
    2.5885   68.2387   63.3460 H   0  0  0  0  0  0  0  0  0  0  0  0
    2.0733   69.5819   64.4317 H   0  0  0  0  0  0  0  0  0  0  0  0
  2  1  1  0
  3  2  2  0
  4  2  1  0
  5  4  1  0
  6  5  2  0
  7  1  1  0
  9  8  1  0
  9  7  1  0
 10  4  1  0
 11 10  1  0
 12 11  1  0
  1 13  1  0
  7 14  1  0
  7 15  1  0
  9 16  1  0
  9 17  1  0
 10 18  1  0
 10 19  1  0
 11 20  1  0
 11 21  1  0
M  END
>  <score>  (3) 
-5.193

$$$$
=
     RDKit          3D

 21 20  0  0  0  0  0  0  0  0999 V2000
    4.3170   69.2730   64.8870 N   0  0  0  0  0  0  0  0  0  0  0  0
    4.4060   69.0120   63.5240 C   0  0  0  0  0  0  0  0  0  0  0  0
    5.4610   69.2060   62.9260 O   0  0  0  0  0  0  0  0  0  0  0  0
    3.2390   68.4740   62.9620 N   0  0  0  0  0  0  0  0  0  0  0  0
    3.1600   68.1850   61.4840 N   0  0  0  0  0  0  0  0  0  0  0  0
    2.7550   69.1240   60.7960 O   0  0  0  0  0  0  0  0  0  0  0  0
    5.4560   69.8280   65.6130 C   0  0  0  0  0  0  0  0  0  0  0  0
    6.6310   70.5500   68.0010 Cl  0  0  0  0  0  0  0  0  0  0  0  0
    5.1740   70.0880   67.0930 C   0  0  0  0  0  0  0  0  0  0  0  0
    2.1570   67.8620   63.7340 C   0  0  0  0  0  0  0  0  0  0  0  0
    0.9810   68.8170   63.9060 C   0  0  0  0  0  0  0  0  0  0  0  0
   -0.1340   68.6770   62.5260 Cl  0  0  0  0  0  0  0  0  0  0  0  0
    3.4400   69.0731   65.3889 H   0  0  0  0  0  0  0  0  0  0  0  0
    6.2940   69.1194   65.5384 H   0  0  0  0  0  0  0  0  0  0  0  0
    5.6867   70.8007   65.1540 H   0  0  0  0  0  0  0  0  0  0  0  0
    4.7584   69.1718   67.5379 H   0  0  0  0  0  0  0  0  0  0  0  0
    4.4662   70.9279   67.1528 H   0  0  0  0  0  0  0  0  0  0  0  0
    1.8103   66.9595   63.2093 H   0  0  0  0  0  0  0  0  0  0  0  0
    2.5455   67.6111   64.7321 H   0  0  0  0  0  0  0  0  0  0  0  0
    0.4440   68.5683   64.8333 H   0  0  0  0  0  0  0  0  0  0  0  0
    1.3612   69.8480   63.9561 H   0  0  0  0  0  0  0  0  0  0  0  0
  2  1  1  0
  3  2  2  0
  4  2  1  0
  5  4  1  0
  6  5  2  0
  7  1  1  0
  9  8  1  0
  9  7  1  0
 10  4  1  0
 11 10  1  0
 12 11  1  0
  1 13  1  0
  7 14  1  0
  7 15  1  0
  9 16  1  0
  9 17  1  0
 10 18  1  0
 10 19  1  0
 11 20  1  0
 11 21  1  0
M  END
>  <score>  (4) 
-5.176

$$$$
=
     RDKit          3D

 21 20  0  0  0  0  0  0  0  0999 V2000
    4.6220   68.3430   64.9010 N   0  0  0  0  0  0  0  0  0  0  0  0
    3.2360   68.2230   64.8940 C   0  0  0  0  0  0  0  0  0  0  0  0
    2.5310   69.2030   65.1200 O   0  0  0  0  0  0  0  0  0  0  0  0
    2.7690   66.9450   64.5560 N   0  0  0  0  0  0  0  0  0  0  0  0
    1.2920   66.6410   64.5540 N   0  0  0  0  0  0  0  0  0  0  0  0
    0.7750   66.5910   65.6720 O   0  0  0  0  0  0  0  0  0  0  0  0
    5.2560   69.6180   65.2280 C   0  0  0  0  0  0  0  0  0  0  0  0
    6.8850   70.3110   67.3420 Cl  0  0  0  0  0  0  0  0  0  0  0  0
    5.2610   69.9370   66.7230 C   0  0  0  0  0  0  0  0  0  0  0  0
    3.5760   65.9210   63.8900 C   0  0  0  0  0  0  0  0  0  0  0  0
    3.5440   64.6000   64.6500 C   0  0  0  0  0  0  0  0  0  0  0  0
    4.7870   63.4940   64.0170 Cl  0  0  0  0  0  0  0  0  0  0  0  0
    5.2063   67.5258   64.6737 H   0  0  0  0  0  0  0  0  0  0  0  0
    6.2977   69.5881   64.8759 H   0  0  0  0  0  0  0  0  0  0  0  0
    4.6679   70.4052   64.7336 H   0  0  0  0  0  0  0  0  0  0  0  0
    4.8684   69.0668   67.2694 H   0  0  0  0  0  0  0  0  0  0  0  0
    4.6356   70.8293   66.8734 H   0  0  0  0  0  0  0  0  0  0  0  0
    3.1816   65.7592   62.8760 H   0  0  0  0  0  0  0  0  0  0  0  0
    4.6177   66.2727   63.8546 H   0  0  0  0  0  0  0  0  0  0  0  0
    3.7361   64.7899   65.7163 H   0  0  0  0  0  0  0  0  0  0  0  0
    2.5543   64.1372   64.5224 H   0  0  0  0  0  0  0  0  0  0  0  0
  2  1  1  0
  3  2  2  0
  4  2  1  0
  5  4  1  0
  6  5  2  0
  7  1  1  0
  9  8  1  0
  9  7  1  0
 10  4  1  0
 11 10  1  0
 12 11  1  0
  1 13  1  0
  7 14  1  0
  7 15  1  0
  9 16  1  0
  9 17  1  0
 10 18  1  0
 10 19  1  0
 11 20  1  0
 11 21  1  0
M  END
>  <score>  (5) 
-5.14

$$$$
=
     RDKit          3D

 21 20  0  0  0  0  0  0  0  0999 V2000
    4.0990   69.3770   66.0000 N   0  0  0  0  0  0  0  0  0  0  0  0
    2.8610   68.7420   66.0060 C   0  0  0  0  0  0  0  0  0  0  0  0
    2.1910   68.7050   67.0340 O   0  0  0  0  0  0  0  0  0  0  0  0
    2.4670   68.2370   64.7590 N   0  0  0  0  0  0  0  0  0  0  0  0
    1.1730   67.4760   64.6110 N   0  0  0  0  0  0  0  0  0  0  0  0
    1.2070   66.3160   65.0250 O   0  0  0  0  0  0  0  0  0  0  0  0
    4.6400   69.9600   67.2250 C   0  0  0  0  0  0  0  0  0  0  0  0
    6.7960   70.8190   68.7150 Cl  0  0  0  0  0  0  0  0  0  0  0  0
    6.1530   70.1760   67.1870 C   0  0  0  0  0  0  0  0  0  0  0  0
    3.0530   68.6430   63.4800 C   0  0  0  0  0  0  0  0  0  0  0  0
    3.6630   67.4580   62.7410 C   0  0  0  0  0  0  0  0  0  0  0  0
    4.5270   66.3980   63.8810 Cl  0  0  0  0  0  0  0  0  0  0  0  0
    4.6383   69.4364   65.1245 H   0  0  0  0  0  0  0  0  0  0  0  0
    4.1544   70.9330   67.3904 H   0  0  0  0  0  0  0  0  0  0  0  0
    4.4376   69.2463   68.0372 H   0  0  0  0  0  0  0  0  0  0  0  0
    6.3864   70.8869   66.3807 H   0  0  0  0  0  0  0  0  0  0  0  0
    6.6231   69.1963   67.0161 H   0  0  0  0  0  0  0  0  0  0  0  0
    2.2670   69.0887   62.8527 H   0  0  0  0  0  0  0  0  0  0  0  0
    3.8528   69.3703   63.6834 H   0  0  0  0  0  0  0  0  0  0  0  0
    2.8626   66.8860   62.2489 H   0  0  0  0  0  0  0  0  0  0  0  0
    4.3747   67.8321   61.9903 H   0  0  0  0  0  0  0  0  0  0  0  0
  2  1  1  0
  3  2  2  0
  4  2  1  0
  5  4  1  0
  6  5  2  0
  7  1  1  0
  9  8  1  0
  9  7  1  0
 10  4  1  0
 11 10  1  0
 12 11  1  0
  1 13  1  0
  7 14  1  0
  7 15  1  0
  9 16  1  0
  9 17  1  0
 10 18  1  0
 10 19  1  0
 11 20  1  0
 11 21  1  0
M  END
>  <score>  (6) 
-5.11

$$$$
=
     RDKit          3D

 21 20  0  0  0  0  0  0  0  0999 V2000
    3.3470   67.3660   64.2810 N   0  0  0  0  0  0  0  0  0  0  0  0
    2.3350   66.6630   64.9250 C   0  0  0  0  0  0  0  0  0  0  0  0
    2.3460   65.4350   64.9330 O   0  0  0  0  0  0  0  0  0  0  0  0
    1.3950   67.4730   65.5770 N   0  0  0  0  0  0  0  0  0  0  0  0
    0.2080   66.8610   66.2780 N   0  0  0  0  0  0  0  0  0  0  0  0
   -0.8340   67.5140   66.1930 O   0  0  0  0  0  0  0  0  0  0  0  0
    4.4050   66.6580   63.5640 C   0  0  0  0  0  0  0  0  0  0  0  0
    3.4130   68.3600   61.6340 Cl  0  0  0  0  0  0  0  0  0  0  0  0
    4.4870   67.0150   62.0790 C   0  0  0  0  0  0  0  0  0  0  0  0
    1.6120   68.8790   65.9180 C   0  0  0  0  0  0  0  0  0  0  0  0
    2.2520   69.0310   67.2940 C   0  0  0  0  0  0  0  0  0  0  0  0
    3.8990   69.6860   67.1400 Cl  0  0  0  0  0  0  0  0  0  0  0  0
    3.3509   68.3956   64.3096 H   0  0  0  0  0  0  0  0  0  0  0  0
    5.3683   66.9049   64.0342 H   0  0  0  0  0  0  0  0  0  0  0  0
    4.1713   65.5848   63.6241 H   0  0  0  0  0  0  0  0  0  0  0  0
    4.2057   66.1304   61.4887 H   0  0  0  0  0  0  0  0  0  0  0  0
    5.5194   67.3326   61.8711 H   0  0  0  0  0  0  0  0  0  0  0  0
    2.2739   69.3309   65.1646 H   0  0  0  0  0  0  0  0  0  0  0  0
    0.6346   69.3834   65.9357 H   0  0  0  0  0  0  0  0  0  0  0  0
    1.6444   69.7164   67.9031 H   0  0  0  0  0  0  0  0  0  0  0  0
    2.3033   68.0435   67.7758 H   0  0  0  0  0  0  0  0  0  0  0  0
  2  1  1  0
  3  2  2  0
  4  2  1  0
  5  4  1  0
  6  5  2  0
  7  1  1  0
  9  8  1  0
  9  7  1  0
 10  4  1  0
 11 10  1  0
 12 11  1  0
  1 13  1  0
  7 14  1  0
  7 15  1  0
  9 16  1  0
  9 17  1  0
 10 18  1  0
 10 19  1  0
 11 20  1  0
 11 21  1  0
M  END
>  <score>  (7) 
-5.081

$$$$
=
     RDKit          3D

 21 20  0  0  0  0  0  0  0  0999 V2000
    3.2600   69.5470   66.9070 N   0  0  0  0  0  0  0  0  0  0  0  0
    2.7640   68.6620   65.9550 C   0  0  0  0  0  0  0  0  0  0  0  0
    3.5320   68.0830   65.1910 O   0  0  0  0  0  0  0  0  0  0  0  0
    1.3760   68.4730   66.0100 N   0  0  0  0  0  0  0  0  0  0  0  0
    0.6800   67.5830   65.0110 N   0  0  0  0  0  0  0  0  0  0  0  0
    0.2850   68.1590   63.9950 O   0  0  0  0  0  0  0  0  0  0  0  0
    4.6890   69.8380   66.9770 C   0  0  0  0  0  0  0  0  0  0  0  0
    6.8710   70.7380   68.4030 Cl  0  0  0  0  0  0  0  0  0  0  0  0
    5.1090   70.5500   68.2640 C   0  0  0  0  0  0  0  0  0  0  0  0
    0.5400   68.8230   67.1600 C   0  0  0  0  0  0  0  0  0  0  0  0
    0.0660   67.5810   67.9070 C   0  0  0  0  0  0  0  0  0  0  0  0
    1.2270   67.1470   69.1840 Cl  0  0  0  0  0  0  0  0  0  0  0  0
    2.6135   70.0008   67.5681 H   0  0  0  0  0  0  0  0  0  0  0  0
    5.2405   68.8886   66.9095 H   0  0  0  0  0  0  0  0  0  0  0  0
    4.9199   70.5176   66.1435 H   0  0  0  0  0  0  0  0  0  0  0  0
    4.7491   69.9648   69.1230 H   0  0  0  0  0  0  0  0  0  0  0  0
    4.6688   71.5579   68.2439 H   0  0  0  0  0  0  0  0  0  0  0  0
    1.1240   69.4522   67.8477 H   0  0  0  0  0  0  0  0  0  0  0  0
   -0.3452   69.3618   66.7911 H   0  0  0  0  0  0  0  0  0  0  0  0
   -0.9148   67.7835   68.3620 H   0  0  0  0  0  0  0  0  0  0  0  0
   -0.0133   66.7449   67.1966 H   0  0  0  0  0  0  0  0  0  0  0  0
  2  1  1  0
  3  2  2  0
  4  2  1  0
  5  4  1  0
  6  5  2  0
  7  1  1  0
  9  8  1  0
  9  7  1  0
 10  4  1  0
 11 10  1  0
 12 11  1  0
  1 13  1  0
  7 14  1  0
  7 15  1  0
  9 16  1  0
  9 17  1  0
 10 18  1  0
 10 19  1  0
 11 20  1  0
 11 21  1  0
M  END
>  <score>  (8) 
-4.991

$$$$
=
     RDKit          3D

 21 20  0  0  0  0  0  0  0  0999 V2000
    4.5960   69.5500   66.4390 N   0  0  0  0  0  0  0  0  0  0  0  0
    4.3950   69.3960   65.0710 C   0  0  0  0  0  0  0  0  0  0  0  0
    5.2470   69.7810   64.2750 O   0  0  0  0  0  0  0  0  0  0  0  0
    3.2060   68.7340   64.7340 N   0  0  0  0  0  0  0  0  0  0  0  0
    2.8190   68.5350   63.2900 N   0  0  0  0  0  0  0  0  0  0  0  0
    3.3400   67.5580   62.7460 O   0  0  0  0  0  0  0  0  0  0  0  0
    5.7940   70.2140   66.9430 C   0  0  0  0  0  0  0  0  0  0  0  0
    7.2480   70.9920   69.1540 Cl  0  0  0  0  0  0  0  0  0  0  0  0
    5.6710   70.6890   68.3920 C   0  0  0  0  0  0  0  0  0  0  0  0
    2.4210   67.9210   65.6640 C   0  0  0  0  0  0  0  0  0  0  0  0
    1.0530   68.5380   65.9320 C   0  0  0  0  0  0  0  0  0  0  0  0
    0.9210   69.0310   67.6360 Cl  0  0  0  0  0  0  0  0  0  0  0  0
    3.8933   69.1924   67.1018 H   0  0  0  0  0  0  0  0  0  0  0  0
    6.6351   69.5079   66.8793 H   0  0  0  0  0  0  0  0  0  0  0  0
    5.9496   71.1096   66.3235 H   0  0  0  0  0  0  0  0  0  0  0  0
    5.1433   69.9170   68.9713 H   0  0  0  0  0  0  0  0  0  0  0  0
    5.1194   71.6407   68.3828 H   0  0  0  0  0  0  0  0  0  0  0  0
    2.2822   66.9188   65.2324 H   0  0  0  0  0  0  0  0  0  0  0  0
    2.9664   67.8660   66.6177 H   0  0  0  0  0  0  0  0  0  0  0  0
    0.9201   69.4197   65.2878 H   0  0  0  0  0  0  0  0  0  0  0  0
    0.2750   67.7915   65.7143 H   0  0  0  0  0  0  0  0  0  0  0  0
  2  1  1  0
  3  2  2  0
  4  2  1  0
  5  4  1  0
  6  5  2  0
  7  1  1  0
  9  8  1  0
  9  7  1  0
 10  4  1  0
 11 10  1  0
 12 11  1  0
  1 13  1  0
  7 14  1  0
  7 15  1  0
  9 16  1  0
  9 17  1  0
 10 18  1  0
 10 19  1  0
 11 20  1  0
 11 21  1  0
M  END
>  <score>  (9) 
-4.914

$$$$
