=
     RDKit          3D

 43 46  0  0  0  0  0  0  0  0999 V2000
   -0.8090   61.6220   73.5850 O   0  0  0  0  0  0  0  0  0  0  0  0
   -0.2500   60.5610   73.3340 C   0  0  0  0  0  0  0  0  0  0  0  0
    1.0170   60.4920   72.5030 C   0  0  0  0  0  0  0  0  0  0  0  0
    1.7290   59.2700   72.4910 C   0  0  0  0  0  0  0  0  0  0  0  0
    1.1650   58.1420   73.1940 C   0  0  0  0  0  0  0  0  0  0  0  0
   -0.0210   58.0790   73.8670 C   0  0  0  0  0  0  0  0  0  0  0  0
   -0.8410   59.2610   73.9290 C   0  0  0  0  0  0  0  0  0  0  0  0
   -1.9640   59.2740   74.4200 O   0  0  0  0  0  0  0  0  0  0  0  0
   -0.1350   56.7490   74.3530 C   0  0  0  0  0  0  0  0  0  0  0  0
   -1.2410   56.1560   75.1430 C   0  0  0  0  0  0  0  0  0  0  0  0
    1.0200   56.0720   73.9260 C   0  0  0  0  0  0  0  0  0  0  0  0
    1.8110   56.9610   73.2160 O   0  0  0  0  0  0  0  0  0  0  0  0
    2.9320   59.1670   71.7990 C   0  0  0  0  0  0  0  0  0  0  0  0
    3.4460   60.2720   71.1280 C   0  0  0  0  0  0  0  0  0  0  0  0
    2.7700   61.5080   71.1140 C   0  0  0  0  0  0  0  0  0  0  0  0
    1.5160   61.6100   71.7750 C   0  0  0  0  0  0  0  0  0  0  0  0
    0.7300   62.9050   71.7240 C   0  0  0  0  0  0  0  0  0  0  0  0
    1.1810   63.8830   70.6480 C   0  0  0  0  0  0  0  0  0  0  0  0
    2.6900   64.0240   70.6820 C   0  0  0  0  0  0  0  0  0  0  0  0
    3.3970   62.6900   70.3520 C   0  0  0  0  0  0  0  0  0  0  0  0
    4.8870   62.8800   70.7240 C   0  0  0  0  0  0  0  0  0  0  0  0
    3.3070   62.4100   68.8360 C   0  0  0  0  0  0  0  0  0  0  0  0
    1.5360   54.3210   74.1870 S   0  0  0  0  0  6  0  0  0  0  0  0
    0.3200   53.6010   73.8320 O   0  0  0  0  0  0  0  0  0  0  0  0
    1.8840   54.3560   75.6030 O   0  0  0  0  0  0  0  0  0  0  0  0
    2.6480   54.2340   73.2480 O   0  0  0  0  0  1  0  0  0  0  0  0
   -1.0275   56.2704   76.2160 H   0  0  0  0  0  0  0  0  0  0  0  0
   -2.1823   56.6704   74.8995 H   0  0  0  0  0  0  0  0  0  0  0  0
   -1.3335   55.0873   74.8995 H   0  0  0  0  0  0  0  0  0  0  0  0
    3.4767   58.2115   71.7826 H   0  0  0  0  0  0  0  0  0  0  0  0
    4.4038   60.1784   70.5953 H   0  0  0  0  0  0  0  0  0  0  0  0
   -0.3260   62.6575   71.5407 H   0  0  0  0  0  0  0  0  0  0  0  0
    0.8968   63.4069   72.6885 H   0  0  0  0  0  0  0  0  0  0  0  0
    0.8714   63.5085   69.6612 H   0  0  0  0  0  0  0  0  0  0  0  0
    0.7203   64.8645   70.8332 H   0  0  0  0  0  0  0  0  0  0  0  0
    2.9939   64.7806   69.9436 H   0  0  0  0  0  0  0  0  0  0  0  0
    2.9832   64.3248   71.6986 H   0  0  0  0  0  0  0  0  0  0  0  0
    4.9927   62.8935   71.8188 H   0  0  0  0  0  0  0  0  0  0  0  0
    5.4773   62.0499   70.3088 H   0  0  0  0  0  0  0  0  0  0  0  0
    5.2501   63.8317   70.3088 H   0  0  0  0  0  0  0  0  0  0  0  0
    2.9741   61.3742   68.6736 H   0  0  0  0  0  0  0  0  0  0  0  0
    2.5863   63.1030   68.3773 H   0  0  0  0  0  0  0  0  0  0  0  0
    4.2965   62.5533   68.3773 H   0  0  0  0  0  0  0  0  0  0  0  0
  2  1  2  0
  3  2  1  0
  4  3  2  0
  5  4  1  0
  6  5  2  0
  7  6  1  0
  7  2  1  0
  8  7  2  0
  9  6  1  0
 10  9  1  0
 11  9  2  0
 12 11  1  0
 12  5  1  0
 13  4  1  0
 14 13  2  0
 15 14  1  0
 16 15  2  0
 16  3  1  0
 17 16  1  0
 18 17  1  0
 19 18  1  0
 20 19  1  0
 20 15  1  0
 21 20  1  0
 22 20  1  0
 23 11  1  0
 24 23  2  0
 25 23  2  0
 26 23  1  0
 10 27  1  0
 10 28  1  0
 10 29  1  0
 13 30  1  0
 14 31  1  0
 17 32  1  0
 17 33  1  0
 18 34  1  0
 18 35  1  0
 19 36  1  0
 19 37  1  0
 21 38  1  0
 21 39  1  0
 21 40  1  0
 22 41  1  0
 22 42  1  0
 22 43  1  0
M  CHG  1  26  -1
M  END
>  <score>  (1) 
-10.787

$$$$
=
     RDKit          3D

 43 46  0  0  0  0  0  0  0  0999 V2000
   -0.4060   63.0000   72.8710 O   0  0  0  0  0  0  0  0  0  0  0  0
   -0.3220   61.7820   72.9770 C   0  0  0  0  0  0  0  0  0  0  0  0
    0.8970   61.0120   72.5050 C   0  0  0  0  0  0  0  0  0  0  0  0
    1.0170   59.6620   72.9070 C   0  0  0  0  0  0  0  0  0  0  0  0
   -0.0630   59.0740   73.6640 C   0  0  0  0  0  0  0  0  0  0  0  0
   -1.2430   59.6520   74.0310 C   0  0  0  0  0  0  0  0  0  0  0  0
   -1.4840   61.0230   73.6580 C   0  0  0  0  0  0  0  0  0  0  0  0
   -2.5500   61.5930   73.8530 O   0  0  0  0  0  0  0  0  0  0  0  0
   -1.9760   58.6560   74.7300 C   0  0  0  0  0  0  0  0  0  0  0  0
   -3.3270   58.7690   75.3320 C   0  0  0  0  0  0  0  0  0  0  0  0
   -1.1720   57.5040   74.7350 C   0  0  0  0  0  0  0  0  0  0  0  0
    0.0110   57.7930   74.0730 O   0  0  0  0  0  0  0  0  0  0  0  0
    2.1450   58.9250   72.5580 C   0  0  0  0  0  0  0  0  0  0  0  0
    3.1660   59.5200   71.8250 C   0  0  0  0  0  0  0  0  0  0  0  0
    3.0890   60.8620   71.4040 C   0  0  0  0  0  0  0  0  0  0  0  0
    1.9190   61.6090   71.7110 C   0  0  0  0  0  0  0  0  0  0  0  0
    1.7720   63.0340   71.2170 C   0  0  0  0  0  0  0  0  0  0  0  0
    2.7380   63.4280   70.1090 C   0  0  0  0  0  0  0  0  0  0  0  0
    4.1450   62.9940   70.4750 C   0  0  0  0  0  0  0  0  0  0  0  0
    4.2560   61.4570   70.5960 C   0  0  0  0  0  0  0  0  0  0  0  0
    5.6190   61.1680   71.2690 C   0  0  0  0  0  0  0  0  0  0  0  0
    4.2650   60.8200   69.1890 C   0  0  0  0  0  0  0  0  0  0  0  0
   -1.4890   55.8360   75.4540 S   0  0  0  0  0  6  0  0  0  0  0  0
   -2.8800   55.6140   75.0770 O   0  0  0  0  0  0  0  0  0  0  0  0
   -1.2300   56.1020   76.8650 O   0  0  0  0  0  0  0  0  0  0  0  0
   -0.4840   55.0510   74.7470 O   0  0  0  0  0  1  0  0  0  0  0  0
   -3.2415   58.7619   76.4287 H   0  0  0  0  0  0  0  0  0  0  0  0
   -3.7958   59.7095   75.0069 H   0  0  0  0  0  0  0  0  0  0  0  0
   -3.9455   57.9195   75.0069 H   0  0  0  0  0  0  0  0  0  0  0  0
    2.2289   57.8712   72.8622 H   0  0  0  0  0  0  0  0  0  0  0  0
    4.0564   58.9276   71.5674 H   0  0  0  0  0  0  0  0  0  0  0  0
    0.7470   63.1610   70.8386 H   0  0  0  0  0  0  0  0  0  0  0  0
    2.0018   63.6842   72.0740 H   0  0  0  0  0  0  0  0  0  0  0  0
    2.4372   62.9383   69.1711 H   0  0  0  0  0  0  0  0  0  0  0  0
    2.7169   64.5202   69.9803 H   0  0  0  0  0  0  0  0  0  0  0  0
    4.8392   63.3413   69.6956 H   0  0  0  0  0  0  0  0  0  0  0  0
    4.3964   63.4338   71.4514 H   0  0  0  0  0  0  0  0  0  0  0  0
    5.5007   61.1931   72.3623 H   0  0  0  0  0  0  0  0  0  0  0  0
    5.9763   60.1741   70.9616 H   0  0  0  0  0  0  0  0  0  0  0  0
    6.3489   61.9313   70.9616 H   0  0  0  0  0  0  0  0  0  0  0  0
    4.2805   59.7241   69.2828 H   0  0  0  0  0  0  0  0  0  0  0  0
    3.3624   61.1284   68.6411 H   0  0  0  0  0  0  0  0  0  0  0  0
    5.1585   61.1538   68.6411 H   0  0  0  0  0  0  0  0  0  0  0  0
  2  1  2  0
  3  2  1  0
  4  3  2  0
  5  4  1  0
  6  5  2  0
  7  6  1  0
  7  2  1  0
  8  7  2  0
  9  6  1  0
 10  9  1  0
 11  9  2  0
 12 11  1  0
 12  5  1  0
 13  4  1  0
 14 13  2  0
 15 14  1  0
 16 15  2  0
 16  3  1  0
 17 16  1  0
 18 17  1  0
 19 18  1  0
 20 19  1  0
 20 15  1  0
 21 20  1  0
 22 20  1  0
 23 11  1  0
 24 23  2  0
 25 23  2  0
 26 23  1  0
 10 27  1  0
 10 28  1  0
 10 29  1  0
 13 30  1  0
 14 31  1  0
 17 32  1  0
 17 33  1  0
 18 34  1  0
 18 35  1  0
 19 36  1  0
 19 37  1  0
 21 38  1  0
 21 39  1  0
 21 40  1  0
 22 41  1  0
 22 42  1  0
 22 43  1  0
M  CHG  1  26  -1
M  END
>  <score>  (2) 
-10.059

$$$$
=
     RDKit          3D

 43 46  0  0  0  0  0  0  0  0999 V2000
   -2.0850   60.3540   73.9530 O   0  0  0  0  0  0  0  0  0  0  0  0
   -0.9180   60.2520   73.5960 C   0  0  0  0  0  0  0  0  0  0  0  0
   -0.1560   58.9430   73.6850 C   0  0  0  0  0  0  0  0  0  0  0  0
    1.0830   58.8560   73.0110 C   0  0  0  0  0  0  0  0  0  0  0  0
    1.5910   60.0380   72.3550 C   0  0  0  0  0  0  0  0  0  0  0  0
    1.0340   61.2840   72.3210 C   0  0  0  0  0  0  0  0  0  0  0  0
   -0.2220   61.4950   72.9930 C   0  0  0  0  0  0  0  0  0  0  0  0
   -0.7460   62.5970   73.1040 O   0  0  0  0  0  0  0  0  0  0  0  0
    1.9280   62.1010   71.5800 C   0  0  0  0  0  0  0  0  0  0  0  0
    1.7950   63.5430   71.2570 C   0  0  0  0  0  0  0  0  0  0  0  0
    3.0020   61.2760   71.2070 C   0  0  0  0  0  0  0  0  0  0  0  0
    2.7630   60.0000   71.6950 O   0  0  0  0  0  0  0  0  0  0  0  0
    1.7950   57.6600   73.0050 C   0  0  0  0  0  0  0  0  0  0  0  0
    1.2810   56.5400   73.6500 C   0  0  0  0  0  0  0  0  0  0  0  0
    0.0500   56.5820   74.3340 C   0  0  0  0  0  0  0  0  0  0  0  0
   -0.6610   57.8110   74.3890 C   0  0  0  0  0  0  0  0  0  0  0  0
   -1.9550   57.9100   75.1730 C   0  0  0  0  0  0  0  0  0  0  0  0
   -2.1980   56.7680   76.1500 C   0  0  0  0  0  0  0  0  0  0  0  0
   -1.9360   55.4410   75.4640 C   0  0  0  0  0  0  0  0  0  0  0  0
   -0.4600   55.3050   75.0250 C   0  0  0  0  0  0  0  0  0  0  0  0
   -0.3950   54.0810   74.0810 C   0  0  0  0  0  0  0  0  0  0  0  0
    0.4280   55.0150   76.2560 C   0  0  0  0  0  0  0  0  0  0  0  0
    4.5230   61.6660   70.2400 S   0  0  0  0  0  6  0  0  0  0  0  0
    5.0960   62.7540   71.0230 O   0  0  0  0  0  0  0  0  0  0  0  0
    3.9340   62.0280   68.9550 O   0  0  0  0  0  0  0  0  0  0  0  0
    5.2100   60.3810   70.3020 O   0  0  0  0  0  1  0  0  0  0  0  0
    1.7414   64.1242   72.1894 H   0  0  0  0  0  0  0  0  0  0  0  0
    2.6668   63.8694   70.6711 H   0  0  0  0  0  0  0  0  0  0  0  0
    0.8782   63.7045   70.6711 H   0  0  0  0  0  0  0  0  0  0  0  0
    2.7650   57.6005   72.4897 H   0  0  0  0  0  0  0  0  0  0  0  0
    1.8494   55.5986   73.6255 H   0  0  0  0  0  0  0  0  0  0  0  0
   -1.9387   58.8506   75.7431 H   0  0  0  0  0  0  0  0  0  0  0  0
   -2.7690   57.8645   74.4345 H   0  0  0  0  0  0  0  0  0  0  0  0
   -1.5217   56.8738   77.0111 H   0  0  0  0  0  0  0  0  0  0  0  0
   -3.2426   56.7996   76.4933 H   0  0  0  0  0  0  0  0  0  0  0  0
   -2.1768   54.6255   76.1618 H   0  0  0  0  0  0  0  0  0  0  0  0
   -2.5670   55.3899   74.5645 H   0  0  0  0  0  0  0  0  0  0  0  0
   -0.3460   53.1590   74.6789 H   0  0  0  0  0  0  0  0  0  0  0  0
   -1.2933   54.0592   73.4464 H   0  0  0  0  0  0  0  0  0  0  0  0
    0.5005   54.1545   73.4464 H   0  0  0  0  0  0  0  0  0  0  0  0
   -0.1466   55.2027   77.1750 H   0  0  0  0  0  0  0  0  0  0  0  0
    0.7525   53.9642   76.2346 H   0  0  0  0  0  0  0  0  0  0  0  0
    1.3102   55.6717   76.2346 H   0  0  0  0  0  0  0  0  0  0  0  0
  2  1  2  0
  3  2  1  0
  4  3  2  0
  5  4  1  0
  6  5  2  0
  7  6  1  0
  7  2  1  0
  8  7  2  0
  9  6  1  0
 10  9  1  0
 11  9  2  0
 12 11  1  0
 12  5  1  0
 13  4  1  0
 14 13  2  0
 15 14  1  0
 16 15  2  0
 16  3  1  0
 17 16  1  0
 18 17  1  0
 19 18  1  0
 20 19  1  0
 20 15  1  0
 21 20  1  0
 22 20  1  0
 23 11  1  0
 24 23  2  0
 25 23  2  0
 26 23  1  0
 10 27  1  0
 10 28  1  0
 10 29  1  0
 13 30  1  0
 14 31  1  0
 17 32  1  0
 17 33  1  0
 18 34  1  0
 18 35  1  0
 19 36  1  0
 19 37  1  0
 21 38  1  0
 21 39  1  0
 21 40  1  0
 22 41  1  0
 22 42  1  0
 22 43  1  0
M  CHG  1  26  -1
M  END
>  <score>  (3) 
-9.401

$$$$
=
     RDKit          3D

 43 46  0  0  0  0  0  0  0  0999 V2000
    1.1300   57.4490   74.2900 O   0  0  0  0  0  0  0  0  0  0  0  0
    1.0260   58.4320   73.5670 C   0  0  0  0  0  0  0  0  0  0  0  0
   -0.1630   59.3720   73.6450 C   0  0  0  0  0  0  0  0  0  0  0  0
   -0.0690   60.6090   72.9680 C   0  0  0  0  0  0  0  0  0  0  0  0
    1.1090   60.8680   72.1740 C   0  0  0  0  0  0  0  0  0  0  0  0
    2.1710   60.0390   71.9520 C   0  0  0  0  0  0  0  0  0  0  0  0
    2.1730   58.7410   72.5760 C   0  0  0  0  0  0  0  0  0  0  0  0
    3.0280   57.8920   72.3560 O   0  0  0  0  0  0  0  0  0  0  0  0
    3.0490   60.7390   71.0830 C   0  0  0  0  0  0  0  0  0  0  0  0
    4.3470   60.2790   70.5290 C   0  0  0  0  0  0  0  0  0  0  0  0
    2.4430   61.9800   70.8230 C   0  0  0  0  0  0  0  0  0  0  0  0
    1.2450   62.0350   71.5180 O   0  0  0  0  0  0  0  0  0  0  0  0
   -1.1030   61.5370   73.0580 C   0  0  0  0  0  0  0  0  0  0  0  0
   -2.2260   61.2550   73.8270 C   0  0  0  0  0  0  0  0  0  0  0  0
   -2.3620   60.0350   74.5190 C   0  0  0  0  0  0  0  0  0  0  0  0
   -1.3350   59.0600   74.3930 C   0  0  0  0  0  0  0  0  0  0  0  0
   -1.4790   57.7100   75.0680 C   0  0  0  0  0  0  0  0  0  0  0  0
   -2.8910   57.3720   75.5250 C   0  0  0  0  0  0  0  0  0  0  0  0
   -3.4870   58.5520   76.2680 C   0  0  0  0  0  0  0  0  0  0  0  0
   -3.6320   59.7900   75.3530 C   0  0  0  0  0  0  0  0  0  0  0  0
   -3.9420   60.9880   76.2820 C   0  0  0  0  0  0  0  0  0  0  0  0
   -4.8280   59.5960   74.3950 C   0  0  0  0  0  0  0  0  0  0  0  0
    3.0140   63.3860   69.7760 S   0  0  0  0  0  6  0  0  0  0  0  0
    1.8960   64.3130   69.8950 O   0  0  0  0  0  0  0  0  0  0  0  0
    3.1690   62.7130   68.4910 O   0  0  0  0  0  0  0  0  0  0  0  0
    4.2440   63.7480   70.4710 O   0  0  0  0  0  1  0  0  0  0  0  0
    5.0325   60.0361   71.3543 H   0  0  0  0  0  0  0  0  0  0  0  0
    4.1852   59.3835   69.9111 H   0  0  0  0  0  0  0  0  0  0  0  0
    4.7852   61.0766   69.9111 H   0  0  0  0  0  0  0  0  0  0  0  0
   -1.0312   62.4939   72.5202 H   0  0  0  0  0  0  0  0  0  0  0  0
   -3.0292   62.0033   73.8972 H   0  0  0  0  0  0  0  0  0  0  0  0
   -1.1549   56.9357   74.3571 H   0  0  0  0  0  0  0  0  0  0  0  0
   -0.8609   57.7509   75.9770 H   0  0  0  0  0  0  0  0  0  0  0  0
   -3.5132   57.1408   74.6478 H   0  0  0  0  0  0  0  0  0  0  0  0
   -2.8568   56.5005   76.1954 H   0  0  0  0  0  0  0  0  0  0  0  0
   -4.4807   58.2700   76.6463 H   0  0  0  0  0  0  0  0  0  0  0  0
   -2.8102   58.8140   77.0946 H   0  0  0  0  0  0  0  0  0  0  0  0
   -3.8595   60.6691   77.3315 H   0  0  0  0  0  0  0  0  0  0  0  0
   -3.2239   61.7983   76.0874 H   0  0  0  0  0  0  0  0  0  0  0  0
   -4.9630   61.3483   76.0874 H   0  0  0  0  0  0  0  0  0  0  0  0
   -5.7468   59.4470   74.9811 H   0  0  0  0  0  0  0  0  0  0  0  0
   -4.9383   60.4880   73.7608 H   0  0  0  0  0  0  0  0  0  0  0  0
   -4.6506   58.7149   73.7608 H   0  0  0  0  0  0  0  0  0  0  0  0
  2  1  2  0
  3  2  1  0
  4  3  2  0
  5  4  1  0
  6  5  2  0
  7  6  1  0
  7  2  1  0
  8  7  2  0
  9  6  1  0
 10  9  1  0
 11  9  2  0
 12 11  1  0
 12  5  1  0
 13  4  1  0
 14 13  2  0
 15 14  1  0
 16 15  2  0
 16  3  1  0
 17 16  1  0
 18 17  1  0
 19 18  1  0
 20 19  1  0
 20 15  1  0
 21 20  1  0
 22 20  1  0
 23 11  1  0
 24 23  2  0
 25 23  2  0
 26 23  1  0
 10 27  1  0
 10 28  1  0
 10 29  1  0
 13 30  1  0
 14 31  1  0
 17 32  1  0
 17 33  1  0
 18 34  1  0
 18 35  1  0
 19 36  1  0
 19 37  1  0
 21 38  1  0
 21 39  1  0
 21 40  1  0
 22 41  1  0
 22 42  1  0
 22 43  1  0
M  CHG  1  26  -1
M  END
>  <score>  (4) 
-9.345

$$$$
=
     RDKit          3D

 43 46  0  0  0  0  0  0  0  0999 V2000
    2.0740   57.5460   72.9110 O   0  0  0  0  0  0  0  0  0  0  0  0
    1.2590   58.4130   73.2020 C   0  0  0  0  0  0  0  0  0  0  0  0
    1.3010   59.8000   72.5880 C   0  0  0  0  0  0  0  0  0  0  0  0
    0.1780   60.6370   72.7780 C   0  0  0  0  0  0  0  0  0  0  0  0
   -0.9000   60.1600   73.6130 C   0  0  0  0  0  0  0  0  0  0  0  0
   -0.9730   58.9810   74.2970 C   0  0  0  0  0  0  0  0  0  0  0  0
    0.1270   58.0560   74.1930 C   0  0  0  0  0  0  0  0  0  0  0  0
    0.1980   57.0230   74.8480 O   0  0  0  0  0  0  0  0  0  0  0  0
   -2.2120   58.9970   74.9900 C   0  0  0  0  0  0  0  0  0  0  0  0
   -2.7730   57.9550   75.8840 C   0  0  0  0  0  0  0  0  0  0  0  0
   -2.8250   60.2220   74.6770 C   0  0  0  0  0  0  0  0  0  0  0  0
   -1.9920   60.9200   73.8160 O   0  0  0  0  0  0  0  0  0  0  0  0
    0.1340   61.8960   72.1850 C   0  0  0  0  0  0  0  0  0  0  0  0
    1.1900   62.3280   71.3900 C   0  0  0  0  0  0  0  0  0  0  0  0
    2.3280   61.5270   71.1730 C   0  0  0  0  0  0  0  0  0  0  0  0
    2.4060   60.2610   71.8160 C   0  0  0  0  0  0  0  0  0  0  0  0
    3.6450   59.4020   71.6600 C   0  0  0  0  0  0  0  0  0  0  0  0
    4.8670   60.1340   71.1230 C   0  0  0  0  0  0  0  0  0  0  0  0
    4.4780   60.9630   69.9140 C   0  0  0  0  0  0  0  0  0  0  0  0
    3.4600   62.0670   70.2810 C   0  0  0  0  0  0  0  0  0  0  0  0
    2.9140   62.6220   68.9440 C   0  0  0  0  0  0  0  0  0  0  0  0
    4.1780   63.2150   71.0260 C   0  0  0  0  0  0  0  0  0  0  0  0
   -4.4410   60.9180   75.2260 S   0  0  0  0  0  6  0  0  0  0  0  0
   -4.5330   60.4060   76.5880 O   0  0  0  0  0  0  0  0  0  0  0  0
   -5.3360   60.3180   74.2420 O   0  0  0  0  0  0  0  0  0  0  0  0
   -4.1760   62.3440   75.0780 O   0  0  0  0  0  1  0  0  0  0  0  0
   -2.6153   58.2478   76.9325 H   0  0  0  0  0  0  0  0  0  0  0  0
   -3.8507   57.8479   75.6913 H   0  0  0  0  0  0  0  0  0  0  0  0
   -2.2690   56.9964   75.6913 H   0  0  0  0  0  0  0  0  0  0  0  0
   -0.7364   62.5492   72.3454 H   0  0  0  0  0  0  0  0  0  0  0  0
    1.1352   63.3204   70.9187 H   0  0  0  0  0  0  0  0  0  0  0  0
    3.9005   58.9879   72.6465 H   0  0  0  0  0  0  0  0  0  0  0  0
    3.3950   58.6308   70.9165 H   0  0  0  0  0  0  0  0  0  0  0  0
    5.2699   60.7947   71.9047 H   0  0  0  0  0  0  0  0  0  0  0  0
    5.6311   59.3992   70.8294 H   0  0  0  0  0  0  0  0  0  0  0  0
    5.3813   61.4346   69.4996 H   0  0  0  0  0  0  0  0  0  0  0  0
    4.0084   60.2950   69.1770 H   0  0  0  0  0  0  0  0  0  0  0  0
    2.1561   63.3924   69.1490 H   0  0  0  0  0  0  0  0  0  0  0  0
    3.7391   63.0640   68.3662 H   0  0  0  0  0  0  0  0  0  0  0  0
    2.4586   61.8042   68.3662 H   0  0  0  0  0  0  0  0  0  0  0  0
    4.0832   63.0635   72.1114 H   0  0  0  0  0  0  0  0  0  0  0  0
    5.2424   63.2230   70.7484 H   0  0  0  0  0  0  0  0  0  0  0  0
    3.7194   64.1756   70.7484 H   0  0  0  0  0  0  0  0  0  0  0  0
  2  1  2  0
  3  2  1  0
  4  3  2  0
  5  4  1  0
  6  5  2  0
  7  6  1  0
  7  2  1  0
  8  7  2  0
  9  6  1  0
 10  9  1  0
 11  9  2  0
 12 11  1  0
 12  5  1  0
 13  4  1  0
 14 13  2  0
 15 14  1  0
 16 15  2  0
 16  3  1  0
 17 16  1  0
 18 17  1  0
 19 18  1  0
 20 19  1  0
 20 15  1  0
 21 20  1  0
 22 20  1  0
 23 11  1  0
 24 23  2  0
 25 23  2  0
 26 23  1  0
 10 27  1  0
 10 28  1  0
 10 29  1  0
 13 30  1  0
 14 31  1  0
 17 32  1  0
 17 33  1  0
 18 34  1  0
 18 35  1  0
 19 36  1  0
 19 37  1  0
 21 38  1  0
 21 39  1  0
 21 40  1  0
 22 41  1  0
 22 42  1  0
 22 43  1  0
M  CHG  1  26  -1
M  END
>  <score>  (5) 
-9.236

$$$$
=
     RDKit          3D

 43 46  0  0  0  0  0  0  0  0999 V2000
    1.1230   58.5170   72.9580 O   0  0  0  0  0  0  0  0  0  0  0  0
    0.8350   59.6220   73.4020 C   0  0  0  0  0  0  0  0  0  0  0  0
    1.3560   60.9040   72.7810 C   0  0  0  0  0  0  0  0  0  0  0  0
    0.7630   62.1200   73.1900 C   0  0  0  0  0  0  0  0  0  0  0  0
   -0.2360   62.0790   74.2330 C   0  0  0  0  0  0  0  0  0  0  0  0
   -0.6800   60.9920   74.9280 C   0  0  0  0  0  0  0  0  0  0  0  0
   -0.1300   59.6990   74.6090 C   0  0  0  0  0  0  0  0  0  0  0  0
   -0.3910   58.6850   75.2440 O   0  0  0  0  0  0  0  0  0  0  0  0
   -1.6350   61.4770   75.8610 C   0  0  0  0  0  0  0  0  0  0  0  0
   -2.4110   60.7030   76.8610 C   0  0  0  0  0  0  0  0  0  0  0  0
   -1.7050   62.8670   75.6690 C   0  0  0  0  0  0  0  0  0  0  0  0
   -0.8310   63.2120   74.6490 O   0  0  0  0  0  0  0  0  0  0  0  0
    1.1560   63.3220   72.6080 C   0  0  0  0  0  0  0  0  0  0  0  0
    2.1240   63.3280   71.6090 C   0  0  0  0  0  0  0  0  0  0  0  0
    2.7400   62.1390   71.1700 C   0  0  0  0  0  0  0  0  0  0  0  0
    2.3830   60.9130   71.7940 C   0  0  0  0  0  0  0  0  0  0  0  0
    3.0740   59.6240   71.3940 C   0  0  0  0  0  0  0  0  0  0  0  0
    4.3660   59.8090   70.6110 C   0  0  0  0  0  0  0  0  0  0  0  0
    4.1540   60.8200   69.5010 C   0  0  0  0  0  0  0  0  0  0  0  0
    3.8030   62.2180   70.0590 C   0  0  0  0  0  0  0  0  0  0  0  0
    3.3080   63.0590   68.8580 C   0  0  0  0  0  0  0  0  0  0  0  0
    5.0720   62.8880   70.6310 C   0  0  0  0  0  0  0  0  0  0  0  0
   -2.7250   64.1360   76.5330 S   0  0  0  0  0  6  0  0  0  0  0  0
   -2.3560   63.9120   77.9250 O   0  0  0  0  0  0  0  0  0  0  0  0
   -4.0640   63.7140   76.1380 O   0  0  0  0  0  0  0  0  0  0  0  0
   -2.2170   65.3510   75.9070 O   0  0  0  0  0  1  0  0  0  0  0  0
   -2.1079   61.0054   77.8743 H   0  0  0  0  0  0  0  0  0  0  0  0
   -3.4845   60.9008   76.7251 H   0  0  0  0  0  0  0  0  0  0  0  0
   -2.2160   59.6290   76.7251 H   0  0  0  0  0  0  0  0  0  0  0  0
    0.7009   64.2674   72.9382 H   0  0  0  0  0  0  0  0  0  0  0  0
    2.4158   64.2843   71.1504 H   0  0  0  0  0  0  0  0  0  0  0  0
    3.3067   59.0618   72.3104 H   0  0  0  0  0  0  0  0  0  0  0  0
    2.3794   59.0949   70.7249 H   0  0  0  0  0  0  0  0  0  0  0  0
    5.1546   60.1698   71.2877 H   0  0  0  0  0  0  0  0  0  0  0  0
    4.6658   58.8458   70.1724 H   0  0  0  0  0  0  0  0  0  0  0  0
    5.0764   60.8950   68.9064 H   0  0  0  0  0  0  0  0  0  0  0  0
    3.3120   60.4772   68.8817 H   0  0  0  0  0  0  0  0  0  0  0  0
    2.7824   63.9519   69.2274 H   0  0  0  0  0  0  0  0  0  0  0  0
    4.1689   63.3670   68.2464 H   0  0  0  0  0  0  0  0  0  0  0  0
    2.6208   62.4559   68.2464 H   0  0  0  0  0  0  0  0  0  0  0  0
    5.0336   62.8677   71.7301 H   0  0  0  0  0  0  0  0  0  0  0  0
    5.9623   62.3424   70.2851 H   0  0  0  0  0  0  0  0  0  0  0  0
    5.1237   63.9309   70.2851 H   0  0  0  0  0  0  0  0  0  0  0  0
  2  1  2  0
  3  2  1  0
  4  3  2  0
  5  4  1  0
  6  5  2  0
  7  6  1  0
  7  2  1  0
  8  7  2  0
  9  6  1  0
 10  9  1  0
 11  9  2  0
 12 11  1  0
 12  5  1  0
 13  4  1  0
 14 13  2  0
 15 14  1  0
 16 15  2  0
 16  3  1  0
 17 16  1  0
 18 17  1  0
 19 18  1  0
 20 19  1  0
 20 15  1  0
 21 20  1  0
 22 20  1  0
 23 11  1  0
 24 23  2  0
 25 23  2  0
 26 23  1  0
 10 27  1  0
 10 28  1  0
 10 29  1  0
 13 30  1  0
 14 31  1  0
 17 32  1  0
 17 33  1  0
 18 34  1  0
 18 35  1  0
 19 36  1  0
 19 37  1  0
 21 38  1  0
 21 39  1  0
 21 40  1  0
 22 41  1  0
 22 42  1  0
 22 43  1  0
M  CHG  1  26  -1
M  END
>  <score>  (6) 
-8.725

$$$$
=
     RDKit          3D

 43 46  0  0  0  0  0  0  0  0999 V2000
    3.5970   58.4230   72.3410 O   0  0  0  0  0  0  0  0  0  0  0  0
    2.7770   59.3130   72.1470 C   0  0  0  0  0  0  0  0  0  0  0  0
    1.4330   59.3420   72.8490 C   0  0  0  0  0  0  0  0  0  0  0  0
    0.6730   60.5310   72.7670 C   0  0  0  0  0  0  0  0  0  0  0  0
    1.1780   61.6110   71.9510 C   0  0  0  0  0  0  0  0  0  0  0  0
    2.3130   61.6320   71.1940 C   0  0  0  0  0  0  0  0  0  0  0  0
    3.1560   60.4640   71.1850 C   0  0  0  0  0  0  0  0  0  0  0  0
    4.1370   60.3500   70.4600 O   0  0  0  0  0  0  0  0  0  0  0  0
    2.3470   62.9020   70.5600 C   0  0  0  0  0  0  0  0  0  0  0  0
    3.3700   63.4290   69.6240 C   0  0  0  0  0  0  0  0  0  0  0  0
    1.1950   63.5860   70.9820 C   0  0  0  0  0  0  0  0  0  0  0  0
    0.4920   62.7650   71.8490 O   0  0  0  0  0  0  0  0  0  0  0  0
   -0.5370   60.6370   73.4450 C   0  0  0  0  0  0  0  0  0  0  0  0
   -0.9980   59.5780   74.2190 C   0  0  0  0  0  0  0  0  0  0  0  0
   -0.2730   58.3740   74.3300 C   0  0  0  0  0  0  0  0  0  0  0  0
    0.9390   58.2360   73.6010 C   0  0  0  0  0  0  0  0  0  0  0  0
    1.7100   56.9310   73.6430 C   0  0  0  0  0  0  0  0  0  0  0  0
    0.9220   55.7410   74.1720 C   0  0  0  0  0  0  0  0  0  0  0  0
    0.2030   56.1290   75.4500 C   0  0  0  0  0  0  0  0  0  0  0  0
   -0.8410   57.2420   75.2040 C   0  0  0  0  0  0  0  0  0  0  0  0
   -1.2660   57.7600   76.5990 C   0  0  0  0  0  0  0  0  0  0  0  0
   -2.0850   56.6480   74.5060 C   0  0  0  0  0  0  0  0  0  0  0  0
    0.5910   65.2750   70.5540 S   0  0  0  0  0  6  0  0  0  0  0  0
    1.8350   65.9550   70.2160 O   0  0  0  0  0  0  0  0  0  0  0  0
   -0.0410   65.6570   71.8120 O   0  0  0  0  0  0  0  0  0  0  0  0
   -0.3050   64.9590   69.4470 O   0  0  0  0  0  1  0  0  0  0  0  0
    4.2046   63.8590   70.1972 H   0  0  0  0  0  0  0  0  0  0  0  0
    3.7433   62.6110   68.9904 H   0  0  0  0  0  0  0  0  0  0  0  0
    2.9207   64.2079   68.9904 H   0  0  0  0  0  0  0  0  0  0  0  0
   -1.1301   61.5602   73.3686 H   0  0  0  0  0  0  0  0  0  0  0  0
   -1.9514   59.6821   74.7577 H   0  0  0  0  0  0  0  0  0  0  0  0
    2.0402   56.6955   72.6205 H   0  0  0  0  0  0  0  0  0  0  0  0
    2.5439   57.0863   74.3434 H   0  0  0  0  0  0  0  0  0  0  0  0
    0.1844   55.4273   73.4187 H   0  0  0  0  0  0  0  0  0  0  0  0
    1.6133   54.9113   74.3813 H   0  0  0  0  0  0  0  0  0  0  0  0
   -0.3090   55.2431   75.8539 H   0  0  0  0  0  0  0  0  0  0  0  0
    0.9502   56.5112   76.1610 H   0  0  0  0  0  0  0  0  0  0  0  0
   -0.7737   57.1600   77.3785 H   0  0  0  0  0  0  0  0  0  0  0  0
   -0.9688   58.8138   76.7050 H   0  0  0  0  0  0  0  0  0  0  0  0
   -2.3575   57.6744   76.7050 H   0  0  0  0  0  0  0  0  0  0  0  0
   -2.8030   56.3052   75.2656 H   0  0  0  0  0  0  0  0  0  0  0  0
   -2.5558   57.4185   73.8777 H   0  0  0  0  0  0  0  0  0  0  0  0
   -1.7818   55.7975   73.8777 H   0  0  0  0  0  0  0  0  0  0  0  0
  2  1  2  0
  3  2  1  0
  4  3  2  0
  5  4  1  0
  6  5  2  0
  7  6  1  0
  7  2  1  0
  8  7  2  0
  9  6  1  0
 10  9  1  0
 11  9  2  0
 12 11  1  0
 12  5  1  0
 13  4  1  0
 14 13  2  0
 15 14  1  0
 16 15  2  0
 16  3  1  0
 17 16  1  0
 18 17  1  0
 19 18  1  0
 20 19  1  0
 20 15  1  0
 21 20  1  0
 22 20  1  0
 23 11  1  0
 24 23  2  0
 25 23  2  0
 26 23  1  0
 10 27  1  0
 10 28  1  0
 10 29  1  0
 13 30  1  0
 14 31  1  0
 17 32  1  0
 17 33  1  0
 18 34  1  0
 18 35  1  0
 19 36  1  0
 19 37  1  0
 21 38  1  0
 21 39  1  0
 21 40  1  0
 22 41  1  0
 22 42  1  0
 22 43  1  0
M  CHG  1  26  -1
M  END
>  <score>  (7) 
-8.723

$$$$
=
     RDKit          3D

 43 46  0  0  0  0  0  0  0  0999 V2000
    2.2790   57.4770   71.3790 O   0  0  0  0  0  0  0  0  0  0  0  0
    2.2560   58.0670   72.4530 C   0  0  0  0  0  0  0  0  0  0  0  0
    2.4780   59.5640   72.5570 C   0  0  0  0  0  0  0  0  0  0  0  0
    2.1720   60.1900   73.7870 C   0  0  0  0  0  0  0  0  0  0  0  0
    1.7520   59.3600   74.8920 C   0  0  0  0  0  0  0  0  0  0  0  0
    1.6360   58.0010   74.9250 C   0  0  0  0  0  0  0  0  0  0  0  0
    1.9430   57.2540   73.7310 C   0  0  0  0  0  0  0  0  0  0  0  0
    1.9680   56.0300   73.6930 O   0  0  0  0  0  0  0  0  0  0  0  0
    1.2220   57.6660   76.2410 C   0  0  0  0  0  0  0  0  0  0  0  0
    0.9590   56.3180   76.8030 C   0  0  0  0  0  0  0  0  0  0  0  0
    1.1150   58.8790   76.9420 C   0  0  0  0  0  0  0  0  0  0  0  0
    1.4430   59.9140   76.0790 O   0  0  0  0  0  0  0  0  0  0  0  0
    2.2950   61.5700   73.9200 C   0  0  0  0  0  0  0  0  0  0  0  0
    2.7060   62.3400   72.8380 C   0  0  0  0  0  0  0  0  0  0  0  0
    3.0220   61.7580   71.5940 C   0  0  0  0  0  0  0  0  0  0  0  0
    2.9480   60.3450   71.4620 C   0  0  0  0  0  0  0  0  0  0  0  0
    3.3450   59.6800   70.1580 C   0  0  0  0  0  0  0  0  0  0  0  0
    4.1480   60.5590   69.2110 C   0  0  0  0  0  0  0  0  0  0  0  0
    3.4870   61.9190   69.0880 C   0  0  0  0  0  0  0  0  0  0  0  0
    3.4690   62.6710   70.4380 C   0  0  0  0  0  0  0  0  0  0  0  0
    2.5110   63.8720   70.2580 C   0  0  0  0  0  0  0  0  0  0  0  0
    4.8800   63.2180   70.7520 C   0  0  0  0  0  0  0  0  0  0  0  0
    0.6340   59.2030   78.6930 S   0  0  0  0  0  6  0  0  0  0  0  0
    1.6440   58.4430   79.4190 O   0  0  0  0  0  0  0  0  0  0  0  0
   -0.7200   58.6610   78.7000 O   0  0  0  0  0  0  0  0  0  0  0  0
    0.7520   60.6560   78.7320 O   0  0  0  0  0  1  0  0  0  0  0  0
    0.9692   56.3704   77.9017 H   0  0  0  0  0  0  0  0  0  0  0  0
   -0.0251   55.9642   76.4619 H   0  0  0  0  0  0  0  0  0  0  0  0
    1.7379   55.6202   76.4619 H   0  0  0  0  0  0  0  0  0  0  0  0
    2.0668   62.0518   74.8822 H   0  0  0  0  0  0  0  0  0  0  0  0
    2.7866   63.4307   72.9558 H   0  0  0  0  0  0  0  0  0  0  0  0
    3.9499   58.7928   70.3968 H   0  0  0  0  0  0  0  0  0  0  0  0
    2.4073   59.4390   69.6358 H   0  0  0  0  0  0  0  0  0  0  0  0
    5.1679   60.6828   69.6040 H   0  0  0  0  0  0  0  0  0  0  0  0
    4.1881   60.0835   68.2199 H   0  0  0  0  0  0  0  0  0  0  0  0
    4.0423   62.5199   68.3528 H   0  0  0  0  0  0  0  0  0  0  0  0
    2.4460   61.7661   68.7672 H   0  0  0  0  0  0  0  0  0  0  0  0
    2.2087   64.2510   71.2454 H   0  0  0  0  0  0  0  0  0  0  0  0
    3.0237   64.6696   69.7003 H   0  0  0  0  0  0  0  0  0  0  0  0
    1.6194   63.5495   69.7003 H   0  0  0  0  0  0  0  0  0  0  0  0
    5.0183   63.2716   71.8420 H   0  0  0  0  0  0  0  0  0  0  0  0
    5.6376   62.5484   70.3188 H   0  0  0  0  0  0  0  0  0  0  0  0
    4.9883   64.2233   70.3188 H   0  0  0  0  0  0  0  0  0  0  0  0
  2  1  2  0
  3  2  1  0
  4  3  2  0
  5  4  1  0
  6  5  2  0
  7  6  1  0
  7  2  1  0
  8  7  2  0
  9  6  1  0
 10  9  1  0
 11  9  2  0
 12 11  1  0
 12  5  1  0
 13  4  1  0
 14 13  2  0
 15 14  1  0
 16 15  2  0
 16  3  1  0
 17 16  1  0
 18 17  1  0
 19 18  1  0
 20 19  1  0
 20 15  1  0
 21 20  1  0
 22 20  1  0
 23 11  1  0
 24 23  2  0
 25 23  2  0
 26 23  1  0
 10 27  1  0
 10 28  1  0
 10 29  1  0
 13 30  1  0
 14 31  1  0
 17 32  1  0
 17 33  1  0
 18 34  1  0
 18 35  1  0
 19 36  1  0
 19 37  1  0
 21 38  1  0
 21 39  1  0
 21 40  1  0
 22 41  1  0
 22 42  1  0
 22 43  1  0
M  CHG  1  26  -1
M  END
>  <score>  (8) 
-8.405

$$$$
=
     RDKit          3D

 43 46  0  0  0  0  0  0  0  0999 V2000
   -0.0290   62.5800   74.2990 O   0  0  0  0  0  0  0  0  0  0  0  0
    0.7780   61.6730   74.4640 C   0  0  0  0  0  0  0  0  0  0  0  0
    1.9980   61.5060   73.5780 C   0  0  0  0  0  0  0  0  0  0  0  0
    3.0000   60.6040   74.0030 C   0  0  0  0  0  0  0  0  0  0  0  0
    2.7660   59.8350   75.2040 C   0  0  0  0  0  0  0  0  0  0  0  0
    1.6550   59.8340   75.9960 C   0  0  0  0  0  0  0  0  0  0  0  0
    0.5590   60.7010   75.6470 C   0  0  0  0  0  0  0  0  0  0  0  0
   -0.5150   60.6950   76.2360 O   0  0  0  0  0  0  0  0  0  0  0  0
    1.9010   58.8900   77.0280 C   0  0  0  0  0  0  0  0  0  0  0  0
    1.0060   58.5040   78.1470 C   0  0  0  0  0  0  0  0  0  0  0  0
    3.1800   58.3610   76.7840 C   0  0  0  0  0  0  0  0  0  0  0  0
    3.6950   58.9700   75.6500 O   0  0  0  0  0  0  0  0  0  0  0  0
    4.1700   60.4580   73.2640 C   0  0  0  0  0  0  0  0  0  0  0  0
    4.3640   61.2100   72.1100 C   0  0  0  0  0  0  0  0  0  0  0  0
    3.3920   62.1200   71.6500 C   0  0  0  0  0  0  0  0  0  0  0  0
    2.1720   62.2400   72.3690 C   0  0  0  0  0  0  0  0  0  0  0  0
    1.0770   63.1590   71.8650 C   0  0  0  0  0  0  0  0  0  0  0  0
    1.2310   63.6020   70.4170 C   0  0  0  0  0  0  0  0  0  0  0  0
    2.6540   64.0670   70.1710 C   0  0  0  0  0  0  0  0  0  0  0  0
    3.6720   62.9210   70.3660 C   0  0  0  0  0  0  0  0  0  0  0  0
    5.0720   63.5790   70.4000 C   0  0  0  0  0  0  0  0  0  0  0  0
    3.6170   61.9600   69.1570 C   0  0  0  0  0  0  0  0  0  0  0  0
    4.1370   57.0880   77.7120 S   0  0  0  0  0  6  0  0  0  0  0  0
    4.5740   57.8430   78.8790 O   0  0  0  0  0  0  0  0  0  0  0  0
    5.1620   56.7580   76.7270 O   0  0  0  0  0  0  0  0  0  0  0  0
    3.0990   56.0870   77.9290 O   0  0  0  0  0  1  0  0  0  0  0  0
    1.5029   58.7183   79.1047 H   0  0  0  0  0  0  0  0  0  0  0  0
    0.0701   59.0785   78.0829 H   0  0  0  0  0  0  0  0  0  0  0  0
    0.7815   57.4291   78.0829 H   0  0  0  0  0  0  0  0  0  0  0  0
    4.9423   59.7471   73.5928 H   0  0  0  0  0  0  0  0  0  0  0  0
    5.2990   61.0912   71.5429 H   0  0  0  0  0  0  0  0  0  0  0  0
    0.1165   62.6315   71.9611 H   0  0  0  0  0  0  0  0  0  0  0  0
    1.1340   64.0721   72.4757 H   0  0  0  0  0  0  0  0  0  0  0  0
    1.0023   62.7575   69.7503 H   0  0  0  0  0  0  0  0  0  0  0  0
    0.5375   64.4316   70.2150 H   0  0  0  0  0  0  0  0  0  0  0  0
    2.7331   64.4424   69.1401 H   0  0  0  0  0  0  0  0  0  0  0  0
    2.8862   64.8591   70.8981 H   0  0  0  0  0  0  0  0  0  0  0  0
    5.3831   63.7252   71.4449 H   0  0  0  0  0  0  0  0  0  0  0  0
    5.7961   62.9269   69.8896 H   0  0  0  0  0  0  0  0  0  0  0  0
    5.0320   64.5526   69.8896 H   0  0  0  0  0  0  0  0  0  0  0  0
    3.5576   60.9220   69.5161 H   0  0  0  0  0  0  0  0  0  0  0  0
    2.7305   62.1883   68.5472 H   0  0  0  0  0  0  0  0  0  0  0  0
    4.5238   62.0857   68.5472 H   0  0  0  0  0  0  0  0  0  0  0  0
  2  1  2  0
  3  2  1  0
  4  3  2  0
  5  4  1  0
  6  5  2  0
  7  6  1  0
  7  2  1  0
  8  7  2  0
  9  6  1  0
 10  9  1  0
 11  9  2  0
 12 11  1  0
 12  5  1  0
 13  4  1  0
 14 13  2  0
 15 14  1  0
 16 15  2  0
 16  3  1  0
 17 16  1  0
 18 17  1  0
 19 18  1  0
 20 19  1  0
 20 15  1  0
 21 20  1  0
 22 20  1  0
 23 11  1  0
 24 23  2  0
 25 23  2  0
 26 23  1  0
 10 27  1  0
 10 28  1  0
 10 29  1  0
 13 30  1  0
 14 31  1  0
 17 32  1  0
 17 33  1  0
 18 34  1  0
 18 35  1  0
 19 36  1  0
 19 37  1  0
 21 38  1  0
 21 39  1  0
 21 40  1  0
 22 41  1  0
 22 42  1  0
 22 43  1  0
M  CHG  1  26  -1
M  END
>  <score>  (9) 
-8.35

$$$$
