=
     RDKit          3D

 35 36  0  0  0  0  0  0  0  0999 V2000
    4.4130   69.6190   67.0540 C   0  0  0  0  0  0  0  0  0  0  0  0
    5.1790   70.2320   68.0270 C   0  0  0  0  0  0  0  0  0  0  0  0
    4.6560   70.8850   69.0850 N   0  0  0  0  0  0  0  0  0  0  0  0
    3.3170   70.9250   69.1530 C   0  0  0  0  0  0  0  0  0  0  0  0
    2.4700   70.3920   68.2690 N   0  0  0  0  0  0  0  0  0  0  0  0
    3.0500   69.7710   67.2320 C   0  0  0  0  0  0  0  0  0  0  0  0
    2.1390   69.1650   66.3290 N   0  0  0  0  0  0  0  0  0  0  0  0
    1.4990   67.7020   66.8610 S   0  0  0  0  0  6  0  0  0  0  0  0
    1.9340   66.7040   65.9050 O   0  0  0  0  0  0  0  0  0  0  0  0
    1.7830   67.5370   68.2720 O   0  0  0  0  0  0  0  0  0  0  0  0
   -0.2480   67.9100   66.6360 C   0  0  0  0  0  0  0  0  0  0  0  0
   -1.1320   67.1810   67.4330 C   0  0  0  0  0  0  0  0  0  0  0  0
   -2.5090   67.3600   67.2720 C   0  0  0  0  0  0  0  0  0  0  0  0
   -3.0070   68.2960   66.3610 C   0  0  0  0  0  0  0  0  0  0  0  0
   -2.1080   68.9820   65.5380 C   0  0  0  0  0  0  0  0  0  0  0  0
   -0.7280   68.8140   65.6870 C   0  0  0  0  0  0  0  0  0  0  0  0
   -4.3840   68.3830   66.1240 N   0  0  0  0  0  0  0  0  0  0  0  0
    5.2350   69.8100   64.8750 C   0  0  0  0  0  0  0  0  0  0  0  0
    4.8510   68.9510   65.9470 O   0  0  0  0  0  0  0  0  0  0  0  0
    6.5530   70.2010   67.8880 O   0  0  0  0  0  0  0  0  0  0  0  0
    7.2410   71.0930   68.7590 C   0  0  0  0  0  0  0  0  0  0  0  0
    2.8761   71.4447   70.0164 H   0  0  0  0  0  0  0  0  0  0  0  0
    1.8897   69.5857   65.4225 H   0  0  0  0  0  0  0  0  0  0  0  0
   -0.7485   66.4718   68.1813 H   0  0  0  0  0  0  0  0  0  0  0  0
   -3.2089   66.7572   67.8692 H   0  0  0  0  0  0  0  0  0  0  0  0
   -2.4916   69.6625   64.7635 H   0  0  0  0  0  0  0  0  0  0  0  0
   -0.0277   69.3884   65.0627 H   0  0  0  0  0  0  0  0  0  0  0  0
   -4.7483   69.0736   65.4522 H   0  0  0  0  0  0  0  0  0  0  0  0
   -5.0328   67.7564   66.6214 H   0  0  0  0  0  0  0  0  0  0  0  0
    5.6518   70.7424   65.2836 H   0  0  0  0  0  0  0  0  0  0  0  0
    5.9946   69.3085   64.2574 H   0  0  0  0  0  0  0  0  0  0  0  0
    4.3547   70.0416   64.2574 H   0  0  0  0  0  0  0  0  0  0  0  0
    7.0307   70.8204   69.8037 H   0  0  0  0  0  0  0  0  0  0  0  0
    8.3231   71.0253   68.5731 H   0  0  0  0  0  0  0  0  0  0  0  0
    6.9007   72.1224   68.5731 H   0  0  0  0  0  0  0  0  0  0  0  0
  2  1  2  0
  3  2  1  0
  4  3  2  0
  5  4  1  0
  6  5  2  0
  6  1  1  0
  7  6  1  0
  8  7  1  0
  9  8  2  0
 10  8  2  0
 11  8  1  0
 12 11  2  0
 13 12  1  0
 14 13  2  0
 15 14  1  0
 16 15  2  0
 16 11  1  0
 17 14  1  0
 19 18  1  0
 19  1  1  0
 20  2  1  0
 21 20  1  0
  4 22  1  0
  7 23  1  0
 12 24  1  0
 13 25  1  0
 15 26  1  0
 16 27  1  0
 17 28  1  0
 17 29  1  0
 18 30  1  0
 18 31  1  0
 18 32  1  0
 21 33  1  0
 21 34  1  0
 21 35  1  0
M  END
>  <score>  (1) 
-8.305

$$$$
=
     RDKit          3D

 35 36  0  0  0  0  0  0  0  0999 V2000
    3.3090   67.1970   63.6090 C   0  0  0  0  0  0  0  0  0  0  0  0
    3.6750   67.9330   62.4990 C   0  0  0  0  0  0  0  0  0  0  0  0
    2.8120   68.6920   61.7900 N   0  0  0  0  0  0  0  0  0  0  0  0
    1.5400   68.6940   62.2150 C   0  0  0  0  0  0  0  0  0  0  0  0
    1.0590   68.0120   63.2570 N   0  0  0  0  0  0  0  0  0  0  0  0
    1.9600   67.2650   63.9100 C   0  0  0  0  0  0  0  0  0  0  0  0
    1.4460   66.5870   65.0450 N   0  0  0  0  0  0  0  0  0  0  0  0
    1.2470   67.5570   66.4070 S   0  0  0  0  0  6  0  0  0  0  0  0
    1.5170   66.7050   67.5480 O   0  0  0  0  0  0  0  0  0  0  0  0
    1.9800   68.7940   66.2270 O   0  0  0  0  0  0  0  0  0  0  0  0
   -0.4920   67.9030   66.4160 C   0  0  0  0  0  0  0  0  0  0  0  0
   -1.0110   68.8240   65.5060 C   0  0  0  0  0  0  0  0  0  0  0  0
   -2.3850   69.0810   65.4980 C   0  0  0  0  0  0  0  0  0  0  0  0
   -3.2480   68.3900   66.3540 C   0  0  0  0  0  0  0  0  0  0  0  0
   -2.7040   67.5060   67.2910 C   0  0  0  0  0  0  0  0  0  0  0  0
   -1.3320   67.2380   67.3110 C   0  0  0  0  0  0  0  0  0  0  0  0
   -4.6020   68.7390   66.4200 N   0  0  0  0  0  0  0  0  0  0  0  0
    4.3420   65.1100   63.8050 C   0  0  0  0  0  0  0  0  0  0  0  0
    4.1040   66.3950   64.3760 O   0  0  0  0  0  0  0  0  0  0  0  0
    4.9880   67.8610   62.0750 O   0  0  0  0  0  0  0  0  0  0  0  0
    5.8400   68.8340   62.6700 C   0  0  0  0  0  0  0  0  0  0  0  0
    0.8270   69.3151   61.6530 H   0  0  0  0  0  0  0  0  0  0  0  0
    1.2135   65.5836   65.0367 H   0  0  0  0  0  0  0  0  0  0  0  0
   -0.3451   69.3433   64.8011 H   0  0  0  0  0  0  0  0  0  0  0  0
   -2.7923   69.8362   64.8097 H   0  0  0  0  0  0  0  0  0  0  0  0
   -3.3639   67.0153   68.0216 H   0  0  0  0  0  0  0  0  0  0  0  0
   -0.9185   66.5104   68.0249 H   0  0  0  0  0  0  0  0  0  0  0  0
   -5.2353   68.2281   67.0515 H   0  0  0  0  0  0  0  0  0  0  0  0
   -4.9650   69.5067   65.8370 H   0  0  0  0  0  0  0  0  0  0  0  0
    4.4788   64.3713   64.6085 H   0  0  0  0  0  0  0  0  0  0  0  0
    3.4823   64.8202   63.1830 H   0  0  0  0  0  0  0  0  0  0  0  0
    5.2485   65.1473   63.1830 H   0  0  0  0  0  0  0  0  0  0  0  0
    5.7739   68.7585   63.7654 H   0  0  0  0  0  0  0  0  0  0  0  0
    6.8779   68.6560   62.3522 H   0  0  0  0  0  0  0  0  0  0  0  0
    5.5265   69.8393   62.3522 H   0  0  0  0  0  0  0  0  0  0  0  0
  2  1  2  0
  3  2  1  0
  4  3  2  0
  5  4  1  0
  6  5  2  0
  6  1  1  0
  7  6  1  0
  8  7  1  0
  9  8  2  0
 10  8  2  0
 11  8  1  0
 12 11  2  0
 13 12  1  0
 14 13  2  0
 15 14  1  0
 16 15  2  0
 16 11  1  0
 17 14  1  0
 19 18  1  0
 19  1  1  0
 20  2  1  0
 21 20  1  0
  4 22  1  0
  7 23  1  0
 12 24  1  0
 13 25  1  0
 15 26  1  0
 16 27  1  0
 17 28  1  0
 17 29  1  0
 18 30  1  0
 18 31  1  0
 18 32  1  0
 21 33  1  0
 21 34  1  0
 21 35  1  0
M  END
>  <score>  (2) 
-8.226

$$$$
=
     RDKit          3D

 35 36  0  0  0  0  0  0  0  0999 V2000
    0.7270   67.8590   67.4000 C   0  0  0  0  0  0  0  0  0  0  0  0
    0.0880   67.2090   68.4370 C   0  0  0  0  0  0  0  0  0  0  0  0
   -1.2220   66.8840   68.4170 N   0  0  0  0  0  0  0  0  0  0  0  0
   -1.9030   67.2380   67.3180 C   0  0  0  0  0  0  0  0  0  0  0  0
   -1.4060   67.8860   66.2610 N   0  0  0  0  0  0  0  0  0  0  0  0
   -0.1050   68.1950   66.3470 C   0  0  0  0  0  0  0  0  0  0  0  0
    0.4220   68.8360   65.1960 N   0  0  0  0  0  0  0  0  0  0  0  0
    0.7410   67.8020   63.9070 S   0  0  0  0  0  6  0  0  0  0  0  0
    0.9430   66.4900   64.4860 O   0  0  0  0  0  0  0  0  0  0  0  0
   -0.2540   68.0010   62.8730 O   0  0  0  0  0  0  0  0  0  0  0  0
    2.3180   68.3560   63.3150 C   0  0  0  0  0  0  0  0  0  0  0  0
    3.2890   68.7630   64.2320 C   0  0  0  0  0  0  0  0  0  0  0  0
    4.5400   69.1790   63.7680 C   0  0  0  0  0  0  0  0  0  0  0  0
    4.8460   69.1440   62.4040 C   0  0  0  0  0  0  0  0  0  0  0  0
    3.8450   68.7800   61.4970 C   0  0  0  0  0  0  0  0  0  0  0  0
    2.5900   68.3610   61.9460 C   0  0  0  0  0  0  0  0  0  0  0  0
    6.0570   69.6720   61.9410 N   0  0  0  0  0  0  0  0  0  0  0  0
    2.2950   69.5090   67.9330 C   0  0  0  0  0  0  0  0  0  0  0  0
    2.0370   68.2390   67.3360 O   0  0  0  0  0  0  0  0  0  0  0  0
    0.8220   66.9060   69.5670 O   0  0  0  0  0  0  0  0  0  0  0  0
    0.1990   65.9540   70.4220 C   0  0  0  0  0  0  0  0  0  0  0  0
   -2.9693   66.9702   67.2834 H   0  0  0  0  0  0  0  0  0  0  0  0
    0.5950   69.8504   65.1529 H   0  0  0  0  0  0  0  0  0  0  0  0
    3.0713   68.7563   65.3102 H   0  0  0  0  0  0  0  0  0  0  0  0
    5.2932   69.5384   64.4846 H   0  0  0  0  0  0  0  0  0  0  0  0
    4.0485   68.8242   60.4169 H   0  0  0  0  0  0  0  0  0  0  0  0
    1.8230   68.0379   61.2268 H   0  0  0  0  0  0  0  0  0  0  0  0
    6.2798   69.6449   60.9358 H   0  0  0  0  0  0  0  0  0  0  0  0
    6.7252   70.0876   62.6056 H   0  0  0  0  0  0  0  0  0  0  0  0
    2.2749   69.4101   69.0284 H   0  0  0  0  0  0  0  0  0  0  0  0
    3.2847   69.8692   67.6154 H   0  0  0  0  0  0  0  0  0  0  0  0
    1.5243   70.2268   67.6154 H   0  0  0  0  0  0  0  0  0  0  0  0
    0.3797   66.2301   71.4714 H   0  0  0  0  0  0  0  0  0  0  0  0
   -0.8836   65.9399   70.2277 H   0  0  0  0  0  0  0  0  0  0  0  0
    0.6194   64.9563   70.2277 H   0  0  0  0  0  0  0  0  0  0  0  0
  2  1  2  0
  3  2  1  0
  4  3  2  0
  5  4  1  0
  6  5  2  0
  6  1  1  0
  7  6  1  0
  8  7  1  0
  9  8  2  0
 10  8  2  0
 11  8  1  0
 12 11  2  0
 13 12  1  0
 14 13  2  0
 15 14  1  0
 16 15  2  0
 16 11  1  0
 17 14  1  0
 19 18  1  0
 19  1  1  0
 20  2  1  0
 21 20  1  0
  4 22  1  0
  7 23  1  0
 12 24  1  0
 13 25  1  0
 15 26  1  0
 16 27  1  0
 17 28  1  0
 17 29  1  0
 18 30  1  0
 18 31  1  0
 18 32  1  0
 21 33  1  0
 21 34  1  0
 21 35  1  0
M  END
>  <score>  (3) 
-7.843

$$$$
=
     RDKit          3D

 35 36  0  0  0  0  0  0  0  0999 V2000
    2.5550   67.6360   63.7410 C   0  0  0  0  0  0  0  0  0  0  0  0
    3.0050   68.1890   62.5580 C   0  0  0  0  0  0  0  0  0  0  0  0
    2.2130   68.8760   61.7080 N   0  0  0  0  0  0  0  0  0  0  0  0
    0.9260   68.9970   62.0660 C   0  0  0  0  0  0  0  0  0  0  0  0
    0.3670   68.4930   63.1690 N   0  0  0  0  0  0  0  0  0  0  0  0
    1.2000   67.8080   63.9640 C   0  0  0  0  0  0  0  0  0  0  0  0
    0.6050   67.3230   65.1560 N   0  0  0  0  0  0  0  0  0  0  0  0
    0.3990   68.4850   66.3560 S   0  0  0  0  0  6  0  0  0  0  0  0
    1.6260   69.2560   66.3810 O   0  0  0  0  0  0  0  0  0  0  0  0
   -0.8770   69.1450   66.1720 O   0  0  0  0  0  0  0  0  0  0  0  0
    0.3550   67.5320   67.8510 C   0  0  0  0  0  0  0  0  0  0  0  0
    1.4630   67.5400   68.7010 C   0  0  0  0  0  0  0  0  0  0  0  0
    1.4210   66.8070   69.8900 C   0  0  0  0  0  0  0  0  0  0  0  0
    0.2670   66.1100   70.2610 C   0  0  0  0  0  0  0  0  0  0  0  0
   -0.8140   66.0740   69.3740 C   0  0  0  0  0  0  0  0  0  0  0  0
   -0.7880   66.8020   68.1820 C   0  0  0  0  0  0  0  0  0  0  0  0
    0.2770   65.2850   71.3920 N   0  0  0  0  0  0  0  0  0  0  0  0
    3.4570   65.5500   64.2860 C   0  0  0  0  0  0  0  0  0  0  0  0
    3.2750   66.9170   64.6520 O   0  0  0  0  0  0  0  0  0  0  0  0
    4.3290   67.9980   62.2120 O   0  0  0  0  0  0  0  0  0  0  0  0
    5.1860   69.0660   62.6010 C   0  0  0  0  0  0  0  0  0  0  0  0
    0.2705   69.5637   61.3884 H   0  0  0  0  0  0  0  0  0  0  0  0
    0.3220   66.3401   65.2776 H   0  0  0  0  0  0  0  0  0  0  0  0
    2.3608   68.1181   68.4369 H   0  0  0  0  0  0  0  0  0  0  0  0
    2.3065   66.7780   70.5420 H   0  0  0  0  0  0  0  0  0  0  0  0
   -1.6964   65.4643   69.6183 H   0  0  0  0  0  0  0  0  0  0  0  0
   -1.6595   66.8001   67.5109 H   0  0  0  0  0  0  0  0  0  0  0  0
   -0.5743   64.7726   71.6632 H   0  0  0  0  0  0  0  0  0  0  0  0
    1.1357   65.1904   71.9529 H   0  0  0  0  0  0  0  0  0  0  0  0
    3.5389   64.9350   65.1943 H   0  0  0  0  0  0  0  0  0  0  0  0
    2.5959   65.2120   63.6907 H   0  0  0  0  0  0  0  0  0  0  0  0
    4.3765   65.4491   63.6907 H   0  0  0  0  0  0  0  0  0  0  0  0
    5.2294   69.1201   63.6988 H   0  0  0  0  0  0  0  0  0  0  0  0
    6.1959   68.8895   62.2024 H   0  0  0  0  0  0  0  0  0  0  0  0
    4.7949   70.0137   62.2024 H   0  0  0  0  0  0  0  0  0  0  0  0
  2  1  2  0
  3  2  1  0
  4  3  2  0
  5  4  1  0
  6  5  2  0
  6  1  1  0
  7  6  1  0
  8  7  1  0
  9  8  2  0
 10  8  2  0
 11  8  1  0
 12 11  2  0
 13 12  1  0
 14 13  2  0
 15 14  1  0
 16 15  2  0
 16 11  1  0
 17 14  1  0
 19 18  1  0
 19  1  1  0
 20  2  1  0
 21 20  1  0
  4 22  1  0
  7 23  1  0
 12 24  1  0
 13 25  1  0
 15 26  1  0
 16 27  1  0
 17 28  1  0
 17 29  1  0
 18 30  1  0
 18 31  1  0
 18 32  1  0
 21 33  1  0
 21 34  1  0
 21 35  1  0
M  END
>  <score>  (4) 
-7.692

$$$$
=
     RDKit          3D

 35 36  0  0  0  0  0  0  0  0999 V2000
    2.5600   62.1450   70.2800 C   0  0  0  0  0  0  0  0  0  0  0  0
    2.8160   60.9170   70.8600 C   0  0  0  0  0  0  0  0  0  0  0  0
    2.7820   60.7010   72.1920 N   0  0  0  0  0  0  0  0  0  0  0  0
    2.4880   61.7630   72.9560 C   0  0  0  0  0  0  0  0  0  0  0  0
    2.2430   63.0010   72.5190 N   0  0  0  0  0  0  0  0  0  0  0  0
    2.3070   63.1560   71.1890 C   0  0  0  0  0  0  0  0  0  0  0  0
    1.9930   64.4620   70.7370 N   0  0  0  0  0  0  0  0  0  0  0  0
    0.3470   64.8140   70.7080 S   0  0  0  0  0  6  0  0  0  0  0  0
   -0.2990   63.6570   70.1220 O   0  0  0  0  0  0  0  0  0  0  0  0
   -0.0630   65.3010   72.0090 O   0  0  0  0  0  0  0  0  0  0  0  0
    0.2270   66.1300   69.5250 C   0  0  0  0  0  0  0  0  0  0  0  0
    1.3040   67.0020   69.3600 C   0  0  0  0  0  0  0  0  0  0  0  0
    1.2190   68.0260   68.4130 C   0  0  0  0  0  0  0  0  0  0  0  0
    0.0910   68.1550   67.5970 C   0  0  0  0  0  0  0  0  0  0  0  0
   -0.9970   67.3020   67.8090 C   0  0  0  0  0  0  0  0  0  0  0  0
   -0.9270   66.2730   68.7530 C   0  0  0  0  0  0  0  0  0  0  0  0
   -0.0330   69.2510   66.7350 N   0  0  0  0  0  0  0  0  0  0  0  0
    3.8770   62.8330   68.4760 C   0  0  0  0  0  0  0  0  0  0  0  0
    2.5850   62.4600   68.9520 O   0  0  0  0  0  0  0  0  0  0  0  0
    3.1580   59.8650   70.0320 O   0  0  0  0  0  0  0  0  0  0  0  0
    3.4630   58.6610   70.7270 C   0  0  0  0  0  0  0  0  0  0  0  0
    2.4446   61.5995   74.0429 H   0  0  0  0  0  0  0  0  0  0  0  0
    2.7129   65.1403   70.4498 H   0  0  0  0  0  0  0  0  0  0  0  0
    2.2118   66.8843   69.9700 H   0  0  0  0  0  0  0  0  0  0  0  0
    2.0497   68.7394   68.3082 H   0  0  0  0  0  0  0  0  0  0  0  0
   -1.9191   67.4424   67.2259 H   0  0  0  0  0  0  0  0  0  0  0  0
   -1.7732   65.5828   68.8860 H   0  0  0  0  0  0  0  0  0  0  0  0
   -0.8653   69.3429   66.1352 H   0  0  0  0  0  0  0  0  0  0  0  0
    0.7081   69.9655   66.7005 H   0  0  0  0  0  0  0  0  0  0  0  0
    4.5416   63.0249   69.3313 H   0  0  0  0  0  0  0  0  0  0  0  0
    4.2920   62.0180   67.8648 H   0  0  0  0  0  0  0  0  0  0  0  0
    3.7937   63.7438   67.8648 H   0  0  0  0  0  0  0  0  0  0  0  0
    3.4172   58.8417   71.8111 H   0  0  0  0  0  0  0  0  0  0  0  0
    2.7331   57.8848   70.4535 H   0  0  0  0  0  0  0  0  0  0  0  0
    4.4744   58.3259   70.4535 H   0  0  0  0  0  0  0  0  0  0  0  0
  2  1  2  0
  3  2  1  0
  4  3  2  0
  5  4  1  0
  6  5  2  0
  6  1  1  0
  7  6  1  0
  8  7  1  0
  9  8  2  0
 10  8  2  0
 11  8  1  0
 12 11  2  0
 13 12  1  0
 14 13  2  0
 15 14  1  0
 16 15  2  0
 16 11  1  0
 17 14  1  0
 19 18  1  0
 19  1  1  0
 20  2  1  0
 21 20  1  0
  4 22  1  0
  7 23  1  0
 12 24  1  0
 13 25  1  0
 15 26  1  0
 16 27  1  0
 17 28  1  0
 17 29  1  0
 18 30  1  0
 18 31  1  0
 18 32  1  0
 21 33  1  0
 21 34  1  0
 21 35  1  0
M  END
>  <score>  (5) 
-7.276

$$$$
=
     RDKit          3D

 35 36  0  0  0  0  0  0  0  0999 V2000
    0.7490   62.5210   71.5910 C   0  0  0  0  0  0  0  0  0  0  0  0
    1.7110   61.5570   71.8210 C   0  0  0  0  0  0  0  0  0  0  0  0
    2.7250   61.2990   70.9680 N   0  0  0  0  0  0  0  0  0  0  0  0
    2.7570   62.0340   69.8470 C   0  0  0  0  0  0  0  0  0  0  0  0
    1.8770   62.9770   69.5010 N   0  0  0  0  0  0  0  0  0  0  0  0
    0.8850   63.1760   70.3800 C   0  0  0  0  0  0  0  0  0  0  0  0
   -0.0110   64.2160   70.0250 N   0  0  0  0  0  0  0  0  0  0  0  0
    0.5710   65.7690   70.3150 S   0  0  0  0  0  6  0  0  0  0  0  0
   -0.1570   66.2600   71.4670 O   0  0  0  0  0  0  0  0  0  0  0  0
    2.0200   65.7460   70.3190 O   0  0  0  0  0  0  0  0  0  0  0  0
    0.0040   66.6910   68.9110 C   0  0  0  0  0  0  0  0  0  0  0  0
   -1.2970   66.4970   68.4450 C   0  0  0  0  0  0  0  0  0  0  0  0
   -1.7530   67.2390   67.3510 C   0  0  0  0  0  0  0  0  0  0  0  0
   -0.9400   68.2070   66.7540 C   0  0  0  0  0  0  0  0  0  0  0  0
    0.3770   68.3530   67.2040 C   0  0  0  0  0  0  0  0  0  0  0  0
    0.8470   67.6190   68.2960 C   0  0  0  0  0  0  0  0  0  0  0  0
   -1.3610   68.8590   65.5900 N   0  0  0  0  0  0  0  0  0  0  0  0
    0.0480   63.5450   73.5710 C   0  0  0  0  0  0  0  0  0  0  0  0
   -0.3150   62.8420   72.3840 O   0  0  0  0  0  0  0  0  0  0  0  0
    1.6080   60.7960   72.9690 O   0  0  0  0  0  0  0  0  0  0  0  0
    2.7410   60.8890   73.8260 C   0  0  0  0  0  0  0  0  0  0  0  0
    3.5844   61.8426   69.1479 H   0  0  0  0  0  0  0  0  0  0  0  0
   -0.9419   64.0361   69.6226 H   0  0  0  0  0  0  0  0  0  0  0  0
   -1.9582   65.7666   68.9341 H   0  0  0  0  0  0  0  0  0  0  0  0
   -2.7635   67.0589   66.9554 H   0  0  0  0  0  0  0  0  0  0  0  0
    1.0511   69.0549   66.6912 H   0  0  0  0  0  0  0  0  0  0  0  0
    1.8711   67.7707   68.6677 H   0  0  0  0  0  0  0  0  0  0  0  0
   -0.7596   69.5717   65.1527 H   0  0  0  0  0  0  0  0  0  0  0  0
   -2.2724   68.6263   65.1703 H   0  0  0  0  0  0  0  0  0  0  0  0
   -0.2546   62.9589   74.4513 H   0  0  0  0  0  0  0  0  0  0  0  0
    1.1373   63.6970   73.5885 H   0  0  0  0  0  0  0  0  0  0  0  0
   -0.4588   64.5212   73.5885 H   0  0  0  0  0  0  0  0  0  0  0  0
    2.4106   60.8619   74.8749 H   0  0  0  0  0  0  0  0  0  0  0  0
    3.4174   60.0434   73.6327 H   0  0  0  0  0  0  0  0  0  0  0  0
    3.2704   61.8336   73.6327 H   0  0  0  0  0  0  0  0  0  0  0  0
  2  1  2  0
  3  2  1  0
  4  3  2  0
  5  4  1  0
  6  5  2  0
  6  1  1  0
  7  6  1  0
  8  7  1  0
  9  8  2  0
 10  8  2  0
 11  8  1  0
 12 11  2  0
 13 12  1  0
 14 13  2  0
 15 14  1  0
 16 15  2  0
 16 11  1  0
 17 14  1  0
 19 18  1  0
 19  1  1  0
 20  2  1  0
 21 20  1  0
  4 22  1  0
  7 23  1  0
 12 24  1  0
 13 25  1  0
 15 26  1  0
 16 27  1  0
 17 28  1  0
 17 29  1  0
 18 30  1  0
 18 31  1  0
 18 32  1  0
 21 33  1  0
 21 34  1  0
 21 35  1  0
M  END
>  <score>  (6) 
-7.26

$$$$
=
     RDKit          3D

 35 36  0  0  0  0  0  0  0  0999 V2000
    1.1550   67.7860   68.3970 C   0  0  0  0  0  0  0  0  0  0  0  0
    0.2800   66.9360   69.0460 C   0  0  0  0  0  0  0  0  0  0  0  0
   -0.8520   66.4610   68.4850 N   0  0  0  0  0  0  0  0  0  0  0  0
   -1.1070   66.8690   67.2330 C   0  0  0  0  0  0  0  0  0  0  0  0
   -0.3550   67.7010   66.5090 N   0  0  0  0  0  0  0  0  0  0  0  0
    0.7470   68.1510   67.1270 C   0  0  0  0  0  0  0  0  0  0  0  0
    1.5630   68.9920   66.3280 N   0  0  0  0  0  0  0  0  0  0  0  0
    2.5130   68.1780   65.2020 S   0  0  0  0  0  6  0  0  0  0  0  0
    3.8250   68.7900   65.2690 O   0  0  0  0  0  0  0  0  0  0  0  0
    2.3620   66.7490   65.3890 O   0  0  0  0  0  0  0  0  0  0  0  0
    1.8010   68.6440   63.6470 C   0  0  0  0  0  0  0  0  0  0  0  0
    0.4650   69.0440   63.5980 C   0  0  0  0  0  0  0  0  0  0  0  0
   -0.0910   69.4330   62.3760 C   0  0  0  0  0  0  0  0  0  0  0  0
    0.6880   69.4740   61.2160 C   0  0  0  0  0  0  0  0  0  0  0  0
    2.0110   69.0240   61.2740 C   0  0  0  0  0  0  0  0  0  0  0  0
    2.5810   68.6330   62.4890 C   0  0  0  0  0  0  0  0  0  0  0  0
    0.0940   69.7510   59.9790 N   0  0  0  0  0  0  0  0  0  0  0  0
    2.2830   69.7490   68.9780 C   0  0  0  0  0  0  0  0  0  0  0  0
    2.3100   68.3250   68.8860 O   0  0  0  0  0  0  0  0  0  0  0  0
    0.5650   66.5820   70.3510 O   0  0  0  0  0  0  0  0  0  0  0  0
    0.6490   65.1760   70.5610 C   0  0  0  0  0  0  0  0  0  0  0  0
   -2.0209   66.4820   66.7587 H   0  0  0  0  0  0  0  0  0  0  0  0
    1.5734   70.0170   66.4286 H   0  0  0  0  0  0  0  0  0  0  0  0
   -0.1453   69.0531   64.5131 H   0  0  0  0  0  0  0  0  0  0  0  0
   -1.1543   69.7102   62.3265 H   0  0  0  0  0  0  0  0  0  0  0  0
    2.6101   68.9772   60.3526 H   0  0  0  0  0  0  0  0  0  0  0  0
    3.6345   68.3195   62.5324 H   0  0  0  0  0  0  0  0  0  0  0  0
    0.6705   69.7806   59.1260 H   0  0  0  0  0  0  0  0  0  0  0  0
   -0.9195   69.9253   59.9219 H   0  0  0  0  0  0  0  0  0  0  0  0
    2.2773   70.0480   70.0366 H   0  0  0  0  0  0  0  0  0  0  0  0
    3.1734   70.1653   68.4842 H   0  0  0  0  0  0  0  0  0  0  0  0
    1.3774   70.1312   68.4842 H   0  0  0  0  0  0  0  0  0  0  0  0
    0.6615   64.9667   71.6408 H   0  0  0  0  0  0  0  0  0  0  0  0
   -0.2214   64.6841   70.1022 H   0  0  0  0  0  0  0  0  0  0  0  0
    1.5717   64.7912   70.1022 H   0  0  0  0  0  0  0  0  0  0  0  0
  2  1  2  0
  3  2  1  0
  4  3  2  0
  5  4  1  0
  6  5  2  0
  6  1  1  0
  7  6  1  0
  8  7  1  0
  9  8  2  0
 10  8  2  0
 11  8  1  0
 12 11  2  0
 13 12  1  0
 14 13  2  0
 15 14  1  0
 16 15  2  0
 16 11  1  0
 17 14  1  0
 19 18  1  0
 19  1  1  0
 20  2  1  0
 21 20  1  0
  4 22  1  0
  7 23  1  0
 12 24  1  0
 13 25  1  0
 15 26  1  0
 16 27  1  0
 17 28  1  0
 17 29  1  0
 18 30  1  0
 18 31  1  0
 18 32  1  0
 21 33  1  0
 21 34  1  0
 21 35  1  0
M  END
>  <score>  (7) 
-6.901

$$$$
=
     RDKit          3D

 35 36  0  0  0  0  0  0  0  0999 V2000
    1.0360   68.7150   64.3550 C   0  0  0  0  0  0  0  0  0  0  0  0
    0.0500   69.0970   63.4660 C   0  0  0  0  0  0  0  0  0  0  0  0
   -1.2700   68.9920   63.7280 N   0  0  0  0  0  0  0  0  0  0  0  0
   -1.5970   68.4740   64.9210 C   0  0  0  0  0  0  0  0  0  0  0  0
   -0.7420   68.0500   65.8540 N   0  0  0  0  0  0  0  0  0  0  0  0
    0.5540   68.1660   65.5300 C   0  0  0  0  0  0  0  0  0  0  0  0
    1.4510   67.7610   66.5510 N   0  0  0  0  0  0  0  0  0  0  0  0
    1.6510   68.8820   67.7910 S   0  0  0  0  0  6  0  0  0  0  0  0
    0.7290   69.9620   67.5050 O   0  0  0  0  0  0  0  0  0  0  0  0
    1.6050   68.1990   69.0680 O   0  0  0  0  0  0  0  0  0  0  0  0
    3.2860   69.5100   67.5200 C   0  0  0  0  0  0  0  0  0  0  0  0
    3.9090   70.2520   68.5250 C   0  0  0  0  0  0  0  0  0  0  0  0
    5.2070   70.7300   68.3210 C   0  0  0  0  0  0  0  0  0  0  0  0
    5.9050   70.4290   67.1480 C   0  0  0  0  0  0  0  0  0  0  0  0
    5.2480   69.7240   66.1330 C   0  0  0  0  0  0  0  0  0  0  0  0
    3.9500   69.2410   66.3220 C   0  0  0  0  0  0  0  0  0  0  0  0
    7.1560   71.0080   66.9040 N   0  0  0  0  0  0  0  0  0  0  0  0
    2.8980   67.7350   63.3370 C   0  0  0  0  0  0  0  0  0  0  0  0
    2.3880   68.7710   64.1740 O   0  0  0  0  0  0  0  0  0  0  0  0
    0.4390   69.5820   62.2330 O   0  0  0  0  0  0  0  0  0  0  0  0
   -0.6480   69.9230   61.3790 C   0  0  0  0  0  0  0  0  0  0  0  0
   -2.6693   68.3909   65.1520 H   0  0  0  0  0  0  0  0  0  0  0  0
    1.9403   66.8548   66.5352 H   0  0  0  0  0  0  0  0  0  0  0  0
    3.3834   70.4588   69.4689 H   0  0  0  0  0  0  0  0  0  0  0  0
    5.6848   71.3507   69.0933 H   0  0  0  0  0  0  0  0  0  0  0  0
    5.7592   69.5479   65.1751 H   0  0  0  0  0  0  0  0  0  0  0  0
    3.4561   68.6541   65.5336 H   0  0  0  0  0  0  0  0  0  0  0  0
    7.6673   70.7837   66.0385 H   0  0  0  0  0  0  0  0  0  0  0  0
    7.5651   71.6583   67.5900 H   0  0  0  0  0  0  0  0  0  0  0  0
    3.2979   66.9226   63.9615 H   0  0  0  0  0  0  0  0  0  0  0  0
    2.0889   67.3450   62.7020 H   0  0  0  0  0  0  0  0  0  0  0  0
    3.7005   68.1384   62.7020 H   0  0  0  0  0  0  0  0  0  0  0  0
   -1.5215   70.1970   61.9889 H   0  0  0  0  0  0  0  0  0  0  0  0
   -0.3623   70.7747   60.7442 H   0  0  0  0  0  0  0  0  0  0  0  0
   -0.9000   69.0608   60.7442 H   0  0  0  0  0  0  0  0  0  0  0  0
  2  1  2  0
  3  2  1  0
  4  3  2  0
  5  4  1  0
  6  5  2  0
  6  1  1  0
  7  6  1  0
  8  7  1  0
  9  8  2  0
 10  8  2  0
 11  8  1  0
 12 11  2  0
 13 12  1  0
 14 13  2  0
 15 14  1  0
 16 15  2  0
 16 11  1  0
 17 14  1  0
 19 18  1  0
 19  1  1  0
 20  2  1  0
 21 20  1  0
  4 22  1  0
  7 23  1  0
 12 24  1  0
 13 25  1  0
 15 26  1  0
 16 27  1  0
 17 28  1  0
 17 29  1  0
 18 30  1  0
 18 31  1  0
 18 32  1  0
 21 33  1  0
 21 34  1  0
 21 35  1  0
M  END
>  <score>  (8) 
-6.9

$$$$
=
     RDKit          3D

 35 36  0  0  0  0  0  0  0  0999 V2000
    2.2710   63.1120   70.3530 C   0  0  0  0  0  0  0  0  0  0  0  0
    1.4700   64.1960   70.6530 C   0  0  0  0  0  0  0  0  0  0  0  0
    0.4640   64.1530   71.5530 N   0  0  0  0  0  0  0  0  0  0  0  0
    0.2620   62.9720   72.1570 C   0  0  0  0  0  0  0  0  0  0  0  0
    0.9520   61.8500   71.9390 N   0  0  0  0  0  0  0  0  0  0  0  0
    1.9260   61.9530   71.0240 C   0  0  0  0  0  0  0  0  0  0  0  0
    2.6830   60.7680   70.8400 N   0  0  0  0  0  0  0  0  0  0  0  0
    3.8280   60.4790   72.0410 S   0  0  0  0  0  6  0  0  0  0  0  0
    5.0170   60.0140   71.3560 O   0  0  0  0  0  0  0  0  0  0  0  0
    3.8930   61.6230   72.9280 O   0  0  0  0  0  0  0  0  0  0  0  0
    3.1600   59.0920   72.9220 C   0  0  0  0  0  0  0  0  0  0  0  0
    3.4270   58.9550   74.2850 C   0  0  0  0  0  0  0  0  0  0  0  0
    2.8840   57.8740   74.9850 C   0  0  0  0  0  0  0  0  0  0  0  0
    2.0380   56.9620   74.3490 C   0  0  0  0  0  0  0  0  0  0  0  0
    1.8200   57.0880   72.9730 C   0  0  0  0  0  0  0  0  0  0  0  0
    2.3560   58.1630   72.2590 C   0  0  0  0  0  0  0  0  0  0  0  0
    1.5950   55.8200   75.0280 N   0  0  0  0  0  0  0  0  0  0  0  0
    4.5600   63.4290   70.0010 C   0  0  0  0  0  0  0  0  0  0  0  0
    3.2960   63.0580   69.4530 O   0  0  0  0  0  0  0  0  0  0  0  0
    1.6890   65.3770   69.9710 O   0  0  0  0  0  0  0  0  0  0  0  0
    0.5660   66.2520   69.9550 C   0  0  0  0  0  0  0  0  0  0  0  0
   -0.5471   62.9238   72.9007 H   0  0  0  0  0  0  0  0  0  0  0  0
    2.5441   60.1364   70.0383 H   0  0  0  0  0  0  0  0  0  0  0  0
    4.0590   59.6910   74.8036 H   0  0  0  0  0  0  0  0  0  0  0  0
    3.1257   57.7396   76.0497 H   0  0  0  0  0  0  0  0  0  0  0  0
    1.2193   56.3316   72.4466 H   0  0  0  0  0  0  0  0  0  0  0  0
    2.1465   58.2761   71.1851 H   0  0  0  0  0  0  0  0  0  0  0  0
    0.9714   55.1497   74.5561 H   0  0  0  0  0  0  0  0  0  0  0  0
    1.8928   55.6504   75.9993 H   0  0  0  0  0  0  0  0  0  0  0  0
    4.5026   63.4122   71.0994 H   0  0  0  0  0  0  0  0  0  0  0  0
    5.3289   62.7186   69.6631 H   0  0  0  0  0  0  0  0  0  0  0  0
    4.8230   64.4422   69.6631 H   0  0  0  0  0  0  0  0  0  0  0  0
    0.2676   66.4845   70.9879 H   0  0  0  0  0  0  0  0  0  0  0  0
    0.8334   67.1822   69.4324 H   0  0  0  0  0  0  0  0  0  0  0  0
   -0.2706   65.7653   69.4324 H   0  0  0  0  0  0  0  0  0  0  0  0
  2  1  2  0
  3  2  1  0
  4  3  2  0
  5  4  1  0
  6  5  2  0
  6  1  1  0
  7  6  1  0
  8  7  1  0
  9  8  2  0
 10  8  2  0
 11  8  1  0
 12 11  2  0
 13 12  1  0
 14 13  2  0
 15 14  1  0
 16 15  2  0
 16 11  1  0
 17 14  1  0
 19 18  1  0
 19  1  1  0
 20  2  1  0
 21 20  1  0
  4 22  1  0
  7 23  1  0
 12 24  1  0
 13 25  1  0
 15 26  1  0
 16 27  1  0
 17 28  1  0
 17 29  1  0
 18 30  1  0
 18 31  1  0
 18 32  1  0
 21 33  1  0
 21 34  1  0
 21 35  1  0
M  END
>  <score>  (9) 
-6.648

$$$$
