=
     RDKit          3D

 94100  0  0  0  0  0  0  0  0999 V2000
   -4.1560   58.9250   75.8970 C   0  0  1  0  0  0  0  0  0  0  0  0
   -3.7190   58.9470   77.3900 C   0  0  0  0  0  0  0  0  0  0  0  0
   -2.2810   59.4250   77.5980 N   0  0  2  0  0  4  0  0  0  0  0  0
   -1.2270   59.0550   76.5030 C   0  0  1  0  0  0  0  0  0  0  0  0
   -1.8060   58.2030   75.3560 C   0  0  1  0  0  0  0  0  0  0  0  0
   -2.9480   59.1890   74.9460 C   0  0  2  0  0  0  0  0  0  0  0  0
   -2.2940   60.6170   75.0510 C   0  0  2  0  0  0  0  0  0  0  0  0
   -0.9410   60.3810   75.7680 C   0  0  2  0  0  0  0  0  0  0  0  0
    0.2530   60.3120   74.7800 C   0  0  2  0  0  0  0  0  0  0  0  0
   -0.0680   59.3030   73.6550 C   0  0  2  0  0  0  0  0  0  0  0  0
   -0.7550   58.0360   74.1970 C   0  0  1  0  0  0  0  0  0  0  0  0
    0.4290   57.1030   74.5410 C   0  0  0  0  0  0  0  0  0  0  0  0
    1.7050   57.8430   74.1150 C   0  0  1  0  0  0  0  0  0  0  0  0
    1.1980   58.7420   72.9830 C   0  0  2  0  0  0  0  0  0  0  0  0
    2.2820   58.6500   75.3020 C   0  0  2  0  0  0  0  0  0  0  0  0
    1.6460   60.0530   75.4600 C   0  0  2  0  0  0  0  0  0  0  0  0
   -2.2980   56.7560   75.7240 C   0  0  2  0  0  0  0  0  0  0  0  0
   -3.6960   56.4740   75.1680 C   0  0  0  0  0  0  0  0  0  0  0  0
   -4.7410   57.5200   75.5430 C   0  0  1  0  0  0  0  0  0  0  0  0
   -1.7400   59.1510   78.9850 C   0  0  0  0  0  0  0  0  0  0  0  0
   -0.9800   60.3490   79.5250 C   0  0  0  0  0  0  0  0  0  0  0  0
   -3.0360   61.4800   75.9190 O   0  0  0  0  0  0  0  0  0  0  0  0
   -2.3390   62.6920   76.2120 C   0  0  0  0  0  0  0  0  0  0  0  0
    1.5620   60.3620   76.8640 O   0  0  0  0  0  0  0  0  0  0  0  0
    3.7070   58.7850   75.0530 O   0  0  0  0  0  0  0  0  0  0  0  0
    4.5110   58.0210   75.9480 C   0  0  0  0  0  0  0  0  0  0  0  0
    2.6510   56.8850   73.6590 O   0  0  0  0  0  0  0  0  0  0  0  0
   -5.5400   57.0440   76.6260 O   0  0  0  0  0  0  0  0  0  0  0  0
   -2.1740   56.5430   77.1270 O   0  0  0  0  0  0  0  0  0  0  0  0
   -1.3060   55.4700   77.4890 C   0  0  0  0  0  0  0  0  0  0  0  0
   -5.3450   59.9100   75.6930 C   0  0  0  0  0  0  0  0  0  0  0  0
   -6.7520   60.4080   73.8620 C   0  0  0  0  0  0  0  0  0  0  0  0
   -6.2240   59.3820   74.6980 O   0  0  0  0  0  0  0  0  0  0  0  0
    2.1570   59.7360   72.6250 O   0  0  0  0  0  0  0  0  0  0  0  0
    2.8970   59.4610   71.5230 C   0  0  0  0  0  0  0  0  0  0  0  0
    3.0320   58.3580   71.0200 O   0  0  0  0  0  0  0  0  0  0  0  0
    3.4760   60.7110   70.9620 C   0  0  0  0  0  0  0  0  0  0  0  0
    2.8830   61.2560   69.8140 C   0  0  0  0  0  0  0  0  0  0  0  0
    3.3770   62.4390   69.2640 C   0  0  0  0  0  0  0  0  0  0  0  0
    4.4650   63.0810   69.8530 C   0  0  0  0  0  0  0  0  0  0  0  0
    5.0630   62.5430   70.9920 C   0  0  0  0  0  0  0  0  0  0  0  0
    4.5720   61.3590   71.5480 C   0  0  0  0  0  0  0  0  0  0  0  0
    0.3210   61.6140   74.0830 O   0  0  0  0  0  0  0  0  0  0  0  0
    1.1240   62.6160   74.5390 C   0  0  0  0  0  0  0  0  0  0  0  0
    1.1030   63.0570   75.6800 O   0  0  0  0  0  0  0  0  0  0  0  0
    2.0440   63.0840   73.4540 C   0  0  0  0  0  0  0  0  0  0  0  0
   -4.3927   59.6204   77.9401 H   0  0  0  0  0  0  0  0  0  0  0  0
   -3.7722   57.9117   77.7579 H   0  0  0  0  0  0  0  0  0  0  0  0
   -2.4077   60.4411   77.4863 H   0  0  0  0  0  0  0  0  0  0  0  0
   -0.3974   58.5333   77.0026 H   0  0  0  0  0  0  0  0  0  0  0  0
   -3.3506   59.0728   73.9289 H   0  0  0  0  0  0  0  0  0  0  0  0
   -2.2336   61.0722   74.0514 H   0  0  0  0  0  0  0  0  0  0  0  0
   -0.6288   61.1929   76.4413 H   0  0  0  0  0  0  0  0  0  0  0  0
   -0.6978   59.8790   72.9611 H   0  0  0  0  0  0  0  0  0  0  0  0
   -1.4367   57.6280   73.4362 H   0  0  0  0  0  0  0  0  0  0  0  0
    0.4507   56.8992   75.6217 H   0  0  0  0  0  0  0  0  0  0  0  0
    0.3377   56.1369   74.0231 H   0  0  0  0  0  0  0  0  0  0  0  0
    1.0097   58.2474   72.0187 H   0  0  0  0  0  0  0  0  0  0  0  0
    2.0615   58.1160   76.2381 H   0  0  0  0  0  0  0  0  0  0  0  0
    2.3214   60.7191   74.9031 H   0  0  0  0  0  0  0  0  0  0  0  0
   -1.6495   56.0147   75.2343 H   0  0  0  0  0  0  0  0  0  0  0  0
   -3.6288   56.4315   74.0709 H   0  0  0  0  0  0  0  0  0  0  0  0
   -4.0268   55.5235   75.6120 H   0  0  0  0  0  0  0  0  0  0  0  0
   -5.3515   57.6666   74.6398 H   0  0  0  0  0  0  0  0  0  0  0  0
   -2.5793   58.9250   79.6592 H   0  0  0  0  0  0  0  0  0  0  0  0
   -1.0484   58.2976   78.9265 H   0  0  0  0  0  0  0  0  0  0  0  0
   -0.9941   60.3268   80.6247 H   0  0  0  0  0  0  0  0  0  0  0  0
    0.0608   60.3130   79.1708 H   0  0  0  0  0  0  0  0  0  0  0  0
   -1.4560   61.2753   79.1708 H   0  0  0  0  0  0  0  0  0  0  0  0
   -2.2661   62.8187   77.3022 H   0  0  0  0  0  0  0  0  0  0  0  0
   -1.3285   62.6476   75.7797 H   0  0  0  0  0  0  0  0  0  0  0  0
   -2.8857   63.5430   75.7797 H   0  0  0  0  0  0  0  0  0  0  0  0
    1.7815   59.5547   77.3933 H   0  0  0  0  0  0  0  0  0  0  0  0
    4.2457   58.2731   76.9853 H   0  0  0  0  0  0  0  0  0  0  0  0
    4.3352   56.9490   75.7747 H   0  0  0  0  0  0  0  0  0  0  0  0
    5.5726   58.2512   75.7747 H   0  0  0  0  0  0  0  0  0  0  0  0
    3.0810   56.4495   74.4372 H   0  0  0  0  0  0  0  0  0  0  0  0
   -5.1164   57.2964   77.4844 H   0  0  0  0  0  0  0  0  0  0  0  0
   -1.2484   55.3988   78.5852 H   0  0  0  0  0  0  0  0  0  0  0  0
   -1.6985   54.5271   77.0804 H   0  0  0  0  0  0  0  0  0  0  0  0
   -0.3019   55.6568   77.0804 H   0  0  0  0  0  0  0  0  0  0  0  0
   -5.8908   60.0298   76.6405 H   0  0  0  0  0  0  0  0  0  0  0  0
   -4.9635   60.8893   75.3684 H   0  0  0  0  0  0  0  0  0  0  0  0
   -7.1663   61.2130   74.4867 H   0  0  0  0  0  0  0  0  0  0  0  0
   -5.9501   60.8125   73.2270 H   0  0  0  0  0  0  0  0  0  0  0  0
   -7.5473   59.9905   73.2270 H   0  0  0  0  0  0  0  0  0  0  0  0
    2.0261   60.7494   69.3460 H   0  0  0  0  0  0  0  0  0  0  0  0
    2.9077   62.8654   68.3651 H   0  0  0  0  0  0  0  0  0  0  0  0
    4.8527   64.0141   69.4183 H   0  0  0  0  0  0  0  0  0  0  0  0
    5.9224   63.0514   71.4534 H   0  0  0  0  0  0  0  0  0  0  0  0
    5.0457   60.9353   72.4458 H   0  0  0  0  0  0  0  0  0  0  0  0
    2.9390   63.5393   73.9032 H   0  0  0  0  0  0  0  0  0  0  0  0
    2.3416   62.2277   72.8309 H   0  0  0  0  0  0  0  0  0  0  0  0
    1.5272   63.8288   72.8309 H   0  0  0  0  0  0  0  0  0  0  0  0
  2  1  1  0
  3  2  1  0
  4  3  1  0
  5  4  1  0
  6  5  1  0
  6  1  1  0
  7  6  1  0
  8  4  1  0
  8  7  1  0
  9  8  1  0
 10  9  1  0
 11 10  1  0
 11  5  1  0
 12 11  1  0
 13 12  1  0
 14 13  1  0
 14 10  1  0
 15 13  1  0
 16 15  1  0
 16  9  1  0
  5 17  1  1
 18 17  1  0
 19 18  1  0
 19  1  1  0
 20  3  1  0
 21 20  1  0
 22  7  1  0
 23 22  1  0
 24 16  1  0
 25 15  1  0
 26 25  1  0
 13 27  1  6
 28 19  1  0
 29 17  1  0
 30 29  1  0
  1 31  1  1
 33 32  1  0
 33 31  1  0
 34 14  1  0
 35 34  1  0
 36 35  2  0
 37 35  1  0
 38 37  2  0
 39 38  1  0
 40 39  2  0
 41 40  1  0
 42 41  2  0
 42 37  1  0
  9 43  1  6
 44 43  1  0
 45 44  2  0
 46 44  1  0
  2 47  1  0
  2 48  1  0
  3 49  1  1
  4 50  1  1
  6 51  1  6
  7 52  1  6
  8 53  1  1
 10 54  1  6
 11 55  1  6
 12 56  1  0
 12 57  1  0
 14 58  1  6
 15 59  1  1
 16 60  1  6
 17 61  1  6
 18 62  1  0
 18 63  1  0
 19 64  1  6
 20 65  1  0
 20 66  1  0
 21 67  1  0
 21 68  1  0
 21 69  1  0
 23 70  1  0
 23 71  1  0
 23 72  1  0
 24 73  1  0
 26 74  1  0
 26 75  1  0
 26 76  1  0
 27 77  1  0
 28 78  1  0
 30 79  1  0
 30 80  1  0
 30 81  1  0
 31 82  1  0
 31 83  1  0
 32 84  1  0
 32 85  1  0
 32 86  1  0
 38 87  1  0
 39 88  1  0
 40 89  1  0
 41 90  1  0
 42 91  1  0
 46 92  1  0
 46 93  1  0
 46 94  1  0
M  CHG  1   3   1
M  END
>  <score>  (1) 
-7.152

$$$$
=
     RDKit          3D

 94100  0  0  0  0  0  0  0  0999 V2000
   -1.4200   56.5690   76.4970 C   0  0  1  0  0  0  0  0  0  0  0  0
   -0.1950   56.2980   77.4170 C   0  0  0  0  0  0  0  0  0  0  0  0
    0.8600   57.4050   77.3690 N   0  0  2  0  0  4  0  0  0  0  0  0
    1.0810   58.1400   76.0060 C   0  0  1  0  0  0  0  0  0  0  0  0
    0.1980   57.5970   74.8650 C   0  0  1  0  0  0  0  0  0  0  0  0
   -1.1790   57.8050   75.5770 C   0  0  2  0  0  0  0  0  0  0  0  0
   -1.0390   59.1900   76.3120 C   0  0  2  0  0  0  0  0  0  0  0  0
    0.4670   59.5410   76.2110 C   0  0  2  0  0  0  0  0  0  0  0  0
    0.7710   60.5380   75.0620 C   0  0  2  0  0  0  0  0  0  0  0  0
    0.1370   60.0210   73.7520 C   0  0  2  0  0  0  0  0  0  0  0  0
    0.3190   58.5010   73.5840 C   0  0  1  0  0  0  0  0  0  0  0  0
    1.6720   58.3800   72.8450 C   0  0  0  0  0  0  0  0  0  0  0  0
    2.1460   59.8130   72.5670 C   0  0  1  0  0  0  0  0  0  0  0  0
    0.8250   60.5870   72.4970 C   0  0  2  0  0  0  0  0  0  0  0  0
    3.0650   60.3090   73.7080 C   0  0  2  0  0  0  0  0  0  0  0  0
    2.2890   60.9090   74.9070 C   0  0  2  0  0  0  0  0  0  0  0  0
    0.4710   56.1210   74.3970 C   0  0  2  0  0  0  0  0  0  0  0  0
   -0.8230   55.3070   74.3070 C   0  0  0  0  0  0  0  0  0  0  0  0
   -1.6670   55.3320   75.5770 C   0  0  1  0  0  0  0  0  0  0  0  0
    2.1830   57.0160   77.9950 C   0  0  0  0  0  0  0  0  0  0  0  0
    3.3470   57.3830   77.0920 C   0  0  0  0  0  0  0  0  0  0  0  0
   -1.3060   59.0770   77.7140 O   0  0  0  0  0  0  0  0  0  0  0  0
   -1.4800   60.3490   78.3420 C   0  0  0  0  0  0  0  0  0  0  0  0
    2.9930   60.5780   76.1190 O   0  0  0  0  0  0  0  0  0  0  0  0
    3.9310   61.3220   73.1290 O   0  0  0  0  0  0  0  0  0  0  0  0
    5.2110   60.8220   72.7530 C   0  0  0  0  0  0  0  0  0  0  0  0
    2.8430   59.8260   71.3280 O   0  0  0  0  0  0  0  0  0  0  0  0
   -1.4650   54.1290   76.3200 O   0  0  0  0  0  0  0  0  0  0  0  0
    1.4760   55.5300   75.2140 O   0  0  0  0  0  0  0  0  0  0  0  0
    1.8830   54.2250   74.8020 C   0  0  0  0  0  0  0  0  0  0  0  0
   -2.7060   56.6750   77.3700 C   0  0  0  0  0  0  0  0  0  0  0  0
   -4.7290   57.3860   76.3780 C   0  0  0  0  0  0  0  0  0  0  0  0
   -3.8370   56.2940   76.5830 O   0  0  0  0  0  0  0  0  0  0  0  0
    1.0340   61.9980   72.5330 O   0  0  0  0  0  0  0  0  0  0  0  0
    0.7740   62.6540   71.3740 C   0  0  0  0  0  0  0  0  0  0  0  0
   -0.3090   63.1140   71.0520 O   0  0  0  0  0  0  0  0  0  0  0  0
    2.0170   62.8000   70.5710 C   0  0  0  0  0  0  0  0  0  0  0  0
    3.0660   63.5560   71.1110 C   0  0  0  0  0  0  0  0  0  0  0  0
    4.2600   63.7040   70.4040 C   0  0  0  0  0  0  0  0  0  0  0  0
    4.4110   63.1010   69.1550 C   0  0  0  0  0  0  0  0  0  0  0  0
    3.3700   62.3510   68.6100 C   0  0  0  0  0  0  0  0  0  0  0  0
    2.1720   62.1990   69.3140 C   0  0  0  0  0  0  0  0  0  0  0  0
    0.0250   61.7810   75.3530 O   0  0  0  0  0  0  0  0  0  0  0  0
    0.5920   62.7910   76.0700 C   0  0  0  0  0  0  0  0  0  0  0  0
    1.0200   62.6770   77.2110 O   0  0  0  0  0  0  0  0  0  0  0  0
    0.6330   64.0490   75.2600 C   0  0  0  0  0  0  0  0  0  0  0  0
   -0.5520   56.2017   78.4530 H   0  0  0  0  0  0  0  0  0  0  0  0
    0.2850   55.3771   77.0543 H   0  0  0  0  0  0  0  0  0  0  0  0
    0.4076   58.1150   77.9623 H   0  0  0  0  0  0  0  0  0  0  0  0
    2.1482   58.0578   75.7526 H   0  0  0  0  0  0  0  0  0  0  0  0
   -2.0630   57.8546   74.9243 H   0  0  0  0  0  0  0  0  0  0  0  0
   -1.7322   59.9189   75.8668 H   0  0  0  0  0  0  0  0  0  0  0  0
    0.8752   60.0718   77.0837 H   0  0  0  0  0  0  0  0  0  0  0  0
   -0.9161   60.3280   73.8344 H   0  0  0  0  0  0  0  0  0  0  0  0
   -0.5319   58.0831   73.0260 H   0  0  0  0  0  0  0  0  0  0  0  0
    2.4036   57.8532   73.4753 H   0  0  0  0  0  0  0  0  0  0  0  0
    1.5658   57.8079   71.9115 H   0  0  0  0  0  0  0  0  0  0  0  0
    0.2400   60.4660   71.5733 H   0  0  0  0  0  0  0  0  0  0  0  0
    3.6243   59.4531   74.1138 H   0  0  0  0  0  0  0  0  0  0  0  0
    2.2598   61.9883   74.6967 H   0  0  0  0  0  0  0  0  0  0  0  0
    0.8660   56.1310   73.3704 H   0  0  0  0  0  0  0  0  0  0  0  0
   -1.4284   55.7116   73.4825 H   0  0  0  0  0  0  0  0  0  0  0  0
   -0.5271   54.2600   74.1447 H   0  0  0  0  0  0  0  0  0  0  0  0
   -2.7105   55.4132   75.2385 H   0  0  0  0  0  0  0  0  0  0  0  0
    2.2940   57.5416   78.9549 H   0  0  0  0  0  0  0  0  0  0  0  0
    2.1897   55.9265   78.1462 H   0  0  0  0  0  0  0  0  0  0  0  0
    4.2164   57.6571   77.7076 H   0  0  0  0  0  0  0  0  0  0  0  0
    3.6040   56.5223   76.4571 H   0  0  0  0  0  0  0  0  0  0  0  0
    3.0639   58.2355   76.4571 H   0  0  0  0  0  0  0  0  0  0  0  0
   -1.4629   60.2238   79.4347 H   0  0  0  0  0  0  0  0  0  0  0  0
   -0.6657   61.0228   78.0373 H   0  0  0  0  0  0  0  0  0  0  0  0
   -2.4454   60.7794   78.0373 H   0  0  0  0  0  0  0  0  0  0  0  0
    2.4435   60.8364   76.9009 H   0  0  0  0  0  0  0  0  0  0  0  0
    5.7954   60.5937   73.6566 H   0  0  0  0  0  0  0  0  0  0  0  0
    5.0862   59.9065   72.1561 H   0  0  0  0  0  0  0  0  0  0  0  0
    5.7397   61.5797   72.1561 H   0  0  0  0  0  0  0  0  0  0  0  0
    3.8181   59.8442   71.4981 H   0  0  0  0  0  0  0  0  0  0  0  0
   -1.4987   54.3299   77.2888 H   0  0  0  0  0  0  0  0  0  0  0  0
    2.0766   53.6042   75.6892 H   0  0  0  0  0  0  0  0  0  0  0  0
    1.0856   53.7653   74.1997 H   0  0  0  0  0  0  0  0  0  0  0  0
    2.8004   54.3001   74.1997 H   0  0  0  0  0  0  0  0  0  0  0  0
   -2.6185   56.0050   78.2380 H   0  0  0  0  0  0  0  0  0  0  0  0
   -2.8308   57.7094   77.7227 H   0  0  0  0  0  0  0  0  0  0  0  0
   -5.0529   57.7826   77.3515 H   0  0  0  0  0  0  0  0  0  0  0  0
   -4.2158   58.1774   75.8121 H   0  0  0  0  0  0  0  0  0  0  0  0
   -5.6069   57.0411   75.8121 H   0  0  0  0  0  0  0  0  0  0  0  0
    2.9480   64.0340   72.0947 H   0  0  0  0  0  0  0  0  0  0  0  0
    5.0824   64.2963   70.8316 H   0  0  0  0  0  0  0  0  0  0  0  0
    5.3531   63.2176   68.5993 H   0  0  0  0  0  0  0  0  0  0  0  0
    3.4915   61.8780   67.6243 H   0  0  0  0  0  0  0  0  0  0  0  0
    1.3511   61.6080   68.8818 H   0  0  0  0  0  0  0  0  0  0  0  0
    0.6613   64.9181   75.9337 H   0  0  0  0  0  0  0  0  0  0  0  0
    1.5316   64.0474   74.6255 H   0  0  0  0  0  0  0  0  0  0  0  0
   -0.2638   64.1060   74.6255 H   0  0  0  0  0  0  0  0  0  0  0  0
  2  1  1  0
  3  2  1  0
  4  3  1  0
  5  4  1  0
  6  5  1  0
  6  1  1  0
  7  6  1  0
  8  4  1  0
  8  7  1  0
  9  8  1  0
 10  9  1  0
 11 10  1  0
 11  5  1  0
 12 11  1  0
 13 12  1  0
 14 13  1  0
 14 10  1  0
 15 13  1  0
 16 15  1  0
 16  9  1  0
  5 17  1  6
 18 17  1  0
 19 18  1  0
 19  1  1  0
 20  3  1  0
 21 20  1  0
 22  7  1  0
 23 22  1  0
 24 16  1  0
 25 15  1  0
 26 25  1  0
 13 27  1  6
 28 19  1  0
 29 17  1  0
 30 29  1  0
  1 31  1  1
 33 32  1  0
 33 31  1  0
 34 14  1  0
 35 34  1  0
 36 35  2  0
 37 35  1  0
 38 37  2  0
 39 38  1  0
 40 39  2  0
 41 40  1  0
 42 41  2  0
 42 37  1  0
  9 43  1  1
 44 43  1  0
 45 44  2  0
 46 44  1  0
  2 47  1  0
  2 48  1  0
  3 49  1  1
  4 50  1  6
  6 51  1  6
  7 52  1  6
  8 53  1  1
 10 54  1  1
 11 55  1  6
 12 56  1  0
 12 57  1  0
 14 58  1  6
 15 59  1  1
 16 60  1  6
 17 61  1  6
 18 62  1  0
 18 63  1  0
 19 64  1  6
 20 65  1  0
 20 66  1  0
 21 67  1  0
 21 68  1  0
 21 69  1  0
 23 70  1  0
 23 71  1  0
 23 72  1  0
 24 73  1  0
 26 74  1  0
 26 75  1  0
 26 76  1  0
 27 77  1  0
 28 78  1  0
 30 79  1  0
 30 80  1  0
 30 81  1  0
 31 82  1  0
 31 83  1  0
 32 84  1  0
 32 85  1  0
 32 86  1  0
 38 87  1  0
 39 88  1  0
 40 89  1  0
 41 90  1  0
 42 91  1  0
 46 92  1  0
 46 93  1  0
 46 94  1  0
M  CHG  1   3   1
M  END
>  <score>  (2) 
-7.125

$$$$
=
     RDKit          3D

 94100  0  0  0  0  0  0  0  0999 V2000
   -5.9790   60.2370   75.5200 C   0  0  1  0  0  0  0  0  0  0  0  0
   -5.8160   60.1070   77.0620 C   0  0  0  0  0  0  0  0  0  0  0  0
   -4.4170   60.4720   77.5600 N   0  0  2  0  0  4  0  0  0  0  0  0
   -3.2030   60.1290   76.6350 C   0  0  1  0  0  0  0  0  0  0  0  0
   -3.6080   59.4150   75.3300 C   0  0  1  0  0  0  0  0  0  0  0  0
   -4.6100   60.5030   74.8230 C   0  0  2  0  0  0  0  0  0  0  0  0
   -3.9170   61.8730   75.1730 C   0  0  2  0  0  0  0  0  0  0  0  0
   -2.7270   61.4910   76.0890 C   0  0  2  0  0  0  0  0  0  0  0  0
   -1.3800   61.4290   75.3220 C   0  0  2  0  0  0  0  0  0  0  0  0
   -1.5430   60.5400   74.0690 C   0  0  2  0  0  0  0  0  0  0  0  0
   -2.3760   59.2780   74.3620 C   0  0  1  0  0  0  0  0  0  0  0  0
   -1.3190   58.2470   74.8170 C   0  0  0  0  0  0  0  0  0  0  0  0
    0.0460   58.9370   74.6910 C   0  0  1  0  0  0  0  0  0  0  0  0
   -0.2060   59.9580   73.5770 C   0  0  2  0  0  0  0  0  0  0  0  0
    0.4400   59.6030   76.0300 C   0  0  2  0  0  0  0  0  0  0  0  0
   -0.1460   61.0260   76.2060 C   0  0  2  0  0  0  0  0  0  0  0  0
   -4.2270   57.9760   75.4700 C   0  0  2  0  0  0  0  0  0  0  0  0
   -5.5150   57.8320   74.6560 C   0  0  0  0  0  0  0  0  0  0  0  0
   -6.5590   58.9080   74.9400 C   0  0  1  0  0  0  0  0  0  0  0  0
   -4.1470   60.0490   78.9880 C   0  0  0  0  0  0  0  0  0  0  0  0
   -3.4430   61.1480   79.7640 C   0  0  0  0  0  0  0  0  0  0  0  0
   -4.7600   62.7050   75.9760 O   0  0  0  0  0  0  0  0  0  0  0  0
   -4.0700   63.8430   76.4960 C   0  0  0  0  0  0  0  0  0  0  0  0
   -0.4650   61.2200   77.5970 O   0  0  0  0  0  0  0  0  0  0  0  0
    1.8920   59.6660   76.0460 O   0  0  0  0  0  0  0  0  0  0  0  0
    2.4610   59.2590   77.2870 C   0  0  0  0  0  0  0  0  0  0  0  0
    1.0120   57.9620   74.3180 O   0  0  0  0  0  0  0  0  0  0  0  0
   -7.5610   58.3950   75.8180 O   0  0  0  0  0  0  0  0  0  0  0  0
   -4.3660   57.6390   76.8470 O   0  0  0  0  0  0  0  0  0  0  0  0
   -3.8070   56.3770   77.2070 C   0  0  0  0  0  0  0  0  0  0  0  0
   -7.0640   61.3100   75.2060 C   0  0  0  0  0  0  0  0  0  0  0  0
   -8.2810   61.9440   73.2820 C   0  0  0  0  0  0  0  0  0  0  0  0
   -7.8610   60.8620   74.1080 O   0  0  0  0  0  0  0  0  0  0  0  0
    0.8480   60.9150   73.4860 O   0  0  0  0  0  0  0  0  0  0  0  0
    1.6410   60.8060   72.3910 C   0  0  0  0  0  0  0  0  0  0  0  0
    2.1570   59.7750   71.9930 O   0  0  0  0  0  0  0  0  0  0  0  0
    1.7430   62.1160   71.6930 C   0  0  0  0  0  0  0  0  0  0  0  0
    0.5560   62.7880   71.3750 C   0  0  0  0  0  0  0  0  0  0  0  0
    0.6010   64.0300   70.7390 C   0  0  0  0  0  0  0  0  0  0  0  0
    1.8300   64.6030   70.4150 C   0  0  0  0  0  0  0  0  0  0  0  0
    3.0160   63.9370   70.7250 C   0  0  0  0  0  0  0  0  0  0  0  0
    2.9760   62.6950   71.3620 C   0  0  0  0  0  0  0  0  0  0  0  0
   -1.1270   62.7780   74.7720 O   0  0  0  0  0  0  0  0  0  0  0  0
   -0.4260   63.7060   75.4810 C   0  0  0  0  0  0  0  0  0  0  0  0
   -0.7250   64.0940   76.6030 O   0  0  0  0  0  0  0  0  0  0  0  0
    0.7660   64.1690   74.7030 C   0  0  0  0  0  0  0  0  0  0  0  0
   -6.5434   60.7748   77.5466 H   0  0  0  0  0  0  0  0  0  0  0  0
   -5.9852   59.0505   77.3175 H   0  0  0  0  0  0  0  0  0  0  0  0
   -4.4722   61.4999   77.5231 H   0  0  0  0  0  0  0  0  0  0  0  0
   -2.5019   59.5154   77.2198 H   0  0  0  0  0  0  0  0  0  0  0  0
   -4.8300   60.4991   73.7452 H   0  0  0  0  0  0  0  0  0  0  0  0
   -3.6568   62.4060   74.2466 H   0  0  0  0  0  0  0  0  0  0  0  0
   -2.5020   62.2219   76.8797 H   0  0  0  0  0  0  0  0  0  0  0  0
   -2.0107   61.2112   73.3336 H   0  0  0  0  0  0  0  0  0  0  0  0
   -2.9295   58.9782   73.4599 H   0  0  0  0  0  0  0  0  0  0  0  0
   -1.5007   57.9521   75.8610 H   0  0  0  0  0  0  0  0  0  0  0  0
   -1.3621   57.3358   74.2024 H   0  0  0  0  0  0  0  0  0  0  0  0
   -0.2420   59.5593   72.5524 H   0  0  0  0  0  0  0  0  0  0  0  0
    0.0304   59.0082   76.8597 H   0  0  0  0  0  0  0  0  0  0  0  0
    0.6489   61.6926   75.8403 H   0  0  0  0  0  0  0  0  0  0  0  0
   -3.5380   57.2381   75.0333 H   0  0  0  0  0  0  0  0  0  0  0  0
   -5.2549   57.8772   73.5882 H   0  0  0  0  0  0  0  0  0  0  0  0
   -5.9654   56.8710   74.9451 H   0  0  0  0  0  0  0  0  0  0  0  0
   -6.9910   59.1688   73.9626 H   0  0  0  0  0  0  0  0  0  0  0  0
   -5.1032   59.8184   79.4805 H   0  0  0  0  0  0  0  0  0  0  0  0
   -3.4951   59.1631   78.9709 H   0  0  0  0  0  0  0  0  0  0  0  0
   -3.5589   60.9671   80.8428 H   0  0  0  0  0  0  0  0  0  0  0  0
   -2.3738   61.1521   79.5057 H   0  0  0  0  0  0  0  0  0  0  0  0
   -3.8863   62.1210   79.5057 H   0  0  0  0  0  0  0  0  0  0  0  0
   -4.0886   63.8123   77.5954 H   0  0  0  0  0  0  0  0  0  0  0  0
   -3.0271   63.8307   76.1465 H   0  0  0  0  0  0  0  0  0  0  0  0
   -4.5631   64.7621   76.1465 H   0  0  0  0  0  0  0  0  0  0  0  0
    0.2321   60.7960   78.1577 H   0  0  0  0  0  0  0  0  0  0  0  0
    1.8726   59.6798   78.1157 H   0  0  0  0  0  0  0  0  0  0  0  0
    2.4523   58.1609   77.3518 H   0  0  0  0  0  0  0  0  0  0  0  0
    3.4974   59.6219   77.3518 H   0  0  0  0  0  0  0  0  0  0  0  0
    1.4084   57.5619   75.1322 H   0  0  0  0  0  0  0  0  0  0  0  0
   -7.2816   58.5380   76.7569 H   0  0  0  0  0  0  0  0  0  0  0  0
   -3.7693   56.2919   78.3031 H   0  0  0  0  0  0  0  0  0  0  0  0
   -4.4315   55.5692   76.7978 H   0  0  0  0  0  0  0  0  0  0  0  0
   -2.7891   56.2967   76.7978 H   0  0  0  0  0  0  0  0  0  0  0  0
   -7.7031   61.4570   76.0892 H   0  0  0  0  0  0  0  0  0  0  0  0
   -6.5789   62.2627   74.9472 H   0  0  0  0  0  0  0  0  0  0  0  0
   -8.6067   62.7831   73.9144 H   0  0  0  0  0  0  0  0  0  0  0  0
   -7.4430   62.2672   72.6469 H   0  0  0  0  0  0  0  0  0  0  0  0
   -9.1176   61.6172   72.6469 H   0  0  0  0  0  0  0  0  0  0  0  0
   -0.4146   62.3359   71.6271 H   0  0  0  0  0  0  0  0  0  0  0  0
   -0.3331   64.5564   70.4935 H   0  0  0  0  0  0  0  0  0  0  0  0
    1.8646   65.5818   69.9142 H   0  0  0  0  0  0  0  0  0  0  0  0
    3.9842   64.3910   70.4672 H   0  0  0  0  0  0  0  0  0  0  0  0
    3.9123   62.1708   71.6041 H   0  0  0  0  0  0  0  0  0  0  0  0
    1.5605   64.4776   75.3984 H   0  0  0  0  0  0  0  0  0  0  0  0
    1.1320   63.3476   74.0694 H   0  0  0  0  0  0  0  0  0  0  0  0
    0.4816   65.0220   74.0694 H   0  0  0  0  0  0  0  0  0  0  0  0
  2  1  1  0
  3  2  1  0
  4  3  1  0
  5  4  1  0
  6  5  1  0
  6  1  1  0
  7  6  1  0
  8  4  1  0
  8  7  1  0
  9  8  1  0
 10  9  1  0
 11 10  1  0
 11  5  1  0
 12 11  1  0
 13 12  1  0
 14 13  1  0
 14 10  1  0
 15 13  1  0
 16 15  1  0
 16  9  1  0
  5 17  1  1
 18 17  1  0
 19 18  1  0
 19  1  1  0
 20  3  1  0
 21 20  1  0
 22  7  1  0
 23 22  1  0
 24 16  1  0
 25 15  1  0
 26 25  1  0
 13 27  1  6
 28 19  1  0
 29 17  1  0
 30 29  1  0
  1 31  1  1
 33 32  1  0
 33 31  1  0
 34 14  1  0
 35 34  1  0
 36 35  2  0
 37 35  1  0
 38 37  2  0
 39 38  1  0
 40 39  2  0
 41 40  1  0
 42 41  2  0
 42 37  1  0
  9 43  1  6
 44 43  1  0
 45 44  2  0
 46 44  1  0
  2 47  1  0
  2 48  1  0
  3 49  1  1
  4 50  1  1
  6 51  1  6
  7 52  1  6
  8 53  1  1
 10 54  1  6
 11 55  1  6
 12 56  1  0
 12 57  1  0
 14 58  1  6
 15 59  1  1
 16 60  1  6
 17 61  1  6
 18 62  1  0
 18 63  1  0
 19 64  1  6
 20 65  1  0
 20 66  1  0
 21 67  1  0
 21 68  1  0
 21 69  1  0
 23 70  1  0
 23 71  1  0
 23 72  1  0
 24 73  1  0
 26 74  1  0
 26 75  1  0
 26 76  1  0
 27 77  1  0
 28 78  1  0
 30 79  1  0
 30 80  1  0
 30 81  1  0
 31 82  1  0
 31 83  1  0
 32 84  1  0
 32 85  1  0
 32 86  1  0
 38 87  1  0
 39 88  1  0
 40 89  1  0
 41 90  1  0
 42 91  1  0
 46 92  1  0
 46 93  1  0
 46 94  1  0
M  CHG  1   3   1
M  END
>  <score>  (3) 
-7.109

$$$$
=
     RDKit          3D

 94100  0  0  0  0  0  0  0  0999 V2000
    0.1200   55.1460   75.7270 C   0  0  1  0  0  0  0  0  0  0  0  0
    0.1150   55.7480   77.1610 C   0  0  0  0  0  0  0  0  0  0  0  0
    0.0610   57.2770   77.1810 N   0  0  2  0  0  4  0  0  0  0  0  0
    0.8010   58.0450   76.0370 C   0  0  1  0  0  0  0  0  0  0  0  0
    1.5310   57.1170   75.0450 C   0  0  1  0  0  0  0  0  0  0  0  0
    0.2890   56.2560   74.6440 C   0  0  2  0  0  0  0  0  0  0  0  0
   -0.8920   57.2920   74.5350 C   0  0  2  0  0  0  0  0  0  0  0  0
   -0.3270   58.6000   75.1420 C   0  0  2  0  0  0  0  0  0  0  0  0
    0.1590   59.5990   74.0590 C   0  0  2  0  0  0  0  0  0  0  0  0
    1.1110   58.8750   73.0820 C   0  0  2  0  0  0  0  0  0  0  0  0
    2.0810   57.9310   73.8170 C   0  0  1  0  0  0  0  0  0  0  0  0
    3.2890   58.8380   74.1440 C   0  0  0  0  0  0  0  0  0  0  0  0
    2.9850   60.2090   73.5240 C   0  0  1  0  0  0  0  0  0  0  0  0
    2.0630   59.8420   72.3560 C   0  0  2  0  0  0  0  0  0  0  0  0
    2.2940   61.1280   74.5590 C   0  0  2  0  0  0  0  0  0  0  0  0
    0.7590   60.9350   74.6280 C   0  0  2  0  0  0  0  0  0  0  0  0
    2.7410   56.2870   75.6090 C   0  0  2  0  0  0  0  0  0  0  0  0
    2.6460   54.8090   75.2200 C   0  0  0  0  0  0  0  0  0  0  0  0
    1.3160   54.1530   75.5790 C   0  0  1  0  0  0  0  0  0  0  0  0
    0.3770   57.8820   78.5320 C   0  0  0  0  0  0  0  0  0  0  0  0
    1.2430   59.1220   78.3900 C   0  0  0  0  0  0  0  0  0  0  0  0
   -1.9950   56.9320   75.3740 O   0  0  0  0  0  0  0  0  0  0  0  0
   -2.9830   57.9600   75.4490 C   0  0  0  0  0  0  0  0  0  0  0  0
    0.3370   61.1110   75.9940 O   0  0  0  0  0  0  0  0  0  0  0  0
    2.5980   62.4930   74.1640 O   0  0  0  0  0  0  0  0  0  0  0  0
    1.4960   63.3840   74.3160 C   0  0  0  0  0  0  0  0  0  0  0  0
    4.2070   60.7870   73.0840 O   0  0  0  0  0  0  0  0  0  0  0  0
    1.4590   53.3880   76.7770 O   0  0  0  0  0  0  0  0  0  0  0  0
    2.8770   56.5140   77.0080 O   0  0  0  0  0  0  0  0  0  0  0  0
    4.1400   57.0470   77.4020 C   0  0  0  0  0  0  0  0  0  0  0  0
   -1.1500   54.2660   75.5330 C   0  0  0  0  0  0  0  0  0  0  0  0
   -1.8510   52.0690   75.0170 C   0  0  0  0  0  0  0  0  0  0  0  0
   -0.7580   52.9820   75.0410 O   0  0  0  0  0  0  0  0  0  0  0  0
    1.4200   60.9910   71.8070 O   0  0  0  0  0  0  0  0  0  0  0  0
    2.1000   61.6220   70.8170 C   0  0  0  0  0  0  0  0  0  0  0  0
    2.9590   61.1140   70.1170 O   0  0  0  0  0  0  0  0  0  0  0  0
    1.6030   63.0140   70.6540 C   0  0  0  0  0  0  0  0  0  0  0  0
    2.5480   64.0450   70.5620 C   0  0  0  0  0  0  0  0  0  0  0  0
    2.1320   65.3650   70.3860 C   0  0  0  0  0  0  0  0  0  0  0  0
    0.7720   65.6620   70.3050 C   0  0  0  0  0  0  0  0  0  0  0  0
   -0.1750   64.6420   70.4000 C   0  0  0  0  0  0  0  0  0  0  0  0
    0.2370   63.3190   70.5750 C   0  0  0  0  0  0  0  0  0  0  0  0
   -1.0130   59.9450   73.2250 O   0  0  0  0  0  0  0  0  0  0  0  0
   -1.6670   61.1280   73.3870 C   0  0  0  0  0  0  0  0  0  0  0  0
   -1.3000   62.1950   72.9120 O   0  0  0  0  0  0  0  0  0  0  0  0
   -2.9030   60.9350   74.2090 C   0  0  0  0  0  0  0  0  0  0  0  0
   -0.7639   55.3615   77.6978 H   0  0  0  0  0  0  0  0  0  0  0  0
    1.0599   55.4514   77.6397 H   0  0  0  0  0  0  0  0  0  0  0  0
   -0.9368   57.4280   76.9750 H   0  0  0  0  0  0  0  0  0  0  0  0
    1.5024   58.7487   76.5090 H   0  0  0  0  0  0  0  0  0  0  0  0
    0.3584   55.7168   73.6877 H   0  0  0  0  0  0  0  0  0  0  0  0
   -1.2351   57.3565   73.4919 H   0  0  0  0  0  0  0  0  0  0  0  0
   -1.0614   59.2056   75.6933 H   0  0  0  0  0  0  0  0  0  0  0  0
    0.4297   58.3529   72.3941 H   0  0  0  0  0  0  0  0  0  0  0  0
    2.3291   57.0759   73.1711 H   0  0  0  0  0  0  0  0  0  0  0  0
    3.4099   58.9319   75.2333 H   0  0  0  0  0  0  0  0  0  0  0  0
    4.2225   58.4176   73.7417 H   0  0  0  0  0  0  0  0  0  0  0  0
    2.5507   59.4077   71.4708 H   0  0  0  0  0  0  0  0  0  0  0  0
    2.6696   60.8808   75.5629 H   0  0  0  0  0  0  0  0  0  0  0  0
    0.3592   61.6977   73.9436 H   0  0  0  0  0  0  0  0  0  0  0  0
    3.6725   56.6384   75.1412 H   0  0  0  0  0  0  0  0  0  0  0  0
    2.7880   54.7286   74.1322 H   0  0  0  0  0  0  0  0  0  0  0  0
    3.4238   54.2808   75.7910 H   0  0  0  0  0  0  0  0  0  0  0  0
    1.0646   53.5052   74.7263 H   0  0  0  0  0  0  0  0  0  0  0  0
   -0.5640   58.1568   79.0310 H   0  0  0  0  0  0  0  0  0  0  0  0
    0.9284   57.1384   79.1261 H   0  0  0  0  0  0  0  0  0  0  0  0
    1.5075   59.5008   79.3883 H   0  0  0  0  0  0  0  0  0  0  0  0
    2.1606   58.8673   77.8395 H   0  0  0  0  0  0  0  0  0  0  0  0
    0.6879   59.8958   77.8395 H   0  0  0  0  0  0  0  0  0  0  0  0
   -3.1990   58.1847   76.5039 H   0  0  0  0  0  0  0  0  0  0  0  0
   -2.6080   58.8660   74.9504 H   0  0  0  0  0  0  0  0  0  0  0  0
   -3.9032   57.6213   74.9504 H   0  0  0  0  0  0  0  0  0  0  0  0
    1.0572   60.8106   76.6032 H   0  0  0  0  0  0  0  0  0  0  0  0
    1.2985   63.5437   75.3863 H   0  0  0  0  0  0  0  0  0  0  0  0
    1.7342   64.3464   73.8395 H   0  0  0  0  0  0  0  0  0  0  0  0
    0.6048   62.9496   73.8395 H   0  0  0  0  0  0  0  0  0  0  0  0
    4.7518   61.0447   73.8694 H   0  0  0  0  0  0  0  0  0  0  0  0
    1.3482   53.9807   77.5622 H   0  0  0  0  0  0  0  0  0  0  0  0
    4.2007   57.0726   78.5000 H   0  0  0  0  0  0  0  0  0  0  0  0
    4.9458   56.4122   77.0049 H   0  0  0  0  0  0  0  0  0  0  0  0
    4.2474   58.0672   77.0049 H   0  0  0  0  0  0  0  0  0  0  0  0
   -1.6679   54.1491   76.4964 H   0  0  0  0  0  0  0  0  0  0  0  0
   -1.8285   54.7476   74.8135 H   0  0  0  0  0  0  0  0  0  0  0  0
   -2.1458   51.8228   76.0478 H   0  0  0  0  0  0  0  0  0  0  0  0
   -2.7014   52.5289   74.4923 H   0  0  0  0  0  0  0  0  0  0  0  0
   -1.5499   51.1503   74.4923 H   0  0  0  0  0  0  0  0  0  0  0  0
    3.6211   63.8127   70.6288 H   0  0  0  0  0  0  0  0  0  0  0  0
    2.8766   66.1712   70.3112 H   0  0  0  0  0  0  0  0  0  0  0  0
    0.4451   66.7030   70.1659 H   0  0  0  0  0  0  0  0  0  0  0  0
   -1.2471   64.8799   70.3370 H   0  0  0  0  0  0  0  0  0  0  0  0
   -0.5108   62.5159   70.6509 H   0  0  0  0  0  0  0  0  0  0  0  0
   -2.6431   60.9756   75.2771 H   0  0  0  0  0  0  0  0  0  0  0  0
   -3.6257   61.7312   73.9770 H   0  0  0  0  0  0  0  0  0  0  0  0
   -3.3485   59.9564   73.9770 H   0  0  0  0  0  0  0  0  0  0  0  0
  2  1  1  0
  3  2  1  0
  4  3  1  0
  5  4  1  0
  6  5  1  0
  6  1  1  0
  7  6  1  0
  8  4  1  0
  8  7  1  0
  9  8  1  0
 10  9  1  0
 11 10  1  0
 11  5  1  0
 12 11  1  0
 13 12  1  0
 14 13  1  0
 14 10  1  0
 15 13  1  0
 16 15  1  0
 16  9  1  0
  5 17  1  1
 18 17  1  0
 19 18  1  0
 19  1  1  0
 20  3  1  0
 21 20  1  0
 22  7  1  0
 23 22  1  0
 24 16  1  0
 25 15  1  0
 26 25  1  0
 13 27  1  6
 28 19  1  0
 29 17  1  0
 30 29  1  0
  1 31  1  6
 33 32  1  0
 33 31  1  0
 34 14  1  0
 35 34  1  0
 36 35  2  0
 37 35  1  0
 38 37  2  0
 39 38  1  0
 40 39  2  0
 41 40  1  0
 42 41  2  0
 42 37  1  0
  9 43  1  6
 44 43  1  0
 45 44  2  0
 46 44  1  0
  2 47  1  0
  2 48  1  0
  3 49  1  6
  4 50  1  1
  6 51  1  6
  7 52  1  6
  8 53  1  1
 10 54  1  6
 11 55  1  6
 12 56  1  0
 12 57  1  0
 14 58  1  6
 15 59  1  1
 16 60  1  6
 17 61  1  6
 18 62  1  0
 18 63  1  0
 19 64  1  6
 20 65  1  0
 20 66  1  0
 21 67  1  0
 21 68  1  0
 21 69  1  0
 23 70  1  0
 23 71  1  0
 23 72  1  0
 24 73  1  0
 26 74  1  0
 26 75  1  0
 26 76  1  0
 27 77  1  0
 28 78  1  0
 30 79  1  0
 30 80  1  0
 30 81  1  0
 31 82  1  0
 31 83  1  0
 32 84  1  0
 32 85  1  0
 32 86  1  0
 38 87  1  0
 39 88  1  0
 40 89  1  0
 41 90  1  0
 42 91  1  0
 46 92  1  0
 46 93  1  0
 46 94  1  0
M  CHG  1   3   1
M  END
>  <score>  (4) 
-6.93

$$$$
=
     RDKit          3D

 94100  0  0  0  0  0  0  0  0999 V2000
    1.7820   60.6480   72.7130 C   0  0  1  0  0  0  0  0  0  0  0  0
    2.6160   60.7820   74.0190 C   0  0  0  0  0  0  0  0  0  0  0  0
    1.8930   60.2610   75.2610 N   0  0  2  0  0  4  0  0  0  0  0  0
    0.3410   60.4420   75.3290 C   0  0  1  0  0  0  0  0  0  0  0  0
   -0.2450   61.1790   74.1080 C   0  0  1  0  0  0  0  0  0  0  0  0
    0.3160   60.2110   73.0160 C   0  0  2  0  0  0  0  0  0  0  0  0
    0.1440   58.7740   73.6360 C   0  0  2  0  0  0  0  0  0  0  0  0
   -0.2310   59.0250   75.1180 C   0  0  2  0  0  0  0  0  0  0  0  0
   -1.7570   58.9150   75.3740 C   0  0  2  0  0  0  0  0  0  0  0  0
   -2.5140   59.7970   74.3560 C   0  0  2  0  0  0  0  0  0  0  0  0
   -1.8170   61.1530   74.1390 C   0  0  1  0  0  0  0  0  0  0  0  0
   -2.4480   62.0590   75.2220 C   0  0  0  0  0  0  0  0  0  0  0  0
   -3.5070   61.2090   75.9380 C   0  0  1  0  0  0  0  0  0  0  0  0
   -3.9120   60.2080   74.8520 C   0  0  2  0  0  0  0  0  0  0  0  0
   -2.8960   60.5220   77.1820 C   0  0  2  0  0  0  0  0  0  0  0  0
   -2.1890   59.1820   76.8610 C   0  0  2  0  0  0  0  0  0  0  0  0
    0.1720   62.6830   73.9180 C   0  0  2  0  0  0  0  0  0  0  0  0
    0.6340   62.9670   72.4860 C   0  0  0  0  0  0  0  0  0  0  0  0
    1.7250   62.0270   71.9820 C   0  0  1  0  0  0  0  0  0  0  0  0
    2.5440   60.6710   76.5650 C   0  0  0  0  0  0  0  0  0  0  0  0
    2.9000   59.4590   77.4070 C   0  0  0  0  0  0  0  0  0  0  0  0
    1.3840   58.0600   73.6770 O   0  0  0  0  0  0  0  0  0  0  0  0
    1.2020   56.6440   73.6380 C   0  0  0  0  0  0  0  0  0  0  0  0
   -1.0460   59.0490   77.7270 O   0  0  0  0  0  0  0  0  0  0  0  0
   -3.9950   60.2860   78.1030 O   0  0  0  0  0  0  0  0  0  0  0  0
   -3.6970   60.6600   79.4460 C   0  0  0  0  0  0  0  0  0  0  0  0
   -4.5840   62.0560   76.3180 O   0  0  0  0  0  0  0  0  0  0  0  0
    2.9970   62.6700   72.0660 O   0  0  0  0  0  0  0  0  0  0  0  0
    1.1140   63.0560   74.9190 O   0  0  0  0  0  0  0  0  0  0  0  0
    0.7430   64.2020   75.6840 C   0  0  0  0  0  0  0  0  0  0  0  0
    2.5270   59.7070   71.7200 C   0  0  0  0  0  0  0  0  0  0  0  0
    3.6990   59.6920   69.6680 C   0  0  0  0  0  0  0  0  0  0  0  0
    2.8520   60.4390   70.5360 O   0  0  0  0  0  0  0  0  0  0  0  0
   -4.6810   59.1310   75.3840 O   0  0  0  0  0  0  0  0  0  0  0  0
   -5.7330   58.7350   74.6230 C   0  0  0  0  0  0  0  0  0  0  0  0
   -5.8620   57.6330   74.1160 O   0  0  0  0  0  0  0  0  0  0  0  0
   -6.7510   59.8160   74.5440 C   0  0  0  0  0  0  0  0  0  0  0  0
   -6.9800   60.4180   73.3000 C   0  0  0  0  0  0  0  0  0  0  0  0
   -7.9410   61.4220   73.1720 C   0  0  0  0  0  0  0  0  0  0  0  0
   -8.6750   61.8300   74.2850 C   0  0  0  0  0  0  0  0  0  0  0  0
   -8.4510   61.2380   75.5270 C   0  0  0  0  0  0  0  0  0  0  0  0
   -7.4900   60.2320   75.6610 C   0  0  0  0  0  0  0  0  0  0  0  0
   -2.1610   57.5360   75.0220 O   0  0  0  0  0  0  0  0  0  0  0  0
   -2.0380   56.5170   75.9170 C   0  0  0  0  0  0  0  0  0  0  0  0
   -0.9830   56.1650   76.4270 O   0  0  0  0  0  0  0  0  0  0  0  0
   -3.3750   55.9030   76.1990 C   0  0  0  0  0  0  0  0  0  0  0  0
    3.5496   60.2136   73.8956 H   0  0  0  0  0  0  0  0  0  0  0  0
    2.7984   61.8551   74.1774 H   0  0  0  0  0  0  0  0  0  0  0  0
    2.0176   59.2467   75.1323 H   0  0  0  0  0  0  0  0  0  0  0  0
    0.1092   60.9761   76.2623 H   0  0  0  0  0  0  0  0  0  0  0  0
   -0.1957   60.2254   72.0424 H   0  0  0  0  0  0  0  0  0  0  0  0
   -0.5866   58.2003   73.0468 H   0  0  0  0  0  0  0  0  0  0  0  0
    0.1697   58.2842   75.8255 H   0  0  0  0  0  0  0  0  0  0  0  0
   -2.5510   59.1749   73.4496 H   0  0  0  0  0  0  0  0  0  0  0  0
   -1.9912   61.5014   73.1103 H   0  0  0  0  0  0  0  0  0  0  0  0
   -1.6794   62.3894   75.9362 H   0  0  0  0  0  0  0  0  0  0  0  0
   -2.8954   62.9596   74.7762 H   0  0  0  0  0  0  0  0  0  0  0  0
   -4.5721   60.5920   74.0602 H   0  0  0  0  0  0  0  0  0  0  0  0
   -2.1184   61.1751   77.6047 H   0  0  0  0  0  0  0  0  0  0  0  0
   -2.9627   58.4198   77.0351 H   0  0  0  0  0  0  0  0  0  0  0  0
   -0.7093   63.3260   74.0588 H   0  0  0  0  0  0  0  0  0  0  0  0
   -0.2355   62.8753   71.8186 H   0  0  0  0  0  0  0  0  0  0  0  0
    1.0653   63.9789   72.4882 H   0  0  0  0  0  0  0  0  0  0  0  0
    1.4660   61.8032   70.9366 H   0  0  0  0  0  0  0  0  0  0  0  0
    3.4613   61.2371   76.3455 H   0  0  0  0  0  0  0  0  0  0  0  0
    1.8315   61.2899   77.1300 H   0  0  0  0  0  0  0  0  0  0  0  0
    2.8239   59.7182   78.4733 H   0  0  0  0  0  0  0  0  0  0  0  0
    2.2053   58.6372   77.1789 H   0  0  0  0  0  0  0  0  0  0  0  0
    3.9288   59.1434   77.1789 H   0  0  0  0  0  0  0  0  0  0  0  0
    1.1517   56.2524   74.6647 H   0  0  0  0  0  0  0  0  0  0  0  0
    0.2663   56.4090   73.1096 H   0  0  0  0  0  0  0  0  0  0  0  0
    2.0479   56.1800   73.1096 H   0  0  0  0  0  0  0  0  0  0  0  0
   -1.3416   59.0834   78.6712 H   0  0  0  0  0  0  0  0  0  0  0  0
   -4.2292   59.9921   80.1393 H   0  0  0  0  0  0  0  0  0  0  0  0
   -2.6135   60.5786   79.6175 H   0  0  0  0  0  0  0  0  0  0  0  0
   -4.0184   61.6979   79.6175 H   0  0  0  0  0  0  0  0  0  0  0  0
   -4.6379   62.0984   77.3056 H   0  0  0  0  0  0  0  0  0  0  0  0
    3.2420   62.7938   73.0172 H   0  0  0  0  0  0  0  0  0  0  0  0
    0.8189   63.9675   76.7560 H   0  0  0  0  0  0  0  0  0  0  0  0
    1.4165   65.0376   75.4428 H   0  0  0  0  0  0  0  0  0  0  0  0
   -0.2924   64.4843   75.4428 H   0  0  0  0  0  0  0  0  0  0  0  0
    3.4503   59.3346   72.1878 H   0  0  0  0  0  0  0  0  0  0  0  0
    1.8816   58.8541   71.4628 H   0  0  0  0  0  0  0  0  0  0  0  0
    4.3910   59.0817   70.2668 H   0  0  0  0  0  0  0  0  0  0  0  0
    3.0860   59.0351   69.0334 H   0  0  0  0  0  0  0  0  0  0  0  0
    4.2741   60.3823   69.0334 H   0  0  0  0  0  0  0  0  0  0  0  0
   -6.4006   60.0984   72.4213 H   0  0  0  0  0  0  0  0  0  0  0  0
   -8.1193   61.8913   72.1932 H   0  0  0  0  0  0  0  0  0  0  0  0
   -9.4326   62.6209   74.1828 H   0  0  0  0  0  0  0  0  0  0  0  0
   -9.0315   61.5631   76.4030 H   0  0  0  0  0  0  0  0  0  0  0  0
   -7.3134   59.7668   76.6420 H   0  0  0  0  0  0  0  0  0  0  0  0
   -3.5248   55.8342   77.2866 H   0  0  0  0  0  0  0  0  0  0  0  0
   -4.1658   56.5282   75.7587 H   0  0  0  0  0  0  0  0  0  0  0  0
   -3.4161   54.8958   75.7587 H   0  0  0  0  0  0  0  0  0  0  0  0
  2  1  1  0
  3  2  1  0
  4  3  1  0
  5  4  1  0
  6  5  1  0
  6  1  1  0
  7  6  1  0
  8  4  1  0
  8  7  1  0
  9  8  1  0
 10  9  1  0
 11 10  1  0
 11  5  1  0
 12 11  1  0
 13 12  1  0
 14 13  1  0
 14 10  1  0
 15 13  1  0
 16 15  1  0
 16  9  1  0
  5 17  1  6
 18 17  1  0
 19 18  1  0
 19  1  1  0
 20  3  1  0
 21 20  1  0
 22  7  1  0
 23 22  1  0
 24 16  1  0
 25 15  1  0
 26 25  1  0
 13 27  1  1
 28 19  1  0
 29 17  1  0
 30 29  1  0
  1 31  1  6
 33 32  1  0
 33 31  1  0
 34 14  1  0
 35 34  1  0
 36 35  2  0
 37 35  1  0
 38 37  2  0
 39 38  1  0
 40 39  2  0
 41 40  1  0
 42 41  2  0
 42 37  1  0
  9 43  1  6
 44 43  1  0
 45 44  2  0
 46 44  1  0
  2 47  1  0
  2 48  1  0
  3 49  1  6
  4 50  1  1
  6 51  1  6
  7 52  1  6
  8 53  1  1
 10 54  1  6
 11 55  1  6
 12 56  1  0
 12 57  1  0
 14 58  1  6
 15 59  1  1
 16 60  1  1
 17 61  1  1
 18 62  1  0
 18 63  1  0
 19 64  1  6
 20 65  1  0
 20 66  1  0
 21 67  1  0
 21 68  1  0
 21 69  1  0
 23 70  1  0
 23 71  1  0
 23 72  1  0
 24 73  1  0
 26 74  1  0
 26 75  1  0
 26 76  1  0
 27 77  1  0
 28 78  1  0
 30 79  1  0
 30 80  1  0
 30 81  1  0
 31 82  1  0
 31 83  1  0
 32 84  1  0
 32 85  1  0
 32 86  1  0
 38 87  1  0
 39 88  1  0
 40 89  1  0
 41 90  1  0
 42 91  1  0
 46 92  1  0
 46 93  1  0
 46 94  1  0
M  CHG  1   3   1
M  END
>  <score>  (5) 
-6.535

$$$$
=
     RDKit          3D

 94100  0  0  0  0  0  0  0  0999 V2000
    1.4470   62.2240   72.5610 C   0  0  1  0  0  0  0  0  0  0  0  0
    1.5520   63.0220   73.8930 C   0  0  0  0  0  0  0  0  0  0  0  0
    1.6300   62.1300   75.1330 N   0  0  2  0  0  4  0  0  0  0  0  0
    0.8310   60.7860   75.1130 C   0  0  1  0  0  0  0  0  0  0  0  0
    0.0260   60.5680   73.8160 C   0  0  1  0  0  0  0  0  0  0  0  0
    1.2270   60.7020   72.8240 C   0  0  2  0  0  0  0  0  0  0  0  0
    2.4140   59.9520   73.5360 C   0  0  2  0  0  0  0  0  0  0  0  0
    1.9080   59.6900   74.9770 C   0  0  2  0  0  0  0  0  0  0  0  0
    1.3700   58.2470   75.1670 C   0  0  2  0  0  0  0  0  0  0  0  0
    0.3460   57.9300   74.0540 C   0  0  2  0  0  0  0  0  0  0  0  0
   -0.5890   59.1210   73.7750 C   0  0  1  0  0  0  0  0  0  0  0  0
   -1.7600   58.8980   74.7590 C   0  0  0  0  0  0  0  0  0  0  0  0
   -1.4750   57.5750   75.4820 C   0  0  1  0  0  0  0  0  0  0  0  0
   -0.6350   56.8130   74.4520 C   0  0  2  0  0  0  0  0  0  0  0  0
   -0.7070   57.8340   76.8000 C   0  0  2  0  0  0  0  0  0  0  0  0
    0.8260   57.9400   76.6090 C   0  0  2  0  0  0  0  0  0  0  0  0
   -1.1590   61.5640   73.5400 C   0  0  2  0  0  0  0  0  0  0  0  0
   -1.1100   62.1220   72.1150 C   0  0  0  0  0  0  0  0  0  0  0  0
    0.2290   62.7440   71.7330 C   0  0  1  0  0  0  0  0  0  0  0  0
    1.4090   62.8730   76.4340 C   0  0  0  0  0  0  0  0  0  0  0  0
    1.2430   64.3630   76.1950 C   0  0  0  0  0  0  0  0  0  0  0  0
    3.5620   60.7930   73.6870 O   0  0  0  0  0  0  0  0  0  0  0  0
    4.7130   60.2740   73.0200 C   0  0  0  0  0  0  0  0  0  0  0  0
    1.3360   58.9170   77.5350 O   0  0  0  0  0  0  0  0  0  0  0  0
   -1.0150   56.7210   77.6820 O   0  0  0  0  0  0  0  0  0  0  0  0
   -1.3760   57.1270   78.9990 C   0  0  0  0  0  0  0  0  0  0  0  0
   -2.7140   56.9300   75.7490 O   0  0  0  0  0  0  0  0  0  0  0  0
    0.1520   64.1660   71.8310 O   0  0  0  0  0  0  0  0  0  0  0  0
   -1.2020   62.5620   74.5560 O   0  0  0  0  0  0  0  0  0  0  0  0
   -2.2340   62.3770   75.5240 C   0  0  0  0  0  0  0  0  0  0  0  0
    2.6890   62.5360   71.6740 C   0  0  0  0  0  0  0  0  0  0  0  0
    3.3750   62.4400   69.4150 C   0  0  0  0  0  0  0  0  0  0  0  0
    2.2790   62.6190   70.3080 O   0  0  0  0  0  0  0  0  0  0  0  0
   -0.0100   55.6640   75.0210 O   0  0  0  0  0  0  0  0  0  0  0  0
   -0.4560   54.4690   74.5580 C   0  0  0  0  0  0  0  0  0  0  0  0
   -0.2130   54.0040   73.4570 O   0  0  0  0  0  0  0  0  0  0  0  0
   -1.2330   53.7620   75.6110 C   0  0  0  0  0  0  0  0  0  0  0  0
   -0.5650   53.3850   76.7840 C   0  0  0  0  0  0  0  0  0  0  0  0
   -1.2570   52.7390   77.8090 C   0  0  0  0  0  0  0  0  0  0  0  0
   -2.6160   52.4640   77.6670 C   0  0  0  0  0  0  0  0  0  0  0  0
   -3.2870   52.8320   76.5010 C   0  0  0  0  0  0  0  0  0  0  0  0
   -2.5990   53.4800   75.4720 C   0  0  0  0  0  0  0  0  0  0  0  0
    2.4910   57.3220   74.8950 O   0  0  0  0  0  0  0  0  0  0  0  0
    3.1520   56.7000   75.9110 C   0  0  0  0  0  0  0  0  0  0  0  0
    2.7610   55.6860   76.4750 O   0  0  0  0  0  0  0  0  0  0  0  0
    4.4270   57.4190   76.2240 C   0  0  0  0  0  0  0  0  0  0  0  0
    2.4573   63.6457   73.8550 H   0  0  0  0  0  0  0  0  0  0  0  0
    0.6353   63.6232   73.9836 H   0  0  0  0  0  0  0  0  0  0  0  0
    2.6147   61.8319   75.0835 H   0  0  0  0  0  0  0  0  0  0  0  0
    0.1712   60.7787   75.9931 H   0  0  0  0  0  0  0  0  0  0  0  0
    1.0895   60.2539   71.8289 H   0  0  0  0  0  0  0  0  0  0  0  0
    2.6914   59.0602   72.9549 H   0  0  0  0  0  0  0  0  0  0  0  0
    2.6843   59.7444   75.7544 H   0  0  0  0  0  0  0  0  0  0  0  0
    0.9741   57.6571   73.1932 H   0  0  0  0  0  0  0  0  0  0  0  0
   -0.8907   59.1182   72.7172 H   0  0  0  0  0  0  0  0  0  0  0  0
   -1.8101   59.7240   75.4837 H   0  0  0  0  0  0  0  0  0  0  0  0
   -2.7235   58.8626   74.2295 H   0  0  0  0  0  0  0  0  0  0  0  0
   -1.1849   56.3775   73.6047 H   0  0  0  0  0  0  0  0  0  0  0  0
   -1.0228   58.8035   77.2127 H   0  0  0  0  0  0  0  0  0  0  0  0
    1.1924   56.9206   76.8000 H   0  0  0  0  0  0  0  0  0  0  0  0
   -2.1131   61.0191   73.5931 H   0  0  0  0  0  0  0  0  0  0  0  0
   -1.3207   61.2999   71.4152 H   0  0  0  0  0  0  0  0  0  0  0  0
   -1.8582   62.9268   72.0647 H   0  0  0  0  0  0  0  0  0  0  0  0
    0.4150   62.4318   70.6948 H   0  0  0  0  0  0  0  0  0  0  0  0
    0.5016   62.4843   76.9193 H   0  0  0  0  0  0  0  0  0  0  0  0
    2.2889   62.7195   77.0761 H   0  0  0  0  0  0  0  0  0  0  0  0
    1.1848   64.8851   77.1614 H   0  0  0  0  0  0  0  0  0  0  0  0
    2.1046   64.7412   75.6252 H   0  0  0  0  0  0  0  0  0  0  0  0
    0.3193   64.5423   75.6252 H   0  0  0  0  0  0  0  0  0  0  0  0
    5.4502   59.9416   73.7657 H   0  0  0  0  0  0  0  0  0  0  0  0
    4.4186   59.4215   72.3902 H   0  0  0  0  0  0  0  0  0  0  0  0
    5.1569   61.0591   72.3902 H   0  0  0  0  0  0  0  0  0  0  0  0
    1.1751   58.6087   78.4619 H   0  0  0  0  0  0  0  0  0  0  0  0
   -0.8319   56.5150   79.7334 H   0  0  0  0  0  0  0  0  0  0  0  0
   -1.1162   58.1865   79.1402 H   0  0  0  0  0  0  0  0  0  0  0  0
   -2.4586   56.9929   79.1402 H   0  0  0  0  0  0  0  0  0  0  0  0
   -2.8461   56.8612   76.7277 H   0  0  0  0  0  0  0  0  0  0  0  0
    0.1377   64.4307   72.7848 H   0  0  0  0  0  0  0  0  0  0  0  0
   -1.8067   62.4536   76.5347 H   0  0  0  0  0  0  0  0  0  0  0  0
   -3.0039   63.1514   75.3917 H   0  0  0  0  0  0  0  0  0  0  0  0
   -2.6869   61.3833   75.3917 H   0  0  0  0  0  0  0  0  0  0  0  0
    3.1321   63.4938   71.9844 H   0  0  0  0  0  0  0  0  0  0  0  0
    3.4364   61.7371   71.7887 H   0  0  0  0  0  0  0  0  0  0  0  0
    4.2984   62.2892   69.9934 H   0  0  0  0  0  0  0  0  0  0  0  0
    3.1915   61.5599   68.7811 H   0  0  0  0  0  0  0  0  0  0  0  0
    3.4811   63.3327   68.7811 H   0  0  0  0  0  0  0  0  0  0  0  0
    0.5081   53.5990   76.8969 H   0  0  0  0  0  0  0  0  0  0  0  0
   -0.7300   52.4467   78.7292 H   0  0  0  0  0  0  0  0  0  0  0  0
   -3.1605   51.9556   78.4763 H   0  0  0  0  0  0  0  0  0  0  0  0
   -4.3591   52.6118   76.3914 H   0  0  0  0  0  0  0  0  0  0  0  0
   -3.1294   53.7689   74.5526 H   0  0  0  0  0  0  0  0  0  0  0  0
    4.5504   57.4886   77.3148 H   0  0  0  0  0  0  0  0  0  0  0  0
    5.2749   56.8661   75.7936 H   0  0  0  0  0  0  0  0  0  0  0  0
    4.3926   58.4307   75.7936 H   0  0  0  0  0  0  0  0  0  0  0  0
  2  1  1  0
  3  2  1  0
  4  3  1  0
  5  4  1  0
  6  5  1  0
  6  1  1  0
  7  6  1  0
  8  4  1  0
  8  7  1  0
  9  8  1  0
 10  9  1  0
 11 10  1  0
 11  5  1  0
 12 11  1  0
 13 12  1  0
 14 13  1  0
 14 10  1  0
 15 13  1  0
 16 15  1  0
 16  9  1  0
  5 17  1  6
 18 17  1  0
 19 18  1  0
 19  1  1  0
 20  3  1  0
 21 20  1  0
 22  7  1  0
 23 22  1  0
 24 16  1  0
 25 15  1  0
 26 25  1  0
 13 27  1  1
 28 19  1  0
 29 17  1  0
 30 29  1  0
  1 31  1  6
 33 32  1  0
 33 31  1  0
 34 14  1  0
 35 34  1  0
 36 35  2  0
 37 35  1  0
 38 37  2  0
 39 38  1  0
 40 39  2  0
 41 40  1  0
 42 41  2  0
 42 37  1  0
  9 43  1  6
 44 43  1  0
 45 44  2  0
 46 44  1  0
  2 47  1  0
  2 48  1  0
  3 49  1  1
  4 50  1  1
  6 51  1  6
  7 52  1  6
  8 53  1  1
 10 54  1  6
 11 55  1  6
 12 56  1  0
 12 57  1  0
 14 58  1  6
 15 59  1  1
 16 60  1  1
 17 61  1  6
 18 62  1  0
 18 63  1  0
 19 64  1  6
 20 65  1  0
 20 66  1  0
 21 67  1  0
 21 68  1  0
 21 69  1  0
 23 70  1  0
 23 71  1  0
 23 72  1  0
 24 73  1  0
 26 74  1  0
 26 75  1  0
 26 76  1  0
 27 77  1  0
 28 78  1  0
 30 79  1  0
 30 80  1  0
 30 81  1  0
 31 82  1  0
 31 83  1  0
 32 84  1  0
 32 85  1  0
 32 86  1  0
 38 87  1  0
 39 88  1  0
 40 89  1  0
 41 90  1  0
 42 91  1  0
 46 92  1  0
 46 93  1  0
 46 94  1  0
M  CHG  1   3   1
M  END
>  <score>  (6) 
-6.106

$$$$
=
     RDKit          3D

 94100  0  0  0  0  0  0  0  0999 V2000
    2.3080   61.9890   72.0240 C   0  0  1  0  0  0  0  0  0  0  0  0
    2.5680   63.1160   73.0650 C   0  0  0  0  0  0  0  0  0  0  0  0
    2.0510   62.7830   74.4660 N   0  0  2  0  0  4  0  0  0  0  0  0
    0.7420   61.9350   74.5760 C   0  0  1  0  0  0  0  0  0  0  0  0
    0.1250   61.5790   73.2080 C   0  0  1  0  0  0  0  0  0  0  0  0
    1.3860   60.8750   72.6090 C   0  0  2  0  0  0  0  0  0  0  0  0
    1.9850   60.0500   73.8080 C   0  0  2  0  0  0  0  0  0  0  0  0
    1.2120   60.5460   75.0560 C   0  0  2  0  0  0  0  0  0  0  0  0
    0.0570   59.5920   75.4590 C   0  0  2  0  0  0  0  0  0  0  0  0
   -0.8250   59.3010   74.2240 C   0  0  2  0  0  0  0  0  0  0  0  0
   -1.0670   60.5650   73.3790 C   0  0  1  0  0  0  0  0  0  0  0  0
   -2.3410   61.1790   74.0030 C   0  0  0  0  0  0  0  0  0  0  0  0
   -2.7950   60.2110   75.1040 C   0  0  1  0  0  0  0  0  0  0  0  0
   -2.2520   58.8680   74.6040 C   0  0  2  0  0  0  0  0  0  0  0  0
   -2.1940   60.6240   76.4680 C   0  0  2  0  0  0  0  0  0  0  0  0
   -0.7700   60.0650   76.7090 C   0  0  2  0  0  0  0  0  0  0  0  0
   -0.4260   62.7720   72.3450 C   0  0  2  0  0  0  0  0  0  0  0  0
    0.0780   62.7060   70.9000 C   0  0  0  0  0  0  0  0  0  0  0  0
    1.5930   62.5880   70.7710 C   0  0  1  0  0  0  0  0  0  0  0  0
    2.0050   63.9740   75.3990 C   0  0  0  0  0  0  0  0  0  0  0  0
    0.6520   64.0870   76.0790 C   0  0  0  0  0  0  0  0  0  0  0  0
    3.3540   60.3860   74.0550 O   0  0  0  0  0  0  0  0  0  0  0  0
    4.1510   59.2440   74.3700 C   0  0  0  0  0  0  0  0  0  0  0  0
   -0.0130   61.0420   77.4470 O   0  0  0  0  0  0  0  0  0  0  0  0
   -3.0980   60.1170   77.4870 O   0  0  0  0  0  0  0  0  0  0  0  0
   -3.3700   61.0600   78.5200 C   0  0  0  0  0  0  0  0  0  0  0  0
   -4.2160   60.2290   75.1620 O   0  0  0  0  0  0  0  0  0  0  0  0
    2.1560   63.8630   70.4580 O   0  0  0  0  0  0  0  0  0  0  0  0
   -0.1590   64.0090   72.9990 O   0  0  0  0  0  0  0  0  0  0  0  0
   -0.1810   65.1490   72.1410 C   0  0  0  0  0  0  0  0  0  0  0  0
    3.6700   61.4610   71.4860 C   0  0  0  0  0  0  0  0  0  0  0  0
    3.6750   59.7430   69.8640 C   0  0  0  0  0  0  0  0  0  0  0  0
    3.5330   61.1400   70.1000 O   0  0  0  0  0  0  0  0  0  0  0  0
   -2.3070   57.8640   75.6160 O   0  0  0  0  0  0  0  0  0  0  0  0
   -3.1800   56.8510   75.3840 C   0  0  0  0  0  0  0  0  0  0  0  0
   -4.3870   56.9740   75.2640 O   0  0  0  0  0  0  0  0  0  0  0  0
   -2.4500   55.5650   75.2280 C   0  0  0  0  0  0  0  0  0  0  0  0
   -1.2080   55.5850   74.5800 C   0  0  0  0  0  0  0  0  0  0  0  0
   -0.4760   54.4070   74.4280 C   0  0  0  0  0  0  0  0  0  0  0  0
   -0.9820   53.2040   74.9190 C   0  0  0  0  0  0  0  0  0  0  0  0
   -2.2200   53.1750   75.5600 C   0  0  0  0  0  0  0  0  0  0  0  0
   -2.9570   54.3520   75.7160 C   0  0  0  0  0  0  0  0  0  0  0  0
    0.6630   58.2820   75.7820 O   0  0  0  0  0  0  0  0  0  0  0  0
    1.1620   58.0250   77.0220 C   0  0  0  0  0  0  0  0  0  0  0  0
    2.0440   58.6770   77.5650 O   0  0  0  0  0  0  0  0  0  0  0  0
    0.4690   56.8460   77.6320 C   0  0  0  0  0  0  0  0  0  0  0  0
    3.6524   63.2902   73.1262 H   0  0  0  0  0  0  0  0  0  0  0  0
    2.0215   64.0066   72.7214 H   0  0  0  0  0  0  0  0  0  0  0  0
    2.7890   62.1391   74.7849 H   0  0  0  0  0  0  0  0  0  0  0  0
    0.0303   62.4998   75.1960 H   0  0  0  0  0  0  0  0  0  0  0  0
    1.2070   60.1811   71.7745 H   0  0  0  0  0  0  0  0  0  0  0  0
    1.9081   58.9741   73.5925 H   0  0  0  0  0  0  0  0  0  0  0  0
    1.8061   60.5836   75.9810 H   0  0  0  0  0  0  0  0  0  0  0  0
   -0.2712   58.5162   73.6879 H   0  0  0  0  0  0  0  0  0  0  0  0
   -1.1801   60.2886   72.3203 H   0  0  0  0  0  0  0  0  0  0  0  0
   -2.1159   62.1660   74.4334 H   0  0  0  0  0  0  0  0  0  0  0  0
   -3.1273   61.3192   73.2467 H   0  0  0  0  0  0  0  0  0  0  0  0
   -2.8090   58.3948   73.7819 H   0  0  0  0  0  0  0  0  0  0  0  0
   -2.0920   61.7189   76.4962 H   0  0  0  0  0  0  0  0  0  0  0  0
   -0.9378   59.1300   77.2637 H   0  0  0  0  0  0  0  0  0  0  0  0
   -1.5198   62.6882   72.2634 H   0  0  0  0  0  0  0  0  0  0  0  0
   -0.3787   61.8307   70.4150 H   0  0  0  0  0  0  0  0  0  0  0  0
   -0.2069   63.6550   70.4223 H   0  0  0  0  0  0  0  0  0  0  0  0
    1.7660   61.8711   69.9549 H   0  0  0  0  0  0  0  0  0  0  0  0
    2.7840   63.8585   76.1670 H   0  0  0  0  0  0  0  0  0  0  0  0
    2.1751   64.8861   74.8081 H   0  0  0  0  0  0  0  0  0  0  0  0
    0.7881   64.0756   77.1705 H   0  0  0  0  0  0  0  0  0  0  0  0
    0.1686   65.0286   75.7796 H   0  0  0  0  0  0  0  0  0  0  0  0
    0.0191   63.2386   75.7796 H   0  0  0  0  0  0  0  0  0  0  0  0
    4.2247   59.1384   75.4624 H   0  0  0  0  0  0  0  0  0  0  0  0
    3.6846   58.3429   73.9451 H   0  0  0  0  0  0  0  0  0  0  0  0
    5.1577   59.3709   73.9451 H   0  0  0  0  0  0  0  0  0  0  0  0
   -0.1325   60.8877   78.4176 H   0  0  0  0  0  0  0  0  0  0  0  0
   -3.2316   60.5803   79.5002 H   0  0  0  0  0  0  0  0  0  0  0  0
   -2.6812   61.9128   78.4287 H   0  0  0  0  0  0  0  0  0  0  0  0
   -4.4071   61.4150   78.4287 H   0  0  0  0  0  0  0  0  0  0  0  0
   -4.5076   60.2327   76.1081 H   0  0  0  0  0  0  0  0  0  0  0  0
    2.3687   64.3446   71.2964 H   0  0  0  0  0  0  0  0  0  0  0  0
   -0.1987   66.0654   72.7492 H   0  0  0  0  0  0  0  0  0  0  0  0
    0.7173   65.1475   71.5062 H   0  0  0  0  0  0  0  0  0  0  0  0
   -1.0786   65.1129   71.5062 H   0  0  0  0  0  0  0  0  0  0  0  0
    4.4405   62.2362   71.6101 H   0  0  0  0  0  0  0  0  0  0  0  0
    3.9665   60.5624   72.0468 H   0  0  0  0  0  0  0  0  0  0  0  0
    3.7289   59.2123   70.8260 H   0  0  0  0  0  0  0  0  0  0  0  0
    2.8093   59.3779   69.2919 H   0  0  0  0  0  0  0  0  0  0  0  0
    4.5964   59.5596   69.2919 H   0  0  0  0  0  0  0  0  0  0  0  0
   -0.8086   56.5327   74.1897 H   0  0  0  0  0  0  0  0  0  0  0  0
    0.5000   54.4273   73.9210 H   0  0  0  0  0  0  0  0  0  0  0  0
   -0.4034   52.2760   74.8004 H   0  0  0  0  0  0  0  0  0  0  0  0
   -2.6173   52.2237   75.9437 H   0  0  0  0  0  0  0  0  0  0  0  0
   -3.9339   54.3270   76.2211 H   0  0  0  0  0  0  0  0  0  0  0  0
    0.5134   56.9215   78.7285 H   0  0  0  0  0  0  0  0  0  0  0  0
   -0.5820   56.8303   77.3078 H   0  0  0  0  0  0  0  0  0  0  0  0
    0.9666   55.9201   77.3078 H   0  0  0  0  0  0  0  0  0  0  0  0
  2  1  1  0
  3  2  1  0
  4  3  1  0
  5  4  1  0
  6  5  1  0
  6  1  1  0
  7  6  1  0
  8  4  1  0
  8  7  1  0
  9  8  1  0
 10  9  1  0
 11 10  1  0
 11  5  1  0
 12 11  1  0
 13 12  1  0
 14 13  1  0
 14 10  1  0
 15 13  1  0
 16 15  1  0
 16  9  1  0
  5 17  1  6
 18 17  1  0
 19 18  1  0
 19  1  1  0
 20  3  1  0
 21 20  1  0
 22  7  1  0
 23 22  1  0
 24 16  1  0
 25 15  1  0
 26 25  1  0
 13 27  1  1
 28 19  1  0
 29 17  1  0
 30 29  1  0
  1 31  1  6
 33 32  1  0
 33 31  1  0
 34 14  1  0
 35 34  1  0
 36 35  2  0
 37 35  1  0
 38 37  2  0
 39 38  1  0
 40 39  2  0
 41 40  1  0
 42 41  2  0
 42 37  1  0
  9 43  1  1
 44 43  1  0
 45 44  2  0
 46 44  1  0
  2 47  1  0
  2 48  1  0
  3 49  1  1
  4 50  1  1
  6 51  1  6
  7 52  1  6
  8 53  1  1
 10 54  1  6
 11 55  1  6
 12 56  1  0
 12 57  1  0
 14 58  1  6
 15 59  1  6
 16 60  1  1
 17 61  1  6
 18 62  1  0
 18 63  1  0
 19 64  1  6
 20 65  1  0
 20 66  1  0
 21 67  1  0
 21 68  1  0
 21 69  1  0
 23 70  1  0
 23 71  1  0
 23 72  1  0
 24 73  1  0
 26 74  1  0
 26 75  1  0
 26 76  1  0
 27 77  1  0
 28 78  1  0
 30 79  1  0
 30 80  1  0
 30 81  1  0
 31 82  1  0
 31 83  1  0
 32 84  1  0
 32 85  1  0
 32 86  1  0
 38 87  1  0
 39 88  1  0
 40 89  1  0
 41 90  1  0
 42 91  1  0
 46 92  1  0
 46 93  1  0
 46 94  1  0
M  CHG  1   3   1
M  END
>  <score>  (7) 
-5.876

$$$$
=
     RDKit          3D

 94100  0  0  0  0  0  0  0  0999 V2000
    1.4190   60.2960   73.7310 C   0  0  1  0  0  0  0  0  0  0  0  0
    2.0380   59.5790   74.9650 C   0  0  0  0  0  0  0  0  0  0  0  0
    0.9960   59.1010   75.9780 N   0  0  2  0  0  4  0  0  0  0  0  0
   -0.2860   59.9770   76.1710 C   0  0  1  0  0  0  0  0  0  0  0  0
   -0.2910   61.2550   75.3090 C   0  0  1  0  0  0  0  0  0  0  0  0
   -0.1070   60.5510   73.9260 C   0  0  2  0  0  0  0  0  0  0  0  0
   -1.0100   59.2640   74.0140 C   0  0  2  0  0  0  0  0  0  0  0  0
   -1.4190   59.1690   75.5060 C   0  0  2  0  0  0  0  0  0  0  0  0
   -2.8390   59.7340   75.7720 C   0  0  2  0  0  0  0  0  0  0  0  0
   -2.9530   61.1470   75.1580 C   0  0  2  0  0  0  0  0  0  0  0  0
   -1.6830   61.9840   75.3970 C   0  0  1  0  0  0  0  0  0  0  0  0
   -1.9560   62.6740   76.7540 C   0  0  0  0  0  0  0  0  0  0  0  0
   -3.3740   62.2620   77.1740 C   0  0  1  0  0  0  0  0  0  0  0  0
   -4.0510   61.9960   75.8250 C   0  0  2  0  0  0  0  0  0  0  0  0
   -3.3260   61.0050   78.0730 C   0  0  2  0  0  0  0  0  0  0  0  0
   -3.2900   59.6780   77.2760 C   0  0  2  0  0  0  0  0  0  0  0  0
    0.8000   62.3390   75.6370 C   0  0  2  0  0  0  0  0  0  0  0  0
    1.5270   62.8110   74.3750 C   0  0  0  0  0  0  0  0  0  0  0  0
    2.1100   61.6830   73.5300 C   0  0  1  0  0  0  0  0  0  0  0  0
    1.5830   58.6980   77.3140 C   0  0  0  0  0  0  0  0  0  0  0  0
    0.6470   59.0540   78.4560 C   0  0  0  0  0  0  0  0  0  0  0  0
   -0.2640   58.0710   73.7510 O   0  0  0  0  0  0  0  0  0  0  0  0
   -0.9440   56.8930   74.1860 C   0  0  0  0  0  0  0  0  0  0  0  0
   -2.4680   58.7360   77.9910 O   0  0  0  0  0  0  0  0  0  0  0  0
   -4.5200   61.0460   78.9010 O   0  0  0  0  0  0  0  0  0  0  0  0
   -5.1970   59.7950   78.9780 C   0  0  0  0  0  0  0  0  0  0  0  0
   -3.9710   63.3480   77.8700 O   0  0  0  0  0  0  0  0  0  0  0  0
    3.5110   61.5630   73.7770 O   0  0  0  0  0  0  0  0  0  0  0  0
    1.6650   61.8620   76.6640 O   0  0  0  0  0  0  0  0  0  0  0  0
    1.5540   62.5620   77.9030 C   0  0  0  0  0  0  0  0  0  0  0  0
    1.7640   59.4930   72.4420 C   0  0  0  0  0  0  0  0  0  0  0  0
    3.3240   59.6910   70.6790 C   0  0  0  0  0  0  0  0  0  0  0  0
    2.3740   60.3710   71.4940 O   0  0  0  0  0  0  0  0  0  0  0  0
   -5.2970   61.3190   75.9810 O   0  0  0  0  0  0  0  0  0  0  0  0
   -6.3820   62.1220   76.1190 C   0  0  0  0  0  0  0  0  0  0  0  0
   -6.6650   62.7610   77.1180 O   0  0  0  0  0  0  0  0  0  0  0  0
   -7.1530   62.1730   74.8480 C   0  0  0  0  0  0  0  0  0  0  0  0
   -7.8650   63.3430   74.5550 C   0  0  0  0  0  0  0  0  0  0  0  0
   -8.5860   63.4460   73.3640 C   0  0  0  0  0  0  0  0  0  0  0  0
   -8.6020   62.3810   72.4640 C   0  0  0  0  0  0  0  0  0  0  0  0
   -7.8990   61.2120   72.7510 C   0  0  0  0  0  0  0  0  0  0  0  0
   -7.1750   61.1030   73.9410 C   0  0  0  0  0  0  0  0  0  0  0  0
   -3.7880   58.9230   74.9800 O   0  0  0  0  0  0  0  0  0  0  0  0
   -4.4200   57.8470   75.5260 C   0  0  0  0  0  0  0  0  0  0  0  0
   -3.8500   56.8950   76.0420 O   0  0  0  0  0  0  0  0  0  0  0  0
   -5.9060   58.0030   75.4220 C   0  0  0  0  0  0  0  0  0  0  0  0
    2.6065   58.7061   74.6118 H   0  0  0  0  0  0  0  0  0  0  0  0
    2.6770   60.3122   75.4789 H   0  0  0  0  0  0  0  0  0  0  0  0
    0.6488   58.2575   75.4997 H   0  0  0  0  0  0  0  0  0  0  0  0
   -0.3643   60.2216   77.2406 H   0  0  0  0  0  0  0  0  0  0  0  0
   -0.4186   61.1260   73.0415 H   0  0  0  0  0  0  0  0  0  0  0  0
   -1.8377   59.3411   73.2936 H   0  0  0  0  0  0  0  0  0  0  0  0
   -1.5087   58.1439   75.8947 H   0  0  0  0  0  0  0  0  0  0  0  0
   -3.1533   60.9524   74.0940 H   0  0  0  0  0  0  0  0  0  0  0  0
   -1.5367   62.6860   74.5629 H   0  0  0  0  0  0  0  0  0  0  0  0
   -1.2248   62.3393   77.5046 H   0  0  0  0  0  0  0  0  0  0  0  0
   -1.8675   63.7672   76.6697 H   0  0  0  0  0  0  0  0  0  0  0  0
   -4.3441   62.8838   75.2454 H   0  0  0  0  0  0  0  0  0  0  0  0
   -2.3975   61.0227   78.6626 H   0  0  0  0  0  0  0  0  0  0  0  0
   -4.3456   59.3762   77.2078 H   0  0  0  0  0  0  0  0  0  0  0  0
    0.3104   63.2419   76.0308 H   0  0  0  0  0  0  0  0  0  0  0  0
    0.8126   63.3725   73.7551 H   0  0  0  0  0  0  0  0  0  0  0  0
    2.3755   63.4255   74.7104 H   0  0  0  0  0  0  0  0  0  0  0  0
    1.9183   61.9666   72.4846 H   0  0  0  0  0  0  0  0  0  0  0  0
    1.7554   57.6116   77.3170 H   0  0  0  0  0  0  0  0  0  0  0  0
    2.5286   59.2416   77.4568 H   0  0  0  0  0  0  0  0  0  0  0  0
    1.1499   58.8627   79.4154 H   0  0  0  0  0  0  0  0  0  0  0  0
    0.3759   60.1180   78.3898 H   0  0  0  0  0  0  0  0  0  0  0  0
   -0.2627   58.4391   78.3898 H   0  0  0  0  0  0  0  0  0  0  0  0
   -0.9607   56.8641   75.2855 H   0  0  0  0  0  0  0  0  0  0  0  0
   -1.9754   56.9027   73.8038 H   0  0  0  0  0  0  0  0  0  0  0  0
   -0.4197   56.0047   73.8038 H   0  0  0  0  0  0  0  0  0  0  0  0
   -2.5843   58.8693   78.9651 H   0  0  0  0  0  0  0  0  0  0  0  0
   -5.3446   59.5223   80.0334 H   0  0  0  0  0  0  0  0  0  0  0  0
   -6.1745   59.8758   78.4800 H   0  0  0  0  0  0  0  0  0  0  0  0
   -4.5947   59.0209   78.4800 H   0  0  0  0  0  0  0  0  0  0  0  0
   -3.8894   63.1996   78.8454 H   0  0  0  0  0  0  0  0  0  0  0  0
    3.6739   61.5490   74.7534 H   0  0  0  0  0  0  0  0  0  0  0  0
    1.6665   61.8527   78.7362 H   0  0  0  0  0  0  0  0  0  0  0  0
    2.3421   63.3270   77.9638 H   0  0  0  0  0  0  0  0  0  0  0  0
    0.5679   63.0457   77.9638 H   0  0  0  0  0  0  0  0  0  0  0  0
    2.4600   58.6783   72.6907 H   0  0  0  0  0  0  0  0  0  0  0  0
    0.8450   59.0660   72.0141 H   0  0  0  0  0  0  0  0  0  0  0  0
    4.0510   59.1706   71.3198 H   0  0  0  0  0  0  0  0  0  0  0  0
    2.8045   58.9583   70.0439 H   0  0  0  0  0  0  0  0  0  0  0  0
    3.8501   60.4190   70.0439 H   0  0  0  0  0  0  0  0  0  0  0  0
   -7.8561   64.1830   75.2652 H   0  0  0  0  0  0  0  0  0  0  0  0
   -9.1416   64.3675   73.1355 H   0  0  0  0  0  0  0  0  0  0  0  0
   -9.1704   62.4635   71.5259 H   0  0  0  0  0  0  0  0  0  0  0  0
   -7.9143   60.3736   72.0391 H   0  0  0  0  0  0  0  0  0  0  0  0
   -6.6226   60.1789   74.1665 H   0  0  0  0  0  0  0  0  0  0  0  0
   -6.3414   58.0487   76.4311 H   0  0  0  0  0  0  0  0  0  0  0  0
   -6.1402   58.9307   74.8792 H   0  0  0  0  0  0  0  0  0  0  0  0
   -6.3277   57.1442   74.8792 H   0  0  0  0  0  0  0  0  0  0  0  0
  2  1  1  0
  3  2  1  0
  4  3  1  0
  5  4  1  0
  6  5  1  0
  6  1  1  0
  7  6  1  0
  8  4  1  0
  8  7  1  0
  9  8  1  0
 10  9  1  0
 11 10  1  0
 11  5  1  0
 12 11  1  0
 13 12  1  0
 14 13  1  0
 14 10  1  0
 15 13  1  0
 16 15  1  0
 16  9  1  0
  5 17  1  1
 18 17  1  0
 19 18  1  0
 19  1  1  0
 20  3  1  0
 21 20  1  0
 22  7  1  0
 23 22  1  0
 24 16  1  0
 25 15  1  0
 26 25  1  0
 13 27  1  1
 28 19  1  0
 29 17  1  0
 30 29  1  0
  1 31  1  6
 33 32  1  0
 33 31  1  0
 34 14  1  0
 35 34  1  0
 36 35  2  0
 37 35  1  0
 38 37  2  0
 39 38  1  0
 40 39  2  0
 41 40  1  0
 42 41  2  0
 42 37  1  0
  9 43  1  6
 44 43  1  0
 45 44  2  0
 46 44  1  0
  2 47  1  0
  2 48  1  0
  3 49  1  6
  4 50  1  1
  6 51  1  6
  7 52  1  6
  8 53  1  1
 10 54  1  6
 11 55  1  6
 12 56  1  0
 12 57  1  0
 14 58  1  6
 15 59  1  1
 16 60  1  6
 17 61  1  1
 18 62  1  0
 18 63  1  0
 19 64  1  6
 20 65  1  0
 20 66  1  0
 21 67  1  0
 21 68  1  0
 21 69  1  0
 23 70  1  0
 23 71  1  0
 23 72  1  0
 24 73  1  0
 26 74  1  0
 26 75  1  0
 26 76  1  0
 27 77  1  0
 28 78  1  0
 30 79  1  0
 30 80  1  0
 30 81  1  0
 31 82  1  0
 31 83  1  0
 32 84  1  0
 32 85  1  0
 32 86  1  0
 38 87  1  0
 39 88  1  0
 40 89  1  0
 41 90  1  0
 42 91  1  0
 46 92  1  0
 46 93  1  0
 46 94  1  0
M  CHG  1   3   1
M  END
>  <score>  (8) 
-5.675

$$$$
=
     RDKit          3D

 94100  0  0  0  0  0  0  0  0999 V2000
    0.3000   62.0510   74.9330 C   0  0  1  0  0  0  0  0  0  0  0  0
    0.7210   61.4330   76.2970 C   0  0  0  0  0  0  0  0  0  0  0  0
   -0.3880   60.6210   76.9680 N   0  0  2  0  0  4  0  0  0  0  0  0
   -1.8620   61.1080   76.7770 C   0  0  1  0  0  0  0  0  0  0  0  0
   -1.9790   62.4000   75.9440 C   0  0  1  0  0  0  0  0  0  0  0  0
   -1.2290   61.8750   74.6760 C   0  0  2  0  0  0  0  0  0  0  0  0
   -1.7290   60.3920   74.5060 C   0  0  2  0  0  0  0  0  0  0  0  0
   -2.4950   60.0810   75.8170 C   0  0  2  0  0  0  0  0  0  0  0  0
   -4.0310   60.2260   75.6570 C   0  0  2  0  0  0  0  0  0  0  0  0
   -4.3550   61.6000   75.0290 C   0  0  2  0  0  0  0  0  0  0  0  0
   -3.4840   62.7240   75.6210 C   0  0  1  0  0  0  0  0  0  0  0  0
   -4.3050   63.2130   76.8370 C   0  0  0  0  0  0  0  0  0  0  0  0
   -5.6130   62.4090   76.8310 C   0  0  1  0  0  0  0  0  0  0  0  0
   -5.7850   62.0740   75.3460 C   0  0  2  0  0  0  0  0  0  0  0  0
   -5.4740   61.1460   77.7120 C   0  0  2  0  0  0  0  0  0  0  0  0
   -4.8510   59.9400   76.9670 C   0  0  2  0  0  0  0  0  0  0  0  0
   -1.3660   63.7060   76.5670 C   0  0  2  0  0  0  0  0  0  0  0  0
   -0.4750   64.4480   75.5670 C   0  0  0  0  0  0  0  0  0  0  0  0
    0.6090   63.5820   74.9330 C   0  0  1  0  0  0  0  0  0  0  0  0
   -0.1100   60.2890   78.4180 C   0  0  0  0  0  0  0  0  0  0  0  0
   -0.4440   58.8400   78.7240 C   0  0  0  0  0  0  0  0  0  0  0  0
   -0.6400   59.4630   74.4760 O   0  0  0  0  0  0  0  0  0  0  0  0
   -1.0760   58.1130   74.3190 C   0  0  0  0  0  0  0  0  0  0  0  0
   -4.0350   59.2000   77.8950 O   0  0  0  0  0  0  0  0  0  0  0  0
   -6.8140   60.8060   78.1590 O   0  0  0  0  0  0  0  0  0  0  0  0
   -6.8840   60.4950   79.5480 C   0  0  0  0  0  0  0  0  0  0  0  0
   -6.6570   63.2420   77.3190 O   0  0  0  0  0  0  0  0  0  0  0  0
    1.8610   63.8210   75.5750 O   0  0  0  0  0  0  0  0  0  0  0  0
   -0.7260   63.4010   77.8030 O   0  0  0  0  0  0  0  0  0  0  0  0
   -1.4160   63.8730   78.9590 C   0  0  0  0  0  0  0  0  0  0  0  0
    1.1990   61.4670   73.8030 C   0  0  0  0  0  0  0  0  0  0  0  0
    3.5050   61.3980   73.2930 C   0  0  0  0  0  0  0  0  0  0  0  0
    2.5190   61.2670   74.3130 O   0  0  0  0  0  0  0  0  0  0  0  0
   -6.7870   61.0820   75.1380 O   0  0  0  0  0  0  0  0  0  0  0  0
   -7.4880   61.1950   73.9820 C   0  0  0  0  0  0  0  0  0  0  0  0
   -7.4050   60.4360   73.0300 O   0  0  0  0  0  0  0  0  0  0  0  0
   -8.4310   62.3420   74.0570 C   0  0  0  0  0  0  0  0  0  0  0  0
   -8.4870   63.2220   72.9680 C   0  0  0  0  0  0  0  0  0  0  0  0
   -9.3720   64.3010   72.9830 C   0  0  0  0  0  0  0  0  0  0  0  0
  -10.2020   64.5070   74.0850 C   0  0  0  0  0  0  0  0  0  0  0  0
  -10.1490   63.6380   75.1740 C   0  0  0  0  0  0  0  0  0  0  0  0
   -9.2650   62.5550   75.1640 C   0  0  0  0  0  0  0  0  0  0  0  0
   -4.4590   59.2540   74.6290 O   0  0  0  0  0  0  0  0  0  0  0  0
   -4.8680   58.0000   74.9730 C   0  0  0  0  0  0  0  0  0  0  0  0
   -4.1990   57.2060   75.6200 O   0  0  0  0  0  0  0  0  0  0  0  0
   -6.2510   57.7430   74.4630 C   0  0  0  0  0  0  0  0  0  0  0  0
    1.5833   60.7712   76.1279 H   0  0  0  0  0  0  0  0  0  0  0  0
    0.9619   62.2690   76.9701 H   0  0  0  0  0  0  0  0  0  0  0  0
   -0.3411   59.7536   76.4146 H   0  0  0  0  0  0  0  0  0  0  0  0
   -2.3001   61.2420   77.7771 H   0  0  0  0  0  0  0  0  0  0  0  0
   -1.4271   62.4101   73.7356 H   0  0  0  0  0  0  0  0  0  0  0  0
   -2.3106   60.2998   73.5769 H   0  0  0  0  0  0  0  0  0  0  0  0
   -2.4026   59.0432   76.1697 H   0  0  0  0  0  0  0  0  0  0  0  0
   -4.1891   61.4399   73.9534 H   0  0  0  0  0  0  0  0  0  0  0  0
   -3.3093   63.4996   74.8608 H   0  0  0  0  0  0  0  0  0  0  0  0
   -3.7502   63.0293   77.7689 H   0  0  0  0  0  0  0  0  0  0  0  0
   -4.5017   64.2935   76.7758 H   0  0  0  0  0  0  0  0  0  0  0  0
   -6.1377   62.8930   74.7020 H   0  0  0  0  0  0  0  0  0  0  0  0
   -4.7903   61.3657   78.5453 H   0  0  0  0  0  0  0  0  0  0  0  0
   -5.7190   59.3742   76.5976 H   0  0  0  0  0  0  0  0  0  0  0  0
   -2.1757   64.4141   76.7971 H   0  0  0  0  0  0  0  0  0  0  0  0
   -1.1136   64.8443   74.7638 H   0  0  0  0  0  0  0  0  0  0  0  0
    0.0416   65.2391   76.1302 H   0  0  0  0  0  0  0  0  0  0  0  0
    0.6471   63.8815   73.8752 H   0  0  0  0  0  0  0  0  0  0  0  0
    0.9556   60.4635   78.6280 H   0  0  0  0  0  0  0  0  0  0  0  0
   -0.7405   60.9323   79.0494 H   0  0  0  0  0  0  0  0  0  0  0  0
   -0.4777   58.6937   79.8137 H   0  0  0  0  0  0  0  0  0  0  0  0
   -1.4233   58.5899   78.2900 H   0  0  0  0  0  0  0  0  0  0  0  0
    0.3271   58.1865   78.2900 H   0  0  0  0  0  0  0  0  0  0  0  0
   -1.2231   57.6576   75.3095 H   0  0  0  0  0  0  0  0  0  0  0  0
   -2.0252   58.0965   73.7633 H   0  0  0  0  0  0  0  0  0  0  0  0
   -0.3158   57.5444   73.7633 H   0  0  0  0  0  0  0  0  0  0  0  0
   -4.2935   59.4344   78.8214 H   0  0  0  0  0  0  0  0  0  0  0  0
   -6.6800   61.4011   80.1374 H   0  0  0  0  0  0  0  0  0  0  0  0
   -7.8892   60.1191   79.7894 H   0  0  0  0  0  0  0  0  0  0  0  0
   -6.1368   59.7247   79.7894 H   0  0  0  0  0  0  0  0  0  0  0  0
   -6.6489   63.2355   78.3089 H   0  0  0  0  0  0  0  0  0  0  0  0
    1.7381   63.7975   76.5571 H   0  0  0  0  0  0  0  0  0  0  0  0
   -0.8997   63.5198   79.8638 H   0  0  0  0  0  0  0  0  0  0  0  0
   -1.4331   64.9728   78.9522 H   0  0  0  0  0  0  0  0  0  0  0  0
   -2.4472   63.4903   78.9522 H   0  0  0  0  0  0  0  0  0  0  0  0
    0.7858   60.5059   73.4630 H   0  0  0  0  0  0  0  0  0  0  0  0
    1.2310   62.1672   72.9553 H   0  0  0  0  0  0  0  0  0  0  0  0
    4.4948   61.5295   73.7545 H   0  0  0  0  0  0  0  0  0  0  0  0
    3.5090   60.4925   72.6685 H   0  0  0  0  0  0  0  0  0  0  0  0
    3.2725   62.2731   72.6685 H   0  0  0  0  0  0  0  0  0  0  0  0
   -7.8317   63.0620   72.0991 H   0  0  0  0  0  0  0  0  0  0  0  0
   -9.4150   64.9890   72.1258 H   0  0  0  0  0  0  0  0  0  0  0  0
  -10.9000   65.3571   74.0949 H   0  0  0  0  0  0  0  0  0  0  0  0
  -10.8036   63.8047   76.0422 H   0  0  0  0  0  0  0  0  0  0  0  0
   -9.2237   61.8704   76.0240 H   0  0  0  0  0  0  0  0  0  0  0  0
   -6.9374   57.6154   75.3130 H   0  0  0  0  0  0  0  0  0  0  0  0
   -6.5802   58.5953   73.8505 H   0  0  0  0  0  0  0  0  0  0  0  0
   -6.2520   56.8293   73.8505 H   0  0  0  0  0  0  0  0  0  0  0  0
  2  1  1  0
  3  2  1  0
  4  3  1  0
  5  4  1  0
  6  5  1  0
  6  1  1  0
  7  6  1  0
  8  4  1  0
  8  7  1  0
  9  8  1  0
 10  9  1  0
 11 10  1  0
 11  5  1  0
 12 11  1  0
 13 12  1  0
 14 13  1  0
 14 10  1  0
 15 13  1  0
 16 15  1  0
 16  9  1  0
  5 17  1  1
 18 17  1  0
 19 18  1  0
 19  1  1  0
 20  3  1  0
 21 20  1  0
 22  7  1  0
 23 22  1  0
 24 16  1  0
 25 15  1  0
 26 25  1  0
 13 27  1  1
 28 19  1  0
 29 17  1  0
 30 29  1  0
  1 31  1  6
 33 32  1  0
 33 31  1  0
 34 14  1  0
 35 34  1  0
 36 35  2  0
 37 35  1  0
 38 37  2  0
 39 38  1  0
 40 39  2  0
 41 40  1  0
 42 41  2  0
 42 37  1  0
  9 43  1  6
 44 43  1  0
 45 44  2  0
 46 44  1  0
  2 47  1  0
  2 48  1  0
  3 49  1  6
  4 50  1  1
  6 51  1  6
  7 52  1  6
  8 53  1  1
 10 54  1  6
 11 55  1  6
 12 56  1  0
 12 57  1  0
 14 58  1  6
 15 59  1  1
 16 60  1  6
 17 61  1  1
 18 62  1  0
 18 63  1  0
 19 64  1  6
 20 65  1  0
 20 66  1  0
 21 67  1  0
 21 68  1  0
 21 69  1  0
 23 70  1  0
 23 71  1  0
 23 72  1  0
 24 73  1  0
 26 74  1  0
 26 75  1  0
 26 76  1  0
 27 77  1  0
 28 78  1  0
 30 79  1  0
 30 80  1  0
 30 81  1  0
 31 82  1  0
 31 83  1  0
 32 84  1  0
 32 85  1  0
 32 86  1  0
 38 87  1  0
 39 88  1  0
 40 89  1  0
 41 90  1  0
 42 91  1  0
 46 92  1  0
 46 93  1  0
 46 94  1  0
M  CHG  1   3   1
M  END
>  <score>  (9) 
-5.2

$$$$
