=
     RDKit          3D

 52 55  0  0  0  0  0  0  0  0999 V2000
    0.8020   65.8730   69.3900 N   0  0  0  0  0  4  0  0  0  0  0  0
    1.6630   67.1130   69.4650 C   0  0  0  0  0  0  0  0  0  0  0  0
    1.0070   68.2940   68.7530 C   0  0  0  0  0  0  0  0  0  0  0  0
    0.2390   67.9070   67.4790 C   0  0  0  0  0  0  0  0  0  0  0  0
   -0.8050   66.8140   67.7970 C   0  0  0  0  0  0  0  0  0  0  0  0
   -0.6520   66.1830   69.1760 C   0  0  0  0  0  0  0  0  0  0  0  0
    1.0290   64.9250   70.5450 C   0  0  0  0  0  0  0  0  0  0  0  0
    4.1220   62.0190   69.8030 C   0  0  0  0  0  0  0  0  0  0  0  0
    2.8000   61.7270   69.4730 C   0  0  0  0  0  0  0  0  0  0  0  0
    1.7970   62.6700   69.7010 C   0  0  0  0  0  0  0  0  0  0  0  0
    2.1100   63.9180   70.2620 C   0  0  0  0  0  0  0  0  0  0  0  0
    3.4480   64.2010   70.5870 C   0  0  0  0  0  0  0  0  0  0  0  0
    4.4460   63.2540   70.3570 C   0  0  0  0  0  0  0  0  0  0  0  0
    1.2210   67.5070   66.3480 C   0  0  0  0  0  0  0  0  0  0  0  0
    1.4490   68.5950   65.2850 C   0  0  0  0  0  0  0  0  0  0  0  0
    2.8980   68.8480   64.9530 C   0  0  0  0  0  0  0  0  0  0  0  0
    3.2550   68.4880   63.6920 N   0  0  0  0  0  0  0  0  0  0  0  0
    4.5310   68.6950   63.3170 C   0  0  0  0  0  0  0  0  0  0  0  0
    5.5020   69.2050   64.1570 C   0  0  0  0  0  0  0  0  0  0  0  0
    5.1510   69.5420   65.4660 C   0  0  0  0  0  0  0  0  0  0  0  0
    3.8150   69.3740   65.8970 C   0  0  0  0  0  0  0  0  0  0  0  0
    3.4950   69.7410   67.2270 C   0  0  0  0  0  0  0  0  0  0  0  0
    4.4640   70.2480   68.0950 C   0  0  0  0  0  0  0  0  0  0  0  0
    5.7720   70.4030   67.6580 C   0  0  0  0  0  0  0  0  0  0  0  0
    6.1140   70.0550   66.3510 C   0  0  0  0  0  0  0  0  0  0  0  0
    1.1139   65.3710   68.5464 H   0  0  0  0  0  0  0  0  0  0  0  0
    1.8205   67.3754   70.5216 H   0  0  0  0  0  0  0  0  0  0  0  0
    2.6205   66.8988   68.9676 H   0  0  0  0  0  0  0  0  0  0  0  0
    0.3024   68.7705   69.4505 H   0  0  0  0  0  0  0  0  0  0  0  0
    1.8180   68.9695   68.4432 H   0  0  0  0  0  0  0  0  0  0  0  0
   -0.3191   68.7786   67.1064 H   0  0  0  0  0  0  0  0  0  0  0  0
   -1.8063   67.2651   67.7337 H   0  0  0  0  0  0  0  0  0  0  0  0
   -0.6518   66.0089   67.0633 H   0  0  0  0  0  0  0  0  0  0  0  0
   -1.0009   66.8849   69.9477 H   0  0  0  0  0  0  0  0  0  0  0  0
   -1.2510   65.2628   69.2420 H   0  0  0  0  0  0  0  0  0  0  0  0
    1.3162   65.5109   71.4306 H   0  0  0  0  0  0  0  0  0  0  0  0
    0.0930   64.3716   70.7112 H   0  0  0  0  0  0  0  0  0  0  0  0
    4.9103   61.2726   69.6255 H   0  0  0  0  0  0  0  0  0  0  0  0
    2.5467   60.7516   69.0321 H   0  0  0  0  0  0  0  0  0  0  0  0
    0.7549   62.4339   69.4395 H   0  0  0  0  0  0  0  0  0  0  0  0
    3.7096   65.1753   71.0254 H   0  0  0  0  0  0  0  0  0  0  0  0
    5.4907   63.4836   70.6139 H   0  0  0  0  0  0  0  0  0  0  0  0
    2.1917   67.2654   66.8056 H   0  0  0  0  0  0  0  0  0  0  0  0
    0.7655   66.6520   65.8270 H   0  0  0  0  0  0  0  0  0  0  0  0
    0.9333   68.2885   64.3630 H   0  0  0  0  0  0  0  0  0  0  0  0
    1.0552   69.5320   65.7056 H   0  0  0  0  0  0  0  0  0  0  0  0
    4.8164   68.4442   62.2847 H   0  0  0  0  0  0  0  0  0  0  0  0
    6.5336   69.3432   63.8010 H   0  0  0  0  0  0  0  0  0  0  0  0
    2.4610   69.6241   67.5837 H   0  0  0  0  0  0  0  0  0  0  0  0
    4.1909   70.5243   69.1241 H   0  0  0  0  0  0  0  0  0  0  0  0
    6.5378   70.7995   68.3409 H   0  0  0  0  0  0  0  0  0  0  0  0
    7.1514   70.1840   66.0088 H   0  0  0  0  0  0  0  0  0  0  0  0
  2  1  1  0
  3  2  1  0
  4  3  1  0
  5  4  1  0
  6  5  1  0
  6  1  1  0
  7  1  1  0
  9  8  2  0
 10  9  1  0
 11 10  2  0
 11  7  1  0
 12 11  1  0
 13 12  2  0
 13  8  1  0
 14  4  1  0
 15 14  1  0
 16 15  1  0
 17 16  2  0
 18 17  1  0
 19 18  2  0
 20 19  1  0
 21 16  1  0
 21 20  2  0
 22 21  1  0
 23 22  2  0
 24 23  1  0
 25 20  1  0
 25 24  2  0
  1 26  1  0
  2 27  1  0
  2 28  1  0
  3 29  1  0
  3 30  1  0
  4 31  1  0
  5 32  1  0
  5 33  1  0
  6 34  1  0
  6 35  1  0
  7 36  1  0
  7 37  1  0
  8 38  1  0
  9 39  1  0
 10 40  1  0
 12 41  1  0
 13 42  1  0
 14 43  1  0
 14 44  1  0
 15 45  1  0
 15 46  1  0
 18 47  1  0
 19 48  1  0
 22 49  1  0
 23 50  1  0
 24 51  1  0
 25 52  1  0
M  CHG  1   1   1
M  END
>  <score>  (1) 
-10.701

$$$$
=
     RDKit          3D

 52 55  0  0  0  0  0  0  0  0999 V2000
    0.4790   68.3670   65.1380 N   0  0  0  0  0  4  0  0  0  0  0  0
    0.6380   66.9900   65.7420 C   0  0  0  0  0  0  0  0  0  0  0  0
   -0.0330   66.8990   67.1100 C   0  0  0  0  0  0  0  0  0  0  0  0
    0.0850   68.1790   67.9510 C   0  0  0  0  0  0  0  0  0  0  0  0
   -0.4580   69.3890   67.1580 C   0  0  0  0  0  0  0  0  0  0  0  0
   -0.7090   69.1090   65.6810 C   0  0  0  0  0  0  0  0  0  0  0  0
    0.5140   68.3570   63.6270 C   0  0  0  0  0  0  0  0  0  0  0  0
    4.4340   67.4070   62.1130 C   0  0  0  0  0  0  0  0  0  0  0  0
    3.8950   66.6640   63.1610 C   0  0  0  0  0  0  0  0  0  0  0  0
    2.6210   66.9610   63.6460 C   0  0  0  0  0  0  0  0  0  0  0  0
    1.8730   68.0070   63.0830 C   0  0  0  0  0  0  0  0  0  0  0  0
    2.4270   68.7460   62.0250 C   0  0  0  0  0  0  0  0  0  0  0  0
    3.7020   68.4460   61.5440 C   0  0  0  0  0  0  0  0  0  0  0  0
    1.5390   68.3760   68.4500 C   0  0  0  0  0  0  0  0  0  0  0  0
    2.1100   69.7860   68.2190 C   0  0  0  0  0  0  0  0  0  0  0  0
    3.3810   69.8180   67.4090 C   0  0  0  0  0  0  0  0  0  0  0  0
    3.2260   69.4500   66.1090 N   0  0  0  0  0  0  0  0  0  0  0  0
    4.3150   69.4660   65.3180 C   0  0  0  0  0  0  0  0  0  0  0  0
    5.5820   69.7870   65.7660 C   0  0  0  0  0  0  0  0  0  0  0  0
    5.7540   70.1290   67.1090 C   0  0  0  0  0  0  0  0  0  0  0  0
    4.6350   70.1600   67.9730 C   0  0  0  0  0  0  0  0  0  0  0  0
    4.8490   70.5260   69.3240 C   0  0  0  0  0  0  0  0  0  0  0  0
    6.1230   70.8430   69.7990 C   0  0  0  0  0  0  0  0  0  0  0  0
    7.2120   70.8050   68.9400 C   0  0  0  0  0  0  0  0  0  0  0  0
    7.0290   70.4520   67.6020 C   0  0  0  0  0  0  0  0  0  0  0  0
    1.3094   68.8977   65.4373 H   0  0  0  0  0  0  0  0  0  0  0  0
    0.1805   66.2495   65.0694 H   0  0  0  0  0  0  0  0  0  0  0  0
    1.7122   66.7910   65.8703 H   0  0  0  0  0  0  0  0  0  0  0  0
   -1.1007   66.6826   66.9577 H   0  0  0  0  0  0  0  0  0  0  0  0
    0.4856   66.1042   67.6662 H   0  0  0  0  0  0  0  0  0  0  0  0
   -0.5377   68.0851   68.8529 H   0  0  0  0  0  0  0  0  0  0  0  0
   -1.4079   69.7026   67.6155 H   0  0  0  0  0  0  0  0  0  0  0  0
    0.3164   70.1689   67.2037 H   0  0  0  0  0  0  0  0  0  0  0  0
   -1.6154   68.4964   65.5665 H   0  0  0  0  0  0  0  0  0  0  0  0
   -0.8520   70.0522   65.1333 H   0  0  0  0  0  0  0  0  0  0  0  0
   -0.2131   67.6164   63.2624 H   0  0  0  0  0  0  0  0  0  0  0  0
    0.2671   69.3715   63.2808 H   0  0  0  0  0  0  0  0  0  0  0  0
    5.4398   67.1725   61.7343 H   0  0  0  0  0  0  0  0  0  0  0  0
    4.4746   65.8421   63.6066 H   0  0  0  0  0  0  0  0  0  0  0  0
    2.2002   66.3721   64.4744 H   0  0  0  0  0  0  0  0  0  0  0  0
    1.8517   69.5671   61.5723 H   0  0  0  0  0  0  0  0  0  0  0  0
    4.1288   69.0302   60.7154 H   0  0  0  0  0  0  0  0  0  0  0  0
    1.5620   68.1692   69.5301 H   0  0  0  0  0  0  0  0  0  0  0  0
    2.1654   67.6863   67.8652 H   0  0  0  0  0  0  0  0  0  0  0  0
    1.3509   70.3825   67.6918 H   0  0  0  0  0  0  0  0  0  0  0  0
    2.3597   70.1901   69.2112 H   0  0  0  0  0  0  0  0  0  0  0  0
    4.1892   69.2092   64.2558 H   0  0  0  0  0  0  0  0  0  0  0  0
    6.4396   69.7734   65.0773 H   0  0  0  0  0  0  0  0  0  0  0  0
    3.9931   70.5613   70.0141 H   0  0  0  0  0  0  0  0  0  0  0  0
    6.2633   71.1227   70.8535 H   0  0  0  0  0  0  0  0  0  0  0  0
    8.2170   71.0524   69.3125 H   0  0  0  0  0  0  0  0  0  0  0  0
    7.8951   70.4264   66.9244 H   0  0  0  0  0  0  0  0  0  0  0  0
  2  1  1  0
  3  2  1  0
  4  3  1  0
  5  4  1  0
  6  5  1  0
  6  1  1  0
  7  1  1  0
  9  8  2  0
 10  9  1  0
 11 10  2  0
 11  7  1  0
 12 11  1  0
 13 12  2  0
 13  8  1  0
 14  4  1  0
 15 14  1  0
 16 15  1  0
 17 16  2  0
 18 17  1  0
 19 18  2  0
 20 19  1  0
 21 16  1  0
 21 20  2  0
 22 21  1  0
 23 22  2  0
 24 23  1  0
 25 20  1  0
 25 24  2  0
  1 26  1  0
  2 27  1  0
  2 28  1  0
  3 29  1  0
  3 30  1  0
  4 31  1  0
  5 32  1  0
  5 33  1  0
  6 34  1  0
  6 35  1  0
  7 36  1  0
  7 37  1  0
  8 38  1  0
  9 39  1  0
 10 40  1  0
 12 41  1  0
 13 42  1  0
 14 43  1  0
 14 44  1  0
 15 45  1  0
 15 46  1  0
 18 47  1  0
 19 48  1  0
 22 49  1  0
 23 50  1  0
 24 51  1  0
 25 52  1  0
M  CHG  1   1   1
M  END
>  <score>  (2) 
-10.567

$$$$
=
     RDKit          3D

 52 55  0  0  0  0  0  0  0  0999 V2000
    1.8540   69.3750   67.9710 N   0  0  0  0  0  4  0  0  0  0  0  0
    0.6250   70.2320   67.7620 C   0  0  0  0  0  0  0  0  0  0  0  0
   -0.5760   69.3920   67.3330 C   0  0  0  0  0  0  0  0  0  0  0  0
   -0.2210   68.2280   66.3950 C   0  0  0  0  0  0  0  0  0  0  0  0
    0.8640   67.3370   67.0380 C   0  0  0  0  0  0  0  0  0  0  0  0
    1.5220   67.9420   68.2730 C   0  0  0  0  0  0  0  0  0  0  0  0
    2.8250   69.9680   68.9660 C   0  0  0  0  0  0  0  0  0  0  0  0
    6.7660   70.5170   67.3160 C   0  0  0  0  0  0  0  0  0  0  0  0
    5.7490   69.9890   66.5250 C   0  0  0  0  0  0  0  0  0  0  0  0
    4.4680   69.8200   67.0520 C   0  0  0  0  0  0  0  0  0  0  0  0
    4.1940   70.1820   68.3800 C   0  0  0  0  0  0  0  0  0  0  0  0
    5.2280   70.7170   69.1660 C   0  0  0  0  0  0  0  0  0  0  0  0
    6.5070   70.8830   68.6340 C   0  0  0  0  0  0  0  0  0  0  0  0
    0.1700   68.7550   64.9910 C   0  0  0  0  0  0  0  0  0  0  0  0
    0.7230   67.6820   64.0360 C   0  0  0  0  0  0  0  0  0  0  0  0
    2.2230   67.6940   63.8860 C   0  0  0  0  0  0  0  0  0  0  0  0
    2.7360   68.8870   63.4820 N   0  0  0  0  0  0  0  0  0  0  0  0
    4.0710   68.9790   63.3370 C   0  0  0  0  0  0  0  0  0  0  0  0
    4.9370   67.9200   63.5300 C   0  0  0  0  0  0  0  0  0  0  0  0
    4.4130   66.6820   63.9090 C   0  0  0  0  0  0  0  0  0  0  0  0
    3.0200   66.5430   64.1060 C   0  0  0  0  0  0  0  0  0  0  0  0
    2.5280   65.2760   64.5040 C   0  0  0  0  0  0  0  0  0  0  0  0
    3.3860   64.1900   64.6930 C   0  0  0  0  0  0  0  0  0  0  0  0
    4.7510   64.3420   64.4920 C   0  0  0  0  0  0  0  0  0  0  0  0
    5.2620   65.5810   64.1050 C   0  0  0  0  0  0  0  0  0  0  0  0
    2.3449   69.3693   67.0655 H   0  0  0  0  0  0  0  0  0  0  0  0
    0.3834   70.7464   68.7038 H   0  0  0  0  0  0  0  0  0  0  0  0
    0.8416   70.9577   66.9642 H   0  0  0  0  0  0  0  0  0  0  0  0
   -1.0482   68.9772   68.2357 H   0  0  0  0  0  0  0  0  0  0  0  0
   -1.2473   70.0592   66.7725 H   0  0  0  0  0  0  0  0  0  0  0  0
   -1.1059   67.5916   66.2471 H   0  0  0  0  0  0  0  0  0  0  0  0
    0.3992   66.3831   67.3277 H   0  0  0  0  0  0  0  0  0  0  0  0
    1.6576   67.2150   66.2861 H   0  0  0  0  0  0  0  0  0  0  0  0
    0.8299   67.8917   69.1265 H   0  0  0  0  0  0  0  0  0  0  0  0
    2.4355   67.3853   68.5290 H   0  0  0  0  0  0  0  0  0  0  0  0
    2.4322   70.9372   69.3071 H   0  0  0  0  0  0  0  0  0  0  0  0
    2.9261   69.2560   69.7984 H   0  0  0  0  0  0  0  0  0  0  0  0
    7.7757   70.6451   66.8988 H   0  0  0  0  0  0  0  0  0  0  0  0
    5.9557   69.7046   65.4827 H   0  0  0  0  0  0  0  0  0  0  0  0
    3.6687   69.4008   66.4232 H   0  0  0  0  0  0  0  0  0  0  0  0
    5.0279   71.0070   70.2080 H   0  0  0  0  0  0  0  0  0  0  0  0
    7.3110   71.3032   69.2561 H   0  0  0  0  0  0  0  0  0  0  0  0
   -0.7248   69.1975   64.5290 H   0  0  0  0  0  0  0  0  0  0  0  0
    0.9801   69.4830   65.1453 H   0  0  0  0  0  0  0  0  0  0  0  0
    0.4235   66.6947   64.4176 H   0  0  0  0  0  0  0  0  0  0  0  0
    0.3067   67.9024   63.0420 H   0  0  0  0  0  0  0  0  0  0  0  0
    4.4962   69.9517   63.0487 H   0  0  0  0  0  0  0  0  0  0  0  0
    6.0200   68.0495   63.3877 H   0  0  0  0  0  0  0  0  0  0  0  0
    1.4482   65.1444   64.6676 H   0  0  0  0  0  0  0  0  0  0  0  0
    2.9802   63.2150   65.0009 H   0  0  0  0  0  0  0  0  0  0  0  0
    5.4282   63.4875   64.6375 H   0  0  0  0  0  0  0  0  0  0  0  0
    6.3450   65.6970   63.9513 H   0  0  0  0  0  0  0  0  0  0  0  0
  2  1  1  0
  3  2  1  0
  4  3  1  0
  5  4  1  0
  6  5  1  0
  6  1  1  0
  7  1  1  0
  9  8  2  0
 10  9  1  0
 11 10  2  0
 11  7  1  0
 12 11  1  0
 13 12  2  0
 13  8  1  0
 14  4  1  0
 15 14  1  0
 16 15  1  0
 17 16  2  0
 18 17  1  0
 19 18  2  0
 20 19  1  0
 21 16  1  0
 21 20  2  0
 22 21  1  0
 23 22  2  0
 24 23  1  0
 25 20  1  0
 25 24  2  0
  1 26  1  0
  2 27  1  0
  2 28  1  0
  3 29  1  0
  3 30  1  0
  4 31  1  0
  5 32  1  0
  5 33  1  0
  6 34  1  0
  6 35  1  0
  7 36  1  0
  7 37  1  0
  8 38  1  0
  9 39  1  0
 10 40  1  0
 12 41  1  0
 13 42  1  0
 14 43  1  0
 14 44  1  0
 15 45  1  0
 15 46  1  0
 18 47  1  0
 19 48  1  0
 22 49  1  0
 23 50  1  0
 24 51  1  0
 25 52  1  0
M  CHG  1   1   1
M  END
>  <score>  (3) 
-10.472

$$$$
=
     RDKit          3D

 52 55  0  0  0  0  0  0  0  0999 V2000
    0.8160   65.3130   69.6860 N   0  0  0  0  0  4  0  0  0  0  0  0
    1.8820   66.3580   69.9270 C   0  0  0  0  0  0  0  0  0  0  0  0
    1.4150   67.7440   69.4890 C   0  0  0  0  0  0  0  0  0  0  0  0
    0.5460   67.7390   68.2220 C   0  0  0  0  0  0  0  0  0  0  0  0
   -0.6600   66.7920   68.4070 C   0  0  0  0  0  0  0  0  0  0  0  0
   -0.5690   65.8920   69.6330 C   0  0  0  0  0  0  0  0  0  0  0  0
    0.9170   64.1370   70.6310 C   0  0  0  0  0  0  0  0  0  0  0  0
    4.4670   61.8080   69.8990 C   0  0  0  0  0  0  0  0  0  0  0  0
    4.5700   63.0640   70.4930 C   0  0  0  0  0  0  0  0  0  0  0  0
    3.4210   63.8170   70.7420 C   0  0  0  0  0  0  0  0  0  0  0  0
    2.1560   63.3150   70.3990 C   0  0  0  0  0  0  0  0  0  0  0  0
    2.0660   62.0460   69.8050 C   0  0  0  0  0  0  0  0  0  0  0  0
    3.2170   61.2980   69.5570 C   0  0  0  0  0  0  0  0  0  0  0  0
    1.4010   67.4080   66.9720 C   0  0  0  0  0  0  0  0  0  0  0  0
    1.6710   68.6070   66.0460 C   0  0  0  0  0  0  0  0  0  0  0  0
    3.1310   68.8740   65.7820 C   0  0  0  0  0  0  0  0  0  0  0  0
    3.5880   68.3700   64.6050 N   0  0  0  0  0  0  0  0  0  0  0  0
    4.8820   68.5790   64.2930 C   0  0  0  0  0  0  0  0  0  0  0  0
    5.7740   69.2310   65.1230 C   0  0  0  0  0  0  0  0  0  0  0  0
    5.3190   69.7170   66.3510 C   0  0  0  0  0  0  0  0  0  0  0  0
    3.9610   69.5520   66.7090 C   0  0  0  0  0  0  0  0  0  0  0  0
    3.5360   70.0720   67.9560 C   0  0  0  0  0  0  0  0  0  0  0  0
    4.4240   70.7240   68.8140 C   0  0  0  0  0  0  0  0  0  0  0  0
    5.7540   70.8740   68.4490 C   0  0  0  0  0  0  0  0  0  0  0  0
    6.2000   70.3760   67.2240 C   0  0  0  0  0  0  0  0  0  0  0  0
    1.0047   64.9379   68.7455 H   0  0  0  0  0  0  0  0  0  0  0  0
    2.1211   66.3839   71.0004 H   0  0  0  0  0  0  0  0  0  0  0  0
    2.7692   66.0893   69.3349 H   0  0  0  0  0  0  0  0  0  0  0  0
    0.8295   68.1867   70.3083 H   0  0  0  0  0  0  0  0  0  0  0  0
    2.3190   68.3245   69.2527 H   0  0  0  0  0  0  0  0  0  0  0  0
    0.1350   68.7453   68.0532 H   0  0  0  0  0  0  0  0  0  0  0  0
   -1.5688   67.4052   68.4966 H   0  0  0  0  0  0  0  0  0  0  0  0
   -0.6765   66.1283   67.5299 H   0  0  0  0  0  0  0  0  0  0  0  0
   -0.7621   66.4801   70.5423 H   0  0  0  0  0  0  0  0  0  0  0  0
   -1.3161   65.0870   69.5707 H   0  0  0  0  0  0  0  0  0  0  0  0
    0.9329   64.5150   71.6639 H   0  0  0  0  0  0  0  0  0  0  0  0
    0.0472   63.4881   70.4507 H   0  0  0  0  0  0  0  0  0  0  0  0
    5.3741   61.2184   69.6999 H   0  0  0  0  0  0  0  0  0  0  0  0
    5.5580   63.4630   70.7662 H   0  0  0  0  0  0  0  0  0  0  0  0
    3.5076   64.8090   71.2095 H   0  0  0  0  0  0  0  0  0  0  0  0
    1.0809   61.6388   69.5333 H   0  0  0  0  0  0  0  0  0  0  0  0
    3.1373   60.3048   69.0910 H   0  0  0  0  0  0  0  0  0  0  0  0
    2.3692   67.0129   67.3132 H   0  0  0  0  0  0  0  0  0  0  0  0
    0.8230   66.6817   66.3818 H   0  0  0  0  0  0  0  0  0  0  0  0
    1.1766   68.4155   65.0822 H   0  0  0  0  0  0  0  0  0  0  0  0
    1.2775   69.4959   66.5608 H   0  0  0  0  0  0  0  0  0  0  0  0
    5.2488   68.2101   63.3238 H   0  0  0  0  0  0  0  0  0  0  0  0
    6.8235   69.3649   64.8220 H   0  0  0  0  0  0  0  0  0  0  0  0
    2.4834   69.9598   68.2551 H   0  0  0  0  0  0  0  0  0  0  0  0
    4.0695   71.1181   69.7779 H   0  0  0  0  0  0  0  0  0  0  0  0
    6.4561   71.3848   69.1243 H   0  0  0  0  0  0  0  0  0  0  0  0
    7.2549   70.5012   66.9386 H   0  0  0  0  0  0  0  0  0  0  0  0
  2  1  1  0
  3  2  1  0
  4  3  1  0
  5  4  1  0
  6  5  1  0
  6  1  1  0
  7  1  1  0
  9  8  2  0
 10  9  1  0
 11 10  2  0
 11  7  1  0
 12 11  1  0
 13 12  2  0
 13  8  1  0
 14  4  1  0
 15 14  1  0
 16 15  1  0
 17 16  2  0
 18 17  1  0
 19 18  2  0
 20 19  1  0
 21 16  1  0
 21 20  2  0
 22 21  1  0
 23 22  2  0
 24 23  1  0
 25 20  1  0
 25 24  2  0
  1 26  1  0
  2 27  1  0
  2 28  1  0
  3 29  1  0
  3 30  1  0
  4 31  1  0
  5 32  1  0
  5 33  1  0
  6 34  1  0
  6 35  1  0
  7 36  1  0
  7 37  1  0
  8 38  1  0
  9 39  1  0
 10 40  1  0
 12 41  1  0
 13 42  1  0
 14 43  1  0
 14 44  1  0
 15 45  1  0
 15 46  1  0
 18 47  1  0
 19 48  1  0
 22 49  1  0
 23 50  1  0
 24 51  1  0
 25 52  1  0
M  CHG  1   1   1
M  END
>  <score>  (4) 
-10.404

$$$$
=
     RDKit          3D

 52 55  0  0  0  0  0  0  0  0999 V2000
    2.1390   69.1520   68.4000 N   0  0  0  0  0  4  0  0  0  0  0  0
    1.0190   69.8500   67.6620 C   0  0  0  0  0  0  0  0  0  0  0  0
   -0.2330   68.9790   67.5920 C   0  0  0  0  0  0  0  0  0  0  0  0
    0.0570   67.4820   67.4100 C   0  0  0  0  0  0  0  0  0  0  0  0
    1.0050   66.9830   68.5230 C   0  0  0  0  0  0  0  0  0  0  0  0
    1.6450   68.0950   69.3460 C   0  0  0  0  0  0  0  0  0  0  0  0
    3.1030   70.1130   69.0560 C   0  0  0  0  0  0  0  0  0  0  0  0
    6.7620   70.5780   66.8290 C   0  0  0  0  0  0  0  0  0  0  0  0
    6.6870   71.0280   68.1450 C   0  0  0  0  0  0  0  0  0  0  0  0
    5.5080   70.8690   68.8740 C   0  0  0  0  0  0  0  0  0  0  0  0
    4.3900   70.2540   68.2890 C   0  0  0  0  0  0  0  0  0  0  0  0
    4.4790   69.8020   66.9620 C   0  0  0  0  0  0  0  0  0  0  0  0
    5.6600   69.9640   66.2380 C   0  0  0  0  0  0  0  0  0  0  0  0
    0.5850   67.1950   65.9810 C   0  0  0  0  0  0  0  0  0  0  0  0
    2.1170   67.1050   65.8710 C   0  0  0  0  0  0  0  0  0  0  0  0
    2.6600   67.3840   64.4910 C   0  0  0  0  0  0  0  0  0  0  0  0
    3.8940   66.8630   64.2600 N   0  0  0  0  0  0  0  0  0  0  0  0
    4.4410   67.0590   63.0450 C   0  0  0  0  0  0  0  0  0  0  0  0
    3.8380   67.7990   62.0460 C   0  0  0  0  0  0  0  0  0  0  0  0
    2.5870   68.3680   62.2900 C   0  0  0  0  0  0  0  0  0  0  0  0
    1.9570   68.1620   63.5390 C   0  0  0  0  0  0  0  0  0  0  0  0
    0.6810   68.7440   63.7430 C   0  0  0  0  0  0  0  0  0  0  0  0
    0.0610   69.5040   62.7500 C   0  0  0  0  0  0  0  0  0  0  0  0
    0.6940   69.6990   61.5310 C   0  0  0  0  0  0  0  0  0  0  0  0
    1.9490   69.1340   61.3010 C   0  0  0  0  0  0  0  0  0  0  0  0
    2.6809   68.6574   67.6770 H   0  0  0  0  0  0  0  0  0  0  0  0
    0.7745   70.7859   68.1858 H   0  0  0  0  0  0  0  0  0  0  0  0
    1.3563   70.0528   66.6348 H   0  0  0  0  0  0  0  0  0  0  0  0
   -0.7987   69.1107   68.5262 H   0  0  0  0  0  0  0  0  0  0  0  0
   -0.7976   69.3039   66.7056 H   0  0  0  0  0  0  0  0  0  0  0  0
   -0.8782   66.9118   67.5112 H   0  0  0  0  0  0  0  0  0  0  0  0
    0.4288   66.3387   69.2033 H   0  0  0  0  0  0  0  0  0  0  0  0
    1.8259   66.4490   68.0221 H   0  0  0  0  0  0  0  0  0  0  0  0
    0.9009   68.5267   70.0315 H   0  0  0  0  0  0  0  0  0  0  0  0
    2.4800   67.6961   69.9406 H   0  0  0  0  0  0  0  0  0  0  0  0
    2.6238   71.1007   69.1251 H   0  0  0  0  0  0  0  0  0  0  0  0
    3.3494   69.7117   70.0501 H   0  0  0  0  0  0  0  0  0  0  0  0
    7.6920   70.7075   66.2560 H   0  0  0  0  0  0  0  0  0  0  0  0
    7.5593   71.5099   68.6107 H   0  0  0  0  0  0  0  0  0  0  0  0
    5.4543   71.2275   69.9126 H   0  0  0  0  0  0  0  0  0  0  0  0
    3.6114   69.3170   66.4907 H   0  0  0  0  0  0  0  0  0  0  0  0
    5.7214   69.6067   65.1995 H   0  0  0  0  0  0  0  0  0  0  0  0
    0.1599   66.2382   65.6438 H   0  0  0  0  0  0  0  0  0  0  0  0
    0.2769   68.0473   65.3575 H   0  0  0  0  0  0  0  0  0  0  0  0
    2.5555   67.8349   66.5674 H   0  0  0  0  0  0  0  0  0  0  0  0
    2.3887   66.0665   66.1114 H   0  0  0  0  0  0  0  0  0  0  0  0
    5.4212   66.6053   62.8366 H   0  0  0  0  0  0  0  0  0  0  0  0
    4.3355   67.9374   61.0747 H   0  0  0  0  0  0  0  0  0  0  0  0
    0.1683   68.5935   64.7045 H   0  0  0  0  0  0  0  0  0  0  0  0
   -0.9285   69.9479   62.9337 H   0  0  0  0  0  0  0  0  0  0  0  0
    0.2074   70.2980   60.7471 H   0  0  0  0  0  0  0  0  0  0  0  0
    2.4452   69.2908   60.3319 H   0  0  0  0  0  0  0  0  0  0  0  0
  2  1  1  0
  3  2  1  0
  4  3  1  0
  5  4  1  0
  6  5  1  0
  6  1  1  0
  7  1  1  0
  9  8  2  0
 10  9  1  0
 11 10  2  0
 11  7  1  0
 12 11  1  0
 13 12  2  0
 13  8  1  0
 14  4  1  0
 15 14  1  0
 16 15  1  0
 17 16  2  0
 18 17  1  0
 19 18  2  0
 20 19  1  0
 21 16  1  0
 21 20  2  0
 22 21  1  0
 23 22  2  0
 24 23  1  0
 25 20  1  0
 25 24  2  0
  1 26  1  0
  2 27  1  0
  2 28  1  0
  3 29  1  0
  3 30  1  0
  4 31  1  0
  5 32  1  0
  5 33  1  0
  6 34  1  0
  6 35  1  0
  7 36  1  0
  7 37  1  0
  8 38  1  0
  9 39  1  0
 10 40  1  0
 12 41  1  0
 13 42  1  0
 14 43  1  0
 14 44  1  0
 15 45  1  0
 15 46  1  0
 18 47  1  0
 19 48  1  0
 22 49  1  0
 23 50  1  0
 24 51  1  0
 25 52  1  0
M  CHG  1   1   1
M  END
>  <score>  (5) 
-10.373

$$$$
=
     RDKit          3D

 52 55  0  0  0  0  0  0  0  0999 V2000
    1.9130   69.3100   68.4120 N   0  0  0  0  0  4  0  0  0  0  0  0
    0.6520   69.8880   67.8100 C   0  0  0  0  0  0  0  0  0  0  0  0
   -0.4980   68.8850   67.8510 C   0  0  0  0  0  0  0  0  0  0  0  0
   -0.0680   67.4310   67.6060 C   0  0  0  0  0  0  0  0  0  0  0  0
    1.0410   67.0280   68.6030 C   0  0  0  0  0  0  0  0  0  0  0  0
    1.6390   68.1950   69.3800 C   0  0  0  0  0  0  0  0  0  0  0  0
    2.8310   70.3640   68.9860 C   0  0  0  0  0  0  0  0  0  0  0  0
    6.7420   70.2820   67.1800 C   0  0  0  0  0  0  0  0  0  0  0  0
    5.6390   69.8090   66.4720 C   0  0  0  0  0  0  0  0  0  0  0  0
    4.3690   69.8450   67.0490 C   0  0  0  0  0  0  0  0  0  0  0  0
    4.1920   70.3570   68.3440 C   0  0  0  0  0  0  0  0  0  0  0  0
    5.3110   70.8340   69.0460 C   0  0  0  0  0  0  0  0  0  0  0  0
    6.5790   70.7950   68.4650 C   0  0  0  0  0  0  0  0  0  0  0  0
    0.3340   67.2200   66.1240 C   0  0  0  0  0  0  0  0  0  0  0  0
    1.6490   67.9060   65.7130 C   0  0  0  0  0  0  0  0  0  0  0  0
    2.5920   67.0290   64.9290 C   0  0  0  0  0  0  0  0  0  0  0  0
    2.4710   65.7010   65.1950 N   0  0  0  0  0  0  0  0  0  0  0  0
    3.2720   64.8510   64.5230 C   0  0  0  0  0  0  0  0  0  0  0  0
    4.2360   65.2600   63.6220 C   0  0  0  0  0  0  0  0  0  0  0  0
    4.3900   66.6260   63.3730 C   0  0  0  0  0  0  0  0  0  0  0  0
    3.5510   67.5550   64.0290 C   0  0  0  0  0  0  0  0  0  0  0  0
    3.7280   68.9300   63.7390 C   0  0  0  0  0  0  0  0  0  0  0  0
    4.7040   69.3630   62.8390 C   0  0  0  0  0  0  0  0  0  0  0  0
    5.5230   68.4380   62.2070 C   0  0  0  0  0  0  0  0  0  0  0  0
    5.3670   67.0780   62.4700 C   0  0  0  0  0  0  0  0  0  0  0  0
    2.4262   68.8865   67.6257 H   0  0  0  0  0  0  0  0  0  0  0  0
    0.3640   70.7855   68.3771 H   0  0  0  0  0  0  0  0  0  0  0  0
    0.8548   70.1379   66.7581 H   0  0  0  0  0  0  0  0  0  0  0  0
   -0.9725   68.9431   68.8417 H   0  0  0  0  0  0  0  0  0  0  0  0
   -1.1852   69.1553   67.0357 H   0  0  0  0  0  0  0  0  0  0  0  0
   -0.9196   66.7597   67.7907 H   0  0  0  0  0  0  0  0  0  0  0  0
    0.6137   66.3163   69.3247 H   0  0  0  0  0  0  0  0  0  0  0  0
    1.8578   66.5939   68.0077 H   0  0  0  0  0  0  0  0  0  0  0  0
    0.9284   68.5345   70.1480 H   0  0  0  0  0  0  0  0  0  0  0  0
    2.5702   67.8844   69.8763 H   0  0  0  0  0  0  0  0  0  0  0  0
    2.3733   71.3522   68.8311 H   0  0  0  0  0  0  0  0  0  0  0  0
    2.9655   70.1426   70.0551 H   0  0  0  0  0  0  0  0  0  0  0  0
    7.7425   70.2503   66.7239 H   0  0  0  0  0  0  0  0  0  0  0  0
    5.7696   69.4066   65.4566 H   0  0  0  0  0  0  0  0  0  0  0  0
    3.5016   69.4700   66.4859 H   0  0  0  0  0  0  0  0  0  0  0  0
    5.1870   71.2410   70.0604 H   0  0  0  0  0  0  0  0  0  0  0  0
    7.4505   71.1696   69.0219 H   0  0  0  0  0  0  0  0  0  0  0  0
    0.4411   66.1395   65.9481 H   0  0  0  0  0  0  0  0  0  0  0  0
   -0.4602   67.6793   65.5171 H   0  0  0  0  0  0  0  0  0  0  0  0
    1.4013   68.7823   65.0959 H   0  0  0  0  0  0  0  0  0  0  0  0
    2.1692   68.1704   66.6455 H   0  0  0  0  0  0  0  0  0  0  0  0
    3.1517   63.7723   64.7017 H   0  0  0  0  0  0  0  0  0  0  0  0
    4.8714   64.5228   63.1094 H   0  0  0  0  0  0  0  0  0  0  0  0
    3.0834   69.6720   64.2329 H   0  0  0  0  0  0  0  0  0  0  0  0
    4.8235   70.4366   62.6312 H   0  0  0  0  0  0  0  0  0  0  0  0
    6.2940   68.7774   61.4997 H   0  0  0  0  0  0  0  0  0  0  0  0
    6.0172   66.3492   61.9640 H   0  0  0  0  0  0  0  0  0  0  0  0
  2  1  1  0
  3  2  1  0
  4  3  1  0
  5  4  1  0
  6  5  1  0
  6  1  1  0
  7  1  1  0
  9  8  2  0
 10  9  1  0
 11 10  2  0
 11  7  1  0
 12 11  1  0
 13 12  2  0
 13  8  1  0
 14  4  1  0
 15 14  1  0
 16 15  1  0
 17 16  2  0
 18 17  1  0
 19 18  2  0
 20 19  1  0
 21 16  1  0
 21 20  2  0
 22 21  1  0
 23 22  2  0
 24 23  1  0
 25 20  1  0
 25 24  2  0
  1 26  1  0
  2 27  1  0
  2 28  1  0
  3 29  1  0
  3 30  1  0
  4 31  1  0
  5 32  1  0
  5 33  1  0
  6 34  1  0
  6 35  1  0
  7 36  1  0
  7 37  1  0
  8 38  1  0
  9 39  1  0
 10 40  1  0
 12 41  1  0
 13 42  1  0
 14 43  1  0
 14 44  1  0
 15 45  1  0
 15 46  1  0
 18 47  1  0
 19 48  1  0
 22 49  1  0
 23 50  1  0
 24 51  1  0
 25 52  1  0
M  CHG  1   1   1
M  END
>  <score>  (6) 
-10.319

$$$$
=
     RDKit          3D

 52 55  0  0  0  0  0  0  0  0999 V2000
    0.7180   65.1970   69.7160 N   0  0  0  0  0  4  0  0  0  0  0  0
    1.8610   66.1570   69.9580 C   0  0  0  0  0  0  0  0  0  0  0  0
    1.4830   67.5850   69.5710 C   0  0  0  0  0  0  0  0  0  0  0  0
    0.5870   67.6780   68.3270 C   0  0  0  0  0  0  0  0  0  0  0  0
   -0.6790   66.8130   68.5160 C   0  0  0  0  0  0  0  0  0  0  0  0
   -0.6230   65.8740   69.7150 C   0  0  0  0  0  0  0  0  0  0  0  0
    0.7580   63.9900   70.6260 C   0  0  0  0  0  0  0  0  0  0  0  0
    4.3580   61.6600   70.2150 C   0  0  0  0  0  0  0  0  0  0  0  0
    3.6340   62.0240   69.0830 C   0  0  0  0  0  0  0  0  0  0  0  0
    2.4730   62.7890   69.2110 C   0  0  0  0  0  0  0  0  0  0  0  0
    2.0280   63.1980   70.4770 C   0  0  0  0  0  0  0  0  0  0  0  0
    2.7700   62.8260   71.6110 C   0  0  0  0  0  0  0  0  0  0  0  0
    3.9290   62.0610   71.4780 C   0  0  0  0  0  0  0  0  0  0  0  0
    1.3860   67.3250   67.0470 C   0  0  0  0  0  0  0  0  0  0  0  0
    1.5490   68.4880   66.0530 C   0  0  0  0  0  0  0  0  0  0  0  0
    2.9670   68.9750   65.8910 C   0  0  0  0  0  0  0  0  0  0  0  0
    3.5310   69.4470   67.0350 N   0  0  0  0  0  0  0  0  0  0  0  0
    4.8010   69.8890   66.9730 C   0  0  0  0  0  0  0  0  0  0  0  0
    5.5400   69.9330   65.8060 C   0  0  0  0  0  0  0  0  0  0  0  0
    4.9530   69.4850   64.6210 C   0  0  0  0  0  0  0  0  0  0  0  0
    3.6330   68.9810   64.6410 C   0  0  0  0  0  0  0  0  0  0  0  0
    3.0790   68.5220   63.4200 C   0  0  0  0  0  0  0  0  0  0  0  0
    3.8050   68.5690   62.2290 C   0  0  0  0  0  0  0  0  0  0  0  0
    5.0990   69.0700   62.2260 C   0  0  0  0  0  0  0  0  0  0  0  0
    5.6710   69.5240   63.4140 C   0  0  0  0  0  0  0  0  0  0  0  0
    0.8564   64.8366   68.7611 H   0  0  0  0  0  0  0  0  0  0  0  0
    2.1272   66.1343   71.0251 H   0  0  0  0  0  0  0  0  0  0  0  0
    2.7124   65.8443   69.3356 H   0  0  0  0  0  0  0  0  0  0  0  0
    0.9493   68.0430   70.4168 H   0  0  0  0  0  0  0  0  0  0  0  0
    2.4199   68.1079   69.3286 H   0  0  0  0  0  0  0  0  0  0  0  0
    0.2452   68.7154   68.1970 H   0  0  0  0  0  0  0  0  0  0  0  0
   -1.5398   67.4856   68.6449 H   0  0  0  0  0  0  0  0  0  0  0  0
   -0.7633   66.1779   67.6218 H   0  0  0  0  0  0  0  0  0  0  0  0
   -0.7514   66.4482   70.6444 H   0  0  0  0  0  0  0  0  0  0  0  0
   -1.4271   65.1262   69.6510 H   0  0  0  0  0  0  0  0  0  0  0  0
    0.6754   64.3313   71.6684 H   0  0  0  0  0  0  0  0  0  0  0  0
   -0.0797   63.3337   70.3476 H   0  0  0  0  0  0  0  0  0  0  0  0
    5.2706   61.0546   70.1118 H   0  0  0  0  0  0  0  0  0  0  0  0
    3.9770   61.7086   68.0866 H   0  0  0  0  0  0  0  0  0  0  0  0
    1.9037   63.0728   68.3136 H   0  0  0  0  0  0  0  0  0  0  0  0
    2.4346   63.1402   72.6104 H   0  0  0  0  0  0  0  0  0  0  0  0
    4.5042   61.7744   72.3708 H   0  0  0  0  0  0  0  0  0  0  0  0
    2.3888   66.9895   67.3500 H   0  0  0  0  0  0  0  0  0  0  0  0
    0.8103   66.5467   66.5247 H   0  0  0  0  0  0  0  0  0  0  0  0
    1.1856   68.1539   65.0700 H   0  0  0  0  0  0  0  0  0  0  0  0
    0.9719   69.3316   66.4595 H   0  0  0  0  0  0  0  0  0  0  0  0
    5.2769   70.2343   67.9027 H   0  0  0  0  0  0  0  0  0  0  0  0
    6.5719   70.3140   65.8106 H   0  0  0  0  0  0  0  0  0  0  0  0
    2.0551   68.1202   63.4108 H   0  0  0  0  0  0  0  0  0  0  0  0
    3.3518   68.2092   61.2935 H   0  0  0  0  0  0  0  0  0  0  0  0
    5.6726   69.1090   61.2882 H   0  0  0  0  0  0  0  0  0  0  0  0
    6.6980   69.9179   63.4060 H   0  0  0  0  0  0  0  0  0  0  0  0
  2  1  1  0
  3  2  1  0
  4  3  1  0
  5  4  1  0
  6  5  1  0
  6  1  1  0
  7  1  1  0
  9  8  2  0
 10  9  1  0
 11 10  2  0
 11  7  1  0
 12 11  1  0
 13 12  2  0
 13  8  1  0
 14  4  1  0
 15 14  1  0
 16 15  1  0
 17 16  2  0
 18 17  1  0
 19 18  2  0
 20 19  1  0
 21 16  1  0
 21 20  2  0
 22 21  1  0
 23 22  2  0
 24 23  1  0
 25 20  1  0
 25 24  2  0
  1 26  1  0
  2 27  1  0
  2 28  1  0
  3 29  1  0
  3 30  1  0
  4 31  1  0
  5 32  1  0
  5 33  1  0
  6 34  1  0
  6 35  1  0
  7 36  1  0
  7 37  1  0
  8 38  1  0
  9 39  1  0
 10 40  1  0
 12 41  1  0
 13 42  1  0
 14 43  1  0
 14 44  1  0
 15 45  1  0
 15 46  1  0
 18 47  1  0
 19 48  1  0
 22 49  1  0
 23 50  1  0
 24 51  1  0
 25 52  1  0
M  CHG  1   1   1
M  END
>  <score>  (7) 
-9.991

$$$$
=
     RDKit          3D

 52 55  0  0  0  0  0  0  0  0999 V2000
    0.7430   67.9630   68.2210 N   0  0  0  0  0  4  0  0  0  0  0  0
    0.4420   69.4270   67.9900 C   0  0  0  0  0  0  0  0  0  0  0  0
   -0.8270   69.6130   67.1620 C   0  0  0  0  0  0  0  0  0  0  0  0
   -1.0170   68.5560   66.0640 C   0  0  0  0  0  0  0  0  0  0  0  0
   -0.9680   67.1380   66.6750 C   0  0  0  0  0  0  0  0  0  0  0  0
   -0.4760   67.0930   68.1160 C   0  0  0  0  0  0  0  0  0  0  0  0
    1.5260   67.7140   69.4900 C   0  0  0  0  0  0  0  0  0  0  0  0
    0.8260   63.8250   71.2060 C   0  0  0  0  0  0  0  0  0  0  0  0
   -0.0320   64.8810   71.5050 C   0  0  0  0  0  0  0  0  0  0  0  0
    0.1840   66.1400   70.9420 C   0  0  0  0  0  0  0  0  0  0  0  0
    1.2650   66.3510   70.0710 C   0  0  0  0  0  0  0  0  0  0  0  0
    2.1200   65.2770   69.7760 C   0  0  0  0  0  0  0  0  0  0  0  0
    1.9000   64.0210   70.3420 C   0  0  0  0  0  0  0  0  0  0  0  0
    0.0060   68.7650   64.9180 C   0  0  0  0  0  0  0  0  0  0  0  0
    1.1580   67.7450   64.8950 C   0  0  0  0  0  0  0  0  0  0  0  0
    2.4090   68.2350   64.2100 C   0  0  0  0  0  0  0  0  0  0  0  0
    2.4600   67.9660   62.8780 N   0  0  0  0  0  0  0  0  0  0  0  0
    3.5420   68.3830   62.1940 C   0  0  0  0  0  0  0  0  0  0  0  0
    4.6180   69.0220   62.7800 C   0  0  0  0  0  0  0  0  0  0  0  0
    4.5890   69.2670   64.1550 C   0  0  0  0  0  0  0  0  0  0  0  0
    3.4590   68.8770   64.9110 C   0  0  0  0  0  0  0  0  0  0  0  0
    3.4610   69.1560   66.3000 C   0  0  0  0  0  0  0  0  0  0  0  0
    4.5440   69.7910   66.9120 C   0  0  0  0  0  0  0  0  0  0  0  0
    5.6460   70.1640   66.1560 C   0  0  0  0  0  0  0  0  0  0  0  0
    5.6690   69.9050   64.7860 C   0  0  0  0  0  0  0  0  0  0  0  0
    1.3618   67.6821   67.4470 H   0  0  0  0  0  0  0  0  0  0  0  0
    0.3098   69.9227   68.9631 H   0  0  0  0  0  0  0  0  0  0  0  0
    1.2834   69.8694   67.4365 H   0  0  0  0  0  0  0  0  0  0  0  0
   -1.6921   69.5670   67.8398 H   0  0  0  0  0  0  0  0  0  0  0  0
   -0.7369   70.5853   66.6556 H   0  0  0  0  0  0  0  0  0  0  0  0
   -2.0125   68.6719   65.6107 H   0  0  0  0  0  0  0  0  0  0  0  0
   -1.9826   66.7143   66.6440 H   0  0  0  0  0  0  0  0  0  0  0  0
   -0.2459   66.5623   66.0774 H   0  0  0  0  0  0  0  0  0  0  0  0
   -1.2606   67.4680   68.7896 H   0  0  0  0  0  0  0  0  0  0  0  0
   -0.2319   66.0595   68.4029 H   0  0  0  0  0  0  0  0  0  0  0  0
    2.5992   67.8018   69.2651 H   0  0  0  0  0  0  0  0  0  0  0  0
    1.2054   68.4601   70.2319 H   0  0  0  0  0  0  0  0  0  0  0  0
    0.6547   62.8347   71.6532 H   0  0  0  0  0  0  0  0  0  0  0  0
   -0.8812   64.7225   72.1860 H   0  0  0  0  0  0  0  0  0  0  0  0
   -0.4959   66.9708   71.1818 H   0  0  0  0  0  0  0  0  0  0  0  0
    2.9696   65.4270   69.0936 H   0  0  0  0  0  0  0  0  0  0  0  0
    2.5752   63.1854   70.1056 H   0  0  0  0  0  0  0  0  0  0  0  0
   -0.5320   68.6969   63.9610 H   0  0  0  0  0  0  0  0  0  0  0  0
    0.4650   69.7506   65.0852 H   0  0  0  0  0  0  0  0  0  0  0  0
    1.4122   67.4893   65.9342 H   0  0  0  0  0  0  0  0  0  0  0  0
    0.8008   66.8804   64.3164 H   0  0  0  0  0  0  0  0  0  0  0  0
    3.5711   68.2053   61.1088 H   0  0  0  0  0  0  0  0  0  0  0  0
    5.4822   69.3323   62.1744 H   0  0  0  0  0  0  0  0  0  0  0  0
    2.5918   68.8666   66.9089 H   0  0  0  0  0  0  0  0  0  0  0  0
    4.5233   69.9953   67.9927 H   0  0  0  0  0  0  0  0  0  0  0  0
    6.5002   70.6633   66.6366 H   0  0  0  0  0  0  0  0  0  0  0  0
    6.5449   70.2045   64.1917 H   0  0  0  0  0  0  0  0  0  0  0  0
  2  1  1  0
  3  2  1  0
  4  3  1  0
  5  4  1  0
  6  5  1  0
  6  1  1  0
  7  1  1  0
  9  8  2  0
 10  9  1  0
 11 10  2  0
 11  7  1  0
 12 11  1  0
 13 12  2  0
 13  8  1  0
 14  4  1  0
 15 14  1  0
 16 15  1  0
 17 16  2  0
 18 17  1  0
 19 18  2  0
 20 19  1  0
 21 16  1  0
 21 20  2  0
 22 21  1  0
 23 22  2  0
 24 23  1  0
 25 20  1  0
 25 24  2  0
  1 26  1  0
  2 27  1  0
  2 28  1  0
  3 29  1  0
  3 30  1  0
  4 31  1  0
  5 32  1  0
  5 33  1  0
  6 34  1  0
  6 35  1  0
  7 36  1  0
  7 37  1  0
  8 38  1  0
  9 39  1  0
 10 40  1  0
 12 41  1  0
 13 42  1  0
 14 43  1  0
 14 44  1  0
 15 45  1  0
 15 46  1  0
 18 47  1  0
 19 48  1  0
 22 49  1  0
 23 50  1  0
 24 51  1  0
 25 52  1  0
M  CHG  1   1   1
M  END
>  <score>  (8) 
-9.727

$$$$
=
     RDKit          3D

 52 55  0  0  0  0  0  0  0  0999 V2000
    3.6060   62.3350   70.4990 N   0  0  0  0  0  4  0  0  0  0  0  0
    4.7950   62.1570   71.4160 C   0  0  0  0  0  0  0  0  0  0  0  0
    5.3740   60.7480   71.3140 C   0  0  0  0  0  0  0  0  0  0  0  0
    4.3170   59.6500   71.1240 C   0  0  0  0  0  0  0  0  0  0  0  0
    3.4350   59.9660   69.8950 C   0  0  0  0  0  0  0  0  0  0  0  0
    3.6120   61.3750   69.3430 C   0  0  0  0  0  0  0  0  0  0  0  0
    3.4060   63.7680   70.0620 C   0  0  0  0  0  0  0  0  0  0  0  0
   -0.1980   65.5060   71.6590 C   0  0  0  0  0  0  0  0  0  0  0  0
    0.4550   66.1190   70.5920 C   0  0  0  0  0  0  0  0  0  0  0  0
    1.6170   65.5520   70.0640 C   0  0  0  0  0  0  0  0  0  0  0  0
    2.1340   64.3640   70.6020 C   0  0  0  0  0  0  0  0  0  0  0  0
    1.4640   63.7540   71.6760 C   0  0  0  0  0  0  0  0  0  0  0  0
    0.3040   64.3250   72.2000 C   0  0  0  0  0  0  0  0  0  0  0  0
    3.5020   59.4410   72.4260 C   0  0  0  0  0  0  0  0  0  0  0  0
    2.0470   59.9370   72.3570 C   0  0  0  0  0  0  0  0  0  0  0  0
    1.0750   59.1310   73.1810 C   0  0  0  0  0  0  0  0  0  0  0  0
    1.5250   57.8970   73.5300 N   0  0  0  0  0  0  0  0  0  0  0  0
    0.7170   57.1220   74.2790 C   0  0  0  0  0  0  0  0  0  0  0  0
   -0.5560   57.4950   74.6660 C   0  0  0  0  0  0  0  0  0  0  0  0
   -1.0390   58.7470   74.2790 C   0  0  0  0  0  0  0  0  0  0  0  0
   -0.2150   59.6100   73.5210 C   0  0  0  0  0  0  0  0  0  0  0  0
   -0.7350   60.8770   73.1600 C   0  0  0  0  0  0  0  0  0  0  0  0
   -2.0230   61.2680   73.5330 C   0  0  0  0  0  0  0  0  0  0  0  0
   -2.8200   60.4070   74.2740 C   0  0  0  0  0  0  0  0  0  0  0  0
   -2.3310   59.1550   74.6470 C   0  0  0  0  0  0  0  0  0  0  0  0
    2.7804   62.0947   71.0661 H   0  0  0  0  0  0  0  0  0  0  0  0
    5.5725   62.8839   71.1384 H   0  0  0  0  0  0  0  0  0  0  0  0
    4.4598   62.3184   72.4512 H   0  0  0  0  0  0  0  0  0  0  0  0
    6.0618   60.7180   70.4561 H   0  0  0  0  0  0  0  0  0  0  0  0
    5.8788   60.5416   72.2693 H   0  0  0  0  0  0  0  0  0  0  0  0
    4.8158   58.6914   70.9183 H   0  0  0  0  0  0  0  0  0  0  0  0
    3.6847   59.2498   69.0983 H   0  0  0  0  0  0  0  0  0  0  0  0
    2.3897   59.8868   70.2282 H   0  0  0  0  0  0  0  0  0  0  0  0
    4.5683   61.4467   68.8041 H   0  0  0  0  0  0  0  0  0  0  0  0
    2.7968   61.6153   68.6447 H   0  0  0  0  0  0  0  0  0  0  0  0
    4.2560   64.3676   70.4198 H   0  0  0  0  0  0  0  0  0  0  0  0
    3.3385   63.7759   68.9641 H   0  0  0  0  0  0  0  0  0  0  0  0
   -1.1117   65.9556   72.0749 H   0  0  0  0  0  0  0  0  0  0  0  0
    0.0550   67.0505   70.1649 H   0  0  0  0  0  0  0  0  0  0  0  0
    2.1296   66.0396   69.2217 H   0  0  0  0  0  0  0  0  0  0  0  0
    1.8565   62.8207   72.1061 H   0  0  0  0  0  0  0  0  0  0  0  0
   -0.2146   63.8420   73.0413 H   0  0  0  0  0  0  0  0  0  0  0  0
    3.4873   58.3647   72.6526 H   0  0  0  0  0  0  0  0  0  0  0  0
    3.9988   60.0388   73.2043 H   0  0  0  0  0  0  0  0  0  0  0  0
    2.0207   60.9772   72.7138 H   0  0  0  0  0  0  0  0  0  0  0  0
    1.7298   59.8354   71.3086 H   0  0  0  0  0  0  0  0  0  0  0  0
    1.0909   56.1386   74.6001 H   0  0  0  0  0  0  0  0  0  0  0  0
   -1.1784   56.8173   75.2687 H   0  0  0  0  0  0  0  0  0  0  0  0
   -0.1113   61.5677   72.5735 H   0  0  0  0  0  0  0  0  0  0  0  0
   -2.4050   62.2570   73.2398 H   0  0  0  0  0  0  0  0  0  0  0  0
   -3.8357   60.7113   74.5668 H   0  0  0  0  0  0  0  0  0  0  0  0
   -2.9662   58.4783   75.2374 H   0  0  0  0  0  0  0  0  0  0  0  0
  2  1  1  0
  3  2  1  0
  4  3  1  0
  5  4  1  0
  6  5  1  0
  6  1  1  0
  7  1  1  0
  9  8  2  0
 10  9  1  0
 11 10  2  0
 11  7  1  0
 12 11  1  0
 13 12  2  0
 13  8  1  0
 14  4  1  0
 15 14  1  0
 16 15  1  0
 17 16  2  0
 18 17  1  0
 19 18  2  0
 20 19  1  0
 21 16  1  0
 21 20  2  0
 22 21  1  0
 23 22  2  0
 24 23  1  0
 25 20  1  0
 25 24  2  0
  1 26  1  0
  2 27  1  0
  2 28  1  0
  3 29  1  0
  3 30  1  0
  4 31  1  0
  5 32  1  0
  5 33  1  0
  6 34  1  0
  6 35  1  0
  7 36  1  0
  7 37  1  0
  8 38  1  0
  9 39  1  0
 10 40  1  0
 12 41  1  0
 13 42  1  0
 14 43  1  0
 14 44  1  0
 15 45  1  0
 15 46  1  0
 18 47  1  0
 19 48  1  0
 22 49  1  0
 23 50  1  0
 24 51  1  0
 25 52  1  0
M  CHG  1   1   1
M  END
>  <score>  (9) 
-9.535

$$$$
