=
     RDKit          3D

 54 57  0  0  0  0  0  0  0  0999 V2000
   -0.0160   64.9340   72.8470 O   0  0  0  0  0  0  0  0  0  0  0  0
    0.0360   64.0470   72.0040 C   0  0  0  0  0  0  0  0  0  0  0  0
    0.1350   64.3200   70.6480 N   0  0  0  0  0  0  0  0  0  0  0  0
    0.0390   62.6130   72.4010 C   0  0  0  0  0  0  0  0  0  0  0  0
   -1.1110   61.9730   72.8780 C   0  0  0  0  0  0  0  0  0  0  0  0
   -1.0520   60.6280   73.2510 C   0  0  0  0  0  0  0  0  0  0  0  0
    0.1490   59.9190   73.1640 C   0  0  0  0  0  0  0  0  0  0  0  0
    1.2910   60.5470   72.6500 C   0  0  0  0  0  0  0  0  0  0  0  0
    1.2400   61.9010   72.3030 C   0  0  0  0  0  0  0  0  0  0  0  0
    2.5100   59.9500   72.4540 O   0  0  0  0  0  0  0  0  0  0  0  0
    2.4210   58.5810   72.0550 C   0  0  0  0  0  0  0  0  0  0  0  0
    2.2930   57.6630   73.2580 C   0  0  0  0  0  0  0  0  0  0  0  0
    1.2780   58.1830   74.2610 C   0  0  0  0  0  0  0  0  0  0  0  0
    0.0850   58.6220   73.6050 O   0  0  0  0  0  0  0  0  0  0  0  0
    0.2620   65.6980   70.1970 C   0  0  0  0  0  0  0  0  0  0  0  0
    1.7280   66.0900   70.0200 C   0  0  0  0  0  0  0  0  0  0  0  0
    1.8550   67.5350   69.5580 C   0  0  0  0  0  0  0  0  0  0  0  0
    1.0740   67.7390   68.2820 N   0  0  0  0  0  4  0  0  0  0  0  0
   -0.3810   67.3680   68.4350 C   0  0  0  0  0  0  0  0  0  0  0  0
   -0.4950   65.9230   68.8830 C   0  0  0  0  0  0  0  0  0  0  0  0
    1.2200   69.1460   67.7280 C   0  0  0  0  0  0  0  0  0  0  0  0
    2.6070   69.4380   67.2250 C   0  0  0  0  0  0  0  0  0  0  0  0
    3.5650   70.0200   68.0700 C   0  0  0  0  0  0  0  0  0  0  0  0
    4.8590   70.2640   67.6090 C   0  0  0  0  0  0  0  0  0  0  0  0
    5.2080   69.9320   66.3010 C   0  0  0  0  0  0  0  0  0  0  0  0
    4.2650   69.3610   65.4510 C   0  0  0  0  0  0  0  0  0  0  0  0
    2.9690   69.1140   65.9080 C   0  0  0  0  0  0  0  0  0  0  0  0
    0.1187   63.5510   69.9630 H   0  0  0  0  0  0  0  0  0  0  0  0
   -2.0578   62.5272   72.9588 H   0  0  0  0  0  0  0  0  0  0  0  0
   -1.9584   60.1229   73.6162 H   0  0  0  0  0  0  0  0  0  0  0  0
    2.1496   62.4095   71.9508 H   0  0  0  0  0  0  0  0  0  0  0  0
    1.5389   58.4522   71.4105 H   0  0  0  0  0  0  0  0  0  0  0  0
    3.3409   58.3168   71.5129 H   0  0  0  0  0  0  0  0  0  0  0  0
    1.9753   56.6677   72.9138 H   0  0  0  0  0  0  0  0  0  0  0  0
    3.2722   57.6158   73.7568 H   0  0  0  0  0  0  0  0  0  0  0  0
    1.0248   57.3778   74.9664 H   0  0  0  0  0  0  0  0  0  0  0  0
    1.7192   59.0384   74.7935 H   0  0  0  0  0  0  0  0  0  0  0  0
   -0.1823   66.3358   70.9753 H   0  0  0  0  0  0  0  0  0  0  0  0
    2.2502   65.9725   70.9810 H   0  0  0  0  0  0  0  0  0  0  0  0
    2.1752   65.4374   69.2557 H   0  0  0  0  0  0  0  0  0  0  0  0
    1.4601   68.2029   70.3377 H   0  0  0  0  0  0  0  0  0  0  0  0
    2.9150   67.7635   69.3733 H   0  0  0  0  0  0  0  0  0  0  0  0
    1.4886   67.0943   67.5940 H   0  0  0  0  0  0  0  0  0  0  0  0
   -0.8482   68.0218   69.1862 H   0  0  0  0  0  0  0  0  0  0  0  0
   -0.8924   67.4917   67.4690 H   0  0  0  0  0  0  0  0  0  0  0  0
   -1.5562   65.6742   69.0312 H   0  0  0  0  0  0  0  0  0  0  0  0
   -0.0547   65.2783   68.1081 H   0  0  0  0  0  0  0  0  0  0  0  0
    0.5117   69.2703   66.8956 H   0  0  0  0  0  0  0  0  0  0  0  0
    1.0137   69.8467   68.5504 H   0  0  0  0  0  0  0  0  0  0  0  0
    3.2937   70.2854   69.1024 H   0  0  0  0  0  0  0  0  0  0  0  0
    5.6043   70.7187   68.2782 H   0  0  0  0  0  0  0  0  0  0  0  0
    6.2297   70.1214   65.9401 H   0  0  0  0  0  0  0  0  0  0  0  0
    4.5413   69.1040   64.4177 H   0  0  0  0  0  0  0  0  0  0  0  0
    2.2275   68.6630   65.2322 H   0  0  0  0  0  0  0  0  0  0  0  0
  2  1  2  0
  3  2  1  0
  4  2  1  0
  5  4  2  0
  6  5  1  0
  7  6  2  0
  8  7  1  0
  9  8  2  0
  9  4  1  0
 10  8  1  0
 11 10  1  0
 12 11  1  0
 13 12  1  0
 14 13  1  0
 14  7  1  0
 15  3  1  0
 16 15  1  0
 17 16  1  0
 18 17  1  0
 19 18  1  0
 20 19  1  0
 20 15  1  0
 21 18  1  0
 22 21  1  0
 23 22  2  0
 24 23  1  0
 25 24  2  0
 26 25  1  0
 27 26  2  0
 27 22  1  0
  3 28  1  0
  5 29  1  0
  6 30  1  0
  9 31  1  0
 11 32  1  0
 11 33  1  0
 12 34  1  0
 12 35  1  0
 13 36  1  0
 13 37  1  0
 15 38  1  0
 16 39  1  0
 16 40  1  0
 17 41  1  0
 17 42  1  0
 18 43  1  0
 19 44  1  0
 19 45  1  0
 20 46  1  0
 20 47  1  0
 21 48  1  0
 21 49  1  0
 23 50  1  0
 24 51  1  0
 25 52  1  0
 26 53  1  0
 27 54  1  0
M  CHG  1  18   1
M  END
>  <score>  (1) 
-9.549

$$$$
=
     RDKit          3D

 54 57  0  0  0  0  0  0  0  0999 V2000
   -0.1230   66.4550   71.0150 O   0  0  0  0  0  0  0  0  0  0  0  0
    0.4140   65.9930   70.0150 C   0  0  0  0  0  0  0  0  0  0  0  0
    1.1340   64.8100   70.0420 N   0  0  0  0  0  0  0  0  0  0  0  0
    0.2790   66.6670   68.6950 C   0  0  0  0  0  0  0  0  0  0  0  0
   -0.9690   66.9980   68.1550 C   0  0  0  0  0  0  0  0  0  0  0  0
   -1.0420   67.6190   66.9060 C   0  0  0  0  0  0  0  0  0  0  0  0
    0.1210   67.9010   66.1840 C   0  0  0  0  0  0  0  0  0  0  0  0
    1.3730   67.6050   66.7400 C   0  0  0  0  0  0  0  0  0  0  0  0
    1.4450   66.9590   67.9780 C   0  0  0  0  0  0  0  0  0  0  0  0
    2.5870   67.8860   66.1670 O   0  0  0  0  0  0  0  0  0  0  0  0
    2.6010   69.1040   65.4210 C   0  0  0  0  0  0  0  0  0  0  0  0
    2.1100   68.8860   64.0000 C   0  0  0  0  0  0  0  0  0  0  0  0
    0.8500   68.0390   63.9620 C   0  0  0  0  0  0  0  0  0  0  0  0
   -0.0880   68.4660   64.9520 O   0  0  0  0  0  0  0  0  0  0  0  0
    1.2030   64.0340   71.2710 C   0  0  0  0  0  0  0  0  0  0  0  0
    0.0210   63.0730   71.3870 C   0  0  0  0  0  0  0  0  0  0  0  0
    0.0920   62.2720   72.6790 C   0  0  0  0  0  0  0  0  0  0  0  0
    1.4080   61.5360   72.7580 N   0  0  0  0  0  4  0  0  0  0  0  0
    2.5920   62.4660   72.6570 C   0  0  0  0  0  0  0  0  0  0  0  0
    2.5170   63.2490   71.3600 C   0  0  0  0  0  0  0  0  0  0  0  0
    1.5120   60.6580   73.9930 C   0  0  0  0  0  0  0  0  0  0  0  0
    1.0800   59.2390   73.7440 C   0  0  0  0  0  0  0  0  0  0  0  0
    1.9160   58.3490   73.0530 C   0  0  0  0  0  0  0  0  0  0  0  0
    1.5240   57.0250   72.8480 C   0  0  0  0  0  0  0  0  0  0  0  0
    0.2940   56.5790   73.3270 C   0  0  0  0  0  0  0  0  0  0  0  0
   -0.5470   57.4550   74.0080 C   0  0  0  0  0  0  0  0  0  0  0  0
   -0.1600   58.7790   74.2160 C   0  0  0  0  0  0  0  0  0  0  0  0
    1.6189   64.4807   69.1950 H   0  0  0  0  0  0  0  0  0  0  0  0
   -1.8895   66.7698   68.7124 H   0  0  0  0  0  0  0  0  0  0  0  0
   -2.0229   67.8883   66.4872 H   0  0  0  0  0  0  0  0  0  0  0  0
    2.4250   66.6783   68.3913 H   0  0  0  0  0  0  0  0  0  0  0  0
    1.9473   69.8361   65.9177 H   0  0  0  0  0  0  0  0  0  0  0  0
    3.6363   69.4732   65.3781 H   0  0  0  0  0  0  0  0  0  0  0  0
    1.8957   69.8636   63.5435 H   0  0  0  0  0  0  0  0  0  0  0  0
    2.8964   68.3539   63.4445 H   0  0  0  0  0  0  0  0  0  0  0  0
    0.3878   68.1272   62.9677 H   0  0  0  0  0  0  0  0  0  0  0  0
    1.1253   66.9944   64.1696 H   0  0  0  0  0  0  0  0  0  0  0  0
    1.1608   64.7484   72.1064 H   0  0  0  0  0  0  0  0  0  0  0  0
   -0.9148   63.6510   71.3734 H   0  0  0  0  0  0  0  0  0  0  0  0
    0.0549   62.3730   70.5392 H   0  0  0  0  0  0  0  0  0  0  0  0
    0.0046   62.9553   73.5366 H   0  0  0  0  0  0  0  0  0  0  0  0
   -0.7314   61.5429   72.6978 H   0  0  0  0  0  0  0  0  0  0  0  0
    1.4298   60.9141   71.9372 H   0  0  0  0  0  0  0  0  0  0  0  0
    2.5822   63.1643   73.5069 H   0  0  0  0  0  0  0  0  0  0  0  0
    3.5208   61.8769   72.6741 H   0  0  0  0  0  0  0  0  0  0  0  0
    3.3610   63.9530   71.3148 H   0  0  0  0  0  0  0  0  0  0  0  0
    2.5618   62.5415   70.5189 H   0  0  0  0  0  0  0  0  0  0  0  0
    2.5587   60.6514   74.3311 H   0  0  0  0  0  0  0  0  0  0  0  0
    0.8372   61.0785   74.7532 H   0  0  0  0  0  0  0  0  0  0  0  0
    2.8868   58.6969   72.6702 H   0  0  0  0  0  0  0  0  0  0  0  0
    2.1869   56.3331   72.3077 H   0  0  0  0  0  0  0  0  0  0  0  0
   -0.0126   55.5348   73.1671 H   0  0  0  0  0  0  0  0  0  0  0  0
   -1.5191   57.1022   74.3830 H   0  0  0  0  0  0  0  0  0  0  0  0
   -0.8300   59.4667   74.7528 H   0  0  0  0  0  0  0  0  0  0  0  0
  2  1  2  0
  3  2  1  0
  4  2  1  0
  5  4  2  0
  6  5  1  0
  7  6  2  0
  8  7  1  0
  9  8  2  0
  9  4  1  0
 10  8  1  0
 11 10  1  0
 12 11  1  0
 13 12  1  0
 14 13  1  0
 14  7  1  0
 15  3  1  0
 16 15  1  0
 17 16  1  0
 18 17  1  0
 19 18  1  0
 20 19  1  0
 20 15  1  0
 21 18  1  0
 22 21  1  0
 23 22  2  0
 24 23  1  0
 25 24  2  0
 26 25  1  0
 27 26  2  0
 27 22  1  0
  3 28  1  0
  5 29  1  0
  6 30  1  0
  9 31  1  0
 11 32  1  0
 11 33  1  0
 12 34  1  0
 12 35  1  0
 13 36  1  0
 13 37  1  0
 15 38  1  0
 16 39  1  0
 16 40  1  0
 17 41  1  0
 17 42  1  0
 18 43  1  0
 19 44  1  0
 19 45  1  0
 20 46  1  0
 20 47  1  0
 21 48  1  0
 21 49  1  0
 23 50  1  0
 24 51  1  0
 25 52  1  0
 26 53  1  0
 27 54  1  0
M  CHG  1  18   1
M  END
>  <score>  (2) 
-9.133

$$$$
=
     RDKit          3D

 54 57  0  0  0  0  0  0  0  0999 V2000
    3.1330   61.3310   73.0190 O   0  0  0  0  0  0  0  0  0  0  0  0
    2.0400   60.8640   72.7230 C   0  0  0  0  0  0  0  0  0  0  0  0
    1.0510   61.6230   72.1160 N   0  0  0  0  0  0  0  0  0  0  0  0
    1.7310   59.4280   72.9640 C   0  0  0  0  0  0  0  0  0  0  0  0
    2.3590   58.4040   72.2470 C   0  0  0  0  0  0  0  0  0  0  0  0
    2.0250   57.0720   72.5010 C   0  0  0  0  0  0  0  0  0  0  0  0
    1.0570   56.7540   73.4590 C   0  0  0  0  0  0  0  0  0  0  0  0
    0.4550   57.7760   74.2050 C   0  0  0  0  0  0  0  0  0  0  0  0
    0.7700   59.1110   73.9310 C   0  0  0  0  0  0  0  0  0  0  0  0
   -0.4580   57.5960   75.2120 O   0  0  0  0  0  0  0  0  0  0  0  0
   -0.2280   56.4210   75.9920 C   0  0  0  0  0  0  0  0  0  0  0  0
   -0.8670   55.2010   75.3510 C   0  0  0  0  0  0  0  0  0  0  0  0
   -0.5880   55.1350   73.8590 C   0  0  0  0  0  0  0  0  0  0  0  0
    0.7850   55.4150   73.5790 O   0  0  0  0  0  0  0  0  0  0  0  0
    1.3280   63.0010   71.7390 C   0  0  0  0  0  0  0  0  0  0  0  0
    1.9630   63.0790   70.3520 C   0  0  0  0  0  0  0  0  0  0  0  0
    2.2600   64.5210   69.9670 C   0  0  0  0  0  0  0  0  0  0  0  0
    0.9970   65.3450   70.0400 N   0  0  0  0  0  4  0  0  0  0  0  0
    0.3570   65.2930   71.4050 C   0  0  0  0  0  0  0  0  0  0  0  0
    0.0540   63.8520   71.7720 C   0  0  0  0  0  0  0  0  0  0  0  0
    1.2120   66.7820   69.5960 C   0  0  0  0  0  0  0  0  0  0  0  0
    0.2530   67.2150   68.5230 C   0  0  0  0  0  0  0  0  0  0  0  0
   -1.0290   66.6480   68.4380 C   0  0  0  0  0  0  0  0  0  0  0  0
   -1.9260   67.0730   67.4580 C   0  0  0  0  0  0  0  0  0  0  0  0
   -1.5540   68.0650   66.5530 C   0  0  0  0  0  0  0  0  0  0  0  0
   -0.2830   68.6300   66.6220 C   0  0  0  0  0  0  0  0  0  0  0  0
    0.6180   68.2090   67.6010 C   0  0  0  0  0  0  0  0  0  0  0  0
    0.1240   61.2131   71.9327 H   0  0  0  0  0  0  0  0  0  0  0  0
    3.1141   58.6474   71.4850 H   0  0  0  0  0  0  0  0  0  0  0  0
    2.5268   56.2673   71.9437 H   0  0  0  0  0  0  0  0  0  0  0  0
    0.2593   59.9167   74.4788 H   0  0  0  0  0  0  0  0  0  0  0  0
    0.8559   56.2544   76.0784 H   0  0  0  0  0  0  0  0  0  0  0  0
   -0.6786   56.5686   76.9845 H   0  0  0  0  0  0  0  0  0  0  0  0
   -0.4640   54.2958   75.8288 H   0  0  0  0  0  0  0  0  0  0  0  0
   -1.9556   55.2719   75.4920 H   0  0  0  0  0  0  0  0  0  0  0  0
   -0.8309   54.1267   73.4924 H   0  0  0  0  0  0  0  0  0  0  0  0
   -1.2083   55.8901   73.3541 H   0  0  0  0  0  0  0  0  0  0  0  0
    2.0398   63.4010   72.4761 H   0  0  0  0  0  0  0  0  0  0  0  0
    2.9024   62.5067   70.3540 H   0  0  0  0  0  0  0  0  0  0  0  0
    1.2571   62.6597   69.6199 H   0  0  0  0  0  0  0  0  0  0  0  0
    3.0068   64.9366   70.6595 H   0  0  0  0  0  0  0  0  0  0  0  0
    2.6497   64.5475   68.9387 H   0  0  0  0  0  0  0  0  0  0  0  0
    0.3422   64.9127   69.3727 H   0  0  0  0  0  0  0  0  0  0  0  0
    1.0447   65.7230   72.1481 H   0  0  0  0  0  0  0  0  0  0  0  0
   -0.5791   65.8705   71.3912 H   0  0  0  0  0  0  0  0  0  0  0  0
   -0.3743   63.8205   72.7847 H   0  0  0  0  0  0  0  0  0  0  0  0
   -0.6600   63.4452   71.0407 H   0  0  0  0  0  0  0  0  0  0  0  0
    1.0838   67.4410   70.4674 H   0  0  0  0  0  0  0  0  0  0  0  0
    2.2267   66.8484   69.1766 H   0  0  0  0  0  0  0  0  0  0  0  0
   -1.3277   65.8636   69.1489 H   0  0  0  0  0  0  0  0  0  0  0  0
   -2.9286   66.6243   67.3995 H   0  0  0  0  0  0  0  0  0  0  0  0
   -2.2645   68.4020   65.7838 H   0  0  0  0  0  0  0  0  0  0  0  0
    0.0112   69.4094   65.9037 H   0  0  0  0  0  0  0  0  0  0  0  0
    1.6206   68.6588   67.6507 H   0  0  0  0  0  0  0  0  0  0  0  0
  2  1  2  0
  3  2  1  0
  4  2  1  0
  5  4  2  0
  6  5  1  0
  7  6  2  0
  8  7  1  0
  9  8  2  0
  9  4  1  0
 10  8  1  0
 11 10  1  0
 12 11  1  0
 13 12  1  0
 14 13  1  0
 14  7  1  0
 15  3  1  0
 16 15  1  0
 17 16  1  0
 18 17  1  0
 19 18  1  0
 20 19  1  0
 20 15  1  0
 21 18  1  0
 22 21  1  0
 23 22  2  0
 24 23  1  0
 25 24  2  0
 26 25  1  0
 27 26  2  0
 27 22  1  0
  3 28  1  0
  5 29  1  0
  6 30  1  0
  9 31  1  0
 11 32  1  0
 11 33  1  0
 12 34  1  0
 12 35  1  0
 13 36  1  0
 13 37  1  0
 15 38  1  0
 16 39  1  0
 16 40  1  0
 17 41  1  0
 17 42  1  0
 18 43  1  0
 19 44  1  0
 19 45  1  0
 20 46  1  0
 20 47  1  0
 21 48  1  0
 21 49  1  0
 23 50  1  0
 24 51  1  0
 25 52  1  0
 26 53  1  0
 27 54  1  0
M  CHG  1  18   1
M  END
>  <score>  (3) 
-8.744

$$$$
=
     RDKit          3D

 54 57  0  0  0  0  0  0  0  0999 V2000
   -0.1710   65.3080   72.2560 O   0  0  0  0  0  0  0  0  0  0  0  0
    0.5070   65.1210   71.2520 C   0  0  0  0  0  0  0  0  0  0  0  0
    1.3910   64.0590   71.1440 N   0  0  0  0  0  0  0  0  0  0  0  0
    0.3800   66.0120   70.0670 C   0  0  0  0  0  0  0  0  0  0  0  0
    1.4920   66.6200   69.4750 C   0  0  0  0  0  0  0  0  0  0  0  0
    1.3180   67.4600   68.3710 C   0  0  0  0  0  0  0  0  0  0  0  0
    0.0400   67.7070   67.8620 C   0  0  0  0  0  0  0  0  0  0  0  0
   -1.0700   67.0690   68.4310 C   0  0  0  0  0  0  0  0  0  0  0  0
   -0.9000   66.2510   69.5520 C   0  0  0  0  0  0  0  0  0  0  0  0
   -2.3640   67.1750   67.9890 O   0  0  0  0  0  0  0  0  0  0  0  0
   -2.4790   67.2960   66.5700 C   0  0  0  0  0  0  0  0  0  0  0  0
   -2.3300   68.7420   66.1270 C   0  0  0  0  0  0  0  0  0  0  0  0
   -1.1580   69.4240   66.8110 C   0  0  0  0  0  0  0  0  0  0  0  0
   -0.0010   68.5850   66.8090 O   0  0  0  0  0  0  0  0  0  0  0  0
    1.4750   63.0770   72.2150 C   0  0  0  0  0  0  0  0  0  0  0  0
    0.4950   61.9270   71.9900 C   0  0  0  0  0  0  0  0  0  0  0  0
    0.5790   60.9090   73.1190 C   0  0  0  0  0  0  0  0  0  0  0  0
    1.9970   60.4050   73.2540 N   0  0  0  0  0  4  0  0  0  0  0  0
    2.9820   61.5230   73.4880 C   0  0  0  0  0  0  0  0  0  0  0  0
    2.8980   62.5240   72.3510 C   0  0  0  0  0  0  0  0  0  0  0  0
    2.1340   59.3290   74.3180 C   0  0  0  0  0  0  0  0  0  0  0  0
    1.0820   58.2600   74.2110 C   0  0  0  0  0  0  0  0  0  0  0  0
    1.1910   57.2430   73.2500 C   0  0  0  0  0  0  0  0  0  0  0  0
    0.2270   56.2370   73.1720 C   0  0  0  0  0  0  0  0  0  0  0  0
   -0.8540   56.2370   74.0500 C   0  0  0  0  0  0  0  0  0  0  0  0
   -0.9780   57.2450   75.0040 C   0  0  0  0  0  0  0  0  0  0  0  0
   -0.0160   58.2530   75.0860 C   0  0  0  0  0  0  0  0  0  0  0  0
    1.9864   63.9650   70.3088 H   0  0  0  0  0  0  0  0  0  0  0  0
    2.4997   66.4379   69.8766 H   0  0  0  0  0  0  0  0  0  0  0  0
    2.1936   67.9301   67.8994 H   0  0  0  0  0  0  0  0  0  0  0  0
   -1.7770   65.7924   70.0323 H   0  0  0  0  0  0  0  0  0  0  0  0
   -1.6926   66.6921   66.0937 H   0  0  0  0  0  0  0  0  0  0  0  0
   -3.4761   66.9412   66.2702 H   0  0  0  0  0  0  0  0  0  0  0  0
   -2.1704   68.7663   65.0389 H   0  0  0  0  0  0  0  0  0  0  0  0
   -3.2481   69.2807   66.4043 H   0  0  0  0  0  0  0  0  0  0  0  0
   -0.9253   70.3579   66.2784 H   0  0  0  0  0  0  0  0  0  0  0  0
   -1.4361   69.6326   67.8546 H   0  0  0  0  0  0  0  0  0  0  0  0
    1.2057   63.5928   73.1485 H   0  0  0  0  0  0  0  0  0  0  0  0
   -0.5276   62.3297   71.9442 H   0  0  0  0  0  0  0  0  0  0  0  0
    0.7545   61.4253   71.0461 H   0  0  0  0  0  0  0  0  0  0  0  0
    0.2696   61.3838   74.0618 H   0  0  0  0  0  0  0  0  0  0  0  0
   -0.0858   60.0623   72.8928 H   0  0  0  0  0  0  0  0  0  0  0  0
    2.2278   59.9716   72.3485 H   0  0  0  0  0  0  0  0  0  0  0  0
    2.7451   62.0265   74.4369 H   0  0  0  0  0  0  0  0  0  0  0  0
    3.9998   61.1084   73.5342 H   0  0  0  0  0  0  0  0  0  0  0  0
    3.5901   63.3553   72.5508 H   0  0  0  0  0  0  0  0  0  0  0  0
    3.1693   62.0159   71.4139 H   0  0  0  0  0  0  0  0  0  0  0  0
    3.1232   58.8589   74.2158 H   0  0  0  0  0  0  0  0  0  0  0  0
    2.0101   59.8160   75.2965 H   0  0  0  0  0  0  0  0  0  0  0  0
    2.0423   57.2388   72.5534 H   0  0  0  0  0  0  0  0  0  0  0  0
    0.3211   55.4433   72.4163 H   0  0  0  0  0  0  0  0  0  0  0  0
   -1.6105   55.4407   73.9903 H   0  0  0  0  0  0  0  0  0  0  0  0
   -1.8352   57.2464   75.6934 H   0  0  0  0  0  0  0  0  0  0  0  0
   -0.1187   59.0467   75.8407 H   0  0  0  0  0  0  0  0  0  0  0  0
  2  1  2  0
  3  2  1  0
  4  2  1  0
  5  4  2  0
  6  5  1  0
  7  6  2  0
  8  7  1  0
  9  8  2  0
  9  4  1  0
 10  8  1  0
 11 10  1  0
 12 11  1  0
 13 12  1  0
 14 13  1  0
 14  7  1  0
 15  3  1  0
 16 15  1  0
 17 16  1  0
 18 17  1  0
 19 18  1  0
 20 19  1  0
 20 15  1  0
 21 18  1  0
 22 21  1  0
 23 22  2  0
 24 23  1  0
 25 24  2  0
 26 25  1  0
 27 26  2  0
 27 22  1  0
  3 28  1  0
  5 29  1  0
  6 30  1  0
  9 31  1  0
 11 32  1  0
 11 33  1  0
 12 34  1  0
 12 35  1  0
 13 36  1  0
 13 37  1  0
 15 38  1  0
 16 39  1  0
 16 40  1  0
 17 41  1  0
 17 42  1  0
 18 43  1  0
 19 44  1  0
 19 45  1  0
 20 46  1  0
 20 47  1  0
 21 48  1  0
 21 49  1  0
 23 50  1  0
 24 51  1  0
 25 52  1  0
 26 53  1  0
 27 54  1  0
M  CHG  1  18   1
M  END
>  <score>  (4) 
-8.178

$$$$
=
     RDKit          3D

 54 57  0  0  0  0  0  0  0  0999 V2000
    1.8540   67.7800   69.7820 O   0  0  0  0  0  0  0  0  0  0  0  0
    1.2700   67.0630   68.9770 C   0  0  0  0  0  0  0  0  0  0  0  0
    0.9870   65.7320   69.2410 N   0  0  0  0  0  0  0  0  0  0  0  0
    0.7920   67.6070   67.6770 C   0  0  0  0  0  0  0  0  0  0  0  0
   -0.4750   68.1820   67.5350 C   0  0  0  0  0  0  0  0  0  0  0  0
   -0.8830   68.6660   66.2890 C   0  0  0  0  0  0  0  0  0  0  0  0
   -0.0380   68.5680   65.1790 C   0  0  0  0  0  0  0  0  0  0  0  0
    1.2460   68.0270   65.3280 C   0  0  0  0  0  0  0  0  0  0  0  0
    1.6430   67.5170   66.5690 C   0  0  0  0  0  0  0  0  0  0  0  0
    2.1910   67.9310   64.3390 O   0  0  0  0  0  0  0  0  0  0  0  0
    2.1680   69.0210   63.4150 C   0  0  0  0  0  0  0  0  0  0  0  0
    1.1530   68.7850   62.3100 C   0  0  0  0  0  0  0  0  0  0  0  0
   -0.1720   68.2840   62.8580 C   0  0  0  0  0  0  0  0  0  0  0  0
   -0.5730   69.0350   64.0050 O   0  0  0  0  0  0  0  0  0  0  0  0
    1.3150   65.1690   70.5420 C   0  0  0  0  0  0  0  0  0  0  0  0
    0.0540   64.8900   71.3590 C   0  0  0  0  0  0  0  0  0  0  0  0
    0.4040   64.3110   72.7220 C   0  0  0  0  0  0  0  0  0  0  0  0
    1.2370   63.0620   72.5540 N   0  0  0  0  0  4  0  0  0  0  0  0
    2.4940   63.3150   71.7590 C   0  0  0  0  0  0  0  0  0  0  0  0
    2.1320   63.8800   70.3980 C   0  0  0  0  0  0  0  0  0  0  0  0
    1.5580   62.3930   73.8790 C   0  0  0  0  0  0  0  0  0  0  0  0
    0.5330   61.3710   74.2860 C   0  0  0  0  0  0  0  0  0  0  0  0
    0.1360   61.2510   75.6270 C   0  0  0  0  0  0  0  0  0  0  0  0
   -0.8370   60.3210   75.9960 C   0  0  0  0  0  0  0  0  0  0  0  0
   -1.4190   59.5010   75.0330 C   0  0  0  0  0  0  0  0  0  0  0  0
   -1.0290   59.6050   73.7000 C   0  0  0  0  0  0  0  0  0  0  0  0
   -0.0570   60.5340   73.3250 C   0  0  0  0  0  0  0  0  0  0  0  0
    0.5464   65.1440   68.5192 H   0  0  0  0  0  0  0  0  0  0  0  0
   -1.1486   68.2531   68.4017 H   0  0  0  0  0  0  0  0  0  0  0  0
   -1.8757   69.1273   66.1806 H   0  0  0  0  0  0  0  0  0  0  0  0
    2.6297   67.0425   66.6747 H   0  0  0  0  0  0  0  0  0  0  0  0
    1.9033   69.9425   63.9542 H   0  0  0  0  0  0  0  0  0  0  0  0
    3.1647   69.1107   62.9582 H   0  0  0  0  0  0  0  0  0  0  0  0
    0.9822   69.7311   61.7755 H   0  0  0  0  0  0  0  0  0  0  0  0
    1.5560   68.0161   61.6344 H   0  0  0  0  0  0  0  0  0  0  0  0
   -0.9422   68.3804   62.0786 H   0  0  0  0  0  0  0  0  0  0  0  0
   -0.0509   67.2318   63.1551 H   0  0  0  0  0  0  0  0  0  0  0  0
    1.9224   65.9160   71.0741 H   0  0  0  0  0  0  0  0  0  0  0  0
   -0.4992   65.8304   71.4990 H   0  0  0  0  0  0  0  0  0  0  0  0
   -0.5611   64.1582   70.8149 H   0  0  0  0  0  0  0  0  0  0  0  0
    0.9743   65.0545   73.2981 H   0  0  0  0  0  0  0  0  0  0  0  0
   -0.5238   64.0573   73.2557 H   0  0  0  0  0  0  0  0  0  0  0  0
    0.6538   62.4069   72.0139 H   0  0  0  0  0  0  0  0  0  0  0  0
    3.1285   64.0348   72.2969 H   0  0  0  0  0  0  0  0  0  0  0  0
    3.0393   62.3687   71.6278 H   0  0  0  0  0  0  0  0  0  0  0  0
    3.0553   64.0988   69.8415 H   0  0  0  0  0  0  0  0  0  0  0  0
    1.5258   63.1374   69.8585 H   0  0  0  0  0  0  0  0  0  0  0  0
    2.5346   61.8943   73.7921 H   0  0  0  0  0  0  0  0  0  0  0  0
    1.5640   63.1774   74.6501 H   0  0  0  0  0  0  0  0  0  0  0  0
    0.5949   61.8943   76.3922 H   0  0  0  0  0  0  0  0  0  0  0  0
   -1.1444   60.2358   77.0487 H   0  0  0  0  0  0  0  0  0  0  0  0
   -2.1876   58.7703   75.3252 H   0  0  0  0  0  0  0  0  0  0  0  0
   -1.4878   58.9539   72.9413 H   0  0  0  0  0  0  0  0  0  0  0  0
    0.2485   60.6109   72.2711 H   0  0  0  0  0  0  0  0  0  0  0  0
  2  1  2  0
  3  2  1  0
  4  2  1  0
  5  4  2  0
  6  5  1  0
  7  6  2  0
  8  7  1  0
  9  8  2  0
  9  4  1  0
 10  8  1  0
 11 10  1  0
 12 11  1  0
 13 12  1  0
 14 13  1  0
 14  7  1  0
 15  3  1  0
 16 15  1  0
 17 16  1  0
 18 17  1  0
 19 18  1  0
 20 19  1  0
 20 15  1  0
 21 18  1  0
 22 21  1  0
 23 22  2  0
 24 23  1  0
 25 24  2  0
 26 25  1  0
 27 26  2  0
 27 22  1  0
  3 28  1  0
  5 29  1  0
  6 30  1  0
  9 31  1  0
 11 32  1  0
 11 33  1  0
 12 34  1  0
 12 35  1  0
 13 36  1  0
 13 37  1  0
 15 38  1  0
 16 39  1  0
 16 40  1  0
 17 41  1  0
 17 42  1  0
 18 43  1  0
 19 44  1  0
 19 45  1  0
 20 46  1  0
 20 47  1  0
 21 48  1  0
 21 49  1  0
 23 50  1  0
 24 51  1  0
 25 52  1  0
 26 53  1  0
 27 54  1  0
M  CHG  1  18   1
M  END
>  <score>  (5) 
-8.174

$$$$
=
     RDKit          3D

 54 57  0  0  0  0  0  0  0  0999 V2000
   -0.2250   57.9600   74.0270 O   0  0  0  0  0  0  0  0  0  0  0  0
    0.3600   56.9030   73.8190 C   0  0  0  0  0  0  0  0  0  0  0  0
    1.5670   56.8470   73.1400 N   0  0  0  0  0  0  0  0  0  0  0  0
   -0.1830   55.6160   74.3320 C   0  0  0  0  0  0  0  0  0  0  0  0
    0.4790   54.4000   74.1310 C   0  0  0  0  0  0  0  0  0  0  0  0
   -0.0800   53.2160   74.6210 C   0  0  0  0  0  0  0  0  0  0  0  0
   -1.3010   53.2360   75.3000 C   0  0  0  0  0  0  0  0  0  0  0  0
   -1.9460   54.4570   75.5350 C   0  0  0  0  0  0  0  0  0  0  0  0
   -1.4020   55.6380   75.0210 C   0  0  0  0  0  0  0  0  0  0  0  0
   -3.1120   54.6210   76.2400 O   0  0  0  0  0  0  0  0  0  0  0  0
   -3.2530   53.7160   77.3360 C   0  0  0  0  0  0  0  0  0  0  0  0
   -3.8460   52.3920   76.8840 C   0  0  0  0  0  0  0  0  0  0  0  0
   -3.1870   51.8810   75.6150 C   0  0  0  0  0  0  0  0  0  0  0  0
   -1.7650   52.0040   75.6880 O   0  0  0  0  0  0  0  0  0  0  0  0
    2.2170   58.0790   72.7190 C   0  0  0  0  0  0  0  0  0  0  0  0
    3.2110   58.5670   73.7710 C   0  0  0  0  0  0  0  0  0  0  0  0
    3.8800   59.8620   73.3300 C   0  0  0  0  0  0  0  0  0  0  0  0
    4.5490   59.6670   71.9900 N   0  0  0  0  0  4  0  0  0  0  0  0
    3.5830   59.1940   70.9320 C   0  0  0  0  0  0  0  0  0  0  0  0
    2.9330   57.8980   71.3760 C   0  0  0  0  0  0  0  0  0  0  0  0
    5.2980   60.9040   71.5280 C   0  0  0  0  0  0  0  0  0  0  0  0
    4.4070   61.9180   70.8660 C   0  0  0  0  0  0  0  0  0  0  0  0
    4.3870   62.0490   69.4680 C   0  0  0  0  0  0  0  0  0  0  0  0
    3.5370   62.9710   68.8560 C   0  0  0  0  0  0  0  0  0  0  0  0
    2.7030   63.7720   69.6320 C   0  0  0  0  0  0  0  0  0  0  0  0
    2.7180   63.6570   71.0200 C   0  0  0  0  0  0  0  0  0  0  0  0
    3.5650   62.7360   71.6360 C   0  0  0  0  0  0  0  0  0  0  0  0
    2.0024   55.9365   72.9341 H   0  0  0  0  0  0  0  0  0  0  0  0
    1.4360   54.3756   73.5893 H   0  0  0  0  0  0  0  0  0  0  0  0
    0.4454   52.2613   74.4708 H   0  0  0  0  0  0  0  0  0  0  0  0
   -1.9349   56.5904   75.1587 H   0  0  0  0  0  0  0  0  0  0  0  0
   -2.2631   53.5328   77.7794 H   0  0  0  0  0  0  0  0  0  0  0  0
   -3.9320   54.1672   78.0745 H   0  0  0  0  0  0  0  0  0  0  0  0
   -3.7054   51.6483   77.6822 H   0  0  0  0  0  0  0  0  0  0  0  0
   -4.9140   52.5505   76.6738 H   0  0  0  0  0  0  0  0  0  0  0  0
   -3.4493   50.8219   75.4755 H   0  0  0  0  0  0  0  0  0  0  0  0
   -3.5466   52.4833   74.7677 H   0  0  0  0  0  0  0  0  0  0  0  0
    1.4286   58.8368   72.5994 H   0  0  0  0  0  0  0  0  0  0  0  0
    2.6771   58.7418   74.7167 H   0  0  0  0  0  0  0  0  0  0  0  0
    3.9871   57.7988   73.9031 H   0  0  0  0  0  0  0  0  0  0  0  0
    3.1212   60.6540   73.2466 H   0  0  0  0  0  0  0  0  0  0  0  0
    4.6379   60.1486   74.0739 H   0  0  0  0  0  0  0  0  0  0  0  0
    5.2462   58.9218   72.1299 H   0  0  0  0  0  0  0  0  0  0  0  0
    2.8069   59.9581   70.7776 H   0  0  0  0  0  0  0  0  0  0  0  0
    4.1273   59.0249   69.9912 H   0  0  0  0  0  0  0  0  0  0  0  0
    2.2015   57.5832   70.6171 H   0  0  0  0  0  0  0  0  0  0  0  0
    3.7156   57.1341   71.4944 H   0  0  0  0  0  0  0  0  0  0  0  0
    5.7732   61.3728   72.4023 H   0  0  0  0  0  0  0  0  0  0  0  0
    6.0387   60.5803   70.7819 H   0  0  0  0  0  0  0  0  0  0  0  0
    5.0460   61.4204   68.8511 H   0  0  0  0  0  0  0  0  0  0  0  0
    3.5257   63.0652   67.7601 H   0  0  0  0  0  0  0  0  0  0  0  0
    2.0315   64.4965   69.1481 H   0  0  0  0  0  0  0  0  0  0  0  0
    2.0610   64.2934   71.6311 H   0  0  0  0  0  0  0  0  0  0  0  0
    3.5734   62.6499   72.7326 H   0  0  0  0  0  0  0  0  0  0  0  0
  2  1  2  0
  3  2  1  0
  4  2  1  0
  5  4  2  0
  6  5  1  0
  7  6  2  0
  8  7  1  0
  9  8  2  0
  9  4  1  0
 10  8  1  0
 11 10  1  0
 12 11  1  0
 13 12  1  0
 14 13  1  0
 14  7  1  0
 15  3  1  0
 16 15  1  0
 17 16  1  0
 18 17  1  0
 19 18  1  0
 20 19  1  0
 20 15  1  0
 21 18  1  0
 22 21  1  0
 23 22  2  0
 24 23  1  0
 25 24  2  0
 26 25  1  0
 27 26  2  0
 27 22  1  0
  3 28  1  0
  5 29  1  0
  6 30  1  0
  9 31  1  0
 11 32  1  0
 11 33  1  0
 12 34  1  0
 12 35  1  0
 13 36  1  0
 13 37  1  0
 15 38  1  0
 16 39  1  0
 16 40  1  0
 17 41  1  0
 17 42  1  0
 18 43  1  0
 19 44  1  0
 19 45  1  0
 20 46  1  0
 20 47  1  0
 21 48  1  0
 21 49  1  0
 23 50  1  0
 24 51  1  0
 25 52  1  0
 26 53  1  0
 27 54  1  0
M  CHG  1  18   1
M  END
>  <score>  (6) 
-7.862

$$$$
=
     RDKit          3D

 54 57  0  0  0  0  0  0  0  0999 V2000
   -2.3890   62.3600   75.4950 O   0  0  0  0  0  0  0  0  0  0  0  0
   -3.0030   61.5400   74.8220 C   0  0  0  0  0  0  0  0  0  0  0  0
   -2.3720   60.7200   73.8990 N   0  0  0  0  0  0  0  0  0  0  0  0
   -4.4690   61.3510   74.9960 C   0  0  0  0  0  0  0  0  0  0  0  0
   -5.1080   60.1530   74.6580 C   0  0  0  0  0  0  0  0  0  0  0  0
   -6.4890   60.0310   74.8280 C   0  0  0  0  0  0  0  0  0  0  0  0
   -7.2400   61.1010   75.3230 C   0  0  0  0  0  0  0  0  0  0  0  0
   -6.5960   62.2870   75.6990 C   0  0  0  0  0  0  0  0  0  0  0  0
   -5.2180   62.4190   75.5030 C   0  0  0  0  0  0  0  0  0  0  0  0
   -7.2050   63.3830   76.2550 O   0  0  0  0  0  0  0  0  0  0  0  0
   -8.2910   63.0580   77.1250 C   0  0  0  0  0  0  0  0  0  0  0  0
   -9.5840   62.8760   76.3500 C   0  0  0  0  0  0  0  0  0  0  0  0
   -9.3830   62.0240   75.1080 C   0  0  0  0  0  0  0  0  0  0  0  0
   -8.5900   60.8700   75.3980 O   0  0  0  0  0  0  0  0  0  0  0  0
   -0.9240   60.7640   73.7650 C   0  0  0  0  0  0  0  0  0  0  0  0
   -0.3400   59.3620   73.5950 C   0  0  0  0  0  0  0  0  0  0  0  0
    1.1750   59.4130   73.4660 C   0  0  0  0  0  0  0  0  0  0  0  0
    1.5660   60.3140   72.3180 N   0  0  0  0  0  4  0  0  0  0  0  0
    1.0100   61.7090   72.4700 C   0  0  0  0  0  0  0  0  0  0  0  0
   -0.5020   61.6460   72.5850 C   0  0  0  0  0  0  0  0  0  0  0  0
    3.0670   60.3500   72.0910 C   0  0  0  0  0  0  0  0  0  0  0  0
    3.4760   61.3290   71.0250 C   0  0  0  0  0  0  0  0  0  0  0  0
    2.9930   61.2000   69.7130 C   0  0  0  0  0  0  0  0  0  0  0  0
    3.3520   62.1270   68.7340 C   0  0  0  0  0  0  0  0  0  0  0  0
    4.1980   63.1870   69.0520 C   0  0  0  0  0  0  0  0  0  0  0  0
    4.6900   63.3210   70.3480 C   0  0  0  0  0  0  0  0  0  0  0  0
    4.3330   62.3980   71.3320 C   0  0  0  0  0  0  0  0  0  0  0  0
   -2.9264   60.0820   73.3103 H   0  0  0  0  0  0  0  0  0  0  0  0
   -4.5246   59.3099   74.2596 H   0  0  0  0  0  0  0  0  0  0  0  0
   -6.9893   59.0858   74.5704 H   0  0  0  0  0  0  0  0  0  0  0  0
   -4.7194   63.3682   75.7488 H   0  0  0  0  0  0  0  0  0  0  0  0
   -8.0572   62.1236   77.6562 H   0  0  0  0  0  0  0  0  0  0  0  0
   -8.4262   63.8866   77.8357 H   0  0  0  0  0  0  0  0  0  0  0  0
  -10.3235   62.3871   77.0012 H   0  0  0  0  0  0  0  0  0  0  0  0
   -9.9334   63.8689   76.0304 H   0  0  0  0  0  0  0  0  0  0  0  0
  -10.3646   61.7001   74.7319 H   0  0  0  0  0  0  0  0  0  0  0  0
   -8.8589   62.6270   74.3518 H   0  0  0  0  0  0  0  0  0  0  0  0
   -0.5269   61.2015   74.6928 H   0  0  0  0  0  0  0  0  0  0  0  0
   -0.6058   58.7531   74.4717 H   0  0  0  0  0  0  0  0  0  0  0  0
   -0.7546   58.9192   72.6774 H   0  0  0  0  0  0  0  0  0  0  0  0
    1.6071   59.8037   74.3991 H   0  0  0  0  0  0  0  0  0  0  0  0
    1.5554   58.3988   73.2746 H   0  0  0  0  0  0  0  0  0  0  0  0
    1.1390   59.8986   71.4777 H   0  0  0  0  0  0  0  0  0  0  0  0
    1.4269   62.1723   73.3764 H   0  0  0  0  0  0  0  0  0  0  0  0
    1.2842   62.3089   71.5897 H   0  0  0  0  0  0  0  0  0  0  0  0
   -0.8944   62.6624   72.7366 H   0  0  0  0  0  0  0  0  0  0  0  0
   -0.9073   61.2120   71.6590 H   0  0  0  0  0  0  0  0  0  0  0  0
    3.5576   60.6331   73.0340 H   0  0  0  0  0  0  0  0  0  0  0  0
    3.3732   59.3488   71.7537 H   0  0  0  0  0  0  0  0  0  0  0  0
    2.3275   60.3629   69.4554 H   0  0  0  0  0  0  0  0  0  0  0  0
    2.9663   62.0206   67.7093 H   0  0  0  0  0  0  0  0  0  0  0  0
    4.4775   63.9184   68.2793 H   0  0  0  0  0  0  0  0  0  0  0  0
    5.3614   64.1561   70.5966 H   0  0  0  0  0  0  0  0  0  0  0  0
    4.7252   62.5086   72.3537 H   0  0  0  0  0  0  0  0  0  0  0  0
  2  1  2  0
  3  2  1  0
  4  2  1  0
  5  4  2  0
  6  5  1  0
  7  6  2  0
  8  7  1  0
  9  8  2  0
  9  4  1  0
 10  8  1  0
 11 10  1  0
 12 11  1  0
 13 12  1  0
 14 13  1  0
 14  7  1  0
 15  3  1  0
 16 15  1  0
 17 16  1  0
 18 17  1  0
 19 18  1  0
 20 19  1  0
 20 15  1  0
 21 18  1  0
 22 21  1  0
 23 22  2  0
 24 23  1  0
 25 24  2  0
 26 25  1  0
 27 26  2  0
 27 22  1  0
  3 28  1  0
  5 29  1  0
  6 30  1  0
  9 31  1  0
 11 32  1  0
 11 33  1  0
 12 34  1  0
 12 35  1  0
 13 36  1  0
 13 37  1  0
 15 38  1  0
 16 39  1  0
 16 40  1  0
 17 41  1  0
 17 42  1  0
 18 43  1  0
 19 44  1  0
 19 45  1  0
 20 46  1  0
 20 47  1  0
 21 48  1  0
 21 49  1  0
 23 50  1  0
 24 51  1  0
 25 52  1  0
 26 53  1  0
 27 54  1  0
M  CHG  1  18   1
M  END
>  <score>  (7) 
-7.777

$$$$
=
     RDKit          3D

 54 57  0  0  0  0  0  0  0  0999 V2000
   -1.6390   61.9380   72.4310 O   0  0  0  0  0  0  0  0  0  0  0  0
   -1.1510   61.0990   73.1800 C   0  0  0  0  0  0  0  0  0  0  0  0
   -1.8910   60.4740   74.1720 N   0  0  0  0  0  0  0  0  0  0  0  0
    0.2660   60.6730   73.0290 C   0  0  0  0  0  0  0  0  0  0  0  0
    0.7830   59.5640   73.7080 C   0  0  0  0  0  0  0  0  0  0  0  0
    2.1260   59.2120   73.5430 C   0  0  0  0  0  0  0  0  0  0  0  0
    2.9590   59.9680   72.7130 C   0  0  0  0  0  0  0  0  0  0  0  0
    2.4340   61.0550   72.0030 C   0  0  0  0  0  0  0  0  0  0  0  0
    1.0980   61.4230   72.1900 C   0  0  0  0  0  0  0  0  0  0  0  0
    3.1260   61.8350   71.1130 O   0  0  0  0  0  0  0  0  0  0  0  0
    4.1020   61.1160   70.3560 C   0  0  0  0  0  0  0  0  0  0  0  0
    5.4160   61.0120   71.1100 C   0  0  0  0  0  0  0  0  0  0  0  0
    5.2050   60.6190   72.5620 C   0  0  0  0  0  0  0  0  0  0  0  0
    4.2650   59.5480   72.6740 O   0  0  0  0  0  0  0  0  0  0  0  0
   -3.3140   60.7520   74.2950 C   0  0  0  0  0  0  0  0  0  0  0  0
   -4.0940   59.4920   74.6680 C   0  0  0  0  0  0  0  0  0  0  0  0
   -5.5820   59.7860   74.7850 C   0  0  0  0  0  0  0  0  0  0  0  0
   -5.8130   60.8920   75.7880 N   0  0  0  0  0  4  0  0  0  0  0  0
   -5.0600   62.1510   75.4350 C   0  0  0  0  0  0  0  0  0  0  0  0
   -3.5770   61.8490   75.3330 C   0  0  0  0  0  0  0  0  0  0  0  0
   -7.2870   61.1840   76.0060 C   0  0  0  0  0  0  0  0  0  0  0  0
   -7.8960   61.9940   74.8950 C   0  0  0  0  0  0  0  0  0  0  0  0
   -8.2440   63.3380   75.0980 C   0  0  0  0  0  0  0  0  0  0  0  0
   -8.7830   64.0950   74.0570 C   0  0  0  0  0  0  0  0  0  0  0  0
   -8.9810   63.5170   72.8050 C   0  0  0  0  0  0  0  0  0  0  0  0
   -8.6450   62.1830   72.5910 C   0  0  0  0  0  0  0  0  0  0  0  0
   -8.1060   61.4220   73.6300 C   0  0  0  0  0  0  0  0  0  0  0  0
   -1.4352   59.8153   74.8195 H   0  0  0  0  0  0  0  0  0  0  0  0
    0.1346   58.9709   74.3697 H   0  0  0  0  0  0  0  0  0  0  0  0
    2.5297   58.3347   74.0696 H   0  0  0  0  0  0  0  0  0  0  0  0
    0.6981   62.3083   71.6740 H   0  0  0  0  0  0  0  0  0  0  0  0
    3.7237   60.1032   70.1533 H   0  0  0  0  0  0  0  0  0  0  0  0
    4.2822   61.6586   69.4163 H   0  0  0  0  0  0  0  0  0  0  0  0
    6.0461   60.2527   70.6238 H   0  0  0  0  0  0  0  0  0  0  0  0
    5.8999   61.9997   71.0905 H   0  0  0  0  0  0  0  0  0  0  0  0
    6.1662   60.2997   72.9910 H   0  0  0  0  0  0  0  0  0  0  0  0
    4.8091   61.4895   73.1055 H   0  0  0  0  0  0  0  0  0  0  0  0
   -3.6615   61.1043   73.3126 H   0  0  0  0  0  0  0  0  0  0  0  0
   -3.9381   58.7293   73.8908 H   0  0  0  0  0  0  0  0  0  0  0  0
   -3.7308   59.1306   75.6414 H   0  0  0  0  0  0  0  0  0  0  0  0
   -5.9701   60.0971   73.8039 H   0  0  0  0  0  0  0  0  0  0  0  0
   -6.1040   58.8782   75.1219 H   0  0  0  0  0  0  0  0  0  0  0  0
   -5.4357   60.5433   76.6807 H   0  0  0  0  0  0  0  0  0  0  0  0
   -5.4220   62.5350   74.4699 H   0  0  0  0  0  0  0  0  0  0  0  0
   -5.2248   62.9054   76.2184 H   0  0  0  0  0  0  0  0  0  0  0  0
   -3.0427   62.7631   75.0347 H   0  0  0  0  0  0  0  0  0  0  0  0
   -3.2206   61.4992   76.3131 H   0  0  0  0  0  0  0  0  0  0  0  0
   -7.8266   60.2282   76.0794 H   0  0  0  0  0  0  0  0  0  0  0  0
   -7.3722   61.7756   76.9294 H   0  0  0  0  0  0  0  0  0  0  0  0
   -8.0908   63.7984   76.0852 H   0  0  0  0  0  0  0  0  0  0  0  0
   -9.0516   65.1484   74.2250 H   0  0  0  0  0  0  0  0  0  0  0  0
   -9.4034   64.1155   71.9844 H   0  0  0  0  0  0  0  0  0  0  0  0
   -8.8044   61.7281   71.6022 H   0  0  0  0  0  0  0  0  0  0  0  0
   -7.8442   60.3678   73.4565 H   0  0  0  0  0  0  0  0  0  0  0  0
  2  1  2  0
  3  2  1  0
  4  2  1  0
  5  4  2  0
  6  5  1  0
  7  6  2  0
  8  7  1  0
  9  8  2  0
  9  4  1  0
 10  8  1  0
 11 10  1  0
 12 11  1  0
 13 12  1  0
 14 13  1  0
 14  7  1  0
 15  3  1  0
 16 15  1  0
 17 16  1  0
 18 17  1  0
 19 18  1  0
 20 19  1  0
 20 15  1  0
 21 18  1  0
 22 21  1  0
 23 22  2  0
 24 23  1  0
 25 24  2  0
 26 25  1  0
 27 26  2  0
 27 22  1  0
  3 28  1  0
  5 29  1  0
  6 30  1  0
  9 31  1  0
 11 32  1  0
 11 33  1  0
 12 34  1  0
 12 35  1  0
 13 36  1  0
 13 37  1  0
 15 38  1  0
 16 39  1  0
 16 40  1  0
 17 41  1  0
 17 42  1  0
 18 43  1  0
 19 44  1  0
 19 45  1  0
 20 46  1  0
 20 47  1  0
 21 48  1  0
 21 49  1  0
 23 50  1  0
 24 51  1  0
 25 52  1  0
 26 53  1  0
 27 54  1  0
M  CHG  1  18   1
M  END
>  <score>  (8) 
-7.628

$$$$
=
     RDKit          3D

 54 57  0  0  0  0  0  0  0  0999 V2000
   -2.1380   61.3300   73.0380 O   0  0  0  0  0  0  0  0  0  0  0  0
   -2.0610   60.5580   73.9870 C   0  0  0  0  0  0  0  0  0  0  0  0
   -0.9170   59.8200   74.2490 N   0  0  0  0  0  0  0  0  0  0  0  0
   -3.1920   60.4050   74.9420 C   0  0  0  0  0  0  0  0  0  0  0  0
   -2.9850   60.2420   76.3160 C   0  0  0  0  0  0  0  0  0  0  0  0
   -4.0800   60.0900   77.1700 C   0  0  0  0  0  0  0  0  0  0  0  0
   -5.3820   60.0860   76.6600 C   0  0  0  0  0  0  0  0  0  0  0  0
   -5.5920   60.2880   75.2900 C   0  0  0  0  0  0  0  0  0  0  0  0
   -4.4950   60.4130   74.4320 C   0  0  0  0  0  0  0  0  0  0  0  0
   -6.8150   60.3690   74.6740 O   0  0  0  0  0  0  0  0  0  0  0  0
   -7.8200   60.9960   75.4730 C   0  0  0  0  0  0  0  0  0  0  0  0
   -8.4840   59.9980   76.4060 C   0  0  0  0  0  0  0  0  0  0  0  0
   -7.4660   59.1120   77.1030 C   0  0  0  0  0  0  0  0  0  0  0  0
   -6.3650   59.8800   77.5940 O   0  0  0  0  0  0  0  0  0  0  0  0
    0.2700   60.0120   73.4290 C   0  0  0  0  0  0  0  0  0  0  0  0
    1.2610   60.9610   74.1020 C   0  0  0  0  0  0  0  0  0  0  0  0
    2.4950   61.1660   73.2350 C   0  0  0  0  0  0  0  0  0  0  0  0
    3.1350   59.8340   72.9240 N   0  0  0  0  0  4  0  0  0  0  0  0
    2.1770   58.8830   72.2480 C   0  0  0  0  0  0  0  0  0  0  0  0
    0.9580   58.6760   73.1270 C   0  0  0  0  0  0  0  0  0  0  0  0
    4.4160   59.9760   72.1200 C   0  0  0  0  0  0  0  0  0  0  0  0
    4.3510   61.0810   71.1030 C   0  0  0  0  0  0  0  0  0  0  0  0
    3.5720   60.9400   69.9430 C   0  0  0  0  0  0  0  0  0  0  0  0
    3.4920   61.9790   69.0150 C   0  0  0  0  0  0  0  0  0  0  0  0
    4.1900   63.1650   69.2330 C   0  0  0  0  0  0  0  0  0  0  0  0
    4.9720   63.3140   70.3750 C   0  0  0  0  0  0  0  0  0  0  0  0
    5.0540   62.2790   71.3070 C   0  0  0  0  0  0  0  0  0  0  0  0
   -0.9071   59.1383   75.0211 H   0  0  0  0  0  0  0  0  0  0  0  0
   -1.9630   60.2336   76.7227 H   0  0  0  0  0  0  0  0  0  0  0  0
   -3.9168   59.9726   78.2515 H   0  0  0  0  0  0  0  0  0  0  0  0
   -4.6574   60.5183   73.3492 H   0  0  0  0  0  0  0  0  0  0  0  0
   -7.3559   61.7932   76.0723 H   0  0  0  0  0  0  0  0  0  0  0  0
   -8.5881   61.4103   74.8034 H   0  0  0  0  0  0  0  0  0  0  0  0
   -9.0566   60.5487   77.1668 H   0  0  0  0  0  0  0  0  0  0  0  0
   -9.1422   59.3538   75.8044 H   0  0  0  0  0  0  0  0  0  0  0  0
   -7.9525   58.6014   77.9471 H   0  0  0  0  0  0  0  0  0  0  0  0
   -7.0844   58.3800   76.3759 H   0  0  0  0  0  0  0  0  0  0  0  0
   -0.0610   60.4615   72.4812 H   0  0  0  0  0  0  0  0  0  0  0  0
    0.7726   61.9326   74.2680 H   0  0  0  0  0  0  0  0  0  0  0  0
    1.5748   60.5188   75.0591 H   0  0  0  0  0  0  0  0  0  0  0  0
    2.2025   61.6578   72.2955 H   0  0  0  0  0  0  0  0  0  0  0  0
    3.2164   61.7954   73.7768 H   0  0  0  0  0  0  0  0  0  0  0  0
    3.3891   59.4258   73.8349 H   0  0  0  0  0  0  0  0  0  0  0  0
    1.8638   59.3048   71.2816 H   0  0  0  0  0  0  0  0  0  0  0  0
    2.6769   57.9169   72.0843 H   0  0  0  0  0  0  0  0  0  0  0  0
    0.2483   58.0141   72.6090 H   0  0  0  0  0  0  0  0  0  0  0  0
    1.2812   58.2239   74.0763 H   0  0  0  0  0  0  0  0  0  0  0  0
    5.2437   60.1859   72.8134 H   0  0  0  0  0  0  0  0  0  0  0  0
    4.5677   59.0337   71.5732 H   0  0  0  0  0  0  0  0  0  0  0  0
    3.0214   60.0045   69.7648 H   0  0  0  0  0  0  0  0  0  0  0  0
    2.8772   61.8616   68.1104 H   0  0  0  0  0  0  0  0  0  0  0  0
    4.1231   63.9843   68.5021 H   0  0  0  0  0  0  0  0  0  0  0  0
    5.5262   64.2493   70.5429 H   0  0  0  0  0  0  0  0  0  0  0  0
    5.6735   62.4024   72.2075 H   0  0  0  0  0  0  0  0  0  0  0  0
  2  1  2  0
  3  2  1  0
  4  2  1  0
  5  4  2  0
  6  5  1  0
  7  6  2  0
  8  7  1  0
  9  8  2  0
  9  4  1  0
 10  8  1  0
 11 10  1  0
 12 11  1  0
 13 12  1  0
 14 13  1  0
 14  7  1  0
 15  3  1  0
 16 15  1  0
 17 16  1  0
 18 17  1  0
 19 18  1  0
 20 19  1  0
 20 15  1  0
 21 18  1  0
 22 21  1  0
 23 22  2  0
 24 23  1  0
 25 24  2  0
 26 25  1  0
 27 26  2  0
 27 22  1  0
  3 28  1  0
  5 29  1  0
  6 30  1  0
  9 31  1  0
 11 32  1  0
 11 33  1  0
 12 34  1  0
 12 35  1  0
 13 36  1  0
 13 37  1  0
 15 38  1  0
 16 39  1  0
 16 40  1  0
 17 41  1  0
 17 42  1  0
 18 43  1  0
 19 44  1  0
 19 45  1  0
 20 46  1  0
 20 47  1  0
 21 48  1  0
 21 49  1  0
 23 50  1  0
 24 51  1  0
 25 52  1  0
 26 53  1  0
 27 54  1  0
M  CHG  1  18   1
M  END
>  <score>  (9) 
-7.505

$$$$
