=
     RDKit          3D

 49 49  0  0  0  0  0  0  0  0999 V2000
    0.0080   65.3500   71.8040 C   0  0  0  0  0  0  0  0  0  0  0  0
    0.9390   64.8510   70.7290 C   0  0  0  0  0  0  0  0  0  0  0  0
    1.3980   65.6000   69.7040 C   0  0  0  0  0  0  0  0  0  0  0  0
    1.1090   66.9940   69.4230 C   0  0  0  0  0  0  0  0  0  0  0  0
    1.0680   67.4800   68.1700 C   0  0  0  0  0  0  0  0  0  0  0  0
    0.7910   68.8580   67.7780 C   0  0  0  0  0  0  0  0  0  0  0  0
    1.7110   69.8430   67.8230 C   0  0  0  0  0  0  0  0  0  0  0  0
   -0.5970   69.1870   67.2840 C   0  0  0  0  0  0  0  0  0  0  0  0
    3.1860   69.8820   68.2550 C   0  0  0  0  0  0  0  0  0  0  0  0
    4.0610   69.8010   67.3540 O   0  0  0  0  0  0  0  0  0  0  0  0
    3.3340   69.9690   69.5100 O   0  0  0  0  0  1  0  0  0  0  0  0
    1.3730   63.4530   70.8100 C   0  0  0  0  0  0  0  0  0  0  0  0
    2.2070   62.9210   71.7200 C   0  0  0  0  0  0  0  0  0  0  0  0
    2.6010   61.5140   71.7170 C   0  0  0  0  0  0  0  0  0  0  0  0
    1.8470   60.5650   72.3220 C   0  0  0  0  0  0  0  0  0  0  0  0
    0.5950   60.8410   73.1240 C   0  0  0  0  0  0  0  0  0  0  0  0
    2.1910   59.0930   72.2650 C   0  0  0  0  0  0  0  0  0  0  0  0
    3.2610   58.7370   71.2410 C   0  0  0  0  0  0  0  0  0  0  0  0
    4.3960   59.7470   71.2880 C   0  0  0  0  0  0  0  0  0  0  0  0
    3.9150   61.1890   70.9740 C   0  0  0  0  0  0  0  0  0  0  0  0
    3.6850   61.3290   69.4510 C   0  0  0  0  0  0  0  0  0  0  0  0
    5.0680   62.1360   71.3770 C   0  0  0  0  0  0  0  0  0  0  0  0
    0.4335   65.1219   72.7924 H   0  0  0  0  0  0  0  0  0  0  0  0
   -0.1202   66.4377   71.7021 H   0  0  0  0  0  0  0  0  0  0  0  0
   -0.9688   64.8545   71.7021 H   0  0  0  0  0  0  0  0  0  0  0  0
    2.0716   65.0931   68.9974 H   0  0  0  0  0  0  0  0  0  0  0  0
    0.9169   67.6766   70.2640 H   0  0  0  0  0  0  0  0  0  0  0  0
    1.2633   66.7654   67.3569 H   0  0  0  0  0  0  0  0  0  0  0  0
    1.3285   70.8161   67.4812 H   0  0  0  0  0  0  0  0  0  0  0  0
   -1.2644   69.3452   68.1440 H   0  0  0  0  0  0  0  0  0  0  0  0
   -0.5619   70.1017   66.6740 H   0  0  0  0  0  0  0  0  0  0  0  0
   -0.9762   68.3538   66.6740 H   0  0  0  0  0  0  0  0  0  0  0  0
    0.9747   62.7683   70.0467 H   0  0  0  0  0  0  0  0  0  0  0  0
    2.6125   63.5765   72.5048 H   0  0  0  0  0  0  0  0  0  0  0  0
    0.8285   60.7895   74.1977 H   0  0  0  0  0  0  0  0  0  0  0  0
    0.2162   61.8442   72.8788 H   0  0  0  0  0  0  0  0  0  0  0  0
   -0.1705   60.0900   72.8788 H   0  0  0  0  0  0  0  0  0  0  0  0
    2.5489   58.7844   73.2583 H   0  0  0  0  0  0  0  0  0  0  0  0
    1.2747   58.5677   71.9577 H   0  0  0  0  0  0  0  0  0  0  0  0
    3.6575   57.7355   71.4642 H   0  0  0  0  0  0  0  0  0  0  0  0
    2.8125   58.7506   70.2367 H   0  0  0  0  0  0  0  0  0  0  0  0
    4.8400   59.7335   72.2943 H   0  0  0  0  0  0  0  0  0  0  0  0
    5.1311   59.4630   70.5206 H   0  0  0  0  0  0  0  0  0  0  0  0
    2.7581   61.8932   69.2705 H   0  0  0  0  0  0  0  0  0  0  0  0
    4.5336   61.8639   68.9997 H   0  0  0  0  0  0  0  0  0  0  0  0
    3.5997   60.3295   68.9997 H   0  0  0  0  0  0  0  0  0  0  0  0
    5.1326   62.1890   72.4738 H   0  0  0  0  0  0  0  0  0  0  0  0
    6.0161   61.7524   70.9720 H   0  0  0  0  0  0  0  0  0  0  0  0
    4.8760   63.1405   70.9720 H   0  0  0  0  0  0  0  0  0  0  0  0
  2  1  1  0
  3  2  2  0
  4  3  1  0
  5  4  2  0
  6  5  1  0
  7  6  2  0
  8  6  1  0
  9  7  1  0
 10  9  2  0
 11  9  1  0
 12  2  1  0
 13 12  2  0
 14 13  1  0
 15 14  2  0
 16 15  1  0
 17 15  1  0
 18 17  1  0
 19 18  1  0
 20 19  1  0
 20 14  1  0
 21 20  1  0
 22 20  1  0
  1 23  1  0
  1 24  1  0
  1 25  1  0
  3 26  1  0
  4 27  1  0
  5 28  1  0
  7 29  1  0
  8 30  1  0
  8 31  1  0
  8 32  1  0
 12 33  1  0
 13 34  1  0
 16 35  1  0
 16 36  1  0
 16 37  1  0
 17 38  1  0
 17 39  1  0
 18 40  1  0
 18 41  1  0
 19 42  1  0
 19 43  1  0
 21 44  1  0
 21 45  1  0
 21 46  1  0
 22 47  1  0
 22 48  1  0
 22 49  1  0
M  CHG  1  11  -1
M  END
>  <score>  (1) 
-9.155

$$$$
=
     RDKit          3D

 49 49  0  0  0  0  0  0  0  0999 V2000
   -0.0110   65.3190   71.9140 C   0  0  0  0  0  0  0  0  0  0  0  0
    0.8590   64.7820   70.8070 C   0  0  0  0  0  0  0  0  0  0  0  0
    1.2820   65.5030   69.7470 C   0  0  0  0  0  0  0  0  0  0  0  0
    1.0040   66.8970   69.4510 C   0  0  0  0  0  0  0  0  0  0  0  0
    1.0070   67.3790   68.1960 C   0  0  0  0  0  0  0  0  0  0  0  0
    0.7460   68.7570   67.7910 C   0  0  0  0  0  0  0  0  0  0  0  0
   -0.4020   69.1560   67.2100 C   0  0  0  0  0  0  0  0  0  0  0  0
    1.8200   69.7860   68.0540 C   0  0  0  0  0  0  0  0  0  0  0  0
   -1.6840   68.4130   66.7990 C   0  0  0  0  0  0  0  0  0  0  0  0
   -2.3930   67.9220   67.7170 O   0  0  0  0  0  0  0  0  0  0  0  0
   -1.8530   68.3680   65.5450 O   0  0  0  0  0  1  0  0  0  0  0  0
    1.2710   63.3780   70.8950 C   0  0  0  0  0  0  0  0  0  0  0  0
    2.1720   62.8560   71.7450 C   0  0  0  0  0  0  0  0  0  0  0  0
    2.5370   61.4420   71.7530 C   0  0  0  0  0  0  0  0  0  0  0  0
    1.7330   60.5040   72.3110 C   0  0  0  0  0  0  0  0  0  0  0  0
    0.4470   60.8020   73.0480 C   0  0  0  0  0  0  0  0  0  0  0  0
    2.0500   59.0260   72.2630 C   0  0  0  0  0  0  0  0  0  0  0  0
    3.1650   58.6540   71.2940 C   0  0  0  0  0  0  0  0  0  0  0  0
    4.3170   59.6410   71.4070 C   0  0  0  0  0  0  0  0  0  0  0  0
    3.8820   61.0950   71.0780 C   0  0  0  0  0  0  0  0  0  0  0  0
    3.7350   61.2470   69.5460 C   0  0  0  0  0  0  0  0  0  0  0  0
    5.0310   62.0160   71.5480 C   0  0  0  0  0  0  0  0  0  0  0  0
    0.4256   65.0495   72.8870 H   0  0  0  0  0  0  0  0  0  0  0  0
   -0.0751   66.4140   71.8315 H   0  0  0  0  0  0  0  0  0  0  0  0
   -1.0186   64.8855   71.8315 H   0  0  0  0  0  0  0  0  0  0  0  0
    1.9131   64.9705   69.0203 H   0  0  0  0  0  0  0  0  0  0  0  0
    0.7833   67.5825   70.2825 H   0  0  0  0  0  0  0  0  0  0  0  0
    1.2288   66.6617   67.3921 H   0  0  0  0  0  0  0  0  0  0  0  0
   -0.4275   70.2321   66.9835 H   0  0  0  0  0  0  0  0  0  0  0  0
    1.9503   69.9109   69.1391 H   0  0  0  0  0  0  0  0  0  0  0  0
    2.7673   69.4497   67.6072 H   0  0  0  0  0  0  0  0  0  0  0  0
    1.5246   70.7468   67.6072 H   0  0  0  0  0  0  0  0  0  0  0  0
    0.7933   62.6791   70.1926 H   0  0  0  0  0  0  0  0  0  0  0  0
    2.6578   63.5262   72.4695 H   0  0  0  0  0  0  0  0  0  0  0  0
    0.6276   60.7601   74.1323 H   0  0  0  0  0  0  0  0  0  0  0  0
    0.0916   61.8063   72.7740 H   0  0  0  0  0  0  0  0  0  0  0  0
   -0.3139   60.0564   72.7740 H   0  0  0  0  0  0  0  0  0  0  0  0
    2.3492   58.7051   73.2717 H   0  0  0  0  0  0  0  0  0  0  0  0
    1.1408   58.5208   71.9051 H   0  0  0  0  0  0  0  0  0  0  0  0
    3.5290   57.6434   71.5310 H   0  0  0  0  0  0  0  0  0  0  0  0
    2.7701   58.6825   70.2677 H   0  0  0  0  0  0  0  0  0  0  0  0
    4.7075   59.6127   72.4350 H   0  0  0  0  0  0  0  0  0  0  0  0
    5.0853   59.3464   70.6770 H   0  0  0  0  0  0  0  0  0  0  0  0
    2.9859   62.0215   69.3246 H   0  0  0  0  0  0  0  0  0  0  0  0
    4.7029   61.5382   69.1119 H   0  0  0  0  0  0  0  0  0  0  0  0
    3.4116   60.2894   69.1119 H   0  0  0  0  0  0  0  0  0  0  0  0
    5.0575   62.0372   72.6475 H   0  0  0  0  0  0  0  0  0  0  0  0
    5.9883   61.6323   71.1655 H   0  0  0  0  0  0  0  0  0  0  0  0
    4.8648   63.0339   71.1655 H   0  0  0  0  0  0  0  0  0  0  0  0
  2  1  1  0
  3  2  2  0
  4  3  1  0
  5  4  2  0
  6  5  1  0
  7  6  2  0
  8  6  1  0
  9  7  1  0
 10  9  2  0
 11  9  1  0
 12  2  1  0
 13 12  2  0
 14 13  1  0
 15 14  2  0
 16 15  1  0
 17 15  1  0
 18 17  1  0
 19 18  1  0
 20 19  1  0
 20 14  1  0
 21 20  1  0
 22 20  1  0
  1 23  1  0
  1 24  1  0
  1 25  1  0
  3 26  1  0
  4 27  1  0
  5 28  1  0
  7 29  1  0
  8 30  1  0
  8 31  1  0
  8 32  1  0
 12 33  1  0
 13 34  1  0
 16 35  1  0
 16 36  1  0
 16 37  1  0
 17 38  1  0
 17 39  1  0
 18 40  1  0
 18 41  1  0
 19 42  1  0
 19 43  1  0
 21 44  1  0
 21 45  1  0
 21 46  1  0
 22 47  1  0
 22 48  1  0
 22 49  1  0
M  CHG  1  11  -1
M  END
>  <score>  (2) 
-9.152

$$$$
=
     RDKit          3D

 49 49  0  0  0  0  0  0  0  0999 V2000
   -0.0220   65.3700   71.8510 C   0  0  0  0  0  0  0  0  0  0  0  0
    0.8010   64.8190   70.7150 C   0  0  0  0  0  0  0  0  0  0  0  0
    1.2090   65.5350   69.6460 C   0  0  0  0  0  0  0  0  0  0  0  0
    0.9570   66.9370   69.3660 C   0  0  0  0  0  0  0  0  0  0  0  0
    0.9080   67.4210   68.1130 C   0  0  0  0  0  0  0  0  0  0  0  0
    0.6660   68.8070   67.7230 C   0  0  0  0  0  0  0  0  0  0  0  0
   -0.4650   69.2230   67.1200 C   0  0  0  0  0  0  0  0  0  0  0  0
    1.7400   69.8240   68.0270 C   0  0  0  0  0  0  0  0  0  0  0  0
   -1.7420   68.4960   66.6680 C   0  0  0  0  0  0  0  0  0  0  0  0
   -2.4430   67.9420   67.5550 O   0  0  0  0  0  0  0  0  0  0  0  0
   -1.9150   68.5270   65.4130 O   0  0  0  0  0  1  0  0  0  0  0  0
    1.1810   63.4050   70.7830 C   0  0  0  0  0  0  0  0  0  0  0  0
    2.2650   62.8910   71.3900 C   0  0  0  0  0  0  0  0  0  0  0  0
    2.5770   61.4650   71.3960 C   0  0  0  0  0  0  0  0  0  0  0  0
    3.2670   60.8850   70.3830 C   0  0  0  0  0  0  0  0  0  0  0  0
    3.7050   61.5950   69.1230 C   0  0  0  0  0  0  0  0  0  0  0  0
    3.6720   59.4280   70.4030 C   0  0  0  0  0  0  0  0  0  0  0  0
    3.5140   58.7500   71.7580 C   0  0  0  0  0  0  0  0  0  0  0  0
    2.1920   59.1450   72.3970 C   0  0  0  0  0  0  0  0  0  0  0  0
    2.0840   60.6770   72.6290 C   0  0  0  0  0  0  0  0  0  0  0  0
    2.9390   61.0670   73.8570 C   0  0  0  0  0  0  0  0  0  0  0  0
    0.6030   60.9690   72.9590 C   0  0  0  0  0  0  0  0  0  0  0  0
    0.4273   65.0692   72.8089 H   0  0  0  0  0  0  0  0  0  0  0  0
   -0.0473   66.4678   71.7866 H   0  0  0  0  0  0  0  0  0  0  0  0
   -1.0467   64.9752   71.7866 H   0  0  0  0  0  0  0  0  0  0  0  0
    1.8037   64.9911   68.8973 H   0  0  0  0  0  0  0  0  0  0  0  0
    0.8008   67.6270   70.2083 H   0  0  0  0  0  0  0  0  0  0  0  0
    1.0664   66.6992   67.2982 H   0  0  0  0  0  0  0  0  0  0  0  0
   -0.4770   70.3023   66.9081 H   0  0  0  0  0  0  0  0  0  0  0  0
    1.8492   69.9274   69.1167 H   0  0  0  0  0  0  0  0  0  0  0  0
    2.6941   69.4906   67.5929 H   0  0  0  0  0  0  0  0  0  0  0  0
    1.4591   70.7949   67.5929 H   0  0  0  0  0  0  0  0  0  0  0  0
    0.5093   62.6898   70.2856 H   0  0  0  0  0  0  0  0  0  0  0  0
    2.9502   63.5786   71.9074 H   0  0  0  0  0  0  0  0  0  0  0  0
    4.2653   62.5032   69.3898 H   0  0  0  0  0  0  0  0  0  0  0  0
    4.3487   60.9277   68.5310 H   0  0  0  0  0  0  0  0  0  0  0  0
    2.8199   61.8709   68.5310 H   0  0  0  0  0  0  0  0  0  0  0  0
    3.0506   58.8880   69.6735 H   0  0  0  0  0  0  0  0  0  0  0  0
    4.7442   59.3966   70.1591 H   0  0  0  0  0  0  0  0  0  0  0  0
    3.5394   57.6587   71.6225 H   0  0  0  0  0  0  0  0  0  0  0  0
    4.3371   59.0684   72.4146 H   0  0  0  0  0  0  0  0  0  0  0  0
    1.3713   58.8285   71.7365 H   0  0  0  0  0  0  0  0  0  0  0  0
    2.1314   58.6510   73.3779 H   0  0  0  0  0  0  0  0  0  0  0  0
    2.3924   60.8177   74.7785 H   0  0  0  0  0  0  0  0  0  0  0  0
    3.8891   60.5132   73.8331 H   0  0  0  0  0  0  0  0  0  0  0  0
    3.1437   62.1475   73.8331 H   0  0  0  0  0  0  0  0  0  0  0  0
    0.4689   60.9954   74.0505 H   0  0  0  0  0  0  0  0  0  0  0  0
    0.3166   61.9409   72.5307 H   0  0  0  0  0  0  0  0  0  0  0  0
   -0.0308   60.1785   72.5307 H   0  0  0  0  0  0  0  0  0  0  0  0
  2  1  1  0
  3  2  2  0
  4  3  1  0
  5  4  2  0
  6  5  1  0
  7  6  2  0
  8  6  1  0
  9  7  1  0
 10  9  2  0
 11  9  1  0
 12  2  1  0
 13 12  2  0
 14 13  1  0
 15 14  2  0
 16 15  1  0
 17 15  1  0
 18 17  1  0
 19 18  1  0
 20 19  1  0
 20 14  1  0
 21 20  1  0
 22 20  1  0
  1 23  1  0
  1 24  1  0
  1 25  1  0
  3 26  1  0
  4 27  1  0
  5 28  1  0
  7 29  1  0
  8 30  1  0
  8 31  1  0
  8 32  1  0
 12 33  1  0
 13 34  1  0
 16 35  1  0
 16 36  1  0
 16 37  1  0
 17 38  1  0
 17 39  1  0
 18 40  1  0
 18 41  1  0
 19 42  1  0
 19 43  1  0
 21 44  1  0
 21 45  1  0
 21 46  1  0
 22 47  1  0
 22 48  1  0
 22 49  1  0
M  CHG  1  11  -1
M  END
>  <score>  (3) 
-8.915

$$$$
=
     RDKit          3D

 49 49  0  0  0  0  0  0  0  0999 V2000
   -0.1690   65.5450   71.6210 C   0  0  0  0  0  0  0  0  0  0  0  0
    0.8360   65.0130   70.6310 C   0  0  0  0  0  0  0  0  0  0  0  0
    1.4430   65.7560   69.6810 C   0  0  0  0  0  0  0  0  0  0  0  0
    1.2690   67.1720   69.4140 C   0  0  0  0  0  0  0  0  0  0  0  0
    0.9400   67.6380   68.1960 C   0  0  0  0  0  0  0  0  0  0  0  0
    0.7450   69.0350   67.8200 C   0  0  0  0  0  0  0  0  0  0  0  0
    1.7150   69.9680   67.8990 C   0  0  0  0  0  0  0  0  0  0  0  0
   -0.6130   69.4440   67.3030 C   0  0  0  0  0  0  0  0  0  0  0  0
    3.1800   69.9220   68.3620 C   0  0  0  0  0  0  0  0  0  0  0  0
    3.4120   70.1130   69.5850 O   0  0  0  0  0  0  0  0  0  0  0  0
    3.9950   69.7160   67.4150 O   0  0  0  0  0  1  0  0  0  0  0  0
    1.1730   63.5890   70.7130 C   0  0  0  0  0  0  0  0  0  0  0  0
    2.3130   63.0590   71.1890 C   0  0  0  0  0  0  0  0  0  0  0  0
    2.5750   61.6220   71.2180 C   0  0  0  0  0  0  0  0  0  0  0  0
    3.2430   61.0010   70.2160 C   0  0  0  0  0  0  0  0  0  0  0  0
    3.7050   61.6740   68.9430 C   0  0  0  0  0  0  0  0  0  0  0  0
    3.5960   59.5300   70.2600 C   0  0  0  0  0  0  0  0  0  0  0  0
    3.4140   58.8820   71.6270 C   0  0  0  0  0  0  0  0  0  0  0  0
    2.1070   59.3350   72.2590 C   0  0  0  0  0  0  0  0  0  0  0  0
    2.0550   60.8730   72.4650 C   0  0  0  0  0  0  0  0  0  0  0  0
    2.9240   61.2530   73.6860 C   0  0  0  0  0  0  0  0  0  0  0  0
    0.5850   61.2240   72.7900 C   0  0  0  0  0  0  0  0  0  0  0  0
    0.1885   65.3558   72.6439 H   0  0  0  0  0  0  0  0  0  0  0  0
   -0.2942   66.6275   71.4707 H   0  0  0  0  0  0  0  0  0  0  0  0
   -1.1345   65.0399   71.4707 H   0  0  0  0  0  0  0  0  0  0  0  0
    2.1545   65.2246   69.0318 H   0  0  0  0  0  0  0  0  0  0  0  0
    1.4111   67.8888   70.2362 H   0  0  0  0  0  0  0  0  0  0  0  0
    0.8039   66.8895   67.4015 H   0  0  0  0  0  0  0  0  0  0  0  0
    1.3924   70.9649   67.5640 H   0  0  0  0  0  0  0  0  0  0  0  0
   -1.2830   69.6458   68.1518 H   0  0  0  0  0  0  0  0  0  0  0  0
   -0.5138   70.3521   66.6902 H   0  0  0  0  0  0  0  0  0  0  0  0
   -1.0318   68.6321   66.6902 H   0  0  0  0  0  0  0  0  0  0  0  0
    0.4148   62.8809   70.3473 H   0  0  0  0  0  0  0  0  0  0  0  0
    3.0857   63.7400   71.5752 H   0  0  0  0  0  0  0  0  0  0  0  0
    4.3111   62.5569   69.1942 H   0  0  0  0  0  0  0  0  0  0  0  0
    4.3104   60.9690   68.3544 H   0  0  0  0  0  0  0  0  0  0  0  0
    2.8295   61.9856   68.3544 H   0  0  0  0  0  0  0  0  0  0  0  0
    2.9553   59.0003   69.5396 H   0  0  0  0  0  0  0  0  0  0  0  0
    4.6660   59.4554   70.0161 H   0  0  0  0  0  0  0  0  0  0  0  0
    3.4003   57.7883   71.5106 H   0  0  0  0  0  0  0  0  0  0  0  0
    4.2481   59.1826   72.2781 H   0  0  0  0  0  0  0  0  0  0  0  0
    1.2752   59.0374   71.6036 H   0  0  0  0  0  0  0  0  0  0  0  0
    2.0285   58.8598   73.2480 H   0  0  0  0  0  0  0  0  0  0  0  0
    2.3797   61.0150   74.6118 H   0  0  0  0  0  0  0  0  0  0  0  0
    3.8651   60.6843   73.6575 H   0  0  0  0  0  0  0  0  0  0  0  0
    3.1455   62.3301   73.6575 H   0  0  0  0  0  0  0  0  0  0  0  0
    0.4484   61.2566   73.8810 H   0  0  0  0  0  0  0  0  0  0  0  0
    0.3389   62.2062   72.3601 H   0  0  0  0  0  0  0  0  0  0  0  0
   -0.0783   60.4590   72.3601 H   0  0  0  0  0  0  0  0  0  0  0  0
  2  1  1  0
  3  2  2  0
  4  3  1  0
  5  4  2  0
  6  5  1  0
  7  6  2  0
  8  6  1  0
  9  7  1  0
 10  9  2  0
 11  9  1  0
 12  2  1  0
 13 12  2  0
 14 13  1  0
 15 14  2  0
 16 15  1  0
 17 15  1  0
 18 17  1  0
 19 18  1  0
 20 19  1  0
 20 14  1  0
 21 20  1  0
 22 20  1  0
  1 23  1  0
  1 24  1  0
  1 25  1  0
  3 26  1  0
  4 27  1  0
  5 28  1  0
  7 29  1  0
  8 30  1  0
  8 31  1  0
  8 32  1  0
 12 33  1  0
 13 34  1  0
 16 35  1  0
 16 36  1  0
 16 37  1  0
 17 38  1  0
 17 39  1  0
 18 40  1  0
 18 41  1  0
 19 42  1  0
 19 43  1  0
 21 44  1  0
 21 45  1  0
 21 46  1  0
 22 47  1  0
 22 48  1  0
 22 49  1  0
M  CHG  1  11  -1
M  END
>  <score>  (4) 
-8.86

$$$$
=
     RDKit          3D

 49 49  0  0  0  0  0  0  0  0999 V2000
   -0.2820   66.0620   70.9370 C   0  0  0  0  0  0  0  0  0  0  0  0
    1.0650   65.8640   70.2880 C   0  0  0  0  0  0  0  0  0  0  0  0
    1.4810   66.5060   69.1760 C   0  0  0  0  0  0  0  0  0  0  0  0
    0.7550   67.4890   68.3930 C   0  0  0  0  0  0  0  0  0  0  0  0
   -0.0500   67.1420   67.3730 C   0  0  0  0  0  0  0  0  0  0  0  0
   -0.8190   68.0460   66.5230 C   0  0  0  0  0  0  0  0  0  0  0  0
   -0.3440   68.5730   65.3770 C   0  0  0  0  0  0  0  0  0  0  0  0
   -2.2240   68.3940   66.9520 C   0  0  0  0  0  0  0  0  0  0  0  0
    1.0010   68.4480   64.6430 C   0  0  0  0  0  0  0  0  0  0  0  0
    1.9810   69.0870   65.1070 O   0  0  0  0  0  0  0  0  0  0  0  0
    0.9400   67.7110   63.6140 O   0  0  0  0  0  1  0  0  0  0  0  0
    1.9790   64.9050   70.9140 C   0  0  0  0  0  0  0  0  0  0  0  0
    2.0480   63.5840   70.6750 C   0  0  0  0  0  0  0  0  0  0  0  0
    2.9830   62.6950   71.3600 C   0  0  0  0  0  0  0  0  0  0  0  0
    2.7480   62.2520   72.6200 C   0  0  0  0  0  0  0  0  0  0  0  0
    1.5790   62.6780   73.4780 C   0  0  0  0  0  0  0  0  0  0  0  0
    3.6600   61.2690   73.3200 C   0  0  0  0  0  0  0  0  0  0  0  0
    4.6760   60.5940   72.4080 C   0  0  0  0  0  0  0  0  0  0  0  0
    5.2940   61.6100   71.4600 C   0  0  0  0  0  0  0  0  0  0  0  0
    4.2340   62.2900   70.5520 C   0  0  0  0  0  0  0  0  0  0  0  0
    3.8200   61.3080   69.4310 C   0  0  0  0  0  0  0  0  0  0  0  0
    4.9300   63.5050   69.8970 C   0  0  0  0  0  0  0  0  0  0  0  0
   -0.1679   66.0452   72.0309 H   0  0  0  0  0  0  0  0  0  0  0  0
   -0.6996   67.0312   70.6267 H   0  0  0  0  0  0  0  0  0  0  0  0
   -0.9608   65.2540   70.6267 H   0  0  0  0  0  0  0  0  0  0  0  0
    2.4911   66.2541   68.8207 H   0  0  0  0  0  0  0  0  0  0  0  0
    0.8670   68.5545   68.6424 H   0  0  0  0  0  0  0  0  0  0  0  0
   -0.1379   66.0670   67.1572 H   0  0  0  0  0  0  0  0  0  0  0  0
   -1.0652   69.2250   64.8624 H   0  0  0  0  0  0  0  0  0  0  0  0
   -2.2792   68.4077   68.0505 H   0  0  0  0  0  0  0  0  0  0  0  0
   -2.4923   69.3857   66.5590 H   0  0  0  0  0  0  0  0  0  0  0  0
   -2.9242   67.6421   66.5590 H   0  0  0  0  0  0  0  0  0  0  0  0
    2.6824   65.3083   71.6574 H   0  0  0  0  0  0  0  0  0  0  0  0
    1.3672   63.1514   69.9271 H   0  0  0  0  0  0  0  0  0  0  0  0
    1.8486   62.5798   74.5399 H   0  0  0  0  0  0  0  0  0  0  0  0
    1.3263   63.7260   73.2593 H   0  0  0  0  0  0  0  0  0  0  0  0
    0.7113   62.0383   73.2593 H   0  0  0  0  0  0  0  0  0  0  0  0
    4.2084   61.8084   74.1063 H   0  0  0  0  0  0  0  0  0  0  0  0
    3.0156   60.4708   73.7171 H   0  0  0  0  0  0  0  0  0  0  0  0
    5.4690   60.1411   73.0212 H   0  0  0  0  0  0  0  0  0  0  0  0
    4.1660   59.8187   71.8174 H   0  0  0  0  0  0  0  0  0  0  0  0
    5.8007   62.3851   72.0537 H   0  0  0  0  0  0  0  0  0  0  0  0
    6.0016   61.0757   70.8090 H   0  0  0  0  0  0  0  0  0  0  0  0
    3.4299   60.3826   69.8798 H   0  0  0  0  0  0  0  0  0  0  0  0
    3.0403   61.7704   68.8080 H   0  0  0  0  0  0  0  0  0  0  0  0
    4.6955   61.0726   68.8080 H   0  0  0  0  0  0  0  0  0  0  0  0
    5.3135   64.1745   70.6810 H   0  0  0  0  0  0  0  0  0  0  0  0
    5.7652   63.1561   69.2719 H   0  0  0  0  0  0  0  0  0  0  0  0
    4.2065   64.0490   69.2719 H   0  0  0  0  0  0  0  0  0  0  0  0
  2  1  1  0
  3  2  2  0
  4  3  1  0
  5  4  2  0
  6  5  1  0
  7  6  2  0
  8  6  1  0
  9  7  1  0
 10  9  2  0
 11  9  1  0
 12  2  1  0
 13 12  2  0
 14 13  1  0
 15 14  2  0
 16 15  1  0
 17 15  1  0
 18 17  1  0
 19 18  1  0
 20 19  1  0
 20 14  1  0
 21 20  1  0
 22 20  1  0
  1 23  1  0
  1 24  1  0
  1 25  1  0
  3 26  1  0
  4 27  1  0
  5 28  1  0
  7 29  1  0
  8 30  1  0
  8 31  1  0
  8 32  1  0
 12 33  1  0
 13 34  1  0
 16 35  1  0
 16 36  1  0
 16 37  1  0
 17 38  1  0
 17 39  1  0
 18 40  1  0
 18 41  1  0
 19 42  1  0
 19 43  1  0
 21 44  1  0
 21 45  1  0
 21 46  1  0
 22 47  1  0
 22 48  1  0
 22 49  1  0
M  CHG  1  11  -1
M  END
>  <score>  (5) 
-8.557

$$$$
=
     RDKit          3D

 49 49  0  0  0  0  0  0  0  0999 V2000
    4.7090   63.4080   70.0170 C   0  0  0  0  0  0  0  0  0  0  0  0
    3.6610   62.5570   69.3460 C   0  0  0  0  0  0  0  0  0  0  0  0
    3.3870   62.5780   68.0240 C   0  0  0  0  0  0  0  0  0  0  0  0
    4.0160   63.3900   66.9990 C   0  0  0  0  0  0  0  0  0  0  0  0
    3.5580   63.4320   65.7360 C   0  0  0  0  0  0  0  0  0  0  0  0
    4.1150   64.2090   64.6320 C   0  0  0  0  0  0  0  0  0  0  0  0
    3.6640   65.4290   64.2800 C   0  0  0  0  0  0  0  0  0  0  0  0
    5.2650   63.6110   63.8580 C   0  0  0  0  0  0  0  0  0  0  0  0
    2.5440   66.3320   64.8230 C   0  0  0  0  0  0  0  0  0  0  0  0
    1.3580   65.9310   64.6930 O   0  0  0  0  0  0  0  0  0  0  0  0
    2.9750   67.4110   65.3270 O   0  0  0  0  0  1  0  0  0  0  0  0
    2.8900   61.6450   70.1960 C   0  0  0  0  0  0  0  0  0  0  0  0
    2.7950   61.6810   71.5370 C   0  0  0  0  0  0  0  0  0  0  0  0
    2.0140   60.7190   72.3090 C   0  0  0  0  0  0  0  0  0  0  0  0
    0.7160   60.9490   72.6260 C   0  0  0  0  0  0  0  0  0  0  0  0
   -0.0350   62.2220   72.3100 C   0  0  0  0  0  0  0  0  0  0  0  0
   -0.1370   59.9340   73.3550 C   0  0  0  0  0  0  0  0  0  0  0  0
    0.4750   58.5410   73.4360 C   0  0  0  0  0  0  0  0  0  0  0  0
    1.9530   58.6310   73.7820 C   0  0  0  0  0  0  0  0  0  0  0  0
    2.7590   59.4310   72.7220 C   0  0  0  0  0  0  0  0  0  0  0  0
    2.9750   58.5460   71.4730 C   0  0  0  0  0  0  0  0  0  0  0  0
    4.1400   59.7270   73.3500 C   0  0  0  0  0  0  0  0  0  0  0  0
    4.6056   63.3240   71.1089 H   0  0  0  0  0  0  0  0  0  0  0  0
    5.7092   63.0632   69.7158 H   0  0  0  0  0  0  0  0  0  0  0  0
    4.5769   64.4577   69.7158 H   0  0  0  0  0  0  0  0  0  0  0  0
    2.5920   61.8984   67.6833 H   0  0  0  0  0  0  0  0  0  0  0  0
    4.8977   63.9917   67.2646 H   0  0  0  0  0  0  0  0  0  0  0  0
    2.6732   62.8184   65.5109 H   0  0  0  0  0  0  0  0  0  0  0  0
    4.2080   65.8687   63.4310 H   0  0  0  0  0  0  0  0  0  0  0  0
    6.0160   63.2205   64.5604 H   0  0  0  0  0  0  0  0  0  0  0  0
    4.8941   62.7916   63.2248 H   0  0  0  0  0  0  0  0  0  0  0  0
    5.7228   64.3853   63.2248 H   0  0  0  0  0  0  0  0  0  0  0  0
    2.3309   60.8482   69.6836 H   0  0  0  0  0  0  0  0  0  0  0  0
    3.3318   62.4738   72.0785 H   0  0  0  0  0  0  0  0  0  0  0  0
   -0.3274   62.7176   73.2475 H   0  0  0  0  0  0  0  0  0  0  0  0
    0.6115   62.8938   71.7263 H   0  0  0  0  0  0  0  0  0  0  0  0
   -0.9357   61.9811   71.7263 H   0  0  0  0  0  0  0  0  0  0  0  0
   -0.3035   60.2970   74.3800 H   0  0  0  0  0  0  0  0  0  0  0  0
   -1.0689   59.8349   72.7790 H   0  0  0  0  0  0  0  0  0  0  0  0
   -0.0446   57.9614   74.2132 H   0  0  0  0  0  0  0  0  0  0  0  0
    0.3665   58.0461   72.4596 H   0  0  0  0  0  0  0  0  0  0  0  0
    2.0584   59.1296   74.7568 H   0  0  0  0  0  0  0  0  0  0  0  0
    2.3553   57.6076   73.8087 H   0  0  0  0  0  0  0  0  0  0  0  0
    3.2249   57.5221   71.7879 H   0  0  0  0  0  0  0  0  0  0  0  0
    2.0544   58.5301   70.8712 H   0  0  0  0  0  0  0  0  0  0  0  0
    3.7994   58.9561   70.8712 H   0  0  0  0  0  0  0  0  0  0  0  0
    4.0556   59.7089   74.4466 H   0  0  0  0  0  0  0  0  0  0  0  0
    4.8618   58.9632   73.0252 H   0  0  0  0  0  0  0  0  0  0  0  0
    4.4854   60.7196   73.0252 H   0  0  0  0  0  0  0  0  0  0  0  0
  2  1  1  0
  3  2  2  0
  4  3  1  0
  5  4  2  0
  6  5  1  0
  7  6  2  0
  8  6  1  0
  9  7  1  0
 10  9  2  0
 11  9  1  0
 12  2  1  0
 13 12  2  0
 14 13  1  0
 15 14  2  0
 16 15  1  0
 17 15  1  0
 18 17  1  0
 19 18  1  0
 20 19  1  0
 20 14  1  0
 21 20  1  0
 22 20  1  0
  1 23  1  0
  1 24  1  0
  1 25  1  0
  3 26  1  0
  4 27  1  0
  5 28  1  0
  7 29  1  0
  8 30  1  0
  8 31  1  0
  8 32  1  0
 12 33  1  0
 13 34  1  0
 16 35  1  0
 16 36  1  0
 16 37  1  0
 17 38  1  0
 17 39  1  0
 18 40  1  0
 18 41  1  0
 19 42  1  0
 19 43  1  0
 21 44  1  0
 21 45  1  0
 21 46  1  0
 22 47  1  0
 22 48  1  0
 22 49  1  0
M  CHG  1  11  -1
M  END
>  <score>  (6) 
-8.453

$$$$
=
     RDKit          3D

 49 49  0  0  0  0  0  0  0  0999 V2000
    3.0380   64.1940   70.0080 C   0  0  0  0  0  0  0  0  0  0  0  0
    1.6450   64.0350   70.5630 C   0  0  0  0  0  0  0  0  0  0  0  0
    0.7060   65.0050   70.5680 C   0  0  0  0  0  0  0  0  0  0  0  0
    0.8250   66.3590   70.0610 C   0  0  0  0  0  0  0  0  0  0  0  0
    0.6070   66.6630   68.7690 C   0  0  0  0  0  0  0  0  0  0  0  0
    0.7020   67.9850   68.1570 C   0  0  0  0  0  0  0  0  0  0  0  0
   -0.2800   68.5320   67.4140 C   0  0  0  0  0  0  0  0  0  0  0  0
    1.9650   68.7800   68.3850 C   0  0  0  0  0  0  0  0  0  0  0  0
   -1.6700   68.0350   66.9800 C   0  0  0  0  0  0  0  0  0  0  0  0
   -2.3960   67.4990   67.8570 O   0  0  0  0  0  0  0  0  0  0  0  0
   -1.9000   68.2140   65.7480 O   0  0  0  0  0  1  0  0  0  0  0  0
    1.2940   62.7310   71.1350 C   0  0  0  0  0  0  0  0  0  0  0  0
    1.7560   62.2050   72.2830 C   0  0  0  0  0  0  0  0  0  0  0  0
    1.3650   60.8860   72.7720 C   0  0  0  0  0  0  0  0  0  0  0  0
    0.0910   60.6190   73.1510 C   0  0  0  0  0  0  0  0  0  0  0  0
   -1.0250   61.6380   73.1990 C   0  0  0  0  0  0  0  0  0  0  0  0
   -0.3580   59.2410   73.5850 C   0  0  0  0  0  0  0  0  0  0  0  0
    0.6390   58.1300   73.2800 C   0  0  0  0  0  0  0  0  0  0  0  0
    2.0520   58.5770   73.6240 C   0  0  0  0  0  0  0  0  0  0  0  0
    2.4880   59.8280   72.8140 C   0  0  0  0  0  0  0  0  0  0  0  0
    2.8390   59.4010   71.3690 C   0  0  0  0  0  0  0  0  0  0  0  0
    3.7740   60.3620   73.4860 C   0  0  0  0  0  0  0  0  0  0  0  0
    3.7560   64.2760   70.8373 H   0  0  0  0  0  0  0  0  0  0  0  0
    3.2890   63.3187   69.3909 H   0  0  0  0  0  0  0  0  0  0  0  0
    3.0852   65.1034   69.3909 H   0  0  0  0  0  0  0  0  0  0  0  0
   -0.2653   64.7366   71.0092 H   0  0  0  0  0  0  0  0  0  0  0  0
    1.1029   67.1644   70.7568 H   0  0  0  0  0  0  0  0  0  0  0  0
    0.3288   65.8306   68.1059 H   0  0  0  0  0  0  0  0  0  0  0  0
   -0.0389   69.5387   67.0420 H   0  0  0  0  0  0  0  0  0  0  0  0
    2.1392   68.8896   69.4656 H   0  0  0  0  0  0  0  0  0  0  0  0
    2.8165   68.2547   67.9278 H   0  0  0  0  0  0  0  0  0  0  0  0
    1.8596   69.7749   67.9278 H   0  0  0  0  0  0  0  0  0  0  0  0
    0.5784   62.1197   70.5657 H   0  0  0  0  0  0  0  0  0  0  0  0
    2.4628   62.7971   72.8828 H   0  0  0  0  0  0  0  0  0  0  0  0
   -1.2713   61.8629   74.2472 H   0  0  0  0  0  0  0  0  0  0  0  0
   -0.7022   62.5595   72.6924 H   0  0  0  0  0  0  0  0  0  0  0  0
   -1.9134   61.2330   72.6924 H   0  0  0  0  0  0  0  0  0  0  0  0
   -0.5293   59.2611   74.6714 H   0  0  0  0  0  0  0  0  0  0  0  0
   -1.2686   59.0122   73.0119 H   0  0  0  0  0  0  0  0  0  0  0  0
    0.3848   57.2411   73.8759 H   0  0  0  0  0  0  0  0  0  0  0  0
    0.5911   57.8919   72.2072 H   0  0  0  0  0  0  0  0  0  0  0  0
    2.0958   58.8171   74.6966 H   0  0  0  0  0  0  0  0  0  0  0  0
    2.7367   57.7550   73.3681 H   0  0  0  0  0  0  0  0  0  0  0  0
    3.5373   58.5515   71.3971 H   0  0  0  0  0  0  0  0  0  0  0  0
    1.9208   59.1036   70.8413 H   0  0  0  0  0  0  0  0  0  0  0  0
    3.3085   60.2443   70.8413 H   0  0  0  0  0  0  0  0  0  0  0  0
    3.6627   60.3158   74.5794 H   0  0  0  0  0  0  0  0  0  0  0  0
    4.6316   59.7456   73.1784 H   0  0  0  0  0  0  0  0  0  0  0  0
    3.9427   61.4045   73.1784 H   0  0  0  0  0  0  0  0  0  0  0  0
  2  1  1  0
  3  2  2  0
  4  3  1  0
  5  4  2  0
  6  5  1  0
  7  6  2  0
  8  6  1  0
  9  7  1  0
 10  9  2  0
 11  9  1  0
 12  2  1  0
 13 12  2  0
 14 13  1  0
 15 14  2  0
 16 15  1  0
 17 15  1  0
 18 17  1  0
 19 18  1  0
 20 19  1  0
 20 14  1  0
 21 20  1  0
 22 20  1  0
  1 23  1  0
  1 24  1  0
  1 25  1  0
  3 26  1  0
  4 27  1  0
  5 28  1  0
  7 29  1  0
  8 30  1  0
  8 31  1  0
  8 32  1  0
 12 33  1  0
 13 34  1  0
 16 35  1  0
 16 36  1  0
 16 37  1  0
 17 38  1  0
 17 39  1  0
 18 40  1  0
 18 41  1  0
 19 42  1  0
 19 43  1  0
 21 44  1  0
 21 45  1  0
 21 46  1  0
 22 47  1  0
 22 48  1  0
 22 49  1  0
M  CHG  1  11  -1
M  END
>  <score>  (7) 
-8.184

$$$$
=
     RDKit          3D

 49 49  0  0  0  0  0  0  0  0999 V2000
   -0.3280   66.0780   71.0250 C   0  0  0  0  0  0  0  0  0  0  0  0
    0.8990   65.5990   70.2920 C   0  0  0  0  0  0  0  0  0  0  0  0
    1.3840   66.1580   69.1630 C   0  0  0  0  0  0  0  0  0  0  0  0
    0.8530   67.2970   68.4360 C   0  0  0  0  0  0  0  0  0  0  0  0
   -0.0420   67.1600   67.4420 C   0  0  0  0  0  0  0  0  0  0  0  0
   -0.6340   68.2330   66.6480 C   0  0  0  0  0  0  0  0  0  0  0  0
   -0.0630   68.7370   65.5360 C   0  0  0  0  0  0  0  0  0  0  0  0
   -1.9630   68.7920   67.0960 C   0  0  0  0  0  0  0  0  0  0  0  0
    1.2490   68.4250   64.7960 C   0  0  0  0  0  0  0  0  0  0  0  0
    2.2740   69.0730   65.1290 O   0  0  0  0  0  0  0  0  0  0  0  0
    1.1150   67.5410   63.8980 O   0  0  0  0  0  1  0  0  0  0  0  0
    1.6100   64.4460   70.8510 C   0  0  0  0  0  0  0  0  0  0  0  0
    1.4090   63.1520   70.5470 C   0  0  0  0  0  0  0  0  0  0  0  0
    2.1540   62.0590   71.1670 C   0  0  0  0  0  0  0  0  0  0  0  0
    3.2470   61.5200   70.5740 C   0  0  0  0  0  0  0  0  0  0  0  0
    3.7610   61.9020   69.2050 C   0  0  0  0  0  0  0  0  0  0  0  0
    4.0820   60.4430   71.2320 C   0  0  0  0  0  0  0  0  0  0  0  0
    3.7840   60.2320   72.7110 C   0  0  0  0  0  0  0  0  0  0  0  0
    2.2830   60.2380   72.9550 C   0  0  0  0  0  0  0  0  0  0  0  0
    1.6230   61.5800   72.5350 C   0  0  0  0  0  0  0  0  0  0  0  0
    1.9290   62.6540   73.6040 C   0  0  0  0  0  0  0  0  0  0  0  0
    0.0970   61.3340   72.5200 C   0  0  0  0  0  0  0  0  0  0  0  0
   -0.1567   66.0111   72.1095 H   0  0  0  0  0  0  0  0  0  0  0  0
   -0.5347   67.1229   70.7502 H   0  0  0  0  0  0  0  0  0  0  0  0
   -1.1880   65.4496   70.7502 H   0  0  0  0  0  0  0  0  0  0  0  0
    2.2896   65.6953   68.7438 H   0  0  0  0  0  0  0  0  0  0  0  0
    1.1946   68.3067   68.7077 H   0  0  0  0  0  0  0  0  0  0  0  0
   -0.3608   66.1348   67.2024 H   0  0  0  0  0  0  0  0  0  0  0  0
   -0.6554   69.5330   65.0613 H   0  0  0  0  0  0  0  0  0  0  0  0
   -2.0021   68.8084   68.1952 H   0  0  0  0  0  0  0  0  0  0  0  0
   -2.0794   69.8153   66.7096 H   0  0  0  0  0  0  0  0  0  0  0  0
   -2.7758   68.1595   66.7096 H   0  0  0  0  0  0  0  0  0  0  0  0
    2.3892   64.6617   71.5969 H   0  0  0  0  0  0  0  0  0  0  0  0
    0.6460   62.9040   69.7944 H   0  0  0  0  0  0  0  0  0  0  0  0
    4.6397   62.5550   69.3123 H   0  0  0  0  0  0  0  0  0  0  0  0
    4.0445   60.9936   68.6532 H   0  0  0  0  0  0  0  0  0  0  0  0
    2.9730   62.4354   68.6532 H   0  0  0  0  0  0  0  0  0  0  0  0
    3.8981   59.4950   70.7052 H   0  0  0  0  0  0  0  0  0  0  0  0
    5.1291   60.7735   71.1666 H   0  0  0  0  0  0  0  0  0  0  0  0
    4.1993   59.2647   73.0301 H   0  0  0  0  0  0  0  0  0  0  0  0
    4.2427   61.0487   73.2877 H   0  0  0  0  0  0  0  0  0  0  0  0
    1.8269   59.4225   72.3745 H   0  0  0  0  0  0  0  0  0  0  0  0
    2.1169   60.1044   74.0341 H   0  0  0  0  0  0  0  0  0  0  0  0
    1.8051   62.2190   74.6067 H   0  0  0  0  0  0  0  0  0  0  0  0
    2.9636   63.0075   73.4830 H   0  0  0  0  0  0  0  0  0  0  0  0
    1.2361   63.4997   73.4830 H   0  0  0  0  0  0  0  0  0  0  0  0
   -0.2749   61.2740   73.5535 H   0  0  0  0  0  0  0  0  0  0  0  0
   -0.4030   62.1631   71.9979 H   0  0  0  0  0  0  0  0  0  0  0  0
   -0.1171   60.3898   71.9979 H   0  0  0  0  0  0  0  0  0  0  0  0
  2  1  1  0
  3  2  2  0
  4  3  1  0
  5  4  2  0
  6  5  1  0
  7  6  2  0
  8  6  1  0
  9  7  1  0
 10  9  2  0
 11  9  1  0
 12  2  1  0
 13 12  2  0
 14 13  1  0
 15 14  2  0
 16 15  1  0
 17 15  1  0
 18 17  1  0
 19 18  1  0
 20 19  1  0
 20 14  1  0
 21 20  1  0
 22 20  1  0
  1 23  1  0
  1 24  1  0
  1 25  1  0
  3 26  1  0
  4 27  1  0
  5 28  1  0
  7 29  1  0
  8 30  1  0
  8 31  1  0
  8 32  1  0
 12 33  1  0
 13 34  1  0
 16 35  1  0
 16 36  1  0
 16 37  1  0
 17 38  1  0
 17 39  1  0
 18 40  1  0
 18 41  1  0
 19 42  1  0
 19 43  1  0
 21 44  1  0
 21 45  1  0
 21 46  1  0
 22 47  1  0
 22 48  1  0
 22 49  1  0
M  CHG  1  11  -1
M  END
>  <score>  (8) 
-7.906

$$$$
=
     RDKit          3D

 49 49  0  0  0  0  0  0  0  0999 V2000
   -1.0750   59.8510   74.0840 C   0  0  0  0  0  0  0  0  0  0  0  0
    0.1810   59.3270   73.4360 C   0  0  0  0  0  0  0  0  0  0  0  0
    0.6910   58.0940   73.6390 C   0  0  0  0  0  0  0  0  0  0  0  0
    0.1640   57.0430   74.4900 C   0  0  0  0  0  0  0  0  0  0  0  0
   -0.8880   56.2860   74.1290 C   0  0  0  0  0  0  0  0  0  0  0  0
   -1.4960   55.2110   74.9070 C   0  0  0  0  0  0  0  0  0  0  0  0
   -0.9250   54.0030   75.0790 C   0  0  0  0  0  0  0  0  0  0  0  0
   -2.8300   55.4810   75.5610 C   0  0  0  0  0  0  0  0  0  0  0  0
    0.3920   53.3840   74.5810 C   0  0  0  0  0  0  0  0  0  0  0  0
    1.4620   53.7920   75.1030 O   0  0  0  0  0  0  0  0  0  0  0  0
    0.2230   52.5310   73.6600 O   0  0  0  0  0  1  0  0  0  0  0  0
    0.8920   60.2260   72.5220 C   0  0  0  0  0  0  0  0  0  0  0  0
    2.1720   60.6250   72.6200 C   0  0  0  0  0  0  0  0  0  0  0  0
    2.7990   61.5400   71.6700 C   0  0  0  0  0  0  0  0  0  0  0  0
    2.4370   62.8440   71.5960 C   0  0  0  0  0  0  0  0  0  0  0  0
    1.3170   63.4730   72.3920 C   0  0  0  0  0  0  0  0  0  0  0  0
    3.1260   63.8290   70.6770 C   0  0  0  0  0  0  0  0  0  0  0  0
    4.4310   63.3230   70.0780 C   0  0  0  0  0  0  0  0  0  0  0  0
    4.2780   61.8830   69.6140 C   0  0  0  0  0  0  0  0  0  0  0  0
    3.9000   60.9270   70.7780 C   0  0  0  0  0  0  0  0  0  0  0  0
    5.1560   60.6500   71.6370 C   0  0  0  0  0  0  0  0  0  0  0  0
    3.4570   59.5960   70.1280 C   0  0  0  0  0  0  0  0  0  0  0  0
   -0.9691   59.8068   75.1780 H   0  0  0  0  0  0  0  0  0  0  0  0
   -1.2405   60.8932   73.7734 H   0  0  0  0  0  0  0  0  0  0  0  0
   -1.9321   59.2354   73.7734 H   0  0  0  0  0  0  0  0  0  0  0  0
    1.6169   57.8573   73.0943 H   0  0  0  0  0  0  0  0  0  0  0  0
    0.6412   56.8590   75.4639 H   0  0  0  0  0  0  0  0  0  0  0  0
   -1.3357   56.4990   73.1471 H   0  0  0  0  0  0  0  0  0  0  0  0
   -1.5219   53.3208   75.7022 H   0  0  0  0  0  0  0  0  0  0  0  0
   -2.7137   55.4575   76.6546 H   0  0  0  0  0  0  0  0  0  0  0  0
   -3.1959   56.4714   75.2524 H   0  0  0  0  0  0  0  0  0  0  0  0
   -3.5522   54.7108   75.2524 H   0  0  0  0  0  0  0  0  0  0  0  0
    0.3187   60.6144   71.6673 H   0  0  0  0  0  0  0  0  0  0  0  0
    2.7764   60.2438   73.4563 H   0  0  0  0  0  0  0  0  0  0  0  0
    1.5216   63.3581   73.4667 H   0  0  0  0  0  0  0  0  0  0  0  0
    1.2469   64.5425   72.1444 H   0  0  0  0  0  0  0  0  0  0  0  0
    0.3673   62.9763   72.1444 H   0  0  0  0  0  0  0  0  0  0  0  0
    2.4389   64.0686   69.8521 H   0  0  0  0  0  0  0  0  0  0  0  0
    3.3812   64.7055   71.2907 H   0  0  0  0  0  0  0  0  0  0  0  0
    4.7041   63.9535   69.2190 H   0  0  0  0  0  0  0  0  0  0  0  0
    5.2175   63.3689   70.8457 H   0  0  0  0  0  0  0  0  0  0  0  0
    3.4883   61.8395   68.8495 H   0  0  0  0  0  0  0  0  0  0  0  0
    5.2467   61.5546   69.2092 H   0  0  0  0  0  0  0  0  0  0  0  0
    4.8913   60.7084   72.7031 H   0  0  0  0  0  0  0  0  0  0  0  0
    5.5416   59.6452   71.4094 H   0  0  0  0  0  0  0  0  0  0  0  0
    5.9284   61.3994   71.4094 H   0  0  0  0  0  0  0  0  0  0  0  0
    3.2142   58.8666   70.9148 H   0  0  0  0  0  0  0  0  0  0  0  0
    2.5686   59.7708   69.5034 H   0  0  0  0  0  0  0  0  0  0  0  0
    4.2730   59.2036   69.5034 H   0  0  0  0  0  0  0  0  0  0  0  0
  2  1  1  0
  3  2  2  0
  4  3  1  0
  5  4  2  0
  6  5  1  0
  7  6  2  0
  8  6  1  0
  9  7  1  0
 10  9  2  0
 11  9  1  0
 12  2  1  0
 13 12  2  0
 14 13  1  0
 15 14  2  0
 16 15  1  0
 17 15  1  0
 18 17  1  0
 19 18  1  0
 20 19  1  0
 20 14  1  0
 21 20  1  0
 22 20  1  0
  1 23  1  0
  1 24  1  0
  1 25  1  0
  3 26  1  0
  4 27  1  0
  5 28  1  0
  7 29  1  0
  8 30  1  0
  8 31  1  0
  8 32  1  0
 12 33  1  0
 13 34  1  0
 16 35  1  0
 16 36  1  0
 16 37  1  0
 17 38  1  0
 17 39  1  0
 18 40  1  0
 18 41  1  0
 19 42  1  0
 19 43  1  0
 21 44  1  0
 21 45  1  0
 21 46  1  0
 22 47  1  0
 22 48  1  0
 22 49  1  0
M  CHG  1  11  -1
M  END
>  <score>  (9) 
-7.639

$$$$
