=
     RDKit          3D

 15 14  0  0  0  0  0  0  0  0999 V2000
    5.1050   70.4160   67.7830 C   0  0  0  0  0  0  0  0  0  0  0  0
    4.1150   70.1170   68.4380 O   0  0  0  0  0  0  0  0  0  0  0  0
    6.0820   71.4460   68.3360 C   0  0  0  0  0  0  0  0  0  0  0  0
    5.9460   72.6300   68.0550 O   0  0  0  0  0  0  0  0  0  0  0  0
    7.1750   70.9200   69.2180 C   0  0  0  0  0  0  0  0  0  0  0  0
    4.1820   69.4620   65.6730 C   0  0  0  0  0  0  0  0  0  0  0  0
    5.4400   69.8000   66.4490 C   0  0  0  0  0  0  0  0  0  0  0  0
    6.8926   71.0559   70.2724 H   0  0  0  0  0  0  0  0  0  0  0  0
    7.3275   69.8499   69.0142 H   0  0  0  0  0  0  0  0  0  0  0  0
    8.1065   71.4685   69.0142 H   0  0  0  0  0  0  0  0  0  0  0  0
    3.3652   69.2425   66.3763 H   0  0  0  0  0  0  0  0  0  0  0  0
    3.9010   70.3165   65.0399 H   0  0  0  0  0  0  0  0  0  0  0  0
    4.3671   68.5817   65.0399 H   0  0  0  0  0  0  0  0  0  0  0  0
    6.0190   68.8793   66.6136 H   0  0  0  0  0  0  0  0  0  0  0  0
    6.0259   70.5259   65.8660 H   0  0  0  0  0  0  0  0  0  0  0  0
  2  1  2  0
  3  1  1  0
  4  3  2  0
  5  3  1  0
  7  6  1  0
  7  1  1  0
  5  8  1  0
  5  9  1  0
  5 10  1  0
  6 11  1  0
  6 12  1  0
  6 13  1  0
  7 14  1  0
  7 15  1  0
M  END
>  <score>  (1) 
-5.061

$$$$
=
     RDKit          3D

 15 14  0  0  0  0  0  0  0  0999 V2000
    6.0200   71.4550   68.3540 C   0  0  0  0  0  0  0  0  0  0  0  0
    5.8970   72.6340   68.0450 O   0  0  0  0  0  0  0  0  0  0  0  0
    4.8510   70.5020   68.1410 C   0  0  0  0  0  0  0  0  0  0  0  0
    4.0240   70.3420   69.0280 O   0  0  0  0  0  0  0  0  0  0  0  0
    4.7950   69.8050   66.8140 C   0  0  0  0  0  0  0  0  0  0  0  0
    7.1130   70.4900   70.3780 C   0  0  0  0  0  0  0  0  0  0  0  0
    7.2900   70.8700   68.9200 C   0  0  0  0  0  0  0  0  0  0  0  0
    4.7078   68.7201   66.9731 H   0  0  0  0  0  0  0  0  0  0  0  0
    3.9228   70.1638   66.2479 H   0  0  0  0  0  0  0  0  0  0  0  0
    5.7133   70.0200   66.2479 H   0  0  0  0  0  0  0  0  0  0  0  0
    7.4911   71.3017   71.0170 H   0  0  0  0  0  0  0  0  0  0  0  0
    6.0456   70.3256   70.5871 H   0  0  0  0  0  0  0  0  0  0  0  0
    7.6740   69.5672   70.5871 H   0  0  0  0  0  0  0  0  0  0  0  0
    8.0962   71.6139   68.8378 H   0  0  0  0  0  0  0  0  0  0  0  0
    7.5416   69.9632   68.3503 H   0  0  0  0  0  0  0  0  0  0  0  0
  2  1  2  0
  3  1  1  0
  4  3  2  0
  5  3  1  0
  7  6  1  0
  7  1  1  0
  5  8  1  0
  5  9  1  0
  5 10  1  0
  6 11  1  0
  6 12  1  0
  6 13  1  0
  7 14  1  0
  7 15  1  0
M  END
>  <score>  (2) 
-4.9

$$$$
=
     RDKit          3D

 15 14  0  0  0  0  0  0  0  0999 V2000
    5.5130   70.5440   67.2490 C   0  0  0  0  0  0  0  0  0  0  0  0
    6.2480   71.1470   66.4760 O   0  0  0  0  0  0  0  0  0  0  0  0
    5.7390   70.6780   68.7490 C   0  0  0  0  0  0  0  0  0  0  0  0
    4.7930   70.5870   69.5210 O   0  0  0  0  0  0  0  0  0  0  0  0
    7.1530   70.9190   69.1890 C   0  0  0  0  0  0  0  0  0  0  0  0
    4.4300   69.4060   65.3130 C   0  0  0  0  0  0  0  0  0  0  0  0
    4.3600   69.6820   66.8020 C   0  0  0  0  0  0  0  0  0  0  0  0
    7.1987   70.9268   70.2880 H   0  0  0  0  0  0  0  0  0  0  0  0
    7.7994   70.1181   68.8008 H   0  0  0  0  0  0  0  0  0  0  0  0
    7.4976   71.8888   68.8008 H   0  0  0  0  0  0  0  0  0  0  0  0
    4.6974   68.3519   65.1477 H   0  0  0  0  0  0  0  0  0  0  0  0
    3.4511   69.6121   64.8555 H   0  0  0  0  0  0  0  0  0  0  0  0
    5.1923   70.0537   64.8555 H   0  0  0  0  0  0  0  0  0  0  0  0
    3.4159   70.1996   67.0274 H   0  0  0  0  0  0  0  0  0  0  0  0
    4.4126   68.7228   67.3379 H   0  0  0  0  0  0  0  0  0  0  0  0
  2  1  2  0
  3  1  1  0
  4  3  2  0
  5  3  1  0
  7  6  1  0
  7  1  1  0
  5  8  1  0
  5  9  1  0
  5 10  1  0
  6 11  1  0
  6 12  1  0
  6 13  1  0
  7 14  1  0
  7 15  1  0
M  END
>  <score>  (3) 
-4.563

$$$$
=
     RDKit          3D

 15 14  0  0  0  0  0  0  0  0999 V2000
    4.8660   69.9550   67.0650 C   0  0  0  0  0  0  0  0  0  0  0  0
    4.1370   70.1060   68.0380 O   0  0  0  0  0  0  0  0  0  0  0  0
    4.2600   69.5050   65.7420 C   0  0  0  0  0  0  0  0  0  0  0  0
    3.0760   69.1990   65.6850 O   0  0  0  0  0  0  0  0  0  0  0  0
    5.1880   69.4680   64.5650 C   0  0  0  0  0  0  0  0  0  0  0  0
    6.7760   70.8360   68.4050 C   0  0  0  0  0  0  0  0  0  0  0  0
    6.3510   70.2150   67.0890 C   0  0  0  0  0  0  0  0  0  0  0  0
    6.2285   69.4265   64.9196 H   0  0  0  0  0  0  0  0  0  0  0  0
    4.9724   68.5777   63.9559 H   0  0  0  0  0  0  0  0  0  0  0  0
    5.0440   70.3726   63.9559 H   0  0  0  0  0  0  0  0  0  0  0  0
    6.3703   70.2432   69.2381 H   0  0  0  0  0  0  0  0  0  0  0  0
    7.8742   70.8504   68.4659 H   0  0  0  0  0  0  0  0  0  0  0  0
    6.3918   71.8649   68.4659 H   0  0  0  0  0  0  0  0  0  0  0  0
    6.6088   70.9008   66.2685 H   0  0  0  0  0  0  0  0  0  0  0  0
    6.8753   69.2553   66.9705 H   0  0  0  0  0  0  0  0  0  0  0  0
  2  1  2  0
  3  1  1  0
  4  3  2  0
  5  3  1  0
  7  6  1  0
  7  1  1  0
  5  8  1  0
  5  9  1  0
  5 10  1  0
  6 11  1  0
  6 12  1  0
  6 13  1  0
  7 14  1  0
  7 15  1  0
M  END
>  <score>  (4) 
-4.46

$$$$
=
     RDKit          3D

 15 14  0  0  0  0  0  0  0  0999 V2000
    3.0940   66.1830   64.4900 C   0  0  0  0  0  0  0  0  0  0  0  0
    2.3310   65.9980   65.4310 O   0  0  0  0  0  0  0  0  0  0  0  0
    3.8570   65.0010   63.9060 C   0  0  0  0  0  0  0  0  0  0  0  0
    4.1980   65.0140   62.7310 O   0  0  0  0  0  0  0  0  0  0  0  0
    4.1460   63.8670   64.8440 C   0  0  0  0  0  0  0  0  0  0  0  0
    3.5380   68.6040   64.8890 C   0  0  0  0  0  0  0  0  0  0  0  0
    3.3110   67.5280   63.8450 C   0  0  0  0  0  0  0  0  0  0  0  0
    4.0565   64.2183   65.8825 H   0  0  0  0  0  0  0  0  0  0  0  0
    3.4264   63.0537   64.6687 H   0  0  0  0  0  0  0  0  0  0  0  0
    5.1671   63.4973   64.6687 H   0  0  0  0  0  0  0  0  0  0  0  0
    3.4455   68.1655   65.8936 H   0  0  0  0  0  0  0  0  0  0  0  0
    4.5454   69.0281   64.7654 H   0  0  0  0  0  0  0  0  0  0  0  0
    2.7878   69.3989   64.7654 H   0  0  0  0  0  0  0  0  0  0  0  0
    2.4240   67.7876   63.2485 H   0  0  0  0  0  0  0  0  0  0  0  0
    4.2036   67.4685   63.2049 H   0  0  0  0  0  0  0  0  0  0  0  0
  2  1  2  0
  3  1  1  0
  4  3  2  0
  5  3  1  0
  7  6  1  0
  7  1  1  0
  5  8  1  0
  5  9  1  0
  5 10  1  0
  6 11  1  0
  6 12  1  0
  6 13  1  0
  7 14  1  0
  7 15  1  0
M  END
>  <score>  (5) 
-4.124

$$$$
=
     RDKit          3D

 15 14  0  0  0  0  0  0  0  0999 V2000
    3.8560   60.4820   69.9160 C   0  0  0  0  0  0  0  0  0  0  0  0
    3.9180   59.3590   69.4290 O   0  0  0  0  0  0  0  0  0  0  0  0
    4.7640   60.8380   71.0860 C   0  0  0  0  0  0  0  0  0  0  0  0
    5.9740   60.6840   70.9900 O   0  0  0  0  0  0  0  0  0  0  0  0
    4.0870   61.3720   72.3130 C   0  0  0  0  0  0  0  0  0  0  0  0
    3.7230   62.6740   68.7360 C   0  0  0  0  0  0  0  0  0  0  0  0
    2.9380   61.5620   69.4030 C   0  0  0  0  0  0  0  0  0  0  0  0
    4.5877   60.9771   73.2093 H   0  0  0  0  0  0  0  0  0  0  0  0
    4.1446   62.4705   72.3149 H   0  0  0  0  0  0  0  0  0  0  0  0
    3.0321   61.0601   72.3149 H   0  0  0  0  0  0  0  0  0  0  0  0
    4.1761   63.3158   69.5059 H   0  0  0  0  0  0  0  0  0  0  0  0
    4.5150   62.2386   68.1090 H   0  0  0  0  0  0  0  0  0  0  0  0
    3.0476   63.2746   68.1090 H   0  0  0  0  0  0  0  0  0  0  0  0
    2.3686   61.9800   70.2462 H   0  0  0  0  0  0  0  0  0  0  0  0
    2.2588   61.1193   68.6596 H   0  0  0  0  0  0  0  0  0  0  0  0
  2  1  2  0
  3  1  1  0
  4  3  2  0
  5  3  1  0
  7  6  1  0
  7  1  1  0
  5  8  1  0
  5  9  1  0
  5 10  1  0
  6 11  1  0
  6 12  1  0
  6 13  1  0
  7 14  1  0
  7 15  1  0
M  END
>  <score>  (6) 
-4.113

$$$$
=
     RDKit          3D

 15 14  0  0  0  0  0  0  0  0999 V2000
    4.7070   60.8800   70.5390 C   0  0  0  0  0  0  0  0  0  0  0  0
    5.8260   60.7770   71.0260 O   0  0  0  0  0  0  0  0  0  0  0  0
    3.8120   59.6500   70.4600 C   0  0  0  0  0  0  0  0  0  0  0  0
    3.8740   58.9110   69.4860 O   0  0  0  0  0  0  0  0  0  0  0  0
    2.8890   59.4230   71.6200 C   0  0  0  0  0  0  0  0  0  0  0  0
    4.9190   63.3650   70.5580 C   0  0  0  0  0  0  0  0  0  0  0  0
    4.1370   62.1790   70.0280 C   0  0  0  0  0  0  0  0  0  0  0  0
    3.4423   59.5591   72.5609 H   0  0  0  0  0  0  0  0  0  0  0  0
    2.0593   60.1439   71.5750 H   0  0  0  0  0  0  0  0  0  0  0  0
    2.4883   58.3996   71.5750 H   0  0  0  0  0  0  0  0  0  0  0  0
    4.9086   63.3492   71.6578 H   0  0  0  0  0  0  0  0  0  0  0  0
    5.9577   63.3087   70.2003 H   0  0  0  0  0  0  0  0  0  0  0  0
    4.4581   64.2975   70.2003 H   0  0  0  0  0  0  0  0  0  0  0  0
    3.0899   62.2646   70.3540 H   0  0  0  0  0  0  0  0  0  0  0  0
    4.2018   62.1807   68.9299 H   0  0  0  0  0  0  0  0  0  0  0  0
  2  1  2  0
  3  1  1  0
  4  3  2  0
  5  3  1  0
  7  6  1  0
  7  1  1  0
  5  8  1  0
  5  9  1  0
  5 10  1  0
  6 11  1  0
  6 12  1  0
  6 13  1  0
  7 14  1  0
  7 15  1  0
M  END
>  <score>  (7) 
-4.09

$$$$
=
     RDKit          3D

 15 14  0  0  0  0  0  0  0  0999 V2000
    3.5680   62.0920   69.5910 C   0  0  0  0  0  0  0  0  0  0  0  0
    2.6690   62.0320   68.7600 O   0  0  0  0  0  0  0  0  0  0  0  0
    4.3370   60.8270   69.9490 C   0  0  0  0  0  0  0  0  0  0  0  0
    4.1280   59.7900   69.3350 O   0  0  0  0  0  0  0  0  0  0  0  0
    5.3310   60.9480   71.0660 C   0  0  0  0  0  0  0  0  0  0  0  0
    2.7780   64.1930   70.6770 C   0  0  0  0  0  0  0  0  0  0  0  0
    3.9850   63.3680   70.2760 C   0  0  0  0  0  0  0  0  0  0  0  0
    4.8074   60.8843   72.0313 H   0  0  0  0  0  0  0  0  0  0  0  0
    6.0658   60.1327   70.9929 H   0  0  0  0  0  0  0  0  0  0  0  0
    5.8487   61.9158   70.9929 H   0  0  0  0  0  0  0  0  0  0  0  0
    2.7125   64.2377   71.7741 H   0  0  0  0  0  0  0  0  0  0  0  0
    2.8796   65.2114   70.2739 H   0  0  0  0  0  0  0  0  0  0  0  0
    1.8660   63.7285   70.2739 H   0  0  0  0  0  0  0  0  0  0  0  0
    4.6101   63.9568   69.5886 H   0  0  0  0  0  0  0  0  0  0  0  0
    4.5477   63.1084   71.1848 H   0  0  0  0  0  0  0  0  0  0  0  0
  2  1  2  0
  3  1  1  0
  4  3  2  0
  5  3  1  0
  7  6  1  0
  7  1  1  0
  5  8  1  0
  5  9  1  0
  5 10  1  0
  6 11  1  0
  6 12  1  0
  6 13  1  0
  7 14  1  0
  7 15  1  0
M  END
>  <score>  (8) 
-4.064

$$$$
=
     RDKit          3D

 15 14  0  0  0  0  0  0  0  0999 V2000
    3.4530   65.7700   64.2260 C   0  0  0  0  0  0  0  0  0  0  0  0
    4.2220   66.2880   63.4250 O   0  0  0  0  0  0  0  0  0  0  0  0
    2.3580   66.6160   64.8610 C   0  0  0  0  0  0  0  0  0  0  0  0
    1.2170   66.1790   64.9430 O   0  0  0  0  0  0  0  0  0  0  0  0
    2.7690   67.9700   65.3600 C   0  0  0  0  0  0  0  0  0  0  0  0
    4.7470   63.6450   64.0490 C   0  0  0  0  0  0  0  0  0  0  0  0
    3.5060   64.3130   64.6090 C   0  0  0  0  0  0  0  0  0  0  0  0
    2.7693   67.9708   66.4600 H   0  0  0  0  0  0  0  0  0  0  0  0
    3.7790   68.2050   64.9929 H   0  0  0  0  0  0  0  0  0  0  0  0
    2.0601   68.7268   64.9929 H   0  0  0  0  0  0  0  0  0  0  0  0
    5.3843   63.3020   64.8774 H   0  0  0  0  0  0  0  0  0  0  0  0
    4.4527   62.7834   63.4317 H   0  0  0  0  0  0  0  0  0  0  0  0
    5.3041   64.3651   63.4317 H   0  0  0  0  0  0  0  0  0  0  0  0
    2.6147   63.8048   64.2124 H   0  0  0  0  0  0  0  0  0  0  0  0
    3.5363   64.2415   65.7063 H   0  0  0  0  0  0  0  0  0  0  0  0
  2  1  2  0
  3  1  1  0
  4  3  2  0
  5  3  1  0
  7  6  1  0
  7  1  1  0
  5  8  1  0
  5  9  1  0
  5 10  1  0
  6 11  1  0
  6 12  1  0
  6 13  1  0
  7 14  1  0
  7 15  1  0
M  END
>  <score>  (9) 
-4.032

$$$$
