=
     RDKit          3D

 72 76  0  0  0  0  0  0  0  0999 V2000
    0.3980   65.4160   70.6350 C   0  0  0  0  0  0  0  0  0  0  0  0
   -0.1990   65.7550   71.8550 C   0  0  0  0  0  0  0  0  0  0  0  0
    0.0160   64.9730   72.9960 C   0  0  0  0  0  0  0  0  0  0  0  0
    0.8270   63.8410   72.9260 C   0  0  0  0  0  0  0  0  0  0  0  0
    1.4050   63.4910   71.7010 C   0  0  0  0  0  0  0  0  0  0  0  0
    1.1930   64.2680   70.5580 C   0  0  0  0  0  0  0  0  0  0  0  0
   -0.8290   66.0370   68.7230 O   0  0  0  0  0  0  0  0  0  0  0  0
    0.1260   66.2790   69.4520 C   0  0  0  0  0  0  0  0  0  0  0  0
    0.9850   67.3360   69.2520 N   0  0  0  0  0  0  0  0  0  0  0  0
    0.9430   68.1310   68.0390 C   0  0  0  0  0  0  0  0  0  0  0  0
    1.6770   69.4690   68.1850 C   0  0  0  0  0  0  0  0  0  0  0  0
    2.9610   69.5220   67.4090 C   0  0  0  0  0  0  0  0  0  0  0  0
    3.1410   69.1020   66.1060 C   0  0  0  0  0  0  0  0  0  0  0  0
    4.4480   69.3150   65.7600 N   0  0  0  0  0  0  0  0  0  0  0  0
    5.1350   69.8610   66.8190 C   0  0  0  0  0  0  0  0  0  0  0  0
    4.2270   70.0120   67.8660 C   0  0  0  0  0  0  0  0  0  0  0  0
    4.6850   70.5690   69.0770 C   0  0  0  0  0  0  0  0  0  0  0  0
    6.0280   70.9480   69.1980 C   0  0  0  0  0  0  0  0  0  0  0  0
    6.9110   70.7810   68.1350 C   0  0  0  0  0  0  0  0  0  0  0  0
    6.4810   70.2350   66.9210 C   0  0  0  0  0  0  0  0  0  0  0  0
    1.1190   62.9870   73.9510 O   0  0  0  0  0  0  0  0  0  0  0  0
    1.0220   63.4610   75.2940 C   0  0  0  0  0  0  0  0  0  0  0  0
   -0.1290   62.7750   76.0270 C   0  0  0  0  0  0  0  0  0  0  0  0
    0.3410   61.5100   76.7480 C   0  0  0  0  0  0  0  0  0  0  0  0
   -0.3420   60.2520   76.2120 C   0  0  0  0  0  0  0  0  0  0  0  0
    0.5940   59.2010   75.9750 O   0  0  0  0  0  0  0  0  0  0  0  0
    1.4040   59.2660   74.8780 C   0  0  0  0  0  0  0  0  0  0  0  0
    0.7390   59.5860   73.6890 C   0  0  0  0  0  0  0  0  0  0  0  0
    1.4340   59.6910   72.4820 C   0  0  0  0  0  0  0  0  0  0  0  0
    2.8120   59.4600   72.4550 C   0  0  0  0  0  0  0  0  0  0  0  0
    3.4860   59.1620   73.6430 C   0  0  0  0  0  0  0  0  0  0  0  0
    2.7830   59.0580   74.8500 C   0  0  0  0  0  0  0  0  0  0  0  0
    3.6020   59.5740   71.2020 C   0  0  0  0  0  0  0  0  0  0  0  0
    3.9850   58.5490   70.6420 O   0  0  0  0  0  0  0  0  0  0  0  0
    3.9390   60.8930   70.6110 C   0  0  0  0  0  0  0  0  0  0  0  0
    4.7440   61.8180   71.2870 C   0  0  0  0  0  0  0  0  0  0  0  0
    5.0260   63.0540   70.7000 C   0  0  0  0  0  0  0  0  0  0  0  0
    4.4970   63.3720   69.4490 C   0  0  0  0  0  0  0  0  0  0  0  0
    3.6770   62.4610   68.7840 C   0  0  0  0  0  0  0  0  0  0  0  0
    3.3920   61.2250   69.3660 C   0  0  0  0  0  0  0  0  0  0  0  0
   -0.8432   66.6444   71.9177 H   0  0  0  0  0  0  0  0  0  0  0  0
   -0.4558   65.2521   73.9497 H   0  0  0  0  0  0  0  0  0  0  0  0
    2.0352   62.5918   71.6361 H   0  0  0  0  0  0  0  0  0  0  0  0
    1.6503   63.9771   69.6008 H   0  0  0  0  0  0  0  0  0  0  0  0
    1.6743   67.5681   69.9813 H   0  0  0  0  0  0  0  0  0  0  0  0
    1.4131   67.5582   67.2260 H   0  0  0  0  0  0  0  0  0  0  0  0
   -0.1125   68.3521   67.8221 H   0  0  0  0  0  0  0  0  0  0  0  0
    1.0168   70.2720   67.8253 H   0  0  0  0  0  0  0  0  0  0  0  0
    1.9303   69.5907   69.2485 H   0  0  0  0  0  0  0  0  0  0  0  0
    2.3657   68.6697   65.4564 H   0  0  0  0  0  0  0  0  0  0  0  0
    4.8576   69.0979   64.8402 H   0  0  0  0  0  0  0  0  0  0  0  0
    3.9928   70.7051   69.9210 H   0  0  0  0  0  0  0  0  0  0  0  0
    6.3884   71.3819   70.1424 H   0  0  0  0  0  0  0  0  0  0  0  0
    7.9624   71.0828   68.2513 H   0  0  0  0  0  0  0  0  0  0  0  0
    7.1746   70.1041   66.0773 H   0  0  0  0  0  0  0  0  0  0  0  0
    1.9637   63.2479   75.8210 H   0  0  0  0  0  0  0  0  0  0  0  0
    0.8326   64.5444   75.2738 H   0  0  0  0  0  0  0  0  0  0  0  0
   -0.5486   63.4730   76.7664 H   0  0  0  0  0  0  0  0  0  0  0  0
   -0.8886   62.4877   75.2851 H   0  0  0  0  0  0  0  0  0  0  0  0
    1.4278   61.4081   76.6123 H   0  0  0  0  0  0  0  0  0  0  0  0
    0.0778   61.6100   77.8113 H   0  0  0  0  0  0  0  0  0  0  0  0
   -1.0841   59.9087   76.9478 H   0  0  0  0  0  0  0  0  0  0  0  0
   -0.8219   60.5048   75.2550 H   0  0  0  0  0  0  0  0  0  0  0  0
   -0.3474   59.7574   73.7052 H   0  0  0  0  0  0  0  0  0  0  0  0
    0.8994   59.9542   71.5574 H   0  0  0  0  0  0  0  0  0  0  0  0
    4.5751   59.0083   73.6298 H   0  0  0  0  0  0  0  0  0  0  0  0
    3.3197   58.8117   75.7781 H   0  0  0  0  0  0  0  0  0  0  0  0
    5.1534   61.5721   72.2779 H   0  0  0  0  0  0  0  0  0  0  0  0
    5.6664   63.7778   71.2253 H   0  0  0  0  0  0  0  0  0  0  0  0
    4.7271   64.3431   68.9863 H   0  0  0  0  0  0  0  0  0  0  0  0
    3.2549   62.7165   67.8009 H   0  0  0  0  0  0  0  0  0  0  0  0
    2.7368   60.5108   68.8458 H   0  0  0  0  0  0  0  0  0  0  0  0
  2  1  2  0
  3  2  1  0
  4  3  2  0
  5  4  1  0
  6  5  2  0
  6  1  1  0
  8  7  2  0
  8  1  1  0
  9  8  1  0
 10  9  1  0
 11 10  1  0
 12 11  1  0
 13 12  2  0
 14 13  1  0
 15 14  1  0
 16 15  2  0
 16 12  1  0
 17 16  1  0
 18 17  2  0
 19 18  1  0
 20 15  1  0
 20 19  2  0
 21  4  1  0
 22 21  1  0
 23 22  1  0
 24 23  1  0
 25 24  1  0
 26 25  1  0
 27 26  1  0
 28 27  2  0
 29 28  1  0
 30 29  2  0
 31 30  1  0
 32 31  2  0
 32 27  1  0
 33 30  1  0
 34 33  2  0
 35 33  1  0
 36 35  2  0
 37 36  1  0
 38 37  2  0
 39 38  1  0
 40 39  2  0
 40 35  1  0
  2 41  1  0
  3 42  1  0
  5 43  1  0
  6 44  1  0
  9 45  1  0
 10 46  1  0
 10 47  1  0
 11 48  1  0
 11 49  1  0
 13 50  1  0
 14 51  1  0
 17 52  1  0
 18 53  1  0
 19 54  1  0
 20 55  1  0
 22 56  1  0
 22 57  1  0
 23 58  1  0
 23 59  1  0
 24 60  1  0
 24 61  1  0
 25 62  1  0
 25 63  1  0
 28 64  1  0
 29 65  1  0
 31 66  1  0
 32 67  1  0
 36 68  1  0
 37 69  1  0
 38 70  1  0
 39 71  1  0
 40 72  1  0
M  END
>  <score>  (1) 
-11.15

$$$$
=
     RDKit          3D

 72 76  0  0  0  0  0  0  0  0999 V2000
    0.3380   66.6650   69.1400 C   0  0  0  0  0  0  0  0  0  0  0  0
   -1.0030   66.5010   68.7740 C   0  0  0  0  0  0  0  0  0  0  0  0
   -1.5770   67.3110   67.7880 C   0  0  0  0  0  0  0  0  0  0  0  0
   -0.8170   68.2980   67.1620 C   0  0  0  0  0  0  0  0  0  0  0  0
    0.5170   68.4750   67.5440 C   0  0  0  0  0  0  0  0  0  0  0  0
    1.0960   67.6690   68.5290 C   0  0  0  0  0  0  0  0  0  0  0  0
    2.0790   65.4670   70.1790 O   0  0  0  0  0  0  0  0  0  0  0  0
    0.8940   65.7800   70.2010 C   0  0  0  0  0  0  0  0  0  0  0  0
    0.0180   65.3660   71.1780 N   0  0  0  0  0  0  0  0  0  0  0  0
    0.3870   64.3560   72.1530 C   0  0  0  0  0  0  0  0  0  0  0  0
   -0.0750   62.9510   71.7500 C   0  0  0  0  0  0  0  0  0  0  0  0
    1.0080   61.9180   71.8730 C   0  0  0  0  0  0  0  0  0  0  0  0
    1.1670   61.0280   72.9170 C   0  0  0  0  0  0  0  0  0  0  0  0
    2.2660   60.2540   72.6600 N   0  0  0  0  0  0  0  0  0  0  0  0
    2.8400   60.6270   71.4680 C   0  0  0  0  0  0  0  0  0  0  0  0
    2.0680   61.6630   70.9450 C   0  0  0  0  0  0  0  0  0  0  0  0
    2.4440   62.2210   69.7060 C   0  0  0  0  0  0  0  0  0  0  0  0
    3.5740   61.7300   69.0420 C   0  0  0  0  0  0  0  0  0  0  0  0
    4.3260   60.6960   69.5920 C   0  0  0  0  0  0  0  0  0  0  0  0
    3.9730   60.1210   70.8180 C   0  0  0  0  0  0  0  0  0  0  0  0
   -1.2440   69.1610   66.1930 O   0  0  0  0  0  0  0  0  0  0  0  0
   -2.3560   68.7880   65.3790 C   0  0  0  0  0  0  0  0  0  0  0  0
   -2.0650   69.0730   63.9060 C   0  0  0  0  0  0  0  0  0  0  0  0
   -0.6150   68.7420   63.5470 C   0  0  0  0  0  0  0  0  0  0  0  0
   -0.2010   69.3410   62.2030 C   0  0  0  0  0  0  0  0  0  0  0  0
    1.0230   68.7810   61.7270 O   0  0  0  0  0  0  0  0  0  0  0  0
    2.1370   68.8520   62.5130 C   0  0  0  0  0  0  0  0  0  0  0  0
    1.8730   68.8540   63.8870 C   0  0  0  0  0  0  0  0  0  0  0  0
    2.9130   68.9220   64.8180 C   0  0  0  0  0  0  0  0  0  0  0  0
    4.2350   69.0030   64.3750 C   0  0  0  0  0  0  0  0  0  0  0  0
    4.5060   68.9790   63.0030 C   0  0  0  0  0  0  0  0  0  0  0  0
    3.4600   68.9110   62.0750 C   0  0  0  0  0  0  0  0  0  0  0  0
    5.3770   69.0610   65.3210 C   0  0  0  0  0  0  0  0  0  0  0  0
    6.4210   68.4780   65.0370 O   0  0  0  0  0  0  0  0  0  0  0  0
    5.2900   69.8070   66.6020 C   0  0  0  0  0  0  0  0  0  0  0  0
    4.1380   69.7710   67.3970 C   0  0  0  0  0  0  0  0  0  0  0  0
    4.0930   70.4980   68.5890 C   0  0  0  0  0  0  0  0  0  0  0  0
    5.1880   71.2690   68.9810 C   0  0  0  0  0  0  0  0  0  0  0  0
    6.3280   71.3240   68.1800 C   0  0  0  0  0  0  0  0  0  0  0  0
    6.3780   70.5990   66.9880 C   0  0  0  0  0  0  0  0  0  0  0  0
   -1.6114   65.7280   69.2662 H   0  0  0  0  0  0  0  0  0  0  0  0
   -2.6307   67.1687   67.5060 H   0  0  0  0  0  0  0  0  0  0  0  0
    1.1192   69.2596   67.0625 H   0  0  0  0  0  0  0  0  0  0  0  0
    2.1447   67.8242   68.8225 H   0  0  0  0  0  0  0  0  0  0  0  0
   -0.9229   65.7831   71.2185 H   0  0  0  0  0  0  0  0  0  0  0  0
    1.4820   64.3504   72.2573 H   0  0  0  0  0  0  0  0  0  0  0  0
   -0.1095   64.6109   73.1009 H   0  0  0  0  0  0  0  0  0  0  0  0
   -0.9135   62.6584   72.3990 H   0  0  0  0  0  0  0  0  0  0  0  0
   -0.3698   62.9933   70.6911 H   0  0  0  0  0  0  0  0  0  0  0  0
    0.5205   60.9539   73.8039 H   0  0  0  0  0  0  0  0  0  0  0  0
    2.6128   59.5010   73.2713 H   0  0  0  0  0  0  0  0  0  0  0  0
    1.8531   63.0369   69.2641 H   0  0  0  0  0  0  0  0  0  0  0  0
    3.8706   62.1654   68.0764 H   0  0  0  0  0  0  0  0  0  0  0  0
    5.2113   60.3251   69.0548 H   0  0  0  0  0  0  0  0  0  0  0  0
    4.5633   59.3021   71.2550 H   0  0  0  0  0  0  0  0  0  0  0  0
   -2.5532   67.7134   65.5070 H   0  0  0  0  0  0  0  0  0  0  0  0
   -3.2334   69.3757   65.6869 H   0  0  0  0  0  0  0  0  0  0  0  0
   -2.7357   68.4617   63.2843 H   0  0  0  0  0  0  0  0  0  0  0  0
   -2.2300   70.1450   63.7226 H   0  0  0  0  0  0  0  0  0  0  0  0
    0.0442   69.1424   64.3313 H   0  0  0  0  0  0  0  0  0  0  0  0
   -0.5277   67.6482   63.4701 H   0  0  0  0  0  0  0  0  0  0  0  0
   -0.9933   69.1433   61.4660 H   0  0  0  0  0  0  0  0  0  0  0  0
   -0.0510   70.4218   62.3422 H   0  0  0  0  0  0  0  0  0  0  0  0
    0.8323   68.8013   64.2394 H   0  0  0  0  0  0  0  0  0  0  0  0
    2.6913   68.9118   65.8954 H   0  0  0  0  0  0  0  0  0  0  0  0
    5.5476   69.0138   62.6509 H   0  0  0  0  0  0  0  0  0  0  0  0
    3.6820   68.9041   60.9977 H   0  0  0  0  0  0  0  0  0  0  0  0
    3.2705   69.1717   67.0837 H   0  0  0  0  0  0  0  0  0  0  0  0
    3.1926   70.4626   69.2199 H   0  0  0  0  0  0  0  0  0  0  0  0
    5.1518   71.8345   69.9238 H   0  0  0  0  0  0  0  0  0  0  0  0
    7.1873   71.9382   68.4871 H   0  0  0  0  0  0  0  0  0  0  0  0
    7.2735   70.6501   66.3512 H   0  0  0  0  0  0  0  0  0  0  0  0
  2  1  2  0
  3  2  1  0
  4  3  2  0
  5  4  1  0
  6  5  2  0
  6  1  1  0
  8  7  2  0
  8  1  1  0
  9  8  1  0
 10  9  1  0
 11 10  1  0
 12 11  1  0
 13 12  2  0
 14 13  1  0
 15 14  1  0
 16 15  2  0
 16 12  1  0
 17 16  1  0
 18 17  2  0
 19 18  1  0
 20 15  1  0
 20 19  2  0
 21  4  1  0
 22 21  1  0
 23 22  1  0
 24 23  1  0
 25 24  1  0
 26 25  1  0
 27 26  1  0
 28 27  2  0
 29 28  1  0
 30 29  2  0
 31 30  1  0
 32 31  2  0
 32 27  1  0
 33 30  1  0
 34 33  2  0
 35 33  1  0
 36 35  2  0
 37 36  1  0
 38 37  2  0
 39 38  1  0
 40 39  2  0
 40 35  1  0
  2 41  1  0
  3 42  1  0
  5 43  1  0
  6 44  1  0
  9 45  1  0
 10 46  1  0
 10 47  1  0
 11 48  1  0
 11 49  1  0
 13 50  1  0
 14 51  1  0
 17 52  1  0
 18 53  1  0
 19 54  1  0
 20 55  1  0
 22 56  1  0
 22 57  1  0
 23 58  1  0
 23 59  1  0
 24 60  1  0
 24 61  1  0
 25 62  1  0
 25 63  1  0
 28 64  1  0
 29 65  1  0
 31 66  1  0
 32 67  1  0
 36 68  1  0
 37 69  1  0
 38 70  1  0
 39 71  1  0
 40 72  1  0
M  END
>  <score>  (2) 
-10.474

$$$$
=
     RDKit          3D

 72 76  0  0  0  0  0  0  0  0999 V2000
    2.8520   61.5710   71.6110 C   0  0  0  0  0  0  0  0  0  0  0  0
    3.8740   62.3550   71.0630 C   0  0  0  0  0  0  0  0  0  0  0  0
    3.5910   63.6100   70.5100 C   0  0  0  0  0  0  0  0  0  0  0  0
    2.2810   64.0890   70.4950 C   0  0  0  0  0  0  0  0  0  0  0  0
    1.2590   63.2940   71.0240 C   0  0  0  0  0  0  0  0  0  0  0  0
    1.5360   62.0400   71.5770 C   0  0  0  0  0  0  0  0  0  0  0  0
    4.1910   59.6390   71.7560 O   0  0  0  0  0  0  0  0  0  0  0  0
    3.2110   60.2410   72.1780 C   0  0  0  0  0  0  0  0  0  0  0  0
    2.4010   59.7620   73.1830 N   0  0  0  0  0  0  0  0  0  0  0  0
    2.5300   58.4050   73.6830 C   0  0  0  0  0  0  0  0  0  0  0  0
    1.4130   57.4830   73.1810 C   0  0  0  0  0  0  0  0  0  0  0  0
    0.1370   57.6290   73.9580 C   0  0  0  0  0  0  0  0  0  0  0  0
   -0.4080   56.6890   74.8110 C   0  0  0  0  0  0  0  0  0  0  0  0
   -1.5700   57.1960   75.3250 N   0  0  0  0  0  0  0  0  0  0  0  0
   -1.8070   58.4510   74.8170 C   0  0  0  0  0  0  0  0  0  0  0  0
   -0.7480   58.7550   73.9620 C   0  0  0  0  0  0  0  0  0  0  0  0
   -0.7460   60.0070   73.3140 C   0  0  0  0  0  0  0  0  0  0  0  0
   -1.8000   60.9030   73.5390 C   0  0  0  0  0  0  0  0  0  0  0  0
   -2.8440   60.5670   74.3970 C   0  0  0  0  0  0  0  0  0  0  0  0
   -2.8680   59.3330   75.0550 C   0  0  0  0  0  0  0  0  0  0  0  0
    1.8590   65.2840   69.9860 O   0  0  0  0  0  0  0  0  0  0  0  0
    0.5340   65.7290   70.2780 C   0  0  0  0  0  0  0  0  0  0  0  0
    0.1190   66.8490   69.3260 C   0  0  0  0  0  0  0  0  0  0  0  0
   -1.0700   66.4340   68.4580 C   0  0  0  0  0  0  0  0  0  0  0  0
   -1.2070   67.3070   67.2100 C   0  0  0  0  0  0  0  0  0  0  0  0
   -0.3770   66.8450   66.1450 O   0  0  0  0  0  0  0  0  0  0  0  0
    0.8530   67.4110   65.9660 C   0  0  0  0  0  0  0  0  0  0  0  0
    1.0200   68.6410   66.6110 C   0  0  0  0  0  0  0  0  0  0  0  0
    2.2250   69.3410   66.5220 C   0  0  0  0  0  0  0  0  0  0  0  0
    3.2770   68.8170   65.7670 C   0  0  0  0  0  0  0  0  0  0  0  0
    3.1230   67.5770   65.1380 C   0  0  0  0  0  0  0  0  0  0  0  0
    1.9130   66.8790   65.2310 C   0  0  0  0  0  0  0  0  0  0  0  0
    4.5830   69.5120   65.6520 C   0  0  0  0  0  0  0  0  0  0  0  0
    5.0750   69.6810   64.5380 O   0  0  0  0  0  0  0  0  0  0  0  0
    5.3100   70.0090   66.8480 C   0  0  0  0  0  0  0  0  0  0  0  0
    6.6940   70.2160   66.8350 C   0  0  0  0  0  0  0  0  0  0  0  0
    7.3400   70.6710   67.9860 C   0  0  0  0  0  0  0  0  0  0  0  0
    6.6110   70.9080   69.1510 C   0  0  0  0  0  0  0  0  0  0  0  0
    5.2340   70.6820   69.1730 C   0  0  0  0  0  0  0  0  0  0  0  0
    4.5850   70.2260   68.0250 C   0  0  0  0  0  0  0  0  0  0  0  0
    4.9088   61.9819   71.0668 H   0  0  0  0  0  0  0  0  0  0  0  0
    4.4032   64.2192   70.0867 H   0  0  0  0  0  0  0  0  0  0  0  0
    0.2221   63.6607   71.0047 H   0  0  0  0  0  0  0  0  0  0  0  0
    0.7204   61.4244   71.9841 H   0  0  0  0  0  0  0  0  0  0  0  0
    1.6859   60.3815   73.5902 H   0  0  0  0  0  0  0  0  0  0  0  0
    3.4974   57.9984   73.3530 H   0  0  0  0  0  0  0  0  0  0  0  0
    2.4601   58.4462   74.7800 H   0  0  0  0  0  0  0  0  0  0  0  0
    1.2101   57.7206   72.1263 H   0  0  0  0  0  0  0  0  0  0  0  0
    1.7594   56.4469   73.3098 H   0  0  0  0  0  0  0  0  0  0  0  0
    0.0195   55.7012   75.0382 H   0  0  0  0  0  0  0  0  0  0  0  0
   -2.1797   56.7075   75.9962 H   0  0  0  0  0  0  0  0  0  0  0  0
    0.0770   60.2788   72.6366 H   0  0  0  0  0  0  0  0  0  0  0  0
   -1.8025   61.8800   73.0335 H   0  0  0  0  0  0  0  0  0  0  0  0
   -3.6627   61.2833   74.5599 H   0  0  0  0  0  0  0  0  0  0  0  0
   -3.6904   59.0652   75.7347 H   0  0  0  0  0  0  0  0  0  0  0  0
   -0.1629   64.8850   70.1683 H   0  0  0  0  0  0  0  0  0  0  0  0
    0.5088   66.1130   71.3085 H   0  0  0  0  0  0  0  0  0  0  0  0
   -0.1606   67.7344   69.9158 H   0  0  0  0  0  0  0  0  0  0  0  0
    0.9687   67.0723   68.6641 H   0  0  0  0  0  0  0  0  0  0  0  0
   -0.9325   65.3883   68.1455 H   0  0  0  0  0  0  0  0  0  0  0  0
   -1.9843   66.5559   69.0573 H   0  0  0  0  0  0  0  0  0  0  0  0
   -2.2553   67.2900   66.8772 H   0  0  0  0  0  0  0  0  0  0  0  0
   -0.8909   68.3278   67.4710 H   0  0  0  0  0  0  0  0  0  0  0  0
    0.1901   69.0629   67.1968 H   0  0  0  0  0  0  0  0  0  0  0  0
    2.3454   70.3015   67.0445 H   0  0  0  0  0  0  0  0  0  0  0  0
    3.9587   67.1473   64.5662 H   0  0  0  0  0  0  0  0  0  0  0  0
    1.7978   65.9097   64.7239 H   0  0  0  0  0  0  0  0  0  0  0  0
    7.2718   70.0206   65.9196 H   0  0  0  0  0  0  0  0  0  0  0  0
    8.4264   70.8429   67.9739 H   0  0  0  0  0  0  0  0  0  0  0  0
    7.1221   71.2736   70.0539 H   0  0  0  0  0  0  0  0  0  0  0  0
    4.6609   70.8631   70.0943 H   0  0  0  0  0  0  0  0  0  0  0  0
    3.5016   70.0368   68.0453 H   0  0  0  0  0  0  0  0  0  0  0  0
  2  1  2  0
  3  2  1  0
  4  3  2  0
  5  4  1  0
  6  5  2  0
  6  1  1  0
  8  7  2  0
  8  1  1  0
  9  8  1  0
 10  9  1  0
 11 10  1  0
 12 11  1  0
 13 12  2  0
 14 13  1  0
 15 14  1  0
 16 15  2  0
 16 12  1  0
 17 16  1  0
 18 17  2  0
 19 18  1  0
 20 15  1  0
 20 19  2  0
 21  4  1  0
 22 21  1  0
 23 22  1  0
 24 23  1  0
 25 24  1  0
 26 25  1  0
 27 26  1  0
 28 27  2  0
 29 28  1  0
 30 29  2  0
 31 30  1  0
 32 31  2  0
 32 27  1  0
 33 30  1  0
 34 33  2  0
 35 33  1  0
 36 35  2  0
 37 36  1  0
 38 37  2  0
 39 38  1  0
 40 39  2  0
 40 35  1  0
  2 41  1  0
  3 42  1  0
  5 43  1  0
  6 44  1  0
  9 45  1  0
 10 46  1  0
 10 47  1  0
 11 48  1  0
 11 49  1  0
 13 50  1  0
 14 51  1  0
 17 52  1  0
 18 53  1  0
 19 54  1  0
 20 55  1  0
 22 56  1  0
 22 57  1  0
 23 58  1  0
 23 59  1  0
 24 60  1  0
 24 61  1  0
 25 62  1  0
 25 63  1  0
 28 64  1  0
 29 65  1  0
 31 66  1  0
 32 67  1  0
 36 68  1  0
 37 69  1  0
 38 70  1  0
 39 71  1  0
 40 72  1  0
M  END
>  <score>  (3) 
-10.389

$$$$
=
     RDKit          3D

 72 76  0  0  0  0  0  0  0  0999 V2000
    0.2660   65.7290   70.3170 C   0  0  0  0  0  0  0  0  0  0  0  0
    1.0320   64.5710   70.1360 C   0  0  0  0  0  0  0  0  0  0  0  0
    1.2700   63.6990   71.2060 C   0  0  0  0  0  0  0  0  0  0  0  0
    0.7490   63.9810   72.4680 C   0  0  0  0  0  0  0  0  0  0  0  0
    0.0010   65.1500   72.6510 C   0  0  0  0  0  0  0  0  0  0  0  0
   -0.2390   66.0240   71.5870 C   0  0  0  0  0  0  0  0  0  0  0  0
   -0.9040   66.4400   68.4010 O   0  0  0  0  0  0  0  0  0  0  0  0
    0.0520   66.6230   69.1460 C   0  0  0  0  0  0  0  0  0  0  0  0
    0.9630   67.6410   68.9740 N   0  0  0  0  0  0  0  0  0  0  0  0
    0.9750   68.4570   67.7740 C   0  0  0  0  0  0  0  0  0  0  0  0
    1.6710   67.7650   66.5960 C   0  0  0  0  0  0  0  0  0  0  0  0
    2.8700   68.5170   66.0980 C   0  0  0  0  0  0  0  0  0  0  0  0
    3.6330   69.4080   66.8280 C   0  0  0  0  0  0  0  0  0  0  0  0
    4.6320   69.8820   66.0230 N   0  0  0  0  0  0  0  0  0  0  0  0
    4.5350   69.3250   64.7690 C   0  0  0  0  0  0  0  0  0  0  0  0
    3.4440   68.4570   64.7870 C   0  0  0  0  0  0  0  0  0  0  0  0
    3.1350   67.7440   63.6110 C   0  0  0  0  0  0  0  0  0  0  0  0
    3.9190   67.9280   62.4660 C   0  0  0  0  0  0  0  0  0  0  0  0
    5.0000   68.8050   62.4800 C   0  0  0  0  0  0  0  0  0  0  0  0
    5.3320   69.5210   63.6340 C   0  0  0  0  0  0  0  0  0  0  0  0
    0.9040   63.2290   73.5980 O   0  0  0  0  0  0  0  0  0  0  0  0
   -0.2490   62.9040   74.3740 C   0  0  0  0  0  0  0  0  0  0  0  0
   -0.0360   63.2780   75.8390 C   0  0  0  0  0  0  0  0  0  0  0  0
    0.2950   62.0500   76.6890 C   0  0  0  0  0  0  0  0  0  0  0  0
   -0.4770   60.8100   76.2370 C   0  0  0  0  0  0  0  0  0  0  0  0
    0.3890   59.6960   76.0210 O   0  0  0  0  0  0  0  0  0  0  0  0
    1.2540   59.7210   74.9640 C   0  0  0  0  0  0  0  0  0  0  0  0
    0.6350   59.6380   73.7120 C   0  0  0  0  0  0  0  0  0  0  0  0
    1.3890   59.6520   72.5360 C   0  0  0  0  0  0  0  0  0  0  0  0
    2.7820   59.7370   72.6070 C   0  0  0  0  0  0  0  0  0  0  0  0
    3.4040   59.8420   73.8550 C   0  0  0  0  0  0  0  0  0  0  0  0
    2.6430   59.8270   75.0310 C   0  0  0  0  0  0  0  0  0  0  0  0
    3.6290   59.7720   71.3890 C   0  0  0  0  0  0  0  0  0  0  0  0
    4.1400   58.7290   70.9840 O   0  0  0  0  0  0  0  0  0  0  0  0
    3.8750   61.0340   70.6470 C   0  0  0  0  0  0  0  0  0  0  0  0
    3.3920   61.2300   69.3470 C   0  0  0  0  0  0  0  0  0  0  0  0
    3.6570   62.4280   68.6800 C   0  0  0  0  0  0  0  0  0  0  0  0
    4.4100   63.4240   69.3010 C   0  0  0  0  0  0  0  0  0  0  0  0
    4.9110   63.2230   70.5880 C   0  0  0  0  0  0  0  0  0  0  0  0
    4.6490   62.0270   71.2580 C   0  0  0  0  0  0  0  0  0  0  0  0
    1.4507   64.3440   69.1445 H   0  0  0  0  0  0  0  0  0  0  0  0
    1.8692   62.7898   71.0502 H   0  0  0  0  0  0  0  0  0  0  0  0
   -0.4038   65.3842   73.6466 H   0  0  0  0  0  0  0  0  0  0  0  0
   -0.8237   66.9416   71.7484 H   0  0  0  0  0  0  0  0  0  0  0  0
    1.6531   67.8280   69.7154 H   0  0  0  0  0  0  0  0  0  0  0  0
   -0.0639   68.6784   67.4884 H   0  0  0  0  0  0  0  0  0  0  0  0
    1.5382   69.3742   68.0010 H   0  0  0  0  0  0  0  0  0  0  0  0
    1.9943   66.7644   66.9189 H   0  0  0  0  0  0  0  0  0  0  0  0
    0.9470   67.7164   65.7692 H   0  0  0  0  0  0  0  0  0  0  0  0
    3.4655   69.6885   67.8783 H   0  0  0  0  0  0  0  0  0  0  0  0
    5.3526   70.5581   66.3137 H   0  0  0  0  0  0  0  0  0  0  0  0
    2.2836   67.0477   63.5931 H   0  0  0  0  0  0  0  0  0  0  0  0
    3.6786   67.3743   61.5464 H   0  0  0  0  0  0  0  0  0  0  0  0
    5.6023   68.9367   61.5690 H   0  0  0  0  0  0  0  0  0  0  0  0
    6.1873   70.2125   63.6500 H   0  0  0  0  0  0  0  0  0  0  0  0
   -1.1155   63.4570   73.9824 H   0  0  0  0  0  0  0  0  0  0  0  0
   -0.4263   61.8204   74.3076 H   0  0  0  0  0  0  0  0  0  0  0  0
    0.7956   63.9948   75.9076 H   0  0  0  0  0  0  0  0  0  0  0  0
   -0.9676   63.7210   76.2209 H   0  0  0  0  0  0  0  0  0  0  0  0
    1.3728   61.8446   76.6102 H   0  0  0  0  0  0  0  0  0  0  0  0
    0.0042   62.2692   77.7270 H   0  0  0  0  0  0  0  0  0  0  0  0
   -1.2110   60.5453   77.0123 H   0  0  0  0  0  0  0  0  0  0  0  0
   -0.9751   61.0455   75.2849 H   0  0  0  0  0  0  0  0  0  0  0  0
   -0.4607   59.5606   73.6528 H   0  0  0  0  0  0  0  0  0  0  0  0
    0.8882   59.5963   71.5582 H   0  0  0  0  0  0  0  0  0  0  0  0
    4.4983   59.9370   73.9137 H   0  0  0  0  0  0  0  0  0  0  0  0
    3.1417   59.8989   76.0088 H   0  0  0  0  0  0  0  0  0  0  0  0
    2.8052   60.4420   68.8524 H   0  0  0  0  0  0  0  0  0  0  0  0
    3.2708   62.5864   67.6623 H   0  0  0  0  0  0  0  0  0  0  0  0
    4.6094   64.3696   68.7756 H   0  0  0  0  0  0  0  0  0  0  0  0
    5.5116   64.0062   71.0737 H   0  0  0  0  0  0  0  0  0  0  0  0
    5.0518   61.8645   72.2686 H   0  0  0  0  0  0  0  0  0  0  0  0
  2  1  2  0
  3  2  1  0
  4  3  2  0
  5  4  1  0
  6  5  2  0
  6  1  1  0
  8  7  2  0
  8  1  1  0
  9  8  1  0
 10  9  1  0
 11 10  1  0
 12 11  1  0
 13 12  2  0
 14 13  1  0
 15 14  1  0
 16 15  2  0
 16 12  1  0
 17 16  1  0
 18 17  2  0
 19 18  1  0
 20 15  1  0
 20 19  2  0
 21  4  1  0
 22 21  1  0
 23 22  1  0
 24 23  1  0
 25 24  1  0
 26 25  1  0
 27 26  1  0
 28 27  2  0
 29 28  1  0
 30 29  2  0
 31 30  1  0
 32 31  2  0
 32 27  1  0
 33 30  1  0
 34 33  2  0
 35 33  1  0
 36 35  2  0
 37 36  1  0
 38 37  2  0
 39 38  1  0
 40 39  2  0
 40 35  1  0
  2 41  1  0
  3 42  1  0
  5 43  1  0
  6 44  1  0
  9 45  1  0
 10 46  1  0
 10 47  1  0
 11 48  1  0
 11 49  1  0
 13 50  1  0
 14 51  1  0
 17 52  1  0
 18 53  1  0
 19 54  1  0
 20 55  1  0
 22 56  1  0
 22 57  1  0
 23 58  1  0
 23 59  1  0
 24 60  1  0
 24 61  1  0
 25 62  1  0
 25 63  1  0
 28 64  1  0
 29 65  1  0
 31 66  1  0
 32 67  1  0
 36 68  1  0
 37 69  1  0
 38 70  1  0
 39 71  1  0
 40 72  1  0
M  END
>  <score>  (4) 
-10.104

$$$$
=
     RDKit          3D

 72 76  0  0  0  0  0  0  0  0999 V2000
   -0.2480   67.8680   67.1750 C   0  0  0  0  0  0  0  0  0  0  0  0
   -1.2000   67.0010   67.7250 C   0  0  0  0  0  0  0  0  0  0  0  0
   -0.9400   66.3230   68.9220 C   0  0  0  0  0  0  0  0  0  0  0  0
    0.2780   66.5010   69.5770 C   0  0  0  0  0  0  0  0  0  0  0  0
    1.2360   67.3510   69.0150 C   0  0  0  0  0  0  0  0  0  0  0  0
    0.9820   68.0310   67.8190 C   0  0  0  0  0  0  0  0  0  0  0  0
   -1.6810   69.0640   65.7380 O   0  0  0  0  0  0  0  0  0  0  0  0
   -0.5760   68.5560   65.8960 C   0  0  0  0  0  0  0  0  0  0  0  0
    0.4180   68.5930   64.9440 N   0  0  0  0  0  0  0  0  0  0  0  0
    0.1630   69.0630   63.5950 C   0  0  0  0  0  0  0  0  0  0  0  0
    0.9150   68.2490   62.5350 C   0  0  0  0  0  0  0  0  0  0  0  0
    2.3710   68.6050   62.4460 C   0  0  0  0  0  0  0  0  0  0  0  0
    3.1140   68.7020   61.2850 C   0  0  0  0  0  0  0  0  0  0  0  0
    4.3950   69.0460   61.6210 N   0  0  0  0  0  0  0  0  0  0  0  0
    4.5120   69.1680   62.9860 C   0  0  0  0  0  0  0  0  0  0  0  0
    3.2550   68.9050   63.5310 C   0  0  0  0  0  0  0  0  0  0  0  0
    3.1030   68.9770   64.9310 C   0  0  0  0  0  0  0  0  0  0  0  0
    4.2060   69.3010   65.7300 C   0  0  0  0  0  0  0  0  0  0  0  0
    5.4490   69.5540   65.1540 C   0  0  0  0  0  0  0  0  0  0  0  0
    5.6260   69.4940   63.7680 C   0  0  0  0  0  0  0  0  0  0  0  0
    0.6690   65.9040   70.7420 O   0  0  0  0  0  0  0  0  0  0  0  0
    0.7990   64.4830   70.7780 C   0  0  0  0  0  0  0  0  0  0  0  0
    2.2390   64.0660   70.4800 C   0  0  0  0  0  0  0  0  0  0  0  0
    2.2940   62.7140   69.7660 C   0  0  0  0  0  0  0  0  0  0  0  0
    3.6890   62.4040   69.2220 C   0  0  0  0  0  0  0  0  0  0  0  0
    4.5900   62.0210   70.2610 O   0  0  0  0  0  0  0  0  0  0  0  0
    4.2080   61.0600   71.1520 C   0  0  0  0  0  0  0  0  0  0  0  0
    4.2130   61.4790   72.4880 C   0  0  0  0  0  0  0  0  0  0  0  0
    3.8450   60.6070   73.5150 C   0  0  0  0  0  0  0  0  0  0  0  0
    3.4800   59.2930   73.2110 C   0  0  0  0  0  0  0  0  0  0  0  0
    3.4520   58.8760   71.8770 C   0  0  0  0  0  0  0  0  0  0  0  0
    3.8220   59.7540   70.8510 C   0  0  0  0  0  0  0  0  0  0  0  0
    3.0660   58.3310   74.2630 C   0  0  0  0  0  0  0  0  0  0  0  0
    3.7640   58.2030   75.2670 O   0  0  0  0  0  0  0  0  0  0  0  0
    1.8290   57.5190   74.1320 C   0  0  0  0  0  0  0  0  0  0  0  0
    0.5630   58.1130   74.0660 C   0  0  0  0  0  0  0  0  0  0  0  0
   -0.5760   57.3120   73.9570 C   0  0  0  0  0  0  0  0  0  0  0  0
   -0.4540   55.9220   73.9250 C   0  0  0  0  0  0  0  0  0  0  0  0
    0.8050   55.3280   74.0120 C   0  0  0  0  0  0  0  0  0  0  0  0
    1.9450   56.1240   74.1220 C   0  0  0  0  0  0  0  0  0  0  0  0
   -2.1613   66.8512   67.2117 H   0  0  0  0  0  0  0  0  0  0  0  0
   -1.6981   65.6485   69.3466 H   0  0  0  0  0  0  0  0  0  0  0  0
    2.2033   67.4869   69.5208 H   0  0  0  0  0  0  0  0  0  0  0  0
    1.7478   68.6919   67.3867 H   0  0  0  0  0  0  0  0  0  0  0  0
    1.3662   68.2793   65.1956 H   0  0  0  0  0  0  0  0  0  0  0  0
   -0.9162   68.9905   63.3948 H   0  0  0  0  0  0  0  0  0  0  0  0
    0.5185   70.1020   63.5314 H   0  0  0  0  0  0  0  0  0  0  0  0
    0.8299   67.1817   62.7871 H   0  0  0  0  0  0  0  0  0  0  0  0
    0.4600   68.4782   61.5601 H   0  0  0  0  0  0  0  0  0  0  0  0
    2.7396   68.5317   60.2648 H   0  0  0  0  0  0  0  0  0  0  0  0
    5.1613   69.1925   60.9486 H   0  0  0  0  0  0  0  0  0  0  0  0
    2.1241   68.7799   65.3924 H   0  0  0  0  0  0  0  0  0  0  0  0
    4.0901   69.3563   66.8225 H   0  0  0  0  0  0  0  0  0  0  0  0
    6.3041   69.8047   65.7990 H   0  0  0  0  0  0  0  0  0  0  0  0
    6.6052   69.6957   63.3092 H   0  0  0  0  0  0  0  0  0  0  0  0
    0.5169   64.1195   71.7772 H   0  0  0  0  0  0  0  0  0  0  0  0
    0.1386   64.0473   70.0137 H   0  0  0  0  0  0  0  0  0  0  0  0
    2.7066   64.8281   69.8392 H   0  0  0  0  0  0  0  0  0  0  0  0
    2.7769   63.9744   71.4352 H   0  0  0  0  0  0  0  0  0  0  0  0
    2.0082   61.9256   70.4779 H   0  0  0  0  0  0  0  0  0  0  0  0
    1.6004   62.7542   68.9132 H   0  0  0  0  0  0  0  0  0  0  0  0
    3.6132   61.5817   68.4953 H   0  0  0  0  0  0  0  0  0  0  0  0
    4.0815   63.3156   68.7478 H   0  0  0  0  0  0  0  0  0  0  0  0
    4.5109   62.5094   72.7321 H   0  0  0  0  0  0  0  0  0  0  0  0
    3.8425   60.9533   74.5591 H   0  0  0  0  0  0  0  0  0  0  0  0
    3.1371   57.8510   71.6317 H   0  0  0  0  0  0  0  0  0  0  0  0
    3.8082   59.4130   69.8053 H   0  0  0  0  0  0  0  0  0  0  0  0
    0.4655   59.2081   74.0999 H   0  0  0  0  0  0  0  0  0  0  0  0
   -1.5708   57.7774   73.8963 H   0  0  0  0  0  0  0  0  0  0  0  0
   -1.3522   55.2940   73.8310 H   0  0  0  0  0  0  0  0  0  0  0  0
    0.8988   54.2322   73.9939 H   0  0  0  0  0  0  0  0  0  0  0  0
    2.9368   55.6549   74.2010 H   0  0  0  0  0  0  0  0  0  0  0  0
  2  1  2  0
  3  2  1  0
  4  3  2  0
  5  4  1  0
  6  5  2  0
  6  1  1  0
  8  7  2  0
  8  1  1  0
  9  8  1  0
 10  9  1  0
 11 10  1  0
 12 11  1  0
 13 12  2  0
 14 13  1  0
 15 14  1  0
 16 15  2  0
 16 12  1  0
 17 16  1  0
 18 17  2  0
 19 18  1  0
 20 15  1  0
 20 19  2  0
 21  4  1  0
 22 21  1  0
 23 22  1  0
 24 23  1  0
 25 24  1  0
 26 25  1  0
 27 26  1  0
 28 27  2  0
 29 28  1  0
 30 29  2  0
 31 30  1  0
 32 31  2  0
 32 27  1  0
 33 30  1  0
 34 33  2  0
 35 33  1  0
 36 35  2  0
 37 36  1  0
 38 37  2  0
 39 38  1  0
 40 39  2  0
 40 35  1  0
  2 41  1  0
  3 42  1  0
  5 43  1  0
  6 44  1  0
  9 45  1  0
 10 46  1  0
 10 47  1  0
 11 48  1  0
 11 49  1  0
 13 50  1  0
 14 51  1  0
 17 52  1  0
 18 53  1  0
 19 54  1  0
 20 55  1  0
 22 56  1  0
 22 57  1  0
 23 58  1  0
 23 59  1  0
 24 60  1  0
 24 61  1  0
 25 62  1  0
 25 63  1  0
 28 64  1  0
 29 65  1  0
 31 66  1  0
 32 67  1  0
 36 68  1  0
 37 69  1  0
 38 70  1  0
 39 71  1  0
 40 72  1  0
M  END
>  <score>  (5) 
-10.018

$$$$
=
     RDKit          3D

 72 76  0  0  0  0  0  0  0  0999 V2000
    0.5870   65.5190   70.6490 C   0  0  0  0  0  0  0  0  0  0  0  0
    0.8760   64.2130   70.2390 C   0  0  0  0  0  0  0  0  0  0  0  0
    0.6220   63.1270   71.0850 C   0  0  0  0  0  0  0  0  0  0  0  0
    0.0820   63.3390   72.3530 C   0  0  0  0  0  0  0  0  0  0  0  0
   -0.1870   64.6480   72.7700 C   0  0  0  0  0  0  0  0  0  0  0  0
    0.0660   65.7360   71.9290 C   0  0  0  0  0  0  0  0  0  0  0  0
    1.8660   67.3480   69.8960 O   0  0  0  0  0  0  0  0  0  0  0  0
    0.8850   66.6360   69.7100 C   0  0  0  0  0  0  0  0  0  0  0  0
    0.0210   66.7980   68.6510 N   0  0  0  0  0  0  0  0  0  0  0  0
    0.0920   67.9560   67.7800 C   0  0  0  0  0  0  0  0  0  0  0  0
    0.0760   67.5790   66.2940 C   0  0  0  0  0  0  0  0  0  0  0  0
    1.3880   67.8290   65.6100 C   0  0  0  0  0  0  0  0  0  0  0  0
    1.7650   67.3440   64.3730 C   0  0  0  0  0  0  0  0  0  0  0  0
    3.0290   67.7930   64.1000 N   0  0  0  0  0  0  0  0  0  0  0  0
    3.4960   68.5590   65.1430 C   0  0  0  0  0  0  0  0  0  0  0  0
    2.4850   68.6080   66.1020 C   0  0  0  0  0  0  0  0  0  0  0  0
    2.7120   69.3500   67.2790 C   0  0  0  0  0  0  0  0  0  0  0  0
    3.9350   70.0080   67.4560 C   0  0  0  0  0  0  0  0  0  0  0  0
    4.9260   69.9360   66.4800 C   0  0  0  0  0  0  0  0  0  0  0  0
    4.7250   69.2100   65.3010 C   0  0  0  0  0  0  0  0  0  0  0  0
   -0.2110   62.3810   73.2820 O   0  0  0  0  0  0  0  0  0  0  0  0
   -1.0360   61.2800   72.9020 C   0  0  0  0  0  0  0  0  0  0  0  0
   -2.1180   61.0290   73.9510 C   0  0  0  0  0  0  0  0  0  0  0  0
   -2.0330   59.6090   74.5140 C   0  0  0  0  0  0  0  0  0  0  0  0
   -1.0330   59.5030   75.6660 C   0  0  0  0  0  0  0  0  0  0  0  0
    0.0940   58.7000   75.3180 O   0  0  0  0  0  0  0  0  0  0  0  0
    1.1360   59.2710   74.6450 C   0  0  0  0  0  0  0  0  0  0  0  0
    1.4250   58.6710   73.4150 C   0  0  0  0  0  0  0  0  0  0  0  0
    2.4640   59.1450   72.6100 C   0  0  0  0  0  0  0  0  0  0  0  0
    3.2370   60.2240   73.0430 C   0  0  0  0  0  0  0  0  0  0  0  0
    2.9400   60.8420   74.2620 C   0  0  0  0  0  0  0  0  0  0  0  0
    1.8970   60.3620   75.0640 C   0  0  0  0  0  0  0  0  0  0  0  0
    4.3430   60.7770   72.2210 C   0  0  0  0  0  0  0  0  0  0  0  0
    5.5010   60.6520   72.6130 O   0  0  0  0  0  0  0  0  0  0  0  0
    4.0840   61.4780   70.9380 C   0  0  0  0  0  0  0  0  0  0  0  0
    3.3520   60.8780   69.9070 C   0  0  0  0  0  0  0  0  0  0  0  0
    3.1420   61.5680   68.7100 C   0  0  0  0  0  0  0  0  0  0  0  0
    3.6710   62.8470   68.5370 C   0  0  0  0  0  0  0  0  0  0  0  0
    4.4200   63.4380   69.5550 C   0  0  0  0  0  0  0  0  0  0  0  0
    4.6320   62.7530   70.7520 C   0  0  0  0  0  0  0  0  0  0  0  0
    1.3070   64.0378   69.2422 H   0  0  0  0  0  0  0  0  0  0  0  0
    0.8488   62.1045   70.7489 H   0  0  0  0  0  0  0  0  0  0  0  0
   -0.6031   64.8230   73.7731 H   0  0  0  0  0  0  0  0  0  0  0  0
   -0.1440   66.7595   72.2729 H   0  0  0  0  0  0  0  0  0  0  0  0
   -0.6943   66.0787   68.4723 H   0  0  0  0  0  0  0  0  0  0  0  0
   -0.7706   68.6062   67.9876 H   0  0  0  0  0  0  0  0  0  0  0  0
    1.0444   68.4674   67.9833 H   0  0  0  0  0  0  0  0  0  0  0  0
   -0.1664   66.5096   66.2066 H   0  0  0  0  0  0  0  0  0  0  0  0
   -0.6766   68.2130   65.8025 H   0  0  0  0  0  0  0  0  0  0  0  0
    1.1535   66.7055   63.7185 H   0  0  0  0  0  0  0  0  0  0  0  0
    3.5544   67.5871   63.2384 H   0  0  0  0  0  0  0  0  0  0  0  0
    1.9332   69.4116   68.0534 H   0  0  0  0  0  0  0  0  0  0  0  0
    4.1148   70.5869   68.3739 H   0  0  0  0  0  0  0  0  0  0  0  0
    5.8813   70.4579   66.6385 H   0  0  0  0  0  0  0  0  0  0  0  0
    5.5042   69.1529   64.5267 H   0  0  0  0  0  0  0  0  0  0  0  0
   -1.5138   61.5030   71.9366 H   0  0  0  0  0  0  0  0  0  0  0  0
   -0.4088   60.3802   72.8184 H   0  0  0  0  0  0  0  0  0  0  0  0
   -1.9920   61.7481   74.7738 H   0  0  0  0  0  0  0  0  0  0  0  0
   -3.1000   61.1522   73.4709 H   0  0  0  0  0  0  0  0  0  0  0  0
   -3.0273   59.3129   74.8797 H   0  0  0  0  0  0  0  0  0  0  0  0
   -1.6893   58.9457   73.7066 H   0  0  0  0  0  0  0  0  0  0  0  0
   -0.6835   60.5126   75.9279 H   0  0  0  0  0  0  0  0  0  0  0  0
   -1.5417   59.0271   76.5173 H   0  0  0  0  0  0  0  0  0  0  0  0
    0.8254   57.8132   73.0764 H   0  0  0  0  0  0  0  0  0  0  0  0
    2.6720   58.6703   71.6397 H   0  0  0  0  0  0  0  0  0  0  0  0
    3.5290   61.7101   74.5928 H   0  0  0  0  0  0  0  0  0  0  0  0
    1.6775   60.8467   76.0267 H   0  0  0  0  0  0  0  0  0  0  0  0
    2.9428   59.8654   70.0386 H   0  0  0  0  0  0  0  0  0  0  0  0
    2.5584   61.1016   67.9027 H   0  0  0  0  0  0  0  0  0  0  0  0
    3.4974   63.3905   67.5965 H   0  0  0  0  0  0  0  0  0  0  0  0
    4.8432   64.4435   69.4140 H   0  0  0  0  0  0  0  0  0  0  0  0
    5.2306   63.2153   71.5507 H   0  0  0  0  0  0  0  0  0  0  0  0
  2  1  2  0
  3  2  1  0
  4  3  2  0
  5  4  1  0
  6  5  2  0
  6  1  1  0
  8  7  2  0
  8  1  1  0
  9  8  1  0
 10  9  1  0
 11 10  1  0
 12 11  1  0
 13 12  2  0
 14 13  1  0
 15 14  1  0
 16 15  2  0
 16 12  1  0
 17 16  1  0
 18 17  2  0
 19 18  1  0
 20 15  1  0
 20 19  2  0
 21  4  1  0
 22 21  1  0
 23 22  1  0
 24 23  1  0
 25 24  1  0
 26 25  1  0
 27 26  1  0
 28 27  2  0
 29 28  1  0
 30 29  2  0
 31 30  1  0
 32 31  2  0
 32 27  1  0
 33 30  1  0
 34 33  2  0
 35 33  1  0
 36 35  2  0
 37 36  1  0
 38 37  2  0
 39 38  1  0
 40 39  2  0
 40 35  1  0
  2 41  1  0
  3 42  1  0
  5 43  1  0
  6 44  1  0
  9 45  1  0
 10 46  1  0
 10 47  1  0
 11 48  1  0
 11 49  1  0
 13 50  1  0
 14 51  1  0
 17 52  1  0
 18 53  1  0
 19 54  1  0
 20 55  1  0
 22 56  1  0
 22 57  1  0
 23 58  1  0
 23 59  1  0
 24 60  1  0
 24 61  1  0
 25 62  1  0
 25 63  1  0
 28 64  1  0
 29 65  1  0
 31 66  1  0
 32 67  1  0
 36 68  1  0
 37 69  1  0
 38 70  1  0
 39 71  1  0
 40 72  1  0
M  END
>  <score>  (6) 
-9.911

$$$$
=
     RDKit          3D

 72 76  0  0  0  0  0  0  0  0999 V2000
    0.1980   66.7270   68.8290 C   0  0  0  0  0  0  0  0  0  0  0  0
   -1.1090   66.4590   68.4050 C   0  0  0  0  0  0  0  0  0  0  0  0
   -1.7630   67.3250   67.5210 C   0  0  0  0  0  0  0  0  0  0  0  0
   -1.1180   68.4710   67.0570 C   0  0  0  0  0  0  0  0  0  0  0  0
    0.1810   68.7470   67.4990 C   0  0  0  0  0  0  0  0  0  0  0  0
    0.8380   67.8860   68.3830 C   0  0  0  0  0  0  0  0  0  0  0  0
    1.8490   66.1070   70.3900 O   0  0  0  0  0  0  0  0  0  0  0  0
    0.8410   65.7750   69.7770 C   0  0  0  0  0  0  0  0  0  0  0  0
    0.2370   64.5460   69.9200 N   0  0  0  0  0  0  0  0  0  0  0  0
    0.8680   63.4700   70.6630 C   0  0  0  0  0  0  0  0  0  0  0  0
    0.0260   63.0060   71.8570 C   0  0  0  0  0  0  0  0  0  0  0  0
    0.3800   61.6230   72.3230 C   0  0  0  0  0  0  0  0  0  0  0  0
    1.5740   60.9680   72.0920 C   0  0  0  0  0  0  0  0  0  0  0  0
    1.5080   59.7320   72.6760 N   0  0  0  0  0  0  0  0  0  0  0  0
    0.2850   59.5580   73.2810 C   0  0  0  0  0  0  0  0  0  0  0  0
   -0.4420   60.7310   73.0850 C   0  0  0  0  0  0  0  0  0  0  0  0
   -1.7420   60.8140   73.6250 C   0  0  0  0  0  0  0  0  0  0  0  0
   -2.2660   59.7250   74.3320 C   0  0  0  0  0  0  0  0  0  0  0  0
   -1.5150   58.5660   74.5080 C   0  0  0  0  0  0  0  0  0  0  0  0
   -0.2210   58.4600   73.9860 C   0  0  0  0  0  0  0  0  0  0  0  0
   -1.6320   69.4030   66.2010 O   0  0  0  0  0  0  0  0  0  0  0  0
   -2.7240   69.0370   65.3580 C   0  0  0  0  0  0  0  0  0  0  0  0
   -2.3020   69.0630   63.8890 C   0  0  0  0  0  0  0  0  0  0  0  0
   -0.8010   68.8130   63.7330 C   0  0  0  0  0  0  0  0  0  0  0  0
   -0.2930   69.1980   62.3430 C   0  0  0  0  0  0  0  0  0  0  0  0
    0.8860   68.4760   61.9910 O   0  0  0  0  0  0  0  0  0  0  0  0
    2.0160   68.6400   62.7400 C   0  0  0  0  0  0  0  0  0  0  0  0
    1.8030   68.5820   64.1220 C   0  0  0  0  0  0  0  0  0  0  0  0
    2.8630   68.7310   65.0190 C   0  0  0  0  0  0  0  0  0  0  0  0
    4.1540   68.9540   64.5350 C   0  0  0  0  0  0  0  0  0  0  0  0
    4.3770   68.9910   63.1540 C   0  0  0  0  0  0  0  0  0  0  0  0
    3.3100   68.8410   62.2600 C   0  0  0  0  0  0  0  0  0  0  0  0
    5.3190   69.1040   65.4440 C   0  0  0  0  0  0  0  0  0  0  0  0
    6.4140   68.6730   65.0890 O   0  0  0  0  0  0  0  0  0  0  0  0
    5.1920   69.7610   66.7690 C   0  0  0  0  0  0  0  0  0  0  0  0
    6.2990   70.3090   67.4270 C   0  0  0  0  0  0  0  0  0  0  0  0
    6.1390   70.9070   68.6790 C   0  0  0  0  0  0  0  0  0  0  0  0
    4.8800   70.9470   69.2800 C   0  0  0  0  0  0  0  0  0  0  0  0
    3.7790   70.3820   68.6360 C   0  0  0  0  0  0  0  0  0  0  0  0
    3.9350   69.7830   67.3850 C   0  0  0  0  0  0  0  0  0  0  0  0
   -1.6267   65.5597   68.7699 H   0  0  0  0  0  0  0  0  0  0  0  0
   -2.7883   67.1010   67.1915 H   0  0  0  0  0  0  0  0  0  0  0  0
    0.6924   69.6546   67.1457 H   0  0  0  0  0  0  0  0  0  0  0  0
    1.8563   68.1205   68.7265 H   0  0  0  0  0  0  0  0  0  0  0  0
   -0.6849   64.3860   69.4894 H   0  0  0  0  0  0  0  0  0  0  0  0
    1.0202   62.6164   69.9861 H   0  0  0  0  0  0  0  0  0  0  0  0
    1.8222   63.8510   71.0559 H   0  0  0  0  0  0  0  0  0  0  0  0
    0.1826   63.7073   72.6899 H   0  0  0  0  0  0  0  0  0  0  0  0
   -1.0241   62.9842   71.5302 H   0  0  0  0  0  0  0  0  0  0  0  0
    2.4318   61.3711   71.5337 H   0  0  0  0  0  0  0  0  0  0  0  0
    2.2646   59.0332   72.6642 H   0  0  0  0  0  0  0  0  0  0  0  0
   -2.3400   61.7276   73.4918 H   0  0  0  0  0  0  0  0  0  0  0  0
   -3.2807   59.7857   74.7524 H   0  0  0  0  0  0  0  0  0  0  0  0
   -1.9452   57.7211   75.0657 H   0  0  0  0  0  0  0  0  0  0  0  0
    0.3767   57.5470   74.1247 H   0  0  0  0  0  0  0  0  0  0  0  0
   -3.0587   68.0225   65.6201 H   0  0  0  0  0  0  0  0  0  0  0  0
   -3.5422   69.7575   65.5047 H   0  0  0  0  0  0  0  0  0  0  0  0
   -2.8530   68.2818   63.3448 H   0  0  0  0  0  0  0  0  0  0  0  0
   -2.5304   70.0589   63.4816 H   0  0  0  0  0  0  0  0  0  0  0  0
   -0.2626   69.4089   64.4846 H   0  0  0  0  0  0  0  0  0  0  0  0
   -0.6215   67.7367   63.8721 H   0  0  0  0  0  0  0  0  0  0  0  0
   -1.0780   68.9799   61.6040 H   0  0  0  0  0  0  0  0  0  0  0  0
   -0.0470   70.2701   62.3537 H   0  0  0  0  0  0  0  0  0  0  0  0
    0.7860   68.4167   64.5073 H   0  0  0  0  0  0  0  0  0  0  0  0
    2.6818   68.6730   66.1024 H   0  0  0  0  0  0  0  0  0  0  0  0
    5.3966   69.1388   62.7686 H   0  0  0  0  0  0  0  0  0  0  0  0
    3.4928   68.8818   61.1761 H   0  0  0  0  0  0  0  0  0  0  0  0
    7.2936   70.2688   66.9588 H   0  0  0  0  0  0  0  0  0  0  0  0
    7.0067   71.3472   69.1922 H   0  0  0  0  0  0  0  0  0  0  0  0
    4.7557   71.4248   70.2630 H   0  0  0  0  0  0  0  0  0  0  0  0
    2.7886   70.4086   69.1138 H   0  0  0  0  0  0  0  0  0  0  0  0
    3.0690   69.3275   66.8823 H   0  0  0  0  0  0  0  0  0  0  0  0
  2  1  2  0
  3  2  1  0
  4  3  2  0
  5  4  1  0
  6  5  2  0
  6  1  1  0
  8  7  2  0
  8  1  1  0
  9  8  1  0
 10  9  1  0
 11 10  1  0
 12 11  1  0
 13 12  2  0
 14 13  1  0
 15 14  1  0
 16 15  2  0
 16 12  1  0
 17 16  1  0
 18 17  2  0
 19 18  1  0
 20 15  1  0
 20 19  2  0
 21  4  1  0
 22 21  1  0
 23 22  1  0
 24 23  1  0
 25 24  1  0
 26 25  1  0
 27 26  1  0
 28 27  2  0
 29 28  1  0
 30 29  2  0
 31 30  1  0
 32 31  2  0
 32 27  1  0
 33 30  1  0
 34 33  2  0
 35 33  1  0
 36 35  2  0
 37 36  1  0
 38 37  2  0
 39 38  1  0
 40 39  2  0
 40 35  1  0
  2 41  1  0
  3 42  1  0
  5 43  1  0
  6 44  1  0
  9 45  1  0
 10 46  1  0
 10 47  1  0
 11 48  1  0
 11 49  1  0
 13 50  1  0
 14 51  1  0
 17 52  1  0
 18 53  1  0
 19 54  1  0
 20 55  1  0
 22 56  1  0
 22 57  1  0
 23 58  1  0
 23 59  1  0
 24 60  1  0
 24 61  1  0
 25 62  1  0
 25 63  1  0
 28 64  1  0
 29 65  1  0
 31 66  1  0
 32 67  1  0
 36 68  1  0
 37 69  1  0
 38 70  1  0
 39 71  1  0
 40 72  1  0
M  END
>  <score>  (7) 
-9.883

$$$$
=
     RDKit          3D

 72 76  0  0  0  0  0  0  0  0999 V2000
    1.6090   64.6490   70.5910 C   0  0  0  0  0  0  0  0  0  0  0  0
    0.9990   63.6770   71.3920 C   0  0  0  0  0  0  0  0  0  0  0  0
    1.7260   62.5720   71.8520 C   0  0  0  0  0  0  0  0  0  0  0  0
    3.0690   62.4270   71.5090 C   0  0  0  0  0  0  0  0  0  0  0  0
    3.6720   63.3890   70.6910 C   0  0  0  0  0  0  0  0  0  0  0  0
    2.9500   64.4930   70.2280 C   0  0  0  0  0  0  0  0  0  0  0  0
   -0.2190   66.1260   70.7470 O   0  0  0  0  0  0  0  0  0  0  0  0
    0.7850   65.7980   70.1240 C   0  0  0  0  0  0  0  0  0  0  0  0
    1.2220   66.4500   68.9940 N   0  0  0  0  0  0  0  0  0  0  0  0
    0.4110   67.4570   68.3340 C   0  0  0  0  0  0  0  0  0  0  0  0
    1.1050   68.8230   68.2670 C   0  0  0  0  0  0  0  0  0  0  0  0
    2.1400   68.9030   67.1830 C   0  0  0  0  0  0  0  0  0  0  0  0
    2.0110   68.4160   65.8970 C   0  0  0  0  0  0  0  0  0  0  0  0
    3.1670   68.6830   65.2150 N   0  0  0  0  0  0  0  0  0  0  0  0
    4.0610   69.3300   66.0350 C   0  0  0  0  0  0  0  0  0  0  0  0
    3.4430   69.4910   67.2740 C   0  0  0  0  0  0  0  0  0  0  0  0
    4.1550   70.1450   68.3000 C   0  0  0  0  0  0  0  0  0  0  0  0
    5.4540   70.6070   68.0530 C   0  0  0  0  0  0  0  0  0  0  0  0
    6.0450   70.4280   66.8050 C   0  0  0  0  0  0  0  0  0  0  0  0
    5.3580   69.7860   65.7690 C   0  0  0  0  0  0  0  0  0  0  0  0
    3.8960   61.4040   71.8780 O   0  0  0  0  0  0  0  0  0  0  0  0
    4.4550   60.5690   70.8650 C   0  0  0  0  0  0  0  0  0  0  0  0
    3.3840   59.6610   70.2620 C   0  0  0  0  0  0  0  0  0  0  0  0
    3.3760   58.2850   70.9300 C   0  0  0  0  0  0  0  0  0  0  0  0
    2.8570   58.3420   72.3670 C   0  0  0  0  0  0  0  0  0  0  0  0
    1.7210   57.4980   72.5550 O   0  0  0  0  0  0  0  0  0  0  0  0
    0.6690   57.9540   73.2960 C   0  0  0  0  0  0  0  0  0  0  0  0
    0.5210   59.3450   73.2920 C   0  0  0  0  0  0  0  0  0  0  0  0
   -0.5110   59.9600   74.0040 C   0  0  0  0  0  0  0  0  0  0  0  0
   -1.4030   59.1790   74.7440 C   0  0  0  0  0  0  0  0  0  0  0  0
   -1.2730   57.7870   74.7350 C   0  0  0  0  0  0  0  0  0  0  0  0
   -0.2360   57.1760   74.0180 C   0  0  0  0  0  0  0  0  0  0  0  0
   -2.5260   59.7800   75.5060 C   0  0  0  0  0  0  0  0  0  0  0  0
   -2.2840   60.4090   76.5340 O   0  0  0  0  0  0  0  0  0  0  0  0
   -3.9350   59.6410   75.0570 C   0  0  0  0  0  0  0  0  0  0  0  0
   -4.6550   60.7270   74.5460 C   0  0  0  0  0  0  0  0  0  0  0  0
   -5.9820   60.5550   74.1460 C   0  0  0  0  0  0  0  0  0  0  0  0
   -6.5940   59.3080   74.2670 C   0  0  0  0  0  0  0  0  0  0  0  0
   -5.8850   58.2290   74.7960 C   0  0  0  0  0  0  0  0  0  0  0  0
   -4.5590   58.3960   75.1970 C   0  0  0  0  0  0  0  0  0  0  0  0
   -0.0619   63.7820   71.6629 H   0  0  0  0  0  0  0  0  0  0  0  0
    1.2363   61.8173   72.4850 H   0  0  0  0  0  0  0  0  0  0  0  0
    4.7289   63.2750   70.4083 H   0  0  0  0  0  0  0  0  0  0  0  0
    3.4359   65.2371   69.5797 H   0  0  0  0  0  0  0  0  0  0  0  0
    2.1477   66.2178   68.6067 H   0  0  0  0  0  0  0  0  0  0  0  0
    0.1966   67.1202   67.3090 H   0  0  0  0  0  0  0  0  0  0  0  0
   -0.5105   67.5802   68.9220 H   0  0  0  0  0  0  0  0  0  0  0  0
    0.3431   69.5944   68.0817 H   0  0  0  0  0  0  0  0  0  0  0  0
    1.6209   68.9771   69.2262 H   0  0  0  0  0  0  0  0  0  0  0  0
    1.1285   67.9008   65.4899 H   0  0  0  0  0  0  0  0  0  0  0  0
    3.3419   68.4353   64.2306 H   0  0  0  0  0  0  0  0  0  0  0  0
    3.6936   70.2915   69.2877 H   0  0  0  0  0  0  0  0  0  0  0  0
    6.0125   71.1160   68.8524 H   0  0  0  0  0  0  0  0  0  0  0  0
    7.0667   70.7966   66.6311 H   0  0  0  0  0  0  0  0  0  0  0  0
    5.8202   69.6445   64.7809 H   0  0  0  0  0  0  0  0  0  0  0  0
    4.8819   61.2002   70.0716 H   0  0  0  0  0  0  0  0  0  0  0  0
    5.2378   59.9415   71.3160 H   0  0  0  0  0  0  0  0  0  0  0  0
    2.3987   60.1306   70.3986 H   0  0  0  0  0  0  0  0  0  0  0  0
    3.6077   59.5251   69.1936 H   0  0  0  0  0  0  0  0  0  0  0  0
    2.7301   57.6122   70.3468 H   0  0  0  0  0  0  0  0  0  0  0  0
    4.4129   57.9190   70.9604 H   0  0  0  0  0  0  0  0  0  0  0  0
    3.6579   58.0178   73.0478 H   0  0  0  0  0  0  0  0  0  0  0  0
    2.5522   59.3774   72.5793 H   0  0  0  0  0  0  0  0  0  0  0  0
    1.2279   59.9635   72.7196 H   0  0  0  0  0  0  0  0  0  0  0  0
   -0.6213   61.0542   73.9825 H   0  0  0  0  0  0  0  0  0  0  0  0
   -1.9895   57.1676   75.2944 H   0  0  0  0  0  0  0  0  0  0  0  0
   -0.1353   56.0806   74.0244 H   0  0  0  0  0  0  0  0  0  0  0  0
   -4.1767   61.7138   74.4596 H   0  0  0  0  0  0  0  0  0  0  0  0
   -6.5457   61.4053   73.7345 H   0  0  0  0  0  0  0  0  0  0  0  0
   -7.6373   59.1747   73.9449 H   0  0  0  0  0  0  0  0  0  0  0  0
   -6.3710   57.2474   74.8969 H   0  0  0  0  0  0  0  0  0  0  0  0
   -4.0033   57.5480   75.6237 H   0  0  0  0  0  0  0  0  0  0  0  0
  2  1  2  0
  3  2  1  0
  4  3  2  0
  5  4  1  0
  6  5  2  0
  6  1  1  0
  8  7  2  0
  8  1  1  0
  9  8  1  0
 10  9  1  0
 11 10  1  0
 12 11  1  0
 13 12  2  0
 14 13  1  0
 15 14  1  0
 16 15  2  0
 16 12  1  0
 17 16  1  0
 18 17  2  0
 19 18  1  0
 20 15  1  0
 20 19  2  0
 21  4  1  0
 22 21  1  0
 23 22  1  0
 24 23  1  0
 25 24  1  0
 26 25  1  0
 27 26  1  0
 28 27  2  0
 29 28  1  0
 30 29  2  0
 31 30  1  0
 32 31  2  0
 32 27  1  0
 33 30  1  0
 34 33  2  0
 35 33  1  0
 36 35  2  0
 37 36  1  0
 38 37  2  0
 39 38  1  0
 40 39  2  0
 40 35  1  0
  2 41  1  0
  3 42  1  0
  5 43  1  0
  6 44  1  0
  9 45  1  0
 10 46  1  0
 10 47  1  0
 11 48  1  0
 11 49  1  0
 13 50  1  0
 14 51  1  0
 17 52  1  0
 18 53  1  0
 19 54  1  0
 20 55  1  0
 22 56  1  0
 22 57  1  0
 23 58  1  0
 23 59  1  0
 24 60  1  0
 24 61  1  0
 25 62  1  0
 25 63  1  0
 28 64  1  0
 29 65  1  0
 31 66  1  0
 32 67  1  0
 36 68  1  0
 37 69  1  0
 38 70  1  0
 39 71  1  0
 40 72  1  0
M  END
>  <score>  (8) 
-9.763

$$$$
=
     RDKit          3D

 72 76  0  0  0  0  0  0  0  0999 V2000
    0.9160   65.7650   70.0950 C   0  0  0  0  0  0  0  0  0  0  0  0
    0.0490   65.4000   71.1310 C   0  0  0  0  0  0  0  0  0  0  0  0
    0.3800   64.3560   72.0040 C   0  0  0  0  0  0  0  0  0  0  0  0
    1.5800   63.6640   71.8450 C   0  0  0  0  0  0  0  0  0  0  0  0
    2.4360   64.0170   70.7960 C   0  0  0  0  0  0  0  0  0  0  0  0
    2.1100   65.0570   69.9200 C   0  0  0  0  0  0  0  0  0  0  0  0
   -0.5960   66.8620   68.6610 O   0  0  0  0  0  0  0  0  0  0  0  0
    0.5090   66.8770   69.1920 C   0  0  0  0  0  0  0  0  0  0  0  0
    1.4220   67.8910   69.0140 N   0  0  0  0  0  0  0  0  0  0  0  0
    1.2220   68.9280   68.0180 C   0  0  0  0  0  0  0  0  0  0  0  0
    1.7450   68.5250   66.6340 C   0  0  0  0  0  0  0  0  0  0  0  0
    3.1520   68.9850   66.3810 C   0  0  0  0  0  0  0  0  0  0  0  0
    3.8840   68.7650   65.2300 C   0  0  0  0  0  0  0  0  0  0  0  0
    5.1160   69.3390   65.3870 N   0  0  0  0  0  0  0  0  0  0  0  0
    5.2120   69.9260   66.6270 C   0  0  0  0  0  0  0  0  0  0  0  0
    3.9910   69.7280   67.2710 C   0  0  0  0  0  0  0  0  0  0  0  0
    3.8260   70.2510   68.5700 C   0  0  0  0  0  0  0  0  0  0  0  0
    4.8820   70.9430   69.1760 C   0  0  0  0  0  0  0  0  0  0  0  0
    6.0900   71.1210   68.5060 C   0  0  0  0  0  0  0  0  0  0  0  0
    6.2790   70.6160   67.2160 C   0  0  0  0  0  0  0  0  0  0  0  0
    2.0290   62.6280   72.6130 O   0  0  0  0  0  0  0  0  0  0  0  0
    1.7780   61.2900   72.1810 C   0  0  0  0  0  0  0  0  0  0  0  0
    0.3700   60.8500   72.5800 C   0  0  0  0  0  0  0  0  0  0  0  0
    0.4010   59.5800   73.4320 C   0  0  0  0  0  0  0  0  0  0  0  0
   -0.4420   59.7150   74.7010 C   0  0  0  0  0  0  0  0  0  0  0  0
   -1.5330   58.7950   74.7130 O   0  0  0  0  0  0  0  0  0  0  0  0
   -2.8080   59.2750   74.8080 C   0  0  0  0  0  0  0  0  0  0  0  0
   -3.7150   58.3880   75.3990 C   0  0  0  0  0  0  0  0  0  0  0  0
   -5.0570   58.7380   75.5660 C   0  0  0  0  0  0  0  0  0  0  0  0
   -5.5080   59.9840   75.1250 C   0  0  0  0  0  0  0  0  0  0  0  0
   -4.6020   60.8830   74.5530 C   0  0  0  0  0  0  0  0  0  0  0  0
   -3.2570   60.5270   74.3890 C   0  0  0  0  0  0  0  0  0  0  0  0
   -6.9200   60.4120   75.2920 C   0  0  0  0  0  0  0  0  0  0  0  0
   -7.6270   59.8340   76.1140 O   0  0  0  0  0  0  0  0  0  0  0  0
   -7.4970   61.5210   74.4910 C   0  0  0  0  0  0  0  0  0  0  0  0
   -8.0770   61.2970   73.2370 C   0  0  0  0  0  0  0  0  0  0  0  0
   -8.5970   62.3710   72.5100 C   0  0  0  0  0  0  0  0  0  0  0  0
   -8.5280   63.6650   73.0260 C   0  0  0  0  0  0  0  0  0  0  0  0
   -7.9310   63.8930   74.2670 C   0  0  0  0  0  0  0  0  0  0  0  0
   -7.4100   62.8230   74.9960 C   0  0  0  0  0  0  0  0  0  0  0  0
   -0.9015   65.9381   71.2610 H   0  0  0  0  0  0  0  0  0  0  0  0
   -0.3083   64.0814   72.8169 H   0  0  0  0  0  0  0  0  0  0  0  0
    3.3794   63.4683   70.6584 H   0  0  0  0  0  0  0  0  0  0  0  0
    2.7902   65.3177   69.0958 H   0  0  0  0  0  0  0  0  0  0  0  0
    2.2676   67.9148   69.6016 H   0  0  0  0  0  0  0  0  0  0  0  0
    0.1452   69.1387   67.9401 H   0  0  0  0  0  0  0  0  0  0  0  0
    1.7864   69.8147   68.3423 H   0  0  0  0  0  0  0  0  0  0  0  0
    1.7151   67.4283   66.5538 H   0  0  0  0  0  0  0  0  0  0  0  0
    1.1010   69.0095   65.8853 H   0  0  0  0  0  0  0  0  0  0  0  0
    3.5357   68.2212   64.3395 H   0  0  0  0  0  0  0  0  0  0  0  0
    5.8637   69.3324   64.6787 H   0  0  0  0  0  0  0  0  0  0  0  0
    2.8738   70.1163   69.1040 H   0  0  0  0  0  0  0  0  0  0  0  0
    4.7563   71.3496   70.1903 H   0  0  0  0  0  0  0  0  0  0  0  0
    6.9077   71.6671   68.9992 H   0  0  0  0  0  0  0  0  0  0  0  0
    7.2311   70.7556   66.6831 H   0  0  0  0  0  0  0  0  0  0  0  0
    1.8758   61.2393   71.0865 H   0  0  0  0  0  0  0  0  0  0  0  0
    2.5074   60.6204   72.6602 H   0  0  0  0  0  0  0  0  0  0  0  0
   -0.1066   61.6562   73.1570 H   0  0  0  0  0  0  0  0  0  0  0  0
   -0.1984   60.6369   71.6627 H   0  0  0  0  0  0  0  0  0  0  0  0
    0.0104   58.7430   72.8346 H   0  0  0  0  0  0  0  0  0  0  0  0
    1.4431   59.4027   73.7361 H   0  0  0  0  0  0  0  0  0  0  0  0
    0.1969   59.5211   75.5752 H   0  0  0  0  0  0  0  0  0  0  0  0
   -0.8541   60.7344   74.7308 H   0  0  0  0  0  0  0  0  0  0  0  0
   -3.3661   57.4010   75.7369 H   0  0  0  0  0  0  0  0  0  0  0  0
   -5.7558   58.0350   76.0430 H   0  0  0  0  0  0  0  0  0  0  0  0
   -4.9478   61.8760   74.2298 H   0  0  0  0  0  0  0  0  0  0  0  0
   -2.5536   61.2365   73.9288 H   0  0  0  0  0  0  0  0  0  0  0  0
   -8.1233   60.2782   72.8249 H   0  0  0  0  0  0  0  0  0  0  0  0
   -9.0618   62.1956   71.5286 H   0  0  0  0  0  0  0  0  0  0  0  0
   -8.9447   64.5072   72.4541 H   0  0  0  0  0  0  0  0  0  0  0  0
   -7.8713   64.9148   74.6699 H   0  0  0  0  0  0  0  0  0  0  0  0
   -6.9302   63.0035   75.9692 H   0  0  0  0  0  0  0  0  0  0  0  0
  2  1  2  0
  3  2  1  0
  4  3  2  0
  5  4  1  0
  6  5  2  0
  6  1  1  0
  8  7  2  0
  8  1  1  0
  9  8  1  0
 10  9  1  0
 11 10  1  0
 12 11  1  0
 13 12  2  0
 14 13  1  0
 15 14  1  0
 16 15  2  0
 16 12  1  0
 17 16  1  0
 18 17  2  0
 19 18  1  0
 20 15  1  0
 20 19  2  0
 21  4  1  0
 22 21  1  0
 23 22  1  0
 24 23  1  0
 25 24  1  0
 26 25  1  0
 27 26  1  0
 28 27  2  0
 29 28  1  0
 30 29  2  0
 31 30  1  0
 32 31  2  0
 32 27  1  0
 33 30  1  0
 34 33  2  0
 35 33  1  0
 36 35  2  0
 37 36  1  0
 38 37  2  0
 39 38  1  0
 40 39  2  0
 40 35  1  0
  2 41  1  0
  3 42  1  0
  5 43  1  0
  6 44  1  0
  9 45  1  0
 10 46  1  0
 10 47  1  0
 11 48  1  0
 11 49  1  0
 13 50  1  0
 14 51  1  0
 17 52  1  0
 18 53  1  0
 19 54  1  0
 20 55  1  0
 22 56  1  0
 22 57  1  0
 23 58  1  0
 23 59  1  0
 24 60  1  0
 24 61  1  0
 25 62  1  0
 25 63  1  0
 28 64  1  0
 29 65  1  0
 31 66  1  0
 32 67  1  0
 36 68  1  0
 37 69  1  0
 38 70  1  0
 39 71  1  0
 40 72  1  0
M  END
>  <score>  (9) 
-9.267

$$$$
