=
     RDKit          3D

 58 60  0  0  0  0  0  0  0  0999 V2000
   -0.0680   66.4700   69.7830 C   0  0  0  0  0  0  0  0  0  0  0  0
    1.3720   66.9450   69.5430 C   0  0  0  0  0  0  0  0  0  0  0  0
    1.8370   66.7410   68.1070 C   0  0  0  0  0  0  0  0  0  0  0  0
    0.8780   67.3800   67.1370 N   0  0  0  0  0  4  0  0  0  0  0  0
   -0.5330   66.8620   67.3080 C   0  0  0  0  0  0  0  0  0  0  0  0
   -1.0180   67.0740   68.7350 C   0  0  0  0  0  0  0  0  0  0  0  0
   -0.1480   64.9280   69.8350 C   0  0  0  0  0  0  0  0  0  0  0  0
    0.2760   64.4220   71.1020 O   0  0  0  0  0  0  0  0  0  0  0  0
    3.0100   61.3400   70.9710 C   0  0  0  0  0  0  0  0  0  0  0  0
    2.4610   61.7330   72.1910 C   0  0  0  0  0  0  0  0  0  0  0  0
    1.5310   62.7740   72.2180 C   0  0  0  0  0  0  0  0  0  0  0  0
    1.1840   63.3850   71.0240 C   0  0  0  0  0  0  0  0  0  0  0  0
    1.7090   63.0450   69.8300 N   0  0  0  0  0  0  0  0  0  0  0  0
    2.6080   62.0270   69.8300 C   0  0  0  0  0  0  0  0  0  0  0  0
    4.0080   60.2620   70.8250 C   0  0  0  0  0  0  0  0  0  0  0  0
    5.1540   60.5030   70.4670 O   0  0  0  0  0  0  0  0  0  0  0  0
    3.7910   57.9200   70.2320 N   0  0  0  0  0  0  0  0  0  0  0  0
    3.6750   58.8350   71.1380 C   0  0  0  0  0  0  0  0  0  0  0  0
    3.4200   56.6920   70.7920 O   0  0  0  0  0  0  0  0  0  0  0  0
    1.0030   68.8940   67.0840 C   0  0  0  0  0  0  0  0  0  0  0  0
    2.4210   69.3730   67.2210 C   0  0  0  0  0  0  0  0  0  0  0  0
    2.8860   69.9260   68.4170 C   0  0  0  0  0  0  0  0  0  0  0  0
    4.2230   70.3250   68.5420 C   0  0  0  0  0  0  0  0  0  0  0  0
    5.1250   70.1830   67.4780 C   0  0  0  0  0  0  0  0  0  0  0  0
    4.6580   69.6470   66.2680 C   0  0  0  0  0  0  0  0  0  0  0  0
    3.3190   69.2410   66.1550 C   0  0  0  0  0  0  0  0  0  0  0  0
    5.3680   69.4100   65.1200 O   0  0  0  0  0  0  0  0  0  0  0  0
    4.6470   68.9580   63.9780 C   0  0  0  0  0  0  0  0  0  0  0  0
    6.4500   70.5050   67.5700 O   0  0  0  0  0  0  0  0  0  0  0  0
    6.9680   70.9060   68.8330 C   0  0  0  0  0  0  0  0  0  0  0  0
   -0.3970   66.8326   70.7680 H   0  0  0  0  0  0  0  0  0  0  0  0
    1.4312   68.0173   69.7812 H   0  0  0  0  0  0  0  0  0  0  0  0
    2.0279   66.3428   70.1888 H   0  0  0  0  0  0  0  0  0  0  0  0
    2.8314   67.1945   67.9823 H   0  0  0  0  0  0  0  0  0  0  0  0
    1.8793   65.6614   67.9007 H   0  0  0  0  0  0  0  0  0  0  0  0
    1.1577   67.0799   66.1922 H   0  0  0  0  0  0  0  0  0  0  0  0
   -1.2001   67.3983   66.6171 H   0  0  0  0  0  0  0  0  0  0  0  0
   -0.5414   65.7839   67.0895 H   0  0  0  0  0  0  0  0  0  0  0  0
   -1.1040   68.1549   68.9201 H   0  0  0  0  0  0  0  0  0  0  0  0
   -1.9879   66.5647   68.8344 H   0  0  0  0  0  0  0  0  0  0  0  0
   -1.1884   64.6183   69.6569 H   0  0  0  0  0  0  0  0  0  0  0  0
    0.5205   64.5224   69.0613 H   0  0  0  0  0  0  0  0  0  0  0  0
    2.7575   61.2282   73.1223 H   0  0  0  0  0  0  0  0  0  0  0  0
    1.0831   63.1022   73.1676 H   0  0  0  0  0  0  0  0  0  0  0  0
    3.0461   61.7266   68.8667 H   0  0  0  0  0  0  0  0  0  0  0  0
    3.3292   58.5638   72.1464 H   0  0  0  0  0  0  0  0  0  0  0  0
    3.4458   55.8692   70.2421 H   0  0  0  0  0  0  0  0  0  0  0  0
    0.6065   69.2446   66.1197 H   0  0  0  0  0  0  0  0  0  0  0  0
    0.4357   69.3002   67.9344 H   0  0  0  0  0  0  0  0  0  0  0  0
    2.1976   70.0489   69.2661 H   0  0  0  0  0  0  0  0  0  0  0  0
    4.5713   70.7573   69.4916 H   0  0  0  0  0  0  0  0  0  0  0  0
    2.9670   68.8090   65.2066 H   0  0  0  0  0  0  0  0  0  0  0  0
    3.7568   68.3999   64.3037 H   0  0  0  0  0  0  0  0  0  0  0  0
    4.3366   69.8235   63.3741 H   0  0  0  0  0  0  0  0  0  0  0  0
    5.2907   68.3015   63.3741 H   0  0  0  0  0  0  0  0  0  0  0  0
    6.3735   70.4458   69.6360 H   0  0  0  0  0  0  0  0  0  0  0  0
    8.0153   70.5809   68.9197 H   0  0  0  0  0  0  0  0  0  0  0  0
    6.9157   72.0013   68.9197 H   0  0  0  0  0  0  0  0  0  0  0  0
  2  1  1  0
  3  2  1  0
  4  3  1  0
  5  4  1  0
  6  5  1  0
  6  1  1  0
  7  1  1  0
  8  7  1  0
 10  9  2  0
 11 10  1  0
 12 11  2  0
 12  8  1  0
 13 12  1  0
 14 13  2  0
 14  9  1  0
 15  9  1  0
 16 15  2  0
 18 17  2  0
 18 15  1  0
 19 17  1  0
 20  4  1  0
 21 20  1  0
 22 21  2  0
 23 22  1  0
 24 23  2  0
 25 24  1  0
 26 25  2  0
 26 21  1  0
 27 25  1  0
 28 27  1  0
 29 24  1  0
 30 29  1  0
  1 31  1  0
  2 32  1  0
  2 33  1  0
  3 34  1  0
  3 35  1  0
  4 36  1  0
  5 37  1  0
  5 38  1  0
  6 39  1  0
  6 40  1  0
  7 41  1  0
  7 42  1  0
 10 43  1  0
 11 44  1  0
 14 45  1  0
 18 46  1  0
 19 47  1  0
 20 48  1  0
 20 49  1  0
 22 50  1  0
 23 51  1  0
 26 52  1  0
 28 53  1  0
 28 54  1  0
 28 55  1  0
 30 56  1  0
 30 57  1  0
 30 58  1  0
M  CHG  1   4   1
M  END
>  <score>  (1) 
-9.195

$$$$
=
     RDKit          3D

 58 60  0  0  0  0  0  0  0  0999 V2000
    0.0320   66.5720   69.8220 C   0  0  0  0  0  0  0  0  0  0  0  0
    1.4530   66.8370   69.3040 C   0  0  0  0  0  0  0  0  0  0  0  0
    1.6420   66.4410   67.8450 C   0  0  0  0  0  0  0  0  0  0  0  0
    0.6060   67.1000   66.9730 N   0  0  0  0  0  4  0  0  0  0  0  0
   -0.8030   66.7810   67.4230 C   0  0  0  0  0  0  0  0  0  0  0  0
   -1.0110   67.1870   68.8750 C   0  0  0  0  0  0  0  0  0  0  0  0
   -0.2030   65.0640   70.0630 C   0  0  0  0  0  0  0  0  0  0  0  0
    0.4500   64.6130   71.2510 O   0  0  0  0  0  0  0  0  0  0  0  0
    3.1110   61.5030   70.7580 C   0  0  0  0  0  0  0  0  0  0  0  0
    2.7820   61.9420   72.0400 C   0  0  0  0  0  0  0  0  0  0  0  0
    1.8740   62.9920   72.1900 C   0  0  0  0  0  0  0  0  0  0  0  0
    1.3280   63.5660   71.0540 C   0  0  0  0  0  0  0  0  0  0  0  0
    1.6380   63.1810   69.7990 N   0  0  0  0  0  0  0  0  0  0  0  0
    2.5200   62.1560   69.6800 C   0  0  0  0  0  0  0  0  0  0  0  0
    4.0650   60.4120   70.4800 C   0  0  0  0  0  0  0  0  0  0  0  0
    5.2740   60.6090   70.4930 O   0  0  0  0  0  0  0  0  0  0  0  0
    3.9460   58.0420   70.9820 N   0  0  0  0  0  0  0  0  0  0  0  0
    3.6030   59.0150   70.2020 C   0  0  0  0  0  0  0  0  0  0  0  0
    3.3800   56.8600   70.4920 O   0  0  0  0  0  0  0  0  0  0  0  0
    0.8820   68.5730   66.7270 C   0  0  0  0  0  0  0  0  0  0  0  0
    2.1200   68.8120   65.9090 C   0  0  0  0  0  0  0  0  0  0  0  0
    2.1160   68.6420   64.5220 C   0  0  0  0  0  0  0  0  0  0  0  0
    3.2660   68.9130   63.7700 C   0  0  0  0  0  0  0  0  0  0  0  0
    4.4460   69.3580   64.3830 C   0  0  0  0  0  0  0  0  0  0  0  0
    4.4620   69.5090   65.7790 C   0  0  0  0  0  0  0  0  0  0  0  0
    3.3020   69.2450   66.5230 C   0  0  0  0  0  0  0  0  0  0  0  0
    5.4940   69.9420   66.5700 O   0  0  0  0  0  0  0  0  0  0  0  0
    5.1690   70.4910   67.8420 C   0  0  0  0  0  0  0  0  0  0  0  0
    5.5750   69.6880   63.6880 O   0  0  0  0  0  0  0  0  0  0  0  0
    5.6850   69.2730   62.3320 C   0  0  0  0  0  0  0  0  0  0  0  0
   -0.0841   67.0657   70.7981 H   0  0  0  0  0  0  0  0  0  0  0  0
    1.6678   67.9110   69.4057 H   0  0  0  0  0  0  0  0  0  0  0  0
    2.1400   66.2205   69.9023 H   0  0  0  0  0  0  0  0  0  0  0  0
    2.6434   66.7529   67.5136 H   0  0  0  0  0  0  0  0  0  0  0  0
    1.5325   65.3498   67.7590 H   0  0  0  0  0  0  0  0  0  0  0  0
    0.6866   66.6786   66.0366 H   0  0  0  0  0  0  0  0  0  0  0  0
   -1.5166   67.3284   66.7896 H   0  0  0  0  0  0  0  0  0  0  0  0
   -0.9651   65.6967   67.3331 H   0  0  0  0  0  0  0  0  0  0  0  0
   -0.9469   68.2828   68.9459 H   0  0  0  0  0  0  0  0  0  0  0  0
   -1.9987   66.8145   69.1843 H   0  0  0  0  0  0  0  0  0  0  0  0
   -1.2836   64.8820   70.1586 H   0  0  0  0  0  0  0  0  0  0  0  0
    0.2148   64.5101   69.2094 H   0  0  0  0  0  0  0  0  0  0  0  0
    3.2329   61.4663   72.9234 H   0  0  0  0  0  0  0  0  0  0  0  0
    1.5978   63.3561   73.1906 H   0  0  0  0  0  0  0  0  0  0  0  0
    2.7847   61.8198   68.6666 H   0  0  0  0  0  0  0  0  0  0  0  0
    2.9668   58.8147   69.3273 H   0  0  0  0  0  0  0  0  0  0  0  0
    3.5354   56.0039   70.9642 H   0  0  0  0  0  0  0  0  0  0  0  0
    0.0220   69.0064   66.1954 H   0  0  0  0  0  0  0  0  0  0  0  0
    1.0404   69.0454   67.7077 H   0  0  0  0  0  0  0  0  0  0  0  0
    1.2031   68.2929   64.0172 H   0  0  0  0  0  0  0  0  0  0  0  0
    3.2431   68.7743   62.6790 H   0  0  0  0  0  0  0  0  0  0  0  0
    3.3214   69.3813   67.6143 H   0  0  0  0  0  0  0  0  0  0  0  0
    5.5575   69.8347   68.6347 H   0  0  0  0  0  0  0  0  0  0  0  0
    5.6220   71.4888   67.9373 H   0  0  0  0  0  0  0  0  0  0  0  0
    4.0763   70.5738   67.9373 H   0  0  0  0  0  0  0  0  0  0  0  0
    5.9667   68.2103   62.2955 H   0  0  0  0  0  0  0  0  0  0  0  0
    4.7185   69.4138   61.8259 H   0  0  0  0  0  0  0  0  0  0  0  0
    6.4549   69.8740   61.8259 H   0  0  0  0  0  0  0  0  0  0  0  0
  2  1  1  0
  3  2  1  0
  4  3  1  0
  5  4  1  0
  6  5  1  0
  6  1  1  0
  7  1  1  0
  8  7  1  0
 10  9  2  0
 11 10  1  0
 12 11  2  0
 12  8  1  0
 13 12  1  0
 14 13  2  0
 14  9  1  0
 15  9  1  0
 16 15  2  0
 18 17  2  0
 18 15  1  0
 19 17  1  0
 20  4  1  0
 21 20  1  0
 22 21  2  0
 23 22  1  0
 24 23  2  0
 25 24  1  0
 26 25  2  0
 26 21  1  0
 27 25  1  0
 28 27  1  0
 29 24  1  0
 30 29  1  0
  1 31  1  0
  2 32  1  0
  2 33  1  0
  3 34  1  0
  3 35  1  0
  4 36  1  0
  5 37  1  0
  5 38  1  0
  6 39  1  0
  6 40  1  0
  7 41  1  0
  7 42  1  0
 10 43  1  0
 11 44  1  0
 14 45  1  0
 18 46  1  0
 19 47  1  0
 20 48  1  0
 20 49  1  0
 22 50  1  0
 23 51  1  0
 26 52  1  0
 28 53  1  0
 28 54  1  0
 28 55  1  0
 30 56  1  0
 30 57  1  0
 30 58  1  0
M  CHG  1   4   1
M  END
>  <score>  (2) 
-8.55

$$$$
=
     RDKit          3D

 58 60  0  0  0  0  0  0  0  0999 V2000
    2.5860   64.1650   70.7480 C   0  0  0  0  0  0  0  0  0  0  0  0
    2.3340   63.1900   71.9060 C   0  0  0  0  0  0  0  0  0  0  0  0
    1.6950   61.8810   71.4590 C   0  0  0  0  0  0  0  0  0  0  0  0
    2.5030   61.2380   70.3630 N   0  0  0  0  0  4  0  0  0  0  0  0
    2.6910   62.1590   69.1780 C   0  0  0  0  0  0  0  0  0  0  0  0
    3.3440   63.4650   69.6070 C   0  0  0  0  0  0  0  0  0  0  0  0
    1.2690   64.8170   70.2700 C   0  0  0  0  0  0  0  0  0  0  0  0
    1.3670   66.2420   70.2430 O   0  0  0  0  0  0  0  0  0  0  0  0
   -0.3080   68.0820   66.9560 C   0  0  0  0  0  0  0  0  0  0  0  0
    0.9470   68.4820   67.4140 C   0  0  0  0  0  0  0  0  0  0  0  0
    1.5040   67.8440   68.5240 C   0  0  0  0  0  0  0  0  0  0  0  0
    0.7860   66.8300   69.1370 C   0  0  0  0  0  0  0  0  0  0  0  0
   -0.4370   66.4310   68.7330 N   0  0  0  0  0  0  0  0  0  0  0  0
   -0.9550   67.0640   67.6500 C   0  0  0  0  0  0  0  0  0  0  0  0
   -0.9960   68.6920   65.8020 C   0  0  0  0  0  0  0  0  0  0  0  0
   -2.1600   69.0680   65.8830 O   0  0  0  0  0  0  0  0  0  0  0  0
    0.3780   67.9520   63.9450 N   0  0  0  0  0  0  0  0  0  0  0  0
   -0.2990   68.9070   64.4940 C   0  0  0  0  0  0  0  0  0  0  0  0
    0.9180   68.4240   62.7430 O   0  0  0  0  0  0  0  0  0  0  0  0
    3.7750   60.5760   70.8680 C   0  0  0  0  0  0  0  0  0  0  0  0
    3.5540   59.7330   72.0930 C   0  0  0  0  0  0  0  0  0  0  0  0
    4.1470   60.0620   73.3140 C   0  0  0  0  0  0  0  0  0  0  0  0
    3.8940   59.2910   74.4560 C   0  0  0  0  0  0  0  0  0  0  0  0
    3.0450   58.1760   74.4050 C   0  0  0  0  0  0  0  0  0  0  0  0
    2.4630   57.8290   73.1750 C   0  0  0  0  0  0  0  0  0  0  0  0
    2.7150   58.6130   72.0390 C   0  0  0  0  0  0  0  0  0  0  0  0
    1.6010   56.7980   72.9100 O   0  0  0  0  0  0  0  0  0  0  0  0
    0.2550   56.9300   73.3540 C   0  0  0  0  0  0  0  0  0  0  0  0
    2.7230   57.4270   75.5020 O   0  0  0  0  0  0  0  0  0  0  0  0
    3.7720   56.9790   76.3520 C   0  0  0  0  0  0  0  0  0  0  0  0
    3.2265   64.9825   71.1106 H   0  0  0  0  0  0  0  0  0  0  0  0
    3.2965   62.9628   72.3877 H   0  0  0  0  0  0  0  0  0  0  0  0
    1.6313   63.6778   72.5976 H   0  0  0  0  0  0  0  0  0  0  0  0
    1.6408   61.1948   72.3170 H   0  0  0  0  0  0  0  0  0  0  0  0
    0.6866   62.0943   71.0747 H   0  0  0  0  0  0  0  0  0  0  0  0
    1.9466   60.4507   70.0004 H   0  0  0  0  0  0  0  0  0  0  0  0
    3.3314   61.6630   68.4338 H   0  0  0  0  0  0  0  0  0  0  0  0
    1.7047   62.3832   68.7457 H   0  0  0  0  0  0  0  0  0  0  0  0
    4.3685   63.2509   69.9454 H   0  0  0  0  0  0  0  0  0  0  0  0
    3.3332   64.1409   68.7392 H   0  0  0  0  0  0  0  0  0  0  0  0
    1.0391   64.4558   69.2568 H   0  0  0  0  0  0  0  0  0  0  0  0
    0.4722   64.5403   70.9760 H   0  0  0  0  0  0  0  0  0  0  0  0
    1.4921   69.2913   66.9063 H   0  0  0  0  0  0  0  0  0  0  0  0
    2.4928   68.1404   68.9041 H   0  0  0  0  0  0  0  0  0  0  0  0
   -1.9497   66.7525   67.2984 H   0  0  0  0  0  0  0  0  0  0  0  0
   -0.3636   69.8857   63.9961 H   0  0  0  0  0  0  0  0  0  0  0  0
    1.4716   67.8263   62.1806 H   0  0  0  0  0  0  0  0  0  0  0  0
    4.1769   59.9349   70.0696 H   0  0  0  0  0  0  0  0  0  0  0  0
    4.4755   61.3782   71.1435 H   0  0  0  0  0  0  0  0  0  0  0  0
    4.8169   60.9320   73.3794 H   0  0  0  0  0  0  0  0  0  0  0  0
    4.3696   59.5650   75.4093 H   0  0  0  0  0  0  0  0  0  0  0  0
    2.2424   58.3415   71.0835 H   0  0  0  0  0  0  0  0  0  0  0  0
    0.2302   56.9324   74.4537 H   0  0  0  0  0  0  0  0  0  0  0  0
   -0.1650   57.8736   72.9757 H   0  0  0  0  0  0  0  0  0  0  0  0
   -0.3403   56.0859   72.9757 H   0  0  0  0  0  0  0  0  0  0  0  0
    3.4725   57.1069   77.4027 H   0  0  0  0  0  0  0  0  0  0  0  0
    3.9746   55.9159   76.1553 H   0  0  0  0  0  0  0  0  0  0  0  0
    4.6801   57.5678   76.1553 H   0  0  0  0  0  0  0  0  0  0  0  0
  2  1  1  0
  3  2  1  0
  4  3  1  0
  5  4  1  0
  6  5  1  0
  6  1  1  0
  7  1  1  0
  8  7  1  0
 10  9  2  0
 11 10  1  0
 12 11  2  0
 12  8  1  0
 13 12  1  0
 14 13  2  0
 14  9  1  0
 15  9  1  0
 16 15  2  0
 18 17  2  0
 18 15  1  0
 19 17  1  0
 20  4  1  0
 21 20  1  0
 22 21  2  0
 23 22  1  0
 24 23  2  0
 25 24  1  0
 26 25  2  0
 26 21  1  0
 27 25  1  0
 28 27  1  0
 29 24  1  0
 30 29  1  0
  1 31  1  0
  2 32  1  0
  2 33  1  0
  3 34  1  0
  3 35  1  0
  4 36  1  0
  5 37  1  0
  5 38  1  0
  6 39  1  0
  6 40  1  0
  7 41  1  0
  7 42  1  0
 10 43  1  0
 11 44  1  0
 14 45  1  0
 18 46  1  0
 19 47  1  0
 20 48  1  0
 20 49  1  0
 22 50  1  0
 23 51  1  0
 26 52  1  0
 28 53  1  0
 28 54  1  0
 28 55  1  0
 30 56  1  0
 30 57  1  0
 30 58  1  0
M  CHG  1   4   1
M  END
>  <score>  (3) 
-8.457

$$$$
=
     RDKit          3D

 58 60  0  0  0  0  0  0  0  0999 V2000
    1.4200   63.3510   70.6050 C   0  0  0  0  0  0  0  0  0  0  0  0
    2.7530   63.0770   69.8950 C   0  0  0  0  0  0  0  0  0  0  0  0
    3.9330   62.9810   70.8540 C   0  0  0  0  0  0  0  0  0  0  0  0
    3.6640   61.9650   71.9330 N   0  0  0  0  0  4  0  0  0  0  0  0
    2.3940   62.2680   72.6960 C   0  0  0  0  0  0  0  0  0  0  0  0
    1.2030   62.3510   71.7520 C   0  0  0  0  0  0  0  0  0  0  0  0
    1.3290   64.8200   71.0750 C   0  0  0  0  0  0  0  0  0  0  0  0
    0.0750   65.4080   70.7240 O   0  0  0  0  0  0  0  0  0  0  0  0
    0.2400   67.7120   67.3090 C   0  0  0  0  0  0  0  0  0  0  0  0
    1.3150   67.7050   68.1970 C   0  0  0  0  0  0  0  0  0  0  0  0
    1.2470   66.9150   69.3460 C   0  0  0  0  0  0  0  0  0  0  0  0
    0.1060   66.1590   69.5660 C   0  0  0  0  0  0  0  0  0  0  0  0
   -0.9590   66.1570   68.7390 N   0  0  0  0  0  0  0  0  0  0  0  0
   -0.8670   66.9320   67.6270 C   0  0  0  0  0  0  0  0  0  0  0  0
    0.1980   68.5180   66.0730 C   0  0  0  0  0  0  0  0  0  0  0  0
    1.2220   68.9710   65.5770 O   0  0  0  0  0  0  0  0  0  0  0  0
   -1.1340   68.7730   64.0620 N   0  0  0  0  0  0  0  0  0  0  0  0
   -1.0880   68.7890   65.3540 C   0  0  0  0  0  0  0  0  0  0  0  0
   -2.4450   69.0550   63.6620 O   0  0  0  0  0  0  0  0  0  0  0  0
    3.7940   60.5300   71.4480 C   0  0  0  0  0  0  0  0  0  0  0  0
    3.2570   59.5260   72.4300 C   0  0  0  0  0  0  0  0  0  0  0  0
    2.2040   58.6730   72.0900 C   0  0  0  0  0  0  0  0  0  0  0  0
    1.7470   57.7130   73.0010 C   0  0  0  0  0  0  0  0  0  0  0  0
    2.3280   57.5820   74.2710 C   0  0  0  0  0  0  0  0  0  0  0  0
    3.3720   58.4510   74.6250 C   0  0  0  0  0  0  0  0  0  0  0  0
    3.8300   59.4040   73.7020 C   0  0  0  0  0  0  0  0  0  0  0  0
    4.0820   58.4850   75.7970 O   0  0  0  0  0  0  0  0  0  0  0  0
    3.4530   59.0620   76.9360 C   0  0  0  0  0  0  0  0  0  0  0  0
    1.9540   56.6250   75.1720 O   0  0  0  0  0  0  0  0  0  0  0  0
    0.7550   55.8980   74.9370 C   0  0  0  0  0  0  0  0  0  0  0  0
    0.6016   63.2020   69.8852 H   0  0  0  0  0  0  0  0  0  0  0  0
    2.6689   62.1268   69.3473 H   0  0  0  0  0  0  0  0  0  0  0  0
    2.9461   63.9252   69.2217 H   0  0  0  0  0  0  0  0  0  0  0  0
    4.8305   62.6819   70.2927 H   0  0  0  0  0  0  0  0  0  0  0  0
    4.0855   63.9634   71.3248 H   0  0  0  0  0  0  0  0  0  0  0  0
    4.4183   62.0554   72.6285 H   0  0  0  0  0  0  0  0  0  0  0  0
    2.2161   61.4698   73.4317 H   0  0  0  0  0  0  0  0  0  0  0  0
    2.5101   63.2372   73.2031 H   0  0  0  0  0  0  0  0  0  0  0  0
    1.0264   61.3546   71.3207 H   0  0  0  0  0  0  0  0  0  0  0  0
    0.3402   62.7012   72.3377 H   0  0  0  0  0  0  0  0  0  0  0  0
    1.4450   64.8528   72.1684 H   0  0  0  0  0  0  0  0  0  0  0  0
    2.1275   65.3903   70.5778 H   0  0  0  0  0  0  0  0  0  0  0  0
    2.2073   68.3155   67.9943 H   0  0  0  0  0  0  0  0  0  0  0  0
    2.0817   66.8929   70.0621 H   0  0  0  0  0  0  0  0  0  0  0  0
   -1.7216   66.9434   66.9346 H   0  0  0  0  0  0  0  0  0  0  0  0
   -2.0004   69.0033   65.9298 H   0  0  0  0  0  0  0  0  0  0  0  0
   -2.6729   69.0859   62.6991 H   0  0  0  0  0  0  0  0  0  0  0  0
    3.2392   60.4277   70.5037 H   0  0  0  0  0  0  0  0  0  0  0  0
    4.8666   60.3225   71.3193 H   0  0  0  0  0  0  0  0  0  0  0  0
    1.7310   58.7562   71.1004 H   0  0  0  0  0  0  0  0  0  0  0  0
    0.9173   57.0495   72.7156 H   0  0  0  0  0  0  0  0  0  0  0  0
    4.6583   60.0706   73.9843 H   0  0  0  0  0  0  0  0  0  0  0  0
    3.9025   58.6496   77.8513 H   0  0  0  0  0  0  0  0  0  0  0  0
    3.5923   60.1530   76.9185 H   0  0  0  0  0  0  0  0  0  0  0  0
    2.3780   58.8293   76.9185 H   0  0  0  0  0  0  0  0  0  0  0  0
    0.2992   55.6216   75.8992 H   0  0  0  0  0  0  0  0  0  0  0  0
    0.0534   56.5229   74.3650 H   0  0  0  0  0  0  0  0  0  0  0  0
    0.9847   54.9869   74.3650 H   0  0  0  0  0  0  0  0  0  0  0  0
  2  1  1  0
  3  2  1  0
  4  3  1  0
  5  4  1  0
  6  5  1  0
  6  1  1  0
  7  1  1  0
  8  7  1  0
 10  9  2  0
 11 10  1  0
 12 11  2  0
 12  8  1  0
 13 12  1  0
 14 13  2  0
 14  9  1  0
 15  9  1  0
 16 15  2  0
 18 17  2  0
 18 15  1  0
 19 17  1  0
 20  4  1  0
 21 20  1  0
 22 21  2  0
 23 22  1  0
 24 23  2  0
 25 24  1  0
 26 25  2  0
 26 21  1  0
 27 25  1  0
 28 27  1  0
 29 24  1  0
 30 29  1  0
  1 31  1  0
  2 32  1  0
  2 33  1  0
  3 34  1  0
  3 35  1  0
  4 36  1  0
  5 37  1  0
  5 38  1  0
  6 39  1  0
  6 40  1  0
  7 41  1  0
  7 42  1  0
 10 43  1  0
 11 44  1  0
 14 45  1  0
 18 46  1  0
 19 47  1  0
 20 48  1  0
 20 49  1  0
 22 50  1  0
 23 51  1  0
 26 52  1  0
 28 53  1  0
 28 54  1  0
 28 55  1  0
 30 56  1  0
 30 57  1  0
 30 58  1  0
M  CHG  1   4   1
M  END
>  <score>  (4) 
-8.348

$$$$
=
     RDKit          3D

 58 60  0  0  0  0  0  0  0  0999 V2000
    2.6480   63.9660   71.0980 C   0  0  0  0  0  0  0  0  0  0  0  0
    1.9690   62.8870   71.9530 C   0  0  0  0  0  0  0  0  0  0  0  0
    1.7590   61.5760   71.2050 C   0  0  0  0  0  0  0  0  0  0  0  0
    3.0550   61.0800   70.6180 N   0  0  0  0  0  4  0  0  0  0  0  0
    3.6960   62.1040   69.7080 C   0  0  0  0  0  0  0  0  0  0  0  0
    3.9270   63.4150   70.4470 C   0  0  0  0  0  0  0  0  0  0  0  0
    1.6660   64.5600   70.0640 C   0  0  0  0  0  0  0  0  0  0  0  0
    1.5370   65.9750   70.2130 O   0  0  0  0  0  0  0  0  0  0  0  0
   -0.6100   67.8840   67.2560 C   0  0  0  0  0  0  0  0  0  0  0  0
    0.6820   68.3090   67.5640 C   0  0  0  0  0  0  0  0  0  0  0  0
    1.3980   67.6480   68.5630 C   0  0  0  0  0  0  0  0  0  0  0  0
    0.7980   66.5850   69.2200 C   0  0  0  0  0  0  0  0  0  0  0  0
   -0.4560   66.1610   68.9620 N   0  0  0  0  0  0  0  0  0  0  0  0
   -1.1310   66.8180   67.9840 C   0  0  0  0  0  0  0  0  0  0  0  0
   -1.4620   68.5140   66.2300 C   0  0  0  0  0  0  0  0  0  0  0  0
   -2.6650   68.6650   66.4080 O   0  0  0  0  0  0  0  0  0  0  0  0
   -1.4160   68.6810   63.8100 N   0  0  0  0  0  0  0  0  0  0  0  0
   -0.8940   69.0260   64.9420 C   0  0  0  0  0  0  0  0  0  0  0  0
   -0.6940   69.2980   62.7820 O   0  0  0  0  0  0  0  0  0  0  0  0
    3.9850   60.4720   71.6540 C   0  0  0  0  0  0  0  0  0  0  0  0
    3.3380   59.3790   72.4580 C   0  0  0  0  0  0  0  0  0  0  0  0
    2.6960   58.3050   71.8340 C   0  0  0  0  0  0  0  0  0  0  0  0
    2.1390   57.2720   72.5980 C   0  0  0  0  0  0  0  0  0  0  0  0
    2.2060   57.2860   73.9990 C   0  0  0  0  0  0  0  0  0  0  0  0
    2.8300   58.3740   74.6300 C   0  0  0  0  0  0  0  0  0  0  0  0
    3.3950   59.3990   73.8560 C   0  0  0  0  0  0  0  0  0  0  0  0
    3.0170   58.5780   75.9730 O   0  0  0  0  0  0  0  0  0  0  0  0
    4.0490   57.8380   76.6170 C   0  0  0  0  0  0  0  0  0  0  0  0
    1.7270   56.2760   74.7840 O   0  0  0  0  0  0  0  0  0  0  0  0
    2.0980   54.9380   74.4740 C   0  0  0  0  0  0  0  0  0  0  0  0
    2.9495   64.7954   71.7546 H   0  0  0  0  0  0  0  0  0  0  0  0
    2.5983   62.6907   72.8336 H   0  0  0  0  0  0  0  0  0  0  0  0
    0.9757   63.2675   72.2332 H   0  0  0  0  0  0  0  0  0  0  0  0
    1.3674   60.8215   71.9031 H   0  0  0  0  0  0  0  0  0  0  0  0
    1.0448   61.7483   70.3863 H   0  0  0  0  0  0  0  0  0  0  0  0
    2.8248   60.2866   70.0028 H   0  0  0  0  0  0  0  0  0  0  0  0
    4.6617   61.7157   69.3520 H   0  0  0  0  0  0  0  0  0  0  0  0
    3.0223   62.2919   68.8590 H   0  0  0  0  0  0  0  0  0  0  0  0
    4.6774   63.2474   71.2336 H   0  0  0  0  0  0  0  0  0  0  0  0
    4.2679   64.1555   69.7085 H   0  0  0  0  0  0  0  0  0  0  0  0
    2.0370   64.3401   69.0521 H   0  0  0  0  0  0  0  0  0  0  0  0
    0.6778   64.1055   70.2278 H   0  0  0  0  0  0  0  0  0  0  0  0
    1.1319   69.1560   67.0254 H   0  0  0  0  0  0  0  0  0  0  0  0
    2.4187   67.9644   68.8240 H   0  0  0  0  0  0  0  0  0  0  0  0
   -2.1541   66.4870   67.7524 H   0  0  0  0  0  0  0  0  0  0  0  0
   -0.0257   69.7011   64.9590 H   0  0  0  0  0  0  0  0  0  0  0  0
   -0.9513   69.1487   61.8378 H   0  0  0  0  0  0  0  0  0  0  0  0
    4.8607   60.0540   71.1359 H   0  0  0  0  0  0  0  0  0  0  0  0
    4.2643   61.2730   72.3543 H   0  0  0  0  0  0  0  0  0  0  0  0
    2.6281   58.2713   70.7366 H   0  0  0  0  0  0  0  0  0  0  0  0
    1.6396   56.4339   72.0899 H   0  0  0  0  0  0  0  0  0  0  0  0
    3.8950   60.2389   74.3606 H   0  0  0  0  0  0  0  0  0  0  0  0
    3.9336   57.9208   77.7078 H   0  0  0  0  0  0  0  0  0  0  0  0
    3.9820   56.7809   76.3204 H   0  0  0  0  0  0  0  0  0  0  0  0
    5.0287   58.2407   76.3204 H   0  0  0  0  0  0  0  0  0  0  0  0
    2.2540   54.3754   75.4063 H   0  0  0  0  0  0  0  0  0  0  0  0
    1.2979   54.4621   73.8880 H   0  0  0  0  0  0  0  0  0  0  0  0
    3.0289   54.9420   73.8880 H   0  0  0  0  0  0  0  0  0  0  0  0
  2  1  1  0
  3  2  1  0
  4  3  1  0
  5  4  1  0
  6  5  1  0
  6  1  1  0
  7  1  1  0
  8  7  1  0
 10  9  2  0
 11 10  1  0
 12 11  2  0
 12  8  1  0
 13 12  1  0
 14 13  2  0
 14  9  1  0
 15  9  1  0
 16 15  2  0
 18 17  2  0
 18 15  1  0
 19 17  1  0
 20  4  1  0
 21 20  1  0
 22 21  2  0
 23 22  1  0
 24 23  2  0
 25 24  1  0
 26 25  2  0
 26 21  1  0
 27 25  1  0
 28 27  1  0
 29 24  1  0
 30 29  1  0
  1 31  1  0
  2 32  1  0
  2 33  1  0
  3 34  1  0
  3 35  1  0
  4 36  1  0
  5 37  1  0
  5 38  1  0
  6 39  1  0
  6 40  1  0
  7 41  1  0
  7 42  1  0
 10 43  1  0
 11 44  1  0
 14 45  1  0
 18 46  1  0
 19 47  1  0
 20 48  1  0
 20 49  1  0
 22 50  1  0
 23 51  1  0
 26 52  1  0
 28 53  1  0
 28 54  1  0
 28 55  1  0
 30 56  1  0
 30 57  1  0
 30 58  1  0
M  CHG  1   4   1
M  END
>  <score>  (5) 
-8.254

$$$$
=
     RDKit          3D

 58 60  0  0  0  0  0  0  0  0999 V2000
    2.2740   62.7450   72.2460 C   0  0  0  0  0  0  0  0  0  0  0  0
    3.0760   63.4060   71.1160 C   0  0  0  0  0  0  0  0  0  0  0  0
    2.2760   63.5660   69.8290 C   0  0  0  0  0  0  0  0  0  0  0  0
    0.9850   64.2970   70.0880 N   0  0  0  0  0  4  0  0  0  0  0  0
    0.1450   63.6120   71.1440 C   0  0  0  0  0  0  0  0  0  0  0  0
    0.9270   63.4600   72.4410 C   0  0  0  0  0  0  0  0  0  0  0  0
    2.1090   61.2290   72.0030 C   0  0  0  0  0  0  0  0  0  0  0  0
    0.9470   60.7140   72.6550 O   0  0  0  0  0  0  0  0  0  0  0  0
    1.0620   56.7010   73.5920 C   0  0  0  0  0  0  0  0  0  0  0  0
   -0.0120   57.4850   74.0140 C   0  0  0  0  0  0  0  0  0  0  0  0
   -0.0390   58.8410   73.6830 C   0  0  0  0  0  0  0  0  0  0  0  0
    1.0080   59.3650   72.9420 C   0  0  0  0  0  0  0  0  0  0  0  0
    2.0700   58.6420   72.5340 N   0  0  0  0  0  0  0  0  0  0  0  0
    2.0710   57.3250   72.8650 C   0  0  0  0  0  0  0  0  0  0  0  0
    1.2000   55.2630   73.8930 C   0  0  0  0  0  0  0  0  0  0  0  0
    2.2970   54.7660   74.1200 O   0  0  0  0  0  0  0  0  0  0  0  0
   -0.7070   54.3000   75.0410 N   0  0  0  0  0  0  0  0  0  0  0  0
    0.0100   54.3570   73.9660 C   0  0  0  0  0  0  0  0  0  0  0  0
   -1.7440   53.3830   74.8340 O   0  0  0  0  0  0  0  0  0  0  0  0
    1.1760   65.7910   70.2910 C   0  0  0  0  0  0  0  0  0  0  0  0
    0.5600   66.6170   69.1950 C   0  0  0  0  0  0  0  0  0  0  0  0
   -0.7500   66.3890   68.7660 C   0  0  0  0  0  0  0  0  0  0  0  0
   -1.3230   67.1980   67.7760 C   0  0  0  0  0  0  0  0  0  0  0  0
   -0.6020   68.2500   67.1920 C   0  0  0  0  0  0  0  0  0  0  0  0
    0.7220   68.4690   67.6050 C   0  0  0  0  0  0  0  0  0  0  0  0
    1.2830   67.6600   68.6040 C   0  0  0  0  0  0  0  0  0  0  0  0
    1.5890   69.4410   67.1790 O   0  0  0  0  0  0  0  0  0  0  0  0
    2.6300   69.0550   66.2870 C   0  0  0  0  0  0  0  0  0  0  0  0
   -1.1360   69.1000   66.2640 O   0  0  0  0  0  0  0  0  0  0  0  0
   -2.4350   68.8240   65.7550 C   0  0  0  0  0  0  0  0  0  0  0  0
    2.8379   62.8505   73.1845 H   0  0  0  0  0  0  0  0  0  0  0  0
    3.3999   64.4018   71.4529 H   0  0  0  0  0  0  0  0  0  0  0  0
    3.9293   62.7490   70.8920 H   0  0  0  0  0  0  0  0  0  0  0  0
    2.8732   64.1357   69.1018 H   0  0  0  0  0  0  0  0  0  0  0  0
    2.0416   62.5667   69.4335 H   0  0  0  0  0  0  0  0  0  0  0  0
    0.4253   64.2381   69.2253 H   0  0  0  0  0  0  0  0  0  0  0  0
   -0.7561   64.2135   71.3344 H   0  0  0  0  0  0  0  0  0  0  0  0
   -0.1326   62.6118   70.7800 H   0  0  0  0  0  0  0  0  0  0  0  0
    1.1175   64.4609   72.8556 H   0  0  0  0  0  0  0  0  0  0  0  0
    0.3213   62.8439   73.1219 H   0  0  0  0  0  0  0  0  0  0  0  0
    2.0206   61.0486   70.9215 H   0  0  0  0  0  0  0  0  0  0  0  0
    2.9903   60.7169   72.4167 H   0  0  0  0  0  0  0  0  0  0  0  0
   -0.8286   57.0396   74.6011 H   0  0  0  0  0  0  0  0  0  0  0  0
   -0.8745   59.4805   74.0040 H   0  0  0  0  0  0  0  0  0  0  0  0
    2.9239   56.7124   72.5375 H   0  0  0  0  0  0  0  0  0  0  0  0
   -0.2565   53.7351   73.0987 H   0  0  0  0  0  0  0  0  0  0  0  0
   -2.3997   53.2064   75.5544 H   0  0  0  0  0  0  0  0  0  0  0  0
    0.7135   66.0767   71.2473 H   0  0  0  0  0  0  0  0  0  0  0  0
    2.2581   65.9883   70.2829 H   0  0  0  0  0  0  0  0  0  0  0  0
   -1.3351   65.5692   69.2083 H   0  0  0  0  0  0  0  0  0  0  0  0
   -2.3560   67.0049   67.4511 H   0  0  0  0  0  0  0  0  0  0  0  0
    2.3160   67.8496   68.9310 H   0  0  0  0  0  0  0  0  0  0  0  0
    3.5070   68.7298   66.8658 H   0  0  0  0  0  0  0  0  0  0  0  0
    2.2812   68.2264   65.6531 H   0  0  0  0  0  0  0  0  0  0  0  0
    2.9058   69.9107   65.6531 H   0  0  0  0  0  0  0  0  0  0  0  0
   -3.1330   68.6757   66.5922 H   0  0  0  0  0  0  0  0  0  0  0  0
   -2.7750   69.6699   65.1396 H   0  0  0  0  0  0  0  0  0  0  0  0
   -2.4017   67.9129   65.1396 H   0  0  0  0  0  0  0  0  0  0  0  0
  2  1  1  0
  3  2  1  0
  4  3  1  0
  5  4  1  0
  6  5  1  0
  6  1  1  0
  7  1  1  0
  8  7  1  0
 10  9  2  0
 11 10  1  0
 12 11  2  0
 12  8  1  0
 13 12  1  0
 14 13  2  0
 14  9  1  0
 15  9  1  0
 16 15  2  0
 18 17  2  0
 18 15  1  0
 19 17  1  0
 20  4  1  0
 21 20  1  0
 22 21  2  0
 23 22  1  0
 24 23  2  0
 25 24  1  0
 26 25  2  0
 26 21  1  0
 27 25  1  0
 28 27  1  0
 29 24  1  0
 30 29  1  0
  1 31  1  0
  2 32  1  0
  2 33  1  0
  3 34  1  0
  3 35  1  0
  4 36  1  0
  5 37  1  0
  5 38  1  0
  6 39  1  0
  6 40  1  0
  7 41  1  0
  7 42  1  0
 10 43  1  0
 11 44  1  0
 14 45  1  0
 18 46  1  0
 19 47  1  0
 20 48  1  0
 20 49  1  0
 22 50  1  0
 23 51  1  0
 26 52  1  0
 28 53  1  0
 28 54  1  0
 28 55  1  0
 30 56  1  0
 30 57  1  0
 30 58  1  0
M  CHG  1   4   1
M  END
>  <score>  (6) 
-8.234

$$$$
=
     RDKit          3D

 58 60  0  0  0  0  0  0  0  0999 V2000
    0.9400   65.7710   70.4470 C   0  0  0  0  0  0  0  0  0  0  0  0
    0.0320   64.8320   71.2530 C   0  0  0  0  0  0  0  0  0  0  0  0
   -0.0060   63.4140   70.6970 C   0  0  0  0  0  0  0  0  0  0  0  0
    1.3850   62.8540   70.5630 N   0  0  0  0  0  4  0  0  0  0  0  0
    2.2710   63.7280   69.7030 C   0  0  0  0  0  0  0  0  0  0  0  0
    2.3320   65.1450   70.2570 C   0  0  0  0  0  0  0  0  0  0  0  0
    0.2830   66.1720   69.1070 C   0  0  0  0  0  0  0  0  0  0  0  0
    0.4140   67.5720   68.8560 O   0  0  0  0  0  0  0  0  0  0  0  0
    2.9520   68.6050   65.7760 C   0  0  0  0  0  0  0  0  0  0  0  0
    2.9090   69.3810   66.9330 C   0  0  0  0  0  0  0  0  0  0  0  0
    2.0490   69.0150   67.9700 C   0  0  0  0  0  0  0  0  0  0  0  0
    1.2620   67.8850   67.8130 C   0  0  0  0  0  0  0  0  0  0  0  0
    1.2640   67.1220   66.7010 N   0  0  0  0  0  0  0  0  0  0  0  0
    2.1110   67.4980   65.7080 C   0  0  0  0  0  0  0  0  0  0  0  0
    3.8120   68.9040   64.6140 C   0  0  0  0  0  0  0  0  0  0  0  0
    4.7520   69.6840   64.7060 O   0  0  0  0  0  0  0  0  0  0  0  0
    4.1440   68.7290   62.2180 N   0  0  0  0  0  0  0  0  0  0  0  0
    3.5960   68.2470   63.2860 C   0  0  0  0  0  0  0  0  0  0  0  0
    3.7790   67.9260   61.1310 O   0  0  0  0  0  0  0  0  0  0  0  0
    1.9920   62.4380   71.8930 C   0  0  0  0  0  0  0  0  0  0  0  0
    1.8350   60.9700   72.1790 C   0  0  0  0  0  0  0  0  0  0  0  0
    2.8150   60.0500   71.7960 C   0  0  0  0  0  0  0  0  0  0  0  0
    2.6740   58.6930   72.1110 C   0  0  0  0  0  0  0  0  0  0  0  0
    1.5550   58.2220   72.8120 C   0  0  0  0  0  0  0  0  0  0  0  0
    0.5570   59.1400   73.1790 C   0  0  0  0  0  0  0  0  0  0  0  0
    0.7120   60.4990   72.8680 C   0  0  0  0  0  0  0  0  0  0  0  0
   -0.5990   58.8970   73.8740 O   0  0  0  0  0  0  0  0  0  0  0  0
   -1.3290   60.0200   74.3560 C   0  0  0  0  0  0  0  0  0  0  0  0
    1.3990   56.9180   73.1900 O   0  0  0  0  0  0  0  0  0  0  0  0
    1.9540   56.4980   74.4310 C   0  0  0  0  0  0  0  0  0  0  0  0
    1.0769   66.7015   71.0175 H   0  0  0  0  0  0  0  0  0  0  0  0
    0.4008   64.7921   72.2886 H   0  0  0  0  0  0  0  0  0  0  0  0
   -0.9901   65.2345   71.1948 H   0  0  0  0  0  0  0  0  0  0  0  0
   -0.5877   62.7753   71.3779 H   0  0  0  0  0  0  0  0  0  0  0  0
   -0.4733   63.4384   69.7015 H   0  0  0  0  0  0  0  0  0  0  0  0
    1.3049   61.9677   70.0445 H   0  0  0  0  0  0  0  0  0  0  0  0
    3.2859   63.3043   69.6832 H   0  0  0  0  0  0  0  0  0  0  0  0
    1.8519   63.7640   68.6866 H   0  0  0  0  0  0  0  0  0  0  0  0
    2.8420   65.1198   71.2313 H   0  0  0  0  0  0  0  0  0  0  0  0
    2.8762   65.7627   69.5274 H   0  0  0  0  0  0  0  0  0  0  0  0
    0.7679   65.6160   68.2911 H   0  0  0  0  0  0  0  0  0  0  0  0
   -0.7888   65.9311   69.1634 H   0  0  0  0  0  0  0  0  0  0  0  0
    3.5461   70.2726   67.0280 H   0  0  0  0  0  0  0  0  0  0  0  0
    1.9970   69.6113   68.8929 H   0  0  0  0  0  0  0  0  0  0  0  0
    2.1338   66.8892   64.7921 H   0  0  0  0  0  0  0  0  0  0  0  0
    2.9665   67.3475   63.2181 H   0  0  0  0  0  0  0  0  0  0  0  0
    4.1076   68.1432   60.2227 H   0  0  0  0  0  0  0  0  0  0  0  0
    3.0651   62.6792   71.8789 H   0  0  0  0  0  0  0  0  0  0  0  0
    1.4575   62.9854   72.6833 H   0  0  0  0  0  0  0  0  0  0  0  0
    3.7021   60.3940   71.2440 H   0  0  0  0  0  0  0  0  0  0  0  0
    3.4558   57.9833   71.8027 H   0  0  0  0  0  0  0  0  0  0  0  0
   -0.0683   61.2117   73.1732 H   0  0  0  0  0  0  0  0  0  0  0  0
   -1.3256   60.0148   75.4560 H   0  0  0  0  0  0  0  0  0  0  0  0
   -0.8597   60.9460   73.9922 H   0  0  0  0  0  0  0  0  0  0  0  0
   -2.3658   59.9670   73.9922 H   0  0  0  0  0  0  0  0  0  0  0  0
    1.3757   56.9356   75.2581 H   0  0  0  0  0  0  0  0  0  0  0  0
    1.9157   55.4007   74.4972 H   0  0  0  0  0  0  0  0  0  0  0  0
    2.9996   56.8330   74.4972 H   0  0  0  0  0  0  0  0  0  0  0  0
  2  1  1  0
  3  2  1  0
  4  3  1  0
  5  4  1  0
  6  5  1  0
  6  1  1  0
  7  1  1  0
  8  7  1  0
 10  9  2  0
 11 10  1  0
 12 11  2  0
 12  8  1  0
 13 12  1  0
 14 13  2  0
 14  9  1  0
 15  9  1  0
 16 15  2  0
 18 17  2  0
 18 15  1  0
 19 17  1  0
 20  4  1  0
 21 20  1  0
 22 21  2  0
 23 22  1  0
 24 23  2  0
 25 24  1  0
 26 25  2  0
 26 21  1  0
 27 25  1  0
 28 27  1  0
 29 24  1  0
 30 29  1  0
  1 31  1  0
  2 32  1  0
  2 33  1  0
  3 34  1  0
  3 35  1  0
  4 36  1  0
  5 37  1  0
  5 38  1  0
  6 39  1  0
  6 40  1  0
  7 41  1  0
  7 42  1  0
 10 43  1  0
 11 44  1  0
 14 45  1  0
 18 46  1  0
 19 47  1  0
 20 48  1  0
 20 49  1  0
 22 50  1  0
 23 51  1  0
 26 52  1  0
 28 53  1  0
 28 54  1  0
 28 55  1  0
 30 56  1  0
 30 57  1  0
 30 58  1  0
M  CHG  1   4   1
M  END
>  <score>  (7) 
-8.002

$$$$
=
     RDKit          3D

 58 60  0  0  0  0  0  0  0  0999 V2000
    2.4250   62.6180   72.1680 C   0  0  0  0  0  0  0  0  0  0  0  0
    2.8320   63.5410   71.0100 C   0  0  0  0  0  0  0  0  0  0  0  0
    1.7630   63.6500   69.9290 C   0  0  0  0  0  0  0  0  0  0  0  0
    0.4410   64.0600   70.5220 N   0  0  0  0  0  4  0  0  0  0  0  0
   -0.0130   63.1130   71.6120 C   0  0  0  0  0  0  0  0  0  0  0  0
    1.0380   63.0070   72.7070 C   0  0  0  0  0  0  0  0  0  0  0  0
    2.5040   61.1320   71.7530 C   0  0  0  0  0  0  0  0  0  0  0  0
    3.1080   60.3330   72.7720 O   0  0  0  0  0  0  0  0  0  0  0  0
    0.8060   57.1130   73.9240 C   0  0  0  0  0  0  0  0  0  0  0  0
    1.6020   57.0280   72.7820 C   0  0  0  0  0  0  0  0  0  0  0  0
    2.3810   58.1240   72.4090 C   0  0  0  0  0  0  0  0  0  0  0  0
    2.3360   59.2680   73.1900 C   0  0  0  0  0  0  0  0  0  0  0  0
    1.5640   59.3920   74.2890 N   0  0  0  0  0  0  0  0  0  0  0  0
    0.8190   58.3110   74.6330 C   0  0  0  0  0  0  0  0  0  0  0  0
   -0.0650   56.0230   74.4040 C   0  0  0  0  0  0  0  0  0  0  0  0
    0.3220   54.8610   74.4160 O   0  0  0  0  0  0  0  0  0  0  0  0
   -2.2880   55.3220   75.0760 N   0  0  0  0  0  0  0  0  0  0  0  0
   -1.4430   56.2890   74.9270 C   0  0  0  0  0  0  0  0  0  0  0  0
   -3.4840   55.8500   75.5750 O   0  0  0  0  0  0  0  0  0  0  0  0
    0.3830   65.5330   70.8890 C   0  0  0  0  0  0  0  0  0  0  0  0
    0.3810   66.4390   69.6900 C   0  0  0  0  0  0  0  0  0  0  0  0
    1.4340   67.3280   69.4520 C   0  0  0  0  0  0  0  0  0  0  0  0
    1.4390   68.1310   68.3050 C   0  0  0  0  0  0  0  0  0  0  0  0
    0.3940   68.0700   67.3710 C   0  0  0  0  0  0  0  0  0  0  0  0
   -0.6760   67.1950   67.6160 C   0  0  0  0  0  0  0  0  0  0  0  0
   -0.6670   66.3860   68.7630 C   0  0  0  0  0  0  0  0  0  0  0  0
   -1.7780   66.9690   66.8340 O   0  0  0  0  0  0  0  0  0  0  0  0
   -2.7870   67.9730   66.8080 C   0  0  0  0  0  0  0  0  0  0  0  0
    0.3810   68.7920   66.2110 O   0  0  0  0  0  0  0  0  0  0  0  0
    1.2170   68.3740   65.1390 C   0  0  0  0  0  0  0  0  0  0  0  0
    3.1423   62.7502   72.9914 H   0  0  0  0  0  0  0  0  0  0  0  0
    3.0250   64.5457   71.4142 H   0  0  0  0  0  0  0  0  0  0  0  0
    3.7280   63.1062   70.5430 H   0  0  0  0  0  0  0  0  0  0  0  0
    2.0745   64.4015   69.1886 H   0  0  0  0  0  0  0  0  0  0  0  0
    1.6444   62.6666   69.4507 H   0  0  0  0  0  0  0  0  0  0  0  0
   -0.2657   63.9661   69.7786 H   0  0  0  0  0  0  0  0  0  0  0  0
   -0.9512   63.4874   72.0475 H   0  0  0  0  0  0  0  0  0  0  0  0
   -0.1662   62.1164   71.1723 H   0  0  0  0  0  0  0  0  0  0  0  0
    1.1180   63.9807   73.2124 H   0  0  0  0  0  0  0  0  0  0  0  0
    0.7171   62.2132   73.3976 H   0  0  0  0  0  0  0  0  0  0  0  0
    1.4864   60.7596   71.5636 H   0  0  0  0  0  0  0  0  0  0  0  0
    3.1235   61.0602   70.8469 H   0  0  0  0  0  0  0  0  0  0  0  0
    1.6156   56.1065   72.1815 H   0  0  0  0  0  0  0  0  0  0  0  0
    3.0179   58.0808   71.5132 H   0  0  0  0  0  0  0  0  0  0  0  0
    0.1852   58.3862   75.5289 H   0  0  0  0  0  0  0  0  0  0  0  0
   -1.7387   57.3162   75.1866 H   0  0  0  0  0  0  0  0  0  0  0  0
   -4.2527   55.2522   75.7534 H   0  0  0  0  0  0  0  0  0  0  0  0
   -0.5356   65.7142   71.4664 H   0  0  0  0  0  0  0  0  0  0  0  0
    1.2873   65.7619   71.4719 H   0  0  0  0  0  0  0  0  0  0  0  0
    2.2639   67.3969   70.1707 H   0  0  0  0  0  0  0  0  0  0  0  0
    2.2774   68.8221   68.1331 H   0  0  0  0  0  0  0  0  0  0  0  0
   -1.5036   65.6935   68.9379 H   0  0  0  0  0  0  0  0  0  0  0  0
   -3.0603   68.2449   67.8382 H   0  0  0  0  0  0  0  0  0  0  0  0
   -2.4067   68.8616   66.2828 H   0  0  0  0  0  0  0  0  0  0  0  0
   -3.6737   67.5882   66.2828 H   0  0  0  0  0  0  0  0  0  0  0  0
    2.1317   67.9167   65.5442 H   0  0  0  0  0  0  0  0  0  0  0  0
    0.6813   67.6377   64.5219 H   0  0  0  0  0  0  0  0  0  0  0  0
    1.4846   69.2444   64.5219 H   0  0  0  0  0  0  0  0  0  0  0  0
  2  1  1  0
  3  2  1  0
  4  3  1  0
  5  4  1  0
  6  5  1  0
  6  1  1  0
  7  1  1  0
  8  7  1  0
 10  9  2  0
 11 10  1  0
 12 11  2  0
 12  8  1  0
 13 12  1  0
 14 13  2  0
 14  9  1  0
 15  9  1  0
 16 15  2  0
 18 17  2  0
 18 15  1  0
 19 17  1  0
 20  4  1  0
 21 20  1  0
 22 21  2  0
 23 22  1  0
 24 23  2  0
 25 24  1  0
 26 25  2  0
 26 21  1  0
 27 25  1  0
 28 27  1  0
 29 24  1  0
 30 29  1  0
  1 31  1  0
  2 32  1  0
  2 33  1  0
  3 34  1  0
  3 35  1  0
  4 36  1  0
  5 37  1  0
  5 38  1  0
  6 39  1  0
  6 40  1  0
  7 41  1  0
  7 42  1  0
 10 43  1  0
 11 44  1  0
 14 45  1  0
 18 46  1  0
 19 47  1  0
 20 48  1  0
 20 49  1  0
 22 50  1  0
 23 51  1  0
 26 52  1  0
 28 53  1  0
 28 54  1  0
 28 55  1  0
 30 56  1  0
 30 57  1  0
 30 58  1  0
M  CHG  1   4   1
M  END
>  <score>  (8) 
-7.815

$$$$
=
     RDKit          3D

 58 60  0  0  0  0  0  0  0  0999 V2000
    0.8310   65.8350   70.4710 C   0  0  0  0  0  0  0  0  0  0  0  0
    0.0300   64.9190   71.4070 C   0  0  0  0  0  0  0  0  0  0  0  0
    0.0810   63.4520   70.9960 C   0  0  0  0  0  0  0  0  0  0  0  0
    1.5060   62.9850   70.8540 N   0  0  0  0  0  4  0  0  0  0  0  0
    2.2870   63.8300   69.8720 C   0  0  0  0  0  0  0  0  0  0  0  0
    2.2590   65.2970   70.2790 C   0  0  0  0  0  0  0  0  0  0  0  0
    0.0930   66.0470   69.1300 C   0  0  0  0  0  0  0  0  0  0  0  0
    0.0770   67.4240   68.7500 O   0  0  0  0  0  0  0  0  0  0  0  0
    2.8380   68.5140   65.8890 C   0  0  0  0  0  0  0  0  0  0  0  0
    2.6570   69.3080   67.0220 C   0  0  0  0  0  0  0  0  0  0  0  0
    1.7240   68.9210   67.9840 C   0  0  0  0  0  0  0  0  0  0  0  0
    1.0030   67.7560   67.7810 C   0  0  0  0  0  0  0  0  0  0  0  0
    1.1380   66.9750   66.6890 N   0  0  0  0  0  0  0  0  0  0  0  0
    2.0540   67.3710   65.7690 C   0  0  0  0  0  0  0  0  0  0  0  0
    3.7860   68.8320   64.8040 C   0  0  0  0  0  0  0  0  0  0  0  0
    4.8710   69.3500   65.0410 O   0  0  0  0  0  0  0  0  0  0  0  0
    4.3100   67.8080   62.6680 N   0  0  0  0  0  0  0  0  0  0  0  0
    3.4820   68.5070   63.3740 C   0  0  0  0  0  0  0  0  0  0  0  0
    3.7790   67.6560   61.3820 O   0  0  0  0  0  0  0  0  0  0  0  0
    2.1950   62.7540   72.1890 C   0  0  0  0  0  0  0  0  0  0  0  0
    1.8830   61.4110   72.7880 C   0  0  0  0  0  0  0  0  0  0  0  0
    1.2000   61.3000   74.0020 C   0  0  0  0  0  0  0  0  0  0  0  0
    0.8770   60.0410   74.5230 C   0  0  0  0  0  0  0  0  0  0  0  0
    1.2280   58.8640   73.8460 C   0  0  0  0  0  0  0  0  0  0  0  0
    1.9330   58.9690   72.6360 C   0  0  0  0  0  0  0  0  0  0  0  0
    2.2430   60.2360   72.1170 C   0  0  0  0  0  0  0  0  0  0  0  0
    2.3560   57.9570   71.8140 O   0  0  0  0  0  0  0  0  0  0  0  0
    3.4660   58.2170   70.9620 C   0  0  0  0  0  0  0  0  0  0  0  0
    0.8870   57.6150   74.2840 O   0  0  0  0  0  0  0  0  0  0  0  0
    1.4780   57.1300   75.4840 C   0  0  0  0  0  0  0  0  0  0  0  0
    0.9178   66.8262   70.9400 H   0  0  0  0  0  0  0  0  0  0  0  0
    0.4402   65.0122   72.4234 H   0  0  0  0  0  0  0  0  0  0  0  0
   -1.0217   65.2374   71.3564 H   0  0  0  0  0  0  0  0  0  0  0  0
   -0.4226   62.8450   71.7628 H   0  0  0  0  0  0  0  0  0  0  0  0
   -0.4248   63.3401   70.0256 H   0  0  0  0  0  0  0  0  0  0  0  0
    1.4752   62.0466   70.4305 H   0  0  0  0  0  0  0  0  0  0  0  0
    3.3304   63.4825   69.8473 H   0  0  0  0  0  0  0  0  0  0  0  0
    1.8268   63.7311   68.8778 H   0  0  0  0  0  0  0  0  0  0  0  0
    2.8073   65.4096   71.2260 H   0  0  0  0  0  0  0  0  0  0  0  0
    2.7243   65.8750   69.4669 H   0  0  0  0  0  0  0  0  0  0  0  0
    0.6023   65.4665   68.3467 H   0  0  0  0  0  0  0  0  0  0  0  0
   -0.9475   65.7123   69.2535 H   0  0  0  0  0  0  0  0  0  0  0  0
    3.2436   70.2290   67.1551 H   0  0  0  0  0  0  0  0  0  0  0  0
    1.5640   69.5293   68.8864 H   0  0  0  0  0  0  0  0  0  0  0  0
    2.1848   66.7486   64.8715 H   0  0  0  0  0  0  0  0  0  0  0  0
    2.5464   68.8659   62.9203 H   0  0  0  0  0  0  0  0  0  0  0  0
    4.2789   67.1448   60.6973 H   0  0  0  0  0  0  0  0  0  0  0  0
    3.2823   62.8266   72.0392 H   0  0  0  0  0  0  0  0  0  0  0  0
    1.8239   63.5191   72.8868 H   0  0  0  0  0  0  0  0  0  0  0  0
    0.9139   62.2084   74.5525 H   0  0  0  0  0  0  0  0  0  0  0  0
    0.3386   59.9740   75.4799 H   0  0  0  0  0  0  0  0  0  0  0  0
    2.7815   60.3074   71.1605 H   0  0  0  0  0  0  0  0  0  0  0  0
    4.3564   58.4256   71.5732 H   0  0  0  0  0  0  0  0  0  0  0  0
    3.6546   57.3387   70.3271 H   0  0  0  0  0  0  0  0  0  0  0  0
    3.2449   59.0877   70.3271 H   0  0  0  0  0  0  0  0  0  0  0  0
    0.9542   57.5599   76.3505 H   0  0  0  0  0  0  0  0  0  0  0  0
    1.3986   56.0333   75.5146 H   0  0  0  0  0  0  0  0  0  0  0  0
    2.5381   57.4219   75.5146 H   0  0  0  0  0  0  0  0  0  0  0  0
  2  1  1  0
  3  2  1  0
  4  3  1  0
  5  4  1  0
  6  5  1  0
  6  1  1  0
  7  1  1  0
  8  7  1  0
 10  9  2  0
 11 10  1  0
 12 11  2  0
 12  8  1  0
 13 12  1  0
 14 13  2  0
 14  9  1  0
 15  9  1  0
 16 15  2  0
 18 17  2  0
 18 15  1  0
 19 17  1  0
 20  4  1  0
 21 20  1  0
 22 21  2  0
 23 22  1  0
 24 23  2  0
 25 24  1  0
 26 25  2  0
 26 21  1  0
 27 25  1  0
 28 27  1  0
 29 24  1  0
 30 29  1  0
  1 31  1  0
  2 32  1  0
  2 33  1  0
  3 34  1  0
  3 35  1  0
  4 36  1  0
  5 37  1  0
  5 38  1  0
  6 39  1  0
  6 40  1  0
  7 41  1  0
  7 42  1  0
 10 43  1  0
 11 44  1  0
 14 45  1  0
 18 46  1  0
 19 47  1  0
 20 48  1  0
 20 49  1  0
 22 50  1  0
 23 51  1  0
 26 52  1  0
 28 53  1  0
 28 54  1  0
 28 55  1  0
 30 56  1  0
 30 57  1  0
 30 58  1  0
M  CHG  1   4   1
M  END
>  <score>  (9) 
-7.791

$$$$
