=
     RDKit          3D

 62 64  0  0  0  0  0  0  0  0999 V2000
    1.3810   68.9000   68.0430 N   0  0  1  0  0  4  0  0  0  0  0  0
    2.6860   69.6540   67.9840 C   0  0  0  0  0  0  0  0  0  0  0  0
    3.5810   69.0890   66.8820 C   0  0  0  0  0  0  0  0  0  0  0  0
    2.8620   68.9420   65.5630 C   0  0  0  0  0  0  0  0  0  0  0  0
    1.4550   68.9500   65.4860 C   0  0  0  0  0  0  0  0  0  0  0  0
    0.6020   69.1410   66.7430 C   0  0  1  0  0  0  0  0  0  0  0  0
    0.8550   68.8900   64.2110 C   0  0  0  0  0  0  0  0  0  0  0  0
    1.6200   68.7340   63.0490 C   0  0  0  0  0  0  0  0  0  0  0  0
    3.0210   68.6670   63.1440 C   0  0  0  0  0  0  0  0  0  0  0  0
    3.6300   68.7760   64.3960 C   0  0  0  0  0  0  0  0  0  0  0  0
   -0.7640   68.4660   66.7520 C   0  0  0  0  0  0  0  0  0  0  0  0
   -1.8630   69.1330   66.1830 C   0  0  0  0  0  0  0  0  0  0  0  0
   -3.1370   68.5630   66.2020 C   0  0  0  0  0  0  0  0  0  0  0  0
   -3.3340   67.3170   66.7890 C   0  0  0  0  0  0  0  0  0  0  0  0
   -2.2580   66.6370   67.3540 C   0  0  0  0  0  0  0  0  0  0  0  0
   -0.9830   67.2060   67.3390 C   0  0  0  0  0  0  0  0  0  0  0  0
    3.6960   68.5040   61.9620 O   0  0  0  0  0  0  0  0  0  0  0  0
    4.4440   67.3110   61.7740 C   0  0  0  0  0  0  0  0  0  0  0  0
    1.0980   68.6430   61.7840 O   0  0  0  0  0  0  0  0  0  0  0  0
    0.3010   69.7160   61.3040 C   0  0  0  0  0  0  0  0  0  0  0  0
    1.5400   67.4690   68.4930 C   0  0  0  0  0  0  0  0  0  0  0  0
    1.3220   67.2710   69.9970 C   0  0  0  0  0  0  0  0  0  0  0  0
    0.5870   65.9770   70.3640 C   0  0  0  0  0  0  0  0  0  0  0  0
    1.5570   63.7800   71.0070 C   0  0  0  0  0  0  0  0  0  0  0  0
    1.0360   63.7680   72.1170 O   0  0  0  0  0  0  0  0  0  0  0  0
    1.3750   64.7930   70.0960 N   0  0  0  0  0  0  0  0  0  0  0  0
    2.1680   61.4410   71.0060 N   0  0  0  0  0  0  0  0  0  0  0  0
    2.4370   62.6310   70.5380 C   0  0  0  0  0  0  0  0  0  0  0  0
    3.5750   62.9110   69.5930 C   0  0  0  0  0  0  0  0  0  0  0  0
    3.4140   62.6710   68.4030 O   0  0  0  0  0  0  0  0  0  0  0  0
    4.8710   63.3400   70.2120 C   0  0  0  0  0  0  0  0  0  0  0  0
    3.0740   60.4870   70.5270 O   0  0  0  0  0  0  0  0  0  0  0  0
    0.7873   69.2741   68.7970 H   0  0  0  0  0  0  0  0  0  0  0  0
    2.4821   70.7148   67.7765 H   0  0  0  0  0  0  0  0  0  0  0  0
    3.2016   69.5489   68.9500 H   0  0  0  0  0  0  0  0  0  0  0  0
    4.4367   69.7660   66.7424 H   0  0  0  0  0  0  0  0  0  0  0  0
    3.9022   68.0855   67.1979 H   0  0  0  0  0  0  0  0  0  0  0  0
    0.3535   70.2115   66.6957 H   0  0  0  0  0  0  0  0  0  0  0  0
   -0.2391   68.9676   64.1277 H   0  0  0  0  0  0  0  0  0  0  0  0
    4.7265   68.7314   64.4708 H   0  0  0  0  0  0  0  0  0  0  0  0
   -1.7168   70.1182   65.7161 H   0  0  0  0  0  0  0  0  0  0  0  0
   -3.9858   69.0992   65.7526 H   0  0  0  0  0  0  0  0  0  0  0  0
   -4.3387   66.8695   66.8068 H   0  0  0  0  0  0  0  0  0  0  0  0
   -2.4129   65.6495   67.8131 H   0  0  0  0  0  0  0  0  0  0  0  0
   -0.1400   66.6630   67.7913 H   0  0  0  0  0  0  0  0  0  0  0  0
    4.7100   66.8868   62.7534 H   0  0  0  0  0  0  0  0  0  0  0  0
    3.8397   66.5841   61.2115 H   0  0  0  0  0  0  0  0  0  0  0  0
    5.3616   67.5383   61.2115 H   0  0  0  0  0  0  0  0  0  0  0  0
   -0.1138   70.2744   62.1561 H   0  0  0  0  0  0  0  0  0  0  0  0
    0.9207   70.3879   60.6920 H   0  0  0  0  0  0  0  0  0  0  0  0
   -0.5213   69.3168   60.6920 H   0  0  0  0  0  0  0  0  0  0  0  0
    0.8090   66.8508   67.9513 H   0  0  0  0  0  0  0  0  0  0  0  0
    2.5779   67.1761   68.2762 H   0  0  0  0  0  0  0  0  0  0  0  0
    2.3058   67.2595   70.4889 H   0  0  0  0  0  0  0  0  0  0  0  0
    0.6843   68.1014   70.3344 H   0  0  0  0  0  0  0  0  0  0  0  0
    0.3433   66.0025   71.4364 H   0  0  0  0  0  0  0  0  0  0  0  0
   -0.3190   65.9213   69.7427 H   0  0  0  0  0  0  0  0  0  0  0  0
    1.8235   64.7047   69.1730 H   0  0  0  0  0  0  0  0  0  0  0  0
    4.7814   63.3104   71.3079 H   0  0  0  0  0  0  0  0  0  0  0  0
    5.6736   62.6596   69.8912 H   0  0  0  0  0  0  0  0  0  0  0  0
    5.1091   64.3649   69.8912 H   0  0  0  0  0  0  0  0  0  0  0  0
    2.9874   59.5400   70.8024 H   0  0  0  0  0  0  0  0  0  0  0  0
  2  1  1  0
  3  2  1  0
  4  3  1  0
  5  4  2  0
  6  5  1  0
  6  1  1  0
  7  5  1  0
  8  7  2  0
  9  8  1  0
 10  9  2  0
 10  4  1  0
 11  6  1  0
 12 11  2  0
 13 12  1  0
 14 13  2  0
 15 14  1  0
 16 15  2  0
 16 11  1  0
 17  9  1  0
 18 17  1  0
 19  8  1  0
 20 19  1  0
 21  1  1  0
 22 21  1  0
 23 22  1  0
 25 24  2  0
 26 24  1  0
 26 23  1  0
 28 27  2  0
 28 24  1  0
 29 28  1  0
 30 29  2  0
 31 29  1  0
 32 27  1  0
  1 33  1  1
  2 34  1  0
  2 35  1  0
  3 36  1  0
  3 37  1  0
  6 38  1  1
  7 39  1  0
 10 40  1  0
 12 41  1  0
 13 42  1  0
 14 43  1  0
 15 44  1  0
 16 45  1  0
 18 46  1  0
 18 47  1  0
 18 48  1  0
 20 49  1  0
 20 50  1  0
 20 51  1  0
 21 52  1  0
 21 53  1  0
 22 54  1  0
 22 55  1  0
 23 56  1  0
 23 57  1  0
 26 58  1  0
 31 59  1  0
 31 60  1  0
 31 61  1  0
 32 62  1  0
M  CHG  1   1   1
M  END
>  <score>  (1) 
-9.245

$$$$
=
     RDKit          3D

 62 64  0  0  0  0  0  0  0  0999 V2000
    1.0790   63.7590   72.6770 N   0  0  1  0  0  4  0  0  0  0  0  0
    0.4450   63.6670   74.0420 C   0  0  0  0  0  0  0  0  0  0  0  0
   -0.4470   62.4310   74.1340 C   0  0  0  0  0  0  0  0  0  0  0  0
    0.2400   61.1750   73.6580 C   0  0  0  0  0  0  0  0  0  0  0  0
    1.4040   61.2280   72.8640 C   0  0  0  0  0  0  0  0  0  0  0  0
    2.0320   62.5720   72.4830 C   0  0  1  0  0  0  0  0  0  0  0  0
    2.0380   60.0150   72.5250 C   0  0  0  0  0  0  0  0  0  0  0  0
    1.4880   58.7780   72.8800 C   0  0  0  0  0  0  0  0  0  0  0  0
    0.2950   58.7360   73.6210 C   0  0  0  0  0  0  0  0  0  0  0  0
   -0.3160   59.9320   74.0070 C   0  0  0  0  0  0  0  0  0  0  0  0
    2.7670   62.6300   71.1490 C   0  0  0  0  0  0  0  0  0  0  0  0
    3.9880   63.3220   71.0670 C   0  0  0  0  0  0  0  0  0  0  0  0
    4.6730   63.4260   69.8560 C   0  0  0  0  0  0  0  0  0  0  0  0
    4.1510   62.8410   68.7070 C   0  0  0  0  0  0  0  0  0  0  0  0
    2.9460   62.1470   68.7670 C   0  0  0  0  0  0  0  0  0  0  0  0
    2.2560   62.0430   69.9760 C   0  0  0  0  0  0  0  0  0  0  0  0
   -0.1830   57.4870   73.9210 O   0  0  0  0  0  0  0  0  0  0  0  0
   -0.3940   57.1570   75.2870 C   0  0  0  0  0  0  0  0  0  0  0  0
    2.0400   57.5640   72.5590 O   0  0  0  0  0  0  0  0  0  0  0  0
    2.7040   57.4330   71.3110 C   0  0  0  0  0  0  0  0  0  0  0  0
    0.0840   64.0290   71.5750 C   0  0  0  0  0  0  0  0  0  0  0  0
    0.0440   65.4950   71.1300 C   0  0  0  0  0  0  0  0  0  0  0  0
    1.2010   65.9070   70.2120 C   0  0  0  0  0  0  0  0  0  0  0  0
    1.0800   67.5070   68.3140 C   0  0  0  0  0  0  0  0  0  0  0  0
    1.8130   68.3360   68.8420 O   0  0  0  0  0  0  0  0  0  0  0  0
    0.7540   66.3060   68.8950 N   0  0  0  0  0  0  0  0  0  0  0  0
   -0.7250   68.2170   66.8710 N   0  0  0  0  0  0  0  0  0  0  0  0
    0.4920   67.7440   66.9310 C   0  0  0  0  0  0  0  0  0  0  0  0
    1.3100   67.4070   65.7130 C   0  0  0  0  0  0  0  0  0  0  0  0
    1.0640   66.3650   65.1190 O   0  0  0  0  0  0  0  0  0  0  0  0
    2.4590   68.3180   65.4020 C   0  0  0  0  0  0  0  0  0  0  0  0
   -1.1570   68.3490   65.5450 O   0  0  0  0  0  0  0  0  0  0  0  0
    1.6684   64.6014   72.6146 H   0  0  0  0  0  0  0  0  0  0  0  0
    1.2350   63.6011   74.8046 H   0  0  0  0  0  0  0  0  0  0  0  0
   -0.1699   64.5634   74.2103 H   0  0  0  0  0  0  0  0  0  0  0  0
   -0.7463   62.2914   75.1833 H   0  0  0  0  0  0  0  0  0  0  0  0
   -1.3151   62.6007   73.4801 H   0  0  0  0  0  0  0  0  0  0  0  0
    2.8419   62.6693   73.2209 H   0  0  0  0  0  0  0  0  0  0  0  0
    2.9866   60.0416   71.9688 H   0  0  0  0  0  0  0  0  0  0  0  0
   -1.2464   59.9003   74.5930 H   0  0  0  0  0  0  0  0  0  0  0  0
    4.4091   63.7879   71.9701 H   0  0  0  0  0  0  0  0  0  0  0  0
    5.6272   63.9714   69.8098 H   0  0  0  0  0  0  0  0  0  0  0  0
    4.6900   62.9268   67.7519 H   0  0  0  0  0  0  0  0  0  0  0  0
    2.5364   61.6793   67.8595 H   0  0  0  0  0  0  0  0  0  0  0  0
    1.3022   61.4962   70.0125 H   0  0  0  0  0  0  0  0  0  0  0  0
    0.0886   57.9118   75.9253 H   0  0  0  0  0  0  0  0  0  0  0  0
   -1.4736   57.1357   75.4965 H   0  0  0  0  0  0  0  0  0  0  0  0
    0.0397   56.1681   75.4965 H   0  0  0  0  0  0  0  0  0  0  0  0
    3.7699   57.2227   71.4831 H   0  0  0  0  0  0  0  0  0  0  0  0
    2.2544   56.6062   70.7415 H   0  0  0  0  0  0  0  0  0  0  0  0
    2.6021   58.3686   70.7415 H   0  0  0  0  0  0  0  0  0  0  0  0
    0.3505   63.4090   70.7063 H   0  0  0  0  0  0  0  0  0  0  0  0
   -0.9121   63.7855   71.9730 H   0  0  0  0  0  0  0  0  0  0  0  0
   -0.9003   65.6663   70.5924 H   0  0  0  0  0  0  0  0  0  0  0  0
    0.1329   66.1038   72.0419 H   0  0  0  0  0  0  0  0  0  0  0  0
    1.7331   66.7517   70.6739 H   0  0  0  0  0  0  0  0  0  0  0  0
    1.8559   65.0317   70.0896 H   0  0  0  0  0  0  0  0  0  0  0  0
    0.1590   65.6539   68.3644 H   0  0  0  0  0  0  0  0  0  0  0  0
    2.9087   68.6745   66.3404 H   0  0  0  0  0  0  0  0  0  0  0  0
    3.2138   67.7702   64.8187 H   0  0  0  0  0  0  0  0  0  0  0  0
    2.0978   69.1778   64.8187 H   0  0  0  0  0  0  0  0  0  0  0  0
   -2.0634   68.6972   65.3520 H   0  0  0  0  0  0  0  0  0  0  0  0
  2  1  1  0
  3  2  1  0
  4  3  1  0
  5  4  2  0
  6  5  1  0
  6  1  1  0
  7  5  1  0
  8  7  2  0
  9  8  1  0
 10  9  2  0
 10  4  1  0
 11  6  1  0
 12 11  2  0
 13 12  1  0
 14 13  2  0
 15 14  1  0
 16 15  2  0
 16 11  1  0
 17  9  1  0
 18 17  1  0
 19  8  1  0
 20 19  1  0
 21  1  1  0
 22 21  1  0
 23 22  1  0
 25 24  2  0
 26 24  1  0
 26 23  1  0
 28 27  2  0
 28 24  1  0
 29 28  1  0
 30 29  2  0
 31 29  1  0
 32 27  1  0
  1 33  1  1
  2 34  1  0
  2 35  1  0
  3 36  1  0
  3 37  1  0
  6 38  1  1
  7 39  1  0
 10 40  1  0
 12 41  1  0
 13 42  1  0
 14 43  1  0
 15 44  1  0
 16 45  1  0
 18 46  1  0
 18 47  1  0
 18 48  1  0
 20 49  1  0
 20 50  1  0
 20 51  1  0
 21 52  1  0
 21 53  1  0
 22 54  1  0
 22 55  1  0
 23 56  1  0
 23 57  1  0
 26 58  1  0
 31 59  1  0
 31 60  1  0
 31 61  1  0
 32 62  1  0
M  CHG  1   1   1
M  END
>  <score>  (2) 
-9.238

$$$$
=
     RDKit          3D

 62 64  0  0  0  0  0  0  0  0999 V2000
    1.0180   68.1310   66.5960 N   0  0  1  0  0  4  0  0  0  0  0  0
    0.4860   69.3140   67.3650 C   0  0  0  0  0  0  0  0  0  0  0  0
    1.4560   69.7100   68.4750 C   0  0  0  0  0  0  0  0  0  0  0  0
    2.8790   69.8460   67.9900 C   0  0  0  0  0  0  0  0  0  0  0  0
    3.2950   69.2850   66.7660 C   0  0  0  0  0  0  0  0  0  0  0  0
    2.3040   68.5420   65.8660 C   0  0  1  0  0  0  0  0  0  0  0  0
    4.6180   69.5220   66.3380 C   0  0  0  0  0  0  0  0  0  0  0  0
    5.5330   70.2150   67.1390 C   0  0  0  0  0  0  0  0  0  0  0  0
    5.1230   70.7180   68.3850 C   0  0  0  0  0  0  0  0  0  0  0  0
    3.8010   70.5340   68.7980 C   0  0  0  0  0  0  0  0  0  0  0  0
    2.8690   67.4160   65.0080 C   0  0  0  0  0  0  0  0  0  0  0  0
    2.6350   66.0820   65.3850 C   0  0  0  0  0  0  0  0  0  0  0  0
    3.1650   65.0250   64.6450 C   0  0  0  0  0  0  0  0  0  0  0  0
    3.9370   65.2810   63.5160 C   0  0  0  0  0  0  0  0  0  0  0  0
    4.1770   66.5950   63.1220 C   0  0  0  0  0  0  0  0  0  0  0  0
    3.6500   67.6560   63.8620 C   0  0  0  0  0  0  0  0  0  0  0  0
    6.0800   71.3760   69.1130 O   0  0  0  0  0  0  0  0  0  0  0  0
    6.9330   70.6090   69.9510 C   0  0  0  0  0  0  0  0  0  0  0  0
    6.8390   70.4560   66.7930 O   0  0  0  0  0  0  0  0  0  0  0  0
    7.0990   71.3280   65.7030 C   0  0  0  0  0  0  0  0  0  0  0  0
    1.0680   66.8630   67.4130 C   0  0  0  0  0  0  0  0  0  0  0  0
    0.1180   66.8710   68.6160 C   0  0  0  0  0  0  0  0  0  0  0  0
    0.7750   66.4700   69.9420 C   0  0  0  0  0  0  0  0  0  0  0  0
    1.2960   64.1630   70.7100 C   0  0  0  0  0  0  0  0  0  0  0  0
    0.4620   64.1730   71.6080 O   0  0  0  0  0  0  0  0  0  0  0  0
    1.4950   65.2170   69.8510 N   0  0  0  0  0  0  0  0  0  0  0  0
    1.8050   61.8210   71.0230 N   0  0  0  0  0  0  0  0  0  0  0  0
    2.1670   62.9420   70.4570 C   0  0  0  0  0  0  0  0  0  0  0  0
    3.4010   63.0790   69.6050 C   0  0  0  0  0  0  0  0  0  0  0  0
    3.3180   62.8000   68.4150 O   0  0  0  0  0  0  0  0  0  0  0  0
    4.6740   63.4220   70.3160 C   0  0  0  0  0  0  0  0  0  0  0  0
    2.7120   60.7920   70.7420 O   0  0  0  0  0  0  0  0  0  0  0  0
    0.3534   67.8589   65.8577 H   0  0  0  0  0  0  0  0  0  0  0  0
    0.3556   70.1633   66.6782 H   0  0  0  0  0  0  0  0  0  0  0  0
   -0.4788   69.0400   67.8167 H   0  0  0  0  0  0  0  0  0  0  0  0
    1.1344   70.6746   68.8947 H   0  0  0  0  0  0  0  0  0  0  0  0
    1.4392   68.9097   69.2294 H   0  0  0  0  0  0  0  0  0  0  0  0
    2.0381   69.3119   65.1267 H   0  0  0  0  0  0  0  0  0  0  0  0
    4.9380   69.1537   65.3521 H   0  0  0  0  0  0  0  0  0  0  0  0
    3.4767   70.9336   69.7702 H   0  0  0  0  0  0  0  0  0  0  0  0
    2.0257   65.8689   66.2757 H   0  0  0  0  0  0  0  0  0  0  0  0
    2.9723   63.9872   64.9545 H   0  0  0  0  0  0  0  0  0  0  0  0
    4.3572   64.4465   62.9354 H   0  0  0  0  0  0  0  0  0  0  0  0
    4.7827   66.7977   62.2264 H   0  0  0  0  0  0  0  0  0  0  0  0
    3.8476   68.6908   63.5455 H   0  0  0  0  0  0  0  0  0  0  0  0
    6.6983   70.8201   71.0047 H   0  0  0  0  0  0  0  0  0  0  0  0
    6.7801   69.5387   69.7486 H   0  0  0  0  0  0  0  0  0  0  0  0
    7.9811   70.8744   69.7486 H   0  0  0  0  0  0  0  0  0  0  0  0
    7.3936   72.3161   66.0861 H   0  0  0  0  0  0  0  0  0  0  0  0
    7.9131   70.9151   65.0892 H   0  0  0  0  0  0  0  0  0  0  0  0
    6.1917   71.4283   65.0892 H   0  0  0  0  0  0  0  0  0  0  0  0
    0.7976   66.0187   66.7618 H   0  0  0  0  0  0  0  0  0  0  0  0
    2.0902   66.7745   67.8095 H   0  0  0  0  0  0  0  0  0  0  0  0
   -0.2890   67.8869   68.7267 H   0  0  0  0  0  0  0  0  0  0  0  0
   -0.6581   66.1194   68.4092 H   0  0  0  0  0  0  0  0  0  0  0  0
    1.4800   67.2605   70.2390 H   0  0  0  0  0  0  0  0  0  0  0  0
   -0.0261   66.3404   70.6846 H   0  0  0  0  0  0  0  0  0  0  0  0
    2.1940   65.1099   69.1021 H   0  0  0  0  0  0  0  0  0  0  0  0
    4.5103   63.3779   71.4029 H   0  0  0  0  0  0  0  0  0  0  0  0
    5.4569   62.7028   70.0336 H   0  0  0  0  0  0  0  0  0  0  0  0
    4.9896   64.4372   70.0336 H   0  0  0  0  0  0  0  0  0  0  0  0
    2.5606   59.8849   71.1086 H   0  0  0  0  0  0  0  0  0  0  0  0
  2  1  1  0
  3  2  1  0
  4  3  1  0
  5  4  2  0
  6  5  1  0
  6  1  1  0
  7  5  1  0
  8  7  2  0
  9  8  1  0
 10  9  2  0
 10  4  1  0
 11  6  1  0
 12 11  2  0
 13 12  1  0
 14 13  2  0
 15 14  1  0
 16 15  2  0
 16 11  1  0
 17  9  1  0
 18 17  1  0
 19  8  1  0
 20 19  1  0
 21  1  1  0
 22 21  1  0
 23 22  1  0
 25 24  2  0
 26 24  1  0
 26 23  1  0
 28 27  2  0
 28 24  1  0
 29 28  1  0
 30 29  2  0
 31 29  1  0
 32 27  1  0
  1 33  1  6
  2 34  1  0
  2 35  1  0
  3 36  1  0
  3 37  1  0
  6 38  1  6
  7 39  1  0
 10 40  1  0
 12 41  1  0
 13 42  1  0
 14 43  1  0
 15 44  1  0
 16 45  1  0
 18 46  1  0
 18 47  1  0
 18 48  1  0
 20 49  1  0
 20 50  1  0
 20 51  1  0
 21 52  1  0
 21 53  1  0
 22 54  1  0
 22 55  1  0
 23 56  1  0
 23 57  1  0
 26 58  1  0
 31 59  1  0
 31 60  1  0
 31 61  1  0
 32 62  1  0
M  CHG  1   1   1
M  END
>  <score>  (3) 
-8.514

$$$$
=
     RDKit          3D

 62 64  0  0  0  0  0  0  0  0999 V2000
    1.2020   63.1150   72.9470 N   0  0  1  0  0  4  0  0  0  0  0  0
    0.6550   63.5280   74.2910 C   0  0  0  0  0  0  0  0  0  0  0  0
   -0.0110   62.3410   74.9840 C   0  0  0  0  0  0  0  0  0  0  0  0
    0.8570   61.1060   74.9940 C   0  0  0  0  0  0  0  0  0  0  0  0
    1.9580   60.9730   74.1240 C   0  0  0  0  0  0  0  0  0  0  0  0
    2.3320   62.0980   73.1550 C   0  0  1  0  0  0  0  0  0  0  0  0
    2.7720   59.8280   74.2470 C   0  0  0  0  0  0  0  0  0  0  0  0
    2.4560   58.7980   75.1400 C   0  0  0  0  0  0  0  0  0  0  0  0
    1.3210   58.9150   75.9610 C   0  0  0  0  0  0  0  0  0  0  0  0
    0.5350   60.0670   75.8850 C   0  0  0  0  0  0  0  0  0  0  0  0
    2.9860   61.6810   71.8430 C   0  0  0  0  0  0  0  0  0  0  0  0
    2.6460   60.4430   71.2700 C   0  0  0  0  0  0  0  0  0  0  0  0
    3.2490   60.0110   70.0880 C   0  0  0  0  0  0  0  0  0  0  0  0
    4.2000   60.8080   69.4580 C   0  0  0  0  0  0  0  0  0  0  0  0
    4.5480   62.0390   70.0060 C   0  0  0  0  0  0  0  0  0  0  0  0
    3.9490   62.4740   71.1900 C   0  0  0  0  0  0  0  0  0  0  0  0
    1.0760   57.8600   76.8010 O   0  0  0  0  0  0  0  0  0  0  0  0
    0.0080   57.9750   77.7310 C   0  0  0  0  0  0  0  0  0  0  0  0
    3.1900   57.6490   75.2890 O   0  0  0  0  0  0  0  0  0  0  0  0
    4.2570   57.6460   76.2260 C   0  0  0  0  0  0  0  0  0  0  0  0
    0.1270   62.7540   71.9510 C   0  0  0  0  0  0  0  0  0  0  0  0
    0.2110   63.5490   70.6430 C   0  0  0  0  0  0  0  0  0  0  0  0
    0.3990   65.0580   70.8320 C   0  0  0  0  0  0  0  0  0  0  0  0
    0.7940   66.9310   69.2460 C   0  0  0  0  0  0  0  0  0  0  0  0
    1.7600   67.3720   69.8600 O   0  0  0  0  0  0  0  0  0  0  0  0
    0.0980   65.8120   69.6340 N   0  0  0  0  0  0  0  0  0  0  0  0
   -0.4720   66.8870   67.1880 N   0  0  0  0  0  0  0  0  0  0  0  0
    0.3080   67.5910   67.9650 C   0  0  0  0  0  0  0  0  0  0  0  0
    0.7580   68.9900   67.6380 C   0  0  0  0  0  0  0  0  0  0  0  0
   -0.0340   69.9080   67.8060 O   0  0  0  0  0  0  0  0  0  0  0  0
    2.1070   69.1300   67.0010 C   0  0  0  0  0  0  0  0  0  0  0  0
   -0.8130   67.5950   66.0290 O   0  0  0  0  0  0  0  0  0  0  0  0
    1.6365   63.9216   72.4764 H   0  0  0  0  0  0  0  0  0  0  0  0
    1.4787   63.8985   74.9189 H   0  0  0  0  0  0  0  0  0  0  0  0
   -0.0939   64.3199   74.1427 H   0  0  0  0  0  0  0  0  0  0  0  0
   -0.2347   62.6216   76.0238 H   0  0  0  0  0  0  0  0  0  0  0  0
   -0.9243   62.0989   74.4207 H   0  0  0  0  0  0  0  0  0  0  0  0
    3.1459   62.6078   73.6914 H   0  0  0  0  0  0  0  0  0  0  0  0
    3.6763   59.7426   73.6266 H   0  0  0  0  0  0  0  0  0  0  0  0
   -0.3494   60.1629   76.5320 H   0  0  0  0  0  0  0  0  0  0  0  0
    1.8946   59.8064   71.7600 H   0  0  0  0  0  0  0  0  0  0  0  0
    2.9722   59.0390   69.6536 H   0  0  0  0  0  0  0  0  0  0  0  0
    4.6763   60.4653   68.5276 H   0  0  0  0  0  0  0  0  0  0  0  0
    5.2965   62.6707   69.5054 H   0  0  0  0  0  0  0  0  0  0  0  0
    4.2326   63.4471   71.6174 H   0  0  0  0  0  0  0  0  0  0  0  0
    0.4073   57.9320   78.7551 H   0  0  0  0  0  0  0  0  0  0  0  0
   -0.5089   58.9340   77.5790 H   0  0  0  0  0  0  0  0  0  0  0  0
   -0.7012   57.1480   77.5790 H   0  0  0  0  0  0  0  0  0  0  0  0
    3.8482   57.6471   77.2472 H   0  0  0  0  0  0  0  0  0  0  0  0
    4.8721   56.7461   76.0783 H   0  0  0  0  0  0  0  0  0  0  0  0
    4.8772   58.5424   76.0783 H   0  0  0  0  0  0  0  0  0  0  0  0
    0.2177   61.6837   71.7140 H   0  0  0  0  0  0  0  0  0  0  0  0
   -0.8393   62.9988   72.4161 H   0  0  0  0  0  0  0  0  0  0  0  0
    1.0626   63.1661   70.0615 H   0  0  0  0  0  0  0  0  0  0  0  0
   -0.7528   63.4139   70.1303 H   0  0  0  0  0  0  0  0  0  0  0  0
   -0.2676   65.3975   71.6384 H   0  0  0  0  0  0  0  0  0  0  0  0
    1.4567   65.2331   71.0782 H   0  0  0  0  0  0  0  0  0  0  0  0
   -0.6804   65.4923   69.0400 H   0  0  0  0  0  0  0  0  0  0  0  0
    2.8756   69.2098   67.7838 H   0  0  0  0  0  0  0  0  0  0  0  0
    2.3106   68.2482   66.3758 H   0  0  0  0  0  0  0  0  0  0  0  0
    2.1251   70.0349   66.3758 H   0  0  0  0  0  0  0  0  0  0  0  0
   -1.4013   67.1792   65.3500 H   0  0  0  0  0  0  0  0  0  0  0  0
  2  1  1  0
  3  2  1  0
  4  3  1  0
  5  4  2  0
  6  5  1  0
  6  1  1  0
  7  5  1  0
  8  7  2  0
  9  8  1  0
 10  9  2  0
 10  4  1  0
 11  6  1  0
 12 11  2  0
 13 12  1  0
 14 13  2  0
 15 14  1  0
 16 15  2  0
 16 11  1  0
 17  9  1  0
 18 17  1  0
 19  8  1  0
 20 19  1  0
 21  1  1  0
 22 21  1  0
 23 22  1  0
 25 24  2  0
 26 24  1  0
 26 23  1  0
 28 27  2  0
 28 24  1  0
 29 28  1  0
 30 29  2  0
 31 29  1  0
 32 27  1  0
  1 33  1  6
  2 34  1  0
  2 35  1  0
  3 36  1  0
  3 37  1  0
  6 38  1  1
  7 39  1  0
 10 40  1  0
 12 41  1  0
 13 42  1  0
 14 43  1  0
 15 44  1  0
 16 45  1  0
 18 46  1  0
 18 47  1  0
 18 48  1  0
 20 49  1  0
 20 50  1  0
 20 51  1  0
 21 52  1  0
 21 53  1  0
 22 54  1  0
 22 55  1  0
 23 56  1  0
 23 57  1  0
 26 58  1  0
 31 59  1  0
 31 60  1  0
 31 61  1  0
 32 62  1  0
M  CHG  1   1   1
M  END
>  <score>  (4) 
-8.194

$$$$
=
     RDKit          3D

 62 64  0  0  0  0  0  0  0  0999 V2000
    3.6320   61.1080   71.9420 N   0  0  1  0  0  4  0  0  0  0  0  0
    4.6140   62.0490   71.2910 C   0  0  0  0  0  0  0  0  0  0  0  0
    3.9020   62.9530   70.2870 C   0  0  0  0  0  0  0  0  0  0  0  0
    2.6670   63.6060   70.8600 C   0  0  0  0  0  0  0  0  0  0  0  0
    2.0520   63.1180   72.0300 C   0  0  0  0  0  0  0  0  0  0  0  0
    2.6380   61.9200   72.7830 C   0  0  1  0  0  0  0  0  0  0  0  0
    0.9510   63.8280   72.5520 C   0  0  0  0  0  0  0  0  0  0  0  0
    0.4130   64.9360   71.8870 C   0  0  0  0  0  0  0  0  0  0  0  0
    0.9990   65.3780   70.6890 C   0  0  0  0  0  0  0  0  0  0  0  0
    2.1210   64.7140   70.1880 C   0  0  0  0  0  0  0  0  0  0  0  0
    1.6500   61.0330   73.5320 C   0  0  0  0  0  0  0  0  0  0  0  0
    1.9520   60.6250   74.8440 C   0  0  0  0  0  0  0  0  0  0  0  0
    1.0890   59.7850   75.5490 C   0  0  0  0  0  0  0  0  0  0  0  0
   -0.0880   59.3380   74.9570 C   0  0  0  0  0  0  0  0  0  0  0  0
   -0.4080   59.7330   73.6600 C   0  0  0  0  0  0  0  0  0  0  0  0
    0.4540   60.5720   72.9510 C   0  0  0  0  0  0  0  0  0  0  0  0
    0.4080   66.4630   70.0950 O   0  0  0  0  0  0  0  0  0  0  0  0
    1.1530   67.1910   69.1300 C   0  0  0  0  0  0  0  0  0  0  0  0
   -0.6710   65.6520   72.3270 O   0  0  0  0  0  0  0  0  0  0  0  0
   -0.7050   66.0590   73.6880 C   0  0  0  0  0  0  0  0  0  0  0  0
    3.0560   60.0930   70.9860 C   0  0  0  0  0  0  0  0  0  0  0  0
    3.5120   58.6570   71.2660 C   0  0  0  0  0  0  0  0  0  0  0  0
    2.4040   57.7320   71.7840 C   0  0  0  0  0  0  0  0  0  0  0  0
    1.7310   56.5640   73.8730 C   0  0  0  0  0  0  0  0  0  0  0  0
    0.6340   56.2260   73.4420 O   0  0  0  0  0  0  0  0  0  0  0  0
    2.6490   57.2710   73.1340 N   0  0  0  0  0  0  0  0  0  0  0  0
    3.2180   56.8110   75.7630 N   0  0  0  0  0  0  0  0  0  0  0  0
    2.1760   56.1890   75.2790 C   0  0  0  0  0  0  0  0  0  0  0  0
    1.4280   55.1190   76.0280 C   0  0  0  0  0  0  0  0  0  0  0  0
    0.8310   55.4350   77.0490 O   0  0  0  0  0  0  0  0  0  0  0  0
    1.5870   53.7140   75.5310 C   0  0  0  0  0  0  0  0  0  0  0  0
    3.5420   56.3440   77.0430 O   0  0  0  0  0  0  0  0  0  0  0  0
    4.1185   60.4902   72.6073 H   0  0  0  0  0  0  0  0  0  0  0  0
    5.0880   62.6703   72.0652 H   0  0  0  0  0  0  0  0  0  0  0  0
    5.3755   61.4582   70.7608 H   0  0  0  0  0  0  0  0  0  0  0  0
    4.5998   63.7409   69.9672 H   0  0  0  0  0  0  0  0  0  0  0  0
    3.5824   62.3235   69.4434 H   0  0  0  0  0  0  0  0  0  0  0  0
    3.2032   62.4053   73.5924 H   0  0  0  0  0  0  0  0  0  0  0  0
    0.5047   63.5036   73.5036 H   0  0  0  0  0  0  0  0  0  0  0  0
    2.5846   65.0631   69.2535 H   0  0  0  0  0  0  0  0  0  0  0  0
    2.8805   60.9726   75.3204 H   0  0  0  0  0  0  0  0  0  0  0  0
    1.3397   59.4758   76.5744 H   0  0  0  0  0  0  0  0  0  0  0  0
   -0.7655   58.6731   75.5127 H   0  0  0  0  0  0  0  0  0  0  0  0
   -1.3410   59.3835   73.1938 H   0  0  0  0  0  0  0  0  0  0  0  0
    0.1952   60.8763   71.9261 H   0  0  0  0  0  0  0  0  0  0  0  0
    1.8495   67.8716   69.6416 H   0  0  0  0  0  0  0  0  0  0  0  0
    1.7210   66.4903   68.5004 H   0  0  0  0  0  0  0  0  0  0  0  0
    0.4656   67.7751   68.5004 H   0  0  0  0  0  0  0  0  0  0  0  0
   -0.6311   65.1741   74.3373 H   0  0  0  0  0  0  0  0  0  0  0  0
    0.1399   66.7337   73.8902 H   0  0  0  0  0  0  0  0  0  0  0  0
   -1.6501   66.5842   73.8902 H   0  0  0  0  0  0  0  0  0  0  0  0
    1.9591   60.1299   71.0593 H   0  0  0  0  0  0  0  0  0  0  0  0
    3.4178   60.3556   69.9809 H   0  0  0  0  0  0  0  0  0  0  0  0
    3.9060   58.2323   70.3309 H   0  0  0  0  0  0  0  0  0  0  0  0
    4.2695   58.7168   72.0614 H   0  0  0  0  0  0  0  0  0  0  0  0
    1.4506   58.2804   71.7667 H   0  0  0  0  0  0  0  0  0  0  0  0
    2.3757   56.8478   71.1302 H   0  0  0  0  0  0  0  0  0  0  0  0
    3.5604   57.4843   73.5639 H   0  0  0  0  0  0  0  0  0  0  0  0
    1.6646   53.0286   76.3878 H   0  0  0  0  0  0  0  0  0  0  0  0
    0.7141   53.4401   74.9202 H   0  0  0  0  0  0  0  0  0  0  0  0
    2.4990   53.6421   74.9202 H   0  0  0  0  0  0  0  0  0  0  0  0
    4.3132   56.7291   77.5299 H   0  0  0  0  0  0  0  0  0  0  0  0
  2  1  1  0
  3  2  1  0
  4  3  1  0
  5  4  2  0
  6  5  1  0
  6  1  1  0
  7  5  1  0
  8  7  2  0
  9  8  1  0
 10  9  2  0
 10  4  1  0
 11  6  1  0
 12 11  2  0
 13 12  1  0
 14 13  2  0
 15 14  1  0
 16 15  2  0
 16 11  1  0
 17  9  1  0
 18 17  1  0
 19  8  1  0
 20 19  1  0
 21  1  1  0
 22 21  1  0
 23 22  1  0
 25 24  2  0
 26 24  1  0
 26 23  1  0
 28 27  2  0
 28 24  1  0
 29 28  1  0
 30 29  2  0
 31 29  1  0
 32 27  1  0
  1 33  1  1
  2 34  1  0
  2 35  1  0
  3 36  1  0
  3 37  1  0
  6 38  1  1
  7 39  1  0
 10 40  1  0
 12 41  1  0
 13 42  1  0
 14 43  1  0
 15 44  1  0
 16 45  1  0
 18 46  1  0
 18 47  1  0
 18 48  1  0
 20 49  1  0
 20 50  1  0
 20 51  1  0
 21 52  1  0
 21 53  1  0
 22 54  1  0
 22 55  1  0
 23 56  1  0
 23 57  1  0
 26 58  1  0
 31 59  1  0
 31 60  1  0
 31 61  1  0
 32 62  1  0
M  CHG  1   1   1
M  END
>  <score>  (5) 
-8.077

$$$$
=
     RDKit          3D

 62 64  0  0  0  0  0  0  0  0999 V2000
    1.1330   68.6630   68.1010 N   0  0  1  0  0  4  0  0  0  0  0  0
    2.5130   69.2680   68.1760 C   0  0  0  0  0  0  0  0  0  0  0  0
    3.4020   68.7120   67.0650 C   0  0  0  0  0  0  0  0  0  0  0  0
    2.7470   68.7710   65.7070 C   0  0  0  0  0  0  0  0  0  0  0  0
    1.3550   68.9440   65.5670 C   0  0  0  0  0  0  0  0  0  0  0  0
    0.4580   69.1110   66.7980 C   0  0  1  0  0  0  0  0  0  0  0  0
    0.8240   69.0720   64.2670 C   0  0  0  0  0  0  0  0  0  0  0  0
    1.6310   68.9410   63.1310 C   0  0  0  0  0  0  0  0  0  0  0  0
    3.0090   68.7090   63.2820 C   0  0  0  0  0  0  0  0  0  0  0  0
    3.5560   68.6310   64.5660 C   0  0  0  0  0  0  0  0  0  0  0  0
   -0.9710   68.5950   66.6780 C   0  0  0  0  0  0  0  0  0  0  0  0
   -1.3370   67.4220   67.3610 C   0  0  0  0  0  0  0  0  0  0  0  0
   -2.6260   66.8990   67.2480 C   0  0  0  0  0  0  0  0  0  0  0  0
   -3.5710   67.5400   66.4530 C   0  0  0  0  0  0  0  0  0  0  0  0
   -3.2310   68.7050   65.7720 C   0  0  0  0  0  0  0  0  0  0  0  0
   -1.9410   69.2300   65.8800 C   0  0  0  0  0  0  0  0  0  0  0  0
    3.7280   68.5830   62.1220 O   0  0  0  0  0  0  0  0  0  0  0  0
    4.6450   67.5030   62.0120 C   0  0  0  0  0  0  0  0  0  0  0  0
    1.1740   69.0280   61.8410 O   0  0  0  0  0  0  0  0  0  0  0  0
   -0.0130   69.7680   61.5940 C   0  0  0  0  0  0  0  0  0  0  0  0
    1.1120   67.1870   68.4130 C   0  0  0  0  0  0  0  0  0  0  0  0
    1.1750   66.8760   69.9130 C   0  0  0  0  0  0  0  0  0  0  0  0
    1.6350   65.4520   70.2440 C   0  0  0  0  0  0  0  0  0  0  0  0
    1.1790   63.6790   71.9260 C   0  0  0  0  0  0  0  0  0  0  0  0
    2.2530   63.1110   71.7570 O   0  0  0  0  0  0  0  0  0  0  0  0
    0.8140   64.8210   71.2550 N   0  0  0  0  0  0  0  0  0  0  0  0
   -0.0660   63.9090   73.9850 N   0  0  0  0  0  0  0  0  0  0  0  0
    0.1660   63.1630   72.9360 C   0  0  0  0  0  0  0  0  0  0  0  0
   -0.4950   61.8310   72.7050 C   0  0  0  0  0  0  0  0  0  0  0  0
   -1.6950   61.8130   72.4610 O   0  0  0  0  0  0  0  0  0  0  0  0
    0.3500   60.6140   72.9270 C   0  0  0  0  0  0  0  0  0  0  0  0
   -0.9840   63.3010   74.8500 O   0  0  0  0  0  0  0  0  0  0  0  0
    0.5420   69.0288   68.8611 H   0  0  0  0  0  0  0  0  0  0  0  0
    2.4361   70.3598   68.0659 H   0  0  0  0  0  0  0  0  0  0  0  0
    2.9597   69.0156   69.1490 H   0  0  0  0  0  0  0  0  0  0  0  0
    4.3320   69.2986   67.0324 H   0  0  0  0  0  0  0  0  0  0  0  0
    3.5949   67.6535   67.2938 H   0  0  0  0  0  0  0  0  0  0  0  0
    0.3286   70.2023   66.8465 H   0  0  0  0  0  0  0  0  0  0  0  0
   -0.2491   69.2796   64.1429 H   0  0  0  0  0  0  0  0  0  0  0  0
    4.6357   68.4575   64.6853 H   0  0  0  0  0  0  0  0  0  0  0  0
   -0.5972   66.9093   67.9933 H   0  0  0  0  0  0  0  0  0  0  0  0
   -2.8951   65.9792   67.7879 H   0  0  0  0  0  0  0  0  0  0  0  0
   -4.5862   67.1262   66.3628 H   0  0  0  0  0  0  0  0  0  0  0  0
   -3.9799   69.2137   65.1472 H   0  0  0  0  0  0  0  0  0  0  0  0
   -1.6805   70.1496   65.3355 H   0  0  0  0  0  0  0  0  0  0  0  0
    4.9336   67.1631   63.0176 H   0  0  0  0  0  0  0  0  0  0  0  0
    4.1710   66.6736   61.4666 H   0  0  0  0  0  0  0  0  0  0  0  0
    5.5403   67.8362   61.4666 H   0  0  0  0  0  0  0  0  0  0  0  0
   -0.4724   70.0544   62.5515 H   0  0  0  0  0  0  0  0  0  0  0  0
    0.2323   70.6735   61.0196 H   0  0  0  0  0  0  0  0  0  0  0  0
   -0.7180   69.1492   61.0196 H   0  0  0  0  0  0  0  0  0  0  0  0
    0.1832   66.7590   68.0078 H   0  0  0  0  0  0  0  0  0  0  0  0
    2.0100   66.7474   67.9543 H   0  0  0  0  0  0  0  0  0  0  0  0
    1.8761   67.5821   70.3819 H   0  0  0  0  0  0  0  0  0  0  0  0
    0.1490   66.9726   70.2977 H   0  0  0  0  0  0  0  0  0  0  0  0
    1.5918   64.8461   69.3269 H   0  0  0  0  0  0  0  0  0  0  0  0
    2.6590   65.5172   70.6405 H   0  0  0  0  0  0  0  0  0  0  0  0
   -0.0933   65.2514   71.4840 H   0  0  0  0  0  0  0  0  0  0  0  0
    0.4692   60.4424   74.0070 H   0  0  0  0  0  0  0  0  0  0  0  0
   -0.1371   59.7408   72.4685 H   0  0  0  0  0  0  0  0  0  0  0  0
    1.3384   60.7653   72.4685 H   0  0  0  0  0  0  0  0  0  0  0  0
   -1.2521   63.7566   75.6870 H   0  0  0  0  0  0  0  0  0  0  0  0
  2  1  1  0
  3  2  1  0
  4  3  1  0
  5  4  2  0
  6  5  1  0
  6  1  1  0
  7  5  1  0
  8  7  2  0
  9  8  1  0
 10  9  2  0
 10  4  1  0
 11  6  1  0
 12 11  2  0
 13 12  1  0
 14 13  2  0
 15 14  1  0
 16 15  2  0
 16 11  1  0
 17  9  1  0
 18 17  1  0
 19  8  1  0
 20 19  1  0
 21  1  1  0
 22 21  1  0
 23 22  1  0
 25 24  2  0
 26 24  1  0
 26 23  1  0
 28 27  2  0
 28 24  1  0
 29 28  1  0
 30 29  2  0
 31 29  1  0
 32 27  1  0
  1 33  1  1
  2 34  1  0
  2 35  1  0
  3 36  1  0
  3 37  1  0
  6 38  1  1
  7 39  1  0
 10 40  1  0
 12 41  1  0
 13 42  1  0
 14 43  1  0
 15 44  1  0
 16 45  1  0
 18 46  1  0
 18 47  1  0
 18 48  1  0
 20 49  1  0
 20 50  1  0
 20 51  1  0
 21 52  1  0
 21 53  1  0
 22 54  1  0
 22 55  1  0
 23 56  1  0
 23 57  1  0
 26 58  1  0
 31 59  1  0
 31 60  1  0
 31 61  1  0
 32 62  1  0
M  CHG  1   1   1
M  END
>  <score>  (6) 
-7.996

$$$$
=
     RDKit          3D

 62 64  0  0  0  0  0  0  0  0999 V2000
    0.7580   58.3790   73.9810 N   0  0  1  0  0  4  0  0  0  0  0  0
    0.1830   56.9880   73.8880 C   0  0  0  0  0  0  0  0  0  0  0  0
   -0.9040   56.7880   74.9420 C   0  0  0  0  0  0  0  0  0  0  0  0
   -1.9200   57.9040   74.9550 C   0  0  0  0  0  0  0  0  0  0  0  0
   -1.6550   59.1480   74.3470 C   0  0  0  0  0  0  0  0  0  0  0  0
   -0.3310   59.3980   73.6190 C   0  0  1  0  0  0  0  0  0  0  0  0
   -2.6820   60.1140   74.3270 C   0  0  0  0  0  0  0  0  0  0  0  0
   -3.9050   59.8950   74.9710 C   0  0  0  0  0  0  0  0  0  0  0  0
   -4.1360   58.6730   75.6260 C   0  0  0  0  0  0  0  0  0  0  0  0
   -3.1460   57.6880   75.6090 C   0  0  0  0  0  0  0  0  0  0  0  0
    0.1910   60.8310   73.6230 C   0  0  0  0  0  0  0  0  0  0  0  0
    0.3940   61.4900   72.3970 C   0  0  0  0  0  0  0  0  0  0  0  0
    0.9030   62.7890   72.3580 C   0  0  0  0  0  0  0  0  0  0  0  0
    1.2160   63.4510   73.5410 C   0  0  0  0  0  0  0  0  0  0  0  0
    1.0180   62.8180   74.7650 C   0  0  0  0  0  0  0  0  0  0  0  0
    0.5110   61.5180   74.8080 C   0  0  0  0  0  0  0  0  0  0  0  0
   -5.3550   58.5410   76.2390 O   0  0  0  0  0  0  0  0  0  0  0  0
   -6.4030   57.9030   75.5230 C   0  0  0  0  0  0  0  0  0  0  0  0
   -4.9330   60.8020   75.0110 O   0  0  0  0  0  0  0  0  0  0  0  0
   -4.6520   62.1220   75.4560 C   0  0  0  0  0  0  0  0  0  0  0  0
    1.5300   58.6210   75.2540 C   0  0  0  0  0  0  0  0  0  0  0  0
    2.8430   57.8350   75.3340 C   0  0  0  0  0  0  0  0  0  0  0  0
    4.0650   58.5900   74.7970 C   0  0  0  0  0  0  0  0  0  0  0  0
    3.8660   59.9970   72.7580 C   0  0  0  0  0  0  0  0  0  0  0  0
    3.7900   61.0510   73.3780 O   0  0  0  0  0  0  0  0  0  0  0  0
    4.0210   58.7730   73.3630 N   0  0  0  0  0  0  0  0  0  0  0  0
    3.8800   58.8040   70.6550 N   0  0  0  0  0  0  0  0  0  0  0  0
    3.8250   59.9730   71.2370 C   0  0  0  0  0  0  0  0  0  0  0  0
    3.7490   61.2720   70.4800 C   0  0  0  0  0  0  0  0  0  0  0  0
    2.8170   61.4380   69.7050 O   0  0  0  0  0  0  0  0  0  0  0  0
    4.9070   62.2100   70.6400 C   0  0  0  0  0  0  0  0  0  0  0  0
    3.8740   58.9270   69.2600 O   0  0  0  0  0  0  0  0  0  0  0  0
    1.5015   58.5048   73.2794 H   0  0  0  0  0  0  0  0  0  0  0  0
   -0.2510   56.8416   72.8879 H   0  0  0  0  0  0  0  0  0  0  0  0
    0.9870   56.2579   74.0626 H   0  0  0  0  0  0  0  0  0  0  0  0
   -1.4246   55.8415   74.7345 H   0  0  0  0  0  0  0  0  0  0  0  0
   -0.4125   56.7768   75.9260 H   0  0  0  0  0  0  0  0  0  0  0  0
   -0.6070   59.2324   72.5672 H   0  0  0  0  0  0  0  0  0  0  0  0
   -2.5181   61.0616   73.7929 H   0  0  0  0  0  0  0  0  0  0  0  0
   -3.3281   56.7284   76.1150 H   0  0  0  0  0  0  0  0  0  0  0  0
    0.1484   60.9748   71.4567 H   0  0  0  0  0  0  0  0  0  0  0  0
    1.0569   63.2900   71.3909 H   0  0  0  0  0  0  0  0  0  0  0  0
    1.6196   64.4738   73.5092 H   0  0  0  0  0  0  0  0  0  0  0  0
    1.2616   63.3433   75.7003 H   0  0  0  0  0  0  0  0  0  0  0  0
    0.3600   61.0252   75.7798 H   0  0  0  0  0  0  0  0  0  0  0  0
   -7.1200   57.4665   76.2339 H   0  0  0  0  0  0  0  0  0  0  0  0
   -6.9173   58.6414   74.8903 H   0  0  0  0  0  0  0  0  0  0  0  0
   -5.9832   57.1071   74.8903 H   0  0  0  0  0  0  0  0  0  0  0  0
   -4.6471   62.1449   76.5557 H   0  0  0  0  0  0  0  0  0  0  0  0
   -3.6672   62.4344   75.0784 H   0  0  0  0  0  0  0  0  0  0  0  0
   -5.4241   62.8084   75.0784 H   0  0  0  0  0  0  0  0  0  0  0  0
    1.7624   59.6941   75.3211 H   0  0  0  0  0  0  0  0  0  0  0  0
    0.8971   58.2772   76.0854 H   0  0  0  0  0  0  0  0  0  0  0  0
    3.0298   57.5830   76.3883 H   0  0  0  0  0  0  0  0  0  0  0  0
    2.7173   56.9467   74.6976 H   0  0  0  0  0  0  0  0  0  0  0  0
    4.1069   59.5788   75.2770 H   0  0  0  0  0  0  0  0  0  0  0  0
    4.9561   57.9880   75.0284 H   0  0  0  0  0  0  0  0  0  0  0  0
    4.1107   57.9408   72.7628 H   0  0  0  0  0  0  0  0  0  0  0  0
    5.1043   62.3698   71.7103 H   0  0  0  0  0  0  0  0  0  0  0  0
    5.7986   61.7764   70.1636 H   0  0  0  0  0  0  0  0  0  0  0  0
    4.6680   63.1722   70.1636 H   0  0  0  0  0  0  0  0  0  0  0  0
    3.9121   58.1174   68.6915 H   0  0  0  0  0  0  0  0  0  0  0  0
  2  1  1  0
  3  2  1  0
  4  3  1  0
  5  4  2  0
  6  5  1  0
  6  1  1  0
  7  5  1  0
  8  7  2  0
  9  8  1  0
 10  9  2  0
 10  4  1  0
 11  6  1  0
 12 11  2  0
 13 12  1  0
 14 13  2  0
 15 14  1  0
 16 15  2  0
 16 11  1  0
 17  9  1  0
 18 17  1  0
 19  8  1  0
 20 19  1  0
 21  1  1  0
 22 21  1  0
 23 22  1  0
 25 24  2  0
 26 24  1  0
 26 23  1  0
 28 27  2  0
 28 24  1  0
 29 28  1  0
 30 29  2  0
 31 29  1  0
 32 27  1  0
  1 33  1  6
  2 34  1  0
  2 35  1  0
  3 36  1  0
  3 37  1  0
  6 38  1  6
  7 39  1  0
 10 40  1  0
 12 41  1  0
 13 42  1  0
 14 43  1  0
 15 44  1  0
 16 45  1  0
 18 46  1  0
 18 47  1  0
 18 48  1  0
 20 49  1  0
 20 50  1  0
 20 51  1  0
 21 52  1  0
 21 53  1  0
 22 54  1  0
 22 55  1  0
 23 56  1  0
 23 57  1  0
 26 58  1  0
 31 59  1  0
 31 60  1  0
 31 61  1  0
 32 62  1  0
M  CHG  1   1   1
M  END
>  <score>  (7) 
-7.952

$$$$
=
     RDKit          3D

 62 64  0  0  0  0  0  0  0  0999 V2000
    1.5670   58.8970   73.1570 N   0  0  1  0  0  4  0  0  0  0  0  0
    1.3730   57.4240   72.8950 C   0  0  0  0  0  0  0  0  0  0  0  0
    0.6370   56.7670   74.0600 C   0  0  0  0  0  0  0  0  0  0  0  0
   -0.6090   57.5180   74.4640 C   0  0  0  0  0  0  0  0  0  0  0  0
   -0.8210   58.8560   74.0740 C   0  0  0  0  0  0  0  0  0  0  0  0
    0.1960   59.5860   73.1920 C   0  0  1  0  0  0  0  0  0  0  0  0
   -2.0440   59.4660   74.4190 C   0  0  0  0  0  0  0  0  0  0  0  0
   -2.9940   58.8080   75.2080 C   0  0  0  0  0  0  0  0  0  0  0  0
   -2.7450   57.4940   75.6420 C   0  0  0  0  0  0  0  0  0  0  0  0
   -1.5590   56.8600   75.2640 C   0  0  0  0  0  0  0  0  0  0  0  0
    0.3100   61.0940   73.3850 C   0  0  0  0  0  0  0  0  0  0  0  0
   -0.0510   61.9500   72.3290 C   0  0  0  0  0  0  0  0  0  0  0  0
    0.0720   63.3340   72.4550 C   0  0  0  0  0  0  0  0  0  0  0  0
    0.5550   63.8870   73.6370 C   0  0  0  0  0  0  0  0  0  0  0  0
    0.9140   63.0580   74.6960 C   0  0  0  0  0  0  0  0  0  0  0  0
    0.7950   61.6720   74.5730 C   0  0  0  0  0  0  0  0  0  0  0  0
   -3.7200   56.9230   76.4180 O   0  0  0  0  0  0  0  0  0  0  0  0
   -3.3280   56.2680   77.6170 C   0  0  0  0  0  0  0  0  0  0  0  0
   -4.1900   59.3540   75.6000 O   0  0  0  0  0  0  0  0  0  0  0  0
   -4.1750   60.3690   76.5940 C   0  0  0  0  0  0  0  0  0  0  0  0
    2.5090   59.1800   74.3010 C   0  0  0  0  0  0  0  0  0  0  0  0
    3.8070   59.8720   73.8700 C   0  0  0  0  0  0  0  0  0  0  0  0
    4.2130   59.6050   72.4170 C   0  0  0  0  0  0  0  0  0  0  0  0
    4.0540   60.7130   70.1970 C   0  0  0  0  0  0  0  0  0  0  0  0
    4.1460   59.6680   69.5630 O   0  0  0  0  0  0  0  0  0  0  0  0
    4.0560   60.7680   71.5700 N   0  0  0  0  0  0  0  0  0  0  0  0
    3.5850   62.0250   68.2210 N   0  0  0  0  0  0  0  0  0  0  0  0
    3.8950   62.0510   69.4910 C   0  0  0  0  0  0  0  0  0  0  0  0
    4.1230   63.3240   70.2610 C   0  0  0  0  0  0  0  0  0  0  0  0
    5.2670   63.6020   70.5980 O   0  0  0  0  0  0  0  0  0  0  0  0
    2.9010   64.0880   70.6730 C   0  0  0  0  0  0  0  0  0  0  0  0
    3.5090   63.3170   67.6880 O   0  0  0  0  0  0  0  0  0  0  0  0
    2.0778   59.3337   72.3765 H   0  0  0  0  0  0  0  0  0  0  0  0
    0.7839   57.2943   71.9751 H   0  0  0  0  0  0  0  0  0  0  0  0
    2.3590   56.9492   72.7835 H   0  0  0  0  0  0  0  0  0  0  0  0
    0.3519   55.7465   73.7647 H   0  0  0  0  0  0  0  0  0  0  0  0
    1.3180   56.7670   74.9238 H   0  0  0  0  0  0  0  0  0  0  0  0
   -0.2514   59.4925   72.1915 H   0  0  0  0  0  0  0  0  0  0  0  0
   -2.2567   60.4836   74.0594 H   0  0  0  0  0  0  0  0  0  0  0  0
   -1.3656   55.8298   75.5976 H   0  0  0  0  0  0  0  0  0  0  0  0
   -0.4355   61.5225   71.3912 H   0  0  0  0  0  0  0  0  0  0  0  0
   -0.2133   63.9891   71.6186 H   0  0  0  0  0  0  0  0  0  0  0  0
    0.6530   64.9783   73.7344 H   0  0  0  0  0  0  0  0  0  0  0  0
    1.2922   63.4955   75.6317 H   0  0  0  0  0  0  0  0  0  0  0  0
    1.0836   61.0247   75.4142 H   0  0  0  0  0  0  0  0  0  0  0  0
   -3.6761   56.8497   78.4833 H   0  0  0  0  0  0  0  0  0  0  0  0
   -3.7729   55.2625   77.6478 H   0  0  0  0  0  0  0  0  0  0  0  0
   -2.2316   56.1849   77.6478 H   0  0  0  0  0  0  0  0  0  0  0  0
   -4.1819   59.9054   77.5915 H   0  0  0  0  0  0  0  0  0  0  0  0
   -3.2677   60.9804   76.4800 H   0  0  0  0  0  0  0  0  0  0  0  0
   -5.0638   61.0070   76.4800 H   0  0  0  0  0  0  0  0  0  0  0  0
    1.9928   59.8284   75.0243 H   0  0  0  0  0  0  0  0  0  0  0  0
    2.7898   58.2092   74.7355 H   0  0  0  0  0  0  0  0  0  0  0  0
    3.6774   60.9569   73.9974 H   0  0  0  0  0  0  0  0  0  0  0  0
    4.6079   59.4593   74.5011 H   0  0  0  0  0  0  0  0  0  0  0  0
    5.2684   59.2957   72.3978 H   0  0  0  0  0  0  0  0  0  0  0  0
    3.5510   58.8180   72.0265 H   0  0  0  0  0  0  0  0  0  0  0  0
    3.9394   61.6867   72.0208 H   0  0  0  0  0  0  0  0  0  0  0  0
    2.8438   64.1238   71.7709 H   0  0  0  0  0  0  0  0  0  0  0  0
    2.9573   65.1120   70.2752 H   0  0  0  0  0  0  0  0  0  0  0  0
    2.0051   63.5889   70.2752 H   0  0  0  0  0  0  0  0  0  0  0  0
    3.2821   63.4459   66.7330 H   0  0  0  0  0  0  0  0  0  0  0  0
  2  1  1  0
  3  2  1  0
  4  3  1  0
  5  4  2  0
  6  5  1  0
  6  1  1  0
  7  5  1  0
  8  7  2  0
  9  8  1  0
 10  9  2  0
 10  4  1  0
 11  6  1  0
 12 11  2  0
 13 12  1  0
 14 13  2  0
 15 14  1  0
 16 15  2  0
 16 11  1  0
 17  9  1  0
 18 17  1  0
 19  8  1  0
 20 19  1  0
 21  1  1  0
 22 21  1  0
 23 22  1  0
 25 24  2  0
 26 24  1  0
 26 23  1  0
 28 27  2  0
 28 24  1  0
 29 28  1  0
 30 29  2  0
 31 29  1  0
 32 27  1  0
  1 33  1  6
  2 34  1  0
  2 35  1  0
  3 36  1  0
  3 37  1  0
  6 38  1  6
  7 39  1  0
 10 40  1  0
 12 41  1  0
 13 42  1  0
 14 43  1  0
 15 44  1  0
 16 45  1  0
 18 46  1  0
 18 47  1  0
 18 48  1  0
 20 49  1  0
 20 50  1  0
 20 51  1  0
 21 52  1  0
 21 53  1  0
 22 54  1  0
 22 55  1  0
 23 56  1  0
 23 57  1  0
 26 58  1  0
 31 59  1  0
 31 60  1  0
 31 61  1  0
 32 62  1  0
M  CHG  1   1   1
M  END
>  <score>  (8) 
-7.686

$$$$
=
     RDKit          3D

 62 64  0  0  0  0  0  0  0  0999 V2000
    3.2410   58.1840   73.5080 N   0  0  1  0  0  4  0  0  0  0  0  0
    4.1320   59.3450   73.8740 C   0  0  0  0  0  0  0  0  0  0  0  0
    3.2960   60.5930   74.1480 C   0  0  0  0  0  0  0  0  0  0  0  0
    2.1520   60.3350   75.0980 C   0  0  0  0  0  0  0  0  0  0  0  0
    1.6960   59.0290   75.3640 C   0  0  0  0  0  0  0  0  0  0  0  0
    2.3720   57.8160   74.7170 C   0  0  1  0  0  0  0  0  0  0  0  0
    0.6770   58.8580   76.3240 C   0  0  0  0  0  0  0  0  0  0  0  0
    0.0610   59.9540   76.9380 C   0  0  0  0  0  0  0  0  0  0  0  0
    0.4830   61.2570   76.6210 C   0  0  0  0  0  0  0  0  0  0  0  0
    1.5260   61.4360   75.7090 C   0  0  0  0  0  0  0  0  0  0  0  0
    1.4890   56.6030   74.4490 C   0  0  0  0  0  0  0  0  0  0  0  0
    1.9890   55.3170   74.7200 C   0  0  0  0  0  0  0  0  0  0  0  0
    1.2240   54.1800   74.4550 C   0  0  0  0  0  0  0  0  0  0  0  0
   -0.0530   54.3080   73.9170 C   0  0  0  0  0  0  0  0  0  0  0  0
   -0.5690   55.5730   73.6460 C   0  0  0  0  0  0  0  0  0  0  0  0
    0.1950   56.7120   73.9070 C   0  0  0  0  0  0  0  0  0  0  0  0
   -0.1770   62.2750   77.2590 O   0  0  0  0  0  0  0  0  0  0  0  0
   -0.3790   63.4910   76.5530 C   0  0  0  0  0  0  0  0  0  0  0  0
   -0.9520   59.8580   77.8590 O   0  0  0  0  0  0  0  0  0  0  0  0
   -0.6550   59.3030   79.1330 C   0  0  0  0  0  0  0  0  0  0  0  0
    2.5380   58.3670   72.1850 C   0  0  0  0  0  0  0  0  0  0  0  0
    3.4680   58.2460   70.9730 C   0  0  0  0  0  0  0  0  0  0  0  0
    3.7900   59.5800   70.2890 C   0  0  0  0  0  0  0  0  0  0  0  0
    2.8870   61.8270   70.8470 C   0  0  0  0  0  0  0  0  0  0  0  0
    3.9780   62.2940   71.1530 O   0  0  0  0  0  0  0  0  0  0  0  0
    2.7130   60.5390   70.4020 N   0  0  0  0  0  0  0  0  0  0  0  0
    1.3150   63.3700   69.8490 N   0  0  0  0  0  0  0  0  0  0  0  0
    1.6230   62.6720   70.9110 C   0  0  0  0  0  0  0  0  0  0  0  0
    0.8100   62.6890   72.1780 C   0  0  0  0  0  0  0  0  0  0  0  0
    0.9810   63.6120   72.9640 O   0  0  0  0  0  0  0  0  0  0  0  0
   -0.0550   61.4930   72.4370 C   0  0  0  0  0  0  0  0  0  0  0  0
    0.1570   64.1290   70.0560 O   0  0  0  0  0  0  0  0  0  0  0  0
    3.8086   57.3477   73.3097 H   0  0  0  0  0  0  0  0  0  0  0  0
    4.7079   59.0895   74.7757 H   0  0  0  0  0  0  0  0  0  0  0  0
    4.8135   59.5496   73.0351 H   0  0  0  0  0  0  0  0  0  0  0  0
    3.9482   61.3637   74.5846 H   0  0  0  0  0  0  0  0  0  0  0  0
    2.8636   60.9182   73.1903 H   0  0  0  0  0  0  0  0  0  0  0  0
    3.0422   57.4679   75.5168 H   0  0  0  0  0  0  0  0  0  0  0  0
    0.3595   57.8405   76.5960 H   0  0  0  0  0  0  0  0  0  0  0  0
    1.8629   62.4543   75.4650 H   0  0  0  0  0  0  0  0  0  0  0  0
    2.9967   55.2055   75.1466 H   0  0  0  0  0  0  0  0  0  0  0  0
    1.6311   53.1814   74.6717 H   0  0  0  0  0  0  0  0  0  0  0  0
   -0.6541   53.4113   73.7060 H   0  0  0  0  0  0  0  0  0  0  0  0
   -1.5804   55.6748   73.2255 H   0  0  0  0  0  0  0  0  0  0  0  0
   -0.2196   57.7067   73.6863 H   0  0  0  0  0  0  0  0  0  0  0  0
   -0.5156   64.3133   77.2707 H   0  0  0  0  0  0  0  0  0  0  0  0
    0.4971   63.6978   75.9208 H   0  0  0  0  0  0  0  0  0  0  0  0
   -1.2749   63.4035   75.9208 H   0  0  0  0  0  0  0  0  0  0  0  0
   -1.0171   59.9796   79.9211 H   0  0  0  0  0  0  0  0  0  0  0  0
   -1.1509   58.3261   79.2320 H   0  0  0  0  0  0  0  0  0  0  0  0
    0.4329   59.1737   79.2320 H   0  0  0  0  0  0  0  0  0  0  0  0
    1.7537   57.6005   72.0992 H   0  0  0  0  0  0  0  0  0  0  0  0
    2.1286   59.3880   72.1763 H   0  0  0  0  0  0  0  0  0  0  0  0
    4.4131   57.7936   71.3078 H   0  0  0  0  0  0  0  0  0  0  0  0
    2.9390   57.6308   70.2302 H   0  0  0  0  0  0  0  0  0  0  0  0
    4.6909   60.0059   70.7547 H   0  0  0  0  0  0  0  0  0  0  0  0
    3.9431   59.3765   69.2189 H   0  0  0  0  0  0  0  0  0  0  0  0
    1.7644   60.2400   70.1344 H   0  0  0  0  0  0  0  0  0  0  0  0
   -0.1616   61.3456   73.5219 H   0  0  0  0  0  0  0  0  0  0  0  0
   -1.0469   61.6541   71.9896 H   0  0  0  0  0  0  0  0  0  0  0  0
    0.4086   60.6014   71.9896 H   0  0  0  0  0  0  0  0  0  0  0  0
   -0.1920   64.7070   69.3320 H   0  0  0  0  0  0  0  0  0  0  0  0
  2  1  1  0
  3  2  1  0
  4  3  1  0
  5  4  2  0
  6  5  1  0
  6  1  1  0
  7  5  1  0
  8  7  2  0
  9  8  1  0
 10  9  2  0
 10  4  1  0
 11  6  1  0
 12 11  2  0
 13 12  1  0
 14 13  2  0
 15 14  1  0
 16 15  2  0
 16 11  1  0
 17  9  1  0
 18 17  1  0
 19  8  1  0
 20 19  1  0
 21  1  1  0
 22 21  1  0
 23 22  1  0
 25 24  2  0
 26 24  1  0
 26 23  1  0
 28 27  2  0
 28 24  1  0
 29 28  1  0
 30 29  2  0
 31 29  1  0
 32 27  1  0
  1 33  1  6
  2 34  1  0
  2 35  1  0
  3 36  1  0
  3 37  1  0
  6 38  1  1
  7 39  1  0
 10 40  1  0
 12 41  1  0
 13 42  1  0
 14 43  1  0
 15 44  1  0
 16 45  1  0
 18 46  1  0
 18 47  1  0
 18 48  1  0
 20 49  1  0
 20 50  1  0
 20 51  1  0
 21 52  1  0
 21 53  1  0
 22 54  1  0
 22 55  1  0
 23 56  1  0
 23 57  1  0
 26 58  1  0
 31 59  1  0
 31 60  1  0
 31 61  1  0
 32 62  1  0
M  CHG  1   1   1
M  END
>  <score>  (9) 
-7.63

$$$$
