=
     RDKit          3D

 40 42  0  0  0  0  0  0  0  0999 V2000
    1.0580   63.3540   70.4220 C   0  0  2  0  0  0  0  0  0  0  0  0
    1.4760   62.9350   71.8510 C   0  0  0  0  0  0  0  0  0  0  0  0
    1.5290   63.4970   72.9210 O   0  0  0  0  0  0  0  0  0  0  0  0
    1.9220   61.7220   71.4100 N   0  0  0  0  0  0  0  0  0  0  0  0
    1.8360   62.0880   69.9900 C   0  0  2  0  0  0  0  0  0  0  0  0
    3.5910   62.3020   69.4840 S   0  0  0  0  0  0  0  0  0  0  0  0
    4.1250   60.9680   70.6750 C   0  0  0  0  0  0  0  0  0  0  0  0
    3.1920   61.1470   71.8960 C   0  0  2  0  0  0  0  0  0  0  0  0
    3.9820   59.6280   69.9370 C   0  0  0  0  0  0  0  0  0  0  0  0
    5.5960   61.2170   71.0270 C   0  0  0  0  0  0  0  0  0  0  0  0
   -0.0030   65.8800   71.0890 O   0  0  0  0  0  0  0  0  0  0  0  0
    0.9340   65.8460   70.2910 C   0  0  0  0  0  0  0  0  0  0  0  0
    1.5760   64.6760   69.9650 N   0  0  0  0  0  0  0  0  0  0  0  0
    1.5040   67.1210   69.6890 C   0  0  0  0  0  0  0  0  0  0  0  0
    0.8690   67.5750   68.3960 C   0  0  0  0  0  0  0  0  0  0  0  0
   -0.4440   67.1990   68.0830 C   0  0  0  0  0  0  0  0  0  0  0  0
   -1.0170   67.5780   66.8690 C   0  0  0  0  0  0  0  0  0  0  0  0
   -0.2870   68.3420   65.9610 C   0  0  0  0  0  0  0  0  0  0  0  0
    1.0170   68.7280   66.2650 C   0  0  0  0  0  0  0  0  0  0  0  0
    1.5950   68.3460   67.4770 C   0  0  0  0  0  0  0  0  0  0  0  0
    3.0760   59.8170   72.6810 C   0  0  0  0  0  0  0  0  0  0  0  0
    1.9630   59.2240   72.5570 O   0  0  0  0  0  0  0  0  0  0  0  0
    4.0750   59.4900   73.3840 O   0  0  0  0  0  1  0  0  0  0  0  0
    0.0204   63.5417   70.1086 H   0  0  0  0  0  0  0  0  0  0  0  0
    1.4021   61.5050   69.1643 H   0  0  0  0  0  0  0  0  0  0  0  0
    3.5937   61.8548   72.6360 H   0  0  0  0  0  0  0  0  0  0  0  0
    3.8950   58.8129   70.6705 H   0  0  0  0  0  0  0  0  0  0  0  0
    3.0812   59.6512   69.3061 H   0  0  0  0  0  0  0  0  0  0  0  0
    4.8674   59.4606   69.3061 H   0  0  0  0  0  0  0  0  0  0  0  0
    5.7131   61.2368   72.1206 H   0  0  0  0  0  0  0  0  0  0  0  0
    6.2152   60.4109   70.6065 H   0  0  0  0  0  0  0  0  0  0  0  0
    5.9154   62.1820   70.6065 H   0  0  0  0  0  0  0  0  0  0  0  0
    2.4322   64.7124   69.3936 H   0  0  0  0  0  0  0  0  0  0  0  0
    1.3817   67.9274   70.4271 H   0  0  0  0  0  0  0  0  0  0  0  0
    2.5526   66.8950   69.4452 H   0  0  0  0  0  0  0  0  0  0  0  0
   -1.0267   66.6011   68.7992 H   0  0  0  0  0  0  0  0  0  0  0  0
   -2.0462   67.2734   66.6283 H   0  0  0  0  0  0  0  0  0  0  0  0
   -0.7400   68.6405   65.0041 H   0  0  0  0  0  0  0  0  0  0  0  0
    1.5915   69.3343   65.5492 H   0  0  0  0  0  0  0  0  0  0  0  0
    2.6252   68.6514   67.7122 H   0  0  0  0  0  0  0  0  0  0  0  0
  2  1  1  0
  3  2  2  0
  4  2  1  0
  5  1  1  0
  5  4  1  0
  6  5  1  0
  7  6  1  0
  8  7  1  0
  8  4  1  0
  9  7  1  0
 10  7  1  0
 12 11  2  0
 13  1  1  0
 13 12  1  0
 14 12  1  0
 15 14  1  0
 16 15  2  0
 17 16  1  0
 18 17  2  0
 19 18  1  0
 20 19  2  0
 20 15  1  0
 21  8  1  0
 22 21  2  0
 23 21  1  0
  1 24  1  1
  5 25  1  6
  8 26  1  1
  9 27  1  0
  9 28  1  0
  9 29  1  0
 10 30  1  0
 10 31  1  0
 10 32  1  0
 13 33  1  0
 14 34  1  0
 14 35  1  0
 16 36  1  0
 17 37  1  0
 18 38  1  0
 19 39  1  0
 20 40  1  0
M  CHG  1  23  -1
M  END
>  <score>  (1) 
-8.337

$$$$
=
     RDKit          3D

 40 42  0  0  0  0  0  0  0  0999 V2000
    2.0020   68.2590   63.7130 C   0  0  2  0  0  0  0  0  0  0  0  0
    0.7280   69.0900   63.4290 C   0  0  0  0  0  0  0  0  0  0  0  0
    0.4870   70.0810   62.7780 O   0  0  0  0  0  0  0  0  0  0  0  0
    0.0040   68.3650   64.3310 N   0  0  0  0  0  0  0  0  0  0  0  0
    1.1810   67.6940   64.8960 C   0  0  2  0  0  0  0  0  0  0  0  0
    1.3980   68.4920   66.5380 S   0  0  0  0  0  0  0  0  0  0  0  0
   -0.4490   68.7100   66.7060 C   0  0  0  0  0  0  0  0  0  0  0  0
   -0.9310   69.0190   65.2680 C   0  0  2  0  0  0  0  0  0  0  0  0
   -0.9980   67.4080   67.3110 C   0  0  0  0  0  0  0  0  0  0  0  0
   -0.6970   69.8790   67.6660 C   0  0  0  0  0  0  0  0  0  0  0  0
    4.5130   67.2200   64.4650 O   0  0  0  0  0  0  0  0  0  0  0  0
    4.3790   68.4430   64.4630 C   0  0  0  0  0  0  0  0  0  0  0  0
    3.2240   69.0520   64.0340 N   0  0  0  0  0  0  0  0  0  0  0  0
    5.5270   69.3640   64.8490 C   0  0  0  0  0  0  0  0  0  0  0  0
    5.5330   69.8360   66.2830 C   0  0  0  0  0  0  0  0  0  0  0  0
    4.3440   69.8590   67.0260 C   0  0  0  0  0  0  0  0  0  0  0  0
    4.3390   70.3390   68.3360 C   0  0  0  0  0  0  0  0  0  0  0  0
    5.5210   70.7920   68.9180 C   0  0  0  0  0  0  0  0  0  0  0  0
    6.7100   70.7670   68.1910 C   0  0  0  0  0  0  0  0  0  0  0  0
    6.7180   70.2930   66.8790 C   0  0  0  0  0  0  0  0  0  0  0  0
   -2.4240   68.6390   65.1110 C   0  0  0  0  0  0  0  0  0  0  0  0
   -2.8410   68.6170   63.9150 O   0  0  0  0  0  0  0  0  0  0  0  0
   -3.0680   68.4350   66.1800 O   0  0  0  0  0  1  0  0  0  0  0  0
    2.4966   67.6086   62.9766 H   0  0  0  0  0  0  0  0  0  0  0  0
    1.3113   66.6238   65.1145 H   0  0  0  0  0  0  0  0  0  0  0  0
   -0.9075   70.0936   65.0344 H   0  0  0  0  0  0  0  0  0  0  0  0
   -0.9704   67.4735   68.4087 H   0  0  0  0  0  0  0  0  0  0  0  0
   -2.0358   67.2583   66.9786 H   0  0  0  0  0  0  0  0  0  0  0  0
   -0.3807   66.5604   66.9786 H   0  0  0  0  0  0  0  0  0  0  0  0
   -0.6215   69.5233   68.7041 H   0  0  0  0  0  0  0  0  0  0  0  0
    0.0549   70.6627   67.4914 H   0  0  0  0  0  0  0  0  0  0  0  0
   -1.7023   70.2899   67.4914 H   0  0  0  0  0  0  0  0  0  0  0  0
    3.2017   70.0767   63.9321 H   0  0  0  0  0  0  0  0  0  0  0  0
    6.4686   68.8254   64.6664 H   0  0  0  0  0  0  0  0  0  0  0  0
    5.4050   70.2690   64.2357 H   0  0  0  0  0  0  0  0  0  0  0  0
    3.4094   69.4963   66.5732 H   0  0  0  0  0  0  0  0  0  0  0  0
    3.4008   70.3598   68.9099 H   0  0  0  0  0  0  0  0  0  0  0  0
    5.5159   71.1694   69.9512 H   0  0  0  0  0  0  0  0  0  0  0  0
    7.6434   71.1216   68.6525 H   0  0  0  0  0  0  0  0  0  0  0  0
    7.6585   70.2775   66.3087 H   0  0  0  0  0  0  0  0  0  0  0  0
  2  1  1  0
  3  2  2  0
  4  2  1  0
  5  1  1  0
  5  4  1  0
  6  5  1  0
  7  6  1  0
  8  7  1  0
  8  4  1  0
  9  7  1  0
 10  7  1  0
 12 11  2  0
 13  1  1  0
 13 12  1  0
 14 12  1  0
 15 14  1  0
 16 15  2  0
 17 16  1  0
 18 17  2  0
 19 18  1  0
 20 19  2  0
 20 15  1  0
 21  8  1  0
 22 21  2  0
 23 21  1  0
  1 24  1  6
  5 25  1  1
  8 26  1  6
  9 27  1  0
  9 28  1  0
  9 29  1  0
 10 30  1  0
 10 31  1  0
 10 32  1  0
 13 33  1  0
 14 34  1  0
 14 35  1  0
 16 36  1  0
 17 37  1  0
 18 38  1  0
 19 39  1  0
 20 40  1  0
M  CHG  1  23  -1
M  END
>  <score>  (2) 
-8.287

$$$$
=
     RDKit          3D

 40 42  0  0  0  0  0  0  0  0999 V2000
    1.3160   68.3040   66.2740 C   0  0  2  0  0  0  0  0  0  0  0  0
    1.4740   67.2190   65.1820 C   0  0  0  0  0  0  0  0  0  0  0  0
    1.1840   66.0470   65.0990 O   0  0  0  0  0  0  0  0  0  0  0  0
    2.2200   68.0550   64.4010 N   0  0  0  0  0  0  0  0  0  0  0  0
    2.3880   69.0620   65.4560 C   0  0  2  0  0  0  0  0  0  0  0  0
    4.1430   68.8720   65.9730 S   0  0  0  0  0  0  0  0  0  0  0  0
    4.6320   68.4020   64.2330 C   0  0  0  0  0  0  0  0  0  0  0  0
    3.4330   67.5780   63.7060 C   0  0  2  0  0  0  0  0  0  0  0  0
    4.9030   69.7130   63.4770 C   0  0  0  0  0  0  0  0  0  0  0  0
    5.9170   67.5710   64.3170 C   0  0  0  0  0  0  0  0  0  0  0  0
   -0.2930   66.7760   68.0140 O   0  0  0  0  0  0  0  0  0  0  0  0
    0.7810   67.1940   68.4480 C   0  0  0  0  0  0  0  0  0  0  0  0
    1.6740   67.8760   67.6570 N   0  0  0  0  0  0  0  0  0  0  0  0
    1.2260   66.8960   69.8710 C   0  0  0  0  0  0  0  0  0  0  0  0
    1.2920   65.4340   70.2430 C   0  0  0  0  0  0  0  0  0  0  0  0
    0.1340   64.7530   70.6440 C   0  0  0  0  0  0  0  0  0  0  0  0
    0.2010   63.4150   71.0330 C   0  0  0  0  0  0  0  0  0  0  0  0
    1.4210   62.7430   71.0180 C   0  0  0  0  0  0  0  0  0  0  0  0
    2.5770   63.4080   70.6140 C   0  0  0  0  0  0  0  0  0  0  0  0
    2.5150   64.7480   70.2290 C   0  0  0  0  0  0  0  0  0  0  0  0
    3.3890   67.6250   62.1590 C   0  0  0  0  0  0  0  0  0  0  0  0
    2.5620   68.4560   61.6780 O   0  0  0  0  0  0  0  0  0  0  0  0
    4.1430   66.8130   61.5500 O   0  0  0  0  0  1  0  0  0  0  0  0
    0.3584   68.7648   66.5581 H   0  0  0  0  0  0  0  0  0  0  0  0
    2.2630   70.1521   65.3782 H   0  0  0  0  0  0  0  0  0  0  0  0
    3.5235   66.5056   63.9337 H   0  0  0  0  0  0  0  0  0  0  0  0
    5.0709   70.5251   64.1997 H   0  0  0  0  0  0  0  0  0  0  0  0
    5.7956   69.5941   62.8452 H   0  0  0  0  0  0  0  0  0  0  0  0
    4.0365   69.9578   62.8452 H   0  0  0  0  0  0  0  0  0  0  0  0
    6.1767   67.4031   65.3726 H   0  0  0  0  0  0  0  0  0  0  0  0
    5.7606   66.6026   63.8193 H   0  0  0  0  0  0  0  0  0  0  0  0
    6.7360   68.1109   63.8193 H   0  0  0  0  0  0  0  0  0  0  0  0
    2.6098   68.0961   68.0269 H   0  0  0  0  0  0  0  0  0  0  0  0
    2.2293   67.3255   70.0085 H   0  0  0  0  0  0  0  0  0  0  0  0
    0.4589   67.3376   70.5241 H   0  0  0  0  0  0  0  0  0  0  0  0
   -0.8332   65.2769   70.6519 H   0  0  0  0  0  0  0  0  0  0  0  0
   -0.7113   62.8897   71.3522 H   0  0  0  0  0  0  0  0  0  0  0  0
    1.4719   61.6879   71.3249 H   0  0  0  0  0  0  0  0  0  0  0  0
    3.5397   62.8760   70.5985 H   0  0  0  0  0  0  0  0  0  0  0  0
    3.4307   65.2691   69.9128 H   0  0  0  0  0  0  0  0  0  0  0  0
  2  1  1  0
  3  2  2  0
  4  2  1  0
  5  1  1  0
  5  4  1  0
  6  5  1  0
  7  6  1  0
  8  7  1  0
  8  4  1  0
  9  7  1  0
 10  7  1  0
 12 11  2  0
 13  1  1  0
 13 12  1  0
 14 12  1  0
 15 14  1  0
 16 15  2  0
 17 16  1  0
 18 17  2  0
 19 18  1  0
 20 19  2  0
 20 15  1  0
 21  8  1  0
 22 21  2  0
 23 21  1  0
  1 24  1  1
  5 25  1  6
  8 26  1  6
  9 27  1  0
  9 28  1  0
  9 29  1  0
 10 30  1  0
 10 31  1  0
 10 32  1  0
 13 33  1  0
 14 34  1  0
 14 35  1  0
 16 36  1  0
 17 37  1  0
 18 38  1  0
 19 39  1  0
 20 40  1  0
M  CHG  1  23  -1
M  END
>  <score>  (3) 
-8.116

$$$$
=
     RDKit          3D

 40 42  0  0  0  0  0  0  0  0999 V2000
    0.1800   68.9510   64.6200 C   0  0  2  0  0  0  0  0  0  0  0  0
    0.3390   68.3980   63.1840 C   0  0  0  0  0  0  0  0  0  0  0  0
   -0.3790   67.7940   62.4200 O   0  0  0  0  0  0  0  0  0  0  0  0
    1.6680   68.7110   63.1660 N   0  0  0  0  0  0  0  0  0  0  0  0
    1.7260   69.0070   64.6030 C   0  0  2  0  0  0  0  0  0  0  0  0
    2.6350   67.5740   65.3120 S   0  0  0  0  0  0  0  0  0  0  0  0
    3.6530   67.4160   63.7550 C   0  0  0  0  0  0  0  0  0  0  0  0
    2.6700   67.7770   62.6160 C   0  0  2  0  0  0  0  0  0  0  0  0
    4.8510   68.3660   63.9080 C   0  0  0  0  0  0  0  0  0  0  0  0
    4.1430   65.9670   63.6620 C   0  0  0  0  0  0  0  0  0  0  0  0
   -1.0560   69.6850   67.0450 O   0  0  0  0  0  0  0  0  0  0  0  0
   -0.9780   68.4850   66.7850 C   0  0  0  0  0  0  0  0  0  0  0  0
   -0.4700   68.0260   65.5930 N   0  0  0  0  0  0  0  0  0  0  0  0
   -1.5300   67.4330   67.7350 C   0  0  0  0  0  0  0  0  0  0  0  0
   -0.5330   66.8290   68.6950 C   0  0  0  0  0  0  0  0  0  0  0  0
    0.7500   67.3790   68.8200 C   0  0  0  0  0  0  0  0  0  0  0  0
    1.6880   66.7950   69.6720 C   0  0  0  0  0  0  0  0  0  0  0  0
    1.3520   65.6630   70.4100 C   0  0  0  0  0  0  0  0  0  0  0  0
    0.0770   65.1120   70.2980 C   0  0  0  0  0  0  0  0  0  0  0  0
   -0.8630   65.6900   69.4430 C   0  0  0  0  0  0  0  0  0  0  0  0
    3.4510   68.2760   61.3740 C   0  0  0  0  0  0  0  0  0  0  0  0
    3.0810   69.4060   60.9360 O   0  0  0  0  0  0  0  0  0  0  0  0
    4.3320   67.4950   60.9130 O   0  0  0  0  0  1  0  0  0  0  0  0
   -0.4367   69.8223   64.8856 H   0  0  0  0  0  0  0  0  0  0  0  0
    2.1896   69.8727   65.0986 H   0  0  0  0  0  0  0  0  0  0  0  0
    2.1130   66.9043   62.2443 H   0  0  0  0  0  0  0  0  0  0  0  0
    5.0560   68.5285   64.9764 H   0  0  0  0  0  0  0  0  0  0  0  0
    5.7354   67.9210   63.4285 H   0  0  0  0  0  0  0  0  0  0  0  0
    4.6193   69.3285   63.4285 H   0  0  0  0  0  0  0  0  0  0  0  0
    4.2804   65.5607   64.6749 H   0  0  0  0  0  0  0  0  0  0  0  0
    3.3993   65.3624   63.1222 H   0  0  0  0  0  0  0  0  0  0  0  0
    5.1010   65.9378   63.1222 H   0  0  0  0  0  0  0  0  0  0  0  0
   -0.5396   67.0235   65.3673 H   0  0  0  0  0  0  0  0  0  0  0  0
   -2.3300   67.9000   68.3282 H   0  0  0  0  0  0  0  0  0  0  0  0
   -1.8724   66.6042   67.0979 H   0  0  0  0  0  0  0  0  0  0  0  0
    1.0190   68.2762   68.2432 H   0  0  0  0  0  0  0  0  0  0  0  0
    2.6946   67.2296   69.7608 H   0  0  0  0  0  0  0  0  0  0  0  0
    2.0928   65.2039   71.0812 H   0  0  0  0  0  0  0  0  0  0  0  0
   -0.1892   64.2201   70.8843 H   0  0  0  0  0  0  0  0  0  0  0  0
   -1.8673   65.2498   69.3557 H   0  0  0  0  0  0  0  0  0  0  0  0
  2  1  1  0
  3  2  2  0
  4  2  1  0
  5  1  1  0
  5  4  1  0
  6  5  1  0
  7  6  1  0
  8  7  1  0
  8  4  1  0
  9  7  1  0
 10  7  1  0
 12 11  2  0
 13  1  1  0
 13 12  1  0
 14 12  1  0
 15 14  1  0
 16 15  2  0
 17 16  1  0
 18 17  2  0
 19 18  1  0
 20 19  2  0
 20 15  1  0
 21  8  1  0
 22 21  2  0
 23 21  1  0
  1 24  1  6
  5 25  1  6
  8 26  1  6
  9 27  1  0
  9 28  1  0
  9 29  1  0
 10 30  1  0
 10 31  1  0
 10 32  1  0
 13 33  1  0
 14 34  1  0
 14 35  1  0
 16 36  1  0
 17 37  1  0
 18 38  1  0
 19 39  1  0
 20 40  1  0
M  CHG  1  23  -1
M  END
>  <score>  (4) 
-7.689

$$$$
=
     RDKit          3D

 40 42  0  0  0  0  0  0  0  0999 V2000
    3.2150   58.6650   75.0940 C   0  0  2  0  0  0  0  0  0  0  0  0
    3.6050   57.4520   75.9710 C   0  0  0  0  0  0  0  0  0  0  0  0
    4.6440   57.0280   76.4230 O   0  0  0  0  0  0  0  0  0  0  0  0
    2.3390   56.9450   75.9060 N   0  0  0  0  0  0  0  0  0  0  0  0
    1.9070   57.8730   74.8540 C   0  0  2  0  0  0  0  0  0  0  0  0
    1.8160   56.8220   73.3480 S   0  0  0  0  0  0  0  0  0  0  0  0
    1.3010   55.3500   74.3750 C   0  0  0  0  0  0  0  0  0  0  0  0
    2.0980   55.5040   75.6930 C   0  0  2  0  0  0  0  0  0  0  0  0
   -0.2270   55.4240   74.5260 C   0  0  0  0  0  0  0  0  0  0  0  0
    1.6910   54.0840   73.6050 C   0  0  0  0  0  0  0  0  0  0  0  0
    3.4530   61.0900   73.6760 O   0  0  0  0  0  0  0  0  0  0  0  0
    4.0810   60.1180   73.2550 C   0  0  0  0  0  0  0  0  0  0  0  0
    4.0990   58.9160   73.9200 N   0  0  0  0  0  0  0  0  0  0  0  0
    4.9580   60.2210   72.0170 C   0  0  0  0  0  0  0  0  0  0  0  0
    4.5020   61.2120   70.9720 C   0  0  0  0  0  0  0  0  0  0  0  0
    5.0170   62.5160   70.9620 C   0  0  0  0  0  0  0  0  0  0  0  0
    4.5630   63.4470   70.0270 C   0  0  0  0  0  0  0  0  0  0  0  0
    3.5970   63.0830   69.0910 C   0  0  0  0  0  0  0  0  0  0  0  0
    3.0840   61.7880   69.0890 C   0  0  0  0  0  0  0  0  0  0  0  0
    3.5320   60.8550   70.0250 C   0  0  0  0  0  0  0  0  0  0  0  0
    1.3770   54.7600   76.8440 C   0  0  0  0  0  0  0  0  0  0  0  0
    0.8130   55.5150   77.6910 O   0  0  0  0  0  0  0  0  0  0  0  0
    1.4620   53.4990   76.8390 O   0  0  0  0  0  1  0  0  0  0  0  0
    3.2150   59.7086   75.4416 H   0  0  0  0  0  0  0  0  0  0  0  0
    0.9792   58.4622   74.8091 H   0  0  0  0  0  0  0  0  0  0  0  0
    3.0871   55.0246   75.6494 H   0  0  0  0  0  0  0  0  0  0  0  0
   -0.4897   55.4367   75.5941 H   0  0  0  0  0  0  0  0  0  0  0  0
   -0.5989   56.3412   74.0460 H   0  0  0  0  0  0  0  0  0  0  0  0
   -0.6858   54.5470   74.0460 H   0  0  0  0  0  0  0  0  0  0  0  0
    1.9378   53.2830   74.3174 H   0  0  0  0  0  0  0  0  0  0  0  0
    0.8493   53.7657   72.9724 H   0  0  0  0  0  0  0  0  0  0  0  0
    2.5660   54.2945   72.9724 H   0  0  0  0  0  0  0  0  0  0  0  0
    4.7366   58.1727   73.6008 H   0  0  0  0  0  0  0  0  0  0  0  0
    5.9678   60.5126   72.3414 H   0  0  0  0  0  0  0  0  0  0  0  0
    4.9124   59.2337   71.5342 H   0  0  0  0  0  0  0  0  0  0  0  0
    5.7834   62.8068   71.6955 H   0  0  0  0  0  0  0  0  0  0  0  0
    4.9682   64.4696   70.0288 H   0  0  0  0  0  0  0  0  0  0  0  0
    3.2399   63.8177   68.3543 H   0  0  0  0  0  0  0  0  0  0  0  0
    2.3239   61.5001   68.3478 H   0  0  0  0  0  0  0  0  0  0  0  0
    3.1220   59.8343   70.0197 H   0  0  0  0  0  0  0  0  0  0  0  0
  2  1  1  0
  3  2  2  0
  4  2  1  0
  5  1  1  0
  5  4  1  0
  6  5  1  0
  7  6  1  0
  8  7  1  0
  8  4  1  0
  9  7  1  0
 10  7  1  0
 12 11  2  0
 13  1  1  0
 13 12  1  0
 14 12  1  0
 15 14  1  0
 16 15  2  0
 17 16  1  0
 18 17  2  0
 19 18  1  0
 20 19  2  0
 20 15  1  0
 21  8  1  0
 22 21  2  0
 23 21  1  0
  1 24  1  1
  5 25  1  1
  8 26  1  6
  9 27  1  0
  9 28  1  0
  9 29  1  0
 10 30  1  0
 10 31  1  0
 10 32  1  0
 13 33  1  0
 14 34  1  0
 14 35  1  0
 16 36  1  0
 17 37  1  0
 18 38  1  0
 19 39  1  0
 20 40  1  0
M  CHG  1  23  -1
M  END
>  <score>  (5) 
-7.432

$$$$
=
     RDKit          3D

 40 42  0  0  0  0  0  0  0  0999 V2000
    1.3960   59.8120   74.2140 C   0  0  2  0  0  0  0  0  0  0  0  0
   -0.1120   60.1520   74.2600 C   0  0  0  0  0  0  0  0  0  0  0  0
   -1.0910   59.7630   73.6640 O   0  0  0  0  0  0  0  0  0  0  0  0
    0.1050   61.1860   75.1250 N   0  0  0  0  0  0  0  0  0  0  0  0
    1.5630   61.1570   74.9600 C   0  0  2  0  0  0  0  0  0  0  0  0
    1.9220   62.6500   73.9470 S   0  0  0  0  0  0  0  0  0  0  0  0
    0.5050   63.5660   74.7470 C   0  0  0  0  0  0  0  0  0  0  0  0
   -0.5800   62.4840   74.9580 C   0  0  2  0  0  0  0  0  0  0  0  0
    1.0540   64.1980   76.0360 C   0  0  0  0  0  0  0  0  0  0  0  0
    0.0520   64.6630   73.7780 C   0  0  0  0  0  0  0  0  0  0  0  0
    4.0050   58.9430   73.5920 O   0  0  0  0  0  0  0  0  0  0  0  0
    3.2970   59.3330   72.6640 C   0  0  0  0  0  0  0  0  0  0  0  0
    1.9850   59.6980   72.8490 N   0  0  0  0  0  0  0  0  0  0  0  0
    3.8080   59.3440   71.2320 C   0  0  0  0  0  0  0  0  0  0  0  0
    3.9690   60.7080   70.6040 C   0  0  0  0  0  0  0  0  0  0  0  0
    4.7900   61.6710   71.2070 C   0  0  0  0  0  0  0  0  0  0  0  0
    4.9040   62.9470   70.6550 C   0  0  0  0  0  0  0  0  0  0  0  0
    4.2070   63.2710   69.4940 C   0  0  0  0  0  0  0  0  0  0  0  0
    3.3930   62.3190   68.8820 C   0  0  0  0  0  0  0  0  0  0  0  0
    3.2720   61.0430   69.4350 C   0  0  0  0  0  0  0  0  0  0  0  0
   -1.5330   62.8990   76.1070 C   0  0  0  0  0  0  0  0  0  0  0  0
   -1.3930   62.2340   77.1760 O   0  0  0  0  0  0  0  0  0  0  0  0
   -2.3640   63.8150   75.8440 O   0  0  0  0  0  1  0  0  0  0  0  0
    1.8331   58.8743   74.5876 H   0  0  0  0  0  0  0  0  0  0  0  0
    2.3344   61.1894   75.7435 H   0  0  0  0  0  0  0  0  0  0  0  0
   -1.2457   62.3767   74.0889 H   0  0  0  0  0  0  0  0  0  0  0  0
    0.6146   63.6922   76.9084 H   0  0  0  0  0  0  0  0  0  0  0  0
    2.1482   64.0881   76.0611 H   0  0  0  0  0  0  0  0  0  0  0  0
    0.7921   65.2661   76.0611 H   0  0  0  0  0  0  0  0  0  0  0  0
   -0.3067   65.5318   74.3495 H   0  0  0  0  0  0  0  0  0  0  0  0
    0.8989   64.9652   73.1444 H   0  0  0  0  0  0  0  0  0  0  0  0
   -0.7614   64.2796   73.1444 H   0  0  0  0  0  0  0  0  0  0  0  0
    1.3963   59.8970   72.0276 H   0  0  0  0  0  0  0  0  0  0  0  0
    4.7900   58.8484   71.2199 H   0  0  0  0  0  0  0  0  0  0  0  0
    3.0405   58.8285   70.6361 H   0  0  0  0  0  0  0  0  0  0  0  0
    5.3477   61.4189   72.1210 H   0  0  0  0  0  0  0  0  0  0  0  0
    5.5458   63.6987   71.1378 H   0  0  0  0  0  0  0  0  0  0  0  0
    4.2986   64.2776   69.0599 H   0  0  0  0  0  0  0  0  0  0  0  0
    2.8456   62.5735   67.9625 H   0  0  0  0  0  0  0  0  0  0  0  0
    2.6259   60.2961   68.9505 H   0  0  0  0  0  0  0  0  0  0  0  0
  2  1  1  0
  3  2  2  0
  4  2  1  0
  5  1  1  0
  5  4  1  0
  6  5  1  0
  7  6  1  0
  8  7  1  0
  8  4  1  0
  9  7  1  0
 10  7  1  0
 12 11  2  0
 13  1  1  0
 13 12  1  0
 14 12  1  0
 15 14  1  0
 16 15  2  0
 17 16  1  0
 18 17  2  0
 19 18  1  0
 20 19  2  0
 20 15  1  0
 21  8  1  0
 22 21  2  0
 23 21  1  0
  1 24  1  1
  5 25  1  1
  8 26  1  6
  9 27  1  0
  9 28  1  0
  9 29  1  0
 10 30  1  0
 10 31  1  0
 10 32  1  0
 13 33  1  0
 14 34  1  0
 14 35  1  0
 16 36  1  0
 17 37  1  0
 18 38  1  0
 19 39  1  0
 20 40  1  0
M  CHG  1  23  -1
M  END
>  <score>  (6) 
-7.394

$$$$
=
     RDKit          3D

 40 42  0  0  0  0  0  0  0  0999 V2000
    0.8650   61.8230   73.0750 C   0  0  2  0  0  0  0  0  0  0  0  0
    0.8930   62.5380   71.7040 C   0  0  0  0  0  0  0  0  0  0  0  0
    0.0480   62.9410   70.9370 O   0  0  0  0  0  0  0  0  0  0  0  0
    2.2470   62.3960   71.6100 N   0  0  0  0  0  0  0  0  0  0  0  0
    2.3350   61.4690   72.7460 C   0  0  2  0  0  0  0  0  0  0  0  0
    2.6590   59.8390   71.9610 S   0  0  0  0  0  0  0  0  0  0  0  0
    3.6340   60.6600   70.5960 C   0  0  0  0  0  0  0  0  0  0  0  0
    2.8920   61.9940   70.3440 C   0  0  2  0  0  0  0  0  0  0  0  0
    5.0780   60.8040   71.1050 C   0  0  0  0  0  0  0  0  0  0  0  0
    3.5990   59.7350   69.3750 C   0  0  0  0  0  0  0  0  0  0  0  0
    0.2910   60.3500   75.4100 O   0  0  0  0  0  0  0  0  0  0  0  0
   -0.2560   60.0000   74.3650 C   0  0  0  0  0  0  0  0  0  0  0  0
   -0.1100   60.7000   73.1920 N   0  0  0  0  0  0  0  0  0  0  0  0
   -1.2120   58.8170   74.3320 C   0  0  0  0  0  0  0  0  0  0  0  0
   -0.5660   57.4580   74.1970 C   0  0  0  0  0  0  0  0  0  0  0  0
   -1.2440   56.3080   74.6250 C   0  0  0  0  0  0  0  0  0  0  0  0
   -0.6310   55.0570   74.5440 C   0  0  0  0  0  0  0  0  0  0  0  0
    0.6580   54.9420   74.0290 C   0  0  0  0  0  0  0  0  0  0  0  0
    1.3380   56.0790   73.5950 C   0  0  0  0  0  0  0  0  0  0  0  0
    0.7310   57.3320   73.6790 C   0  0  0  0  0  0  0  0  0  0  0  0
    3.8550   63.0310   69.7150 C   0  0  0  0  0  0  0  0  0  0  0  0
    3.9260   62.9890   68.4510 O   0  0  0  0  0  0  0  0  0  0  0  0
    4.4900   63.7700   70.5210 O   0  0  0  0  0  1  0  0  0  0  0  0
    0.5737   62.3039   74.0204 H   0  0  0  0  0  0  0  0  0  0  0  0
    3.0442   61.4920   73.5865 H   0  0  0  0  0  0  0  0  0  0  0  0
    2.0872   61.8976   69.6004 H   0  0  0  0  0  0  0  0  0  0  0  0
    5.0807   60.8043   72.2050 H   0  0  0  0  0  0  0  0  0  0  0  0
    5.6822   59.9617   70.7370 H   0  0  0  0  0  0  0  0  0  0  0  0
    5.5040   61.7491   70.7370 H   0  0  0  0  0  0  0  0  0  0  0  0
    3.5594   58.6878   69.7094 H   0  0  0  0  0  0  0  0  0  0  0  0
    2.7087   59.9605   68.7695 H   0  0  0  0  0  0  0  0  0  0  0  0
    4.5038   59.8926   68.7695 H   0  0  0  0  0  0  0  0  0  0  0  0
   -0.6853   60.4443   72.3768 H   0  0  0  0  0  0  0  0  0  0  0  0
   -1.7918   58.8245   75.2667 H   0  0  0  0  0  0  0  0  0  0  0  0
   -1.8237   58.9501   73.4275 H   0  0  0  0  0  0  0  0  0  0  0  0
   -2.2645   56.3922   75.0268 H   0  0  0  0  0  0  0  0  0  0  0  0
   -1.1669   54.1599   74.8876 H   0  0  0  0  0  0  0  0  0  0  0  0
    1.1391   53.9549   73.9648 H   0  0  0  0  0  0  0  0  0  0  0  0
    2.3549   55.9878   73.1856 H   0  0  0  0  0  0  0  0  0  0  0  0
    1.2727   58.2262   73.3370 H   0  0  0  0  0  0  0  0  0  0  0  0
  2  1  1  0
  3  2  2  0
  4  2  1  0
  5  1  1  0
  5  4  1  0
  6  5  1  0
  7  6  1  0
  8  7  1  0
  8  4  1  0
  9  7  1  0
 10  7  1  0
 12 11  2  0
 13  1  1  0
 13 12  1  0
 14 12  1  0
 15 14  1  0
 16 15  2  0
 17 16  1  0
 18 17  2  0
 19 18  1  0
 20 19  2  0
 20 15  1  0
 21  8  1  0
 22 21  2  0
 23 21  1  0
  1 24  1  1
  5 25  1  1
  8 26  1  6
  9 27  1  0
  9 28  1  0
  9 29  1  0
 10 30  1  0
 10 31  1  0
 10 32  1  0
 13 33  1  0
 14 34  1  0
 14 35  1  0
 16 36  1  0
 17 37  1  0
 18 38  1  0
 19 39  1  0
 20 40  1  0
M  CHG  1  23  -1
M  END
>  <score>  (7) 
-7.003

$$$$
=
     RDKit          3D

 40 42  0  0  0  0  0  0  0  0999 V2000
    2.5580   57.4030   74.7530 C   0  0  2  0  0  0  0  0  0  0  0  0
    2.3720   55.9430   75.2270 C   0  0  0  0  0  0  0  0  0  0  0  0
    2.8340   54.8750   74.8930 O   0  0  0  0  0  0  0  0  0  0  0  0
    1.3570   56.3000   76.0670 N   0  0  0  0  0  0  0  0  0  0  0  0
    1.2330   57.6540   75.5120 C   0  0  2  0  0  0  0  0  0  0  0  0
   -0.3270   57.5920   74.5410 S   0  0  0  0  0  0  0  0  0  0  0  0
   -1.0640   56.3770   75.7520 C   0  0  0  0  0  0  0  0  0  0  0  0
    0.1290   55.4880   76.1770 C   0  0  2  0  0  0  0  0  0  0  0  0
   -1.6950   57.2040   76.8830 C   0  0  0  0  0  0  0  0  0  0  0  0
   -2.1480   55.5820   75.0160 C   0  0  0  0  0  0  0  0  0  0  0  0
    4.1870   59.1980   73.3120 O   0  0  0  0  0  0  0  0  0  0  0  0
    3.3430   58.5600   72.6810 C   0  0  0  0  0  0  0  0  0  0  0  0
    2.5580   57.6010   73.2740 N   0  0  0  0  0  0  0  0  0  0  0  0
    3.1860   58.7290   71.1780 C   0  0  0  0  0  0  0  0  0  0  0  0
    3.0380   60.1520   70.6920 C   0  0  0  0  0  0  0  0  0  0  0  0
    3.7910   60.6080   69.6010 C   0  0  0  0  0  0  0  0  0  0  0  0
    3.6900   61.9350   69.1800 C   0  0  0  0  0  0  0  0  0  0  0  0
    2.8320   62.8130   69.8380 C   0  0  0  0  0  0  0  0  0  0  0  0
    2.0750   62.3680   70.9190 C   0  0  0  0  0  0  0  0  0  0  0  0
    2.1760   61.0430   71.3470 C   0  0  0  0  0  0  0  0  0  0  0  0
   -0.1430   54.8560   77.5650 C   0  0  0  0  0  0  0  0  0  0  0  0
    0.5140   55.3710   78.5180 O   0  0  0  0  0  0  0  0  0  0  0  0
   -0.9480   53.8820   77.5910 O   0  0  0  0  0  1  0  0  0  0  0  0
    3.4617   58.0039   74.9327 H   0  0  0  0  0  0  0  0  0  0  0  0
    1.1545   58.6059   76.0576 H   0  0  0  0  0  0  0  0  0  0  0  0
    0.2679   54.6205   75.5151 H   0  0  0  0  0  0  0  0  0  0  0  0
   -1.3825   56.7945   77.8549 H   0  0  0  0  0  0  0  0  0  0  0  0
   -1.3630   58.2496   76.8018 H   0  0  0  0  0  0  0  0  0  0  0  0
   -2.7911   57.1600   76.8018 H   0  0  0  0  0  0  0  0  0  0  0  0
   -2.8090   55.0973   75.7496 H   0  0  0  0  0  0  0  0  0  0  0  0
   -2.7377   56.2633   74.3851 H   0  0  0  0  0  0  0  0  0  0  0  0
   -1.6754   54.8148   74.3851 H   0  0  0  0  0  0  0  0  0  0  0  0
    1.9571   57.0064   72.6855 H   0  0  0  0  0  0  0  0  0  0  0  0
    4.0746   58.2971   70.6944 H   0  0  0  0  0  0  0  0  0  0  0  0
    2.2456   58.2224   70.9153 H   0  0  0  0  0  0  0  0  0  0  0  0
    4.4649   59.9165   69.0740 H   0  0  0  0  0  0  0  0  0  0  0  0
    4.2888   62.2878   68.3274 H   0  0  0  0  0  0  0  0  0  0  0  0
    2.7523   63.8580   69.5038 H   0  0  0  0  0  0  0  0  0  0  0  0
    1.3962   63.0618   71.4366 H   0  0  0  0  0  0  0  0  0  0  0  0
    1.5767   60.6965   72.2018 H   0  0  0  0  0  0  0  0  0  0  0  0
  2  1  1  0
  3  2  2  0
  4  2  1  0
  5  1  1  0
  5  4  1  0
  6  5  1  0
  7  6  1  0
  8  7  1  0
  8  4  1  0
  9  7  1  0
 10  7  1  0
 12 11  2  0
 13  1  1  0
 13 12  1  0
 14 12  1  0
 15 14  1  0
 16 15  2  0
 17 16  1  0
 18 17  2  0
 19 18  1  0
 20 19  2  0
 20 15  1  0
 21  8  1  0
 22 21  2  0
 23 21  1  0
  1 24  1  1
  5 25  1  1
  8 26  1  6
  9 27  1  0
  9 28  1  0
  9 29  1  0
 10 30  1  0
 10 31  1  0
 10 32  1  0
 13 33  1  0
 14 34  1  0
 14 35  1  0
 16 36  1  0
 17 37  1  0
 18 38  1  0
 19 39  1  0
 20 40  1  0
M  CHG  1  23  -1
M  END
>  <score>  (8) 
-6.439

$$$$
=
     RDKit          3D

 40 42  0  0  0  0  0  0  0  0999 V2000
   -0.3500   58.3280   73.8380 C   0  0  2  0  0  0  0  0  0  0  0  0
   -0.7970   57.9030   75.2560 C   0  0  0  0  0  0  0  0  0  0  0  0
   -0.8690   58.4590   76.3280 O   0  0  0  0  0  0  0  0  0  0  0  0
   -0.9290   56.6000   74.8690 N   0  0  0  0  0  0  0  0  0  0  0  0
   -0.2610   56.8050   73.5780 C   0  0  2  0  0  0  0  0  0  0  0  0
    1.3790   56.0020   73.7970 S   0  0  0  0  0  0  0  0  0  0  0  0
    0.6280   54.7200   74.9280 C   0  0  0  0  0  0  0  0  0  0  0  0
   -0.4520   55.4930   75.7210 C   0  0  2  0  0  0  0  0  0  0  0  0
    0.0950   53.5920   74.0310 C   0  0  0  0  0  0  0  0  0  0  0  0
    1.7430   54.1860   75.8340 C   0  0  0  0  0  0  0  0  0  0  0  0
    0.0130   60.7900   72.5110 O   0  0  0  0  0  0  0  0  0  0  0  0
    1.0000   60.2720   73.0350 C   0  0  0  0  0  0  0  0  0  0  0  0
    0.9140   59.1180   73.7750 N   0  0  0  0  0  0  0  0  0  0  0  0
    2.3670   60.9370   72.9730 C   0  0  0  0  0  0  0  0  0  0  0  0
    2.7130   61.6010   71.6610 C   0  0  0  0  0  0  0  0  0  0  0  0
    3.1080   60.8290   70.5600 C   0  0  0  0  0  0  0  0  0  0  0  0
    3.4730   61.4430   69.3620 C   0  0  0  0  0  0  0  0  0  0  0  0
    3.4390   62.8310   69.2500 C   0  0  0  0  0  0  0  0  0  0  0  0
    3.0410   63.6080   70.3360 C   0  0  0  0  0  0  0  0  0  0  0  0
    2.6800   62.9970   71.5380 C   0  0  0  0  0  0  0  0  0  0  0  0
   -1.5390   54.5170   76.2360 C   0  0  0  0  0  0  0  0  0  0  0  0
   -2.6310   54.5570   75.5950 O   0  0  0  0  0  0  0  0  0  0  0  0
   -1.2390   53.8260   77.2510 O   0  0  0  0  0  1  0  0  0  0  0  0
   -0.9202   59.0036   73.1834 H   0  0  0  0  0  0  0  0  0  0  0  0
   -0.5837   56.4579   72.5853 H   0  0  0  0  0  0  0  0  0  0  0  0
   -0.0563   55.9531   76.6384 H   0  0  0  0  0  0  0  0  0  0  0  0
   -0.2908   52.7754   74.6590 H   0  0  0  0  0  0  0  0  0  0  0  0
   -0.7149   53.9802   73.3959 H   0  0  0  0  0  0  0  0  0  0  0  0
    0.9092   53.2128   73.3959 H   0  0  0  0  0  0  0  0  0  0  0  0
    1.4568   54.3230   76.8872 H   0  0  0  0  0  0  0  0  0  0  0  0
    1.8982   53.1158   75.6325 H   0  0  0  0  0  0  0  0  0  0  0  0
    2.6741   54.7359   75.6325 H   0  0  0  0  0  0  0  0  0  0  0  0
    1.7394   58.7912   74.2973 H   0  0  0  0  0  0  0  0  0  0  0  0
    2.4059   61.7039   73.7606 H   0  0  0  0  0  0  0  0  0  0  0  0
    3.1006   60.1276   73.1023 H   0  0  0  0  0  0  0  0  0  0  0  0
    3.1303   59.7322   70.6412 H   0  0  0  0  0  0  0  0  0  0  0  0
    3.7881   60.8303   68.5045 H   0  0  0  0  0  0  0  0  0  0  0  0
    3.7263   63.3137   68.3043 H   0  0  0  0  0  0  0  0  0  0  0  0
    3.0113   64.7039   70.2460 H   0  0  0  0  0  0  0  0  0  0  0  0
    2.3679   63.6143   72.3933 H   0  0  0  0  0  0  0  0  0  0  0  0
  2  1  1  0
  3  2  2  0
  4  2  1  0
  5  1  1  0
  5  4  1  0
  6  5  1  0
  7  6  1  0
  8  7  1  0
  8  4  1  0
  9  7  1  0
 10  7  1  0
 12 11  2  0
 13  1  1  0
 13 12  1  0
 14 12  1  0
 15 14  1  0
 16 15  2  0
 17 16  1  0
 18 17  2  0
 19 18  1  0
 20 19  2  0
 20 15  1  0
 21  8  1  0
 22 21  2  0
 23 21  1  0
  1 24  1  6
  5 25  1  6
  8 26  1  1
  9 27  1  0
  9 28  1  0
  9 29  1  0
 10 30  1  0
 10 31  1  0
 10 32  1  0
 13 33  1  0
 14 34  1  0
 14 35  1  0
 16 36  1  0
 17 37  1  0
 18 38  1  0
 19 39  1  0
 20 40  1  0
M  CHG  1  23  -1
M  END
>  <score>  (9) 
-6.391

$$$$
