=
     RDKit          3D

 55 58  0  0  0  0  0  0  0  0999 V2000
    0.2360   65.7670   70.6060 C   0  0  0  0  0  0  0  0  0  0  0  0
   -0.3270   66.4550   71.4580 O   0  0  0  0  0  0  0  0  0  0  0  0
    2.5980   60.1200   72.0460 C   0  0  0  0  0  0  0  0  0  0  0  0
    1.4360   60.8910   72.2040 C   0  0  0  0  0  0  0  0  0  0  0  0
    1.3750   62.1860   71.6480 C   0  0  0  0  0  0  0  0  0  0  0  0
    0.0550   63.2870   71.7270 S   0  0  0  0  0  0  0  0  0  0  0  0
    0.8940   64.4970   70.8600 C   0  0  0  0  0  0  0  0  0  0  0  0
    2.1490   64.0600   70.4870 C   0  0  0  0  0  0  0  0  0  0  0  0
    2.4440   62.7310   70.9420 C   0  0  0  0  0  0  0  0  0  0  0  0
    3.6020   61.9400   70.7820 C   0  0  0  0  0  0  0  0  0  0  0  0
    3.6710   60.6410   71.3120 C   0  0  0  0  0  0  0  0  0  0  0  0
    2.4460   57.7390   71.8100 C   0  0  0  0  0  0  0  0  0  0  0  0
    2.7570   58.8780   72.6020 O   0  0  0  0  0  0  0  0  0  0  0  0
    4.8770   60.0320   71.0670 O   0  0  0  0  0  0  0  0  0  0  0  0
    6.0410   60.8190   71.2940 C   0  0  0  0  0  0  0  0  0  0  0  0
    0.2600   66.3180   69.2140 C   0  0  0  0  0  0  0  0  0  0  0  0
   -0.8860   66.8290   68.7310 C   0  0  0  0  0  0  0  0  0  0  0  0
   -0.9600   67.5770   67.4440 C   0  0  0  0  0  0  0  0  0  0  0  0
    0.3860   68.1540   67.0020 N   0  0  1  0  0  4  0  0  0  0  0  0
    1.4470   67.0420   67.0930 C   0  0  0  0  0  0  0  0  0  0  0  0
    1.5760   66.4530   68.5070 C   0  0  0  0  0  0  0  0  0  0  0  0
    0.2650   68.5860   65.5420 C   0  0  0  0  0  0  0  0  0  0  0  0
    0.8210   69.3690   67.8680 C   0  0  0  0  0  0  0  0  0  0  0  0
    2.2910   69.7090   67.8870 C   0  0  0  0  0  0  0  0  0  0  0  0
    3.1040   69.4580   66.7690 C   0  0  0  0  0  0  0  0  0  0  0  0
    4.4620   69.7840   66.7920 C   0  0  0  0  0  0  0  0  0  0  0  0
    5.0240   70.3530   67.9320 C   0  0  0  0  0  0  0  0  0  0  0  0
    4.2350   70.5890   69.0540 C   0  0  0  0  0  0  0  0  0  0  0  0
    2.8770   70.2650   69.0350 C   0  0  0  0  0  0  0  0  0  0  0  0
    0.5764   60.4872   72.7591 H   0  0  0  0  0  0  0  0  0  0  0  0
    2.8523   64.6690   69.9001 H   0  0  0  0  0  0  0  0  0  0  0  0
    4.4641   62.3473   70.2335 H   0  0  0  0  0  0  0  0  0  0  0  0
    2.2136   56.8879   72.4670 H   0  0  0  0  0  0  0  0  0  0  0  0
    1.5755   57.9605   71.1751 H   0  0  0  0  0  0  0  0  0  0  0  0
    3.3083   57.4873   71.1751 H   0  0  0  0  0  0  0  0  0  0  0  0
    6.2038   60.9291   72.3763 H   0  0  0  0  0  0  0  0  0  0  0  0
    6.9124   60.3240   70.8406 H   0  0  0  0  0  0  0  0  0  0  0  0
    5.9063   61.8121   70.8406 H   0  0  0  0  0  0  0  0  0  0  0  0
   -1.8098   66.6888   69.3114 H   0  0  0  0  0  0  0  0  0  0  0  0
   -1.3201   66.8921   66.6622 H   0  0  0  0  0  0  0  0  0  0  0  0
   -1.6434   68.4250   67.5985 H   0  0  0  0  0  0  0  0  0  0  0  0
    1.1691   66.2341   66.4002 H   0  0  0  0  0  0  0  0  0  0  0  0
    2.4174   67.4893   66.8318 H   0  0  0  0  0  0  0  0  0  0  0  0
    2.0351   65.4564   68.4299 H   0  0  0  0  0  0  0  0  0  0  0  0
    2.1929   67.1482   69.0953 H   0  0  0  0  0  0  0  0  0  0  0  0
   -0.0314   69.6443   65.4961 H   0  0  0  0  0  0  0  0  0  0  0  0
    1.2345   68.4546   65.0392 H   0  0  0  0  0  0  0  0  0  0  0  0
   -0.4952   67.9702   65.0392 H   0  0  0  0  0  0  0  0  0  0  0  0
    0.2816   70.2520   67.4947 H   0  0  0  0  0  0  0  0  0  0  0  0
    0.5824   69.0809   68.9024 H   0  0  0  0  0  0  0  0  0  0  0  0
    2.6676   69.0012   65.8685 H   0  0  0  0  0  0  0  0  0  0  0  0
    5.0883   69.5910   65.9085 H   0  0  0  0  0  0  0  0  0  0  0  0
    6.0920   70.6161   67.9457 H   0  0  0  0  0  0  0  0  0  0  0  0
    4.6818   71.0312   69.9567 H   0  0  0  0  0  0  0  0  0  0  0  0
    2.2607   70.4471   69.9278 H   0  0  0  0  0  0  0  0  0  0  0  0
  2  1  2  0
  4  3  2  0
  5  4  1  0
  6  5  1  0
  7  6  1  0
  7  1  1  0
  8  7  2  0
  9  8  1  0
  9  5  2  0
 10  9  1  0
 11 10  2  0
 11  3  1  0
 13 12  1  0
 13  3  1  0
 14 11  1  0
 15 14  1  0
 16  1  1  0
 17 16  2  0
 18 17  1  0
 19 18  1  0
 20 19  1  0
 21 20  1  0
 21 16  1  0
 19 22  1  6
 23 19  1  0
 24 23  1  0
 25 24  2  0
 26 25  1  0
 27 26  2  0
 28 27  1  0
 29 28  2  0
 29 24  1  0
  4 30  1  0
  8 31  1  0
 10 32  1  0
 12 33  1  0
 12 34  1  0
 12 35  1  0
 15 36  1  0
 15 37  1  0
 15 38  1  0
 17 39  1  0
 18 40  1  0
 18 41  1  0
 20 42  1  0
 20 43  1  0
 21 44  1  0
 21 45  1  0
 22 46  1  0
 22 47  1  0
 22 48  1  0
 23 49  1  0
 23 50  1  0
 25 51  1  0
 26 52  1  0
 27 53  1  0
 28 54  1  0
 29 55  1  0
M  CHG  1  19   1
M  END
>  <score>  (1) 
-9.555

$$$$
=
     RDKit          3D

 55 58  0  0  0  0  0  0  0  0999 V2000
    3.0090   58.2400   71.5180 C   0  0  0  0  0  0  0  0  0  0  0  0
    3.4130   57.1920   71.0150 O   0  0  0  0  0  0  0  0  0  0  0  0
   -1.9160   58.1190   75.4250 C   0  0  0  0  0  0  0  0  0  0  0  0
   -0.9430   57.2750   74.8680 C   0  0  0  0  0  0  0  0  0  0  0  0
    0.0290   57.8090   73.9960 C   0  0  0  0  0  0  0  0  0  0  0  0
    1.2990   56.9550   73.2110 S   0  0  0  0  0  0  0  0  0  0  0  0
    1.8670   58.3530   72.4080 C   0  0  0  0  0  0  0  0  0  0  0  0
    1.1220   59.4610   72.7570 C   0  0  0  0  0  0  0  0  0  0  0  0
    0.0520   59.1620   73.6660 C   0  0  0  0  0  0  0  0  0  0  0  0
   -0.9250   60.0000   74.2430 C   0  0  0  0  0  0  0  0  0  0  0  0
   -1.8880   59.4870   75.1280 C   0  0  0  0  0  0  0  0  0  0  0  0
   -4.1040   57.1580   75.6240 C   0  0  0  0  0  0  0  0  0  0  0  0
   -2.9260   57.6680   76.2350 O   0  0  0  0  0  0  0  0  0  0  0  0
   -2.7610   60.4470   75.5770 O   0  0  0  0  0  0  0  0  0  0  0  0
   -3.7270   60.9110   74.6410 C   0  0  0  0  0  0  0  0  0  0  0  0
    3.7490   59.4870   71.1450 C   0  0  0  0  0  0  0  0  0  0  0  0
    3.3290   60.1550   70.0570 C   0  0  0  0  0  0  0  0  0  0  0  0
    3.8470   61.5010   69.6810 C   0  0  0  0  0  0  0  0  0  0  0  0
    4.4660   62.2600   70.8570 N   0  0  1  0  0  4  0  0  0  0  0  0
    5.4480   61.3200   71.5810 C   0  0  0  0  0  0  0  0  0  0  0  0
    4.7780   60.0330   72.0900 C   0  0  0  0  0  0  0  0  0  0  0  0
    5.2530   63.4440   70.3010 C   0  0  0  0  0  0  0  0  0  0  0  0
    3.3930   62.7730   71.8580 C   0  0  0  0  0  0  0  0  0  0  0  0
    2.2010   63.4920   71.2790 C   0  0  0  0  0  0  0  0  0  0  0  0
    0.9300   62.8940   71.2710 C   0  0  0  0  0  0  0  0  0  0  0  0
   -0.1700   63.5700   70.7400 C   0  0  0  0  0  0  0  0  0  0  0  0
   -0.0130   64.8450   70.2020 C   0  0  0  0  0  0  0  0  0  0  0  0
    1.2450   65.4430   70.1850 C   0  0  0  0  0  0  0  0  0  0  0  0
    2.3470   64.7700   70.7150 C   0  0  0  0  0  0  0  0  0  0  0  0
   -0.9382   56.2020   75.1102 H   0  0  0  0  0  0  0  0  0  0  0  0
    1.3276   60.4724   72.3766 H   0  0  0  0  0  0  0  0  0  0  0  0
   -0.9330   61.0719   73.9962 H   0  0  0  0  0  0  0  0  0  0  0  0
   -4.8169   56.8494   76.4028 H   0  0  0  0  0  0  0  0  0  0  0  0
   -4.5601   57.9392   74.9982 H   0  0  0  0  0  0  0  0  0  0  0  0
   -3.8465   56.2908   74.9982 H   0  0  0  0  0  0  0  0  0  0  0  0
   -4.5909   61.3260   75.1809 H   0  0  0  0  0  0  0  0  0  0  0  0
   -3.2796   61.6925   74.0092 H   0  0  0  0  0  0  0  0  0  0  0  0
   -4.0573   60.0733   74.0092 H   0  0  0  0  0  0  0  0  0  0  0  0
    2.5683   59.6870   69.4148 H   0  0  0  0  0  0  0  0  0  0  0  0
    4.6147   61.3752   68.9033 H   0  0  0  0  0  0  0  0  0  0  0  0
    2.9907   62.0926   69.3251 H   0  0  0  0  0  0  0  0  0  0  0  0
    6.2510   61.0448   70.8814 H   0  0  0  0  0  0  0  0  0  0  0  0
    5.8363   61.8593   72.4576 H   0  0  0  0  0  0  0  0  0  0  0  0
    5.5558   59.2695   72.2386 H   0  0  0  0  0  0  0  0  0  0  0  0
    4.2596   60.2839   73.0272 H   0  0  0  0  0  0  0  0  0  0  0  0
    5.6511   64.0430   71.1333 H   0  0  0  0  0  0  0  0  0  0  0  0
    6.0855   63.0739   69.6845 H   0  0  0  0  0  0  0  0  0  0  0  0
    4.5895   64.0683   69.6845 H   0  0  0  0  0  0  0  0  0  0  0  0
    3.0163   61.9024   72.4149 H   0  0  0  0  0  0  0  0  0  0  0  0
    3.9111   63.5273   72.4685 H   0  0  0  0  0  0  0  0  0  0  0  0
    0.8002   61.8839   71.6869 H   0  0  0  0  0  0  0  0  0  0  0  0
   -1.1621   63.0950   70.7465 H   0  0  0  0  0  0  0  0  0  0  0  0
   -0.8820   65.3795   69.7907 H   0  0  0  0  0  0  0  0  0  0  0  0
    1.3701   66.4470   69.7533 H   0  0  0  0  0  0  0  0  0  0  0  0
    3.3389   65.2449   70.6907 H   0  0  0  0  0  0  0  0  0  0  0  0
  2  1  2  0
  4  3  2  0
  5  4  1  0
  6  5  1  0
  7  6  1  0
  7  1  1  0
  8  7  2  0
  9  8  1  0
  9  5  2  0
 10  9  1  0
 11 10  2  0
 11  3  1  0
 13 12  1  0
 13  3  1  0
 14 11  1  0
 15 14  1  0
 16  1  1  0
 17 16  2  0
 18 17  1  0
 19 18  1  0
 20 19  1  0
 21 20  1  0
 21 16  1  0
 19 22  1  6
 23 19  1  0
 24 23  1  0
 25 24  2  0
 26 25  1  0
 27 26  2  0
 28 27  1  0
 29 28  2  0
 29 24  1  0
  4 30  1  0
  8 31  1  0
 10 32  1  0
 12 33  1  0
 12 34  1  0
 12 35  1  0
 15 36  1  0
 15 37  1  0
 15 38  1  0
 17 39  1  0
 18 40  1  0
 18 41  1  0
 20 42  1  0
 20 43  1  0
 21 44  1  0
 21 45  1  0
 22 46  1  0
 22 47  1  0
 22 48  1  0
 23 49  1  0
 23 50  1  0
 25 51  1  0
 26 52  1  0
 27 53  1  0
 28 54  1  0
 29 55  1  0
M  CHG  1  19   1
M  END
>  <score>  (2) 
-8.866

$$$$
=
     RDKit          3D

 55 58  0  0  0  0  0  0  0  0999 V2000
    1.7230   57.7580   73.0860 C   0  0  0  0  0  0  0  0  0  0  0  0
    1.9940   56.5600   73.0160 O   0  0  0  0  0  0  0  0  0  0  0  0
   -3.8430   59.5470   75.4010 C   0  0  0  0  0  0  0  0  0  0  0  0
   -3.0070   58.4220   75.3130 C   0  0  0  0  0  0  0  0  0  0  0  0
   -1.7590   58.5290   74.6630 C   0  0  0  0  0  0  0  0  0  0  0  0
   -0.5940   57.2830   74.4450 S   0  0  0  0  0  0  0  0  0  0  0  0
    0.4700   58.3030   73.5800 C   0  0  0  0  0  0  0  0  0  0  0  0
   -0.0370   59.5830   73.4860 C   0  0  0  0  0  0  0  0  0  0  0  0
   -1.3280   59.7270   74.0980 C   0  0  0  0  0  0  0  0  0  0  0  0
   -2.1740   60.8510   74.2060 C   0  0  0  0  0  0  0  0  0  0  0  0
   -3.4100   60.7660   74.8670 C   0  0  0  0  0  0  0  0  0  0  0  0
   -6.1850   59.0930   75.1610 C   0  0  0  0  0  0  0  0  0  0  0  0
   -5.0910   59.5110   75.9670 O   0  0  0  0  0  0  0  0  0  0  0  0
   -4.0980   61.9550   74.8590 O   0  0  0  0  0  0  0  0  0  0  0  0
   -4.0120   62.7430   76.0410 C   0  0  0  0  0  0  0  0  0  0  0  0
    2.7670   58.7080   72.5870 C   0  0  0  0  0  0  0  0  0  0  0  0
    2.5910   59.2340   71.3620 C   0  0  0  0  0  0  0  0  0  0  0  0
    3.4450   60.3290   70.8200 C   0  0  0  0  0  0  0  0  0  0  0  0
    4.1550   61.1370   71.9090 N   0  0  1  0  0  4  0  0  0  0  0  0
    4.8310   60.1530   72.8830 C   0  0  0  0  0  0  0  0  0  0  0  0
    3.8360   59.1750   73.5300 C   0  0  0  0  0  0  0  0  0  0  0  0
    5.2410   61.9810   71.2470 C   0  0  0  0  0  0  0  0  0  0  0  0
    3.1800   62.0630   72.6880 C   0  0  0  0  0  0  0  0  0  0  0  0
    2.2100   62.8810   71.8720 C   0  0  0  0  0  0  0  0  0  0  0  0
    2.6560   63.9470   71.0750 C   0  0  0  0  0  0  0  0  0  0  0  0
    1.7520   64.6940   70.3160 C   0  0  0  0  0  0  0  0  0  0  0  0
    0.3930   64.3920   70.3540 C   0  0  0  0  0  0  0  0  0  0  0  0
   -0.0670   63.3500   71.1550 C   0  0  0  0  0  0  0  0  0  0  0  0
    0.8340   62.6010   71.9140 C   0  0  0  0  0  0  0  0  0  0  0  0
   -3.3233   57.4626   75.7484 H   0  0  0  0  0  0  0  0  0  0  0  0
    0.4943   60.4098   72.9920 H   0  0  0  0  0  0  0  0  0  0  0  0
   -1.8604   61.8089   73.7655 H   0  0  0  0  0  0  0  0  0  0  0  0
   -7.0164   58.7753   75.8074 H   0  0  0  0  0  0  0  0  0  0  0  0
   -6.5131   59.9291   74.5260 H   0  0  0  0  0  0  0  0  0  0  0  0
   -5.8720   58.2511   74.5260 H   0  0  0  0  0  0  0  0  0  0  0  0
   -4.0833   62.0898   76.9232 H   0  0  0  0  0  0  0  0  0  0  0  0
   -3.0503   63.2767   76.0567 H   0  0  0  0  0  0  0  0  0  0  0  0
   -4.8360   63.4716   76.0567 H   0  0  0  0  0  0  0  0  0  0  0  0
    1.7807   58.8386   70.7318 H   0  0  0  0  0  0  0  0  0  0  0  0
    4.2065   59.8850   70.1620 H   0  0  0  0  0  0  0  0  0  0  0  0
    2.7833   61.0215   70.2790 H   0  0  0  0  0  0  0  0  0  0  0  0
    5.5843   59.5729   72.3298 H   0  0  0  0  0  0  0  0  0  0  0  0
    5.2843   60.7462   73.6908 H   0  0  0  0  0  0  0  0  0  0  0  0
    4.3927   58.2970   73.8895 H   0  0  0  0  0  0  0  0  0  0  0  0
    3.3364   59.7122   74.3496 H   0  0  0  0  0  0  0  0  0  0  0  0
    5.8570   62.4597   72.0225 H   0  0  0  0  0  0  0  0  0  0  0  0
    5.8754   61.3366   70.6207 H   0  0  0  0  0  0  0  0  0  0  0  0
    4.7732   62.7549   70.6207 H   0  0  0  0  0  0  0  0  0  0  0  0
    2.5901   61.4281   73.3655 H   0  0  0  0  0  0  0  0  0  0  0  0
    3.8256   62.8009   73.1867 H   0  0  0  0  0  0  0  0  0  0  0  0
    3.7270   64.1964   71.0479 H   0  0  0  0  0  0  0  0  0  0  0  0
    2.1138   65.5214   69.6879 H   0  0  0  0  0  0  0  0  0  0  0  0
   -0.3173   64.9768   69.7511 H   0  0  0  0  0  0  0  0  0  0  0  0
   -1.1414   63.1168   71.1897 H   0  0  0  0  0  0  0  0  0  0  0  0
    0.4632   61.7842   72.5507 H   0  0  0  0  0  0  0  0  0  0  0  0
  2  1  2  0
  4  3  2  0
  5  4  1  0
  6  5  1  0
  7  6  1  0
  7  1  1  0
  8  7  2  0
  9  8  1  0
  9  5  2  0
 10  9  1  0
 11 10  2  0
 11  3  1  0
 13 12  1  0
 13  3  1  0
 14 11  1  0
 15 14  1  0
 16  1  1  0
 17 16  2  0
 18 17  1  0
 19 18  1  0
 20 19  1  0
 21 20  1  0
 21 16  1  0
 19 22  1  6
 23 19  1  0
 24 23  1  0
 25 24  2  0
 26 25  1  0
 27 26  2  0
 28 27  1  0
 29 28  2  0
 29 24  1  0
  4 30  1  0
  8 31  1  0
 10 32  1  0
 12 33  1  0
 12 34  1  0
 12 35  1  0
 15 36  1  0
 15 37  1  0
 15 38  1  0
 17 39  1  0
 18 40  1  0
 18 41  1  0
 20 42  1  0
 20 43  1  0
 21 44  1  0
 21 45  1  0
 22 46  1  0
 22 47  1  0
 22 48  1  0
 23 49  1  0
 23 50  1  0
 25 51  1  0
 26 52  1  0
 27 53  1  0
 28 54  1  0
 29 55  1  0
M  CHG  1  19   1
M  END
>  <score>  (3) 
-8.746

$$$$
=
     RDKit          3D

 55 58  0  0  0  0  0  0  0  0999 V2000
    3.4860   58.5020   75.0710 C   0  0  0  0  0  0  0  0  0  0  0  0
    4.5840   58.2110   75.5440 O   0  0  0  0  0  0  0  0  0  0  0  0
    2.6840   62.1060   69.9820 C   0  0  0  0  0  0  0  0  0  0  0  0
    2.9470   60.7770   70.3480 C   0  0  0  0  0  0  0  0  0  0  0  0
    3.0230   60.4310   71.7140 C   0  0  0  0  0  0  0  0  0  0  0  0
    3.3330   58.8730   72.3730 S   0  0  0  0  0  0  0  0  0  0  0  0
    3.2670   59.4400   73.9840 C   0  0  0  0  0  0  0  0  0  0  0  0
    2.9810   60.7890   74.0220 C   0  0  0  0  0  0  0  0  0  0  0  0
    2.8460   61.3770   72.7200 C   0  0  0  0  0  0  0  0  0  0  0  0
    2.5700   62.7070   72.3360 C   0  0  0  0  0  0  0  0  0  0  0  0
    2.4710   63.0640   70.9810 C   0  0  0  0  0  0  0  0  0  0  0  0
    3.8700   62.9240   68.0650 C   0  0  0  0  0  0  0  0  0  0  0  0
    2.6490   62.5330   68.6790 O   0  0  0  0  0  0  0  0  0  0  0  0
    2.2120   64.4000   70.8020 O   0  0  0  0  0  0  0  0  0  0  0  0
    0.8410   64.7800   70.7710 C   0  0  0  0  0  0  0  0  0  0  0  0
    2.2940   57.8490   75.7010 C   0  0  0  0  0  0  0  0  0  0  0  0
    1.4130   58.6460   76.3300 C   0  0  0  0  0  0  0  0  0  0  0  0
    0.0970   58.1600   76.8330 C   0  0  0  0  0  0  0  0  0  0  0  0
   -0.3800   56.8810   76.1410 N   0  0  1  0  0  4  0  0  0  0  0  0
    0.7770   55.8650   76.1430 C   0  0  0  0  0  0  0  0  0  0  0  0
    2.0380   56.3940   75.4410 C   0  0  0  0  0  0  0  0  0  0  0  0
   -1.5340   56.2990   76.9540 C   0  0  0  0  0  0  0  0  0  0  0  0
   -0.8510   57.1400   74.6820 C   0  0  0  0  0  0  0  0  0  0  0  0
   -1.2250   58.5560   74.3220 C   0  0  0  0  0  0  0  0  0  0  0  0
   -2.4420   59.1120   74.7490 C   0  0  0  0  0  0  0  0  0  0  0  0
   -2.7770   60.4270   74.4180 C   0  0  0  0  0  0  0  0  0  0  0  0
   -1.9060   61.1960   73.6490 C   0  0  0  0  0  0  0  0  0  0  0  0
   -0.7050   60.6520   73.2020 C   0  0  0  0  0  0  0  0  0  0  0  0
   -0.3670   59.3380   73.5310 C   0  0  0  0  0  0  0  0  0  0  0  0
    3.0931   60.0090   69.5742 H   0  0  0  0  0  0  0  0  0  0  0  0
    2.8677   61.3572   74.9570 H   0  0  0  0  0  0  0  0  0  0  0  0
    2.4302   63.4760   73.1100 H   0  0  0  0  0  0  0  0  0  0  0  0
    4.6116   63.1615   68.8420 H   0  0  0  0  0  0  0  0  0  0  0  0
    4.2456   62.1012   67.4389 H   0  0  0  0  0  0  0  0  0  0  0  0
    3.6977   63.8119   67.4389 H   0  0  0  0  0  0  0  0  0  0  0  0
    0.4660   64.8839   71.7999 H   0  0  0  0  0  0  0  0  0  0  0  0
    0.7385   65.7404   70.2446 H   0  0  0  0  0  0  0  0  0  0  0  0
    0.2587   64.0094   70.2446 H   0  0  0  0  0  0  0  0  0  0  0  0
    1.6750   59.7037   76.4801 H   0  0  0  0  0  0  0  0  0  0  0  0
    0.1870   57.9610   77.9111 H   0  0  0  0  0  0  0  0  0  0  0  0
   -0.6442   58.9435   76.6169 H   0  0  0  0  0  0  0  0  0  0  0  0
    1.0307   55.6239   77.1858 H   0  0  0  0  0  0  0  0  0  0  0  0
    0.4381   54.9773   75.5887 H   0  0  0  0  0  0  0  0  0  0  0  0
    2.9043   55.8176   75.7978 H   0  0  0  0  0  0  0  0  0  0  0  0
    1.8816   56.2785   74.3583 H   0  0  0  0  0  0  0  0  0  0  0  0
   -1.3181   56.4079   78.0271 H   0  0  0  0  0  0  0  0  0  0  0  0
   -2.4621   56.8368   76.7103 H   0  0  0  0  0  0  0  0  0  0  0  0
   -1.6532   55.2330   76.7103 H   0  0  0  0  0  0  0  0  0  0  0  0
   -0.0357   56.8318   74.0109 H   0  0  0  0  0  0  0  0  0  0  0  0
   -1.7824   56.5642   74.5772 H   0  0  0  0  0  0  0  0  0  0  0  0
   -3.1373   58.5067   75.3492 H   0  0  0  0  0  0  0  0  0  0  0  0
   -3.7289   60.8557   74.7646 H   0  0  0  0  0  0  0  0  0  0  0  0
   -2.1675   62.2338   73.3949 H   0  0  0  0  0  0  0  0  0  0  0  0
   -0.0217   61.2581   72.5890 H   0  0  0  0  0  0  0  0  0  0  0  0
    0.5795   58.9113   73.1676 H   0  0  0  0  0  0  0  0  0  0  0  0
  2  1  2  0
  4  3  2  0
  5  4  1  0
  6  5  1  0
  7  6  1  0
  7  1  1  0
  8  7  2  0
  9  8  1  0
  9  5  2  0
 10  9  1  0
 11 10  2  0
 11  3  1  0
 13 12  1  0
 13  3  1  0
 14 11  1  0
 15 14  1  0
 16  1  1  0
 17 16  2  0
 18 17  1  0
 19 18  1  0
 20 19  1  0
 21 20  1  0
 21 16  1  0
 19 22  1  1
 23 19  1  0
 24 23  1  0
 25 24  2  0
 26 25  1  0
 27 26  2  0
 28 27  1  0
 29 28  2  0
 29 24  1  0
  4 30  1  0
  8 31  1  0
 10 32  1  0
 12 33  1  0
 12 34  1  0
 12 35  1  0
 15 36  1  0
 15 37  1  0
 15 38  1  0
 17 39  1  0
 18 40  1  0
 18 41  1  0
 20 42  1  0
 20 43  1  0
 21 44  1  0
 21 45  1  0
 22 46  1  0
 22 47  1  0
 22 48  1  0
 23 49  1  0
 23 50  1  0
 25 51  1  0
 26 52  1  0
 27 53  1  0
 28 54  1  0
 29 55  1  0
M  CHG  1  19   1
M  END
>  <score>  (4) 
-8.714

$$$$
=
     RDKit          3D

 55 58  0  0  0  0  0  0  0  0999 V2000
    3.3160   59.6850   71.2970 C   0  0  0  0  0  0  0  0  0  0  0  0
    3.9770   59.1390   70.4130 O   0  0  0  0  0  0  0  0  0  0  0  0
    1.2050   65.5480   70.4530 C   0  0  0  0  0  0  0  0  0  0  0  0
    2.1160   64.6270   69.9140 C   0  0  0  0  0  0  0  0  0  0  0  0
    2.2250   63.3390   70.4790 C   0  0  0  0  0  0  0  0  0  0  0  0
    3.2710   62.0700   69.9730 S   0  0  0  0  0  0  0  0  0  0  0  0
    2.7330   61.0130   71.2030 C   0  0  0  0  0  0  0  0  0  0  0  0
    1.7480   61.6030   71.9680 C   0  0  0  0  0  0  0  0  0  0  0  0
    1.4500   62.9490   71.5680 C   0  0  0  0  0  0  0  0  0  0  0  0
    0.5300   63.8820   72.0920 C   0  0  0  0  0  0  0  0  0  0  0  0
    0.3950   65.1610   71.5290 C   0  0  0  0  0  0  0  0  0  0  0  0
    0.5140   67.0430   68.7110 C   0  0  0  0  0  0  0  0  0  0  0  0
    1.0800   66.8350   69.9980 O   0  0  0  0  0  0  0  0  0  0  0  0
   -0.5370   65.9310   72.1790 O   0  0  0  0  0  0  0  0  0  0  0  0
   -0.5510   65.8440   73.5990 C   0  0  0  0  0  0  0  0  0  0  0  0
    3.1390   58.9160   72.5690 C   0  0  0  0  0  0  0  0  0  0  0  0
    4.0410   59.1160   73.5450 C   0  0  0  0  0  0  0  0  0  0  0  0
    3.8830   58.5660   74.9200 C   0  0  0  0  0  0  0  0  0  0  0  0
    2.4320   58.2270   75.2720 N   0  0  1  0  0  4  0  0  0  0  0  0
    1.8340   57.3940   74.1230 C   0  0  0  0  0  0  0  0  0  0  0  0
    1.8820   58.1220   72.7700 C   0  0  0  0  0  0  0  0  0  0  0  0
    2.4340   57.3710   76.5370 C   0  0  0  0  0  0  0  0  0  0  0  0
    1.5690   59.4980   75.5070 C   0  0  0  0  0  0  0  0  0  0  0  0
    0.0820   59.3680   75.2900 C   0  0  0  0  0  0  0  0  0  0  0  0
   -0.6870   58.4880   76.0690 C   0  0  0  0  0  0  0  0  0  0  0  0
   -2.0650   58.3800   75.8670 C   0  0  0  0  0  0  0  0  0  0  0  0
   -2.6870   59.1400   74.8800 C   0  0  0  0  0  0  0  0  0  0  0  0
   -1.9350   60.0020   74.0860 C   0  0  0  0  0  0  0  0  0  0  0  0
   -0.5570   60.1130   74.2850 C   0  0  0  0  0  0  0  0  0  0  0  0
    2.7425   64.9081   69.0546 H   0  0  0  0  0  0  0  0  0  0  0  0
    1.2418   61.0931   72.8009 H   0  0  0  0  0  0  0  0  0  0  0  0
   -0.0914   63.6026   72.9556 H   0  0  0  0  0  0  0  0  0  0  0  0
   -0.5135   67.4206   68.8190 H   0  0  0  0  0  0  0  0  0  0  0  0
    1.1185   67.7777   68.1590 H   0  0  0  0  0  0  0  0  0  0  0  0
    0.4989   66.0917   68.1590 H   0  0  0  0  0  0  0  0  0  0  0  0
   -0.3902   66.8435   74.0292 H   0  0  0  0  0  0  0  0  0  0  0  0
   -1.5236   65.4533   73.9328 H   0  0  0  0  0  0  0  0  0  0  0  0
    0.2499   65.1679   73.9328 H   0  0  0  0  0  0  0  0  0  0  0  0
    4.9366   59.7130   73.3180 H   0  0  0  0  0  0  0  0  0  0  0  0
    4.4855   57.6493   75.0010 H   0  0  0  0  0  0  0  0  0  0  0  0
    4.2163   59.3436   75.6230 H   0  0  0  0  0  0  0  0  0  0  0  0
    2.4015   56.4556   74.0372 H   0  0  0  0  0  0  0  0  0  0  0  0
    0.7761   57.2115   74.3628 H   0  0  0  0  0  0  0  0  0  0  0  0
    1.8097   57.3731   71.9675 H   0  0  0  0  0  0  0  0  0  0  0  0
    1.0414   58.8313   72.7510 H   0  0  0  0  0  0  0  0  0  0  0  0
    2.4325   58.0244   77.4219 H   0  0  0  0  0  0  0  0  0  0  0  0
    1.5373   56.7340   76.5501 H   0  0  0  0  0  0  0  0  0  0  0  0
    3.3336   56.7381   76.5501 H   0  0  0  0  0  0  0  0  0  0  0  0
    1.7254   59.8170   76.5480 H   0  0  0  0  0  0  0  0  0  0  0  0
    1.9063   60.2162   74.7451 H   0  0  0  0  0  0  0  0  0  0  0  0
   -0.2001   57.8787   76.8447 H   0  0  0  0  0  0  0  0  0  0  0  0
   -2.6593   57.6939   76.4883 H   0  0  0  0  0  0  0  0  0  0  0  0
   -3.7734   59.0594   74.7273 H   0  0  0  0  0  0  0  0  0  0  0  0
   -2.4266   60.5960   73.3014 H   0  0  0  0  0  0  0  0  0  0  0  0
    0.0330   60.7896   73.6493 H   0  0  0  0  0  0  0  0  0  0  0  0
  2  1  2  0
  4  3  2  0
  5  4  1  0
  6  5  1  0
  7  6  1  0
  7  1  1  0
  8  7  2  0
  9  8  1  0
  9  5  2  0
 10  9  1  0
 11 10  2  0
 11  3  1  0
 13 12  1  0
 13  3  1  0
 14 11  1  0
 15 14  1  0
 16  1  1  0
 17 16  2  0
 18 17  1  0
 19 18  1  0
 20 19  1  0
 21 20  1  0
 21 16  1  0
 19 22  1  1
 23 19  1  0
 24 23  1  0
 25 24  2  0
 26 25  1  0
 27 26  2  0
 28 27  1  0
 29 28  2  0
 29 24  1  0
  4 30  1  0
  8 31  1  0
 10 32  1  0
 12 33  1  0
 12 34  1  0
 12 35  1  0
 15 36  1  0
 15 37  1  0
 15 38  1  0
 17 39  1  0
 18 40  1  0
 18 41  1  0
 20 42  1  0
 20 43  1  0
 21 44  1  0
 21 45  1  0
 22 46  1  0
 22 47  1  0
 22 48  1  0
 23 49  1  0
 23 50  1  0
 25 51  1  0
 26 52  1  0
 27 53  1  0
 28 54  1  0
 29 55  1  0
M  CHG  1  19   1
M  END
>  <score>  (5) 
-8.296

$$$$
=
     RDKit          3D

 55 58  0  0  0  0  0  0  0  0999 V2000
    1.0410   61.6380   76.1010 C   0  0  0  0  0  0  0  0  0  0  0  0
    1.2460   62.1960   77.1790 O   0  0  0  0  0  0  0  0  0  0  0  0
    1.0710   64.6560   70.5850 C   0  0  0  0  0  0  0  0  0  0  0  0
    0.3640   64.6010   71.7960 C   0  0  0  0  0  0  0  0  0  0  0  0
    0.7800   63.7100   72.8080 C   0  0  0  0  0  0  0  0  0  0  0  0
    0.0580   63.4880   74.3530 S   0  0  0  0  0  0  0  0  0  0  0  0
    1.1690   62.2670   74.7980 C   0  0  0  0  0  0  0  0  0  0  0  0
    2.0960   62.0540   73.7990 C   0  0  0  0  0  0  0  0  0  0  0  0
    1.8800   62.8730   72.6400 C   0  0  0  0  0  0  0  0  0  0  0  0
    2.5880   62.9480   71.4210 C   0  0  0  0  0  0  0  0  0  0  0  0
    2.1990   63.8440   70.4120 C   0  0  0  0  0  0  0  0  0  0  0  0
    1.0700   66.8250   69.5610 C   0  0  0  0  0  0  0  0  0  0  0  0
    0.6990   65.4530   69.5330 O   0  0  0  0  0  0  0  0  0  0  0  0
    2.9970   63.7650   69.2970 O   0  0  0  0  0  0  0  0  0  0  0  0
    3.6940   62.5400   69.1030 C   0  0  0  0  0  0  0  0  0  0  0  0
    0.5950   60.2100   76.1630 C   0  0  0  0  0  0  0  0  0  0  0  0
    0.0830   59.6710   75.0430 C   0  0  0  0  0  0  0  0  0  0  0  0
   -0.2220   58.2190   74.9090 C   0  0  0  0  0  0  0  0  0  0  0  0
    0.5530   57.3450   75.8980 N   0  0  1  0  0  4  0  0  0  0  0  0
    0.4060   57.9530   77.3050 C   0  0  0  0  0  0  0  0  0  0  0  0
    0.9140   59.4010   77.3860 C   0  0  0  0  0  0  0  0  0  0  0  0
   -0.0790   55.9550   75.9050 C   0  0  0  0  0  0  0  0  0  0  0  0
    2.0580   57.2280   75.5290 C   0  0  0  0  0  0  0  0  0  0  0  0
    2.4590   57.6450   74.1360 C   0  0  0  0  0  0  0  0  0  0  0  0
    1.9450   56.9820   73.0080 C   0  0  0  0  0  0  0  0  0  0  0  0
    2.3150   57.3800   71.7220 C   0  0  0  0  0  0  0  0  0  0  0  0
    3.2080   58.4340   71.5460 C   0  0  0  0  0  0  0  0  0  0  0  0
    3.7410   59.0870   72.6550 C   0  0  0  0  0  0  0  0  0  0  0  0
    3.3730   58.6930   73.9420 C   0  0  0  0  0  0  0  0  0  0  0  0
   -0.5102   65.2493   71.9555 H   0  0  0  0  0  0  0  0  0  0  0  0
    2.9189   61.3287   73.8822 H   0  0  0  0  0  0  0  0  0  0  0  0
    3.4579   62.2945   71.2590 H   0  0  0  0  0  0  0  0  0  0  0  0
    1.1604   67.1592   70.6051 H   0  0  0  0  0  0  0  0  0  0  0  0
    2.0354   66.9543   69.0498 H   0  0  0  0  0  0  0  0  0  0  0  0
    0.3014   67.4232   69.0498 H   0  0  0  0  0  0  0  0  0  0  0  0
    3.9436   62.1014   70.0804 H   0  0  0  0  0  0  0  0  0  0  0  0
    3.0580   61.8416   68.5393 H   0  0  0  0  0  0  0  0  0  0  0  0
    4.6193   62.7299   68.5393 H   0  0  0  0  0  0  0  0  0  0  0  0
   -0.1198   60.3316   74.1872 H   0  0  0  0  0  0  0  0  0  0  0  0
   -1.2983   58.0708   75.0808 H   0  0  0  0  0  0  0  0  0  0  0  0
    0.0814   57.9139   73.8966 H   0  0  0  0  0  0  0  0  0  0  0  0
   -0.6578   57.9379   77.5846 H   0  0  0  0  0  0  0  0  0  0  0  0
    1.0179   57.3493   77.9914 H   0  0  0  0  0  0  0  0  0  0  0  0
    0.4491   59.8862   78.2569 H   0  0  0  0  0  0  0  0  0  0  0  0
    2.0098   59.3581   77.4722 H   0  0  0  0  0  0  0  0  0  0  0  0
   -0.2288   55.6256   76.9438 H   0  0  0  0  0  0  0  0  0  0  0  0
   -1.0493   55.9908   75.3881 H   0  0  0  0  0  0  0  0  0  0  0  0
    0.5859   55.2473   75.3881 H   0  0  0  0  0  0  0  0  0  0  0  0
    2.6222   57.8527   76.2371 H   0  0  0  0  0  0  0  0  0  0  0  0
    2.2800   56.1518   75.5786 H   0  0  0  0  0  0  0  0  0  0  0  0
    1.2458   56.1431   73.1396 H   0  0  0  0  0  0  0  0  0  0  0  0
    1.9003   56.8599   70.8459 H   0  0  0  0  0  0  0  0  0  0  0  0
    3.4923   58.7507   70.5317 H   0  0  0  0  0  0  0  0  0  0  0  0
    4.4527   59.9141   72.5160 H   0  0  0  0  0  0  0  0  0  0  0  0
    3.8032   59.2086   74.8132 H   0  0  0  0  0  0  0  0  0  0  0  0
  2  1  2  0
  4  3  2  0
  5  4  1  0
  6  5  1  0
  7  6  1  0
  7  1  1  0
  8  7  2  0
  9  8  1  0
  9  5  2  0
 10  9  1  0
 11 10  2  0
 11  3  1  0
 13 12  1  0
 13  3  1  0
 14 11  1  0
 15 14  1  0
 16  1  1  0
 17 16  2  0
 18 17  1  0
 19 18  1  0
 20 19  1  0
 21 20  1  0
 21 16  1  0
 19 22  1  1
 23 19  1  0
 24 23  1  0
 25 24  2  0
 26 25  1  0
 27 26  2  0
 28 27  1  0
 29 28  2  0
 29 24  1  0
  4 30  1  0
  8 31  1  0
 10 32  1  0
 12 33  1  0
 12 34  1  0
 12 35  1  0
 15 36  1  0
 15 37  1  0
 15 38  1  0
 17 39  1  0
 18 40  1  0
 18 41  1  0
 20 42  1  0
 20 43  1  0
 21 44  1  0
 21 45  1  0
 22 46  1  0
 22 47  1  0
 22 48  1  0
 23 49  1  0
 23 50  1  0
 25 51  1  0
 26 52  1  0
 27 53  1  0
 28 54  1  0
 29 55  1  0
M  CHG  1  19   1
M  END
>  <score>  (6) 
-8.193

$$$$
=
     RDKit          3D

 55 58  0  0  0  0  0  0  0  0999 V2000
    1.0140   58.1870   74.6040 C   0  0  0  0  0  0  0  0  0  0  0  0
    1.1330   57.0460   75.0500 O   0  0  0  0  0  0  0  0  0  0  0  0
   -3.6690   62.2270   75.7410 C   0  0  0  0  0  0  0  0  0  0  0  0
   -2.2910   62.0630   75.9570 C   0  0  0  0  0  0  0  0  0  0  0  0
   -1.6390   60.9140   75.4610 C   0  0  0  0  0  0  0  0  0  0  0  0
    0.0290   60.5210   75.6150 S   0  0  0  0  0  0  0  0  0  0  0  0
   -0.1500   59.0370   74.7870 C   0  0  0  0  0  0  0  0  0  0  0  0
   -1.4530   58.8560   74.3700 C   0  0  0  0  0  0  0  0  0  0  0  0
   -2.3260   59.9270   74.7590 C   0  0  0  0  0  0  0  0  0  0  0  0
   -3.7080   60.1120   74.5400 C   0  0  0  0  0  0  0  0  0  0  0  0
   -4.3690   61.2590   75.0100 C   0  0  0  0  0  0  0  0  0  0  0  0
   -3.6710   64.3950   76.7670 C   0  0  0  0  0  0  0  0  0  0  0  0
   -4.3850   63.2850   76.2370 O   0  0  0  0  0  0  0  0  0  0  0  0
   -5.7090   61.2580   74.7140 O   0  0  0  0  0  0  0  0  0  0  0  0
   -6.2980   59.9890   74.4520 C   0  0  0  0  0  0  0  0  0  0  0  0
    2.1550   58.7060   73.7860 C   0  0  0  0  0  0  0  0  0  0  0  0
    1.9090   59.0070   72.4990 C   0  0  0  0  0  0  0  0  0  0  0  0
    2.8950   59.7050   71.6270 C   0  0  0  0  0  0  0  0  0  0  0  0
    3.9450   60.4930   72.4130 N   0  0  1  0  0  4  0  0  0  0  0  0
    4.5210   59.5790   73.5100 C   0  0  0  0  0  0  0  0  0  0  0  0
    3.4450   59.0490   74.4720 C   0  0  0  0  0  0  0  0  0  0  0  0
    5.0750   60.8690   71.4570 C   0  0  0  0  0  0  0  0  0  0  0  0
    3.3580   61.7810   73.0550 C   0  0  0  0  0  0  0  0  0  0  0  0
    2.3570   62.5610   72.2400 C   0  0  0  0  0  0  0  0  0  0  0  0
    0.9790   62.4550   72.4950 C   0  0  0  0  0  0  0  0  0  0  0  0
    0.0600   63.1870   71.7410 C   0  0  0  0  0  0  0  0  0  0  0  0
    0.5030   64.0220   70.7180 C   0  0  0  0  0  0  0  0  0  0  0  0
    1.8640   64.1220   70.4410 C   0  0  0  0  0  0  0  0  0  0  0  0
    2.7860   63.3920   71.1930 C   0  0  0  0  0  0  0  0  0  0  0  0
   -1.7231   62.8259   76.5097 H   0  0  0  0  0  0  0  0  0  0  0  0
   -1.7889   57.9791   73.7971 H   0  0  0  0  0  0  0  0  0  0  0  0
   -4.2766   59.3458   73.9926 H   0  0  0  0  0  0  0  0  0  0  0  0
   -3.6960   64.3561   77.8660 H   0  0  0  0  0  0  0  0  0  0  0  0
   -2.6270   64.3578   76.4224 H   0  0  0  0  0  0  0  0  0  0  0  0
   -4.1378   65.3296   76.4224 H   0  0  0  0  0  0  0  0  0  0  0  0
   -6.5301   59.4889   75.4039 H   0  0  0  0  0  0  0  0  0  0  0  0
   -7.2242   60.1268   73.8748 H   0  0  0  0  0  0  0  0  0  0  0  0
   -5.5949   59.3705   73.8748 H   0  0  0  0  0  0  0  0  0  0  0  0
    0.9359   58.7252   72.0705 H   0  0  0  0  0  0  0  0  0  0  0  0
    3.4108   58.9532   71.0115 H   0  0  0  0  0  0  0  0  0  0  0  0
    2.3353   60.4276   71.0150 H   0  0  0  0  0  0  0  0  0  0  0  0
    5.0151   58.7219   73.0292 H   0  0  0  0  0  0  0  0  0  0  0  0
    5.2275   60.1788   74.1025 H   0  0  0  0  0  0  0  0  0  0  0  0
    3.8309   58.1438   74.9635 H   0  0  0  0  0  0  0  0  0  0  0  0
    3.2283   59.8507   75.1933 H   0  0  0  0  0  0  0  0  0  0  0  0
    5.9623   61.1642   72.0362 H   0  0  0  0  0  0  0  0  0  0  0  0
    5.3219   60.0046   70.8231 H   0  0  0  0  0  0  0  0  0  0  0  0
    4.7547   61.7090   70.8231 H   0  0  0  0  0  0  0  0  0  0  0  0
    2.8646   61.4880   73.9935 H   0  0  0  0  0  0  0  0  0  0  0  0
    4.2176   62.4572   73.1723 H   0  0  0  0  0  0  0  0  0  0  0  0
    0.6217   61.7900   73.2951 H   0  0  0  0  0  0  0  0  0  0  0  0
   -1.0158   63.1042   71.9552 H   0  0  0  0  0  0  0  0  0  0  0  0
   -0.2223   64.6025   70.1289 H   0  0  0  0  0  0  0  0  0  0  0  0
    2.2129   64.7768   69.6289 H   0  0  0  0  0  0  0  0  0  0  0  0
    3.8590   63.4686   70.9630 H   0  0  0  0  0  0  0  0  0  0  0  0
  2  1  2  0
  4  3  2  0
  5  4  1  0
  6  5  1  0
  7  6  1  0
  7  1  1  0
  8  7  2  0
  9  8  1  0
  9  5  2  0
 10  9  1  0
 11 10  2  0
 11  3  1  0
 13 12  1  0
 13  3  1  0
 14 11  1  0
 15 14  1  0
 16  1  1  0
 17 16  2  0
 18 17  1  0
 19 18  1  0
 20 19  1  0
 21 20  1  0
 21 16  1  0
 19 22  1  6
 23 19  1  0
 24 23  1  0
 25 24  2  0
 26 25  1  0
 27 26  2  0
 28 27  1  0
 29 28  2  0
 29 24  1  0
  4 30  1  0
  8 31  1  0
 10 32  1  0
 12 33  1  0
 12 34  1  0
 12 35  1  0
 15 36  1  0
 15 37  1  0
 15 38  1  0
 17 39  1  0
 18 40  1  0
 18 41  1  0
 20 42  1  0
 20 43  1  0
 21 44  1  0
 21 45  1  0
 22 46  1  0
 22 47  1  0
 22 48  1  0
 23 49  1  0
 23 50  1  0
 25 51  1  0
 26 52  1  0
 27 53  1  0
 28 54  1  0
 29 55  1  0
M  CHG  1  19   1
M  END
>  <score>  (7) 
-8.12

$$$$
=
     RDKit          3D

 55 58  0  0  0  0  0  0  0  0999 V2000
    1.9560   58.3640   72.7750 C   0  0  0  0  0  0  0  0  0  0  0  0
    2.6590   58.3440   71.7640 O   0  0  0  0  0  0  0  0  0  0  0  0
    0.5870   53.4290   76.4220 C   0  0  0  0  0  0  0  0  0  0  0  0
    1.4070   54.5680   76.3870 C   0  0  0  0  0  0  0  0  0  0  0  0
    1.3390   55.4450   75.2840 C   0  0  0  0  0  0  0  0  0  0  0  0
    2.2500   56.8840   75.0470 S   0  0  0  0  0  0  0  0  0  0  0  0
    1.5380   57.1920   73.5240 C   0  0  0  0  0  0  0  0  0  0  0  0
    0.5960   56.2330   73.2140 C   0  0  0  0  0  0  0  0  0  0  0  0
    0.4760   55.2120   74.2160 C   0  0  0  0  0  0  0  0  0  0  0  0
   -0.3510   54.0700   74.2710 C   0  0  0  0  0  0  0  0  0  0  0  0
   -0.3090   53.1980   75.3710 C   0  0  0  0  0  0  0  0  0  0  0  0
   -0.1760   52.7110   78.5790 C   0  0  0  0  0  0  0  0  0  0  0  0
    0.6330   52.5010   77.4290 O   0  0  0  0  0  0  0  0  0  0  0  0
   -1.1730   52.1380   75.2410 O   0  0  0  0  0  0  0  0  0  0  0  0
   -2.5390   52.3930   75.5470 C   0  0  0  0  0  0  0  0  0  0  0  0
    1.4810   59.7100   73.2300 C   0  0  0  0  0  0  0  0  0  0  0  0
    2.4120   60.6570   73.4380 C   0  0  0  0  0  0  0  0  0  0  0  0
    2.0710   62.0830   73.7060 C   0  0  0  0  0  0  0  0  0  0  0  0
    0.6730   62.4720   73.2190 N   0  0  1  0  0  4  0  0  0  0  0  0
   -0.3290   61.4170   73.7230 C   0  0  0  0  0  0  0  0  0  0  0  0
    0.0090   59.9960   73.2440 C   0  0  0  0  0  0  0  0  0  0  0  0
    0.3080   63.8180   73.8410 C   0  0  0  0  0  0  0  0  0  0  0  0
    0.5950   62.5760   71.6710 C   0  0  0  0  0  0  0  0  0  0  0  0
    1.9020   62.6540   70.9200 C   0  0  0  0  0  0  0  0  0  0  0  0
    2.3130   61.6090   70.0760 C   0  0  0  0  0  0  0  0  0  0  0  0
    3.5200   61.6930   69.3790 C   0  0  0  0  0  0  0  0  0  0  0  0
    4.3340   62.8140   69.5250 C   0  0  0  0  0  0  0  0  0  0  0  0
    3.9490   63.8490   70.3740 C   0  0  0  0  0  0  0  0  0  0  0  0
    2.7430   63.7680   71.0720 C   0  0  0  0  0  0  0  0  0  0  0  0
    2.0995   54.7757   77.2160 H   0  0  0  0  0  0  0  0  0  0  0  0
   -0.0031   56.2491   72.2916 H   0  0  0  0  0  0  0  0  0  0  0  0
   -1.0394   53.8595   73.4392 H   0  0  0  0  0  0  0  0  0  0  0  0
    0.4274   52.5544   79.4853 H   0  0  0  0  0  0  0  0  0  0  0  0
   -0.5650   53.7399   78.5707 H   0  0  0  0  0  0  0  0  0  0  0  0
   -1.0163   52.0012   78.5707 H   0  0  0  0  0  0  0  0  0  0  0  0
   -2.6718   52.4178   76.6387 H   0  0  0  0  0  0  0  0  0  0  0  0
   -2.8358   53.3621   75.1194 H   0  0  0  0  0  0  0  0  0  0  0  0
   -3.1654   51.5963   75.1194 H   0  0  0  0  0  0  0  0  0  0  0  0
    3.4726   60.3667   73.4091 H   0  0  0  0  0  0  0  0  0  0  0  0
    2.1239   62.2569   74.7909 H   0  0  0  0  0  0  0  0  0  0  0  0
    2.7931   62.7008   73.1520 H   0  0  0  0  0  0  0  0  0  0  0  0
   -0.3259   61.4269   74.8230 H   0  0  0  0  0  0  0  0  0  0  0  0
   -1.3167   61.6774   73.3147 H   0  0  0  0  0  0  0  0  0  0  0  0
   -0.4805   59.2753   73.9156 H   0  0  0  0  0  0  0  0  0  0  0  0
   -0.3504   59.9069   72.2082 H   0  0  0  0  0  0  0  0  0  0  0  0
    0.3309   63.7335   74.9375 H   0  0  0  0  0  0  0  0  0  0  0  0
    1.0319   64.5801   73.5168 H   0  0  0  0  0  0  0  0  0  0  0  0
   -0.7018   64.1100   73.5168 H   0  0  0  0  0  0  0  0  0  0  0  0
    0.0557   61.6894   71.3062 H   0  0  0  0  0  0  0  0  0  0  0  0
    0.0967   63.5370   71.4753 H   0  0  0  0  0  0  0  0  0  0  0  0
    1.6788   60.7173   69.9633 H   0  0  0  0  0  0  0  0  0  0  0  0
    3.8285   60.8730   68.7138 H   0  0  0  0  0  0  0  0  0  0  0  0
    5.2811   62.8819   68.9697 H   0  0  0  0  0  0  0  0  0  0  0  0
    4.5957   64.7306   70.4944 H   0  0  0  0  0  0  0  0  0  0  0  0
    2.4486   64.5847   71.7476 H   0  0  0  0  0  0  0  0  0  0  0  0
  2  1  2  0
  4  3  2  0
  5  4  1  0
  6  5  1  0
  7  6  1  0
  7  1  1  0
  8  7  2  0
  9  8  1  0
  9  5  2  0
 10  9  1  0
 11 10  2  0
 11  3  1  0
 13 12  1  0
 13  3  1  0
 14 11  1  0
 15 14  1  0
 16  1  1  0
 17 16  2  0
 18 17  1  0
 19 18  1  0
 20 19  1  0
 21 20  1  0
 21 16  1  0
 19 22  1  1
 23 19  1  0
 24 23  1  0
 25 24  2  0
 26 25  1  0
 27 26  2  0
 28 27  1  0
 29 28  2  0
 29 24  1  0
  4 30  1  0
  8 31  1  0
 10 32  1  0
 12 33  1  0
 12 34  1  0
 12 35  1  0
 15 36  1  0
 15 37  1  0
 15 38  1  0
 17 39  1  0
 18 40  1  0
 18 41  1  0
 20 42  1  0
 20 43  1  0
 21 44  1  0
 21 45  1  0
 22 46  1  0
 22 47  1  0
 22 48  1  0
 23 49  1  0
 23 50  1  0
 25 51  1  0
 26 52  1  0
 27 53  1  0
 28 54  1  0
 29 55  1  0
M  CHG  1  19   1
M  END
>  <score>  (8) 
-8.08

$$$$
=
     RDKit          3D

 55 58  0  0  0  0  0  0  0  0999 V2000
    0.5330   63.3970   72.1320 C   0  0  0  0  0  0  0  0  0  0  0  0
    0.1850   64.4430   71.5830 O   0  0  0  0  0  0  0  0  0  0  0  0
   -2.6980   60.4720   76.6640 C   0  0  0  0  0  0  0  0  0  0  0  0
   -1.8140   61.5450   76.4710 C   0  0  0  0  0  0  0  0  0  0  0  0
   -1.3430   61.8380   75.1740 C   0  0  0  0  0  0  0  0  0  0  0  0
   -0.2630   63.0990   74.7230 S   0  0  0  0  0  0  0  0  0  0  0  0
   -0.2730   62.6430   73.0760 C   0  0  0  0  0  0  0  0  0  0  0  0
   -1.1110   61.5680   72.8650 C   0  0  0  0  0  0  0  0  0  0  0  0
   -1.7290   61.0860   74.0670 C   0  0  0  0  0  0  0  0  0  0  0  0
   -2.6280   60.0180   74.2750 C   0  0  0  0  0  0  0  0  0  0  0  0
   -3.1210   59.7250   75.5570 C   0  0  0  0  0  0  0  0  0  0  0  0
   -3.9330   61.0140   78.6460 C   0  0  0  0  0  0  0  0  0  0  0  0
   -3.1560   60.0890   77.8980 O   0  0  0  0  0  0  0  0  0  0  0  0
   -3.9700   58.6460   75.5650 O   0  0  0  0  0  0  0  0  0  0  0  0
   -5.2370   58.8330   74.9440 C   0  0  0  0  0  0  0  0  0  0  0  0
    1.9080   62.9000   71.8090 C   0  0  0  0  0  0  0  0  0  0  0  0
    2.7010   62.5620   72.8400 C   0  0  0  0  0  0  0  0  0  0  0  0
    4.0140   61.8790   72.6620 C   0  0  0  0  0  0  0  0  0  0  0  0
    4.1370   61.1460   71.3240 N   0  0  1  0  0  4  0  0  0  0  0  0
    3.7010   62.1060   70.2010 C   0  0  0  0  0  0  0  0  0  0  0  0
    2.2630   62.6200   70.3790 C   0  0  0  0  0  0  0  0  0  0  0  0
    5.6060   60.7890   71.1080 C   0  0  0  0  0  0  0  0  0  0  0  0
    3.2750   59.8540   71.2760 C   0  0  0  0  0  0  0  0  0  0  0  0
    2.8040   59.2940   72.5950 C   0  0  0  0  0  0  0  0  0  0  0  0
    3.7230   58.8880   73.5770 C   0  0  0  0  0  0  0  0  0  0  0  0
    3.2780   58.3780   74.7990 C   0  0  0  0  0  0  0  0  0  0  0  0
    1.9130   58.2580   75.0490 C   0  0  0  0  0  0  0  0  0  0  0  0
    0.9900   58.6380   74.0780 C   0  0  0  0  0  0  0  0  0  0  0  0
    1.4320   59.1480   72.8560 C   0  0  0  0  0  0  0  0  0  0  0  0
   -1.4899   62.1547   77.3273 H   0  0  0  0  0  0  0  0  0  0  0  0
   -1.2879   61.1244   71.8741 H   0  0  0  0  0  0  0  0  0  0  0  0
   -2.9477   59.4053   73.4192 H   0  0  0  0  0  0  0  0  0  0  0  0
   -3.7823   60.8347   79.7208 H   0  0  0  0  0  0  0  0  0  0  0  0
   -3.6214   62.0394   78.3982 H   0  0  0  0  0  0  0  0  0  0  0  0
   -4.9968   60.8841   78.3982 H   0  0  0  0  0  0  0  0  0  0  0  0
   -6.0110   58.9472   75.7172 H   0  0  0  0  0  0  0  0  0  0  0  0
   -5.2084   59.7367   74.3174 H   0  0  0  0  0  0  0  0  0  0  0  0
   -5.4707   57.9596   74.3174 H   0  0  0  0  0  0  0  0  0  0  0  0
    2.3664   62.7999   73.8605 H   0  0  0  0  0  0  0  0  0  0  0  0
    4.8116   62.6342   72.7213 H   0  0  0  0  0  0  0  0  0  0  0  0
    4.0995   61.1237   73.4571 H   0  0  0  0  0  0  0  0  0  0  0  0
    4.3836   62.9686   70.1917 H   0  0  0  0  0  0  0  0  0  0  0  0
    3.7369   61.5458   69.2550 H   0  0  0  0  0  0  0  0  0  0  0  0
    2.1503   63.5499   69.8024 H   0  0  0  0  0  0  0  0  0  0  0  0
    1.5868   61.8286   70.0234 H   0  0  0  0  0  0  0  0  0  0  0  0
    6.1013   60.6686   72.0828 H   0  0  0  0  0  0  0  0  0  0  0  0
    5.6753   59.8479   70.5428 H   0  0  0  0  0  0  0  0  0  0  0  0
    6.0995   61.5933   70.5428 H   0  0  0  0  0  0  0  0  0  0  0  0
    2.3827   60.0730   70.6712 H   0  0  0  0  0  0  0  0  0  0  0  0
    3.9402   59.0829   70.8602 H   0  0  0  0  0  0  0  0  0  0  0  0
    4.8023   58.9724   73.3819 H   0  0  0  0  0  0  0  0  0  0  0  0
    4.0060   58.0710   75.5643 H   0  0  0  0  0  0  0  0  0  0  0  0
    1.5638   57.8627   76.0143 H   0  0  0  0  0  0  0  0  0  0  0  0
   -0.0876   58.5363   74.2739 H   0  0  0  0  0  0  0  0  0  0  0  0
    0.6981   59.4384   72.0898 H   0  0  0  0  0  0  0  0  0  0  0  0
  2  1  2  0
  4  3  2  0
  5  4  1  0
  6  5  1  0
  7  6  1  0
  7  1  1  0
  8  7  2  0
  9  8  1  0
  9  5  2  0
 10  9  1  0
 11 10  2  0
 11  3  1  0
 13 12  1  0
 13  3  1  0
 14 11  1  0
 15 14  1  0
 16  1  1  0
 17 16  2  0
 18 17  1  0
 19 18  1  0
 20 19  1  0
 21 20  1  0
 21 16  1  0
 19 22  1  6
 23 19  1  0
 24 23  1  0
 25 24  2  0
 26 25  1  0
 27 26  2  0
 28 27  1  0
 29 28  2  0
 29 24  1  0
  4 30  1  0
  8 31  1  0
 10 32  1  0
 12 33  1  0
 12 34  1  0
 12 35  1  0
 15 36  1  0
 15 37  1  0
 15 38  1  0
 17 39  1  0
 18 40  1  0
 18 41  1  0
 20 42  1  0
 20 43  1  0
 21 44  1  0
 21 45  1  0
 22 46  1  0
 22 47  1  0
 22 48  1  0
 23 49  1  0
 23 50  1  0
 25 51  1  0
 26 52  1  0
 27 53  1  0
 28 54  1  0
 29 55  1  0
M  CHG  1  19   1
M  END
>  <score>  (9) 
-7.877

$$$$
