=
     RDKit          3D

 52 53  0  0  0  0  0  0  0  0999 V2000
    1.3040   68.9720   67.5280 C   0  0  0  0  0  0  0  0  0  0  0  0
    2.6790   69.3720   67.3400 N   0  0  0  0  0  0  0  0  0  0  0  0
    3.3920   69.3240   66.1280 C   0  0  0  0  0  0  0  0  0  0  0  0
    2.9720   68.8820   64.8870 C   0  0  0  0  0  0  0  0  0  0  0  0
    3.8840   68.9400   63.8240 C   0  0  0  0  0  0  0  0  0  0  0  0
    5.1900   69.4320   64.0110 C   0  0  0  0  0  0  0  0  0  0  0  0
    5.6090   69.8760   65.2640 C   0  0  0  0  0  0  0  0  0  0  0  0
    4.6890   69.8070   66.2930 C   0  0  0  0  0  0  0  0  0  0  0  0
    4.8370   70.1980   67.6950 C   0  0  0  0  0  0  0  0  0  0  0  0
    5.8220   70.6630   68.2220 O   0  0  0  0  0  0  0  0  0  0  0  0
    3.4700   69.8950   68.3550 C   0  0  0  0  0  0  0  0  0  0  0  0
    3.1950   70.0920   69.5190 O   0  0  0  0  0  0  0  0  0  0  0  0
    1.1370   67.4660   67.7610 C   0  0  0  0  0  0  0  0  0  0  0  0
    0.6610   67.1260   69.1730 C   0  0  0  0  0  0  0  0  0  0  0  0
    1.5330   66.0910   69.8950 C   0  0  0  0  0  0  0  0  0  0  0  0
    0.7470   64.9910   70.6170 C   0  0  0  0  0  0  0  0  0  0  0  0
    1.5530   63.6980   70.7830 C   0  0  0  0  0  0  0  0  0  0  0  0
    3.0520   63.8810   70.5310 C   0  0  0  0  0  0  0  0  0  0  0  0
    3.5680   63.1090   69.3130 C   0  0  0  0  0  0  0  0  0  0  0  0
    2.9560   61.7080   69.2480 C   0  0  0  0  0  0  0  0  0  0  0  0
    3.9670   60.5890   69.5150 C   0  0  0  0  0  0  0  0  0  0  0  0
    5.6280   60.9580   71.3720 C   0  0  0  0  0  0  0  0  0  0  0  0
    4.2690   60.3830   70.9990 C   0  0  0  0  0  0  0  0  0  0  0  0
    0.9009   69.5071   68.4005 H   0  0  0  0  0  0  0  0  0  0  0  0
    0.7630   69.2205   66.6030 H   0  0  0  0  0  0  0  0  0  0  0  0
    1.9526   68.4963   64.7383 H   0  0  0  0  0  0  0  0  0  0  0  0
    3.5740   68.5952   62.8265 H   0  0  0  0  0  0  0  0  0  0  0  0
    5.8862   69.4663   63.1601 H   0  0  0  0  0  0  0  0  0  0  0  0
    6.6255   70.2636   65.4264 H   0  0  0  0  0  0  0  0  0  0  0  0
    0.4003   67.0801   67.0410 H   0  0  0  0  0  0  0  0  0  0  0  0
    2.1256   67.0023   67.6280 H   0  0  0  0  0  0  0  0  0  0  0  0
    0.6577   68.0508   69.7686 H   0  0  0  0  0  0  0  0  0  0  0  0
   -0.3405   66.6824   69.0722 H   0  0  0  0  0  0  0  0  0  0  0  0
    2.1873   65.6137   69.1506 H   0  0  0  0  0  0  0  0  0  0  0  0
    2.0905   66.6374   70.6700 H   0  0  0  0  0  0  0  0  0  0  0  0
    0.4627   65.3586   71.6140 H   0  0  0  0  0  0  0  0  0  0  0  0
   -0.1346   64.7557   70.0027 H   0  0  0  0  0  0  0  0  0  0  0  0
    1.4142   63.3298   71.8102 H   0  0  0  0  0  0  0  0  0  0  0  0
    1.1817   62.9845   70.0326 H   0  0  0  0  0  0  0  0  0  0  0  0
    3.2500   64.9515   70.3736 H   0  0  0  0  0  0  0  0  0  0  0  0
    3.5779   63.4832   71.4114 H   0  0  0  0  0  0  0  0  0  0  0  0
    3.3013   63.6601   68.3991 H   0  0  0  0  0  0  0  0  0  0  0  0
    4.6600   63.0092   69.4000 H   0  0  0  0  0  0  0  0  0  0  0  0
    2.1561   61.6418   70.0002 H   0  0  0  0  0  0  0  0  0  0  0  0
    2.5778   61.5663   68.2248 H   0  0  0  0  0  0  0  0  0  0  0  0
    3.5631   59.6502   69.1081 H   0  0  0  0  0  0  0  0  0  0  0  0
    4.9099   60.8817   69.0300 H   0  0  0  0  0  0  0  0  0  0  0  0
    5.7213   60.9975   72.4673 H   0  0  0  0  0  0  0  0  0  0  0  0
    6.4224   60.3189   70.9591 H   0  0  0  0  0  0  0  0  0  0  0  0
    5.7224   61.9732   70.9591 H   0  0  0  0  0  0  0  0  0  0  0  0
    3.4922   60.8836   71.5956 H   0  0  0  0  0  0  0  0  0  0  0  0
    4.2812   59.3023   71.2040 H   0  0  0  0  0  0  0  0  0  0  0  0
  2  1  1  0
  3  2  1  0
  4  3  2  0
  5  4  1  0
  6  5  2  0
  7  6  1  0
  8  3  1  0
  8  7  2  0
  9  8  1  0
 10  9  2  0
 11  9  1  0
 11  2  1  0
 12 11  2  0
 13  1  1  0
 14 13  1  0
 15 14  1  0
 16 15  1  0
 17 16  1  0
 18 17  1  0
 19 18  1  0
 20 19  1  0
 21 20  1  0
 23 21  1  0
 23 22  1  0
  1 24  1  0
  1 25  1  0
  4 26  1  0
  5 27  1  0
  6 28  1  0
  7 29  1  0
 13 30  1  0
 13 31  1  0
 14 32  1  0
 14 33  1  0
 15 34  1  0
 15 35  1  0
 16 36  1  0
 16 37  1  0
 17 38  1  0
 17 39  1  0
 18 40  1  0
 18 41  1  0
 19 42  1  0
 19 43  1  0
 20 44  1  0
 20 45  1  0
 21 46  1  0
 21 47  1  0
 22 48  1  0
 22 49  1  0
 22 50  1  0
 23 51  1  0
 23 52  1  0
M  END
>  <score>  (1) 
-8.909

$$$$
=
     RDKit          3D

 52 53  0  0  0  0  0  0  0  0999 V2000
    1.0560   68.9490   67.6180 C   0  0  0  0  0  0  0  0  0  0  0  0
    2.3390   69.2260   67.0150 N   0  0  0  0  0  0  0  0  0  0  0  0
    3.4640   69.7510   67.6770 C   0  0  0  0  0  0  0  0  0  0  0  0
    3.5980   70.1310   68.9990 C   0  0  0  0  0  0  0  0  0  0  0  0
    4.8400   70.6300   69.4190 C   0  0  0  0  0  0  0  0  0  0  0  0
    5.9200   70.7420   68.5220 C   0  0  0  0  0  0  0  0  0  0  0  0
    5.7790   70.3580   67.1890 C   0  0  0  0  0  0  0  0  0  0  0  0
    4.5450   69.8700   66.8040 C   0  0  0  0  0  0  0  0  0  0  0  0
    4.1060   69.3940   65.4930 C   0  0  0  0  0  0  0  0  0  0  0  0
    4.7640   69.3420   64.4790 O   0  0  0  0  0  0  0  0  0  0  0  0
    2.6290   68.9690   65.6810 C   0  0  0  0  0  0  0  0  0  0  0  0
    1.9160   68.5110   64.8140 O   0  0  0  0  0  0  0  0  0  0  0  0
    0.8850   67.4810   68.0260 C   0  0  0  0  0  0  0  0  0  0  0  0
    1.2540   67.2160   69.4860 C   0  0  0  0  0  0  0  0  0  0  0  0
    0.4030   66.1310   70.1590 C   0  0  0  0  0  0  0  0  0  0  0  0
    1.1740   64.8580   70.5270 C   0  0  0  0  0  0  0  0  0  0  0  0
    0.4720   64.0310   71.6090 C   0  0  0  0  0  0  0  0  0  0  0  0
    1.4190   63.0990   72.3700 C   0  0  0  0  0  0  0  0  0  0  0  0
    1.4580   61.6740   71.8100 C   0  0  0  0  0  0  0  0  0  0  0  0
    2.8890   61.2570   71.4620 C   0  0  0  0  0  0  0  0  0  0  0  0
    3.1480   61.1690   69.9550 C   0  0  0  0  0  0  0  0  0  0  0  0
    4.5280   63.2490   70.2950 C   0  0  0  0  0  0  0  0  0  0  0  0
    3.6200   62.4870   69.3410 C   0  0  0  0  0  0  0  0  0  0  0  0
    0.9487   69.5761   68.5154 H   0  0  0  0  0  0  0  0  0  0  0  0
    0.2859   69.1708   66.8646 H   0  0  0  0  0  0  0  0  0  0  0  0
    2.7557   70.0447   69.7011 H   0  0  0  0  0  0  0  0  0  0  0  0
    4.9726   70.9389   70.4664 H   0  0  0  0  0  0  0  0  0  0  0  0
    6.8839   71.1361   68.8764 H   0  0  0  0  0  0  0  0  0  0  0  0
    6.6126   70.4399   66.4760 H   0  0  0  0  0  0  0  0  0  0  0  0
   -0.1664   67.1957   67.8736 H   0  0  0  0  0  0  0  0  0  0  0  0
    1.5685   66.8861   67.4024 H   0  0  0  0  0  0  0  0  0  0  0  0
    2.3077   66.9025   69.5248 H   0  0  0  0  0  0  0  0  0  0  0  0
    1.0691   68.1510   70.0352 H   0  0  0  0  0  0  0  0  0  0  0  0
   -0.0253   66.5522   71.0805 H   0  0  0  0  0  0  0  0  0  0  0  0
   -0.3623   65.8336   69.4269 H   0  0  0  0  0  0  0  0  0  0  0  0
    1.2804   64.2382   69.6245 H   0  0  0  0  0  0  0  0  0  0  0  0
    2.1510   65.1664   70.9274 H   0  0  0  0  0  0  0  0  0  0  0  0
    0.0079   64.7208   72.3292 H   0  0  0  0  0  0  0  0  0  0  0  0
   -0.2713   63.3973   71.1031 H   0  0  0  0  0  0  0  0  0  0  0  0
    2.4342   63.5196   72.3215 H   0  0  0  0  0  0  0  0  0  0  0  0
    1.0436   63.0300   73.4017 H   0  0  0  0  0  0  0  0  0  0  0  0
    1.0551   60.9810   72.5632 H   0  0  0  0  0  0  0  0  0  0  0  0
    0.8523   61.6429   70.8923 H   0  0  0  0  0  0  0  0  0  0  0  0
    3.5816   61.9954   71.8922 H   0  0  0  0  0  0  0  0  0  0  0  0
    3.0437   60.2502   71.8772 H   0  0  0  0  0  0  0  0  0  0  0  0
    3.9202   60.4059   69.7781 H   0  0  0  0  0  0  0  0  0  0  0  0
    2.1916   60.9123   69.4761 H   0  0  0  0  0  0  0  0  0  0  0  0
    4.2487   63.0146   71.3328 H   0  0  0  0  0  0  0  0  0  0  0  0
    5.5732   62.9536   70.1209 H   0  0  0  0  0  0  0  0  0  0  0  0
    4.4185   64.3296   70.1209 H   0  0  0  0  0  0  0  0  0  0  0  0
    4.1731   62.2727   68.4146 H   0  0  0  0  0  0  0  0  0  0  0  0
    2.7365   63.1084   69.1327 H   0  0  0  0  0  0  0  0  0  0  0  0
  2  1  1  0
  3  2  1  0
  4  3  2  0
  5  4  1  0
  6  5  2  0
  7  6  1  0
  8  3  1  0
  8  7  2  0
  9  8  1  0
 10  9  2  0
 11  9  1  0
 11  2  1  0
 12 11  2  0
 13  1  1  0
 14 13  1  0
 15 14  1  0
 16 15  1  0
 17 16  1  0
 18 17  1  0
 19 18  1  0
 20 19  1  0
 21 20  1  0
 23 21  1  0
 23 22  1  0
  1 24  1  0
  1 25  1  0
  4 26  1  0
  5 27  1  0
  6 28  1  0
  7 29  1  0
 13 30  1  0
 13 31  1  0
 14 32  1  0
 14 33  1  0
 15 34  1  0
 15 35  1  0
 16 36  1  0
 16 37  1  0
 17 38  1  0
 17 39  1  0
 18 40  1  0
 18 41  1  0
 19 42  1  0
 19 43  1  0
 20 44  1  0
 20 45  1  0
 21 46  1  0
 21 47  1  0
 22 48  1  0
 22 49  1  0
 22 50  1  0
 23 51  1  0
 23 52  1  0
M  END
>  <score>  (2) 
-8.745

$$$$
=
     RDKit          3D

 52 53  0  0  0  0  0  0  0  0999 V2000
    0.5750   68.5670   66.3480 C   0  0  0  0  0  0  0  0  0  0  0  0
    1.6290   68.6870   65.3670 N   0  0  0  0  0  0  0  0  0  0  0  0
    2.9490   69.0990   65.6220 C   0  0  0  0  0  0  0  0  0  0  0  0
    3.5230   69.4930   66.8170 C   0  0  0  0  0  0  0  0  0  0  0  0
    4.8760   69.8610   66.8070 C   0  0  0  0  0  0  0  0  0  0  0  0
    5.6300   69.8330   65.6180 C   0  0  0  0  0  0  0  0  0  0  0  0
    5.0470   69.4350   64.4170 C   0  0  0  0  0  0  0  0  0  0  0  0
    3.7120   69.0780   64.4550 C   0  0  0  0  0  0  0  0  0  0  0  0
    2.8440   68.6220   63.3710 C   0  0  0  0  0  0  0  0  0  0  0  0
    3.1460   68.4740   62.2080 O   0  0  0  0  0  0  0  0  0  0  0  0
    1.4640   68.3680   64.0250 C   0  0  0  0  0  0  0  0  0  0  0  0
    0.4760   67.9720   63.4450 O   0  0  0  0  0  0  0  0  0  0  0  0
    0.5180   67.1850   67.0080 C   0  0  0  0  0  0  0  0  0  0  0  0
    0.0310   67.2310   68.4570 C   0  0  0  0  0  0  0  0  0  0  0  0
    0.9800   66.5590   69.4580 C   0  0  0  0  0  0  0  0  0  0  0  0
    0.3130   66.1130   70.7640 C   0  0  0  0  0  0  0  0  0  0  0  0
    0.4140   64.6020   70.9960 C   0  0  0  0  0  0  0  0  0  0  0  0
    1.5790   63.9500   70.2460 C   0  0  0  0  0  0  0  0  0  0  0  0
    2.8080   63.6960   71.1230 C   0  0  0  0  0  0  0  0  0  0  0  0
    4.0370   63.3700   70.2720 C   0  0  0  0  0  0  0  0  0  0  0  0
    3.7550   62.3630   69.1540 C   0  0  0  0  0  0  0  0  0  0  0  0
    4.9890   60.8730   70.7670 C   0  0  0  0  0  0  0  0  0  0  0  0
    4.1060   60.9230   69.5290 C   0  0  0  0  0  0  0  0  0  0  0  0
    0.7389   69.3218   67.1312 H   0  0  0  0  0  0  0  0  0  0  0  0
   -0.3793   68.7173   65.8220 H   0  0  0  0  0  0  0  0  0  0  0  0
    2.9360   69.5170   67.7470 H   0  0  0  0  0  0  0  0  0  0  0  0
    5.3569   70.1771   67.7444 H   0  0  0  0  0  0  0  0  0  0  0  0
    6.6895   70.1282   65.6377 H   0  0  0  0  0  0  0  0  0  0  0  0
    5.6231   69.4061   63.4804 H   0  0  0  0  0  0  0  0  0  0  0  0
   -0.1670   66.5485   66.4286 H   0  0  0  0  0  0  0  0  0  0  0  0
    1.5425   66.7847   67.0192 H   0  0  0  0  0  0  0  0  0  0  0  0
   -0.0883   68.2850   68.7481 H   0  0  0  0  0  0  0  0  0  0  0  0
   -0.9152   66.6712   68.4917 H   0  0  0  0  0  0  0  0  0  0  0  0
    1.4173   65.6726   68.9752 H   0  0  0  0  0  0  0  0  0  0  0  0
    1.7317   67.3138   69.7321 H   0  0  0  0  0  0  0  0  0  0  0  0
    0.8012   66.6308   71.6027 H   0  0  0  0  0  0  0  0  0  0  0  0
   -0.7550   66.3668   70.6941 H   0  0  0  0  0  0  0  0  0  0  0  0
    0.5480   64.4224   72.0729 H   0  0  0  0  0  0  0  0  0  0  0  0
   -0.5131   64.1511   70.6125 H   0  0  0  0  0  0  0  0  0  0  0  0
    1.2359   62.9866   69.8409 H   0  0  0  0  0  0  0  0  0  0  0  0
    1.8862   64.6509   69.4559 H   0  0  0  0  0  0  0  0  0  0  0  0
    3.0142   64.5958   71.7211 H   0  0  0  0  0  0  0  0  0  0  0  0
    2.5983   62.8360   71.7760 H   0  0  0  0  0  0  0  0  0  0  0  0
    4.4028   64.3023   69.8170 H   0  0  0  0  0  0  0  0  0  0  0  0
    4.7814   62.9122   70.9401 H   0  0  0  0  0  0  0  0  0  0  0  0
    2.6840   62.4075   68.9070 H   0  0  0  0  0  0  0  0  0  0  0  0
    4.3912   62.6398   68.3004 H   0  0  0  0  0  0  0  0  0  0  0  0
    4.3593   60.9087   71.6682 H   0  0  0  0  0  0  0  0  0  0  0  0
    5.5723   59.9404   70.7639 H   0  0  0  0  0  0  0  0  0  0  0  0
    5.6738   61.7338   70.7639 H   0  0  0  0  0  0  0  0  0  0  0  0
    3.1773   60.3684   69.7288 H   0  0  0  0  0  0  0  0  0  0  0  0
    4.6572   60.4709   68.6913 H   0  0  0  0  0  0  0  0  0  0  0  0
  2  1  1  0
  3  2  1  0
  4  3  2  0
  5  4  1  0
  6  5  2  0
  7  6  1  0
  8  3  1  0
  8  7  2  0
  9  8  1  0
 10  9  2  0
 11  9  1  0
 11  2  1  0
 12 11  2  0
 13  1  1  0
 14 13  1  0
 15 14  1  0
 16 15  1  0
 17 16  1  0
 18 17  1  0
 19 18  1  0
 20 19  1  0
 21 20  1  0
 23 21  1  0
 23 22  1  0
  1 24  1  0
  1 25  1  0
  4 26  1  0
  5 27  1  0
  6 28  1  0
  7 29  1  0
 13 30  1  0
 13 31  1  0
 14 32  1  0
 14 33  1  0
 15 34  1  0
 15 35  1  0
 16 36  1  0
 16 37  1  0
 17 38  1  0
 17 39  1  0
 18 40  1  0
 18 41  1  0
 19 42  1  0
 19 43  1  0
 20 44  1  0
 20 45  1  0
 21 46  1  0
 21 47  1  0
 22 48  1  0
 22 49  1  0
 22 50  1  0
 23 51  1  0
 23 52  1  0
M  END
>  <score>  (3) 
-8.47

$$$$
=
     RDKit          3D

 52 53  0  0  0  0  0  0  0  0999 V2000
    1.4520   67.7620   63.9130 C   0  0  0  0  0  0  0  0  0  0  0  0
    2.7780   68.3330   63.8650 N   0  0  0  0  0  0  0  0  0  0  0  0
    3.4710   68.8980   64.9510 C   0  0  0  0  0  0  0  0  0  0  0  0
    3.0580   69.0550   66.2610 C   0  0  0  0  0  0  0  0  0  0  0  0
    3.9470   69.6540   67.1640 C   0  0  0  0  0  0  0  0  0  0  0  0
    5.2230   70.0860   66.7530 C   0  0  0  0  0  0  0  0  0  0  0  0
    5.6340   69.9250   65.4310 C   0  0  0  0  0  0  0  0  0  0  0  0
    4.7370   69.3310   64.5620 C   0  0  0  0  0  0  0  0  0  0  0  0
    4.8870   69.0320   63.1390 C   0  0  0  0  0  0  0  0  0  0  0  0
    5.8510   69.2600   62.4430 O   0  0  0  0  0  0  0  0  0  0  0  0
    3.5580   68.3620   62.7150 C   0  0  0  0  0  0  0  0  0  0  0  0
    3.2990   67.9610   61.6010 O   0  0  0  0  0  0  0  0  0  0  0  0
    0.3380   68.8150   63.8930 C   0  0  0  0  0  0  0  0  0  0  0  0
   -0.4740   68.8540   65.1880 C   0  0  0  0  0  0  0  0  0  0  0  0
   -0.2410   67.6490   66.1090 C   0  0  0  0  0  0  0  0  0  0  0  0
   -1.2260   67.5440   67.2790 C   0  0  0  0  0  0  0  0  0  0  0  0
   -0.6420   66.7920   68.4800 C   0  0  0  0  0  0  0  0  0  0  0  0
    0.7760   67.2410   68.8460 C   0  0  0  0  0  0  0  0  0  0  0  0
    1.3790   66.4700   70.0230 C   0  0  0  0  0  0  0  0  0  0  0  0
    0.5380   65.2370   70.3640 C   0  0  0  0  0  0  0  0  0  0  0  0
    1.3310   64.1370   71.0760 C   0  0  0  0  0  0  0  0  0  0  0  0
    2.7480   62.5590   69.7170 C   0  0  0  0  0  0  0  0  0  0  0  0
    2.7080   63.8850   70.4620 C   0  0  0  0  0  0  0  0  0  0  0  0
    1.3243   67.1018   63.0424 H   0  0  0  0  0  0  0  0  0  0  0  0
    1.3667   67.2150   64.8636 H   0  0  0  0  0  0  0  0  0  0  0  0
    2.0616   68.7199   66.5849 H   0  0  0  0  0  0  0  0  0  0  0  0
    3.6427   69.7891   68.2124 H   0  0  0  0  0  0  0  0  0  0  0  0
    5.9010   70.5545   67.4816 H   0  0  0  0  0  0  0  0  0  0  0  0
    6.6275   70.2556   65.0939 H   0  0  0  0  0  0  0  0  0  0  0  0
    0.7937   69.8037   63.7356 H   0  0  0  0  0  0  0  0  0  0  0  0
   -0.3531   68.5459   63.0806 H   0  0  0  0  0  0  0  0  0  0  0  0
   -0.2032   69.7671   65.7384 H   0  0  0  0  0  0  0  0  0  0  0  0
   -1.5350   68.8320   64.8984 H   0  0  0  0  0  0  0  0  0  0  0  0
   -0.3257   66.7335   65.5052 H   0  0  0  0  0  0  0  0  0  0  0  0
    0.7575   67.7813   66.5512 H   0  0  0  0  0  0  0  0  0  0  0  0
   -1.5006   68.5597   67.5998 H   0  0  0  0  0  0  0  0  0  0  0  0
   -2.1006   66.9776   66.9264 H   0  0  0  0  0  0  0  0  0  0  0  0
   -1.2961   66.9596   69.3483 H   0  0  0  0  0  0  0  0  0  0  0  0
   -0.5852   65.7292   68.2022 H   0  0  0  0  0  0  0  0  0  0  0  0
    1.4234   67.0977   67.9683 H   0  0  0  0  0  0  0  0  0  0  0  0
    0.7114   68.2959   69.1509 H   0  0  0  0  0  0  0  0  0  0  0  0
    2.3969   66.1483   69.7578 H   0  0  0  0  0  0  0  0  0  0  0  0
    1.3989   67.1326   70.9008 H   0  0  0  0  0  0  0  0  0  0  0  0
   -0.2893   65.5494   71.0182 H   0  0  0  0  0  0  0  0  0  0  0  0
    0.1801   64.8153   69.4132 H   0  0  0  0  0  0  0  0  0  0  0  0
    1.4668   64.4303   72.1274 H   0  0  0  0  0  0  0  0  0  0  0  0
    0.7554   63.2051   70.9745 H   0  0  0  0  0  0  0  0  0  0  0  0
    2.7730   61.7319   70.4417 H   0  0  0  0  0  0  0  0  0  0  0  0
    1.8522   62.4662   69.0853 H   0  0  0  0  0  0  0  0  0  0  0  0
    3.6477   62.5203   69.0853 H   0  0  0  0  0  0  0  0  0  0  0  0
    2.9407   64.6981   69.7587 H   0  0  0  0  0  0  0  0  0  0  0  0
    3.4486   63.8487   71.2745 H   0  0  0  0  0  0  0  0  0  0  0  0
  2  1  1  0
  3  2  1  0
  4  3  2  0
  5  4  1  0
  6  5  2  0
  7  6  1  0
  8  3  1  0
  8  7  2  0
  9  8  1  0
 10  9  2  0
 11  9  1  0
 11  2  1  0
 12 11  2  0
 13  1  1  0
 14 13  1  0
 15 14  1  0
 16 15  1  0
 17 16  1  0
 18 17  1  0
 19 18  1  0
 20 19  1  0
 21 20  1  0
 23 21  1  0
 23 22  1  0
  1 24  1  0
  1 25  1  0
  4 26  1  0
  5 27  1  0
  6 28  1  0
  7 29  1  0
 13 30  1  0
 13 31  1  0
 14 32  1  0
 14 33  1  0
 15 34  1  0
 15 35  1  0
 16 36  1  0
 16 37  1  0
 17 38  1  0
 17 39  1  0
 18 40  1  0
 18 41  1  0
 19 42  1  0
 19 43  1  0
 20 44  1  0
 20 45  1  0
 21 46  1  0
 21 47  1  0
 22 48  1  0
 22 49  1  0
 22 50  1  0
 23 51  1  0
 23 52  1  0
M  END
>  <score>  (4) 
-8.46

$$$$
=
     RDKit          3D

 52 53  0  0  0  0  0  0  0  0999 V2000
    3.7820   67.6440   61.5950 C   0  0  0  0  0  0  0  0  0  0  0  0
    3.2940   67.1180   62.8490 N   0  0  0  0  0  0  0  0  0  0  0  0
    2.2170   67.6300   63.5940 C   0  0  0  0  0  0  0  0  0  0  0  0
    1.4160   68.7250   63.3270 C   0  0  0  0  0  0  0  0  0  0  0  0
    0.3940   69.0310   64.2370 C   0  0  0  0  0  0  0  0  0  0  0  0
    0.1870   68.2490   65.3900 C   0  0  0  0  0  0  0  0  0  0  0  0
    0.9980   67.1460   65.6540 C   0  0  0  0  0  0  0  0  0  0  0  0
    1.9970   66.8680   64.7400 C   0  0  0  0  0  0  0  0  0  0  0  0
    2.9850   65.7910   64.7480 C   0  0  0  0  0  0  0  0  0  0  0  0
    3.1120   64.9250   65.5840 O   0  0  0  0  0  0  0  0  0  0  0  0
    3.8270   65.9930   63.4650 C   0  0  0  0  0  0  0  0  0  0  0  0
    4.7490   65.2880   63.1140 O   0  0  0  0  0  0  0  0  0  0  0  0
    4.4950   68.9930   61.7420 C   0  0  0  0  0  0  0  0  0  0  0  0
    5.6070   68.9740   62.7910 C   0  0  0  0  0  0  0  0  0  0  0  0
    5.3000   69.8070   64.0420 C   0  0  0  0  0  0  0  0  0  0  0  0
    5.8880   69.2420   65.3410 C   0  0  0  0  0  0  0  0  0  0  0  0
    5.6250   70.1420   66.5520 C   0  0  0  0  0  0  0  0  0  0  0  0
    6.8200   70.2430   67.5050 C   0  0  0  0  0  0  0  0  0  0  0  0
    6.5730   71.1640   68.7030 C   0  0  0  0  0  0  0  0  0  0  0  0
    5.4730   70.6080   69.6090 C   0  0  0  0  0  0  0  0  0  0  0  0
    4.0680   71.0820   69.2240 C   0  0  0  0  0  0  0  0  0  0  0  0
    2.4260   69.7400   67.8640 C   0  0  0  0  0  0  0  0  0  0  0  0
    3.0230   69.9670   69.2450 C   0  0  0  0  0  0  0  0  0  0  0  0
    4.4891   66.9201   61.1639 H   0  0  0  0  0  0  0  0  0  0  0  0
    2.9084   67.8052   60.9463 H   0  0  0  0  0  0  0  0  0  0  0  0
    1.5757   69.3378   62.4276 H   0  0  0  0  0  0  0  0  0  0  0  0
   -0.2574   69.8968   64.0471 H   0  0  0  0  0  0  0  0  0  0  0  0
   -0.6216   68.5108   66.0883 H   0  0  0  0  0  0  0  0  0  0  0  0
    0.8495   66.5248   66.5496 H   0  0  0  0  0  0  0  0  0  0  0  0
    4.9348   69.2639   60.7708 H   0  0  0  0  0  0  0  0  0  0  0  0
    3.7445   69.7256   62.0737 H   0  0  0  0  0  0  0  0  0  0  0  0
    5.7716   67.9317   63.1015 H   0  0  0  0  0  0  0  0  0  0  0  0
    6.4951   69.4217   62.3210 H   0  0  0  0  0  0  0  0  0  0  0  0
    5.7079   70.8173   63.8909 H   0  0  0  0  0  0  0  0  0  0  0  0
    4.2067   69.7989   64.1634 H   0  0  0  0  0  0  0  0  0  0  0  0
    5.4379   68.2565   65.5311 H   0  0  0  0  0  0  0  0  0  0  0  0
    6.9780   69.1741   65.2092 H   0  0  0  0  0  0  0  0  0  0  0  0
    5.3814   71.1517   66.1898 H   0  0  0  0  0  0  0  0  0  0  0  0
    4.7956   69.6921   67.1173 H   0  0  0  0  0  0  0  0  0  0  0  0
    7.0498   69.2357   67.8824 H   0  0  0  0  0  0  0  0  0  0  0  0
    7.6535   70.6756   66.9322 H   0  0  0  0  0  0  0  0  0  0  0  0
    7.5032   71.2562   69.2828 H   0  0  0  0  0  0  0  0  0  0  0  0
    6.2519   72.1467   68.3272 H   0  0  0  0  0  0  0  0  0  0  0  0
    5.4976   69.5097   69.5531 H   0  0  0  0  0  0  0  0  0  0  0  0
    5.6726   70.9780   70.6255 H   0  0  0  0  0  0  0  0  0  0  0  0
    3.7576   71.8639   69.9328 H   0  0  0  0  0  0  0  0  0  0  0  0
    4.1235   71.4549   68.1906 H   0  0  0  0  0  0  0  0  0  0  0  0
    1.4023   69.3508   67.9665 H   0  0  0  0  0  0  0  0  0  0  0  0
    2.4028   70.6921   67.3135 H   0  0  0  0  0  0  0  0  0  0  0  0
    3.0413   69.0131   67.3135 H   0  0  0  0  0  0  0  0  0  0  0  0
    3.4995   69.0362   69.5864 H   0  0  0  0  0  0  0  0  0  0  0  0
    2.2133   70.2640   69.9278 H   0  0  0  0  0  0  0  0  0  0  0  0
  2  1  1  0
  3  2  1  0
  4  3  2  0
  5  4  1  0
  6  5  2  0
  7  6  1  0
  8  3  1  0
  8  7  2  0
  9  8  1  0
 10  9  2  0
 11  9  1  0
 11  2  1  0
 12 11  2  0
 13  1  1  0
 14 13  1  0
 15 14  1  0
 16 15  1  0
 17 16  1  0
 18 17  1  0
 19 18  1  0
 20 19  1  0
 21 20  1  0
 23 21  1  0
 23 22  1  0
  1 24  1  0
  1 25  1  0
  4 26  1  0
  5 27  1  0
  6 28  1  0
  7 29  1  0
 13 30  1  0
 13 31  1  0
 14 32  1  0
 14 33  1  0
 15 34  1  0
 15 35  1  0
 16 36  1  0
 16 37  1  0
 17 38  1  0
 17 39  1  0
 18 40  1  0
 18 41  1  0
 19 42  1  0
 19 43  1  0
 20 44  1  0
 20 45  1  0
 21 46  1  0
 21 47  1  0
 22 48  1  0
 22 49  1  0
 22 50  1  0
 23 51  1  0
 23 52  1  0
M  END
>  <score>  (5) 
-8.171

$$$$
=
     RDKit          3D

 52 53  0  0  0  0  0  0  0  0999 V2000
    4.0910   67.7070   64.7420 C   0  0  0  0  0  0  0  0  0  0  0  0
    3.4510   68.1310   63.5170 N   0  0  0  0  0  0  0  0  0  0  0  0
    2.1090   68.5280   63.3840 C   0  0  0  0  0  0  0  0  0  0  0  0
    1.1170   68.5830   64.3460 C   0  0  0  0  0  0  0  0  0  0  0  0
   -0.1560   69.0200   63.9550 C   0  0  0  0  0  0  0  0  0  0  0  0
   -0.4210   69.3910   62.6220 C   0  0  0  0  0  0  0  0  0  0  0  0
    0.5820   69.3320   61.6560 C   0  0  0  0  0  0  0  0  0  0  0  0
    1.8270   68.8980   62.0700 C   0  0  0  0  0  0  0  0  0  0  0  0
    3.0560   68.7390   61.2950 C   0  0  0  0  0  0  0  0  0  0  0  0
    3.2080   68.9620   60.1150 O   0  0  0  0  0  0  0  0  0  0  0  0
    4.1160   68.2290   62.3010 C   0  0  0  0  0  0  0  0  0  0  0  0
    5.2730   67.9830   62.0360 O   0  0  0  0  0  0  0  0  0  0  0  0
    5.1000   68.7280   65.2810 C   0  0  0  0  0  0  0  0  0  0  0  0
    4.4500   69.8320   66.1150 C   0  0  0  0  0  0  0  0  0  0  0  0
    5.2620   70.2420   67.3510 C   0  0  0  0  0  0  0  0  0  0  0  0
    4.4490   70.3170   68.6480 C   0  0  0  0  0  0  0  0  0  0  0  0
    2.9380   70.2300   68.4070 C   0  0  0  0  0  0  0  0  0  0  0  0
    2.3070   68.9500   68.9640 C   0  0  0  0  0  0  0  0  0  0  0  0
    1.3800   68.2420   67.9730 C   0  0  0  0  0  0  0  0  0  0  0  0
    0.5720   67.1400   68.6630 C   0  0  0  0  0  0  0  0  0  0  0  0
    1.2440   66.5900   69.9230 C   0  0  0  0  0  0  0  0  0  0  0  0
    2.0810   64.3140   70.6070 C   0  0  0  0  0  0  0  0  0  0  0  0
    0.8600   65.1430   70.2360 C   0  0  0  0  0  0  0  0  0  0  0  0
    3.3147   67.5465   65.5046 H   0  0  0  0  0  0  0  0  0  0  0  0
    4.6471   66.7847   64.5181 H   0  0  0  0  0  0  0  0  0  0  0  0
    1.3210   68.2924   65.3871 H   0  0  0  0  0  0  0  0  0  0  0  0
   -0.9619   69.0742   64.7017 H   0  0  0  0  0  0  0  0  0  0  0  0
   -1.4289   69.7304   62.3410 H   0  0  0  0  0  0  0  0  0  0  0  0
    0.3912   69.6180   60.6111 H   0  0  0  0  0  0  0  0  0  0  0  0
    5.8312   68.1989   65.9099 H   0  0  0  0  0  0  0  0  0  0  0  0
    5.5744   69.2093   64.4131 H   0  0  0  0  0  0  0  0  0  0  0  0
    4.3220   70.7181   65.4759 H   0  0  0  0  0  0  0  0  0  0  0  0
    3.4933   69.4318   66.4817 H   0  0  0  0  0  0  0  0  0  0  0  0
    6.0678   69.5067   67.4924 H   0  0  0  0  0  0  0  0  0  0  0  0
    5.6367   71.2578   67.1569 H   0  0  0  0  0  0  0  0  0  0  0  0
    4.7496   69.4836   69.3000 H   0  0  0  0  0  0  0  0  0  0  0  0
    4.6549   71.2927   69.1123 H   0  0  0  0  0  0  0  0  0  0  0  0
    2.4575   71.0942   68.8890 H   0  0  0  0  0  0  0  0  0  0  0  0
    2.7822   70.2222   67.3181 H   0  0  0  0  0  0  0  0  0  0  0  0
    3.1145   68.2564   69.2412 H   0  0  0  0  0  0  0  0  0  0  0  0
    1.6921   69.2431   69.8277 H   0  0  0  0  0  0  0  0  0  0  0  0
    0.6866   68.9785   67.5409 H   0  0  0  0  0  0  0  0  0  0  0  0
    1.9962   67.7822   67.1863 H   0  0  0  0  0  0  0  0  0  0  0  0
   -0.4094   67.5507   68.9426 H   0  0  0  0  0  0  0  0  0  0  0  0
    0.4870   66.3061   67.9507 H   0  0  0  0  0  0  0  0  0  0  0  0
    2.3343   66.6392   69.7860 H   0  0  0  0  0  0  0  0  0  0  0  0
    0.9019   67.2059   70.7677 H   0  0  0  0  0  0  0  0  0  0  0  0
    2.1660   64.2563   71.7022 H   0  0  0  0  0  0  0  0  0  0  0  0
    1.9753   63.3002   70.1935 H   0  0  0  0  0  0  0  0  0  0  0  0
    2.9843   64.7863   70.1935 H   0  0  0  0  0  0  0  0  0  0  0  0
    0.1520   65.1344   71.0778 H   0  0  0  0  0  0  0  0  0  0  0  0
    0.4023   64.7035   69.3375 H   0  0  0  0  0  0  0  0  0  0  0  0
  2  1  1  0
  3  2  1  0
  4  3  2  0
  5  4  1  0
  6  5  2  0
  7  6  1  0
  8  3  1  0
  8  7  2  0
  9  8  1  0
 10  9  2  0
 11  9  1  0
 11  2  1  0
 12 11  2  0
 13  1  1  0
 14 13  1  0
 15 14  1  0
 16 15  1  0
 17 16  1  0
 18 17  1  0
 19 18  1  0
 20 19  1  0
 21 20  1  0
 23 21  1  0
 23 22  1  0
  1 24  1  0
  1 25  1  0
  4 26  1  0
  5 27  1  0
  6 28  1  0
  7 29  1  0
 13 30  1  0
 13 31  1  0
 14 32  1  0
 14 33  1  0
 15 34  1  0
 15 35  1  0
 16 36  1  0
 16 37  1  0
 17 38  1  0
 17 39  1  0
 18 40  1  0
 18 41  1  0
 19 42  1  0
 19 43  1  0
 20 44  1  0
 20 45  1  0
 21 46  1  0
 21 47  1  0
 22 48  1  0
 22 49  1  0
 22 50  1  0
 23 51  1  0
 23 52  1  0
M  END
>  <score>  (6) 
-8.044

$$$$
=
     RDKit          3D

 52 53  0  0  0  0  0  0  0  0999 V2000
   -0.3150   68.5980   63.2570 C   0  0  0  0  0  0  0  0  0  0  0  0
    1.0140   68.5290   62.6940 N   0  0  0  0  0  0  0  0  0  0  0  0
    2.0610   67.7090   63.1520 C   0  0  0  0  0  0  0  0  0  0  0  0
    2.0750   66.8280   64.2180 C   0  0  0  0  0  0  0  0  0  0  0  0
    3.2570   66.1180   64.4690 C   0  0  0  0  0  0  0  0  0  0  0  0
    4.3990   66.2950   63.6630 C   0  0  0  0  0  0  0  0  0  0  0  0
    4.3790   67.1850   62.5900 C   0  0  0  0  0  0  0  0  0  0  0  0
    3.2000   67.8710   62.3660 C   0  0  0  0  0  0  0  0  0  0  0  0
    2.8830   68.8520   61.3290 C   0  0  0  0  0  0  0  0  0  0  0  0
    3.6200   69.2540   60.4570 O   0  0  0  0  0  0  0  0  0  0  0  0
    1.4120   69.2610   61.5820 C   0  0  0  0  0  0  0  0  0  0  0  0
    0.7830   70.0570   60.9210 O   0  0  0  0  0  0  0  0  0  0  0  0
   -0.3250   68.9970   64.7370 C   0  0  0  0  0  0  0  0  0  0  0  0
   -1.6620   68.7200   65.4250 C   0  0  0  0  0  0  0  0  0  0  0  0
   -1.5730   68.6380   66.9540 C   0  0  0  0  0  0  0  0  0  0  0  0
   -0.2590   69.1650   67.5430 C   0  0  0  0  0  0  0  0  0  0  0  0
    0.6200   68.0510   68.1210 C   0  0  0  0  0  0  0  0  0  0  0  0
    2.0250   68.0100   67.5110 C   0  0  0  0  0  0  0  0  0  0  0  0
    2.6840   69.3870   67.3970 C   0  0  0  0  0  0  0  0  0  0  0  0
    3.5510   69.4820   66.1400 C   0  0  0  0  0  0  0  0  0  0  0  0
    5.0480   69.6000   66.4390 C   0  0  0  0  0  0  0  0  0  0  0  0
    6.7410   70.9640   67.7110 C   0  0  0  0  0  0  0  0  0  0  0  0
    5.3520   70.3440   67.7390 C   0  0  0  0  0  0  0  0  0  0  0  0
   -0.8961   69.3408   62.6909 H   0  0  0  0  0  0  0  0  0  0  0  0
   -0.7516   67.5908   63.1875 H   0  0  0  0  0  0  0  0  0  0  0  0
    1.1853   66.6888   64.8497 H   0  0  0  0  0  0  0  0  0  0  0  0
    3.2938   65.4101   65.3101 H   0  0  0  0  0  0  0  0  0  0  0  0
    5.3145   65.7260   63.8823 H   0  0  0  0  0  0  0  0  0  0  0  0
    5.2615   67.3345   61.9506 H   0  0  0  0  0  0  0  0  0  0  0  0
    0.4605   68.4297   65.2576 H   0  0  0  0  0  0  0  0  0  0  0  0
   -0.1507   70.0820   64.7849 H   0  0  0  0  0  0  0  0  0  0  0  0
   -2.3600   69.5285   65.1622 H   0  0  0  0  0  0  0  0  0  0  0  0
   -2.0022   67.7348   65.0733 H   0  0  0  0  0  0  0  0  0  0  0  0
   -2.4001   69.2260   67.3784 H   0  0  0  0  0  0  0  0  0  0  0  0
   -1.6268   67.5705   67.2140 H   0  0  0  0  0  0  0  0  0  0  0  0
    0.3017   69.6787   66.7482 H   0  0  0  0  0  0  0  0  0  0  0  0
   -0.5148   69.8471   68.3672 H   0  0  0  0  0  0  0  0  0  0  0  0
    0.7146   68.2081   69.2056 H   0  0  0  0  0  0  0  0  0  0  0  0
    0.1328   67.0942   67.8819 H   0  0  0  0  0  0  0  0  0  0  0  0
    2.6600   67.3718   68.1430 H   0  0  0  0  0  0  0  0  0  0  0  0
    1.9216   67.6162   66.4891 H   0  0  0  0  0  0  0  0  0  0  0  0
    1.9002   70.1574   67.3515 H   0  0  0  0  0  0  0  0  0  0  0  0
    3.3269   69.5398   68.2764 H   0  0  0  0  0  0  0  0  0  0  0  0
    3.3869   68.5784   65.5346 H   0  0  0  0  0  0  0  0  0  0  0  0
    3.2534   70.3987   65.6098 H   0  0  0  0  0  0  0  0  0  0  0  0
    5.4699   68.5867   66.5107 H   0  0  0  0  0  0  0  0  0  0  0  0
    5.4972   70.1813   65.6203 H   0  0  0  0  0  0  0  0  0  0  0  0
    7.0932   71.1212   68.7412 H   0  0  0  0  0  0  0  0  0  0  0  0
    7.4331   70.2894   67.1858 H   0  0  0  0  0  0  0  0  0  0  0  0
    6.7010   71.9297   67.1858 H   0  0  0  0  0  0  0  0  0  0  0  0
    4.6068   71.1411   67.8780 H   0  0  0  0  0  0  0  0  0  0  0  0
    5.3110   69.6229   68.5687 H   0  0  0  0  0  0  0  0  0  0  0  0
  2  1  1  0
  3  2  1  0
  4  3  2  0
  5  4  1  0
  6  5  2  0
  7  6  1  0
  8  3  1  0
  8  7  2  0
  9  8  1  0
 10  9  2  0
 11  9  1  0
 11  2  1  0
 12 11  2  0
 13  1  1  0
 14 13  1  0
 15 14  1  0
 16 15  1  0
 17 16  1  0
 18 17  1  0
 19 18  1  0
 20 19  1  0
 21 20  1  0
 23 21  1  0
 23 22  1  0
  1 24  1  0
  1 25  1  0
  4 26  1  0
  5 27  1  0
  6 28  1  0
  7 29  1  0
 13 30  1  0
 13 31  1  0
 14 32  1  0
 14 33  1  0
 15 34  1  0
 15 35  1  0
 16 36  1  0
 16 37  1  0
 17 38  1  0
 17 39  1  0
 18 40  1  0
 18 41  1  0
 19 42  1  0
 19 43  1  0
 20 44  1  0
 20 45  1  0
 21 46  1  0
 21 47  1  0
 22 48  1  0
 22 49  1  0
 22 50  1  0
 23 51  1  0
 23 52  1  0
M  END
>  <score>  (7) 
-8.027

$$$$
=
     RDKit          3D

 52 53  0  0  0  0  0  0  0  0999 V2000
    0.3680   64.3430   70.1520 C   0  0  0  0  0  0  0  0  0  0  0  0
    1.0600   63.4120   71.0140 N   0  0  0  0  0  0  0  0  0  0  0  0
    2.4390   63.1340   70.9870 C   0  0  0  0  0  0  0  0  0  0  0  0
    3.4140   63.6460   70.1510 C   0  0  0  0  0  0  0  0  0  0  0  0
    4.7330   63.2040   70.3300 C   0  0  0  0  0  0  0  0  0  0  0  0
    5.0570   62.2660   71.3300 C   0  0  0  0  0  0  0  0  0  0  0  0
    4.0700   61.7540   72.1700 C   0  0  0  0  0  0  0  0  0  0  0  0
    2.7790   62.2070   71.9710 C   0  0  0  0  0  0  0  0  0  0  0  0
    1.5540   61.8580   72.6880 C   0  0  0  0  0  0  0  0  0  0  0  0
    1.4460   61.0820   73.6110 O   0  0  0  0  0  0  0  0  0  0  0  0
    0.4320   62.6890   72.0200 C   0  0  0  0  0  0  0  0  0  0  0  0
   -0.7360   62.6770   72.3440 O   0  0  0  0  0  0  0  0  0  0  0  0
    0.4390   65.7920   70.6460 C   0  0  0  0  0  0  0  0  0  0  0  0
    1.2460   66.7030   69.7210 C   0  0  0  0  0  0  0  0  0  0  0  0
    0.4750   67.1780   68.4830 C   0  0  0  0  0  0  0  0  0  0  0  0
    0.7680   68.6240   68.0680 C   0  0  0  0  0  0  0  0  0  0  0  0
    1.2410   68.7400   66.6150 C   0  0  0  0  0  0  0  0  0  0  0  0
    1.8260   67.4370   66.0620 C   0  0  0  0  0  0  0  0  0  0  0  0
    3.0350   67.6470   65.1470 C   0  0  0  0  0  0  0  0  0  0  0  0
    3.4070   69.1290   65.0550 C   0  0  0  0  0  0  0  0  0  0  0  0
    4.8010   69.4430   65.6080 C   0  0  0  0  0  0  0  0  0  0  0  0
    6.1650   70.4010   67.4960 C   0  0  0  0  0  0  0  0  0  0  0  0
    4.7850   69.9380   67.0540 C   0  0  0  0  0  0  0  0  0  0  0  0
    0.8191   64.2930   69.1500 H   0  0  0  0  0  0  0  0  0  0  0  0
   -0.6930   64.0528   70.1431 H   0  0  0  0  0  0  0  0  0  0  0  0
    3.1628   64.3779   69.3691 H   0  0  0  0  0  0  0  0  0  0  0  0
    5.5279   63.5963   69.6786 H   0  0  0  0  0  0  0  0  0  0  0  0
    6.0991   61.9346   71.4489 H   0  0  0  0  0  0  0  0  0  0  0  0
    4.3074   61.0222   72.9562 H   0  0  0  0  0  0  0  0  0  0  0  0
   -0.5850   66.1870   70.7200 H   0  0  0  0  0  0  0  0  0  0  0  0
    0.9482   65.7811   71.6210 H   0  0  0  0  0  0  0  0  0  0  0  0
    1.5585   67.5883   70.2943 H   0  0  0  0  0  0  0  0  0  0  0  0
    2.0984   66.1109   69.3565 H   0  0  0  0  0  0  0  0  0  0  0  0
    0.7366   66.5194   67.6417 H   0  0  0  0  0  0  0  0  0  0  0  0
   -0.5926   67.1378   68.7448 H   0  0  0  0  0  0  0  0  0  0  0  0
   -0.1508   69.2170   68.1870 H   0  0  0  0  0  0  0  0  0  0  0  0
    1.5793   68.9955   68.7113 H   0  0  0  0  0  0  0  0  0  0  0  0
    0.3830   69.0300   65.9907 H   0  0  0  0  0  0  0  0  0  0  0  0
    2.0432   69.4923   66.5928 H   0  0  0  0  0  0  0  0  0  0  0  0
    2.1365   66.8081   66.9094 H   0  0  0  0  0  0  0  0  0  0  0  0
    1.0406   66.9633   65.4547 H   0  0  0  0  0  0  0  0  0  0  0  0
    3.8915   67.0861   65.5493 H   0  0  0  0  0  0  0  0  0  0  0  0
    2.7765   67.2889   64.1395 H   0  0  0  0  0  0  0  0  0  0  0  0
    3.3753   69.4313   63.9978 H   0  0  0  0  0  0  0  0  0  0  0  0
    2.6821   69.6840   65.6686 H   0  0  0  0  0  0  0  0  0  0  0  0
    5.4092   68.5277   65.5599 H   0  0  0  0  0  0  0  0  0  0  0  0
    5.2186   70.2536   64.9927 H   0  0  0  0  0  0  0  0  0  0  0  0
    6.2119   70.4167   68.5949 H   0  0  0  0  0  0  0  0  0  0  0  0
    6.9262   69.7090   67.1064 H   0  0  0  0  0  0  0  0  0  0  0  0
    6.3548   71.4120   67.1064 H   0  0  0  0  0  0  0  0  0  0  0  0
    4.0814   70.7795   67.1367 H   0  0  0  0  0  0  0  0  0  0  0  0
    4.4745   69.1053   67.7022 H   0  0  0  0  0  0  0  0  0  0  0  0
  2  1  1  0
  3  2  1  0
  4  3  2  0
  5  4  1  0
  6  5  2  0
  7  6  1  0
  8  3  1  0
  8  7  2  0
  9  8  1  0
 10  9  2  0
 11  9  1  0
 11  2  1  0
 12 11  2  0
 13  1  1  0
 14 13  1  0
 15 14  1  0
 16 15  1  0
 17 16  1  0
 18 17  1  0
 19 18  1  0
 20 19  1  0
 21 20  1  0
 23 21  1  0
 23 22  1  0
  1 24  1  0
  1 25  1  0
  4 26  1  0
  5 27  1  0
  6 28  1  0
  7 29  1  0
 13 30  1  0
 13 31  1  0
 14 32  1  0
 14 33  1  0
 15 34  1  0
 15 35  1  0
 16 36  1  0
 16 37  1  0
 17 38  1  0
 17 39  1  0
 18 40  1  0
 18 41  1  0
 19 42  1  0
 19 43  1  0
 20 44  1  0
 20 45  1  0
 21 46  1  0
 21 47  1  0
 22 48  1  0
 22 49  1  0
 22 50  1  0
 23 51  1  0
 23 52  1  0
M  END
>  <score>  (8) 
-7.951

$$$$
=
     RDKit          3D

 52 53  0  0  0  0  0  0  0  0999 V2000
    1.5430   67.9060   63.1250 C   0  0  0  0  0  0  0  0  0  0  0  0
    0.6330   68.2430   64.1950 N   0  0  0  0  0  0  0  0  0  0  0  0
    0.9510   68.2830   65.5650 C   0  0  0  0  0  0  0  0  0  0  0  0
    2.1520   67.9980   66.1890 C   0  0  0  0  0  0  0  0  0  0  0  0
    2.2120   68.1150   67.5850 C   0  0  0  0  0  0  0  0  0  0  0  0
    1.0850   68.5090   68.3320 C   0  0  0  0  0  0  0  0  0  0  0  0
   -0.1230   68.7950   67.6980 C   0  0  0  0  0  0  0  0  0  0  0  0
   -0.1530   68.6710   66.3220 C   0  0  0  0  0  0  0  0  0  0  0  0
   -1.2610   68.9040   65.3960 C   0  0  0  0  0  0  0  0  0  0  0  0
   -2.3850   69.2540   65.6770 O   0  0  0  0  0  0  0  0  0  0  0  0
   -0.6900   68.6110   63.9870 C   0  0  0  0  0  0  0  0  0  0  0  0
   -1.3090   68.7000   62.9480 O   0  0  0  0  0  0  0  0  0  0  0  0
    1.9190   69.1060   62.2500 C   0  0  0  0  0  0  0  0  0  0  0  0
    3.0500   68.8010   61.2660 C   0  0  0  0  0  0  0  0  0  0  0  0
    4.4550   68.9980   61.8480 C   0  0  0  0  0  0  0  0  0  0  0  0
    5.0080   67.7800   62.5970 C   0  0  0  0  0  0  0  0  0  0  0  0
    5.1990   68.0420   64.0950 C   0  0  0  0  0  0  0  0  0  0  0  0
    5.3340   69.5290   64.4380 C   0  0  0  0  0  0  0  0  0  0  0  0
    5.0560   69.8460   65.9100 C   0  0  0  0  0  0  0  0  0  0  0  0
    6.2970   70.4220   66.5950 C   0  0  0  0  0  0  0  0  0  0  0  0
    6.1590   70.5270   68.1170 C   0  0  0  0  0  0  0  0  0  0  0  0
    4.1500   70.5350   69.6380 C   0  0  0  0  0  0  0  0  0  0  0  0
    4.9140   71.2950   68.5630 C   0  0  0  0  0  0  0  0  0  0  0  0
    2.4625   67.4931   63.5655 H   0  0  0  0  0  0  0  0  0  0  0  0
    1.0309   67.1784   62.4782 H   0  0  0  0  0  0  0  0  0  0  0  0
    3.0333   67.6889   65.6078 H   0  0  0  0  0  0  0  0  0  0  0  0
    3.1557   67.8952   68.1057 H   0  0  0  0  0  0  0  0  0  0  0  0
    1.1587   68.5919   69.4264 H   0  0  0  0  0  0  0  0  0  0  0  0
   -1.0118   69.1052   68.2670 H   0  0  0  0  0  0  0  0  0  0  0  0
    1.0312   69.4141   61.6782 H   0  0  0  0  0  0  0  0  0  0  0  0
    2.2740   69.9023   62.9208 H   0  0  0  0  0  0  0  0  0  0  0  0
    2.9536   67.7541   60.9423 H   0  0  0  0  0  0  0  0  0  0  0  0
    2.9480   69.5134   60.4341 H   0  0  0  0  0  0  0  0  0  0  0  0
    5.1402   69.2328   61.0202 H   0  0  0  0  0  0  0  0  0  0  0  0
    4.3777   69.8107   62.5852 H   0  0  0  0  0  0  0  0  0  0  0  0
    4.3058   66.9424   62.4732 H   0  0  0  0  0  0  0  0  0  0  0  0
    5.9960   67.5496   62.1719 H   0  0  0  0  0  0  0  0  0  0  0  0
    4.3297   67.6370   64.6338 H   0  0  0  0  0  0  0  0  0  0  0  0
    6.1374   67.5522   64.3942 H   0  0  0  0  0  0  0  0  0  0  0  0
    6.3594   69.8489   64.2010 H   0  0  0  0  0  0  0  0  0  0  0  0
    4.5803   70.0668   63.8442 H   0  0  0  0  0  0  0  0  0  0  0  0
    4.2390   70.5801   65.9710 H   0  0  0  0  0  0  0  0  0  0  0  0
    4.7772   68.9127   66.4210 H   0  0  0  0  0  0  0  0  0  0  0  0
    7.1545   69.7719   66.3668 H   0  0  0  0  0  0  0  0  0  0  0  0
    6.4352   71.4433   66.2105 H   0  0  0  0  0  0  0  0  0  0  0  0
    6.1091   69.5101   68.5334 H   0  0  0  0  0  0  0  0  0  0  0  0
    7.0331   71.0846   68.4844 H   0  0  0  0  0  0  0  0  0  0  0  0
    4.4852   70.8685   70.6312 H   0  0  0  0  0  0  0  0  0  0  0  0
    3.0729   70.7304   69.5298 H   0  0  0  0  0  0  0  0  0  0  0  0
    4.3397   69.4569   69.5298 H   0  0  0  0  0  0  0  0  0  0  0  0
    5.2206   72.2721   68.9645 H   0  0  0  0  0  0  0  0  0  0  0  0
    4.2540   71.4214   67.6922 H   0  0  0  0  0  0  0  0  0  0  0  0
  2  1  1  0
  3  2  1  0
  4  3  2  0
  5  4  1  0
  6  5  2  0
  7  6  1  0
  8  3  1  0
  8  7  2  0
  9  8  1  0
 10  9  2  0
 11  9  1  0
 11  2  1  0
 12 11  2  0
 13  1  1  0
 14 13  1  0
 15 14  1  0
 16 15  1  0
 17 16  1  0
 18 17  1  0
 19 18  1  0
 20 19  1  0
 21 20  1  0
 23 21  1  0
 23 22  1  0
  1 24  1  0
  1 25  1  0
  4 26  1  0
  5 27  1  0
  6 28  1  0
  7 29  1  0
 13 30  1  0
 13 31  1  0
 14 32  1  0
 14 33  1  0
 15 34  1  0
 15 35  1  0
 16 36  1  0
 16 37  1  0
 17 38  1  0
 17 39  1  0
 18 40  1  0
 18 41  1  0
 19 42  1  0
 19 43  1  0
 20 44  1  0
 20 45  1  0
 21 46  1  0
 21 47  1  0
 22 48  1  0
 22 49  1  0
 22 50  1  0
 23 51  1  0
 23 52  1  0
M  END
>  <score>  (9) 
-7.804

$$$$
