=
     RDKit          3D

 62 64  0  0  0  0  0  0  0  0999 V2000
    1.8830   56.5240   74.2860 C   0  0  2  0  0  0  0  0  0  0  0  0
    1.6280   57.7610   75.1360 C   0  0  0  0  0  0  0  0  0  0  0  0
    2.6190   58.8140   74.7320 C   0  0  0  0  0  0  0  0  0  0  0  0
    3.0470   59.6610   75.5120 O   0  0  0  0  0  0  0  0  0  0  0  0
    3.0270   58.8410   73.3140 C   0  0  0  0  0  0  0  0  0  0  0  0
    2.5330   57.8470   72.4680 C   0  0  0  0  0  0  0  0  0  0  0  0
    1.7270   56.8220   72.8890 O   0  0  0  0  0  0  0  0  0  0  0  0
    2.8330   57.8770   71.1080 C   0  0  0  0  0  0  0  0  0  0  0  0
    3.6550   58.8870   70.6040 C   0  0  0  0  0  0  0  0  0  0  0  0
    4.1880   59.8840   71.4370 C   0  0  0  0  0  0  0  0  0  0  0  0
    3.8550   59.8520   72.8030 C   0  0  0  0  0  0  0  0  0  0  0  0
   -0.9300   53.3820   75.3380 C   0  0  0  0  0  0  0  0  0  0  0  0
   -1.0890   54.6780   75.8320 C   0  0  0  0  0  0  0  0  0  0  0  0
   -0.1750   55.6840   75.4950 C   0  0  0  0  0  0  0  0  0  0  0  0
    0.9200   55.4130   74.6590 C   0  0  0  0  0  0  0  0  0  0  0  0
    1.0740   54.1120   74.1590 C   0  0  0  0  0  0  0  0  0  0  0  0
    0.1600   53.1130   74.5000 C   0  0  0  0  0  0  0  0  0  0  0  0
   -3.1130   52.6290   75.9330 C   0  0  0  0  0  0  0  0  0  0  0  0
   -1.7650   52.3300   75.6060 O   0  0  0  0  0  0  0  0  0  0  0  0
    0.3260   51.8450   74.0070 O   0  0  0  0  0  0  0  0  0  0  0  0
    4.3580   60.8430   73.6100 O   0  0  0  0  0  0  0  0  0  0  0  0
    3.9580   58.9020   69.2710 O   0  0  0  0  0  0  0  0  0  0  0  0
    5.0560   60.9890   70.8740 C   0  0  0  0  0  0  0  0  0  0  0  0
    4.3650   62.3300   70.8950 C   0  0  0  0  0  0  0  0  0  0  0  0
    3.3920   62.7890   70.0830 C   0  0  0  0  0  0  0  0  0  0  0  0
    2.7510   61.9970   68.9760 C   0  0  0  0  0  0  0  0  0  0  0  0
    2.8350   64.1890   70.2790 C   0  0  0  0  0  0  0  0  0  0  0  0
    1.4250   64.1850   70.8810 C   0  0  0  0  0  0  0  0  0  0  0  0
    1.4550   63.8330   72.3460 C   0  0  0  0  0  0  0  0  0  0  0  0
    1.1010   62.6670   72.9190 C   0  0  0  0  0  0  0  0  0  0  0  0
    0.6400   61.4430   72.1760 C   0  0  0  0  0  0  0  0  0  0  0  0
    1.1590   62.4980   74.4150 C   0  0  0  0  0  0  0  0  0  0  0  0
    2.9161   56.1980   74.4765 H   0  0  0  0  0  0  0  0  0  0  0  0
    0.6046   58.1265   74.9656 H   0  0  0  0  0  0  0  0  0  0  0  0
    1.7397   57.5207   76.2036 H   0  0  0  0  0  0  0  0  0  0  0  0
    2.4245   57.1091   70.4346 H   0  0  0  0  0  0  0  0  0  0  0  0
   -1.9386   54.9107   76.4909 H   0  0  0  0  0  0  0  0  0  0  0  0
   -0.3169   56.7005   75.8907 H   0  0  0  0  0  0  0  0  0  0  0  0
    1.9189   53.8773   73.4949 H   0  0  0  0  0  0  0  0  0  0  0  0
   -3.2280   52.6545   77.0267 H   0  0  0  0  0  0  0  0  0  0  0  0
   -3.3835   53.6090   75.5129 H   0  0  0  0  0  0  0  0  0  0  0  0
   -3.7725   51.8553   75.5129 H   0  0  0  0  0  0  0  0  0  0  0  0
   -0.3190   51.1328   74.2455 H   0  0  0  0  0  0  0  0  0  0  0  0
    4.1435   60.8509   74.5765 H   0  0  0  0  0  0  0  0  0  0  0  0
    4.5399   59.6137   68.9036 H   0  0  0  0  0  0  0  0  0  0  0  0
    5.9757   61.0560   71.4737 H   0  0  0  0  0  0  0  0  0  0  0  0
    5.2760   60.7413   69.8251 H   0  0  0  0  0  0  0  0  0  0  0  0
    4.7001   63.0264   71.6778 H   0  0  0  0  0  0  0  0  0  0  0  0
    2.1147   61.2108   69.4086 H   0  0  0  0  0  0  0  0  0  0  0  0
    2.1367   62.6656   68.3550 H   0  0  0  0  0  0  0  0  0  0  0  0
    3.5330   61.5355   68.3550 H   0  0  0  0  0  0  0  0  0  0  0  0
    3.5043   64.7429   70.9537 H   0  0  0  0  0  0  0  0  0  0  0  0
    2.7725   64.6638   69.2887 H   0  0  0  0  0  0  0  0  0  0  0  0
    0.9819   65.1847   70.7619 H   0  0  0  0  0  0  0  0  0  0  0  0
    0.8254   63.4278   70.3546 H   0  0  0  0  0  0  0  0  0  0  0  0
    1.8075   64.6213   73.0274 H   0  0  0  0  0  0  0  0  0  0  0  0
    0.3471   60.6653   72.8966 H   0  0  0  0  0  0  0  0  0  0  0  0
   -0.2226   61.7009   71.5440 H   0  0  0  0  0  0  0  0  0  0  0  0
    1.4584   61.0678   71.5440 H   0  0  0  0  0  0  0  0  0  0  0  0
    0.8388   63.4309   74.9021 H   0  0  0  0  0  0  0  0  0  0  0  0
    0.4907   61.6783   74.7176 H   0  0  0  0  0  0  0  0  0  0  0  0
    2.1898   62.2614   74.7176 H   0  0  0  0  0  0  0  0  0  0  0  0
  2  1  1  0
  3  2  1  0
  4  3  2  0
  5  3  1  0
  6  5  2  0
  7  6  1  0
  7  1  1  0
  8  6  1  0
  9  8  2  0
 10  9  1  0
 11 10  2  0
 11  5  1  0
 13 12  2  0
 14 13  1  0
 15 14  2  0
 15  1  1  0
 16 15  1  0
 17 16  2  0
 17 12  1  0
 19 18  1  0
 19 12  1  0
 20 17  1  0
 21 11  1  0
 22  9  1  0
 23 10  1  0
 24 23  1  0
 25 24  2  0
 26 25  1  0
 27 25  1  0
 28 27  1  0
 29 28  1  0
 30 29  2  3
 31 30  1  0
 32 30  1  0
  1 33  1  6
  2 34  1  0
  2 35  1  0
  8 36  1  0
 13 37  1  0
 14 38  1  0
 16 39  1  0
 18 40  1  0
 18 41  1  0
 18 42  1  0
 20 43  1  0
 21 44  1  0
 22 45  1  0
 23 46  1  0
 23 47  1  0
 24 48  1  0
 26 49  1  0
 26 50  1  0
 26 51  1  0
 27 52  1  0
 27 53  1  0
 28 54  1  0
 28 55  1  0
 29 56  1  0
 31 57  1  0
 31 58  1  0
 31 59  1  0
 32 60  1  0
 32 61  1  0
 32 62  1  0
M  END
>  <score>  (1) 
-8.83

$$$$
=
     RDKit          3D

 62 64  0  0  0  0  0  0  0  0999 V2000
    2.4770   60.5030   73.7900 C   0  0  2  0  0  0  0  0  0  0  0  0
    3.5540   60.5570   72.7150 C   0  0  0  0  0  0  0  0  0  0  0  0
    3.0000   61.3080   71.5400 C   0  0  0  0  0  0  0  0  0  0  0  0
    3.3420   61.0820   70.3820 O   0  0  0  0  0  0  0  0  0  0  0  0
    2.0500   62.4000   71.8300 C   0  0  0  0  0  0  0  0  0  0  0  0
    1.6730   62.6080   73.1570 C   0  0  0  0  0  0  0  0  0  0  0  0
    2.0980   61.8270   74.2000 O   0  0  0  0  0  0  0  0  0  0  0  0
    0.8380   63.6730   73.4850 C   0  0  0  0  0  0  0  0  0  0  0  0
    0.3570   64.5100   72.4770 C   0  0  0  0  0  0  0  0  0  0  0  0
    0.6990   64.3080   71.1300 C   0  0  0  0  0  0  0  0  0  0  0  0
    1.5620   63.2420   70.8200 C   0  0  0  0  0  0  0  0  0  0  0  0
    3.8300   58.3100   77.2910 C   0  0  0  0  0  0  0  0  0  0  0  0
    3.0210   59.4410   77.4240 C   0  0  0  0  0  0  0  0  0  0  0  0
    2.5950   60.1460   76.2920 C   0  0  0  0  0  0  0  0  0  0  0  0
    2.9730   59.7380   75.0030 C   0  0  0  0  0  0  0  0  0  0  0  0
    3.7800   58.5990   74.8720 C   0  0  0  0  0  0  0  0  0  0  0  0
    4.2030   57.9000   76.0040 C   0  0  0  0  0  0  0  0  0  0  0  0
    4.6220   58.2230   79.5380 C   0  0  0  0  0  0  0  0  0  0  0  0
    4.3000   57.5520   78.3290 O   0  0  0  0  0  0  0  0  0  0  0  0
    4.9950   56.7920   75.8600 O   0  0  0  0  0  0  0  0  0  0  0  0
    1.9140   63.0630   69.5040 O   0  0  0  0  0  0  0  0  0  0  0  0
   -0.4750   65.5450   72.8030 O   0  0  0  0  0  0  0  0  0  0  0  0
    0.1930   65.2380   70.0480 C   0  0  0  0  0  0  0  0  0  0  0  0
    1.1000   66.4250   69.8400 C   0  0  0  0  0  0  0  0  0  0  0  0
    1.0260   67.3880   68.8990 C   0  0  0  0  0  0  0  0  0  0  0  0
   -0.0540   67.4890   67.8560 C   0  0  0  0  0  0  0  0  0  0  0  0
    2.0580   68.5020   68.8680 C   0  0  0  0  0  0  0  0  0  0  0  0
    1.8850   69.4340   67.6620 C   0  0  0  0  0  0  0  0  0  0  0  0
    2.9960   69.2490   66.6620 C   0  0  0  0  0  0  0  0  0  0  0  0
    4.2680   69.6830   66.7550 C   0  0  0  0  0  0  0  0  0  0  0  0
    4.8470   70.4160   67.9340 C   0  0  0  0  0  0  0  0  0  0  0  0
    5.2460   69.4390   65.6360 C   0  0  0  0  0  0  0  0  0  0  0  0
    1.6038   59.9899   73.3608 H   0  0  0  0  0  0  0  0  0  0  0  0
    4.4433   61.0750   73.1034 H   0  0  0  0  0  0  0  0  0  0  0  0
    3.8454   59.5396   72.4150 H   0  0  0  0  0  0  0  0  0  0  0  0
    0.5588   63.8538   74.5335 H   0  0  0  0  0  0  0  0  0  0  0  0
    2.7165   59.7800   78.4252 H   0  0  0  0  0  0  0  0  0  0  0  0
    1.9550   61.0322   76.4143 H   0  0  0  0  0  0  0  0  0  0  0  0
    4.0815   58.2543   73.8719 H   0  0  0  0  0  0  0  0  0  0  0  0
    4.3231   57.6001   80.3939 H   0  0  0  0  0  0  0  0  0  0  0  0
    5.7059   58.4058   79.5784 H   0  0  0  0  0  0  0  0  0  0  0  0
    4.0865   59.1830   79.5784 H   0  0  0  0  0  0  0  0  0  0  0  0
    5.2978   56.2927   76.6594 H   0  0  0  0  0  0  0  0  0  0  0  0
    2.5199   62.3224   69.2500 H   0  0  0  0  0  0  0  0  0  0  0  0
   -0.8211   66.1439   72.0947 H   0  0  0  0  0  0  0  0  0  0  0  0
    0.1231   64.6771   69.1043 H   0  0  0  0  0  0  0  0  0  0  0  0
   -0.7895   65.6179   70.3647 H   0  0  0  0  0  0  0  0  0  0  0  0
    1.9338   66.5176   70.5515 H   0  0  0  0  0  0  0  0  0  0  0  0
   -1.0329   67.5805   68.3494 H   0  0  0  0  0  0  0  0  0  0  0  0
    0.1243   68.3744   67.2281 H   0  0  0  0  0  0  0  0  0  0  0  0
   -0.0429   66.5859   67.2281 H   0  0  0  0  0  0  0  0  0  0  0  0
    1.9626   69.0962   69.7888 H   0  0  0  0  0  0  0  0  0  0  0  0
    3.0503   68.0343   68.7875 H   0  0  0  0  0  0  0  0  0  0  0  0
    0.9239   69.2139   67.1743 H   0  0  0  0  0  0  0  0  0  0  0  0
    1.9110   70.4735   68.0207 H   0  0  0  0  0  0  0  0  0  0  0  0
    2.7384   68.6940   65.7479 H   0  0  0  0  0  0  0  0  0  0  0  0
    4.4843   69.9568   68.8654 H   0  0  0  0  0  0  0  0  0  0  0  0
    5.9449   70.3569   67.8994 H   0  0  0  0  0  0  0  0  0  0  0  0
    4.5353   71.4703   67.8994 H   0  0  0  0  0  0  0  0  0  0  0  0
    6.2317   69.1931   66.0577 H   0  0  0  0  0  0  0  0  0  0  0  0
    4.8929   68.6014   65.0165 H   0  0  0  0  0  0  0  0  0  0  0  0
    5.3277   70.3443   65.0165 H   0  0  0  0  0  0  0  0  0  0  0  0
  2  1  1  0
  3  2  1  0
  4  3  2  0
  5  3  1  0
  6  5  2  0
  7  6  1  0
  7  1  1  0
  8  6  1  0
  9  8  2  0
 10  9  1  0
 11 10  2  0
 11  5  1  0
 13 12  2  0
 14 13  1  0
 15 14  2  0
 15  1  1  0
 16 15  1  0
 17 16  2  0
 17 12  1  0
 19 18  1  0
 19 12  1  0
 20 17  1  0
 21 11  1  0
 22  9  1  0
 23 10  1  0
 24 23  1  0
 25 24  2  0
 26 25  1  0
 27 25  1  0
 28 27  1  0
 29 28  1  0
 30 29  2  3
 31 30  1  0
 32 30  1  0
  1 33  1  6
  2 34  1  0
  2 35  1  0
  8 36  1  0
 13 37  1  0
 14 38  1  0
 16 39  1  0
 18 40  1  0
 18 41  1  0
 18 42  1  0
 20 43  1  0
 21 44  1  0
 22 45  1  0
 23 46  1  0
 23 47  1  0
 24 48  1  0
 26 49  1  0
 26 50  1  0
 26 51  1  0
 27 52  1  0
 27 53  1  0
 28 54  1  0
 28 55  1  0
 29 56  1  0
 31 57  1  0
 31 58  1  0
 31 59  1  0
 32 60  1  0
 32 61  1  0
 32 62  1  0
M  END
>  <score>  (2) 
-8.781

$$$$
=
     RDKit          3D

 62 64  0  0  0  0  0  0  0  0999 V2000
    0.3050   65.2690   69.9440 C   0  0  2  0  0  0  0  0  0  0  0  0
   -0.0060   65.7110   71.3670 C   0  0  0  0  0  0  0  0  0  0  0  0
    0.3820   64.5960   72.2940 C   0  0  0  0  0  0  0  0  0  0  0  0
   -0.1910   64.3840   73.3600 O   0  0  0  0  0  0  0  0  0  0  0  0
    1.5480   63.7780   71.9070 C   0  0  0  0  0  0  0  0  0  0  0  0
    2.1560   64.0400   70.6780 C   0  0  0  0  0  0  0  0  0  0  0  0
    1.7040   64.9830   69.7920 O   0  0  0  0  0  0  0  0  0  0  0  0
    3.3030   63.3430   70.3060 C   0  0  0  0  0  0  0  0  0  0  0  0
    3.8200   62.3610   71.1530 C   0  0  0  0  0  0  0  0  0  0  0  0
    3.2130   62.0580   72.3830 C   0  0  0  0  0  0  0  0  0  0  0  0
    2.0700   62.7880   72.7530 C   0  0  0  0  0  0  0  0  0  0  0  0
   -0.7500   68.3510   67.0650 C   0  0  0  0  0  0  0  0  0  0  0  0
    0.5460   68.2670   67.5800 C   0  0  0  0  0  0  0  0  0  0  0  0
    0.8760   67.2750   68.5120 C   0  0  0  0  0  0  0  0  0  0  0  0
   -0.0830   66.3510   68.9530 C   0  0  0  0  0  0  0  0  0  0  0  0
   -1.3820   66.4330   68.4300 C   0  0  0  0  0  0  0  0  0  0  0  0
   -1.7060   67.4240   67.5020 C   0  0  0  0  0  0  0  0  0  0  0  0
   -0.9150   69.0180   64.7820 C   0  0  0  0  0  0  0  0  0  0  0  0
   -1.1760   69.2790   66.1530 O   0  0  0  0  0  0  0  0  0  0  0  0
   -2.9800   67.4960   67.0040 O   0  0  0  0  0  0  0  0  0  0  0  0
    1.4940   62.5070   73.9680 O   0  0  0  0  0  0  0  0  0  0  0  0
    4.9370   61.6690   70.7750 O   0  0  0  0  0  0  0  0  0  0  0  0
    3.7990   61.0100   73.3050 C   0  0  0  0  0  0  0  0  0  0  0  0
    2.9030   59.8050   73.4480 C   0  0  0  0  0  0  0  0  0  0  0  0
    2.7180   58.7860   72.5850 C   0  0  0  0  0  0  0  0  0  0  0  0
    3.4380   58.6290   71.2730 C   0  0  0  0  0  0  0  0  0  0  0  0
    1.7530   57.6640   72.9280 C   0  0  0  0  0  0  0  0  0  0  0  0
    0.6510   58.1070   73.8970 C   0  0  0  0  0  0  0  0  0  0  0  0
    0.0220   59.4030   73.4570 C   0  0  0  0  0  0  0  0  0  0  0  0
   -1.1850   59.8910   73.8030 C   0  0  0  0  0  0  0  0  0  0  0  0
   -2.1390   59.2360   74.7640 C   0  0  0  0  0  0  0  0  0  0  0  0
   -1.6770   61.1970   73.2360 C   0  0  0  0  0  0  0  0  0  0  0  0
   -0.2778   64.3577   69.7445 H   0  0  0  0  0  0  0  0  0  0  0  0
    0.5691   66.6164   71.6108 H   0  0  0  0  0  0  0  0  0  0  0  0
   -1.0770   65.9393   71.4709 H   0  0  0  0  0  0  0  0  0  0  0  0
    3.7990   63.5651   69.3496 H   0  0  0  0  0  0  0  0  0  0  0  0
    1.3122   68.9846   67.2514 H   0  0  0  0  0  0  0  0  0  0  0  0
    1.9023   67.2196   68.9040 H   0  0  0  0  0  0  0  0  0  0  0  0
   -2.1487   65.7132   68.7526 H   0  0  0  0  0  0  0  0  0  0  0  0
   -0.1395   68.2425   64.6976 H   0  0  0  0  0  0  0  0  0  0  0  0
   -1.8367   68.6696   64.2931 H   0  0  0  0  0  0  0  0  0  0  0  0
   -0.5666   69.9397   64.2931 H   0  0  0  0  0  0  0  0  0  0  0  0
   -3.2152   68.1969   66.3456 H   0  0  0  0  0  0  0  0  0  0  0  0
    0.6880   63.0021   74.2600 H   0  0  0  0  0  0  0  0  0  0  0  0
    5.3112   60.9707   71.3687 H   0  0  0  0  0  0  0  0  0  0  0  0
    4.7678   60.6838   72.8987 H   0  0  0  0  0  0  0  0  0  0  0  0
    3.9121   61.4642   74.3005 H   0  0  0  0  0  0  0  0  0  0  0  0
    2.3231   59.7504   74.3811 H   0  0  0  0  0  0  0  0  0  0  0  0
    4.4969   58.3981   71.4612 H   0  0  0  0  0  0  0  0  0  0  0  0
    2.9804   57.8095   70.6994 H   0  0  0  0  0  0  0  0  0  0  0  0
    3.3631   59.5646   70.6994 H   0  0  0  0  0  0  0  0  0  0  0  0
    1.2829   57.3080   71.9994 H   0  0  0  0  0  0  0  0  0  0  0  0
    2.3303   56.8689   73.4225 H   0  0  0  0  0  0  0  0  0  0  0  0
   -0.1247   57.3281   73.9374 H   0  0  0  0  0  0  0  0  0  0  0  0
    1.1021   58.2597   74.8885 H   0  0  0  0  0  0  0  0  0  0  0  0
    0.6185   60.0241   72.7726 H   0  0  0  0  0  0  0  0  0  0  0  0
   -1.8253   59.4514   75.7961 H   0  0  0  0  0  0  0  0  0  0  0  0
   -3.1530   59.6293   74.5993 H   0  0  0  0  0  0  0  0  0  0  0  0
   -2.1363   58.1484   74.5993 H   0  0  0  0  0  0  0  0  0  0  0  0
   -1.9344   61.8802   74.0588 H   0  0  0  0  0  0  0  0  0  0  0  0
   -0.8875   61.6489   72.6176 H   0  0  0  0  0  0  0  0  0  0  0  0
   -2.5684   61.0156   72.6176 H   0  0  0  0  0  0  0  0  0  0  0  0
  2  1  1  0
  3  2  1  0
  4  3  2  0
  5  3  1  0
  6  5  2  0
  7  6  1  0
  7  1  1  0
  8  6  1  0
  9  8  2  0
 10  9  1  0
 11 10  2  0
 11  5  1  0
 13 12  2  0
 14 13  1  0
 15 14  2  0
 15  1  1  0
 16 15  1  0
 17 16  2  0
 17 12  1  0
 19 18  1  0
 19 12  1  0
 20 17  1  0
 21 11  1  0
 22  9  1  0
 23 10  1  0
 24 23  1  0
 25 24  2  0
 26 25  1  0
 27 25  1  0
 28 27  1  0
 29 28  1  0
 30 29  2  3
 31 30  1  0
 32 30  1  0
  1 33  1  6
  2 34  1  0
  2 35  1  0
  8 36  1  0
 13 37  1  0
 14 38  1  0
 16 39  1  0
 18 40  1  0
 18 41  1  0
 18 42  1  0
 20 43  1  0
 21 44  1  0
 22 45  1  0
 23 46  1  0
 23 47  1  0
 24 48  1  0
 26 49  1  0
 26 50  1  0
 26 51  1  0
 27 52  1  0
 27 53  1  0
 28 54  1  0
 28 55  1  0
 29 56  1  0
 31 57  1  0
 31 58  1  0
 31 59  1  0
 32 60  1  0
 32 61  1  0
 32 62  1  0
M  END
>  <score>  (3) 
-8.769

$$$$
=
     RDKit          3D

 62 64  0  0  0  0  0  0  0  0999 V2000
    0.3860   65.2000   69.9520 C   0  0  2  0  0  0  0  0  0  0  0  0
   -0.0010   65.5210   71.3890 C   0  0  0  0  0  0  0  0  0  0  0  0
    0.4100   64.3630   72.2510 C   0  0  0  0  0  0  0  0  0  0  0  0
   -0.1910   64.0460   73.2740 O   0  0  0  0  0  0  0  0  0  0  0  0
    1.6320   63.6350   71.8560 C   0  0  0  0  0  0  0  0  0  0  0  0
    2.2710   64.0150   70.6750 C   0  0  0  0  0  0  0  0  0  0  0  0
    1.8040   64.9960   69.8400 O   0  0  0  0  0  0  0  0  0  0  0  0
    3.4660   63.4050   70.3030 C   0  0  0  0  0  0  0  0  0  0  0  0
    4.0020   62.3910   71.0990 C   0  0  0  0  0  0  0  0  0  0  0  0
    3.3660   61.9710   72.2780 C   0  0  0  0  0  0  0  0  0  0  0  0
    2.1720   62.6140   72.6510 C   0  0  0  0  0  0  0  0  0  0  0  0
   -0.7260   68.4190   67.2510 C   0  0  0  0  0  0  0  0  0  0  0  0
    0.5970   68.2620   67.6690 C   0  0  0  0  0  0  0  0  0  0  0  0
    0.9470   67.2260   68.5450 C   0  0  0  0  0  0  0  0  0  0  0  0
   -0.0200   66.3300   69.0250 C   0  0  0  0  0  0  0  0  0  0  0  0
   -1.3470   66.4860   68.5990 C   0  0  0  0  0  0  0  0  0  0  0  0
   -1.6910   67.5210   67.7270 C   0  0  0  0  0  0  0  0  0  0  0  0
   -1.1810   69.0990   65.0110 C   0  0  0  0  0  0  0  0  0  0  0  0
   -1.1720   69.3940   66.4000 O   0  0  0  0  0  0  0  0  0  0  0  0
   -2.9920   67.6640   67.3240 O   0  0  0  0  0  0  0  0  0  0  0  0
    1.5660   62.2160   73.8180 O   0  0  0  0  0  0  0  0  0  0  0  0
    5.1680   61.7850   70.7200 O   0  0  0  0  0  0  0  0  0  0  0  0
    3.9710   60.8890   73.1480 C   0  0  0  0  0  0  0  0  0  0  0  0
    3.1690   59.6110   73.1160 C   0  0  0  0  0  0  0  0  0  0  0  0
    3.0180   58.7370   72.1010 C   0  0  0  0  0  0  0  0  0  0  0  0
    3.6870   58.8530   70.7590 C   0  0  0  0  0  0  0  0  0  0  0  0
    2.1520   57.5020   72.2840 C   0  0  0  0  0  0  0  0  0  0  0  0
    1.2700   57.5790   73.5360 C   0  0  0  0  0  0  0  0  0  0  0  0
    0.4230   56.3420   73.6860 C   0  0  0  0  0  0  0  0  0  0  0  0
    0.7940   55.1450   74.1800 C   0  0  0  0  0  0  0  0  0  0  0  0
    2.1540   54.8250   74.7360 C   0  0  0  0  0  0  0  0  0  0  0  0
   -0.1790   53.9970   74.2240 C   0  0  0  0  0  0  0  0  0  0  0  0
   -0.1406   64.2784   69.6634 H   0  0  0  0  0  0  0  0  0  0  0  0
    0.5158   66.4340   71.7195 H   0  0  0  0  0  0  0  0  0  0  0  0
   -1.0859   65.6866   71.4642 H   0  0  0  0  0  0  0  0  0  0  0  0
    3.9854   63.7206   69.3861 H   0  0  0  0  0  0  0  0  0  0  0  0
    1.3699   68.9565   67.3080 H   0  0  0  0  0  0  0  0  0  0  0  0
    1.9947   67.1136   68.8608 H   0  0  0  0  0  0  0  0  0  0  0  0
   -2.1209   65.7894   68.9536 H   0  0  0  0  0  0  0  0  0  0  0  0
   -1.2143   68.0089   64.8679 H   0  0  0  0  0  0  0  0  0  0  0  0
   -2.0656   69.5572   64.5446 H   0  0  0  0  0  0  0  0  0  0  0  0
   -0.2701   69.5024   64.5446 H   0  0  0  0  0  0  0  0  0  0  0  0
   -3.2411   68.3961   66.7059 H   0  0  0  0  0  0  0  0  0  0  0  0
    0.7243   62.6472   74.1107 H   0  0  0  0  0  0  0  0  0  0  0  0
    5.5558   61.0650   71.2780 H   0  0  0  0  0  0  0  0  0  0  0  0
    4.9893   60.6763   72.7906 H   0  0  0  0  0  0  0  0  0  0  0  0
    3.9768   61.2560   74.1850 H   0  0  0  0  0  0  0  0  0  0  0  0
    2.6366   59.3591   74.0450 H   0  0  0  0  0  0  0  0  0  0  0  0
    4.7619   59.0394   70.9000 H   0  0  0  0  0  0  0  0  0  0  0  0
    3.5477   57.9173   70.1977 H   0  0  0  0  0  0  0  0  0  0  0  0
    3.2408   59.6872   70.1977 H   0  0  0  0  0  0  0  0  0  0  0  0
    1.5032   57.3932   71.4024 H   0  0  0  0  0  0  0  0  0  0  0  0
    2.8239   56.6392   72.4030 H   0  0  0  0  0  0  0  0  0  0  0  0
    1.9137   57.6821   74.4220 H   0  0  0  0  0  0  0  0  0  0  0  0
    0.6019   58.4473   73.4371 H   0  0  0  0  0  0  0  0  0  0  0  0
   -0.6219   56.4263   73.3527 H   0  0  0  0  0  0  0  0  0  0  0  0
    2.1123   54.8348   75.8352 H   0  0  0  0  0  0  0  0  0  0  0  0
    2.4666   53.8288   74.3898 H   0  0  0  0  0  0  0  0  0  0  0  0
    2.8780   55.5773   74.3898 H   0  0  0  0  0  0  0  0  0  0  0  0
   -0.3964   53.7405   75.2714 H   0  0  0  0  0  0  0  0  0  0  0  0
   -1.1109   54.2866   73.7164 H   0  0  0  0  0  0  0  0  0  0  0  0
    0.2594   53.1251   73.7164 H   0  0  0  0  0  0  0  0  0  0  0  0
  2  1  1  0
  3  2  1  0
  4  3  2  0
  5  3  1  0
  6  5  2  0
  7  6  1  0
  7  1  1  0
  8  6  1  0
  9  8  2  0
 10  9  1  0
 11 10  2  0
 11  5  1  0
 13 12  2  0
 14 13  1  0
 15 14  2  0
 15  1  1  0
 16 15  1  0
 17 16  2  0
 17 12  1  0
 19 18  1  0
 19 12  1  0
 20 17  1  0
 21 11  1  0
 22  9  1  0
 23 10  1  0
 24 23  1  0
 25 24  2  0
 26 25  1  0
 27 25  1  0
 28 27  1  0
 29 28  1  0
 30 29  2  3
 31 30  1  0
 32 30  1  0
  1 33  1  6
  2 34  1  0
  2 35  1  0
  8 36  1  0
 13 37  1  0
 14 38  1  0
 16 39  1  0
 18 40  1  0
 18 41  1  0
 18 42  1  0
 20 43  1  0
 21 44  1  0
 22 45  1  0
 23 46  1  0
 23 47  1  0
 24 48  1  0
 26 49  1  0
 26 50  1  0
 26 51  1  0
 27 52  1  0
 27 53  1  0
 28 54  1  0
 28 55  1  0
 29 56  1  0
 31 57  1  0
 31 58  1  0
 31 59  1  0
 32 60  1  0
 32 61  1  0
 32 62  1  0
M  END
>  <score>  (4) 
-8.66

$$$$
=
     RDKit          3D

 62 64  0  0  0  0  0  0  0  0999 V2000
    0.7200   59.9160   73.4320 C   0  0  2  0  0  0  0  0  0  0  0  0
   -0.6130   60.5870   73.7360 C   0  0  0  0  0  0  0  0  0  0  0  0
   -0.4530   62.0620   73.5090 C   0  0  0  0  0  0  0  0  0  0  0  0
   -1.0870   62.9060   74.1380 O   0  0  0  0  0  0  0  0  0  0  0  0
    0.4680   62.4780   72.4340 C   0  0  0  0  0  0  0  0  0  0  0  0
    1.1830   61.4870   71.7600 C   0  0  0  0  0  0  0  0  0  0  0  0
    1.1120   60.1550   72.0710 O   0  0  0  0  0  0  0  0  0  0  0  0
    2.0070   61.8290   70.6900 C   0  0  0  0  0  0  0  0  0  0  0  0
    2.1370   63.1680   70.3180 C   0  0  0  0  0  0  0  0  0  0  0  0
    1.4500   64.1880   70.9960 C   0  0  0  0  0  0  0  0  0  0  0  0
    0.6040   63.8230   72.0580 C   0  0  0  0  0  0  0  0  0  0  0  0
    0.3950   55.6260   74.0500 C   0  0  0  0  0  0  0  0  0  0  0  0
   -0.6650   56.4760   74.3710 C   0  0  0  0  0  0  0  0  0  0  0  0
   -0.5510   57.8580   74.1760 C   0  0  0  0  0  0  0  0  0  0  0  0
    0.6280   58.4190   73.6600 C   0  0  0  0  0  0  0  0  0  0  0  0
    1.6890   57.5630   73.3330 C   0  0  0  0  0  0  0  0  0  0  0  0
    1.5700   56.1850   73.5300 C   0  0  0  0  0  0  0  0  0  0  0  0
   -0.6980   53.6920   74.9170 C   0  0  0  0  0  0  0  0  0  0  0  0
    0.3860   54.2650   74.2020 O   0  0  0  0  0  0  0  0  0  0  0  0
    2.6170   55.3620   73.2100 O   0  0  0  0  0  0  0  0  0  0  0  0
   -0.0850   64.8210   72.7020 O   0  0  0  0  0  0  0  0  0  0  0  0
    2.9590   63.4980   69.2770 O   0  0  0  0  0  0  0  0  0  0  0  0
    1.5780   65.6340   70.5660 C   0  0  0  0  0  0  0  0  0  0  0  0
    0.5630   66.0130   69.5160 C   0  0  0  0  0  0  0  0  0  0  0  0
    0.5520   67.0890   68.7040 C   0  0  0  0  0  0  0  0  0  0  0  0
    1.6260   68.1430   68.6600 C   0  0  0  0  0  0  0  0  0  0  0  0
   -0.5810   67.2830   67.7120 C   0  0  0  0  0  0  0  0  0  0  0  0
   -0.6350   68.7070   67.1460 C   0  0  0  0  0  0  0  0  0  0  0  0
   -0.7430   68.6970   65.6440 C   0  0  0  0  0  0  0  0  0  0  0  0
    0.2620   68.7100   64.7470 C   0  0  0  0  0  0  0  0  0  0  0  0
    1.7270   68.6870   65.0900 C   0  0  0  0  0  0  0  0  0  0  0  0
   -0.0280   68.7340   63.2700 C   0  0  0  0  0  0  0  0  0  0  0  0
    1.4718   60.3467   74.1097 H   0  0  0  0  0  0  0  0  0  0  0  0
   -1.3918   60.1891   73.0688 H   0  0  0  0  0  0  0  0  0  0  0  0
   -0.9107   60.3909   74.7766 H   0  0  0  0  0  0  0  0  0  0  0  0
    2.5526   61.0475   70.1409 H   0  0  0  0  0  0  0  0  0  0  0  0
   -1.5963   56.0572   74.7800 H   0  0  0  0  0  0  0  0  0  0  0  0
   -1.3971   58.5132   74.4307 H   0  0  0  0  0  0  0  0  0  0  0  0
    2.6198   57.9784   72.9193 H   0  0  0  0  0  0  0  0  0  0  0  0
   -0.5162   53.7881   75.9976 H   0  0  0  0  0  0  0  0  0  0  0  0
   -1.6287   54.2159   74.6538 H   0  0  0  0  0  0  0  0  0  0  0  0
   -0.7892   52.6279   74.6538 H   0  0  0  0  0  0  0  0  0  0  0  0
    2.5384   54.3847   73.3475 H   0  0  0  0  0  0  0  0  0  0  0  0
   -0.6895   64.5994   73.4541 H   0  0  0  0  0  0  0  0  0  0  0  0
    3.0580   64.4449   69.0054 H   0  0  0  0  0  0  0  0  0  0  0  0
    1.4338   66.2784   71.4458 H   0  0  0  0  0  0  0  0  0  0  0  0
    2.5787   65.7670   70.1291 H   0  0  0  0  0  0  0  0  0  0  0  0
   -0.2813   65.3181   69.3971 H   0  0  0  0  0  0  0  0  0  0  0  0
    1.9092   68.4209   69.6859 H   0  0  0  0  0  0  0  0  0  0  0  0
    2.5059   67.7481   68.1310 H   0  0  0  0  0  0  0  0  0  0  0  0
    1.2477   69.0301   68.1310 H   0  0  0  0  0  0  0  0  0  0  0  0
   -0.4437   66.5781   66.8787 H   0  0  0  0  0  0  0  0  0  0  0  0
   -1.5252   67.1021   68.2466 H   0  0  0  0  0  0  0  0  0  0  0  0
   -1.5102   69.2256   67.5644 H   0  0  0  0  0  0  0  0  0  0  0  0
    0.2948   69.2254   67.4230 H   0  0  0  0  0  0  0  0  0  0  0  0
   -1.7622   68.6767   65.2308 H   0  0  0  0  0  0  0  0  0  0  0  0
    1.8476   68.6851   66.1834 H   0  0  0  0  0  0  0  0  0  0  0  0
    2.1881   67.7815   64.6687 H   0  0  0  0  0  0  0  0  0  0  0  0
    2.2163   69.5776   64.6687 H   0  0  0  0  0  0  0  0  0  0  0  0
   -1.1127   68.8238   63.1107 H   0  0  0  0  0  0  0  0  0  0  0  0
    0.4825   69.5930   62.8100 H   0  0  0  0  0  0  0  0  0  0  0  0
    0.3343   67.8028   62.8100 H   0  0  0  0  0  0  0  0  0  0  0  0
  2  1  1  0
  3  2  1  0
  4  3  2  0
  5  3  1  0
  6  5  2  0
  7  6  1  0
  7  1  1  0
  8  6  1  0
  9  8  2  0
 10  9  1  0
 11 10  2  0
 11  5  1  0
 13 12  2  0
 14 13  1  0
 15 14  2  0
 15  1  1  0
 16 15  1  0
 17 16  2  0
 17 12  1  0
 19 18  1  0
 19 12  1  0
 20 17  1  0
 21 11  1  0
 22  9  1  0
 23 10  1  0
 24 23  1  0
 25 24  2  0
 26 25  1  0
 27 25  1  0
 28 27  1  0
 29 28  1  0
 30 29  2  3
 31 30  1  0
 32 30  1  0
  1 33  1  1
  2 34  1  0
  2 35  1  0
  8 36  1  0
 13 37  1  0
 14 38  1  0
 16 39  1  0
 18 40  1  0
 18 41  1  0
 18 42  1  0
 20 43  1  0
 21 44  1  0
 22 45  1  0
 23 46  1  0
 23 47  1  0
 24 48  1  0
 26 49  1  0
 26 50  1  0
 26 51  1  0
 27 52  1  0
 27 53  1  0
 28 54  1  0
 28 55  1  0
 29 56  1  0
 31 57  1  0
 31 58  1  0
 31 59  1  0
 32 60  1  0
 32 61  1  0
 32 62  1  0
M  END
>  <score>  (5) 
-8.419

$$$$
=
     RDKit          3D

 62 64  0  0  0  0  0  0  0  0999 V2000
    2.1320   61.5910   74.9570 C   0  0  2  0  0  0  0  0  0  0  0  0
    0.7350   62.0290   75.3740 C   0  0  0  0  0  0  0  0  0  0  0  0
    0.3380   63.1930   74.5130 C   0  0  0  0  0  0  0  0  0  0  0  0
   -0.4130   64.0840   74.9020 O   0  0  0  0  0  0  0  0  0  0  0  0
    0.8390   63.2020   73.1250 C   0  0  0  0  0  0  0  0  0  0  0  0
    1.7060   62.1810   72.7320 C   0  0  0  0  0  0  0  0  0  0  0  0
    2.1530   61.1970   73.5750 O   0  0  0  0  0  0  0  0  0  0  0  0
    2.1440   62.1090   71.4120 C   0  0  0  0  0  0  0  0  0  0  0  0
    1.7380   63.0800   70.4950 C   0  0  0  0  0  0  0  0  0  0  0  0
    0.8880   64.1330   70.8700 C   0  0  0  0  0  0  0  0  0  0  0  0
    0.4360   64.1770   72.2000 C   0  0  0  0  0  0  0  0  0  0  0  0
    3.4060   58.2340   77.4080 C   0  0  0  0  0  0  0  0  0  0  0  0
    2.6160   59.2530   77.9460 C   0  0  0  0  0  0  0  0  0  0  0  0
    2.2150   60.3350   77.1520 C   0  0  0  0  0  0  0  0  0  0  0  0
    2.6000   60.4230   75.8050 C   0  0  0  0  0  0  0  0  0  0  0  0
    3.3880   59.3960   75.2660 C   0  0  0  0  0  0  0  0  0  0  0  0
    3.7860   58.3200   76.0620 C   0  0  0  0  0  0  0  0  0  0  0  0
    4.6390   57.3640   79.2540 C   0  0  0  0  0  0  0  0  0  0  0  0
    3.8500   57.1370   78.0960 O   0  0  0  0  0  0  0  0  0  0  0  0
    4.5600   57.3270   75.5230 O   0  0  0  0  0  0  0  0  0  0  0  0
   -0.4150   65.1940   72.5560 O   0  0  0  0  0  0  0  0  0  0  0  0
    2.1840   63.0120   69.2040 O   0  0  0  0  0  0  0  0  0  0  0  0
    0.4320   65.1640   69.8590 C   0  0  0  0  0  0  0  0  0  0  0  0
    1.2810   66.4110   69.8890 C   0  0  0  0  0  0  0  0  0  0  0  0
    1.2910   67.4440   69.0220 C   0  0  0  0  0  0  0  0  0  0  0  0
    0.3820   67.5750   67.8300 C   0  0  0  0  0  0  0  0  0  0  0  0
    2.2400   68.6100   69.2390 C   0  0  0  0  0  0  0  0  0  0  0  0
    2.2130   69.6170   68.0840 C   0  0  0  0  0  0  0  0  0  0  0  0
    3.5850   69.8100   67.4920 C   0  0  0  0  0  0  0  0  0  0  0  0
    4.0080   69.4550   66.2630 C   0  0  0  0  0  0  0  0  0  0  0  0
    3.1490   68.8240   65.2020 C   0  0  0  0  0  0  0  0  0  0  0  0
    5.4350   69.6910   65.8450 C   0  0  0  0  0  0  0  0  0  0  0  0
    2.8060   62.4480   75.1030 H   0  0  0  0  0  0  0  0  0  0  0  0
    0.0258   61.2003   75.2317 H   0  0  0  0  0  0  0  0  0  0  0  0
    0.7257   62.3178   76.4354 H   0  0  0  0  0  0  0  0  0  0  0  0
    2.8067   61.2909   71.0935 H   0  0  0  0  0  0  0  0  0  0  0  0
    2.3067   59.2052   79.0006 H   0  0  0  0  0  0  0  0  0  0  0  0
    1.5897   61.1268   77.5901 H   0  0  0  0  0  0  0  0  0  0  0  0
    3.6943   59.4382   74.2104 H   0  0  0  0  0  0  0  0  0  0  0  0
    4.0297   57.1887   80.1529 H   0  0  0  0  0  0  0  0  0  0  0  0
    5.4977   56.6765   79.2532 H   0  0  0  0  0  0  0  0  0  0  0  0
    5.0010   58.4027   79.2532 H   0  0  0  0  0  0  0  0  0  0  0  0
    4.8447   56.5621   76.0833 H   0  0  0  0  0  0  0  0  0  0  0  0
   -0.7525   65.2548   73.4847 H   0  0  0  0  0  0  0  0  0  0  0  0
    1.9018   63.6959   68.5461 H   0  0  0  0  0  0  0  0  0  0  0  0
    0.4883   64.7220   68.8533 H   0  0  0  0  0  0  0  0  0  0  0  0
   -0.5983   65.4525   70.1144 H   0  0  0  0  0  0  0  0  0  0  0  0
    1.9857   66.4878   70.7301 H   0  0  0  0  0  0  0  0  0  0  0  0
   -0.6526   67.7241   68.1725 H   0  0  0  0  0  0  0  0  0  0  0  0
    0.6952   68.4373   67.2231 H   0  0  0  0  0  0  0  0  0  0  0  0
    0.4390   66.6594   67.2231 H   0  0  0  0  0  0  0  0  0  0  0  0
    1.9535   69.1293   70.1654 H   0  0  0  0  0  0  0  0  0  0  0  0
    3.2596   68.2018   69.3003 H   0  0  0  0  0  0  0  0  0  0  0  0
    1.5343   69.2464   67.3016 H   0  0  0  0  0  0  0  0  0  0  0  0
    1.8653   70.5843   68.4756 H   0  0  0  0  0  0  0  0  0  0  0  0
    4.3287   70.2980   68.1391 H   0  0  0  0  0  0  0  0  0  0  0  0
    2.3499   68.2370   65.6783 H   0  0  0  0  0  0  0  0  0  0  0  0
    2.7027   69.6106   64.5758 H   0  0  0  0  0  0  0  0  0  0  0  0
    3.7661   68.1629   64.5758 H   0  0  0  0  0  0  0  0  0  0  0  0
    6.0666   69.7955   66.7395 H   0  0  0  0  0  0  0  0  0  0  0  0
    5.7870   68.8389   65.2450 H   0  0  0  0  0  0  0  0  0  0  0  0
    5.4939   70.6111   65.2450 H   0  0  0  0  0  0  0  0  0  0  0  0
  2  1  1  0
  3  2  1  0
  4  3  2  0
  5  3  1  0
  6  5  2  0
  7  6  1  0
  7  1  1  0
  8  6  1  0
  9  8  2  0
 10  9  1  0
 11 10  2  0
 11  5  1  0
 13 12  2  0
 14 13  1  0
 15 14  2  0
 15  1  1  0
 16 15  1  0
 17 16  2  0
 17 12  1  0
 19 18  1  0
 19 12  1  0
 20 17  1  0
 21 11  1  0
 22  9  1  0
 23 10  1  0
 24 23  1  0
 25 24  2  0
 26 25  1  0
 27 25  1  0
 28 27  1  0
 29 28  1  0
 30 29  2  3
 31 30  1  0
 32 30  1  0
  1 33  1  6
  2 34  1  0
  2 35  1  0
  8 36  1  0
 13 37  1  0
 14 38  1  0
 16 39  1  0
 18 40  1  0
 18 41  1  0
 18 42  1  0
 20 43  1  0
 21 44  1  0
 22 45  1  0
 23 46  1  0
 23 47  1  0
 24 48  1  0
 26 49  1  0
 26 50  1  0
 26 51  1  0
 27 52  1  0
 27 53  1  0
 28 54  1  0
 28 55  1  0
 29 56  1  0
 31 57  1  0
 31 58  1  0
 31 59  1  0
 32 60  1  0
 32 61  1  0
 32 62  1  0
M  END
>  <score>  (6) 
-7.961

$$$$
=
     RDKit          3D

 62 64  0  0  0  0  0  0  0  0999 V2000
    0.7310   64.7930   70.4170 C   0  0  2  0  0  0  0  0  0  0  0  0
    0.2350   65.0650   71.8310 C   0  0  0  0  0  0  0  0  0  0  0  0
    0.5430   63.8600   72.6710 C   0  0  0  0  0  0  0  0  0  0  0  0
   -0.1490   63.5190   73.6270 O   0  0  0  0  0  0  0  0  0  0  0  0
    1.7730   63.1120   72.3440 C   0  0  0  0  0  0  0  0  0  0  0  0
    2.5170   63.5210   71.2370 C   0  0  0  0  0  0  0  0  0  0  0  0
    2.1470   64.5500   70.4110 O   0  0  0  0  0  0  0  0  0  0  0  0
    3.7220   62.8910   70.9360 C   0  0  0  0  0  0  0  0  0  0  0  0
    4.1630   61.8290   71.7280 C   0  0  0  0  0  0  0  0  0  0  0  0
    3.4210   61.3790   72.8320 C   0  0  0  0  0  0  0  0  0  0  0  0
    2.2190   62.0420   73.1350 C   0  0  0  0  0  0  0  0  0  0  0  0
   -0.1860   68.1800   67.8520 C   0  0  0  0  0  0  0  0  0  0  0  0
   -1.1020   67.1390   68.0160 C   0  0  0  0  0  0  0  0  0  0  0  0
   -0.7970   66.0480   68.8390 C   0  0  0  0  0  0  0  0  0  0  0  0
    0.4330   65.9720   69.5110 C   0  0  0  0  0  0  0  0  0  0  0  0
    1.3490   67.0210   69.3490 C   0  0  0  0  0  0  0  0  0  0  0  0
    1.0400   68.1070   68.5270 C   0  0  0  0  0  0  0  0  0  0  0  0
   -1.4370   69.2410   66.1210 C   0  0  0  0  0  0  0  0  0  0  0  0
   -0.3850   69.2890   67.0740 O   0  0  0  0  0  0  0  0  0  0  0  0
    1.9470   69.1220   68.3750 O   0  0  0  0  0  0  0  0  0  0  0  0
    1.5080   61.6150   74.2300 O   0  0  0  0  0  0  0  0  0  0  0  0
    5.3390   61.2050   71.4190 O   0  0  0  0  0  0  0  0  0  0  0  0
    3.9230   60.2440   73.6990 C   0  0  0  0  0  0  0  0  0  0  0  0
    3.1710   58.9600   73.4560 C   0  0  0  0  0  0  0  0  0  0  0  0
    2.7040   58.0730   74.3570 C   0  0  0  0  0  0  0  0  0  0  0  0
    2.8110   58.2280   75.8500 C   0  0  0  0  0  0  0  0  0  0  0  0
    1.9700   56.8280   73.8900 C   0  0  0  0  0  0  0  0  0  0  0  0
    0.4970   56.8140   74.3170 C   0  0  0  0  0  0  0  0  0  0  0  0
   -0.2370   58.0190   73.7910 C   0  0  0  0  0  0  0  0  0  0  0  0
   -0.8350   58.9940   74.5030 C   0  0  0  0  0  0  0  0  0  0  0  0
   -0.8390   59.0880   76.0040 C   0  0  0  0  0  0  0  0  0  0  0  0
   -1.5620   60.1150   73.8100 C   0  0  0  0  0  0  0  0  0  0  0  0
    0.2055   63.9006   70.0463 H   0  0  0  0  0  0  0  0  0  0  0  0
    0.7466   65.9475   72.2426 H   0  0  0  0  0  0  0  0  0  0  0  0
   -0.8476   65.2598   71.8251 H   0  0  0  0  0  0  0  0  0  0  0  0
    4.3232   63.2283   70.0788 H   0  0  0  0  0  0  0  0  0  0  0  0
   -2.0701   67.1762   67.4950 H   0  0  0  0  0  0  0  0  0  0  0  0
   -1.5320   65.2387   68.9607 H   0  0  0  0  0  0  0  0  0  0  0  0
    2.3161   66.9885   69.8721 H   0  0  0  0  0  0  0  0  0  0  0  0
   -2.4037   69.1969   66.6439 H   0  0  0  0  0  0  0  0  0  0  0  0
   -1.4019   70.1417   65.4905 H   0  0  0  0  0  0  0  0  0  0  0  0
   -1.3201   68.3473   65.4905 H   0  0  0  0  0  0  0  0  0  0  0  0
    1.7330   69.8941   67.7935 H   0  0  0  0  0  0  0  0  0  0  0  0
    0.6572   62.0597   74.4719 H   0  0  0  0  0  0  0  0  0  0  0  0
    5.6602   60.4511   71.9744 H   0  0  0  0  0  0  0  0  0  0  0  0
    4.9880   60.0766   73.4803 H   0  0  0  0  0  0  0  0  0  0  0  0
    3.7678   60.5302   74.7497 H   0  0  0  0  0  0  0  0  0  0  0  0
    2.9774   58.7140   72.4015 H   0  0  0  0  0  0  0  0  0  0  0  0
    2.2525   57.4190   76.3436 H   0  0  0  0  0  0  0  0  0  0  0  0
    3.8685   58.1789   76.1489 H   0  0  0  0  0  0  0  0  0  0  0  0
    2.3902   59.1994   76.1489 H   0  0  0  0  0  0  0  0  0  0  0  0
    2.0185   56.7820   72.7920 H   0  0  0  0  0  0  0  0  0  0  0  0
    2.4591   55.9597   74.3557 H   0  0  0  0  0  0  0  0  0  0  0  0
    0.0190   55.9041   73.9251 H   0  0  0  0  0  0  0  0  0  0  0  0
    0.4541   56.8339   75.4160 H   0  0  0  0  0  0  0  0  0  0  0  0
   -0.2914   58.1145   72.6965 H   0  0  0  0  0  0  0  0  0  0  0  0
   -0.7960   58.0768   76.4348 H   0  0  0  0  0  0  0  0  0  0  0  0
    0.0354   59.6662   76.3375 H   0  0  0  0  0  0  0  0  0  0  0  0
   -1.7593   59.5898   76.3375 H   0  0  0  0  0  0  0  0  0  0  0  0
   -1.9989   60.7887   74.5618 H   0  0  0  0  0  0  0  0  0  0  0  0
   -0.8556   60.6765   73.1809 H   0  0  0  0  0  0  0  0  0  0  0  0
   -2.3627   59.6991   73.1809 H   0  0  0  0  0  0  0  0  0  0  0  0
  2  1  1  0
  3  2  1  0
  4  3  2  0
  5  3  1  0
  6  5  2  0
  7  6  1  0
  7  1  1  0
  8  6  1  0
  9  8  2  0
 10  9  1  0
 11 10  2  0
 11  5  1  0
 13 12  2  0
 14 13  1  0
 15 14  2  0
 15  1  1  0
 16 15  1  0
 17 16  2  0
 17 12  1  0
 19 18  1  0
 19 12  1  0
 20 17  1  0
 21 11  1  0
 22  9  1  0
 23 10  1  0
 24 23  1  0
 25 24  2  0
 26 25  1  0
 27 25  1  0
 28 27  1  0
 29 28  1  0
 30 29  2  3
 31 30  1  0
 32 30  1  0
  1 33  1  6
  2 34  1  0
  2 35  1  0
  8 36  1  0
 13 37  1  0
 14 38  1  0
 16 39  1  0
 18 40  1  0
 18 41  1  0
 18 42  1  0
 20 43  1  0
 21 44  1  0
 22 45  1  0
 23 46  1  0
 23 47  1  0
 24 48  1  0
 26 49  1  0
 26 50  1  0
 26 51  1  0
 27 52  1  0
 27 53  1  0
 28 54  1  0
 28 55  1  0
 29 56  1  0
 31 57  1  0
 31 58  1  0
 31 59  1  0
 32 60  1  0
 32 61  1  0
 32 62  1  0
M  END
>  <score>  (7) 
-7.957

$$$$
=
     RDKit          3D

 62 64  0  0  0  0  0  0  0  0999 V2000
   -2.5070   59.4630   75.0560 C   0  0  2  0  0  0  0  0  0  0  0  0
   -2.4650   60.6780   74.1400 C   0  0  0  0  0  0  0  0  0  0  0  0
   -1.0280   60.9640   73.8140 C   0  0  0  0  0  0  0  0  0  0  0  0
   -0.6090   62.0970   73.5870 O   0  0  0  0  0  0  0  0  0  0  0  0
   -0.1210   59.8050   73.7080 C   0  0  0  0  0  0  0  0  0  0  0  0
   -0.6350   58.5400   73.9960 C   0  0  0  0  0  0  0  0  0  0  0  0
   -1.9220   58.3190   74.4130 O   0  0  0  0  0  0  0  0  0  0  0  0
    0.1650   57.4110   73.8380 C   0  0  0  0  0  0  0  0  0  0  0  0
    1.4900   57.5550   73.4230 C   0  0  0  0  0  0  0  0  0  0  0  0
    2.0410   58.8180   73.1530 C   0  0  0  0  0  0  0  0  0  0  0  0
    1.2120   59.9450   73.2940 C   0  0  0  0  0  0  0  0  0  0  0  0
   -6.5910   58.5290   76.2140 C   0  0  0  0  0  0  0  0  0  0  0  0
   -5.5090   57.9890   76.9130 C   0  0  0  0  0  0  0  0  0  0  0  0
   -4.1960   58.2890   76.5290 C   0  0  0  0  0  0  0  0  0  0  0  0
   -3.9380   59.1310   75.4370 C   0  0  0  0  0  0  0  0  0  0  0  0
   -5.0260   59.6770   74.7410 C   0  0  0  0  0  0  0  0  0  0  0  0
   -6.3330   59.3730   75.1270 C   0  0  0  0  0  0  0  0  0  0  0  0
   -8.2820   56.9770   76.8630 C   0  0  0  0  0  0  0  0  0  0  0  0
   -7.9090   58.2990   76.5060 O   0  0  0  0  0  0  0  0  0  0  0  0
   -7.3860   59.9100   74.4340 O   0  0  0  0  0  0  0  0  0  0  0  0
    1.7470   61.1770   73.0060 O   0  0  0  0  0  0  0  0  0  0  0  0
    2.2750   56.4440   73.2840 O   0  0  0  0  0  0  0  0  0  0  0  0
    3.4710   58.9600   72.6770 C   0  0  0  0  0  0  0  0  0  0  0  0
    3.5570   59.4220   71.2440 C   0  0  0  0  0  0  0  0  0  0  0  0
    4.3060   60.4140   70.7220 C   0  0  0  0  0  0  0  0  0  0  0  0
    5.2780   61.2580   71.5010 C   0  0  0  0  0  0  0  0  0  0  0  0
    4.2360   60.7190   69.2350 C   0  0  0  0  0  0  0  0  0  0  0  0
    3.7200   62.1330   68.9460 C   0  0  0  0  0  0  0  0  0  0  0  0
    2.3030   62.3090   69.4230 C   0  0  0  0  0  0  0  0  0  0  0  0
    1.8060   63.3100   70.1760 C   0  0  0  0  0  0  0  0  0  0  0  0
    2.5880   64.5020   70.6540 C   0  0  0  0  0  0  0  0  0  0  0  0
    0.3600   63.3090   70.5970 C   0  0  0  0  0  0  0  0  0  0  0  0
   -1.9312   59.7086   75.9605 H   0  0  0  0  0  0  0  0  0  0  0  0
   -3.0228   60.4679   73.2155 H   0  0  0  0  0  0  0  0  0  0  0  0
   -2.9244   61.5460   74.6355 H   0  0  0  0  0  0  0  0  0  0  0  0
   -0.2453   56.4105   74.0393 H   0  0  0  0  0  0  0  0  0  0  0  0
   -5.6893   57.3240   77.7704 H   0  0  0  0  0  0  0  0  0  0  0  0
   -3.3548   57.8581   77.0918 H   0  0  0  0  0  0  0  0  0  0  0  0
   -4.8491   60.3477   73.8873 H   0  0  0  0  0  0  0  0  0  0  0  0
   -8.3075   56.8865   77.9590 H   0  0  0  0  0  0  0  0  0  0  0  0
   -9.2782   56.7538   76.4534 H   0  0  0  0  0  0  0  0  0  0  0  0
   -7.5494   56.2660   76.4534 H   0  0  0  0  0  0  0  0  0  0  0  0
   -8.3150   59.6983   74.7028 H   0  0  0  0  0  0  0  0  0  0  0  0
    1.1908   61.9912   73.0948 H   0  0  0  0  0  0  0  0  0  0  0  0
    3.2159   56.5363   72.9902 H   0  0  0  0  0  0  0  0  0  0  0  0
    3.9848   59.6933   73.3160 H   0  0  0  0  0  0  0  0  0  0  0  0
    3.9449   57.9692   72.7389 H   0  0  0  0  0  0  0  0  0  0  0  0
    2.9238   58.8765   70.5289 H   0  0  0  0  0  0  0  0  0  0  0  0
    5.1094   61.1116   72.5781 H   0  0  0  0  0  0  0  0  0  0  0  0
    6.3064   60.9615   71.2472 H   0  0  0  0  0  0  0  0  0  0  0  0
    5.1287   62.3179   71.2472 H   0  0  0  0  0  0  0  0  0  0  0  0
    5.2442   60.6178   68.8069 H   0  0  0  0  0  0  0  0  0  0  0  0
    3.5292   60.0079   68.7824 H   0  0  0  0  0  0  0  0  0  0  0  0
    4.3640   62.8611   69.4609 H   0  0  0  0  0  0  0  0  0  0  0  0
    3.7414   62.2936   67.8580 H   0  0  0  0  0  0  0  0  0  0  0  0
    1.5891   61.5284   69.1213 H   0  0  0  0  0  0  0  0  0  0  0  0
    2.5978   64.5170   71.7539 H   0  0  0  0  0  0  0  0  0  0  0  0
    3.6201   64.4378   70.2789 H   0  0  0  0  0  0  0  0  0  0  0  0
    2.1182   65.4232   70.2789 H   0  0  0  0  0  0  0  0  0  0  0  0
    0.2979   63.3090   71.6952 H   0  0  0  0  0  0  0  0  0  0  0  0
   -0.1376   64.2068   70.2016 H   0  0  0  0  0  0  0  0  0  0  0  0
   -0.1364   62.4105   70.2016 H   0  0  0  0  0  0  0  0  0  0  0  0
  2  1  1  0
  3  2  1  0
  4  3  2  0
  5  3  1  0
  6  5  2  0
  7  6  1  0
  7  1  1  0
  8  6  1  0
  9  8  2  0
 10  9  1  0
 11 10  2  0
 11  5  1  0
 13 12  2  0
 14 13  1  0
 15 14  2  0
 15  1  1  0
 16 15  1  0
 17 16  2  0
 17 12  1  0
 19 18  1  0
 19 12  1  0
 20 17  1  0
 21 11  1  0
 22  9  1  0
 23 10  1  0
 24 23  1  0
 25 24  2  0
 26 25  1  0
 27 25  1  0
 28 27  1  0
 29 28  1  0
 30 29  2  3
 31 30  1  0
 32 30  1  0
  1 33  1  1
  2 34  1  0
  2 35  1  0
  8 36  1  0
 13 37  1  0
 14 38  1  0
 16 39  1  0
 18 40  1  0
 18 41  1  0
 18 42  1  0
 20 43  1  0
 21 44  1  0
 22 45  1  0
 23 46  1  0
 23 47  1  0
 24 48  1  0
 26 49  1  0
 26 50  1  0
 26 51  1  0
 27 52  1  0
 27 53  1  0
 28 54  1  0
 28 55  1  0
 29 56  1  0
 31 57  1  0
 31 58  1  0
 31 59  1  0
 32 60  1  0
 32 61  1  0
 32 62  1  0
M  END
>  <score>  (8) 
-7.75

$$$$
=
     RDKit          3D

 62 64  0  0  0  0  0  0  0  0999 V2000
    1.3490   56.8610   72.9100 C   0  0  2  0  0  0  0  0  0  0  0  0
    2.5240   56.2830   72.1340 C   0  0  0  0  0  0  0  0  0  0  0  0
    3.1820   57.4050   71.3840 C   0  0  0  0  0  0  0  0  0  0  0  0
    3.7550   57.2430   70.3090 O   0  0  0  0  0  0  0  0  0  0  0  0
    3.1730   58.7350   72.0240 C   0  0  0  0  0  0  0  0  0  0  0  0
    2.4920   58.8780   73.2340 C   0  0  0  0  0  0  0  0  0  0  0  0
    1.7930   57.8650   73.8370 O   0  0  0  0  0  0  0  0  0  0  0  0
    2.5210   60.0950   73.9090 C   0  0  0  0  0  0  0  0  0  0  0  0
    3.2060   61.1770   73.3540 C   0  0  0  0  0  0  0  0  0  0  0  0
    3.8780   61.0690   72.1260 C   0  0  0  0  0  0  0  0  0  0  0  0
    3.8580   59.8260   71.4690 C   0  0  0  0  0  0  0  0  0  0  0  0
   -0.6590   53.7320   75.1620 C   0  0  0  0  0  0  0  0  0  0  0  0
    0.6820   53.6010   74.7970 C   0  0  0  0  0  0  0  0  0  0  0  0
    1.3210   54.6100   74.0650 C   0  0  0  0  0  0  0  0  0  0  0  0
    0.6300   55.7690   73.6800 C   0  0  0  0  0  0  0  0  0  0  0  0
   -0.7150   55.9010   74.0530 C   0  0  0  0  0  0  0  0  0  0  0  0
   -1.3480   54.8910   74.7820 C   0  0  0  0  0  0  0  0  0  0  0  0
   -0.7170   52.1590   76.9540 C   0  0  0  0  0  0  0  0  0  0  0  0
   -1.3750   52.8070   75.8750 O   0  0  0  0  0  0  0  0  0  0  0  0
   -2.6640   55.0320   75.1350 O   0  0  0  0  0  0  0  0  0  0  0  0
    4.5370   59.7170   70.2800 O   0  0  0  0  0  0  0  0  0  0  0  0
    3.2180   62.3740   74.0150 O   0  0  0  0  0  0  0  0  0  0  0  0
    4.6400   62.2420   71.5470 C   0  0  0  0  0  0  0  0  0  0  0  0
    3.7310   63.3740   71.1410 C   0  0  0  0  0  0  0  0  0  0  0  0
    2.8890   63.4440   70.0900 C   0  0  0  0  0  0  0  0  0  0  0  0
    2.6550   62.3340   69.1020 C   0  0  0  0  0  0  0  0  0  0  0  0
    2.0600   64.6950   69.8610 C   0  0  0  0  0  0  0  0  0  0  0  0
    0.9070   64.8320   70.8630 C   0  0  0  0  0  0  0  0  0  0  0  0
    0.3110   63.4910   71.2000 C   0  0  0  0  0  0  0  0  0  0  0  0
    0.0380   62.9960   72.4230 C   0  0  0  0  0  0  0  0  0  0  0  0
    0.2390   63.7330   73.7180 C   0  0  0  0  0  0  0  0  0  0  0  0
   -0.5280   61.6090   72.5800 C   0  0  0  0  0  0  0  0  0  0  0  0
    0.6611   57.3150   72.1816 H   0  0  0  0  0  0  0  0  0  0  0  0
    3.2432   55.8272   72.8304 H   0  0  0  0  0  0  0  0  0  0  0  0
    2.1760   55.5084   71.4347 H   0  0  0  0  0  0  0  0  0  0  0  0
    2.0065   60.2035   74.8752 H   0  0  0  0  0  0  0  0  0  0  0  0
    1.2410   52.6989   75.0863 H   0  0  0  0  0  0  0  0  0  0  0  0
    2.3791   54.4921   73.7882 H   0  0  0  0  0  0  0  0  0  0  0  0
   -1.2750   56.8046   73.7702 H   0  0  0  0  0  0  0  0  0  0  0  0
   -1.1085   52.5446   77.9069 H   0  0  0  0  0  0  0  0  0  0  0  0
   -0.8966   51.0754   76.8954 H   0  0  0  0  0  0  0  0  0  0  0  0
    0.3638   52.3552   76.8954 H   0  0  0  0  0  0  0  0  0  0  0  0
   -3.1171   54.3192   75.6515 H   0  0  0  0  0  0  0  0  0  0  0  0
    4.5437   58.8563   69.7909 H   0  0  0  0  0  0  0  0  0  0  0  0
    3.7010   63.1475   73.6296 H   0  0  0  0  0  0  0  0  0  0  0  0
    5.3479   62.6114   72.3035 H   0  0  0  0  0  0  0  0  0  0  0  0
    5.1615   61.8905   70.6445 H   0  0  0  0  0  0  0  0  0  0  0  0
    3.7582   64.2623   71.7892 H   0  0  0  0  0  0  0  0  0  0  0  0
    2.4575   61.3970   69.6432 H   0  0  0  0  0  0  0  0  0  0  0  0
    1.7894   62.5820   68.4702 H   0  0  0  0  0  0  0  0  0  0  0  0
    3.5470   62.2114   68.4702 H   0  0  0  0  0  0  0  0  0  0  0  0
    2.7150   65.5736   69.9558 H   0  0  0  0  0  0  0  0  0  0  0  0
    1.6198   64.6227   68.8555 H   0  0  0  0  0  0  0  0  0  0  0  0
    1.2870   65.2968   71.7847 H   0  0  0  0  0  0  0  0  0  0  0  0
    0.1234   65.4547   70.4067 H   0  0  0  0  0  0  0  0  0  0  0  0
    0.0702   62.8388   70.3476 H   0  0  0  0  0  0  0  0  0  0  0  0
    0.0530   63.0510   74.5607 H   0  0  0  0  0  0  0  0  0  0  0  0
    1.2720   64.1073   73.7704 H   0  0  0  0  0  0  0  0  0  0  0  0
   -0.4610   64.5799   73.7704 H   0  0  0  0  0  0  0  0  0  0  0  0
   -0.6249   61.3715   73.6497 H   0  0  0  0  0  0  0  0  0  0  0  0
   -1.5178   61.5607   72.1025 H   0  0  0  0  0  0  0  0  0  0  0  0
    0.1454   60.8820   72.1025 H   0  0  0  0  0  0  0  0  0  0  0  0
  2  1  1  0
  3  2  1  0
  4  3  2  0
  5  3  1  0
  6  5  2  0
  7  6  1  0
  7  1  1  0
  8  6  1  0
  9  8  2  0
 10  9  1  0
 11 10  2  0
 11  5  1  0
 13 12  2  0
 14 13  1  0
 15 14  2  0
 15  1  1  0
 16 15  1  0
 17 16  2  0
 17 12  1  0
 19 18  1  0
 19 12  1  0
 20 17  1  0
 21 11  1  0
 22  9  1  0
 23 10  1  0
 24 23  1  0
 25 24  2  0
 26 25  1  0
 27 25  1  0
 28 27  1  0
 29 28  1  0
 30 29  2  3
 31 30  1  0
 32 30  1  0
  1 33  1  6
  2 34  1  0
  2 35  1  0
  8 36  1  0
 13 37  1  0
 14 38  1  0
 16 39  1  0
 18 40  1  0
 18 41  1  0
 18 42  1  0
 20 43  1  0
 21 44  1  0
 22 45  1  0
 23 46  1  0
 23 47  1  0
 24 48  1  0
 26 49  1  0
 26 50  1  0
 26 51  1  0
 27 52  1  0
 27 53  1  0
 28 54  1  0
 28 55  1  0
 29 56  1  0
 31 57  1  0
 31 58  1  0
 31 59  1  0
 32 60  1  0
 32 61  1  0
 32 62  1  0
M  END
>  <score>  (9) 
-7.646

$$$$
