=
     RDKit          3D

 20 21  0  0  0  0  0  0  0  0999 V2000
    2.7420   68.3670   62.0300 O   0  0  0  0  0  0  0  0  0  0  0  0
    3.2360   68.6880   63.0860 C   0  0  0  0  0  0  0  0  0  0  0  0
    2.6180   68.8090   64.3160 N   0  0  0  0  0  0  0  0  0  0  0  0
    3.5260   69.2010   65.2930 C   0  0  0  0  0  0  0  0  0  0  0  0
    4.8040   69.3620   64.7700 C   0  0  0  0  0  0  0  0  0  0  0  0
    4.7260   69.0530   63.3410 C   0  0  0  0  0  0  0  0  0  0  0  0
    5.6290   69.0790   62.5370 O   0  0  0  0  0  0  0  0  0  0  0  0
    5.8800   69.7470   65.5420 C   0  0  0  0  0  0  0  0  0  0  0  0
    5.6510   69.9780   66.9050 C   0  0  0  0  0  0  0  0  0  0  0  0
    4.3540   69.8150   67.4380 C   0  0  0  0  0  0  0  0  0  0  0  0
    3.2750   69.4220   66.6290 C   0  0  0  0  0  0  0  0  0  0  0  0
    6.7660   70.3550   67.6000 O   0  0  0  0  0  0  0  0  0  0  0  0
    6.6060   71.2540   68.6850 C   0  0  0  0  0  0  0  0  0  0  0  0
    6.0760   70.6260   69.7570 F   0  0  0  0  0  0  0  0  0  0  0  0
    7.8170   71.7360   69.0340 F   0  0  0  0  0  0  0  0  0  0  0  0
    5.8190   72.2950   68.3380 F   0  0  0  0  0  0  0  0  0  0  0  0
    1.6177   68.6323   64.4863 H   0  0  0  0  0  0  0  0  0  0  0  0
    6.8816   69.8683   65.1037 H   0  0  0  0  0  0  0  0  0  0  0  0
    4.1848   69.9996   68.5091 H   0  0  0  0  0  0  0  0  0  0  0  0
    2.2657   69.2953   67.0476 H   0  0  0  0  0  0  0  0  0  0  0  0
  2  1  2  0
  3  2  1  0
  4  3  1  0
  5  4  2  0
  6  5  1  0
  6  2  1  0
  7  6  2  0
  8  5  1  0
  9  8  2  0
 10  9  1  0
 11  4  1  0
 11 10  2  0
 12  9  1  0
 13 12  1  0
 14 13  1  0
 15 13  1  0
 16 13  1  0
  3 17  1  0
  8 18  1  0
 10 19  1  0
 11 20  1  0
M  END
>  <score>  (1) 
-9.04

$$$$
=
     RDKit          3D

 20 21  0  0  0  0  0  0  0  0999 V2000
    7.4210   71.4160   69.1280 O   0  0  0  0  0  0  0  0  0  0  0  0
    6.5960   70.9470   68.3780 C   0  0  0  0  0  0  0  0  0  0  0  0
    6.7440   70.6120   67.0460 N   0  0  0  0  0  0  0  0  0  0  0  0
    5.5620   70.0970   66.5270 C   0  0  0  0  0  0  0  0  0  0  0  0
    4.5560   70.0570   67.4850 C   0  0  0  0  0  0  0  0  0  0  0  0
    5.1230   70.5870   68.7270 C   0  0  0  0  0  0  0  0  0  0  0  0
    4.5630   70.7160   69.7900 O   0  0  0  0  0  0  0  0  0  0  0  0
    3.2880   69.5860   67.2140 C   0  0  0  0  0  0  0  0  0  0  0  0
    3.0290   69.1340   65.9130 C   0  0  0  0  0  0  0  0  0  0  0  0
    4.0500   69.1750   64.9380 C   0  0  0  0  0  0  0  0  0  0  0  0
    5.3330   69.6600   65.2420 C   0  0  0  0  0  0  0  0  0  0  0  0
    1.7530   68.6840   65.7250 O   0  0  0  0  0  0  0  0  0  0  0  0
    1.5640   67.3050   65.4510 C   0  0  0  0  0  0  0  0  0  0  0  0
    2.5470   66.5640   66.0050 F   0  0  0  0  0  0  0  0  0  0  0  0
    0.3870   66.9120   65.9810 F   0  0  0  0  0  0  0  0  0  0  0  0
    1.5260   67.0790   64.1200 F   0  0  0  0  0  0  0  0  0  0  0  0
    7.6150   70.7285   66.5086 H   0  0  0  0  0  0  0  0  0  0  0  0
    2.5090   69.5660   67.9904 H   0  0  0  0  0  0  0  0  0  0  0  0
    3.8361   68.8197   63.9192 H   0  0  0  0  0  0  0  0  0  0  0  0
    6.1261   69.6895   64.4804 H   0  0  0  0  0  0  0  0  0  0  0  0
  2  1  2  0
  3  2  1  0
  4  3  1  0
  5  4  2  0
  6  5  1  0
  6  2  1  0
  7  6  2  0
  8  5  1  0
  9  8  2  0
 10  9  1  0
 11  4  1  0
 11 10  2  0
 12  9  1  0
 13 12  1  0
 14 13  1  0
 15 13  1  0
 16 13  1  0
  3 17  1  0
  8 18  1  0
 10 19  1  0
 11 20  1  0
M  END
>  <score>  (2) 
-8.681

$$$$
=
     RDKit          3D

 20 21  0  0  0  0  0  0  0  0999 V2000
    0.4530   67.9470   63.3720 O   0  0  0  0  0  0  0  0  0  0  0  0
    1.3710   68.3420   64.0540 C   0  0  0  0  0  0  0  0  0  0  0  0
    2.6600   68.6460   63.6580 N   0  0  0  0  0  0  0  0  0  0  0  0
    3.4240   69.0710   64.7390 C   0  0  0  0  0  0  0  0  0  0  0  0
    2.6880   69.0780   65.9170 C   0  0  0  0  0  0  0  0  0  0  0  0
    1.3380   68.6200   65.5840 C   0  0  0  0  0  0  0  0  0  0  0  0
    0.4030   68.4880   66.3390 O   0  0  0  0  0  0  0  0  0  0  0  0
    3.2260   69.4610   67.1290 C   0  0  0  0  0  0  0  0  0  0  0  0
    4.5700   69.8570   67.1450 C   0  0  0  0  0  0  0  0  0  0  0  0
    5.3190   69.8520   65.9480 C   0  0  0  0  0  0  0  0  0  0  0  0
    4.7460   69.4560   64.7280 C   0  0  0  0  0  0  0  0  0  0  0  0
    5.0260   70.2220   68.3800 O   0  0  0  0  0  0  0  0  0  0  0  0
    6.2840   70.8740   68.4620 C   0  0  0  0  0  0  0  0  0  0  0  0
    7.2110   70.2270   67.7240 F   0  0  0  0  0  0  0  0  0  0  0  0
    6.1580   72.1280   67.9800 F   0  0  0  0  0  0  0  0  0  0  0  0
    6.7030   70.9520   69.7430 F   0  0  0  0  0  0  0  0  0  0  0  0
    3.0078   68.5681   62.6916 H   0  0  0  0  0  0  0  0  0  0  0  0
    2.6220   69.4556   68.0483 H   0  0  0  0  0  0  0  0  0  0  0  0
    6.3733   70.1648   65.9713 H   0  0  0  0  0  0  0  0  0  0  0  0
    5.3324   69.4536   63.7973 H   0  0  0  0  0  0  0  0  0  0  0  0
  2  1  2  0
  3  2  1  0
  4  3  1  0
  5  4  2  0
  6  5  1  0
  6  2  1  0
  7  6  2  0
  8  5  1  0
  9  8  2  0
 10  9  1  0
 11  4  1  0
 11 10  2  0
 12  9  1  0
 13 12  1  0
 14 13  1  0
 15 13  1  0
 16 13  1  0
  3 17  1  0
  8 18  1  0
 10 19  1  0
 11 20  1  0
M  END
>  <score>  (3) 
-8.459

$$$$
=
     RDKit          3D

 20 21  0  0  0  0  0  0  0  0999 V2000
    1.2150   67.9810   65.6270 O   0  0  0  0  0  0  0  0  0  0  0  0
    2.2160   68.5710   65.9640 C   0  0  0  0  0  0  0  0  0  0  0  0
    3.3680   68.7860   65.2320 N   0  0  0  0  0  0  0  0  0  0  0  0
    4.2980   69.5100   65.9680 C   0  0  0  0  0  0  0  0  0  0  0  0
    3.8190   69.8220   67.2350 C   0  0  0  0  0  0  0  0  0  0  0  0
    2.4720   69.2570   67.3360 C   0  0  0  0  0  0  0  0  0  0  0  0
    1.7240   69.3150   68.2850 O   0  0  0  0  0  0  0  0  0  0  0  0
    4.5580   70.5360   68.1560 C   0  0  0  0  0  0  0  0  0  0  0  0
    5.8390   70.9540   67.7740 C   0  0  0  0  0  0  0  0  0  0  0  0
    6.3280   70.6390   66.4870 C   0  0  0  0  0  0  0  0  0  0  0  0
    5.5540   69.9100   65.5690 C   0  0  0  0  0  0  0  0  0  0  0  0
    6.5050   71.6560   68.7390 O   0  0  0  0  0  0  0  0  0  0  0  0
    7.4980   70.9790   69.4920 C   0  0  0  0  0  0  0  0  0  0  0  0
    8.4920   71.8220   69.8470 F   0  0  0  0  0  0  0  0  0  0  0  0
    6.9350   70.4920   70.6180 F   0  0  0  0  0  0  0  0  0  0  0  0
    8.0140   69.9450   68.7940 F   0  0  0  0  0  0  0  0  0  0  0  0
    3.5175   68.4537   64.2686 H   0  0  0  0  0  0  0  0  0  0  0  0
    4.1559   70.7683   69.1532 H   0  0  0  0  0  0  0  0  0  0  0  0
    7.3358   70.9714   66.1975 H   0  0  0  0  0  0  0  0  0  0  0  0
    5.9375   69.6672   64.5670 H   0  0  0  0  0  0  0  0  0  0  0  0
  2  1  2  0
  3  2  1  0
  4  3  1  0
  5  4  2  0
  6  5  1  0
  6  2  1  0
  7  6  2  0
  8  5  1  0
  9  8  2  0
 10  9  1  0
 11  4  1  0
 11 10  2  0
 12  9  1  0
 13 12  1  0
 14 13  1  0
 15 13  1  0
 16 13  1  0
  3 17  1  0
  8 18  1  0
 10 19  1  0
 11 20  1  0
M  END
>  <score>  (4) 
-8.422

$$$$
=
     RDKit          3D

 20 21  0  0  0  0  0  0  0  0999 V2000
    6.0290   70.8420   68.3270 O   0  0  0  0  0  0  0  0  0  0  0  0
    5.5200   70.3910   67.3270 C   0  0  0  0  0  0  0  0  0  0  0  0
    6.0620   70.2980   66.0590 N   0  0  0  0  0  0  0  0  0  0  0  0
    5.1610   69.7170   65.1740 C   0  0  0  0  0  0  0  0  0  0  0  0
    3.9670   69.3850   65.8020 C   0  0  0  0  0  0  0  0  0  0  0  0
    4.0940   69.7820   67.2060 C   0  0  0  0  0  0  0  0  0  0  0  0
    3.2660   69.6600   68.0780 O   0  0  0  0  0  0  0  0  0  0  0  0
    2.9140   68.7940   65.1340 C   0  0  0  0  0  0  0  0  0  0  0  0
    3.0800   68.5270   63.7690 C   0  0  0  0  0  0  0  0  0  0  0  0
    4.2930   68.8630   63.1290 C   0  0  0  0  0  0  0  0  0  0  0  0
    5.3490   69.4640   63.8330 C   0  0  0  0  0  0  0  0  0  0  0  0
    1.9950   67.9420   63.1810 O   0  0  0  0  0  0  0  0  0  0  0  0
    1.0590   68.7790   62.5210 C   0  0  0  0  0  0  0  0  0  0  0  0
   -0.0470   68.0860   62.1740 F   0  0  0  0  0  0  0  0  0  0  0  0
    0.6910   69.7690   63.3610 F   0  0  0  0  0  0  0  0  0  0  0  0
    1.6040   69.3370   61.4190 F   0  0  0  0  0  0  0  0  0  0  0  0
    7.0076   70.6167   65.8037 H   0  0  0  0  0  0  0  0  0  0  0  0
    1.9783   68.5418   65.6545 H   0  0  0  0  0  0  0  0  0  0  0  0
    4.4133   68.6495   62.0566 H   0  0  0  0  0  0  0  0  0  0  0  0
    6.2929   69.7236   63.3314 H   0  0  0  0  0  0  0  0  0  0  0  0
  2  1  2  0
  3  2  1  0
  4  3  1  0
  5  4  2  0
  6  5  1  0
  6  2  1  0
  7  6  2  0
  8  5  1  0
  9  8  2  0
 10  9  1  0
 11  4  1  0
 11 10  2  0
 12  9  1  0
 13 12  1  0
 14 13  1  0
 15 13  1  0
 16 13  1  0
  3 17  1  0
  8 18  1  0
 10 19  1  0
 11 20  1  0
M  END
>  <score>  (5) 
-8.388

$$$$
=
     RDKit          3D

 20 21  0  0  0  0  0  0  0  0999 V2000
    4.2020   70.5760   69.8940 O   0  0  0  0  0  0  0  0  0  0  0  0
    3.9680   70.2100   68.7650 C   0  0  0  0  0  0  0  0  0  0  0  0
    2.7930   69.6820   68.2650 N   0  0  0  0  0  0  0  0  0  0  0  0
    2.9170   69.3830   66.9130 C   0  0  0  0  0  0  0  0  0  0  0  0
    4.1830   69.6970   66.4330 C   0  0  0  0  0  0  0  0  0  0  0  0
    4.9470   70.2410   67.5570 C   0  0  0  0  0  0  0  0  0  0  0  0
    6.0920   70.6300   67.5430 O   0  0  0  0  0  0  0  0  0  0  0  0
    4.5530   69.4920   65.1190 C   0  0  0  0  0  0  0  0  0  0  0  0
    3.5960   68.9460   64.2540 C   0  0  0  0  0  0  0  0  0  0  0  0
    2.3090   68.6270   64.7400 C   0  0  0  0  0  0  0  0  0  0  0  0
    1.9590   68.8460   66.0830 C   0  0  0  0  0  0  0  0  0  0  0  0
    4.0380   68.7750   62.9730 O   0  0  0  0  0  0  0  0  0  0  0  0
    4.8070   67.6200   62.6790 C   0  0  0  0  0  0  0  0  0  0  0  0
    4.3020   66.9630   61.6130 F   0  0  0  0  0  0  0  0  0  0  0  0
    6.0680   67.9980   62.3840 F   0  0  0  0  0  0  0  0  0  0  0  0
    4.8520   66.7870   63.7410 F   0  0  0  0  0  0  0  0  0  0  0  0
    1.9388   69.5301   68.8202 H   0  0  0  0  0  0  0  0  0  0  0  0
    5.5623   69.7480   64.7642 H   0  0  0  0  0  0  0  0  0  0  0  0
    1.5649   68.1981   64.0527 H   0  0  0  0  0  0  0  0  0  0  0  0
    0.9552   68.5972   66.4579 H   0  0  0  0  0  0  0  0  0  0  0  0
  2  1  2  0
  3  2  1  0
  4  3  1  0
  5  4  2  0
  6  5  1  0
  6  2  1  0
  7  6  2  0
  8  5  1  0
  9  8  2  0
 10  9  1  0
 11  4  1  0
 11 10  2  0
 12  9  1  0
 13 12  1  0
 14 13  1  0
 15 13  1  0
 16 13  1  0
  3 17  1  0
  8 18  1  0
 10 19  1  0
 11 20  1  0
M  END
>  <score>  (6) 
-8.178

$$$$
=
     RDKit          3D

 20 21  0  0  0  0  0  0  0  0999 V2000
    3.5150   70.9460   69.8680 O   0  0  0  0  0  0  0  0  0  0  0  0
    3.7240   70.4760   68.7740 C   0  0  0  0  0  0  0  0  0  0  0  0
    4.9150   70.4360   68.0740 N   0  0  0  0  0  0  0  0  0  0  0  0
    4.7490   69.8080   66.8450 C   0  0  0  0  0  0  0  0  0  0  0  0
    3.4370   69.3910   66.6550 C   0  0  0  0  0  0  0  0  0  0  0  0
    2.6860   69.7770   67.8500 C   0  0  0  0  0  0  0  0  0  0  0  0
    1.5110   69.5890   68.0680 O   0  0  0  0  0  0  0  0  0  0  0  0
    3.0220   68.7410   65.5110 C   0  0  0  0  0  0  0  0  0  0  0  0
    3.9790   68.5040   64.5160 C   0  0  0  0  0  0  0  0  0  0  0  0
    5.3130   68.9270   64.7070 C   0  0  0  0  0  0  0  0  0  0  0  0
    5.7090   69.5860   65.8830 C   0  0  0  0  0  0  0  0  0  0  0  0
    3.4890   67.8560   63.4170 O   0  0  0  0  0  0  0  0  0  0  0  0
    3.5500   68.5220   62.1660 C   0  0  0  0  0  0  0  0  0  0  0  0
    4.5410   69.4390   62.1550 F   0  0  0  0  0  0  0  0  0  0  0  0
    3.8040   67.6130   61.2010 F   0  0  0  0  0  0  0  0  0  0  0  0
    2.3760   69.1250   61.8820 F   0  0  0  0  0  0  0  0  0  0  0  0
    5.8068   70.8203   68.4172 H   0  0  0  0  0  0  0  0  0  0  0  0
    1.9773   68.4205   65.3848 H   0  0  0  0  0  0  0  0  0  0  0  0
    6.0568   68.7367   63.9193 H   0  0  0  0  0  0  0  0  0  0  0  0
    6.7489   69.9130   66.0300 H   0  0  0  0  0  0  0  0  0  0  0  0
  2  1  2  0
  3  2  1  0
  4  3  1  0
  5  4  2  0
  6  5  1  0
  6  2  1  0
  7  6  2  0
  8  5  1  0
  9  8  2  0
 10  9  1  0
 11  4  1  0
 11 10  2  0
 12  9  1  0
 13 12  1  0
 14 13  1  0
 15 13  1  0
 16 13  1  0
  3 17  1  0
  8 18  1  0
 10 19  1  0
 11 20  1  0
M  END
>  <score>  (7) 
-8.134

$$$$
=
     RDKit          3D

 20 21  0  0  0  0  0  0  0  0999 V2000
   -2.7360   67.5760   67.7400 O   0  0  0  0  0  0  0  0  0  0  0  0
   -1.7270   67.7480   67.0940 C   0  0  0  0  0  0  0  0  0  0  0  0
   -1.5950   68.3590   65.8620 N   0  0  0  0  0  0  0  0  0  0  0  0
   -0.2690   68.3620   65.4470 C   0  0  0  0  0  0  0  0  0  0  0  0
    0.5620   67.7540   66.3810 C   0  0  0  0  0  0  0  0  0  0  0  0
   -0.2860   67.3180   67.4910 C   0  0  0  0  0  0  0  0  0  0  0  0
    0.0630   66.7470   68.4980 O   0  0  0  0  0  0  0  0  0  0  0  0
    1.9240   67.6330   66.1970 C   0  0  0  0  0  0  0  0  0  0  0  0
    2.4680   68.1520   65.0160 C   0  0  0  0  0  0  0  0  0  0  0  0
    1.6260   68.7710   64.0660 C   0  0  0  0  0  0  0  0  0  0  0  0
    0.2420   68.8810   64.2780 C   0  0  0  0  0  0  0  0  0  0  0  0
    3.8210   67.9940   64.9100 O   0  0  0  0  0  0  0  0  0  0  0  0
    4.6430   69.1400   65.0620 C   0  0  0  0  0  0  0  0  0  0  0  0
    5.8860   68.7920   65.4570 F   0  0  0  0  0  0  0  0  0  0  0  0
    4.7380   69.7680   63.8710 F   0  0  0  0  0  0  0  0  0  0  0  0
    4.1110   70.0010   65.9540 F   0  0  0  0  0  0  0  0  0  0  0  0
   -2.3759   68.7592   65.3227 H   0  0  0  0  0  0  0  0  0  0  0  0
    2.5597   67.1462   66.9512 H   0  0  0  0  0  0  0  0  0  0  0  0
    2.0631   69.1753   63.1411 H   0  0  0  0  0  0  0  0  0  0  0  0
   -0.4109   69.3646   63.5365 H   0  0  0  0  0  0  0  0  0  0  0  0
  2  1  2  0
  3  2  1  0
  4  3  1  0
  5  4  2  0
  6  5  1  0
  6  2  1  0
  7  6  2  0
  8  5  1  0
  9  8  2  0
 10  9  1  0
 11  4  1  0
 11 10  2  0
 12  9  1  0
 13 12  1  0
 14 13  1  0
 15 13  1  0
 16 13  1  0
  3 17  1  0
  8 18  1  0
 10 19  1  0
 11 20  1  0
M  END
>  <score>  (8) 
-8.127

$$$$
=
     RDKit          3D

 20 21  0  0  0  0  0  0  0  0999 V2000
    4.0240   70.6760   69.8710 O   0  0  0  0  0  0  0  0  0  0  0  0
    3.5070   70.1770   68.8980 C   0  0  0  0  0  0  0  0  0  0  0  0
    2.2600   69.5900   68.8000 N   0  0  0  0  0  0  0  0  0  0  0  0
    2.0260   69.1310   67.5080 C   0  0  0  0  0  0  0  0  0  0  0  0
    3.1040   69.3890   66.6700 C   0  0  0  0  0  0  0  0  0  0  0  0
    4.1230   70.0670   67.4740 C   0  0  0  0  0  0  0  0  0  0  0  0
    5.2070   70.4540   67.1050 O   0  0  0  0  0  0  0  0  0  0  0  0
    3.1130   69.0290   65.3380 C   0  0  0  0  0  0  0  0  0  0  0  0
    1.9790   68.3810   64.8340 C   0  0  0  0  0  0  0  0  0  0  0  0
    0.8820   68.1180   65.6840 C   0  0  0  0  0  0  0  0  0  0  0  0
    0.9000   68.4950   67.0370 C   0  0  0  0  0  0  0  0  0  0  0  0
    2.0650   68.0590   63.5090 O   0  0  0  0  0  0  0  0  0  0  0  0
    1.1940   68.7150   62.6020 C   0  0  0  0  0  0  0  0  0  0  0  0
    1.8180   68.9670   61.4310 F   0  0  0  0  0  0  0  0  0  0  0  0
    0.1370   67.9130   62.3540 F   0  0  0  0  0  0  0  0  0  0  0  0
    0.7350   69.8720   63.1260 F   0  0  0  0  0  0  0  0  0  0  0  0
    1.5926   69.5038   69.5798 H   0  0  0  0  0  0  0  0  0  0  0  0
    3.9797   69.2434   64.6955 H   0  0  0  0  0  0  0  0  0  0  0  0
   -0.0041   67.6078   65.2783 H   0  0  0  0  0  0  0  0  0  0  0  0
    0.0443   68.2892   67.6969 H   0  0  0  0  0  0  0  0  0  0  0  0
  2  1  2  0
  3  2  1  0
  4  3  1  0
  5  4  2  0
  6  5  1  0
  6  2  1  0
  7  6  2  0
  8  5  1  0
  9  8  2  0
 10  9  1  0
 11  4  1  0
 11 10  2  0
 12  9  1  0
 13 12  1  0
 14 13  1  0
 15 13  1  0
 16 13  1  0
  3 17  1  0
  8 18  1  0
 10 19  1  0
 11 20  1  0
M  END
>  <score>  (9) 
-8.115

$$$$
