=
     RDKit          3D

 54 56  0  0  0  0  0  0  0  0999 V2000
    2.3320   60.3610   72.0350 C   0  0  2  0  0  0  0  0  0  0  0  0
    2.4670   61.7590   71.3910 C   0  0  1  0  0  0  0  0  0  0  0  0
    1.4990   62.7350   72.0770 C   0  0  1  0  0  0  0  0  0  0  0  0
    1.9000   62.8790   73.5560 C   0  0  2  0  0  0  0  0  0  0  0  0
    2.6030   61.7130   74.0760 O   0  0  0  0  0  0  0  0  0  0  0  0
    2.0930   60.4700   73.5660 C   0  0  2  0  0  0  0  0  0  0  0  0
    2.7080   59.3920   74.3350 N   0  0  0  0  0  0  0  0  0  0  0  0
    3.9890   59.4320   74.8360 C   0  0  0  0  0  0  0  0  0  0  0  0
    4.3240   58.3070   75.4280 N   0  0  0  0  0  0  0  0  0  0  0  0
    3.2040   57.5290   75.3470 C   0  0  0  0  0  0  0  0  0  0  0  0
    2.1830   58.1690   74.6660 C   0  0  0  0  0  0  0  0  0  0  0  0
    1.0080   57.4770   74.4830 C   0  0  0  0  0  0  0  0  0  0  0  0
   -0.3590   58.0430   73.6350 Cl  0  0  0  0  0  0  0  0  0  0  0  0
    0.8950   56.2340   74.9820 N   0  0  0  0  0  0  0  0  0  0  0  0
    1.9310   55.7030   75.6350 C   0  0  0  0  0  0  0  0  0  0  0  0
    3.1120   56.2870   75.8460 N   0  0  0  0  0  0  0  0  0  0  0  0
    1.8630   54.4270   76.1810 N   0  0  0  0  0  0  0  0  0  0  0  0
    0.8030   53.5610   76.1180 C   0  0  0  0  0  0  0  0  0  0  0  0
   -0.2650   53.7280   75.5420 O   0  0  0  0  0  0  0  0  0  0  0  0
    1.0770   52.2640   76.8390 C   0  0  0  0  0  0  0  0  0  0  0  0
    0.6120   63.1600   74.3660 C   0  0  0  0  0  0  0  0  0  0  0  0
   -0.4690   62.9900   73.7300 O   0  0  0  0  0  0  0  0  0  0  0  0
    0.7920   63.5320   75.5590 O   0  0  0  0  0  1  0  0  0  0  0  0
    3.5450   59.6320   71.6950 O   0  0  0  0  0  0  0  0  0  0  0  0
    2.8460   57.4570   71.1890 C   0  0  0  0  0  0  0  0  0  0  0  0
    3.4640   58.7240   70.6880 C   0  0  0  0  0  0  0  0  0  0  0  0
    3.8220   58.9120   69.5360 O   0  0  0  0  0  0  0  0  0  0  0  0
    3.8350   62.2300   71.5740 O   0  0  0  0  0  0  0  0  0  0  0  0
    4.4330   62.8560   70.5300 C   0  0  0  0  0  0  0  0  0  0  0  0
    5.3310   63.6820   70.5990 O   0  0  0  0  0  0  0  0  0  0  0  0
    3.8180   62.3890   69.2460 C   0  0  0  0  0  0  0  0  0  0  0  0
    1.5620   64.0380   71.4540 O   0  0  0  0  0  0  0  0  0  0  0  0
    0.5500   64.3330   70.5940 C   0  0  0  0  0  0  0  0  0  0  0  0
   -0.1410   63.5180   69.9980 O   0  0  0  0  0  0  0  0  0  0  0  0
    0.4030   65.8190   70.4710 C   0  0  0  0  0  0  0  0  0  0  0  0
    1.4550   59.8189   71.6517 H   0  0  0  0  0  0  0  0  0  0  0  0
    2.2278   61.7010   70.3189 H   0  0  0  0  0  0  0  0  0  0  0  0
    0.4760   62.3412   71.9856 H   0  0  0  0  0  0  0  0  0  0  0  0
    2.6135   63.7109   73.6502 H   0  0  0  0  0  0  0  0  0  0  0  0
    1.0018   60.4038   73.6880 H   0  0  0  0  0  0  0  0  0  0  0  0
    4.6549   60.3034   74.7511 H   0  0  0  0  0  0  0  0  0  0  0  0
    2.6977   54.0973   76.6865 H   0  0  0  0  0  0  0  0  0  0  0  0
    1.0412   52.4337   77.9252 H   0  0  0  0  0  0  0  0  0  0  0  0
    0.3160   51.5208   76.5587 H   0  0  0  0  0  0  0  0  0  0  0  0
    2.0735   51.8921   76.5587 H   0  0  0  0  0  0  0  0  0  0  0  0
    2.8468   57.4586   72.2890 H   0  0  0  0  0  0  0  0  0  0  0  0
    1.8112   57.3841   70.8232 H   0  0  0  0  0  0  0  0  0  0  0  0
    3.4256   56.5967   70.8232 H   0  0  0  0  0  0  0  0  0  0  0  0
    2.9597   61.7372   69.4663 H   0  0  0  0  0  0  0  0  0  0  0  0
    3.4782   63.2587   68.6645 H   0  0  0  0  0  0  0  0  0  0  0  0
    4.5646   61.8282   68.6645 H   0  0  0  0  0  0  0  0  0  0  0  0
    0.3586   66.2674   71.4745 H   0  0  0  0  0  0  0  0  0  0  0  0
    1.2650   66.2287   69.9241 H   0  0  0  0  0  0  0  0  0  0  0  0
   -0.5226   66.0519   69.9241 H   0  0  0  0  0  0  0  0  0  0  0  0
  2  1  1  0
  3  2  1  0
  4  3  1  0
  5  4  1  0
  6  5  1  0
  6  1  1  0
  7  6  1  0
  8  7  1  0
  9  8  2  0
 10  9  1  0
 11 10  2  0
 11  7  1  0
 12 11  1  0
 13 12  1  0
 14 12  2  0
 15 14  1  0
 16 15  2  0
 16 10  1  0
 17 15  1  0
 18 17  1  0
 19 18  2  0
 20 18  1  0
 21  4  1  0
 22 21  2  0
 23 21  1  0
 24  1  1  0
 26 25  1  0
 26 24  1  0
 27 26  2  0
 28  2  1  0
 29 28  1  0
 30 29  2  0
 31 29  1  0
 32  3  1  0
 33 32  1  0
 34 33  2  0
 35 33  1  0
  1 36  1  6
  2 37  1  6
  3 38  1  1
  4 39  1  6
  6 40  1  6
  8 41  1  0
 17 42  1  0
 20 43  1  0
 20 44  1  0
 20 45  1  0
 25 46  1  0
 25 47  1  0
 25 48  1  0
 31 49  1  0
 31 50  1  0
 31 51  1  0
 35 52  1  0
 35 53  1  0
 35 54  1  0
M  CHG  1  23  -1
M  END
>  <score>  (1) 
-8.642

$$$$
=
     RDKit          3D

 54 56  0  0  0  0  0  0  0  0999 V2000
    2.5420   60.8430   74.1190 C   0  0  2  0  0  0  0  0  0  0  0  0
    1.8360   61.5540   72.9440 C   0  0  1  0  0  0  0  0  0  0  0  0
    2.6810   61.4040   71.6710 C   0  0  1  0  0  0  0  0  0  0  0  0
    2.7700   59.9110   71.3050 C   0  0  2  0  0  0  0  0  0  0  0  0
    2.6160   59.0280   72.4550 O   0  0  0  0  0  0  0  0  0  0  0  0
    3.2390   59.5360   73.6460 C   0  0  2  0  0  0  0  0  0  0  0  0
    3.2220   58.4690   74.6420 N   0  0  0  0  0  0  0  0  0  0  0  0
    4.2530   58.2090   75.5150 C   0  0  0  0  0  0  0  0  0  0  0  0
    4.0170   57.1510   76.2590 N   0  0  0  0  0  0  0  0  0  0  0  0
    2.7700   56.7390   75.8840 C   0  0  0  0  0  0  0  0  0  0  0  0
    2.2500   57.5300   74.8750 C   0  0  0  0  0  0  0  0  0  0  0  0
    1.0090   57.1980   74.3800 C   0  0  0  0  0  0  0  0  0  0  0  0
    0.1990   57.9940   73.1090 Cl  0  0  0  0  0  0  0  0  0  0  0  0
    0.3550   56.1460   74.9040 N   0  0  0  0  0  0  0  0  0  0  0  0
    0.9330   55.4480   75.8840 C   0  0  0  0  0  0  0  0  0  0  0  0
    2.1350   55.6820   76.4140 N   0  0  0  0  0  0  0  0  0  0  0  0
    0.2960   54.3600   76.4680 N   0  0  0  0  0  0  0  0  0  0  0  0
   -0.9310   53.8510   76.1350 C   0  0  0  0  0  0  0  0  0  0  0  0
   -1.6810   54.2290   75.2420 O   0  0  0  0  0  0  0  0  0  0  0  0
   -1.3150   52.6710   76.9940 C   0  0  0  0  0  0  0  0  0  0  0  0
    4.1300   59.6800   70.6040 C   0  0  0  0  0  0  0  0  0  0  0  0
    4.0870   58.9350   69.5820 O   0  0  0  0  0  0  0  0  0  0  0  0
    5.1200   60.2550   71.1370 O   0  0  0  0  0  1  0  0  0  0  0  0
    1.5260   60.6150   75.1350 O   0  0  0  0  0  0  0  0  0  0  0  0
    0.8240   62.4380   76.4240 C   0  0  0  0  0  0  0  0  0  0  0  0
    1.6970   61.2250   76.3360 C   0  0  0  0  0  0  0  0  0  0  0  0
    2.4370   60.8380   77.2270 O   0  0  0  0  0  0  0  0  0  0  0  0
    0.5330   60.9340   72.7340 O   0  0  0  0  0  0  0  0  0  0  0  0
   -0.5560   61.7410   72.7200 C   0  0  0  0  0  0  0  0  0  0  0  0
   -0.6430   62.8300   72.1730 O   0  0  0  0  0  0  0  0  0  0  0  0
   -1.6660   61.1010   73.4960 C   0  0  0  0  0  0  0  0  0  0  0  0
    2.0720   62.1120   70.5670 O   0  0  0  0  0  0  0  0  0  0  0  0
    2.4930   63.3910   70.3790 C   0  0  0  0  0  0  0  0  0  0  0  0
    1.7810   64.3410   70.0840 O   0  0  0  0  0  0  0  0  0  0  0  0
    3.9760   63.4740   70.5770 C   0  0  0  0  0  0  0  0  0  0  0  0
    3.3518   61.4577   74.5389 H   0  0  0  0  0  0  0  0  0  0  0  0
    1.7121   62.6224   73.1746 H   0  0  0  0  0  0  0  0  0  0  0  0
    3.6808   61.8223   71.8592 H   0  0  0  0  0  0  0  0  0  0  0  0
    1.9342   59.6602   70.6352 H   0  0  0  0  0  0  0  0  0  0  0  0
    4.2851   59.8216   73.4614 H   0  0  0  0  0  0  0  0  0  0  0  0
    5.1681   58.8156   75.5827 H   0  0  0  0  0  0  0  0  0  0  0  0
    0.7996   53.8865   77.2316 H   0  0  0  0  0  0  0  0  0  0  0  0
   -1.2256   52.9456   78.0554 H   0  0  0  0  0  0  0  0  0  0  0  0
   -2.3537   52.3816   76.7763 H   0  0  0  0  0  0  0  0  0  0  0  0
   -0.6456   51.8257   76.7763 H   0  0  0  0  0  0  0  0  0  0  0  0
    0.6458   62.6856   77.4809 H   0  0  0  0  0  0  0  0  0  0  0  0
    1.3214   63.2845   75.9279 H   0  0  0  0  0  0  0  0  0  0  0  0
   -0.1366   62.2352   75.9279 H   0  0  0  0  0  0  0  0  0  0  0  0
   -1.4723   61.2127   74.5730 H   0  0  0  0  0  0  0  0  0  0  0  0
   -2.6190   61.5882   73.2424 H   0  0  0  0  0  0  0  0  0  0  0  0
   -1.7218   60.0321   73.2424 H   0  0  0  0  0  0  0  0  0  0  0  0
    4.2021   63.4867   71.6534 H   0  0  0  0  0  0  0  0  0  0  0  0
    4.4575   62.6014   70.1115 H   0  0  0  0  0  0  0  0  0  0  0  0
    4.3571   64.3949   70.1115 H   0  0  0  0  0  0  0  0  0  0  0  0
  2  1  1  0
  3  2  1  0
  4  3  1  0
  5  4  1  0
  6  5  1  0
  6  1  1  0
  7  6  1  0
  8  7  1  0
  9  8  2  0
 10  9  1  0
 11 10  2  0
 11  7  1  0
 12 11  1  0
 13 12  1  0
 14 12  2  0
 15 14  1  0
 16 15  2  0
 16 10  1  0
 17 15  1  0
 18 17  1  0
 19 18  2  0
 20 18  1  0
 21  4  1  0
 22 21  2  0
 23 21  1  0
 24  1  1  0
 26 25  1  0
 26 24  1  0
 27 26  2  0
 28  2  1  0
 29 28  1  0
 30 29  2  0
 31 29  1  0
 32  3  1  0
 33 32  1  0
 34 33  2  0
 35 33  1  0
  1 36  1  1
  2 37  1  1
  3 38  1  1
  4 39  1  6
  6 40  1  6
  8 41  1  0
 17 42  1  0
 20 43  1  0
 20 44  1  0
 20 45  1  0
 25 46  1  0
 25 47  1  0
 25 48  1  0
 31 49  1  0
 31 50  1  0
 31 51  1  0
 35 52  1  0
 35 53  1  0
 35 54  1  0
M  CHG  1  23  -1
M  END
>  <score>  (2) 
-7.232

$$$$
=
     RDKit          3D

 54 56  0  0  0  0  0  0  0  0999 V2000
    1.8560   59.8150   72.9830 C   0  0  2  0  0  0  0  0  0  0  0  0
    2.3570   60.9790   72.1010 C   0  0  1  0  0  0  0  0  0  0  0  0
    1.6110   62.2670   72.4780 C   0  0  1  0  0  0  0  0  0  0  0  0
    1.9460   62.6300   73.9360 C   0  0  2  0  0  0  0  0  0  0  0  0
    2.3180   61.4750   74.7430 O   0  0  0  0  0  0  0  0  0  0  0  0
    1.5580   60.2970   74.4300 C   0  0  2  0  0  0  0  0  0  0  0  0
    1.8520   59.2970   75.4530 N   0  0  0  0  0  0  0  0  0  0  0  0
    3.0310   59.2360   76.1600 C   0  0  0  0  0  0  0  0  0  0  0  0
    3.0700   58.2010   76.9690 N   0  0  0  0  0  0  0  0  0  0  0  0
    1.8540   57.5980   76.8140 C   0  0  0  0  0  0  0  0  0  0  0  0
    1.0750   58.2470   75.8730 C   0  0  0  0  0  0  0  0  0  0  0  0
   -0.1640   57.7170   75.5950 C   0  0  0  0  0  0  0  0  0  0  0  0
   -1.2670   58.3160   74.4420 Cl  0  0  0  0  0  0  0  0  0  0  0  0
   -0.5680   56.6160   76.2540 N   0  0  0  0  0  0  0  0  0  0  0  0
    0.2500   56.0650   77.1540 C   0  0  0  0  0  0  0  0  0  0  0  0
    1.4710   56.4950   77.4760 N   0  0  0  0  0  0  0  0  0  0  0  0
   -0.1240   54.9350   77.8710 N   0  0  0  0  0  0  0  0  0  0  0  0
   -1.2980   54.2400   77.7580 C   0  0  0  0  0  0  0  0  0  0  0  0
   -2.2230   54.4570   76.9830 O   0  0  0  0  0  0  0  0  0  0  0  0
   -1.3680   53.0710   78.7080 C   0  0  0  0  0  0  0  0  0  0  0  0
    0.7160   63.3540   74.5340 C   0  0  0  0  0  0  0  0  0  0  0  0
    0.9450   64.0160   75.5880 O   0  0  0  0  0  0  0  0  0  0  0  0
   -0.3660   63.1950   73.9040 O   0  0  0  0  0  1  0  0  0  0  0  0
    2.8770   58.7800   72.9220 O   0  0  0  0  0  0  0  0  0  0  0  0
    1.7330   56.7490   72.7230 C   0  0  0  0  0  0  0  0  0  0  0  0
    2.6570   57.7370   72.0820 C   0  0  0  0  0  0  0  0  0  0  0  0
    3.1230   57.6210   70.9590 O   0  0  0  0  0  0  0  0  0  0  0  0
    3.7850   61.1640   72.3340 O   0  0  0  0  0  0  0  0  0  0  0  0
    4.6080   61.1540   71.2580 C   0  0  0  0  0  0  0  0  0  0  0  0
    4.8560   60.1920   70.5450 O   0  0  0  0  0  0  0  0  0  0  0  0
    5.1950   62.5180   71.0610 C   0  0  0  0  0  0  0  0  0  0  0  0
    2.0190   63.3620   71.6260 O   0  0  0  0  0  0  0  0  0  0  0  0
    1.5160   63.3490   70.3630 C   0  0  0  0  0  0  0  0  0  0  0  0
    2.1520   63.1150   69.3440 O   0  0  0  0  0  0  0  0  0  0  0  0
    0.0550   63.6770   70.3930 C   0  0  0  0  0  0  0  0  0  0  0  0
    0.9000   59.4108   72.6187 H   0  0  0  0  0  0  0  0  0  0  0  0
    2.1739   60.7491   71.0410 H   0  0  0  0  0  0  0  0  0  0  0  0
    0.5310   62.0981   72.3548 H   0  0  0  0  0  0  0  0  0  0  0  0
    2.8301   63.2845   73.9441 H   0  0  0  0  0  0  0  0  0  0  0  0
    0.4773   60.5018   74.4450 H   0  0  0  0  0  0  0  0  0  0  0  0
    3.8458   59.9681   76.0597 H   0  0  0  0  0  0  0  0  0  0  0  0
    0.5545   54.5827   78.5612 H   0  0  0  0  0  0  0  0  0  0  0  0
   -1.3460   53.4389   79.7444 H   0  0  0  0  0  0  0  0  0  0  0  0
   -2.3011   52.5143   78.5363 H   0  0  0  0  0  0  0  0  0  0  0  0
   -0.5080   52.4070   78.5363 H   0  0  0  0  0  0  0  0  0  0  0  0
    1.8100   56.8313   73.8172 H   0  0  0  0  0  0  0  0  0  0  0  0
    0.6990   56.9583   72.4114 H   0  0  0  0  0  0  0  0  0  0  0  0
    2.0110   55.7313   72.4114 H   0  0  0  0  0  0  0  0  0  0  0  0
    5.3926   62.9772   72.0409 H   0  0  0  0  0  0  0  0  0  0  0  0
    6.1367   62.4342   70.4987 H   0  0  0  0  0  0  0  0  0  0  0  0
    4.4867   63.1443   70.4987 H   0  0  0  0  0  0  0  0  0  0  0  0
   -0.2824   63.7528   71.4372 H   0  0  0  0  0  0  0  0  0  0  0  0
   -0.1161   64.6359   69.8819 H   0  0  0  0  0  0  0  0  0  0  0  0
   -0.5096   62.8832   69.8819 H   0  0  0  0  0  0  0  0  0  0  0  0
  2  1  1  0
  3  2  1  0
  4  3  1  0
  5  4  1  0
  6  5  1  0
  6  1  1  0
  7  6  1  0
  8  7  1  0
  9  8  2  0
 10  9  1  0
 11 10  2  0
 11  7  1  0
 12 11  1  0
 13 12  1  0
 14 12  2  0
 15 14  1  0
 16 15  2  0
 16 10  1  0
 17 15  1  0
 18 17  1  0
 19 18  2  0
 20 18  1  0
 21  4  1  0
 22 21  2  0
 23 21  1  0
 24  1  1  0
 26 25  1  0
 26 24  1  0
 27 26  2  0
 28  2  1  0
 29 28  1  0
 30 29  2  0
 31 29  1  0
 32  3  1  0
 33 32  1  0
 34 33  2  0
 35 33  1  0
  1 36  1  6
  2 37  1  6
  3 38  1  1
  4 39  1  6
  6 40  1  6
  8 41  1  0
 17 42  1  0
 20 43  1  0
 20 44  1  0
 20 45  1  0
 25 46  1  0
 25 47  1  0
 25 48  1  0
 31 49  1  0
 31 50  1  0
 31 51  1  0
 35 52  1  0
 35 53  1  0
 35 54  1  0
M  CHG  1  23  -1
M  END
>  <score>  (3) 
-7.128

$$$$
=
     RDKit          3D

 54 56  0  0  0  0  0  0  0  0999 V2000
    1.2170   60.7010   74.5520 C   0  0  2  0  0  0  0  0  0  0  0  0
    1.2940   59.6130   75.6450 C   0  0  1  0  0  0  0  0  0  0  0  0
    1.0770   58.2320   75.0100 C   0  0  1  0  0  0  0  0  0  0  0  0
    2.2200   57.9540   74.0170 C   0  0  2  0  0  0  0  0  0  0  0  0
    2.8160   59.1680   73.4730 O   0  0  0  0  0  0  0  0  0  0  0  0
    1.8550   60.2070   73.2240 C   0  0  2  0  0  0  0  0  0  0  0  0
    2.5290   61.2590   72.4690 N   0  0  0  0  0  0  0  0  0  0  0  0
    3.8930   61.3500   72.3160 C   0  0  0  0  0  0  0  0  0  0  0  0
    4.2470   62.4280   71.6530 N   0  0  0  0  0  0  0  0  0  0  0  0
    3.0660   63.0330   71.3250 C   0  0  0  0  0  0  0  0  0  0  0  0
    1.9780   62.3380   71.8240 C   0  0  0  0  0  0  0  0  0  0  0  0
    0.7270   62.8620   71.5950 C   0  0  0  0  0  0  0  0  0  0  0  0
   -0.7440   62.2090   72.1550 Cl  0  0  0  0  0  0  0  0  0  0  0  0
    0.6140   64.0020   70.8890 N   0  0  0  0  0  0  0  0  0  0  0  0
    1.7210   64.5960   70.4380 C   0  0  0  0  0  0  0  0  0  0  0  0
    2.9740   64.1740   70.6250 N   0  0  0  0  0  0  0  0  0  0  0  0
    1.6590   65.7670   69.6930 N   0  0  0  0  0  0  0  0  0  0  0  0
    0.5320   66.4650   69.3500 C   0  0  0  0  0  0  0  0  0  0  0  0
   -0.6270   66.2130   69.6610 O   0  0  0  0  0  0  0  0  0  0  0  0
    0.8420   67.6860   68.5200 C   0  0  0  0  0  0  0  0  0  0  0  0
    1.6550   57.0580   72.8890 C   0  0  0  0  0  0  0  0  0  0  0  0
    0.5600   56.4840   73.1590 O   0  0  0  0  0  0  0  0  0  0  0  0
    2.3540   57.0010   71.8400 O   0  0  0  0  0  1  0  0  0  0  0  0
    1.8710   61.8820   75.0970 O   0  0  0  0  0  0  0  0  0  0  0  0
    1.1660   64.1080   74.9410 C   0  0  0  0  0  0  0  0  0  0  0  0
    1.0810   62.8140   75.6890 C   0  0  0  0  0  0  0  0  0  0  0  0
    0.3840   62.6280   76.6740 O   0  0  0  0  0  0  0  0  0  0  0  0
    2.6150   59.6590   76.2610 O   0  0  0  0  0  0  0  0  0  0  0  0
    2.6820   59.6600   77.6150 C   0  0  0  0  0  0  0  0  0  0  0  0
    2.0530   60.3860   78.3700 O   0  0  0  0  0  0  0  0  0  0  0  0
    3.6670   58.6260   78.0700 C   0  0  0  0  0  0  0  0  0  0  0  0
    1.0860   57.1980   76.0210 O   0  0  0  0  0  0  0  0  0  0  0  0
    0.0180   57.1840   76.8630 C   0  0  0  0  0  0  0  0  0  0  0  0
    0.0640   57.3300   78.0770 O   0  0  0  0  0  0  0  0  0  0  0  0
   -1.2410   56.9520   76.0860 C   0  0  0  0  0  0  0  0  0  0  0  0
    0.1760   60.9428   74.2916 H   0  0  0  0  0  0  0  0  0  0  0  0
    0.5179   59.7903   76.4041 H   0  0  0  0  0  0  0  0  0  0  0  0
    0.1032   58.2278   74.4984 H   0  0  0  0  0  0  0  0  0  0  0  0
    3.0367   57.4464   74.5512 H   0  0  0  0  0  0  0  0  0  0  0  0
    1.0102   59.8367   72.6247 H   0  0  0  0  0  0  0  0  0  0  0  0
    4.6050   60.6065   72.7037 H   0  0  0  0  0  0  0  0  0  0  0  0
    2.5562   66.1510   69.3636 H   0  0  0  0  0  0  0  0  0  0  0  0
    1.0578   68.5358   69.1843 H   0  0  0  0  0  0  0  0  0  0  0  0
    1.7177   67.4852   67.8853 H   0  0  0  0  0  0  0  0  0  0  0  0
   -0.0234   67.9273   67.8853 H   0  0  0  0  0  0  0  0  0  0  0  0
    1.2208   64.9420   75.6562 H   0  0  0  0  0  0  0  0  0  0  0  0
    2.0660   64.1075   74.3086 H   0  0  0  0  0  0  0  0  0  0  0  0
    0.2736   64.2253   74.3086 H   0  0  0  0  0  0  0  0  0  0  0  0
    3.6908   58.6010   79.1695 H   0  0  0  0  0  0  0  0  0  0  0  0
    3.3662   57.6396   77.6872 H   0  0  0  0  0  0  0  0  0  0  0  0
    4.6669   58.8786   77.6872 H   0  0  0  0  0  0  0  0  0  0  0  0
   -2.0784   56.7977   76.7823 H   0  0  0  0  0  0  0  0  0  0  0  0
   -1.4474   57.8272   75.4525 H   0  0  0  0  0  0  0  0  0  0  0  0
   -1.1219   56.0607   75.4525 H   0  0  0  0  0  0  0  0  0  0  0  0
  2  1  1  0
  3  2  1  0
  4  3  1  0
  5  4  1  0
  6  5  1  0
  6  1  1  0
  7  6  1  0
  8  7  1  0
  9  8  2  0
 10  9  1  0
 11 10  2  0
 11  7  1  0
 12 11  1  0
 13 12  1  0
 14 12  2  0
 15 14  1  0
 16 15  2  0
 16 10  1  0
 17 15  1  0
 18 17  1  0
 19 18  2  0
 20 18  1  0
 21  4  1  0
 22 21  2  0
 23 21  1  0
 24  1  1  0
 26 25  1  0
 26 24  1  0
 27 26  2  0
 28  2  1  0
 29 28  1  0
 30 29  2  0
 31 29  1  0
 32  3  1  0
 33 32  1  0
 34 33  2  0
 35 33  1  0
  1 36  1  6
  2 37  1  1
  3 38  1  6
  4 39  1  1
  6 40  1  6
  8 41  1  0
 17 42  1  0
 20 43  1  0
 20 44  1  0
 20 45  1  0
 25 46  1  0
 25 47  1  0
 25 48  1  0
 31 49  1  0
 31 50  1  0
 31 51  1  0
 35 52  1  0
 35 53  1  0
 35 54  1  0
M  CHG  1  23  -1
M  END
>  <score>  (4) 
-6.76

$$$$
=
     RDKit          3D

 54 56  0  0  0  0  0  0  0  0999 V2000
    1.9530   60.8960   74.0140 C   0  0  2  0  0  0  0  0  0  0  0  0
    1.9680   62.0740   73.0160 C   0  0  1  0  0  0  0  0  0  0  0  0
    3.0370   61.8220   71.9420 C   0  0  1  0  0  0  0  0  0  0  0  0
    2.6560   60.5620   71.1450 C   0  0  2  0  0  0  0  0  0  0  0  0
    1.8330   59.6290   71.9050 O   0  0  0  0  0  0  0  0  0  0  0  0
    2.2050   59.5440   73.2900 C   0  0  2  0  0  0  0  0  0  0  0  0
    1.4790   58.4200   73.8740 N   0  0  0  0  0  0  0  0  0  0  0  0
    0.3460   57.8630   73.3270 C   0  0  0  0  0  0  0  0  0  0  0  0
   -0.1530   56.9120   74.0850 N   0  0  0  0  0  0  0  0  0  0  0  0
    0.7140   56.8200   75.1360 C   0  0  0  0  0  0  0  0  0  0  0  0
    1.7350   57.7490   75.0420 C   0  0  0  0  0  0  0  0  0  0  0  0
    2.6590   57.7860   76.0610 C   0  0  0  0  0  0  0  0  0  0  0  0
    3.9660   58.8740   76.1810 Cl  0  0  0  0  0  0  0  0  0  0  0  0
    2.5450   56.9180   77.0810 N   0  0  0  0  0  0  0  0  0  0  0  0
    1.5300   56.0490   77.0810 C   0  0  0  0  0  0  0  0  0  0  0  0
    0.5790   55.9510   76.1500 N   0  0  0  0  0  0  0  0  0  0  0  0
    1.3730   55.1230   78.1040 N   0  0  0  0  0  0  0  0  0  0  0  0
    2.1630   54.9810   79.2130 C   0  0  0  0  0  0  0  0  0  0  0  0
    3.1320   55.6610   79.5330 O   0  0  0  0  0  0  0  0  0  0  0  0
    1.7010   53.8570   80.1080 C   0  0  0  0  0  0  0  0  0  0  0  0
    3.9690   59.8900   70.6750 C   0  0  0  0  0  0  0  0  0  0  0  0
    3.9260   59.3830   69.5160 O   0  0  0  0  0  0  0  0  0  0  0  0
    4.9210   59.9220   71.5020 O   0  0  0  0  0  1  0  0  0  0  0  0
    0.6680   60.9490   74.6960 O   0  0  0  0  0  0  0  0  0  0  0  0
   -0.5290   62.4310   76.0550 C   0  0  0  0  0  0  0  0  0  0  0  0
    0.6420   61.5070   75.9330 C   0  0  0  0  0  0  0  0  0  0  0  0
    1.4420   61.2810   76.8280 O   0  0  0  0  0  0  0  0  0  0  0  0
    0.6590   62.1680   72.3800 O   0  0  0  0  0  0  0  0  0  0  0  0
    0.1510   63.4050   72.1600 C   0  0  0  0  0  0  0  0  0  0  0  0
   -0.1260   64.2360   73.0130 O   0  0  0  0  0  0  0  0  0  0  0  0
   -0.0390   63.6170   70.6890 C   0  0  0  0  0  0  0  0  0  0  0  0
    3.1140   62.9390   71.0270 O   0  0  0  0  0  0  0  0  0  0  0  0
    4.2560   63.0260   70.2930 C   0  0  0  0  0  0  0  0  0  0  0  0
    5.3860   63.1590   70.7450 O   0  0  0  0  0  0  0  0  0  0  0  0
    3.9320   62.9460   68.8340 C   0  0  0  0  0  0  0  0  0  0  0  0
    2.7662   60.9767   74.7504 H   0  0  0  0  0  0  0  0  0  0  0  0
    2.1974   63.0099   73.5465 H   0  0  0  0  0  0  0  0  0  0  0  0
    4.0113   61.6932   72.4362 H   0  0  0  0  0  0  0  0  0  0  0  0
    2.0361   60.8599   70.2865 H   0  0  0  0  0  0  0  0  0  0  0  0
    3.2829   59.3572   73.4053 H   0  0  0  0  0  0  0  0  0  0  0  0
   -0.0911   58.1768   72.3676 H   0  0  0  0  0  0  0  0  0  0  0  0
    0.5776   54.4741   78.0193 H   0  0  0  0  0  0  0  0  0  0  0  0
    1.8226   54.1528   81.1605 H   0  0  0  0  0  0  0  0  0  0  0  0
    0.6411   53.6410   79.9079 H   0  0  0  0  0  0  0  0  0  0  0  0
    2.3026   52.9581   79.9079 H   0  0  0  0  0  0  0  0  0  0  0  0
   -0.7495   62.6050   77.1185 H   0  0  0  0  0  0  0  0  0  0  0  0
   -0.2927   63.3886   75.5681 H   0  0  0  0  0  0  0  0  0  0  0  0
   -1.4054   61.9785   75.5681 H   0  0  0  0  0  0  0  0  0  0  0  0
   -0.7651   64.4271   70.5261 H   0  0  0  0  0  0  0  0  0  0  0  0
    0.9231   63.8892   70.2305 H   0  0  0  0  0  0  0  0  0  0  0  0
   -0.4146   62.6903   70.2305 H   0  0  0  0  0  0  0  0  0  0  0  0
    2.8711   62.6841   68.7078 H   0  0  0  0  0  0  0  0  0  0  0  0
    4.1281   63.9195   68.3609 H   0  0  0  0  0  0  0  0  0  0  0  0
    4.5587   62.1756   68.3609 H   0  0  0  0  0  0  0  0  0  0  0  0
  2  1  1  0
  3  2  1  0
  4  3  1  0
  5  4  1  0
  6  5  1  0
  6  1  1  0
  7  6  1  0
  8  7  1  0
  9  8  2  0
 10  9  1  0
 11 10  2  0
 11  7  1  0
 12 11  1  0
 13 12  1  0
 14 12  2  0
 15 14  1  0
 16 15  2  0
 16 10  1  0
 17 15  1  0
 18 17  1  0
 19 18  2  0
 20 18  1  0
 21  4  1  0
 22 21  2  0
 23 21  1  0
 24  1  1  0
 26 25  1  0
 26 24  1  0
 27 26  2  0
 28  2  1  0
 29 28  1  0
 30 29  2  0
 31 29  1  0
 32  3  1  0
 33 32  1  0
 34 33  2  0
 35 33  1  0
  1 36  1  1
  2 37  1  1
  3 38  1  1
  4 39  1  6
  6 40  1  6
  8 41  1  0
 17 42  1  0
 20 43  1  0
 20 44  1  0
 20 45  1  0
 25 46  1  0
 25 47  1  0
 25 48  1  0
 31 49  1  0
 31 50  1  0
 31 51  1  0
 35 52  1  0
 35 53  1  0
 35 54  1  0
M  CHG  1  23  -1
M  END
>  <score>  (5) 
-6.544

$$$$
=
     RDKit          3D

 54 56  0  0  0  0  0  0  0  0999 V2000
    1.2600   58.7790   75.7390 C   0  0  2  0  0  0  0  0  0  0  0  0
    1.2230   57.6630   76.8050 C   0  0  1  0  0  0  0  0  0  0  0  0
    0.9890   56.3080   76.1220 C   0  0  1  0  0  0  0  0  0  0  0  0
    2.1790   56.0040   75.1940 C   0  0  2  0  0  0  0  0  0  0  0  0
    2.8580   57.2040   74.7210 O   0  0  0  0  0  0  0  0  0  0  0  0
    1.9590   58.2890   74.4400 C   0  0  2  0  0  0  0  0  0  0  0  0
    2.7230   59.3290   73.7560 N   0  0  0  0  0  0  0  0  0  0  0  0
    4.0960   59.3650   73.6910 C   0  0  0  0  0  0  0  0  0  0  0  0
    4.5350   60.4420   73.0800 N   0  0  0  0  0  0  0  0  0  0  0  0
    3.4040   61.1040   72.6950 C   0  0  0  0  0  0  0  0  0  0  0  0
    2.2590   60.4450   73.1060 C   0  0  0  0  0  0  0  0  0  0  0  0
    1.0480   61.0280   72.8130 C   0  0  0  0  0  0  0  0  0  0  0  0
   -0.4820   60.4260   73.2630 Cl  0  0  0  0  0  0  0  0  0  0  0  0
    1.0270   62.1870   72.1310 N   0  0  0  0  0  0  0  0  0  0  0  0
    2.1840   62.7440   71.7660 C   0  0  0  0  0  0  0  0  0  0  0  0
    3.4040   62.2640   72.0200 N   0  0  0  0  0  0  0  0  0  0  0  0
    2.2190   63.9340   71.0500 N   0  0  0  0  0  0  0  0  0  0  0  0
    1.1450   64.6870   70.6550 C   0  0  0  0  0  0  0  0  0  0  0  0
   -0.0400   64.4780   70.8860 O   0  0  0  0  0  0  0  0  0  0  0  0
    1.5580   65.9130   69.8780 C   0  0  0  0  0  0  0  0  0  0  0  0
    1.6490   55.1610   74.0110 C   0  0  0  0  0  0  0  0  0  0  0  0
    2.4660   54.3120   73.5490 O   0  0  0  0  0  0  0  0  0  0  0  0
    0.4700   55.4230   73.6430 O   0  0  0  0  0  1  0  0  0  0  0  0
    1.9270   59.9170   76.3540 O   0  0  0  0  0  0  0  0  0  0  0  0
    0.0340   60.7100   77.4770 C   0  0  0  0  0  0  0  0  0  0  0  0
    1.1830   61.0310   76.5740 C   0  0  0  0  0  0  0  0  0  0  0  0
    1.4200   62.1400   76.1210 O   0  0  0  0  0  0  0  0  0  0  0  0
    2.5040   57.6360   77.5020 O   0  0  0  0  0  0  0  0  0  0  0  0
    2.5070   57.9150   78.8290 C   0  0  0  0  0  0  0  0  0  0  0  0
    1.5250   58.0260   79.5480 O   0  0  0  0  0  0  0  0  0  0  0  0
    3.9180   58.0820   79.3030 C   0  0  0  0  0  0  0  0  0  0  0  0
    0.8900   55.2510   77.1040 O   0  0  0  0  0  0  0  0  0  0  0  0
   -0.1260   54.3650   76.9210 C   0  0  0  0  0  0  0  0  0  0  0  0
   -1.2830   54.6540   76.6480 O   0  0  0  0  0  0  0  0  0  0  0  0
    0.3760   52.9670   77.1130 C   0  0  0  0  0  0  0  0  0  0  0  0
    0.2484   59.0722   75.4216 H   0  0  0  0  0  0  0  0  0  0  0  0
    0.4088   57.8564   77.5190 H   0  0  0  0  0  0  0  0  0  0  0  0
    0.0501   56.3582   75.5511 H   0  0  0  0  0  0  0  0  0  0  0  0
    2.9388   55.4481   75.7629 H   0  0  0  0  0  0  0  0  0  0  0  0
    1.1391   57.9698   73.7798 H   0  0  0  0  0  0  0  0  0  0  0  0
    4.7508   58.5829   74.1028 H   0  0  0  0  0  0  0  0  0  0  0  0
    3.1505   64.2873   70.7886 H   0  0  0  0  0  0  0  0  0  0  0  0
    1.8288   66.7169   70.5783 H   0  0  0  0  0  0  0  0  0  0  0  0
    2.4243   65.6711   69.2447 H   0  0  0  0  0  0  0  0  0  0  0  0
    0.7220   66.2446   69.2447 H   0  0  0  0  0  0  0  0  0  0  0  0
    0.3553   60.7997   78.5252 H   0  0  0  0  0  0  0  0  0  0  0  0
   -0.7907   61.4121   77.2848 H   0  0  0  0  0  0  0  0  0  0  0  0
   -0.3073   59.6821   77.2848 H   0  0  0  0  0  0  0  0  0  0  0  0
    3.9375   58.0843   80.4028 H   0  0  0  0  0  0  0  0  0  0  0  0
    4.5319   57.2502   78.9271 H   0  0  0  0  0  0  0  0  0  0  0  0
    4.3208   59.0341   78.9271 H   0  0  0  0  0  0  0  0  0  0  0  0
    0.4540   52.7499   78.1885 H   0  0  0  0  0  0  0  0  0  0  0  0
   -0.3239   52.2587   76.6457 H   0  0  0  0  0  0  0  0  0  0  0  0
    1.3667   52.8657   76.6457 H   0  0  0  0  0  0  0  0  0  0  0  0
  2  1  1  0
  3  2  1  0
  4  3  1  0
  5  4  1  0
  6  5  1  0
  6  1  1  0
  7  6  1  0
  8  7  1  0
  9  8  2  0
 10  9  1  0
 11 10  2  0
 11  7  1  0
 12 11  1  0
 13 12  1  0
 14 12  2  0
 15 14  1  0
 16 15  2  0
 16 10  1  0
 17 15  1  0
 18 17  1  0
 19 18  2  0
 20 18  1  0
 21  4  1  0
 22 21  2  0
 23 21  1  0
 24  1  1  0
 26 25  1  0
 26 24  1  0
 27 26  2  0
 28  2  1  0
 29 28  1  0
 30 29  2  0
 31 29  1  0
 32  3  1  0
 33 32  1  0
 34 33  2  0
 35 33  1  0
  1 36  1  6
  2 37  1  1
  3 38  1  6
  4 39  1  1
  6 40  1  6
  8 41  1  0
 17 42  1  0
 20 43  1  0
 20 44  1  0
 20 45  1  0
 25 46  1  0
 25 47  1  0
 25 48  1  0
 31 49  1  0
 31 50  1  0
 31 51  1  0
 35 52  1  0
 35 53  1  0
 35 54  1  0
M  CHG  1  23  -1
M  END
>  <score>  (6) 
-6.033

$$$$
=
     RDKit          3D

 54 56  0  0  0  0  0  0  0  0999 V2000
   -1.0860   57.0420   74.9550 C   0  0  2  0  0  0  0  0  0  0  0  0
   -1.5260   55.7690   75.7100 C   0  0  1  0  0  0  0  0  0  0  0  0
   -0.6110   54.5990   75.3190 C   0  0  1  0  0  0  0  0  0  0  0  0
    0.8260   54.9170   75.7700 C   0  0  2  0  0  0  0  0  0  0  0  0
    1.0960   56.3460   75.8620 O   0  0  0  0  0  0  0  0  0  0  0  0
    0.4600   57.1100   74.8240 C   0  0  2  0  0  0  0  0  0  0  0  0
    0.9960   58.4660   74.8840 N   0  0  0  0  0  0  0  0  0  0  0  0
    0.8040   59.3290   75.9380 C   0  0  0  0  0  0  0  0  0  0  0  0
    1.3300   60.5120   75.7120 N   0  0  0  0  0  0  0  0  0  0  0  0
    1.9230   60.3960   74.4870 C   0  0  0  0  0  0  0  0  0  0  0  0
    1.7280   59.1410   73.9390 C   0  0  0  0  0  0  0  0  0  0  0  0
    2.2450   58.9050   72.6870 C   0  0  0  0  0  0  0  0  0  0  0  0
    2.0840   57.4580   71.7990 Cl  0  0  0  0  0  0  0  0  0  0  0  0
    2.9260   59.8830   72.0640 N   0  0  0  0  0  0  0  0  0  0  0  0
    3.0730   61.0600   72.6770 C   0  0  0  0  0  0  0  0  0  0  0  0
    2.5930   61.3870   73.8790 N   0  0  0  0  0  0  0  0  0  0  0  0
    3.7780   62.1000   72.0840 N   0  0  0  0  0  0  0  0  0  0  0  0
    4.3700   62.0930   70.8490 C   0  0  0  0  0  0  0  0  0  0  0  0
    4.3630   61.1880   70.0220 O   0  0  0  0  0  0  0  0  0  0  0  0
    5.0640   63.3950   70.5370 C   0  0  0  0  0  0  0  0  0  0  0  0
    1.7930   54.2300   74.7760 C   0  0  0  0  0  0  0  0  0  0  0  0
    3.0160   54.5110   74.9380 O   0  0  0  0  0  0  0  0  0  0  0  0
    1.2470   53.4790   73.9200 O   0  0  0  0  0  1  0  0  0  0  0  0
   -1.6500   58.1690   75.6840 O   0  0  0  0  0  0  0  0  0  0  0  0
   -2.3530   59.9650   74.3590 C   0  0  0  0  0  0  0  0  0  0  0  0
   -2.7510   58.7630   75.1570 C   0  0  0  0  0  0  0  0  0  0  0  0
   -3.8990   58.3710   75.2930 O   0  0  0  0  0  0  0  0  0  0  0  0
   -1.4130   56.0100   77.1440 O   0  0  0  0  0  0  0  0  0  0  0  0
   -2.4960   55.7490   77.9160 C   0  0  0  0  0  0  0  0  0  0  0  0
   -3.6060   56.2490   77.8000 O   0  0  0  0  0  0  0  0  0  0  0  0
   -2.1340   54.7430   78.9650 C   0  0  0  0  0  0  0  0  0  0  0  0
   -1.0370   53.3790   75.9670 O   0  0  0  0  0  0  0  0  0  0  0  0
   -2.1380   52.7800   75.4380 C   0  0  0  0  0  0  0  0  0  0  0  0
   -3.2930   52.9640   75.7990 O   0  0  0  0  0  0  0  0  0  0  0  0
   -1.7330   51.8440   74.3420 C   0  0  0  0  0  0  0  0  0  0  0  0
   -1.4557   57.0495   73.9190 H   0  0  0  0  0  0  0  0  0  0  0  0
   -2.5658   55.5217   75.4499 H   0  0  0  0  0  0  0  0  0  0  0  0
   -0.6582   54.4628   74.2285 H   0  0  0  0  0  0  0  0  0  0  0  0
    0.9703   54.5309   76.7899 H   0  0  0  0  0  0  0  0  0  0  0  0
    0.6779   56.6947   73.8290 H   0  0  0  0  0  0  0  0  0  0  0  0
    0.2720   59.0601   76.8625 H   0  0  0  0  0  0  0  0  0  0  0  0
    3.8646   62.9683   72.6312 H   0  0  0  0  0  0  0  0  0  0  0  0
    5.3337   63.9009   71.4758 H   0  0  0  0  0  0  0  0  0  0  0  0
    5.9749   63.1944   69.9538 H   0  0  0  0  0  0  0  0  0  0  0  0
    4.3897   64.0394   69.9538 H   0  0  0  0  0  0  0  0  0  0  0  0
   -2.0817   60.7844   75.0409 H   0  0  0  0  0  0  0  0  0  0  0  0
   -1.4898   59.7147   73.7248 H   0  0  0  0  0  0  0  0  0  0  0  0
   -3.1950   60.2793   73.7248 H   0  0  0  0  0  0  0  0  0  0  0  0
   -2.2913   55.1802   79.9621 H   0  0  0  0  0  0  0  0  0  0  0  0
   -2.7675   53.8509   78.8517 H   0  0  0  0  0  0  0  0  0  0  0  0
   -1.0773   54.4591   78.8517 H   0  0  0  0  0  0  0  0  0  0  0  0
   -1.3323   50.9180   74.7801 H   0  0  0  0  0  0  0  0  0  0  0  0
   -2.6088   51.6065   73.7203 H   0  0  0  0  0  0  0  0  0  0  0  0
   -0.9603   52.3198   73.7203 H   0  0  0  0  0  0  0  0  0  0  0  0
  2  1  1  0
  3  2  1  0
  4  3  1  0
  5  4  1  0
  6  5  1  0
  6  1  1  0
  7  6  1  0
  8  7  1  0
  9  8  2  0
 10  9  1  0
 11 10  2  0
 11  7  1  0
 12 11  1  0
 13 12  1  0
 14 12  2  0
 15 14  1  0
 16 15  2  0
 16 10  1  0
 17 15  1  0
 18 17  1  0
 19 18  2  0
 20 18  1  0
 21  4  1  0
 22 21  2  0
 23 21  1  0
 24  1  1  0
 26 25  1  0
 26 24  1  0
 27 26  2  0
 28  2  1  0
 29 28  1  0
 30 29  2  0
 31 29  1  0
 32  3  1  0
 33 32  1  0
 34 33  2  0
 35 33  1  0
  1 36  1  6
  2 37  1  1
  3 38  1  6
  4 39  1  1
  6 40  1  6
  8 41  1  0
 17 42  1  0
 20 43  1  0
 20 44  1  0
 20 45  1  0
 25 46  1  0
 25 47  1  0
 25 48  1  0
 31 49  1  0
 31 50  1  0
 31 51  1  0
 35 52  1  0
 35 53  1  0
 35 54  1  0
M  CHG  1  23  -1
M  END
>  <score>  (7) 
-5.891

$$$$
