=
     RDKit          3D

 32 33  0  0  0  0  0  0  0  0999 V2000
    2.0680   66.5260   65.1960 C   0  0  0  0  0  0  0  0  0  0  0  0
    1.1340   65.9370   64.6570 O   0  0  0  0  0  0  0  0  0  0  0  0
    1.4050   66.8990   67.4290 O   0  0  0  0  0  0  0  0  0  0  0  0
    1.7510   67.4140   66.3740 C   0  0  0  0  0  0  0  0  0  0  0  0
    1.9580   68.8890   66.1320 C   0  0  0  0  0  0  0  0  0  0  0  0
    3.0210   69.4960   67.0140 C   0  0  0  0  0  0  0  0  0  0  0  0
    4.3310   69.6580   66.5400 C   0  0  0  0  0  0  0  0  0  0  0  0
    5.3080   70.2360   67.3510 C   0  0  0  0  0  0  0  0  0  0  0  0
    4.9870   70.6600   68.6390 C   0  0  0  0  0  0  0  0  0  0  0  0
    3.6860   70.5090   69.1160 C   0  0  0  0  0  0  0  0  0  0  0  0
    2.7070   69.9310   68.3070 C   0  0  0  0  0  0  0  0  0  0  0  0
    3.5080   66.3860   64.7880 C   0  0  1  0  0  0  0  0  0  0  0  0
    3.8540   64.5260   64.3380 Br  0  0  0  0  0  0  0  0  0  0  0  0
    3.9740   67.3540   63.7240 C   0  0  0  0  0  0  0  0  0  0  0  0
    3.1370   67.8350   62.7050 C   0  0  0  0  0  0  0  0  0  0  0  0
    3.6050   68.7650   61.7720 C   0  0  0  0  0  0  0  0  0  0  0  0
    4.9130   69.2320   61.8450 C   0  0  0  0  0  0  0  0  0  0  0  0
    5.7570   68.7740   62.8520 C   0  0  0  0  0  0  0  0  0  0  0  0
    5.2910   67.8460   63.7870 C   0  0  0  0  0  0  0  0  0  0  0  0
    2.2522   69.0324   65.0818 H   0  0  0  0  0  0  0  0  0  0  0  0
    1.0102   69.3940   66.3701 H   0  0  0  0  0  0  0  0  0  0  0  0
    4.5895   69.3275   65.5232 H   0  0  0  0  0  0  0  0  0  0  0  0
    6.3338   70.3573   66.9729 H   0  0  0  0  0  0  0  0  0  0  0  0
    5.7590   71.1131   69.2783 H   0  0  0  0  0  0  0  0  0  0  0  0
    3.4307   70.8459   70.1315 H   0  0  0  0  0  0  0  0  0  0  0  0
    1.6814   69.8164   68.6879 H   0  0  0  0  0  0  0  0  0  0  0  0
    4.1227   66.6767   65.6526 H   0  0  0  0  0  0  0  0  0  0  0  0
    2.0994   67.4755   62.6397 H   0  0  0  0  0  0  0  0  0  0  0  0
    2.9366   69.1286   60.9776 H   0  0  0  0  0  0  0  0  0  0  0  0
    5.2795   69.9619   61.1082 H   0  0  0  0  0  0  0  0  0  0  0  0
    6.7916   69.1427   62.9121 H   0  0  0  0  0  0  0  0  0  0  0  0
    5.9633   67.4950   64.5838 H   0  0  0  0  0  0  0  0  0  0  0  0
  2  1  2  0
  4  1  1  0
  4  3  2  0
  5  4  1  0
  6  5  1  0
  7  6  2  0
  8  7  1  0
  9  8  2  0
 10  9  1  0
 11 10  2  0
 11  6  1  0
 12  1  1  0
 13 12  1  0
 14 12  1  0
 15 14  2  0
 16 15  1  0
 17 16  2  0
 18 17  1  0
 19 14  1  0
 19 18  2  0
  5 20  1  0
  5 21  1  0
  7 22  1  0
  8 23  1  0
  9 24  1  0
 10 25  1  0
 11 26  1  0
 12 27  1  1
 15 28  1  0
 16 29  1  0
 17 30  1  0
 18 31  1  0
 19 32  1  0
M  END
>  <score>  (1) 
-9.199

$$$$
=
     RDKit          3D

 32 33  0  0  0  0  0  0  0  0999 V2000
    1.8410   67.2040   64.6540 C   0  0  0  0  0  0  0  0  0  0  0  0
    1.5140   66.0200   64.6440 O   0  0  0  0  0  0  0  0  0  0  0  0
    4.0990   66.6120   64.3170 O   0  0  0  0  0  0  0  0  0  0  0  0
    3.3040   67.5280   64.4810 C   0  0  0  0  0  0  0  0  0  0  0  0
    3.6320   69.0010   64.4720 C   0  0  0  0  0  0  0  0  0  0  0  0
    4.2470   69.4840   65.7620 C   0  0  0  0  0  0  0  0  0  0  0  0
    5.6050   69.8300   65.8180 C   0  0  0  0  0  0  0  0  0  0  0  0
    6.1670   70.2940   67.0070 C   0  0  0  0  0  0  0  0  0  0  0  0
    5.3800   70.4200   68.1500 C   0  0  0  0  0  0  0  0  0  0  0  0
    4.0280   70.0850   68.1030 C   0  0  0  0  0  0  0  0  0  0  0  0
    3.4630   69.6210   66.9150 C   0  0  0  0  0  0  0  0  0  0  0  0
    0.8760   68.3490   64.7820 C   0  0  1  0  0  0  0  0  0  0  0  0
    0.2830   68.8710   63.0040 Br  0  0  0  0  0  0  0  0  0  0  0  0
   -0.2630   68.1280   65.7510 C   0  0  0  0  0  0  0  0  0  0  0  0
   -1.5420   68.6780   65.5690 C   0  0  0  0  0  0  0  0  0  0  0  0
   -2.5740   68.4050   66.4710 C   0  0  0  0  0  0  0  0  0  0  0  0
   -2.3470   67.5770   67.5650 C   0  0  0  0  0  0  0  0  0  0  0  0
   -1.0880   67.0160   67.7600 C   0  0  0  0  0  0  0  0  0  0  0  0
   -0.0550   67.2860   66.8590 C   0  0  0  0  0  0  0  0  0  0  0  0
    4.3403   69.1958   63.6533 H   0  0  0  0  0  0  0  0  0  0  0  0
    2.6849   69.5445   64.3394 H   0  0  0  0  0  0  0  0  0  0  0  0
    6.2308   69.7348   64.9184 H   0  0  0  0  0  0  0  0  0  0  0  0
    7.2335   70.5610   67.0426 H   0  0  0  0  0  0  0  0  0  0  0  0
    5.8252   70.7833   69.0880 H   0  0  0  0  0  0  0  0  0  0  0  0
    3.4054   70.1866   69.0042 H   0  0  0  0  0  0  0  0  0  0  0  0
    2.3947   69.3609   66.8832 H   0  0  0  0  0  0  0  0  0  0  0  0
    1.4190   69.1838   65.2491 H   0  0  0  0  0  0  0  0  0  0  0  0
   -1.7341   69.3320   64.7056 H   0  0  0  0  0  0  0  0  0  0  0  0
   -3.5693   68.8466   66.3151 H   0  0  0  0  0  0  0  0  0  0  0  0
   -3.1605   67.3658   68.2747 H   0  0  0  0  0  0  0  0  0  0  0  0
   -0.9064   66.3598   68.6239 H   0  0  0  0  0  0  0  0  0  0  0  0
    0.9351   66.8339   67.0180 H   0  0  0  0  0  0  0  0  0  0  0  0
  2  1  2  0
  4  1  1  0
  4  3  2  0
  5  4  1  0
  6  5  1  0
  7  6  2  0
  8  7  1  0
  9  8  2  0
 10  9  1  0
 11 10  2  0
 11  6  1  0
 12  1  1  0
 13 12  1  0
 14 12  1  0
 15 14  2  0
 16 15  1  0
 17 16  2  0
 18 17  1  0
 19 14  1  0
 19 18  2  0
  5 20  1  0
  5 21  1  0
  7 22  1  0
  8 23  1  0
  9 24  1  0
 10 25  1  0
 11 26  1  0
 12 27  1  1
 15 28  1  0
 16 29  1  0
 17 30  1  0
 18 31  1  0
 19 32  1  0
M  END
>  <score>  (2) 
-9.042

$$$$
=
     RDKit          3D

 32 33  0  0  0  0  0  0  0  0999 V2000
    2.7510   68.4770   65.0370 C   0  0  0  0  0  0  0  0  0  0  0  0
    2.0670   69.2000   64.3170 O   0  0  0  0  0  0  0  0  0  0  0  0
    2.1230   66.2170   65.2740 O   0  0  0  0  0  0  0  0  0  0  0  0
    2.0610   67.3420   65.7520 C   0  0  0  0  0  0  0  0  0  0  0  0
    1.3950   67.7190   67.0520 C   0  0  0  0  0  0  0  0  0  0  0  0
   -0.1070   67.8120   66.9490 C   0  0  0  0  0  0  0  0  0  0  0  0
   -0.7050   68.7130   66.0560 C   0  0  0  0  0  0  0  0  0  0  0  0
   -2.0940   68.7840   65.9500 C   0  0  0  0  0  0  0  0  0  0  0  0
   -2.8980   67.9560   66.7290 C   0  0  0  0  0  0  0  0  0  0  0  0
   -2.3130   67.0530   67.6150 C   0  0  0  0  0  0  0  0  0  0  0  0
   -0.9240   66.9800   67.7240 C   0  0  0  0  0  0  0  0  0  0  0  0
    4.2360   68.6240   65.2190 C   0  0  1  0  0  0  0  0  0  0  0  0
    5.0220   69.1830   63.5300 Br  0  0  0  0  0  0  0  0  0  0  0  0
    4.6610   69.4820   66.3890 C   0  0  0  0  0  0  0  0  0  0  0  0
    3.8030   69.8140   67.4490 C   0  0  0  0  0  0  0  0  0  0  0  0
    4.2590   70.5730   68.5300 C   0  0  0  0  0  0  0  0  0  0  0  0
    5.5800   71.0080   68.5730 C   0  0  0  0  0  0  0  0  0  0  0  0
    6.4490   70.6830   67.5360 C   0  0  0  0  0  0  0  0  0  0  0  0
    5.9960   69.9230   66.4540 C   0  0  0  0  0  0  0  0  0  0  0  0
    1.6467   66.9589   67.8063 H   0  0  0  0  0  0  0  0  0  0  0  0
    1.7645   68.7172   67.3294 H   0  0  0  0  0  0  0  0  0  0  0  0
   -0.0750   69.3674   65.4356 H   0  0  0  0  0  0  0  0  0  0  0  0
   -2.5553   69.4957   65.2495 H   0  0  0  0  0  0  0  0  0  0  0  0
   -3.9932   68.0145   66.6453 H   0  0  0  0  0  0  0  0  0  0  0  0
   -2.9473   66.3970   68.2292 H   0  0  0  0  0  0  0  0  0  0  0  0
   -0.4677   66.2640   68.4234 H   0  0  0  0  0  0  0  0  0  0  0  0
    4.6307   67.6365   65.5002 H   0  0  0  0  0  0  0  0  0  0  0  0
    2.7577   69.4721   67.4285 H   0  0  0  0  0  0  0  0  0  0  0  0
    3.5712   70.8275   69.3499 H   0  0  0  0  0  0  0  0  0  0  0  0
    5.9362   71.6069   69.4241 H   0  0  0  0  0  0  0  0  0  0  0  0
    7.4941   71.0247   67.5678 H   0  0  0  0  0  0  0  0  0  0  0  0
    6.6924   69.6660   65.6422 H   0  0  0  0  0  0  0  0  0  0  0  0
  2  1  2  0
  4  1  1  0
  4  3  2  0
  5  4  1  0
  6  5  1  0
  7  6  2  0
  8  7  1  0
  9  8  2  0
 10  9  1  0
 11 10  2  0
 11  6  1  0
 12  1  1  0
 13 12  1  0
 14 12  1  0
 15 14  2  0
 16 15  1  0
 17 16  2  0
 18 17  1  0
 19 14  1  0
 19 18  2  0
  5 20  1  0
  5 21  1  0
  7 22  1  0
  8 23  1  0
  9 24  1  0
 10 25  1  0
 11 26  1  0
 12 27  1  1
 15 28  1  0
 16 29  1  0
 17 30  1  0
 18 31  1  0
 19 32  1  0
M  END
>  <score>  (3) 
-9.024

$$$$
=
     RDKit          3D

 32 33  0  0  0  0  0  0  0  0999 V2000
    1.0960   67.3820   66.2300 C   0  0  0  0  0  0  0  0  0  0  0  0
    0.0260   66.7890   66.1230 O   0  0  0  0  0  0  0  0  0  0  0  0
    1.4250   67.3950   68.5650 O   0  0  0  0  0  0  0  0  0  0  0  0
    1.3920   68.0660   67.5420 C   0  0  0  0  0  0  0  0  0  0  0  0
    1.6790   69.5430   67.4390 C   0  0  0  0  0  0  0  0  0  0  0  0
    3.1200   69.8910   67.7160 C   0  0  0  0  0  0  0  0  0  0  0  0
    4.1000   69.7080   66.7290 C   0  0  0  0  0  0  0  0  0  0  0  0
    5.4290   70.0490   66.9820 C   0  0  0  0  0  0  0  0  0  0  0  0
    5.7920   70.5770   68.2180 C   0  0  0  0  0  0  0  0  0  0  0  0
    4.8260   70.7690   69.2040 C   0  0  0  0  0  0  0  0  0  0  0  0
    3.4950   70.4300   68.9540 C   0  0  0  0  0  0  0  0  0  0  0  0
    2.1480   67.4340   65.1570 C   0  0  1  0  0  0  0  0  0  0  0  0
    2.7690   65.6260   64.7990 Br  0  0  0  0  0  0  0  0  0  0  0  0
    1.7580   68.1900   63.9070 C   0  0  0  0  0  0  0  0  0  0  0  0
    2.5830   68.2780   62.7750 C   0  0  0  0  0  0  0  0  0  0  0  0
    2.1550   68.9520   61.6270 C   0  0  0  0  0  0  0  0  0  0  0  0
    0.8970   69.5430   61.5900 C   0  0  0  0  0  0  0  0  0  0  0  0
    0.0600   69.4610   62.7000 C   0  0  0  0  0  0  0  0  0  0  0  0
    0.4840   68.7870   63.8480 C   0  0  0  0  0  0  0  0  0  0  0  0
    1.4284   69.8773   66.4214 H   0  0  0  0  0  0  0  0  0  0  0  0
    1.0692   70.0476   68.2028 H   0  0  0  0  0  0  0  0  0  0  0  0
    3.8189   69.2932   65.7498 H   0  0  0  0  0  0  0  0  0  0  0  0
    6.1916   69.9004   66.2033 H   0  0  0  0  0  0  0  0  0  0  0  0
    6.8409   70.8425   68.4163 H   0  0  0  0  0  0  0  0  0  0  0  0
    5.1125   71.1879   70.1799 H   0  0  0  0  0  0  0  0  0  0  0  0
    2.7355   70.5870   69.7341 H   0  0  0  0  0  0  0  0  0  0  0  0
    2.9806   68.0395   65.5446 H   0  0  0  0  0  0  0  0  0  0  0  0
    3.5788   67.8109   62.7911 H   0  0  0  0  0  0  0  0  0  0  0  0
    2.8160   69.0149   60.7500 H   0  0  0  0  0  0  0  0  0  0  0  0
    0.5637   70.0740   60.6862 H   0  0  0  0  0  0  0  0  0  0  0  0
   -0.9359   69.9273   62.6729 H   0  0  0  0  0  0  0  0  0  0  0  0
   -0.1865   68.7218   64.7176 H   0  0  0  0  0  0  0  0  0  0  0  0
  2  1  2  0
  4  1  1  0
  4  3  2  0
  5  4  1  0
  6  5  1  0
  7  6  2  0
  8  7  1  0
  9  8  2  0
 10  9  1  0
 11 10  2  0
 11  6  1  0
 12  1  1  0
 13 12  1  0
 14 12  1  0
 15 14  2  0
 16 15  1  0
 17 16  2  0
 18 17  1  0
 19 14  1  0
 19 18  2  0
  5 20  1  0
  5 21  1  0
  7 22  1  0
  8 23  1  0
  9 24  1  0
 10 25  1  0
 11 26  1  0
 12 27  1  1
 15 28  1  0
 16 29  1  0
 17 30  1  0
 18 31  1  0
 19 32  1  0
M  END
>  <score>  (4) 
-8.993

$$$$
=
     RDKit          3D

 32 33  0  0  0  0  0  0  0  0999 V2000
    1.7360   67.5960   66.5810 C   0  0  0  0  0  0  0  0  0  0  0  0
    1.6860   66.7790   67.4970 O   0  0  0  0  0  0  0  0  0  0  0  0
    0.6630   67.1790   64.5230 O   0  0  0  0  0  0  0  0  0  0  0  0
    1.6970   67.0690   65.1680 C   0  0  0  0  0  0  0  0  0  0  0  0
    3.0000   66.4950   64.6680 C   0  0  0  0  0  0  0  0  0  0  0  0
    3.7870   67.4560   63.8130 C   0  0  0  0  0  0  0  0  0  0  0  0
    5.0980   67.8110   64.1630 C   0  0  0  0  0  0  0  0  0  0  0  0
    5.8310   68.6870   63.3610 C   0  0  0  0  0  0  0  0  0  0  0  0
    5.2640   69.2120   62.2020 C   0  0  0  0  0  0  0  0  0  0  0  0
    3.9650   68.8610   61.8420 C   0  0  0  0  0  0  0  0  0  0  0  0
    3.2300   67.9860   62.6420 C   0  0  0  0  0  0  0  0  0  0  0  0
    1.7890   69.0860   66.7750 C   0  0  1  0  0  0  0  0  0  0  0  0
    0.1690   69.6560   67.6890 Br  0  0  0  0  0  0  0  0  0  0  0  0
    3.0530   69.6080   67.4190 C   0  0  0  0  0  0  0  0  0  0  0  0
    4.2780   69.6980   66.7400 C   0  0  0  0  0  0  0  0  0  0  0  0
    5.4080   70.2320   67.3670 C   0  0  0  0  0  0  0  0  0  0  0  0
    5.3310   70.6870   68.6790 C   0  0  0  0  0  0  0  0  0  0  0  0
    4.1230   70.6140   69.3670 C   0  0  0  0  0  0  0  0  0  0  0  0
    2.9930   70.0820   68.7420 C   0  0  0  0  0  0  0  0  0  0  0  0
    3.6149   66.2167   65.5366 H   0  0  0  0  0  0  0  0  0  0  0  0
    2.7532   65.6269   64.0391 H   0  0  0  0  0  0  0  0  0  0  0  0
    5.5514   67.3963   65.0754 H   0  0  0  0  0  0  0  0  0  0  0  0
    6.8574   68.9631   63.6444 H   0  0  0  0  0  0  0  0  0  0  0  0
    5.8419   69.9035   61.5713 H   0  0  0  0  0  0  0  0  0  0  0  0
    3.5182   69.2743   60.9257 H   0  0  0  0  0  0  0  0  0  0  0  0
    2.2056   67.7102   62.3512 H   0  0  0  0  0  0  0  0  0  0  0  0
    1.8304   69.5453   65.7763 H   0  0  0  0  0  0  0  0  0  0  0  0
    4.3501   69.3438   65.7011 H   0  0  0  0  0  0  0  0  0  0  0  0
    6.3609   70.2924   66.8208 H   0  0  0  0  0  0  0  0  0  0  0  0
    6.2221   71.1033   69.1716 H   0  0  0  0  0  0  0  0  0  0  0  0
    4.0584   70.9757   70.4038 H   0  0  0  0  0  0  0  0  0  0  0  0
    2.0419   70.0329   69.2925 H   0  0  0  0  0  0  0  0  0  0  0  0
  2  1  2  0
  4  1  1  0
  4  3  2  0
  5  4  1  0
  6  5  1  0
  7  6  2  0
  8  7  1  0
  9  8  2  0
 10  9  1  0
 11 10  2  0
 11  6  1  0
 12  1  1  0
 13 12  1  0
 14 12  1  0
 15 14  2  0
 16 15  1  0
 17 16  2  0
 18 17  1  0
 19 14  1  0
 19 18  2  0
  5 20  1  0
  5 21  1  0
  7 22  1  0
  8 23  1  0
  9 24  1  0
 10 25  1  0
 11 26  1  0
 12 27  1  6
 15 28  1  0
 16 29  1  0
 17 30  1  0
 18 31  1  0
 19 32  1  0
M  END
>  <score>  (5) 
-8.62

$$$$
=
     RDKit          3D

 32 33  0  0  0  0  0  0  0  0999 V2000
    2.0190   68.4550   63.3030 C   0  0  0  0  0  0  0  0  0  0  0  0
    2.4850   68.9500   62.2800 O   0  0  0  0  0  0  0  0  0  0  0  0
   -0.2050   67.8930   62.7570 O   0  0  0  0  0  0  0  0  0  0  0  0
    0.5250   68.5320   63.5020 C   0  0  0  0  0  0  0  0  0  0  0  0
    0.0820   69.3710   64.6750 C   0  0  0  0  0  0  0  0  0  0  0  0
   -0.7840   68.6190   65.6540 C   0  0  0  0  0  0  0  0  0  0  0  0
   -0.2120   67.7210   66.5670 C   0  0  0  0  0  0  0  0  0  0  0  0
   -1.0140   67.0400   67.4840 C   0  0  0  0  0  0  0  0  0  0  0  0
   -2.3910   67.2510   67.5010 C   0  0  0  0  0  0  0  0  0  0  0  0
   -2.9680   68.1460   66.6020 C   0  0  0  0  0  0  0  0  0  0  0  0
   -2.1690   68.8280   65.6840 C   0  0  0  0  0  0  0  0  0  0  0  0
    2.8320   67.7420   64.3470 C   0  0  1  0  0  0  0  0  0  0  0  0
    3.9290   66.3940   63.4730 Br  0  0  0  0  0  0  0  0  0  0  0  0
    3.6160   68.6380   65.2780 C   0  0  0  0  0  0  0  0  0  0  0  0
    3.1220   69.0780   66.5170 C   0  0  0  0  0  0  0  0  0  0  0  0
    3.9070   69.8690   67.3610 C   0  0  0  0  0  0  0  0  0  0  0  0
    5.1960   70.2290   66.9850 C   0  0  0  0  0  0  0  0  0  0  0  0
    5.7080   69.7970   65.7650 C   0  0  0  0  0  0  0  0  0  0  0  0
    4.9270   69.0050   64.9190 C   0  0  0  0  0  0  0  0  0  0  0  0
    0.9766   69.7303   65.2048 H   0  0  0  0  0  0  0  0  0  0  0  0
   -0.5227   70.1977   64.2739 H   0  0  0  0  0  0  0  0  0  0  0  0
    0.8750   67.5525   66.5603 H   0  0  0  0  0  0  0  0  0  0  0  0
   -0.5579   66.3352   68.1948 H   0  0  0  0  0  0  0  0  0  0  0  0
   -3.0219   66.7119   68.2230 H   0  0  0  0  0  0  0  0  0  0  0  0
   -4.0549   68.3149   66.6163 H   0  0  0  0  0  0  0  0  0  0  0  0
   -2.6298   69.5351   64.9785 H   0  0  0  0  0  0  0  0  0  0  0  0
    2.1258   67.2542   65.0350 H   0  0  0  0  0  0  0  0  0  0  0  0
    2.1048   68.7967   66.8271 H   0  0  0  0  0  0  0  0  0  0  0  0
    3.5031   70.2079   68.3264 H   0  0  0  0  0  0  0  0  0  0  0  0
    5.8100   70.8539   67.6502 H   0  0  0  0  0  0  0  0  0  0  0  0
    6.7284   70.0793   65.4664 H   0  0  0  0  0  0  0  0  0  0  0  0
    5.3423   68.6636   63.9593 H   0  0  0  0  0  0  0  0  0  0  0  0
  2  1  2  0
  4  1  1  0
  4  3  2  0
  5  4  1  0
  6  5  1  0
  7  6  2  0
  8  7  1  0
  9  8  2  0
 10  9  1  0
 11 10  2  0
 11  6  1  0
 12  1  1  0
 13 12  1  0
 14 12  1  0
 15 14  2  0
 16 15  1  0
 17 16  2  0
 18 17  1  0
 19 14  1  0
 19 18  2  0
  5 20  1  0
  5 21  1  0
  7 22  1  0
  8 23  1  0
  9 24  1  0
 10 25  1  0
 11 26  1  0
 12 27  1  1
 15 28  1  0
 16 29  1  0
 17 30  1  0
 18 31  1  0
 19 32  1  0
M  END
>  <score>  (6) 
-8.602

$$$$
=
     RDKit          3D

 32 33  0  0  0  0  0  0  0  0999 V2000
    1.8250   67.5690   66.5890 C   0  0  0  0  0  0  0  0  0  0  0  0
    1.6180   66.8040   67.5270 O   0  0  0  0  0  0  0  0  0  0  0  0
    1.3960   65.9040   64.9740 O   0  0  0  0  0  0  0  0  0  0  0  0
    1.9500   66.9700   65.2100 C   0  0  0  0  0  0  0  0  0  0  0  0
    2.7220   67.8080   64.2210 C   0  0  0  0  0  0  0  0  0  0  0  0
    1.8430   68.5040   63.2130 C   0  0  0  0  0  0  0  0  0  0  0  0
    2.3220   68.7870   61.9250 C   0  0  0  0  0  0  0  0  0  0  0  0
    1.5010   69.4150   60.9880 C   0  0  0  0  0  0  0  0  0  0  0  0
    0.1950   69.7630   61.3260 C   0  0  0  0  0  0  0  0  0  0  0  0
   -0.2930   69.4810   62.6000 C   0  0  0  0  0  0  0  0  0  0  0  0
    0.5260   68.8530   63.5390 C   0  0  0  0  0  0  0  0  0  0  0  0
    1.9170   69.0640   66.7180 C   0  0  1  0  0  0  0  0  0  0  0  0
    0.3080   69.7180   67.5940 Br  0  0  0  0  0  0  0  0  0  0  0  0
    3.1910   69.5800   67.3470 C   0  0  0  0  0  0  0  0  0  0  0  0
    4.4100   69.6600   66.6560 C   0  0  0  0  0  0  0  0  0  0  0  0
    5.5500   70.1870   67.2700 C   0  0  0  0  0  0  0  0  0  0  0  0
    5.4890   70.6470   68.5810 C   0  0  0  0  0  0  0  0  0  0  0  0
    4.2880   70.5840   69.2820 C   0  0  0  0  0  0  0  0  0  0  0  0
    3.1470   70.0590   68.6700 C   0  0  0  0  0  0  0  0  0  0  0  0
    3.2875   68.5707   64.7764 H   0  0  0  0  0  0  0  0  0  0  0  0
    3.3813   67.1272   63.6625 H   0  0  0  0  0  0  0  0  0  0  0  0
    3.3515   68.5119   61.6522 H   0  0  0  0  0  0  0  0  0  0  0  0
    1.8853   69.6356   59.9812 H   0  0  0  0  0  0  0  0  0  0  0  0
   -0.4506   70.2603   60.5872 H   0  0  0  0  0  0  0  0  0  0  0  0
   -1.3250   69.7537   62.8659 H   0  0  0  0  0  0  0  0  0  0  0  0
    0.1347   68.6303   64.5426 H   0  0  0  0  0  0  0  0  0  0  0  0
    1.9764   69.4771   65.7003 H   0  0  0  0  0  0  0  0  0  0  0  0
    4.4692   69.3032   65.6172 H   0  0  0  0  0  0  0  0  0  0  0  0
    6.4981   70.2380   66.7145 H   0  0  0  0  0  0  0  0  0  0  0  0
    6.3876   71.0596   69.0629 H   0  0  0  0  0  0  0  0  0  0  0  0
    4.2372   70.9479   70.3188 H   0  0  0  0  0  0  0  0  0  0  0  0
    2.2010   70.0194   69.2298 H   0  0  0  0  0  0  0  0  0  0  0  0
  2  1  2  0
  4  1  1  0
  4  3  2  0
  5  4  1  0
  6  5  1  0
  7  6  2  0
  8  7  1  0
  9  8  2  0
 10  9  1  0
 11 10  2  0
 11  6  1  0
 12  1  1  0
 13 12  1  0
 14 12  1  0
 15 14  2  0
 16 15  1  0
 17 16  2  0
 18 17  1  0
 19 14  1  0
 19 18  2  0
  5 20  1  0
  5 21  1  0
  7 22  1  0
  8 23  1  0
  9 24  1  0
 10 25  1  0
 11 26  1  0
 12 27  1  6
 15 28  1  0
 16 29  1  0
 17 30  1  0
 18 31  1  0
 19 32  1  0
M  END
>  <score>  (7) 
-8.572

$$$$
=
     RDKit          3D

 32 33  0  0  0  0  0  0  0  0999 V2000
    0.1840   63.9960   72.2180 C   0  0  0  0  0  0  0  0  0  0  0  0
   -0.0200   64.9430   72.9740 O   0  0  0  0  0  0  0  0  0  0  0  0
   -0.9430   61.9270   72.3210 O   0  0  0  0  0  0  0  0  0  0  0  0
   -0.0250   62.6050   72.7630 C   0  0  0  0  0  0  0  0  0  0  0  0
    0.9910   62.1650   73.7880 C   0  0  0  0  0  0  0  0  0  0  0  0
    2.0400   61.2370   73.2280 C   0  0  0  0  0  0  0  0  0  0  0  0
    3.4030   61.5140   73.4070 C   0  0  0  0  0  0  0  0  0  0  0  0
    4.3720   60.6450   72.9040 C   0  0  0  0  0  0  0  0  0  0  0  0
    3.9910   59.4920   72.2220 C   0  0  0  0  0  0  0  0  0  0  0  0
    2.6380   59.2040   72.0440 C   0  0  0  0  0  0  0  0  0  0  0  0
    1.6670   60.0720   72.5460 C   0  0  0  0  0  0  0  0  0  0  0  0
    0.5840   64.1340   70.7760 C   0  0  1  0  0  0  0  0  0  0  0  0
    0.5510   66.0190   70.2940 Br  0  0  0  0  0  0  0  0  0  0  0  0
    1.8740   63.4440   70.3950 C   0  0  0  0  0  0  0  0  0  0  0  0
    1.9180   62.2660   69.6320 C   0  0  0  0  0  0  0  0  0  0  0  0
    3.1390   61.6920   69.2690 C   0  0  0  0  0  0  0  0  0  0  0  0
    4.3350   62.2860   69.6570 C   0  0  0  0  0  0  0  0  0  0  0  0
    4.3140   63.4580   70.4070 C   0  0  0  0  0  0  0  0  0  0  0  0
    3.0950   64.0350   70.7710 C   0  0  0  0  0  0  0  0  0  0  0  0
    1.4928   63.0584   74.1880 H   0  0  0  0  0  0  0  0  0  0  0  0
    0.4482   61.6105   74.5677 H   0  0  0  0  0  0  0  0  0  0  0  0
    3.7101   62.4217   73.9471 H   0  0  0  0  0  0  0  0  0  0  0  0
    5.4390   60.8711   73.0464 H   0  0  0  0  0  0  0  0  0  0  0  0
    4.7563   58.8093   71.8242 H   0  0  0  0  0  0  0  0  0  0  0  0
    2.3360   58.2923   71.5077 H   0  0  0  0  0  0  0  0  0  0  0  0
    0.6012   59.8394   72.4049 H   0  0  0  0  0  0  0  0  0  0  0  0
   -0.1586   63.5864   70.1771 H   0  0  0  0  0  0  0  0  0  0  0  0
    0.9787   61.7888   69.3159 H   0  0  0  0  0  0  0  0  0  0  0  0
    3.1543   60.7669   68.6741 H   0  0  0  0  0  0  0  0  0  0  0  0
    5.2949   61.8307   69.3719 H   0  0  0  0  0  0  0  0  0  0  0  0
    5.2587   63.9308   70.7137 H   0  0  0  0  0  0  0  0  0  0  0  0
    3.0892   64.9642   71.3597 H   0  0  0  0  0  0  0  0  0  0  0  0
  2  1  2  0
  4  1  1  0
  4  3  2  0
  5  4  1  0
  6  5  1  0
  7  6  2  0
  8  7  1  0
  9  8  2  0
 10  9  1  0
 11 10  2  0
 11  6  1  0
 12  1  1  0
 13 12  1  0
 14 12  1  0
 15 14  2  0
 16 15  1  0
 17 16  2  0
 18 17  1  0
 19 14  1  0
 19 18  2  0
  5 20  1  0
  5 21  1  0
  7 22  1  0
  8 23  1  0
  9 24  1  0
 10 25  1  0
 11 26  1  0
 12 27  1  6
 15 28  1  0
 16 29  1  0
 17 30  1  0
 18 31  1  0
 19 32  1  0
M  END
>  <score>  (8) 
-8.351

$$$$
=
     RDKit          3D

 32 33  0  0  0  0  0  0  0  0999 V2000
    0.5640   68.3850   65.3350 C   0  0  0  0  0  0  0  0  0  0  0  0
   -0.4260   69.1010   65.4610 O   0  0  0  0  0  0  0  0  0  0  0  0
    1.7840   66.8670   66.6640 O   0  0  0  0  0  0  0  0  0  0  0  0
    1.3100   67.9920   66.5860 C   0  0  0  0  0  0  0  0  0  0  0  0
    1.4440   69.0860   67.6160 C   0  0  0  0  0  0  0  0  0  0  0  0
    2.8590   69.5810   67.7810 C   0  0  0  0  0  0  0  0  0  0  0  0
    3.7900   69.4340   66.7430 C   0  0  0  0  0  0  0  0  0  0  0  0
    5.0940   69.9090   66.8910 C   0  0  0  0  0  0  0  0  0  0  0  0
    5.4790   70.5360   68.0740 C   0  0  0  0  0  0  0  0  0  0  0  0
    4.5590   70.6930   69.1090 C   0  0  0  0  0  0  0  0  0  0  0  0
    3.2550   70.2190   68.9640 C   0  0  0  0  0  0  0  0  0  0  0  0
    1.0550   67.8400   64.0220 C   0  0  1  0  0  0  0  0  0  0  0  0
    0.0290   68.6530   62.5830 Br  0  0  0  0  0  0  0  0  0  0  0  0
    2.5490   67.9200   63.8090 C   0  0  0  0  0  0  0  0  0  0  0  0
    3.2070   69.0980   63.4200 C   0  0  0  0  0  0  0  0  0  0  0  0
    4.5970   69.1300   63.2810 C   0  0  0  0  0  0  0  0  0  0  0  0
    5.3530   67.9890   63.5320 C   0  0  0  0  0  0  0  0  0  0  0  0
    4.7210   66.8130   63.9260 C   0  0  0  0  0  0  0  0  0  0  0  0
    3.3320   66.7790   64.0680 C   0  0  0  0  0  0  0  0  0  0  0  0
    0.8116   69.9325   67.3103 H   0  0  0  0  0  0  0  0  0  0  0  0
    1.1324   68.6630   68.5824 H   0  0  0  0  0  0  0  0  0  0  0  0
    3.4908   68.9412   65.8062 H   0  0  0  0  0  0  0  0  0  0  0  0
    5.8188   69.7881   66.0724 H   0  0  0  0  0  0  0  0  0  0  0  0
    6.5080   70.9067   68.1910 H   0  0  0  0  0  0  0  0  0  0  0  0
    4.8616   71.1915   70.0417 H   0  0  0  0  0  0  0  0  0  0  0  0
    2.5328   70.3470   69.7838 H   0  0  0  0  0  0  0  0  0  0  0  0
    0.8794   66.7541   64.0320 H   0  0  0  0  0  0  0  0  0  0  0  0
    2.6206   70.0074   63.2221 H   0  0  0  0  0  0  0  0  0  0  0  0
    5.0955   70.0606   62.9720 H   0  0  0  0  0  0  0  0  0  0  0  0
    6.4469   68.0163   63.4194 H   0  0  0  0  0  0  0  0  0  0  0  0
    5.3161   65.9097   64.1257 H   0  0  0  0  0  0  0  0  0  0  0  0
    2.8426   65.8469   64.3869 H   0  0  0  0  0  0  0  0  0  0  0  0
  2  1  2  0
  4  1  1  0
  4  3  2  0
  5  4  1  0
  6  5  1  0
  7  6  2  0
  8  7  1  0
  9  8  2  0
 10  9  1  0
 11 10  2  0
 11  6  1  0
 12  1  1  0
 13 12  1  0
 14 12  1  0
 15 14  2  0
 16 15  1  0
 17 16  2  0
 18 17  1  0
 19 14  1  0
 19 18  2  0
  5 20  1  0
  5 21  1  0
  7 22  1  0
  8 23  1  0
  9 24  1  0
 10 25  1  0
 11 26  1  0
 12 27  1  1
 15 28  1  0
 16 29  1  0
 17 30  1  0
 18 31  1  0
 19 32  1  0
M  END
>  <score>  (9) 
-8.319

$$$$
