=
     RDKit          3D

 45 47  0  0  0  0  0  0  0  0999 V2000
    3.4980   68.1940   64.3170 C   0  0  0  0  0  0  0  0  0  0  0  0
    3.8090   67.0300   64.5420 O   0  0  0  0  0  0  0  0  0  0  0  0
    4.4640   69.3660   64.3590 C   0  0  1  0  0  0  0  0  0  0  0  0
    4.7910   69.7420   65.7990 C   0  0  0  0  0  0  0  0  0  0  0  0
    6.1190   70.0860   66.1180 C   0  0  0  0  0  0  0  0  0  0  0  0
    6.4700   70.4600   67.4170 C   0  0  0  0  0  0  0  0  0  0  0  0
    5.5030   70.4970   68.4170 C   0  0  0  0  0  0  0  0  0  0  0  0
    4.1860   70.1570   68.1180 C   0  0  0  0  0  0  0  0  0  0  0  0
    3.8310   69.7820   66.8190 C   0  0  0  0  0  0  0  0  0  0  0  0
    5.6360   69.0300   63.4250 C   0  0  0  0  0  0  0  0  0  0  0  0
    5.2050   68.4520   62.1980 O   0  0  0  0  0  0  0  0  0  0  0  0
    2.2370   68.5910   63.9730 O   0  0  0  0  0  0  0  0  0  0  0  0
    1.1580   67.9670   64.6890 C   0  0  2  0  0  0  0  0  0  0  0  0
   -0.0980   68.8510   64.6380 C   0  0  0  0  0  0  0  0  0  0  0  0
   -1.0440   68.6750   65.8310 C   0  0  2  0  0  0  0  0  0  0  0  0
   -0.7060   69.6470   66.9640 C   0  0  0  0  0  0  0  0  0  0  0  0
    0.3140   68.9230   67.8360 C   0  0  0  0  0  0  0  0  0  0  0  0
    0.5400   67.5680   67.1590 C   0  0  2  0  0  0  0  0  0  0  0  0
    1.6510   67.6480   66.1060 C   0  0  0  0  0  0  0  0  0  0  0  0
   -0.7770   67.3170   66.4510 N   0  0  1  0  0  4  0  0  0  0  0  0
   -1.8810   66.8070   67.3370 C   0  0  0  0  0  0  0  0  0  0  0  0
    4.0340   70.3008   63.9701 H   0  0  0  0  0  0  0  0  0  0  0  0
    6.8898   70.0597   65.3337 H   0  0  0  0  0  0  0  0  0  0  0  0
    7.5118   70.7256   67.6499 H   0  0  0  0  0  0  0  0  0  0  0  0
    5.7779   70.7937   69.4399 H   0  0  0  0  0  0  0  0  0  0  0  0
    3.4211   70.1837   68.9081 H   0  0  0  0  0  0  0  0  0  0  0  0
    2.7875   69.5156   66.5952 H   0  0  0  0  0  0  0  0  0  0  0  0
    6.1882   69.9554   63.2045 H   0  0  0  0  0  0  0  0  0  0  0  0
    6.2717   68.2928   63.9373 H   0  0  0  0  0  0  0  0  0  0  0  0
    4.6240   67.6729   62.3864 H   0  0  0  0  0  0  0  0  0  0  0  0
    0.8560   67.0171   64.2237 H   0  0  0  0  0  0  0  0  0  0  0  0
    0.2225   69.9028   64.6051 H   0  0  0  0  0  0  0  0  0  0  0  0
   -0.6606   68.5464   63.7432 H   0  0  0  0  0  0  0  0  0  0  0  0
   -2.0679   68.8220   65.4567 H   0  0  0  0  0  0  0  0  0  0  0  0
   -0.2749   70.5742   66.5585 H   0  0  0  0  0  0  0  0  0  0  0  0
   -1.6012   69.9315   67.5363 H   0  0  0  0  0  0  0  0  0  0  0  0
    1.2543   69.4920   67.8813 H   0  0  0  0  0  0  0  0  0  0  0  0
   -0.0408   68.8088   68.8709 H   0  0  0  0  0  0  0  0  0  0  0  0
    0.8342   66.7891   67.8778 H   0  0  0  0  0  0  0  0  0  0  0  0
    2.1707   66.6788   66.0796 H   0  0  0  0  0  0  0  0  0  0  0  0
    2.3079   68.4783   66.4046 H   0  0  0  0  0  0  0  0  0  0  0  0
   -0.7333   66.5506   65.7643 H   0  0  0  0  0  0  0  0  0  0  0  0
   -1.5956   66.9388   68.3911 H   0  0  0  0  0  0  0  0  0  0  0  0
   -2.8039   67.3700   67.1338 H   0  0  0  0  0  0  0  0  0  0  0  0
   -2.0506   65.7393   67.1338 H   0  0  0  0  0  0  0  0  0  0  0  0
  2  1  2  0
  3  1  1  0
  4  3  1  0
  5  4  2  0
  6  5  1  0
  7  6  2  0
  8  7  1  0
  9  8  2  0
  9  4  1  0
 10  3  1  0
 11 10  1  0
 12  1  1  0
 13 12  1  0
 14 13  1  0
 15 14  1  0
 16 15  1  0
 17 16  1  0
 18 17  1  0
 19 13  1  0
 19 18  1  0
 20 18  1  0
 20 15  1  0
 21 20  1  0
  3 22  1  6
  5 23  1  0
  6 24  1  0
  7 25  1  0
  8 26  1  0
  9 27  1  0
 10 28  1  0
 10 29  1  0
 11 30  1  0
 13 31  1  6
 14 32  1  0
 14 33  1  0
 15 34  1  6
 16 35  1  0
 16 36  1  0
 17 37  1  0
 17 38  1  0
 18 39  1  1
 19 40  1  0
 19 41  1  0
 20 42  1  6
 21 43  1  0
 21 44  1  0
 21 45  1  0
M  CHG  1  20   1
M  END
>  <score>  (1) 
-9.289

$$$$
=
     RDKit          3D

 45 47  0  0  0  0  0  0  0  0999 V2000
    0.7670   64.4050   70.2310 C   0  0  0  0  0  0  0  0  0  0  0  0
   -0.1430   63.6720   69.8610 O   0  0  0  0  0  0  0  0  0  0  0  0
    0.6190   65.8930   70.5010 C   0  0  1  0  0  0  0  0  0  0  0  0
    0.2470   66.6370   69.2240 C   0  0  0  0  0  0  0  0  0  0  0  0
    1.2130   67.4670   68.6250 C   0  0  0  0  0  0  0  0  0  0  0  0
    0.9340   68.1550   67.4420 C   0  0  0  0  0  0  0  0  0  0  0  0
   -0.3130   68.0240   66.8380 C   0  0  0  0  0  0  0  0  0  0  0  0
   -1.2810   67.2080   67.4200 C   0  0  0  0  0  0  0  0  0  0  0  0
   -1.0040   66.5190   68.6030 C   0  0  0  0  0  0  0  0  0  0  0  0
   -0.3100   66.0500   71.7140 C   0  0  0  0  0  0  0  0  0  0  0  0
   -0.2020   64.9620   72.6260 O   0  0  0  0  0  0  0  0  0  0  0  0
    2.0400   63.9720   70.4740 O   0  0  0  0  0  0  0  0  0  0  0  0
    2.2270   62.5470   70.5250 C   0  0  2  0  0  0  0  0  0  0  0  0
    2.3450   62.0770   71.9830 C   0  0  0  0  0  0  0  0  0  0  0  0
    3.1690   60.7980   72.1690 C   0  0  2  0  0  0  0  0  0  0  0  0
    4.6480   61.1130   72.4100 C   0  0  0  0  0  0  0  0  0  0  0  0
    5.2870   61.1640   71.0260 C   0  0  0  0  0  0  0  0  0  0  0  0
    4.1470   60.8970   70.0400 C   0  0  2  0  0  0  0  0  0  0  0  0
    3.4340   62.1960   69.6460 C   0  0  0  0  0  0  0  0  0  0  0  0
    3.1860   60.0490   70.8520 N   0  0  1  0  0  4  0  0  0  0  0  0
    3.5690   58.5980   70.9630 C   0  0  0  0  0  0  0  0  0  0  0  0
    1.5629   66.3814   70.7847 H   0  0  0  0  0  0  0  0  0  0  0  0
    2.2016   67.5754   69.0951 H   0  0  0  0  0  0  0  0  0  0  0  0
    1.7000   68.8005   66.9876 H   0  0  0  0  0  0  0  0  0  0  0  0
   -0.5336   68.5626   65.9046 H   0  0  0  0  0  0  0  0  0  0  0  0
   -2.2681   67.1059   66.9455 H   0  0  0  0  0  0  0  0  0  0  0  0
   -1.7760   65.8769   69.0521 H   0  0  0  0  0  0  0  0  0  0  0  0
   -0.0487   66.9796   72.2409 H   0  0  0  0  0  0  0  0  0  0  0  0
   -1.3450   66.0740   71.3423 H   0  0  0  0  0  0  0  0  0  0  0  0
   -0.2360   65.3048   73.5541 H   0  0  0  0  0  0  0  0  0  0  0  0
    1.3579   62.0067   70.1217 H   0  0  0  0  0  0  0  0  0  0  0  0
    2.8190   62.8800   72.5665 H   0  0  0  0  0  0  0  0  0  0  0  0
    1.3246   61.8464   72.3231 H   0  0  0  0  0  0  0  0  0  0  0  0
    2.7249   60.2465   73.0108 H   0  0  0  0  0  0  0  0  0  0  0  0
    4.7563   62.0822   72.9189 H   0  0  0  0  0  0  0  0  0  0  0  0
    5.1258   60.3579   73.0515 H   0  0  0  0  0  0  0  0  0  0  0  0
    5.7297   62.1542   70.8431 H   0  0  0  0  0  0  0  0  0  0  0  0
    6.0972   60.4272   70.9228 H   0  0  0  0  0  0  0  0  0  0  0  0
    4.5036   60.4304   69.1099 H   0  0  0  0  0  0  0  0  0  0  0  0
    3.0859   62.0962   68.6073 H   0  0  0  0  0  0  0  0  0  0  0  0
    4.1647   63.0078   69.7768 H   0  0  0  0  0  0  0  0  0  0  0  0
    2.2560   59.9546   70.4194 H   0  0  0  0  0  0  0  0  0  0  0  0
    3.6428   58.3184   72.0243 H   0  0  0  0  0  0  0  0  0  0  0  0
    2.8037   57.9782   70.4729 H   0  0  0  0  0  0  0  0  0  0  0  0
    4.5405   58.4367   70.4729 H   0  0  0  0  0  0  0  0  0  0  0  0
  2  1  2  0
  3  1  1  0
  4  3  1  0
  5  4  2  0
  6  5  1  0
  7  6  2  0
  8  7  1  0
  9  8  2  0
  9  4  1  0
 10  3  1  0
 11 10  1  0
 12  1  1  0
 13 12  1  0
 14 13  1  0
 15 14  1  0
 16 15  1  0
 17 16  1  0
 18 17  1  0
 19 13  1  0
 19 18  1  0
 20 18  1  0
 20 15  1  0
 21 20  1  0
  3 22  1  1
  5 23  1  0
  6 24  1  0
  7 25  1  0
  8 26  1  0
  9 27  1  0
 10 28  1  0
 10 29  1  0
 11 30  1  0
 13 31  1  6
 14 32  1  0
 14 33  1  0
 15 34  1  1
 16 35  1  0
 16 36  1  0
 17 37  1  0
 17 38  1  0
 18 39  1  6
 19 40  1  0
 19 41  1  0
 20 42  1  6
 21 43  1  0
 21 44  1  0
 21 45  1  0
M  CHG  1  20   1
M  END
>  <score>  (2) 
-8.314

$$$$
=
     RDKit          3D

 45 47  0  0  0  0  0  0  0  0999 V2000
    0.2080   64.8940   71.3230 C   0  0  0  0  0  0  0  0  0  0  0  0
   -0.2910   65.6940   72.1050 O   0  0  0  0  0  0  0  0  0  0  0  0
    0.7430   63.5270   71.7150 C   0  0  1  0  0  0  0  0  0  0  0  0
    1.9700   63.1710   70.8840 C   0  0  0  0  0  0  0  0  0  0  0  0
    1.8510   62.1650   69.9070 C   0  0  0  0  0  0  0  0  0  0  0  0
    2.9370   61.8150   69.1020 C   0  0  0  0  0  0  0  0  0  0  0  0
    4.1590   62.4630   69.2600 C   0  0  0  0  0  0  0  0  0  0  0  0
    4.2940   63.4580   70.2250 C   0  0  0  0  0  0  0  0  0  0  0  0
    3.2090   63.8110   71.0310 C   0  0  0  0  0  0  0  0  0  0  0  0
    0.8870   63.5100   73.2430 C   0  0  0  0  0  0  0  0  0  0  0  0
   -0.3700   63.4520   73.9080 O   0  0  0  0  0  0  0  0  0  0  0  0
    0.3280   65.1170   69.9800 O   0  0  0  0  0  0  0  0  0  0  0  0
    0.0940   66.4650   69.5380 C   0  0  2  0  0  0  0  0  0  0  0  0
   -0.9620   66.4840   68.4220 C   0  0  0  0  0  0  0  0  0  0  0  0
   -0.8310   67.6600   67.4480 C   0  0  2  0  0  0  0  0  0  0  0  0
    0.0640   67.3060   66.2570 C   0  0  0  0  0  0  0  0  0  0  0  0
    1.4810   67.6740   66.6850 C   0  0  0  0  0  0  0  0  0  0  0  0
    1.3500   68.2080   68.1140 C   0  0  2  0  0  0  0  0  0  0  0  0
    1.4440   67.0750   69.1430 C   0  0  0  0  0  0  0  0  0  0  0  0
   -0.0600   68.7660   68.1420 N   0  0  1  0  0  4  0  0  0  0  0  0
   -0.2120   70.1240   67.5100 C   0  0  0  0  0  0  0  0  0  0  0  0
    0.0553   62.7032   71.4732 H   0  0  0  0  0  0  0  0  0  0  0  0
    0.8893   61.6473   69.7757 H   0  0  0  0  0  0  0  0  0  0  0  0
    2.8269   61.0268   68.3426 H   0  0  0  0  0  0  0  0  0  0  0  0
    5.0147   62.1901   68.6250 H   0  0  0  0  0  0  0  0  0  0  0  0
    5.2599   63.9685   70.3532 H   0  0  0  0  0  0  0  0  0  0  0  0
    3.3278   64.5993   71.7889 H   0  0  0  0  0  0  0  0  0  0  0  0
    1.4799   62.6296   73.5317 H   0  0  0  0  0  0  0  0  0  0  0  0
    1.3810   64.4460   73.5427 H   0  0  0  0  0  0  0  0  0  0  0  0
   -0.2258   63.4587   74.8874 H   0  0  0  0  0  0  0  0  0  0  0  0
   -0.3277   67.0896   70.3393 H   0  0  0  0  0  0  0  0  0  0  0  0
   -0.8730   65.5499   67.8479 H   0  0  0  0  0  0  0  0  0  0  0  0
   -1.9392   66.5918   68.9155 H   0  0  0  0  0  0  0  0  0  0  0  0
   -1.8482   67.9317   67.1295 H   0  0  0  0  0  0  0  0  0  0  0  0
   -0.0025   66.2311   66.0329 H   0  0  0  0  0  0  0  0  0  0  0  0
   -0.2387   67.8438   65.3464 H   0  0  0  0  0  0  0  0  0  0  0  0
    2.1316   66.7873   66.6639 H   0  0  0  0  0  0  0  0  0  0  0  0
    1.9312   68.4175   66.0108 H   0  0  0  0  0  0  0  0  0  0  0  0
    2.1393   68.9337   68.3598 H   0  0  0  0  0  0  0  0  0  0  0  0
    1.9204   67.4734   70.0509 H   0  0  0  0  0  0  0  0  0  0  0  0
    2.0265   66.2699   68.6713 H   0  0  0  0  0  0  0  0  0  0  0  0
   -0.3996   68.9731   69.0921 H   0  0  0  0  0  0  0  0  0  0  0  0
   -0.2974   70.8874   68.2974 H   0  0  0  0  0  0  0  0  0  0  0  0
    0.6678   70.3383   66.8854 H   0  0  0  0  0  0  0  0  0  0  0  0
   -1.1174   70.1385   66.8854 H   0  0  0  0  0  0  0  0  0  0  0  0
  2  1  2  0
  3  1  1  0
  4  3  1  0
  5  4  2  0
  6  5  1  0
  7  6  2  0
  8  7  1  0
  9  8  2  0
  9  4  1  0
 10  3  1  0
 11 10  1  0
 12  1  1  0
 13 12  1  0
 14 13  1  0
 15 14  1  0
 16 15  1  0
 17 16  1  0
 18 17  1  0
 19 13  1  0
 19 18  1  0
 20 18  1  0
 20 15  1  0
 21 20  1  0
  3 22  1  1
  5 23  1  0
  6 24  1  0
  7 25  1  0
  8 26  1  0
  9 27  1  0
 10 28  1  0
 10 29  1  0
 11 30  1  0
 13 31  1  1
 14 32  1  0
 14 33  1  0
 15 34  1  6
 16 35  1  0
 16 36  1  0
 17 37  1  0
 17 38  1  0
 18 39  1  1
 19 40  1  0
 19 41  1  0
 20 42  1  1
 21 43  1  0
 21 44  1  0
 21 45  1  0
M  CHG  1  20   1
M  END
>  <score>  (3) 
-7.988

$$$$
=
     RDKit          3D

 45 47  0  0  0  0  0  0  0  0999 V2000
   -0.6920   68.2940   66.0410 C   0  0  0  0  0  0  0  0  0  0  0  0
   -0.9460   69.4920   66.0900 O   0  0  0  0  0  0  0  0  0  0  0  0
   -1.2640   67.2530   66.9870 C   0  0  1  0  0  0  0  0  0  0  0  0
   -0.3230   67.0200   68.1630 C   0  0  0  0  0  0  0  0  0  0  0  0
   -0.6390   66.0060   69.0870 C   0  0  0  0  0  0  0  0  0  0  0  0
    0.2000   65.7350   70.1700 C   0  0  0  0  0  0  0  0  0  0  0  0
    1.3660   66.4720   70.3490 C   0  0  0  0  0  0  0  0  0  0  0  0
    1.6920   67.4810   69.4460 C   0  0  0  0  0  0  0  0  0  0  0  0
    0.8550   67.7550   68.3610 C   0  0  0  0  0  0  0  0  0  0  0  0
   -2.7100   67.6620   67.3020 C   0  0  0  0  0  0  0  0  0  0  0  0
   -3.4130   68.1050   66.1460 O   0  0  0  0  0  0  0  0  0  0  0  0
    0.1280   67.7290   65.1040 O   0  0  0  0  0  0  0  0  0  0  0  0
    1.3900   68.3820   64.8900 C   0  0  2  0  0  0  0  0  0  0  0  0
    1.5350   68.7920   63.4150 C   0  0  0  0  0  0  0  0  0  0  0  0
    2.9830   68.8680   62.9200 C   0  0  2  0  0  0  0  0  0  0  0  0
    3.4490   67.5310   62.3380 C   0  0  0  0  0  0  0  0  0  0  0  0
    4.0320   66.7530   63.5130 C   0  0  0  0  0  0  0  0  0  0  0  0
    3.8610   67.6650   64.7310 C   0  0  2  0  0  0  0  0  0  0  0  0
    2.4980   67.4520   65.4000 C   0  0  0  0  0  0  0  0  0  0  0  0
    3.8860   69.0540   64.1230 N   0  0  1  0  0  4  0  0  0  0  0  0
    5.2610   69.5740   63.7970 C   0  0  0  0  0  0  0  0  0  0  0  0
   -1.3298   66.2490   66.5425 H   0  0  0  0  0  0  0  0  0  0  0  0
   -1.5597   65.4189   68.9541 H   0  0  0  0  0  0  0  0  0  0  0  0
   -0.0614   64.9382   70.8819 H   0  0  0  0  0  0  0  0  0  0  0  0
    2.0284   66.2586   71.2009 H   0  0  0  0  0  0  0  0  0  0  0  0
    2.6132   68.0653   69.5876 H   0  0  0  0  0  0  0  0  0  0  0  0
    1.1227   68.5551   67.6552 H   0  0  0  0  0  0  0  0  0  0  0  0
   -3.2379   66.7950   67.7258 H   0  0  0  0  0  0  0  0  0  0  0  0
   -2.6740   68.4997   68.0140 H   0  0  0  0  0  0  0  0  0  0  0  0
   -4.2172   68.6117   66.4228 H   0  0  0  0  0  0  0  0  0  0  0  0
    1.4629   69.3225   65.4558 H   0  0  0  0  0  0  0  0  0  0  0  0
    0.9986   68.0555   62.7986 H   0  0  0  0  0  0  0  0  0  0  0  0
    1.1193   69.8067   63.3283 H   0  0  0  0  0  0  0  0  0  0  0  0
    3.0284   69.6767   62.1757 H   0  0  0  0  0  0  0  0  0  0  0  0
    2.5997   66.9860   61.9002 H   0  0  0  0  0  0  0  0  0  0  0  0
    4.1887   67.6719   61.5361 H   0  0  0  0  0  0  0  0  0  0  0  0
    3.4852   65.8097   63.6590 H   0  0  0  0  0  0  0  0  0  0  0  0
    5.0865   66.4888   63.3452 H   0  0  0  0  0  0  0  0  0  0  0  0
    4.6284   67.4820   65.4976 H   0  0  0  0  0  0  0  0  0  0  0  0
    2.6157   67.6175   66.4811 H   0  0  0  0  0  0  0  0  0  0  0  0
    2.1847   66.4264   65.1550 H   0  0  0  0  0  0  0  0  0  0  0  0
    3.5668   69.7896   64.7694 H   0  0  0  0  0  0  0  0  0  0  0  0
    5.8058   69.7800   64.7301 H   0  0  0  0  0  0  0  0  0  0  0  0
    5.8085   68.8208   63.2114 H   0  0  0  0  0  0  0  0  0  0  0  0
    5.1731   70.5010   63.2114 H   0  0  0  0  0  0  0  0  0  0  0  0
  2  1  2  0
  3  1  1  0
  4  3  1  0
  5  4  2  0
  6  5  1  0
  7  6  2  0
  8  7  1  0
  9  8  2  0
  9  4  1  0
 10  3  1  0
 11 10  1  0
 12  1  1  0
 13 12  1  0
 14 13  1  0
 15 14  1  0
 16 15  1  0
 17 16  1  0
 18 17  1  0
 19 13  1  0
 19 18  1  0
 20 18  1  0
 20 15  1  0
 21 20  1  0
  3 22  1  6
  5 23  1  0
  6 24  1  0
  7 25  1  0
  8 26  1  0
  9 27  1  0
 10 28  1  0
 10 29  1  0
 11 30  1  0
 13 31  1  1
 14 32  1  0
 14 33  1  0
 15 34  1  6
 16 35  1  0
 16 36  1  0
 17 37  1  0
 17 38  1  0
 18 39  1  1
 19 40  1  0
 19 41  1  0
 20 42  1  1
 21 43  1  0
 21 44  1  0
 21 45  1  0
M  CHG  1  20   1
M  END
>  <score>  (4) 
-7.913

$$$$
=
     RDKit          3D

 45 47  0  0  0  0  0  0  0  0999 V2000
    4.4710   60.8190   71.5050 C   0  0  0  0  0  0  0  0  0  0  0  0
    5.5520   60.4920   71.0290 O   0  0  0  0  0  0  0  0  0  0  0  0
    3.1480   60.7490   70.7620 C   0  0  1  0  0  0  0  0  0  0  0  0
    2.4390   62.0980   70.7990 C   0  0  0  0  0  0  0  0  0  0  0  0
    1.1660   62.1720   71.3960 C   0  0  0  0  0  0  0  0  0  0  0  0
    0.4810   63.3870   71.4770 C   0  0  0  0  0  0  0  0  0  0  0  0
    1.0560   64.5450   70.9630 C   0  0  0  0  0  0  0  0  0  0  0  0
    2.3130   64.4890   70.3660 C   0  0  0  0  0  0  0  0  0  0  0  0
    3.0010   63.2750   70.2840 C   0  0  0  0  0  0  0  0  0  0  0  0
    3.4250   60.1260   69.3860 C   0  0  0  0  0  0  0  0  0  0  0  0
    3.7810   58.7510   69.4740 O   0  0  0  0  0  0  0  0  0  0  0  0
    4.3100   61.2720   72.7840 O   0  0  0  0  0  0  0  0  0  0  0  0
    3.8260   60.3130   73.7400 C   0  0  2  0  0  0  0  0  0  0  0  0
    3.6150   58.9480   73.0650 C   0  0  0  0  0  0  0  0  0  0  0  0
    2.5390   58.0780   73.7240 C   0  0  2  0  0  0  0  0  0  0  0  0
    1.1610   58.3210   73.1040 C   0  0  0  0  0  0  0  0  0  0  0  0
    0.5440   59.4600   73.9100 C   0  0  0  0  0  0  0  0  0  0  0  0
    1.6000   59.8420   74.9510 C   0  0  2  0  0  0  0  0  0  0  0  0
    2.5710   60.8940   74.4010 C   0  0  0  0  0  0  0  0  0  0  0  0
    2.3610   58.5470   75.1550 N   0  0  1  0  0  4  0  0  0  0  0  0
    1.6810   57.5530   76.0580 C   0  0  0  0  0  0  0  0  0  0  0  0
    2.4112   60.0888   71.2429 H   0  0  0  0  0  0  0  0  0  0  0  0
    0.7045   61.2608   71.8042 H   0  0  0  0  0  0  0  0  0  0  0  0
   -0.5127   63.4281   71.9470 H   0  0  0  0  0  0  0  0  0  0  0  0
    0.5189   65.5028   71.0280 H   0  0  0  0  0  0  0  0  0  0  0  0
    2.7664   65.4041   69.9572 H   0  0  0  0  0  0  0  0  0  0  0  0
    3.9934   63.2426   69.8106 H   0  0  0  0  0  0  0  0  0  0  0  0
    2.5195   60.2175   68.7682 H   0  0  0  0  0  0  0  0  0  0  0  0
    4.2742   60.6640   68.9394 H   0  0  0  0  0  0  0  0  0  0  0  0
    3.8491   58.4880   70.4260 H   0  0  0  0  0  0  0  0  0  0  0  0
    4.5603   60.1257   74.5373 H   0  0  0  0  0  0  0  0  0  0  0  0
    3.3238   59.1225   72.0187 H   0  0  0  0  0  0  0  0  0  0  0  0
    4.5642   58.4001   73.1590 H   0  0  0  0  0  0  0  0  0  0  0  0
    2.8581   57.0310   73.6142 H   0  0  0  0  0  0  0  0  0  0  0  0
    1.2608   58.6086   72.0470 H   0  0  0  0  0  0  0  0  0  0  0  0
    0.5360   57.4163   73.1333 H   0  0  0  0  0  0  0  0  0  0  0  0
    0.3205   60.3163   73.2568 H   0  0  0  0  0  0  0  0  0  0  0  0
   -0.4040   59.1605   74.3807 H   0  0  0  0  0  0  0  0  0  0  0  0
    1.1508   60.2633   75.8624 H   0  0  0  0  0  0  0  0  0  0  0  0
    2.8880   61.5386   75.2341 H   0  0  0  0  0  0  0  0  0  0  0  0
    2.0285   61.4425   73.6169 H   0  0  0  0  0  0  0  0  0  0  0  0
    3.2488   58.6694   75.6628 H   0  0  0  0  0  0  0  0  0  0  0  0
    1.8666   57.8244   77.1077 H   0  0  0  0  0  0  0  0  0  0  0  0
    0.5984   57.5612   75.8631 H   0  0  0  0  0  0  0  0  0  0  0  0
    2.0810   56.5470   75.8631 H   0  0  0  0  0  0  0  0  0  0  0  0
  2  1  2  0
  3  1  1  0
  4  3  1  0
  5  4  2  0
  6  5  1  0
  7  6  2  0
  8  7  1  0
  9  8  2  0
  9  4  1  0
 10  3  1  0
 11 10  1  0
 12  1  1  0
 13 12  1  0
 14 13  1  0
 15 14  1  0
 16 15  1  0
 17 16  1  0
 18 17  1  0
 19 13  1  0
 19 18  1  0
 20 18  1  0
 20 15  1  0
 21 20  1  0
  3 22  1  1
  5 23  1  0
  6 24  1  0
  7 25  1  0
  8 26  1  0
  9 27  1  0
 10 28  1  0
 10 29  1  0
 11 30  1  0
 13 31  1  1
 14 32  1  0
 14 33  1  0
 15 34  1  1
 16 35  1  0
 16 36  1  0
 17 37  1  0
 17 38  1  0
 18 39  1  1
 19 40  1  0
 19 41  1  0
 20 42  1  1
 21 43  1  0
 21 44  1  0
 21 45  1  0
M  CHG  1  20   1
M  END
>  <score>  (5) 
-7.754

$$$$
=
     RDKit          3D

 45 47  0  0  0  0  0  0  0  0999 V2000
    3.6850   60.2130   71.9890 C   0  0  0  0  0  0  0  0  0  0  0  0
    4.9100   60.2470   72.0040 O   0  0  0  0  0  0  0  0  0  0  0  0
    2.8310   60.5270   70.7730 C   0  0  1  0  0  0  0  0  0  0  0  0
    2.3100   61.9580   70.8370 C   0  0  0  0  0  0  0  0  0  0  0  0
    3.1100   62.9890   70.3080 C   0  0  0  0  0  0  0  0  0  0  0  0
    2.6730   64.3150   70.3200 C   0  0  0  0  0  0  0  0  0  0  0  0
    1.4300   64.6330   70.8600 C   0  0  0  0  0  0  0  0  0  0  0  0
    0.6280   63.6260   71.3900 C   0  0  0  0  0  0  0  0  0  0  0  0
    1.0630   62.2980   71.3790 C   0  0  0  0  0  0  0  0  0  0  0  0
    3.6310   60.1150   69.5290 C   0  0  0  0  0  0  0  0  0  0  0  0
    3.8970   58.7170   69.4920 O   0  0  0  0  0  0  0  0  0  0  0  0
    2.9210   59.8620   73.0660 O   0  0  0  0  0  0  0  0  0  0  0  0
    2.9370   58.4710   73.4290 C   0  0  2  0  0  0  0  0  0  0  0  0
    1.9880   57.6720   72.5220 C   0  0  0  0  0  0  0  0  0  0  0  0
    1.4120   56.4080   73.1680 C   0  0  2  0  0  0  0  0  0  0  0  0
    0.0900   56.6940   73.8840 C   0  0  0  0  0  0  0  0  0  0  0  0
    0.4710   57.0880   75.3080 C   0  0  0  0  0  0  0  0  0  0  0  0
    2.0000   57.0310   75.3510 C   0  0  2  0  0  0  0  0  0  0  0  0
    2.6200   58.3680   74.9260 C   0  0  0  0  0  0  0  0  0  0  0  0
    2.3330   55.9920   74.2990 N   0  0  1  0  0  4  0  0  0  0  0  0
    2.1650   54.5650   74.7490 C   0  0  0  0  0  0  0  0  0  0  0  0
    1.8990   59.9442   70.7323 H   0  0  0  0  0  0  0  0  0  0  0  0
    4.0934   62.7462   69.8791 H   0  0  0  0  0  0  0  0  0  0  0  0
    3.3108   65.1082   69.9028 H   0  0  0  0  0  0  0  0  0  0  0  0
    1.0826   65.6767   70.8679 H   0  0  0  0  0  0  0  0  0  0  0  0
   -0.3531   63.8769   71.8196 H   0  0  0  0  0  0  0  0  0  0  0  0
    0.4199   61.5112   71.8002 H   0  0  0  0  0  0  0  0  0  0  0  0
    3.0554   60.3887   68.6325 H   0  0  0  0  0  0  0  0  0  0  0  0
    4.5975   60.6390   69.5637 H   0  0  0  0  0  0  0  0  0  0  0  0
    3.9632   58.3691   70.4165 H   0  0  0  0  0  0  0  0  0  0  0  0
    3.9277   58.0198   73.2708 H   0  0  0  0  0  0  0  0  0  0  0  0
    1.1503   58.3263   72.2388 H   0  0  0  0  0  0  0  0  0  0  0  0
    2.5832   57.3405   71.6584 H   0  0  0  0  0  0  0  0  0  0  0  0
    1.2914   55.6627   72.3680 H   0  0  0  0  0  0  0  0  0  0  0  0
   -0.4450   57.5173   73.3880 H   0  0  0  0  0  0  0  0  0  0  0  0
   -0.5783   55.8205   73.8686 H   0  0  0  0  0  0  0  0  0  0  0  0
    0.1174   58.1049   75.5335 H   0  0  0  0  0  0  0  0  0  0  0  0
    0.0159   56.4188   76.0530 H   0  0  0  0  0  0  0  0  0  0  0  0
    2.3783   56.8056   76.3590 H   0  0  0  0  0  0  0  0  0  0  0  0
    3.5563   58.5068   75.4864 H   0  0  0  0  0  0  0  0  0  0  0  0
    1.8717   59.1445   75.1430 H   0  0  0  0  0  0  0  0  0  0  0  0
    3.3289   55.9792   74.0366 H   0  0  0  0  0  0  0  0  0  0  0  0
    2.1603   54.5253   75.8483 H   0  0  0  0  0  0  0  0  0  0  0  0
    1.2140   54.1686   74.3637 H   0  0  0  0  0  0  0  0  0  0  0  0
    2.9980   53.9586   74.3637 H   0  0  0  0  0  0  0  0  0  0  0  0
  2  1  2  0
  3  1  1  0
  4  3  1  0
  5  4  2  0
  6  5  1  0
  7  6  2  0
  8  7  1  0
  9  8  2  0
  9  4  1  0
 10  3  1  0
 11 10  1  0
 12  1  1  0
 13 12  1  0
 14 13  1  0
 15 14  1  0
 16 15  1  0
 17 16  1  0
 18 17  1  0
 19 13  1  0
 19 18  1  0
 20 18  1  0
 20 15  1  0
 21 20  1  0
  3 22  1  1
  5 23  1  0
  6 24  1  0
  7 25  1  0
  8 26  1  0
  9 27  1  0
 10 28  1  0
 10 29  1  0
 11 30  1  0
 13 31  1  1
 14 32  1  0
 14 33  1  0
 15 34  1  6
 16 35  1  0
 16 36  1  0
 17 37  1  0
 17 38  1  0
 18 39  1  1
 19 40  1  0
 19 41  1  0
 20 42  1  6
 21 43  1  0
 21 44  1  0
 21 45  1  0
M  CHG  1  20   1
M  END
>  <score>  (6) 
-7.635

$$$$
=
     RDKit          3D

 45 47  0  0  0  0  0  0  0  0999 V2000
    3.9020   59.0430   72.9260 C   0  0  0  0  0  0  0  0  0  0  0  0
    4.1460   59.3260   74.0930 O   0  0  0  0  0  0  0  0  0  0  0  0
    3.0850   57.8400   72.4860 C   0  0  1  0  0  0  0  0  0  0  0  0
    1.6660   57.9230   73.0360 C   0  0  0  0  0  0  0  0  0  0  0  0
    0.9790   56.7250   73.3070 C   0  0  0  0  0  0  0  0  0  0  0  0
   -0.3140   56.7420   73.8330 C   0  0  0  0  0  0  0  0  0  0  0  0
   -0.9430   57.9560   74.0960 C   0  0  0  0  0  0  0  0  0  0  0  0
   -0.2790   59.1510   73.8300 C   0  0  0  0  0  0  0  0  0  0  0  0
    1.0160   59.1360   73.3040 C   0  0  0  0  0  0  0  0  0  0  0  0
    3.2540   57.7010   70.9660 C   0  0  0  0  0  0  0  0  0  0  0  0
    3.6900   56.4010   70.5850 O   0  0  0  0  0  0  0  0  0  0  0  0
    4.3150   59.7910   71.8600 O   0  0  0  0  0  0  0  0  0  0  0  0
    3.7300   61.0980   71.7380 C   0  0  2  0  0  0  0  0  0  0  0  0
    2.5020   61.0490   70.8150 C   0  0  0  0  0  0  0  0  0  0  0  0
    2.2040   62.3660   70.0890 C   0  0  2  0  0  0  0  0  0  0  0  0
    2.9120   62.4330   68.7340 C   0  0  0  0  0  0  0  0  0  0  0  0
    4.2780   63.0510   69.0150 C   0  0  0  0  0  0  0  0  0  0  0  0
    4.3110   63.2980   70.5250 C   0  0  2  0  0  0  0  0  0  0  0  0
    4.8280   62.0670   71.2800 C   0  0  0  0  0  0  0  0  0  0  0  0
    2.8480   63.4940   70.8710 N   0  0  1  0  0  4  0  0  0  0  0  0
    2.3050   64.8620   70.5550 C   0  0  0  0  0  0  0  0  0  0  0  0
    3.4409   56.8905   72.9123 H   0  0  0  0  0  0  0  0  0  0  0  0
    1.4679   55.7613   73.1014 H   0  0  0  0  0  0  0  0  0  0  0  0
   -0.8360   55.7961   74.0397 H   0  0  0  0  0  0  0  0  0  0  0  0
   -1.9610   57.9712   74.5125 H   0  0  0  0  0  0  0  0  0  0  0  0
   -0.7758   60.1108   74.0347 H   0  0  0  0  0  0  0  0  0  0  0  0
    1.5307   60.0861   73.0981 H   0  0  0  0  0  0  0  0  0  0  0  0
    2.2870   57.9049   70.4830 H   0  0  0  0  0  0  0  0  0  0  0  0
    4.0234   58.4195   70.6471 H   0  0  0  0  0  0  0  0  0  0  0  0
    3.8706   55.8626   71.3960 H   0  0  0  0  0  0  0  0  0  0  0  0
    3.3468   61.4647   72.7017 H   0  0  0  0  0  0  0  0  0  0  0  0
    2.6713   60.2692   70.0579 H   0  0  0  0  0  0  0  0  0  0  0  0
    1.6338   60.8407   71.4575 H   0  0  0  0  0  0  0  0  0  0  0  0
    1.1114   62.4380   69.9841 H   0  0  0  0  0  0  0  0  0  0  0  0
    3.0267   61.4243   68.3104 H   0  0  0  0  0  0  0  0  0  0  0  0
    2.3397   63.0250   68.0046 H   0  0  0  0  0  0  0  0  0  0  0  0
    5.0810   62.3592   68.7208 H   0  0  0  0  0  0  0  0  0  0  0  0
    4.4312   63.9797   68.4457 H   0  0  0  0  0  0  0  0  0  0  0  0
    4.9661   64.1399   70.7935 H   0  0  0  0  0  0  0  0  0  0  0  0
    5.3745   62.4133   72.1696 H   0  0  0  0  0  0  0  0  0  0  0  0
    5.4643   61.5108   70.5759 H   0  0  0  0  0  0  0  0  0  0  0  0
    2.6576   63.4564   71.8826 H   0  0  0  0  0  0  0  0  0  0  0  0
    2.0924   65.3975   71.4920 H   0  0  0  0  0  0  0  0  0  0  0  0
    3.0477   65.4254   69.9710 H   0  0  0  0  0  0  0  0  0  0  0  0
    1.3781   64.7627   69.9710 H   0  0  0  0  0  0  0  0  0  0  0  0
  2  1  2  0
  3  1  1  0
  4  3  1  0
  5  4  2  0
  6  5  1  0
  7  6  2  0
  8  7  1  0
  9  8  2  0
  9  4  1  0
 10  3  1  0
 11 10  1  0
 12  1  1  0
 13 12  1  0
 14 13  1  0
 15 14  1  0
 16 15  1  0
 17 16  1  0
 18 17  1  0
 19 13  1  0
 19 18  1  0
 20 18  1  0
 20 15  1  0
 21 20  1  0
  3 22  1  1
  5 23  1  0
  6 24  1  0
  7 25  1  0
  8 26  1  0
  9 27  1  0
 10 28  1  0
 10 29  1  0
 11 30  1  0
 13 31  1  1
 14 32  1  0
 14 33  1  0
 15 34  1  6
 16 35  1  0
 16 36  1  0
 17 37  1  0
 17 38  1  0
 18 39  1  6
 19 40  1  0
 19 41  1  0
 20 42  1  1
 21 43  1  0
 21 44  1  0
 21 45  1  0
M  CHG  1  20   1
M  END
>  <score>  (7) 
-7.617

$$$$
=
     RDKit          3D

 45 47  0  0  0  0  0  0  0  0999 V2000
    3.8630   60.2100   72.0980 C   0  0  0  0  0  0  0  0  0  0  0  0
    4.5840   61.0630   72.6020 O   0  0  0  0  0  0  0  0  0  0  0  0
    2.9670   60.4420   70.8930 C   0  0  1  0  0  0  0  0  0  0  0  0
    2.3610   61.8400   70.9350 C   0  0  0  0  0  0  0  0  0  0  0  0
    1.1920   62.0420   71.6930 C   0  0  0  0  0  0  0  0  0  0  0  0
    0.6060   63.3070   71.7840 C   0  0  0  0  0  0  0  0  0  0  0  0
    1.1790   64.3890   71.1210 C   0  0  0  0  0  0  0  0  0  0  0  0
    2.3330   64.2050   70.3650 C   0  0  0  0  0  0  0  0  0  0  0  0
    2.9210   62.9400   70.2720 C   0  0  0  0  0  0  0  0  0  0  0  0
    3.7660   60.0490   69.6430 C   0  0  0  0  0  0  0  0  0  0  0  0
    3.8360   58.6390   69.4630 O   0  0  0  0  0  0  0  0  0  0  0  0
    3.7870   58.9200   72.5430 O   0  0  0  0  0  0  0  0  0  0  0  0
    2.5740   58.5530   73.2190 C   0  0  2  0  0  0  0  0  0  0  0  0
    2.8570   58.2620   74.7020 C   0  0  0  0  0  0  0  0  0  0  0  0
    1.8830   57.2710   75.3490 C   0  0  2  0  0  0  0  0  0  0  0  0
    2.3830   55.8300   75.2250 C   0  0  0  0  0  0  0  0  0  0  0  0
    1.8220   55.3130   73.9040 C   0  0  0  0  0  0  0  0  0  0  0  0
    1.0370   56.4850   73.3080 C   0  0  2  0  0  0  0  0  0  0  0  0
    1.9400   57.3840   72.4550 C   0  0  0  0  0  0  0  0  0  0  0  0
    0.6040   57.2640   74.5340 N   0  0  1  0  0  4  0  0  0  0  0  0
   -0.5900   56.6940   75.2520 C   0  0  0  0  0  0  0  0  0  0  0  0
    2.0715   59.8032   70.8853 H   0  0  0  0  0  0  0  0  0  0  0  0
    0.7339   61.1925   72.2207 H   0  0  0  0  0  0  0  0  0  0  0  0
   -0.3081   63.4482   72.3794 H   0  0  0  0  0  0  0  0  0  0  0  0
    0.7209   65.3864   71.1945 H   0  0  0  0  0  0  0  0  0  0  0  0
    2.7844   65.0587   69.8383 H   0  0  0  0  0  0  0  0  0  0  0  0
    3.8332   62.8068   69.6718 H   0  0  0  0  0  0  0  0  0  0  0  0
    3.2825   60.4939   68.7608 H   0  0  0  0  0  0  0  0  0  0  0  0
    4.7930   60.4213   69.7716 H   0  0  0  0  0  0  0  0  0  0  0  0
    3.8581   58.1941   70.3471 H   0  0  0  0  0  0  0  0  0  0  0  0
    1.8455   59.3772   73.2241 H   0  0  0  0  0  0  0  0  0  0  0  0
    3.8732   57.8490   74.7839 H   0  0  0  0  0  0  0  0  0  0  0  0
    2.7376   59.2153   75.2377 H   0  0  0  0  0  0  0  0  0  0  0  0
    1.7630   57.5736   76.3997 H   0  0  0  0  0  0  0  0  0  0  0  0
    3.4826   55.8050   75.2111 H   0  0  0  0  0  0  0  0  0  0  0  0
    2.0578   55.2119   76.0749 H   0  0  0  0  0  0  0  0  0  0  0  0
    2.6384   55.0144   73.2299 H   0  0  0  0  0  0  0  0  0  0  0  0
    1.1865   54.4269   74.0487 H   0  0  0  0  0  0  0  0  0  0  0  0
    0.2142   56.1472   72.6608 H   0  0  0  0  0  0  0  0  0  0  0  0
    1.3366   57.7970   71.6332 H   0  0  0  0  0  0  0  0  0  0  0  0
    2.7691   56.7526   72.1031 H   0  0  0  0  0  0  0  0  0  0  0  0
    0.2479   58.2056   74.3161 H   0  0  0  0  0  0  0  0  0  0  0  0
   -0.4344   56.7683   76.3384 H   0  0  0  0  0  0  0  0  0  0  0  0
   -1.4910   57.2591   74.9711 H   0  0  0  0  0  0  0  0  0  0  0  0
   -0.7171   55.6381   74.9711 H   0  0  0  0  0  0  0  0  0  0  0  0
  2  1  2  0
  3  1  1  0
  4  3  1  0
  5  4  2  0
  6  5  1  0
  7  6  2  0
  8  7  1  0
  9  8  2  0
  9  4  1  0
 10  3  1  0
 11 10  1  0
 12  1  1  0
 13 12  1  0
 14 13  1  0
 15 14  1  0
 16 15  1  0
 17 16  1  0
 18 17  1  0
 19 13  1  0
 19 18  1  0
 20 18  1  0
 20 15  1  0
 21 20  1  0
  3 22  1  1
  5 23  1  0
  6 24  1  0
  7 25  1  0
  8 26  1  0
  9 27  1  0
 10 28  1  0
 10 29  1  0
 11 30  1  0
 13 31  1  1
 14 32  1  0
 14 33  1  0
 15 34  1  1
 16 35  1  0
 16 36  1  0
 17 37  1  0
 17 38  1  0
 18 39  1  6
 19 40  1  0
 19 41  1  0
 20 42  1  6
 21 43  1  0
 21 44  1  0
 21 45  1  0
M  CHG  1  20   1
M  END
>  <score>  (8) 
-7.56

$$$$
=
     RDKit          3D

 45 47  0  0  0  0  0  0  0  0999 V2000
    2.9810   59.2710   72.8650 C   0  0  0  0  0  0  0  0  0  0  0  0
    4.0260   59.3240   73.5040 O   0  0  0  0  0  0  0  0  0  0  0  0
    2.8780   59.4870   71.3650 C   0  0  1  0  0  0  0  0  0  0  0  0
    3.4380   60.8520   70.9780 C   0  0  0  0  0  0  0  0  0  0  0  0
    2.6950   61.6560   70.0940 C   0  0  0  0  0  0  0  0  0  0  0  0
    3.1490   62.9240   69.7240 C   0  0  0  0  0  0  0  0  0  0  0  0
    4.3520   63.4080   70.2310 C   0  0  0  0  0  0  0  0  0  0  0  0
    5.1000   62.6230   71.1040 C   0  0  0  0  0  0  0  0  0  0  0  0
    4.6480   61.3540   71.4760 C   0  0  0  0  0  0  0  0  0  0  0  0
    3.4770   58.2510   70.6790 C   0  0  0  0  0  0  0  0  0  0  0  0
    3.8380   58.5020   69.3250 O   0  0  0  0  0  0  0  0  0  0  0  0
    1.7650   58.9840   73.4180 O   0  0  0  0  0  0  0  0  0  0  0  0
    1.0980   60.0710   74.0810 C   0  0  2  0  0  0  0  0  0  0  0  0
   -0.1320   60.5140   73.2720 C   0  0  0  0  0  0  0  0  0  0  0  0
   -0.5190   61.9840   73.4650 C   0  0  2  0  0  0  0  0  0  0  0  0
    0.1730   62.8860   72.4400 C   0  0  0  0  0  0  0  0  0  0  0  0
    1.4990   63.2900   73.0780 C   0  0  0  0  0  0  0  0  0  0  0  0
    1.5270   62.5870   74.4380 C   0  0  2  0  0  0  0  0  0  0  0  0
    2.1270   61.1800   74.3270 C   0  0  0  0  0  0  0  0  0  0  0  0
    0.0570   62.4560   74.7860 N   0  0  1  0  0  4  0  0  0  0  0  0
   -0.5740   63.7090   75.3300 C   0  0  0  0  0  0  0  0  0  0  0  0
    1.8409   59.5528   71.0043 H   0  0  0  0  0  0  0  0  0  0  0  0
    1.7437   61.2808   69.6888 H   0  0  0  0  0  0  0  0  0  0  0  0
    2.5561   63.5402   69.0321 H   0  0  0  0  0  0  0  0  0  0  0  0
    4.7102   64.4073   69.9427 H   0  0  0  0  0  0  0  0  0  0  0  0
    6.0518   63.0035   71.5031 H   0  0  0  0  0  0  0  0  0  0  0  0
    5.2479   60.7431   72.1666 H   0  0  0  0  0  0  0  0  0  0  0  0
    4.3757   57.9409   71.2323 H   0  0  0  0  0  0  0  0  0  0  0  0
    2.7100   57.4625   70.6804 H   0  0  0  0  0  0  0  0  0  0  0  0
    4.6506   59.0670   69.2994 H   0  0  0  0  0  0  0  0  0  0  0  0
    0.7006   59.7683   75.0610 H   0  0  0  0  0  0  0  0  0  0  0  0
    0.0807   60.3512   72.2051 H   0  0  0  0  0  0  0  0  0  0  0  0
   -0.9800   59.9151   73.6357 H   0  0  0  0  0  0  0  0  0  0  0  0
   -1.6147   62.0434   73.3887 H   0  0  0  0  0  0  0  0  0  0  0  0
    0.3491   62.3376   71.5029 H   0  0  0  0  0  0  0  0  0  0  0  0
   -0.4417   63.7629   72.1888 H   0  0  0  0  0  0  0  0  0  0  0  0
    2.3427   62.9574   72.4555 H   0  0  0  0  0  0  0  0  0  0  0  0
    1.5880   64.3816   73.1800 H   0  0  0  0  0  0  0  0  0  0  0  0
    2.1293   63.1370   75.1761 H   0  0  0  0  0  0  0  0  0  0  0  0
    2.6561   60.9565   75.2651 H   0  0  0  0  0  0  0  0  0  0  0  0
    2.7928   61.1906   73.4515 H   0  0  0  0  0  0  0  0  0  0  0  0
   -0.1234   61.8118   75.5692 H   0  0  0  0  0  0  0  0  0  0  0  0
   -0.5591   63.6795   76.4295 H   0  0  0  0  0  0  0  0  0  0  0  0
   -0.0099   64.5857   74.9791 H   0  0  0  0  0  0  0  0  0  0  0  0
   -1.6143   63.7778   74.9791 H   0  0  0  0  0  0  0  0  0  0  0  0
  2  1  2  0
  3  1  1  0
  4  3  1  0
  5  4  2  0
  6  5  1  0
  7  6  2  0
  8  7  1  0
  9  8  2  0
  9  4  1  0
 10  3  1  0
 11 10  1  0
 12  1  1  0
 13 12  1  0
 14 13  1  0
 15 14  1  0
 16 15  1  0
 17 16  1  0
 18 17  1  0
 19 13  1  0
 19 18  1  0
 20 18  1  0
 20 15  1  0
 21 20  1  0
  3 22  1  6
  5 23  1  0
  6 24  1  0
  7 25  1  0
  8 26  1  0
  9 27  1  0
 10 28  1  0
 10 29  1  0
 11 30  1  0
 13 31  1  1
 14 32  1  0
 14 33  1  0
 15 34  1  1
 16 35  1  0
 16 36  1  0
 17 37  1  0
 17 38  1  0
 18 39  1  1
 19 40  1  0
 19 41  1  0
 20 42  1  1
 21 43  1  0
 21 44  1  0
 21 45  1  0
M  CHG  1  20   1
M  END
>  <score>  (9) 
-7.386

$$$$
