=
     RDKit          3D

 46 46  0  0  0  0  0  0  0  0999 V2000
    0.7160   67.6880   66.2560 C   0  0  1  0  0  0  0  0  0  0  0  0
    1.5900   66.9350   65.2340 C   0  0  0  0  0  0  0  0  0  0  0  0
    2.3620   66.0470   65.6140 O   0  0  0  0  0  0  0  0  0  0  0  0
    1.3610   67.1710   63.8970 N   0  0  0  0  0  0  0  0  0  0  0  0
    1.4670   68.5730   63.3800 C   0  0  2  0  0  0  0  0  0  0  0  0
    0.1320   69.0120   62.6950 C   0  0  0  0  0  0  0  0  0  0  0  0
   -0.9260   68.5420   63.1770 O   0  0  0  0  0  0  0  0  0  0  0  0
    0.3260   69.6350   61.5990 O   0  0  0  0  0  1  0  0  0  0  0  0
    2.6080   68.6400   62.3590 C   0  0  0  0  0  0  0  0  0  0  0  0
    3.9920   68.1910   62.8690 C   0  0  0  0  0  0  0  0  0  0  0  0
    4.3740   66.7950   62.3720 C   0  0  0  0  0  0  0  0  0  0  0  0
    5.0550   69.2020   62.4310 C   0  0  0  0  0  0  0  0  0  0  0  0
   -0.3770   66.8570   66.6740 O   0  0  0  0  0  0  0  0  0  0  0  0
    1.5530   67.9890   67.5100 C   0  0  2  0  0  0  0  0  0  0  0  0
    0.7200   67.5760   68.7000 N   0  0  0  0  0  4  0  0  0  0  0  0
    1.8780   69.4930   67.6210 C   0  0  0  0  0  0  0  0  0  0  0  0
    3.3510   69.7870   67.4430 C   0  0  0  0  0  0  0  0  0  0  0  0
    4.0040   69.4700   66.2450 C   0  0  0  0  0  0  0  0  0  0  0  0
    5.3730   69.7050   66.1050 C   0  0  0  0  0  0  0  0  0  0  0  0
    6.0980   70.2650   67.1540 C   0  0  0  0  0  0  0  0  0  0  0  0
    5.4550   70.5980   68.3440 C   0  0  0  0  0  0  0  0  0  0  0  0
    4.0870   70.3640   68.4900 C   0  0  0  0  0  0  0  0  0  0  0  0
    0.3455   68.6110   65.7861 H   0  0  0  0  0  0  0  0  0  0  0  0
    1.1207   66.3961   63.2625 H   0  0  0  0  0  0  0  0  0  0  0  0
    1.6669   69.2514   64.2225 H   0  0  0  0  0  0  0  0  0  0  0  0
    2.3374   67.9979   61.5078 H   0  0  0  0  0  0  0  0  0  0  0  0
    2.7155   69.7038   62.1006 H   0  0  0  0  0  0  0  0  0  0  0  0
    3.9380   68.1452   63.9667 H   0  0  0  0  0  0  0  0  0  0  0  0
    4.5544   66.1356   63.2338 H   0  0  0  0  0  0  0  0  0  0  0  0
    3.5548   66.3859   61.7625 H   0  0  0  0  0  0  0  0  0  0  0  0
    5.2874   66.8600   61.7625 H   0  0  0  0  0  0  0  0  0  0  0  0
    5.5246   69.6486   63.3198 H   0  0  0  0  0  0  0  0  0  0  0  0
    5.8211   68.6911   61.8292 H   0  0  0  0  0  0  0  0  0  0  0  0
    4.5831   69.9927   61.8292 H   0  0  0  0  0  0  0  0  0  0  0  0
   -0.4119   66.8305   67.6630 H   0  0  0  0  0  0  0  0  0  0  0  0
    2.5073   67.4440   67.4622 H   0  0  0  0  0  0  0  0  0  0  0  0
    1.2162   67.8220   69.5684 H   0  0  0  0  0  0  0  0  0  0  0  0
   -0.1857   68.0656   68.6716 H   0  0  0  0  0  0  0  0  0  0  0  0
    0.5614   66.5587   68.6716 H   0  0  0  0  0  0  0  0  0  0  0  0
    1.3152   70.0328   66.8451 H   0  0  0  0  0  0  0  0  0  0  0  0
    1.5938   69.8204   68.6320 H   0  0  0  0  0  0  0  0  0  0  0  0
    3.4354   69.0338   65.4105 H   0  0  0  0  0  0  0  0  0  0  0  0
    5.8804   69.4472   65.1637 H   0  0  0  0  0  0  0  0  0  0  0  0
    7.1776   70.4442   67.0429 H   0  0  0  0  0  0  0  0  0  0  0  0
    6.0266   71.0462   69.1701 H   0  0  0  0  0  0  0  0  0  0  0  0
    3.5830   70.6330   69.4300 H   0  0  0  0  0  0  0  0  0  0  0  0
  2  1  1  0
  3  2  2  0
  4  2  1  0
  5  4  1  0
  6  5  1  0
  7  6  2  0
  8  6  1  0
  9  5  1  0
 10  9  1  0
 11 10  1  0
 12 10  1  0
 13  1  1  0
 14  1  1  0
 15 14  1  0
 16 14  1  0
 17 16  1  0
 18 17  2  0
 19 18  1  0
 20 19  2  0
 21 20  1  0
 22 17  1  0
 22 21  2  0
  1 23  1  6
  4 24  1  0
  5 25  1  1
  9 26  1  0
  9 27  1  0
 10 28  1  0
 11 29  1  0
 11 30  1  0
 11 31  1  0
 12 32  1  0
 12 33  1  0
 12 34  1  0
 13 35  1  0
 14 36  1  6
 15 37  1  0
 15 38  1  0
 15 39  1  0
 16 40  1  0
 16 41  1  0
 18 42  1  0
 19 43  1  0
 20 44  1  0
 21 45  1  0
 22 46  1  0
M  CHG  2   8  -1  15   1
M  END
>  <score>  (1) 
-9.292

$$$$
=
     RDKit          3D

 46 46  0  0  0  0  0  0  0  0999 V2000
    3.5840   67.8810   62.7610 C   0  0  1  0  0  0  0  0  0  0  0  0
    2.1890   68.4370   62.4110 C   0  0  0  0  0  0  0  0  0  0  0  0
    2.0380   69.1480   61.4120 O   0  0  0  0  0  0  0  0  0  0  0  0
    1.1160   67.9830   63.1450 N   0  0  0  0  0  0  0  0  0  0  0  0
    1.1270   68.1630   64.6330 C   0  0  2  0  0  0  0  0  0  0  0  0
    1.3750   66.7970   65.3530 C   0  0  0  0  0  0  0  0  0  0  0  0
    1.9270   66.8500   66.4780 O   0  0  0  0  0  0  0  0  0  0  0  0
    1.1610   65.7960   64.5920 O   0  0  0  0  0  1  0  0  0  0  0  0
   -0.2270   68.7320   65.0730 C   0  0  0  0  0  0  0  0  0  0  0  0
   -0.6560   68.3990   66.5160 C   0  0  0  0  0  0  0  0  0  0  0  0
   -0.2310   69.4760   67.5160 C   0  0  0  0  0  0  0  0  0  0  0  0
   -2.1750   68.2170   66.5710 C   0  0  0  0  0  0  0  0  0  0  0  0
    4.1380   67.1970   61.6270 O   0  0  0  0  0  0  0  0  0  0  0  0
    4.5270   69.0530   63.0810 C   0  0  2  0  0  0  0  0  0  0  0  0
    5.2510   69.3920   61.8000 N   0  0  0  0  0  4  0  0  0  0  0  0
    5.5620   68.6650   64.1560 C   0  0  0  0  0  0  0  0  0  0  0  0
    5.2730   69.2950   65.5000 C   0  0  0  0  0  0  0  0  0  0  0  0
    6.3100   69.8170   66.2840 C   0  0  0  0  0  0  0  0  0  0  0  0
    6.0380   70.3590   67.5410 C   0  0  0  0  0  0  0  0  0  0  0  0
    4.7320   70.3920   68.0220 C   0  0  0  0  0  0  0  0  0  0  0  0
    3.6910   69.8890   67.2440 C   0  0  0  0  0  0  0  0  0  0  0  0
    3.9570   69.3460   65.9870 C   0  0  0  0  0  0  0  0  0  0  0  0
    3.4841   67.1973   63.6169 H   0  0  0  0  0  0  0  0  0  0  0  0
    0.3186   67.5270   62.6790 H   0  0  0  0  0  0  0  0  0  0  0  0
    1.9389   68.8535   64.9052 H   0  0  0  0  0  0  0  0  0  0  0  0
   -0.1800   69.8269   64.9787 H   0  0  0  0  0  0  0  0  0  0  0  0
   -0.9765   68.2594   64.4211 H   0  0  0  0  0  0  0  0  0  0  0  0
   -0.1481   67.4664   66.8028 H   0  0  0  0  0  0  0  0  0  0  0  0
   -0.3780   69.1036   68.5405 H   0  0  0  0  0  0  0  0  0  0  0  0
    0.8307   69.7197   67.3632 H   0  0  0  0  0  0  0  0  0  0  0  0
   -0.8402   70.3791   67.3632 H   0  0  0  0  0  0  0  0  0  0  0  0
   -2.5018   68.1778   67.6206 H   0  0  0  0  0  0  0  0  0  0  0  0
   -2.6642   69.0630   66.0660 H   0  0  0  0  0  0  0  0  0  0  0  0
   -2.4505   67.2794   66.0660 H   0  0  0  0  0  0  0  0  0  0  0  0
    4.7294   66.4668   61.9386 H   0  0  0  0  0  0  0  0  0  0  0  0
    3.9474   69.9039   63.4683 H   0  0  0  0  0  0  0  0  0  0  0  0
    6.1617   69.8184   62.0229 H   0  0  0  0  0  0  0  0  0  0  0  0
    5.3992   68.5328   61.2517 H   0  0  0  0  0  0  0  0  0  0  0  0
    4.6860   70.0560   61.2517 H   0  0  0  0  0  0  0  0  0  0  0  0
    5.5558   67.5711   64.2717 H   0  0  0  0  0  0  0  0  0  0  0  0
    6.5427   69.0335   63.8208 H   0  0  0  0  0  0  0  0  0  0  0  0
    7.3433   69.7996   65.9072 H   0  0  0  0  0  0  0  0  0  0  0  0
    6.8582   70.7614   68.1537 H   0  0  0  0  0  0  0  0  0  0  0  0
    4.5219   70.8148   69.0155 H   0  0  0  0  0  0  0  0  0  0  0  0
    2.6583   69.9202   67.6216 H   0  0  0  0  0  0  0  0  0  0  0  0
    3.1313   68.9556   65.3739 H   0  0  0  0  0  0  0  0  0  0  0  0
  2  1  1  0
  3  2  2  0
  4  2  1  0
  5  4  1  0
  6  5  1  0
  7  6  2  0
  8  6  1  0
  9  5  1  0
 10  9  1  0
 11 10  1  0
 12 10  1  0
 13  1  1  0
 14  1  1  0
 15 14  1  0
 16 14  1  0
 17 16  1  0
 18 17  2  0
 19 18  1  0
 20 19  2  0
 21 20  1  0
 22 17  1  0
 22 21  2  0
  1 23  1  1
  4 24  1  0
  5 25  1  6
  9 26  1  0
  9 27  1  0
 10 28  1  0
 11 29  1  0
 11 30  1  0
 11 31  1  0
 12 32  1  0
 12 33  1  0
 12 34  1  0
 13 35  1  0
 14 36  1  1
 15 37  1  0
 15 38  1  0
 15 39  1  0
 16 40  1  0
 16 41  1  0
 18 42  1  0
 19 43  1  0
 20 44  1  0
 21 45  1  0
 22 46  1  0
M  CHG  2   8  -1  15   1
M  END
>  <score>  (2) 
-8.405

$$$$
=
     RDKit          3D

 46 46  0  0  0  0  0  0  0  0999 V2000
    5.4540   67.6310   63.3170 C   0  0  1  0  0  0  0  0  0  0  0  0
    4.4000   66.7880   62.5720 C   0  0  0  0  0  0  0  0  0  0  0  0
    3.9250   67.1920   61.5050 O   0  0  0  0  0  0  0  0  0  0  0  0
    4.1390   65.5220   63.0470 N   0  0  0  0  0  0  0  0  0  0  0  0
    3.6800   65.3610   64.4640 C   0  0  2  0  0  0  0  0  0  0  0  0
    3.7920   63.8670   64.9150 C   0  0  0  0  0  0  0  0  0  0  0  0
    3.6840   63.6440   66.1440 O   0  0  0  0  0  0  0  0  0  0  0  0
    4.1880   63.1000   63.9750 O   0  0  0  0  0  1  0  0  0  0  0  0
    2.2190   65.8140   64.5660 C   0  0  0  0  0  0  0  0  0  0  0  0
    1.9940   67.2250   65.1450 C   0  0  0  0  0  0  0  0  0  0  0  0
    1.0440   68.0640   64.2870 C   0  0  0  0  0  0  0  0  0  0  0  0
    1.4400   67.1160   66.5680 C   0  0  0  0  0  0  0  0  0  0  0  0
    6.3140   68.2880   62.3740 O   0  0  0  0  0  0  0  0  0  0  0  0
    4.7430   68.7340   64.1180 C   0  0  2  0  0  0  0  0  0  0  0  0
    3.8920   69.5050   63.1370 N   0  0  0  0  0  4  0  0  0  0  0  0
    5.7550   69.6970   64.7720 C   0  0  0  0  0  0  0  0  0  0  0  0
    5.4320   69.9890   66.2200 C   0  0  0  0  0  0  0  0  0  0  0  0
    4.1520   69.7390   66.7320 C   0  0  0  0  0  0  0  0  0  0  0  0
    3.8500   70.0500   68.0580 C   0  0  0  0  0  0  0  0  0  0  0  0
    4.8240   70.6060   68.8850 C   0  0  0  0  0  0  0  0  0  0  0  0
    6.1040   70.8450   68.3900 C   0  0  0  0  0  0  0  0  0  0  0  0
    6.4100   70.5360   67.0650 C   0  0  0  0  0  0  0  0  0  0  0  0
    6.0337   66.9652   63.9732 H   0  0  0  0  0  0  0  0  0  0  0  0
    4.2574   64.6996   62.4383 H   0  0  0  0  0  0  0  0  0  0  0  0
    4.3175   65.9728   65.1192 H   0  0  0  0  0  0  0  0  0  0  0  0
    1.7870   65.7911   63.5547 H   0  0  0  0  0  0  0  0  0  0  0  0
    1.7394   65.1207   65.2726 H   0  0  0  0  0  0  0  0  0  0  0  0
    2.9684   67.7354   65.1527 H   0  0  0  0  0  0  0  0  0  0  0  0
    0.3807   68.6498   64.9403 H   0  0  0  0  0  0  0  0  0  0  0  0
    1.6288   68.7458   63.6520 H   0  0  0  0  0  0  0  0  0  0  0  0
    0.4398   67.3994   63.6520 H   0  0  0  0  0  0  0  0  0  0  0  0
    2.2532   67.2760   67.2913 H   0  0  0  0  0  0  0  0  0  0  0  0
    0.6610   67.8781   66.7176 H   0  0  0  0  0  0  0  0  0  0  0  0
    1.0078   66.1156   66.7176 H   0  0  0  0  0  0  0  0  0  0  0  0
    6.9990   68.8113   62.8609 H   0  0  0  0  0  0  0  0  0  0  0  0
    4.1442   68.2837   64.9234 H   0  0  0  0  0  0  0  0  0  0  0  0
    3.2311   70.1038   63.6523 H   0  0  0  0  0  0  0  0  0  0  0  0
    4.4969   70.0918   62.5448 H   0  0  0  0  0  0  0  0  0  0  0  0
    3.3676   68.8453   62.5448 H   0  0  0  0  0  0  0  0  0  0  0  0
    6.7561   69.2442   64.7193 H   0  0  0  0  0  0  0  0  0  0  0  0
    5.7094   70.6492   64.2232 H   0  0  0  0  0  0  0  0  0  0  0  0
    3.3811   69.2951   66.0850 H   0  0  0  0  0  0  0  0  0  0  0  0
    2.8412   69.8560   68.4514 H   0  0  0  0  0  0  0  0  0  0  0  0
    4.5822   70.8561   69.9285 H   0  0  0  0  0  0  0  0  0  0  0  0
    6.8743   71.2780   69.0451 H   0  0  0  0  0  0  0  0  0  0  0  0
    7.4235   70.7220   66.6800 H   0  0  0  0  0  0  0  0  0  0  0  0
  2  1  1  0
  3  2  2  0
  4  2  1  0
  5  4  1  0
  6  5  1  0
  7  6  2  0
  8  6  1  0
  9  5  1  0
 10  9  1  0
 11 10  1  0
 12 10  1  0
 13  1  1  0
 14  1  1  0
 15 14  1  0
 16 14  1  0
 17 16  1  0
 18 17  2  0
 19 18  1  0
 20 19  2  0
 21 20  1  0
 22 17  1  0
 22 21  2  0
  1 23  1  1
  4 24  1  0
  5 25  1  1
  9 26  1  0
  9 27  1  0
 10 28  1  0
 11 29  1  0
 11 30  1  0
 11 31  1  0
 12 32  1  0
 12 33  1  0
 12 34  1  0
 13 35  1  0
 14 36  1  1
 15 37  1  0
 15 38  1  0
 15 39  1  0
 16 40  1  0
 16 41  1  0
 18 42  1  0
 19 43  1  0
 20 44  1  0
 21 45  1  0
 22 46  1  0
M  CHG  2   8  -1  15   1
M  END
>  <score>  (3) 
-8.291

$$$$
=
     RDKit          3D

 46 46  0  0  0  0  0  0  0  0999 V2000
    2.7950   59.0980   73.3370 C   0  0  1  0  0  0  0  0  0  0  0  0
    1.3250   58.6690   73.5070 C   0  0  0  0  0  0  0  0  0  0  0  0
    0.9280   57.6080   73.0120 O   0  0  0  0  0  0  0  0  0  0  0  0
    0.5320   59.4140   74.3510 N   0  0  0  0  0  0  0  0  0  0  0  0
    0.3700   60.8800   74.0860 C   0  0  2  0  0  0  0  0  0  0  0  0
   -0.8140   61.4660   74.9230 C   0  0  0  0  0  0  0  0  0  0  0  0
   -1.1200   62.6610   74.7000 O   0  0  0  0  0  0  0  0  0  0  0  0
   -1.1720   60.6920   75.8730 O   0  0  0  0  0  1  0  0  0  0  0  0
    0.0860   61.0850   72.5930 C   0  0  0  0  0  0  0  0  0  0  0  0
    0.9780   62.1180   71.8770 C   0  0  0  0  0  0  0  0  0  0  0  0
    0.1640   63.1980   71.1620 C   0  0  0  0  0  0  0  0  0  0  0  0
    1.9230   62.7710   72.8890 C   0  0  0  0  0  0  0  0  0  0  0  0
    3.6550   58.1970   74.0490 O   0  0  0  0  0  0  0  0  0  0  0  0
    3.1790   59.0010   71.8510 C   0  0  2  0  0  0  0  0  0  0  0  0
    3.3300   57.5330   71.5340 N   0  0  0  0  0  4  0  0  0  0  0  0
    4.5160   59.7180   71.5670 C   0  0  0  0  0  0  0  0  0  0  0  0
    4.3420   60.9700   70.7380 C   0  0  0  0  0  0  0  0  0  0  0  0
    4.9950   62.1590   71.0920 C   0  0  0  0  0  0  0  0  0  0  0  0
    4.7960   63.3210   70.3460 C   0  0  0  0  0  0  0  0  0  0  0  0
    3.9520   63.3050   69.2380 C   0  0  0  0  0  0  0  0  0  0  0  0
    3.3100   62.1250   68.8680 C   0  0  0  0  0  0  0  0  0  0  0  0
    3.5050   60.9610   69.6120 C   0  0  0  0  0  0  0  0  0  0  0  0
    2.9061   60.1241   73.7176 H   0  0  0  0  0  0  0  0  0  0  0  0
    0.0581   58.9710   75.1511 H   0  0  0  0  0  0  0  0  0  0  0  0
    1.2945   61.4008   74.3759 H   0  0  0  0  0  0  0  0  0  0  0  0
    0.2185   60.1168   72.0880 H   0  0  0  0  0  0  0  0  0  0  0  0
   -0.9379   61.4828   72.5352 H   0  0  0  0  0  0  0  0  0  0  0  0
    1.5533   61.5791   71.1098 H   0  0  0  0  0  0  0  0  0  0  0  0
   -0.3229   63.8439   71.9075 H   0  0  0  0  0  0  0  0  0  0  0  0
    0.8320   63.8039   70.5322 H   0  0  0  0  0  0  0  0  0  0  0  0
   -0.6025   62.7227   70.5322 H   0  0  0  0  0  0  0  0  0  0  0  0
    1.5853   62.5377   73.9096 H   0  0  0  0  0  0  0  0  0  0  0  0
    2.9419   62.3834   72.7423 H   0  0  0  0  0  0  0  0  0  0  0  0
    1.9208   63.8612   72.7423 H   0  0  0  0  0  0  0  0  0  0  0  0
    3.5330   58.3248   75.0231 H   0  0  0  0  0  0  0  0  0  0  0  0
    2.4057   59.4812   71.2334 H   0  0  0  0  0  0  0  0  0  0  0  0
    3.3852   56.9962   72.4113 H   0  0  0  0  0  0  0  0  0  0  0  0
    2.5173   57.2145   70.9872 H   0  0  0  0  0  0  0  0  0  0  0  0
    4.1905   57.3866   70.9872 H   0  0  0  0  0  0  0  0  0  0  0  0
    4.9787   59.9927   72.5264 H   0  0  0  0  0  0  0  0  0  0  0  0
    5.1493   59.0251   70.9935 H   0  0  0  0  0  0  0  0  0  0  0  0
    5.6676   62.1758   71.9623 H   0  0  0  0  0  0  0  0  0  0  0  0
    5.3067   64.2519   70.6334 H   0  0  0  0  0  0  0  0  0  0  0  0
    3.7923   64.2240   68.6550 H   0  0  0  0  0  0  0  0  0  0  0  0
    2.6491   62.1112   67.9888 H   0  0  0  0  0  0  0  0  0  0  0  0
    2.9995   60.0306   69.3140 H   0  0  0  0  0  0  0  0  0  0  0  0
  2  1  1  0
  3  2  2  0
  4  2  1  0
  5  4  1  0
  6  5  1  0
  7  6  2  0
  8  6  1  0
  9  5  1  0
 10  9  1  0
 11 10  1  0
 12 10  1  0
 13  1  1  0
 14  1  1  0
 15 14  1  0
 16 14  1  0
 17 16  1  0
 18 17  2  0
 19 18  1  0
 20 19  2  0
 21 20  1  0
 22 17  1  0
 22 21  2  0
  1 23  1  1
  4 24  1  0
  5 25  1  1
  9 26  1  0
  9 27  1  0
 10 28  1  0
 11 29  1  0
 11 30  1  0
 11 31  1  0
 12 32  1  0
 12 33  1  0
 12 34  1  0
 13 35  1  0
 14 36  1  6
 15 37  1  0
 15 38  1  0
 15 39  1  0
 16 40  1  0
 16 41  1  0
 18 42  1  0
 19 43  1  0
 20 44  1  0
 21 45  1  0
 22 46  1  0
M  CHG  2   8  -1  15   1
M  END
>  <score>  (4) 
-7.286

$$$$
=
     RDKit          3D

 46 46  0  0  0  0  0  0  0  0999 V2000
    2.8990   61.0900   73.8750 C   0  0  1  0  0  0  0  0  0  0  0  0
    1.4560   61.1720   73.3420 C   0  0  0  0  0  0  0  0  0  0  0  0
    1.0340   60.3120   72.5600 O   0  0  0  0  0  0  0  0  0  0  0  0
    0.6230   62.1230   73.8880 N   0  0  0  0  0  0  0  0  0  0  0  0
    1.0300   63.5640   73.8230 C   0  0  2  0  0  0  0  0  0  0  0  0
    0.5360   64.3350   75.0910 C   0  0  0  0  0  0  0  0  0  0  0  0
    1.4050   64.6100   75.9530 O   0  0  0  0  0  0  0  0  0  0  0  0
   -0.7360   64.3950   75.1640 O   0  0  0  0  0  1  0  0  0  0  0  0
    0.4120   64.1980   72.5710 C   0  0  0  0  0  0  0  0  0  0  0  0
    1.1780   63.9630   71.2540 C   0  0  0  0  0  0  0  0  0  0  0  0
    0.3870   63.1100   70.2610 C   0  0  0  0  0  0  0  0  0  0  0  0
    1.5240   65.3100   70.6130 C   0  0  0  0  0  0  0  0  0  0  0  0
    2.8900   60.7300   75.2650 O   0  0  0  0  0  0  0  0  0  0  0  0
    3.6490   59.9740   73.1300 C   0  0  2  0  0  0  0  0  0  0  0  0
    4.1100   58.9850   74.1740 N   0  0  0  0  0  4  0  0  0  0  0  0
    4.8810   60.5250   72.3820 C   0  0  0  0  0  0  0  0  0  0  0  0
    4.5070   61.3580   71.1760 C   0  0  0  0  0  0  0  0  0  0  0  0
    3.7120   60.8220   70.1550 C   0  0  0  0  0  0  0  0  0  0  0  0
    3.4070   61.5840   69.0260 C   0  0  0  0  0  0  0  0  0  0  0  0
    3.8850   62.8870   68.9110 C   0  0  0  0  0  0  0  0  0  0  0  0
    4.6630   63.4350   69.9290 C   0  0  0  0  0  0  0  0  0  0  0  0
    4.9720   62.6770   71.0590 C   0  0  0  0  0  0  0  0  0  0  0  0
    3.3810   62.0680   73.7295 H   0  0  0  0  0  0  0  0  0  0  0  0
   -0.2643   61.8488   74.3333 H   0  0  0  0  0  0  0  0  0  0  0  0
    2.1275   63.6250   73.7813 H   0  0  0  0  0  0  0  0  0  0  0  0
   -0.6016   63.7881   72.4500 H   0  0  0  0  0  0  0  0  0  0  0  0
    0.4369   65.2843   72.7421 H   0  0  0  0  0  0  0  0  0  0  0  0
    2.0960   63.4104   71.5027 H   0  0  0  0  0  0  0  0  0  0  0  0
   -0.2605   62.4118   70.8117 H   0  0  0  0  0  0  0  0  0  0  0  0
   -0.2323   63.7631   69.6285 H   0  0  0  0  0  0  0  0  0  0  0  0
    1.0849   62.5417   69.6285 H   0  0  0  0  0  0  0  0  0  0  0  0
    1.7148   66.0530   71.4014 H   0  0  0  0  0  0  0  0  0  0  0  0
    2.4228   65.1988   69.9886 H   0  0  0  0  0  0  0  0  0  0  0  0
    0.6829   65.6457   69.9886 H   0  0  0  0  0  0  0  0  0  0  0  0
    2.9105   61.5505   75.8185 H   0  0  0  0  0  0  0  0  0  0  0  0
    2.9849   59.5122   72.3846 H   0  0  0  0  0  0  0  0  0  0  0  0
    3.9312   59.3686   75.1130 H   0  0  0  0  0  0  0  0  0  0  0  0
    3.5944   58.1006   74.0605 H   0  0  0  0  0  0  0  0  0  0  0  0
    5.1189   58.8112   74.0605 H   0  0  0  0  0  0  0  0  0  0  0  0
    5.4629   61.1504   73.0750 H   0  0  0  0  0  0  0  0  0  0  0  0
    5.4645   59.6643   72.0234 H   0  0  0  0  0  0  0  0  0  0  0  0
    3.3262   59.7957   70.2433 H   0  0  0  0  0  0  0  0  0  0  0  0
    2.7875   61.1542   68.2251 H   0  0  0  0  0  0  0  0  0  0  0  0
    3.6486   63.4831   68.0173 H   0  0  0  0  0  0  0  0  0  0  0  0
    5.0341   64.4668   69.8416 H   0  0  0  0  0  0  0  0  0  0  0  0
    5.5829   63.1153   71.8619 H   0  0  0  0  0  0  0  0  0  0  0  0
  2  1  1  0
  3  2  2  0
  4  2  1  0
  5  4  1  0
  6  5  1  0
  7  6  2  0
  8  6  1  0
  9  5  1  0
 10  9  1  0
 11 10  1  0
 12 10  1  0
 13  1  1  0
 14  1  1  0
 15 14  1  0
 16 14  1  0
 17 16  1  0
 18 17  2  0
 19 18  1  0
 20 19  2  0
 21 20  1  0
 22 17  1  0
 22 21  2  0
  1 23  1  1
  4 24  1  0
  5 25  1  6
  9 26  1  0
  9 27  1  0
 10 28  1  0
 11 29  1  0
 11 30  1  0
 11 31  1  0
 12 32  1  0
 12 33  1  0
 12 34  1  0
 13 35  1  0
 14 36  1  6
 15 37  1  0
 15 38  1  0
 15 39  1  0
 16 40  1  0
 16 41  1  0
 18 42  1  0
 19 43  1  0
 20 44  1  0
 21 45  1  0
 22 46  1  0
M  CHG  2   8  -1  15   1
M  END
>  <score>  (5) 
-7.001

$$$$
=
     RDKit          3D

 46 46  0  0  0  0  0  0  0  0999 V2000
    3.0470   59.2230   72.2360 C   0  0  1  0  0  0  0  0  0  0  0  0
    1.7190   59.0190   72.9900 C   0  0  0  0  0  0  0  0  0  0  0  0
    1.2930   57.8780   73.1990 O   0  0  0  0  0  0  0  0  0  0  0  0
    1.1240   60.1270   73.5520 N   0  0  0  0  0  0  0  0  0  0  0  0
    0.7740   61.2870   72.6710 C   0  0  2  0  0  0  0  0  0  0  0  0
    1.5940   62.5560   73.0760 C   0  0  0  0  0  0  0  0  0  0  0  0
    1.1310   63.6620   72.7070 O   0  0  0  0  0  0  0  0  0  0  0  0
    2.7400   62.2670   73.5560 O   0  0  0  0  0  1  0  0  0  0  0  0
   -0.7240   61.5820   72.8130 C   0  0  0  0  0  0  0  0  0  0  0  0
   -1.3550   61.2100   74.1690 C   0  0  0  0  0  0  0  0  0  0  0  0
   -1.2010   62.3200   75.2100 C   0  0  0  0  0  0  0  0  0  0  0  0
   -2.8390   60.8880   73.9750 C   0  0  0  0  0  0  0  0  0  0  0  0
    4.1060   58.5260   72.9090 O   0  0  0  0  0  0  0  0  0  0  0  0
    2.9280   58.6060   70.8320 C   0  0  2  0  0  0  0  0  0  0  0  0
    3.3610   57.1650   70.9500 N   0  0  0  0  0  4  0  0  0  0  0  0
    3.8460   59.3260   69.8210 C   0  0  0  0  0  0  0  0  0  0  0  0
    3.8970   60.8210   70.0410 C   0  0  0  0  0  0  0  0  0  0  0  0
    2.8830   61.6530   69.5460 C   0  0  0  0  0  0  0  0  0  0  0  0
    2.9600   63.0350   69.7170 C   0  0  0  0  0  0  0  0  0  0  0  0
    4.0420   63.5990   70.3880 C   0  0  0  0  0  0  0  0  0  0  0  0
    5.0480   62.7800   70.8980 C   0  0  0  0  0  0  0  0  0  0  0  0
    4.9760   61.3970   70.7290 C   0  0  0  0  0  0  0  0  0  0  0  0
    3.2602   60.3011   72.1879 H   0  0  0  0  0  0  0  0  0  0  0  0
    0.9230   60.1574   74.5617 H   0  0  0  0  0  0  0  0  0  0  0  0
    1.0170   61.0326   71.6288 H   0  0  0  0  0  0  0  0  0  0  0  0
   -0.8719   62.6607   72.6564 H   0  0  0  0  0  0  0  0  0  0  0  0
   -1.2254   60.9488   72.0663 H   0  0  0  0  0  0  0  0  0  0  0  0
   -0.8194   60.3276   74.5491 H   0  0  0  0  0  0  0  0  0  0  0  0
   -1.2611   61.8869   76.2194 H   0  0  0  0  0  0  0  0  0  0  0  0
   -0.2260   62.8122   75.0796 H   0  0  0  0  0  0  0  0  0  0  0  0
   -2.0052   63.0591   75.0796 H   0  0  0  0  0  0  0  0  0  0  0  0
   -3.3229   60.7830   74.9573 H   0  0  0  0  0  0  0  0  0  0  0  0
   -3.3207   61.7025   73.4142 H   0  0  0  0  0  0  0  0  0  0  0  0
   -2.9398   59.9471   73.4142 H   0  0  0  0  0  0  0  0  0  0  0  0
    3.9839   58.6064   73.8882 H   0  0  0  0  0  0  0  0  0  0  0  0
    1.8937   58.7001   70.4695 H   0  0  0  0  0  0  0  0  0  0  0  0
    3.4377   56.9099   71.9450 H   0  0  0  0  0  0  0  0  0  0  0  0
    2.6650   56.5588   70.4928 H   0  0  0  0  0  0  0  0  0  0  0  0
    4.2758   57.0429   70.4928 H   0  0  0  0  0  0  0  0  0  0  0  0
    4.8639   58.9209   69.9194 H   0  0  0  0  0  0  0  0  0  0  0  0
    3.4343   59.1519   68.8159 H   0  0  0  0  0  0  0  0  0  0  0  0
    2.0225   61.2137   69.0202 H   0  0  0  0  0  0  0  0  0  0  0  0
    2.1634   63.6816   69.3205 H   0  0  0  0  0  0  0  0  0  0  0  0
    4.1028   64.6899   70.5155 H   0  0  0  0  0  0  0  0  0  0  0  0
    5.8994   63.2245   71.4342 H   0  0  0  0  0  0  0  0  0  0  0  0
    5.7697   60.7542   71.1375 H   0  0  0  0  0  0  0  0  0  0  0  0
  2  1  1  0
  3  2  2  0
  4  2  1  0
  5  4  1  0
  6  5  1  0
  7  6  2  0
  8  6  1  0
  9  5  1  0
 10  9  1  0
 11 10  1  0
 12 10  1  0
 13  1  1  0
 14  1  1  0
 15 14  1  0
 16 14  1  0
 17 16  1  0
 18 17  2  0
 19 18  1  0
 20 19  2  0
 21 20  1  0
 22 17  1  0
 22 21  2  0
  1 23  1  6
  4 24  1  0
  5 25  1  6
  9 26  1  0
  9 27  1  0
 10 28  1  0
 11 29  1  0
 11 30  1  0
 11 31  1  0
 12 32  1  0
 12 33  1  0
 12 34  1  0
 13 35  1  0
 14 36  1  6
 15 37  1  0
 15 38  1  0
 15 39  1  0
 16 40  1  0
 16 41  1  0
 18 42  1  0
 19 43  1  0
 20 44  1  0
 21 45  1  0
 22 46  1  0
M  CHG  2   8  -1  15   1
M  END
>  <score>  (6) 
-6.814

$$$$
=
     RDKit          3D

 46 46  0  0  0  0  0  0  0  0999 V2000
    2.7100   59.9370   72.2490 C   0  0  1  0  0  0  0  0  0  0  0  0
    3.2800   61.3210   72.6180 C   0  0  0  0  0  0  0  0  0  0  0  0
    3.3980   61.6470   73.8040 O   0  0  0  0  0  0  0  0  0  0  0  0
    3.7940   62.0950   71.6010 N   0  0  0  0  0  0  0  0  0  0  0  0
    2.9100   62.4520   70.4450 C   0  0  2  0  0  0  0  0  0  0  0  0
    3.5340   61.9580   69.0990 C   0  0  0  0  0  0  0  0  0  0  0  0
    4.1900   60.8900   69.1440 O   0  0  0  0  0  0  0  0  0  0  0  0
    3.4560   62.8320   68.1730 O   0  0  0  0  0  1  0  0  0  0  0  0
    2.7450   63.9760   70.4000 C   0  0  0  0  0  0  0  0  0  0  0  0
    1.3780   64.5160   70.8660 C   0  0  0  0  0  0  0  0  0  0  0  0
    1.0150   65.8430   70.1960 C   0  0  0  0  0  0  0  0  0  0  0  0
    0.2890   63.4790   70.5770 C   0  0  0  0  0  0  0  0  0  0  0  0
    3.7320   59.1310   71.6450 O   0  0  0  0  0  0  0  0  0  0  0  0
    2.2710   59.2150   73.5330 C   0  0  2  0  0  0  0  0  0  0  0  0
    3.3570   58.2190   73.8670 N   0  0  0  0  0  4  0  0  0  0  0  0
    0.9420   58.4600   73.3280 C   0  0  0  0  0  0  0  0  0  0  0  0
   -0.2690   59.3270   73.5890 C   0  0  0  0  0  0  0  0  0  0  0  0
   -1.3280   58.8600   74.3780 C   0  0  0  0  0  0  0  0  0  0  0  0
   -2.4600   59.6520   74.5780 C   0  0  0  0  0  0  0  0  0  0  0  0
   -2.5410   60.9160   74.0000 C   0  0  0  0  0  0  0  0  0  0  0  0
   -1.4870   61.3960   73.2250 C   0  0  0  0  0  0  0  0  0  0  0  0
   -0.3530   60.6090   73.0220 C   0  0  0  0  0  0  0  0  0  0  0  0
    1.8669   60.0785   71.5568 H   0  0  0  0  0  0  0  0  0  0  0  0
    4.7698   62.4229   71.6346 H   0  0  0  0  0  0  0  0  0  0  0  0
    1.9327   61.9646   70.5766 H   0  0  0  0  0  0  0  0  0  0  0  0
    3.5200   64.4187   71.0430 H   0  0  0  0  0  0  0  0  0  0  0  0
    2.8312   64.2551   69.3395 H   0  0  0  0  0  0  0  0  0  0  0  0
    1.4500   64.7026   71.9477 H   0  0  0  0  0  0  0  0  0  0  0  0
    0.8082   66.5990   70.9679 H   0  0  0  0  0  0  0  0  0  0  0  0
    1.8542   66.1790   69.5693 H   0  0  0  0  0  0  0  0  0  0  0  0
    0.1216   65.7050   69.5693 H   0  0  0  0  0  0  0  0  0  0  0  0
   -0.1135   63.0957   71.5263 H   0  0  0  0  0  0  0  0  0  0  0  0
   -0.5203   63.9486   69.9986 H   0  0  0  0  0  0  0  0  0  0  0  0
    0.7185   62.6478   69.9986 H   0  0  0  0  0  0  0  0  0  0  0  0
    4.2755   58.7023   72.3528 H   0  0  0  0  0  0  0  0  0  0  0  0
    2.1172   59.9475   74.3391 H   0  0  0  0  0  0  0  0  0  0  0  0
    3.4456   58.1378   74.8900 H   0  0  0  0  0  0  0  0  0  0  0  0
    3.1144   57.3003   73.4694 H   0  0  0  0  0  0  0  0  0  0  0  0
    4.2513   58.5399   73.4694 H   0  0  0  0  0  0  0  0  0  0  0  0
    0.8990   58.0991   72.2898 H   0  0  0  0  0  0  0  0  0  0  0  0
    0.9174   57.6297   74.0492 H   0  0  0  0  0  0  0  0  0  0  0  0
   -1.2673   57.8646   74.8421 H   0  0  0  0  0  0  0  0  0  0  0  0
   -3.2903   59.2764   75.1940 H   0  0  0  0  0  0  0  0  0  0  0  0
   -3.4366   61.5355   74.1550 H   0  0  0  0  0  0  0  0  0  0  0  0
   -1.5492   62.3968   72.7727 H   0  0  0  0  0  0  0  0  0  0  0  0
    0.4793   60.9946   72.4149 H   0  0  0  0  0  0  0  0  0  0  0  0
  2  1  1  0
  3  2  2  0
  4  2  1  0
  5  4  1  0
  6  5  1  0
  7  6  2  0
  8  6  1  0
  9  5  1  0
 10  9  1  0
 11 10  1  0
 12 10  1  0
 13  1  1  0
 14  1  1  0
 15 14  1  0
 16 14  1  0
 17 16  1  0
 18 17  2  0
 19 18  1  0
 20 19  2  0
 21 20  1  0
 22 17  1  0
 22 21  2  0
  1 23  1  6
  4 24  1  0
  5 25  1  1
  9 26  1  0
  9 27  1  0
 10 28  1  0
 11 29  1  0
 11 30  1  0
 11 31  1  0
 12 32  1  0
 12 33  1  0
 12 34  1  0
 13 35  1  0
 14 36  1  1
 15 37  1  0
 15 38  1  0
 15 39  1  0
 16 40  1  0
 16 41  1  0
 18 42  1  0
 19 43  1  0
 20 44  1  0
 21 45  1  0
 22 46  1  0
M  CHG  2   8  -1  15   1
M  END
>  <score>  (7) 
-6.808

$$$$
=
     RDKit          3D

 46 46  0  0  0  0  0  0  0  0999 V2000
    4.3900   60.5220   71.4490 C   0  0  1  0  0  0  0  0  0  0  0  0
    3.8820   59.0690   71.3870 C   0  0  0  0  0  0  0  0  0  0  0  0
    3.8270   58.4770   70.3030 O   0  0  0  0  0  0  0  0  0  0  0  0
    3.6550   58.4170   72.5790 N   0  0  0  0  0  0  0  0  0  0  0  0
    2.6890   59.0120   73.5570 C   0  0  2  0  0  0  0  0  0  0  0  0
    2.8790   58.3790   74.9750 C   0  0  0  0  0  0  0  0  0  0  0  0
    2.5770   57.1680   75.0920 O   0  0  0  0  0  0  0  0  0  0  0  0
    3.1240   59.2530   75.8720 O   0  0  0  0  0  1  0  0  0  0  0  0
    1.2610   58.7440   73.0680 C   0  0  0  0  0  0  0  0  0  0  0  0
    0.1340   59.3580   73.9230 C   0  0  0  0  0  0  0  0  0  0  0  0
   -0.5890   60.4990   73.2050 C   0  0  0  0  0  0  0  0  0  0  0  0
   -0.8730   58.2690   74.3040 C   0  0  0  0  0  0  0  0  0  0  0  0
    5.7650   60.5800   71.0440 O   0  0  0  0  0  0  0  0  0  0  0  0
    3.5940   61.3770   70.4490 C   0  0  2  0  0  0  0  0  0  0  0  0
    4.0800   61.0010   69.0700 N   0  0  0  0  0  4  0  0  0  0  0  0
    3.8380   62.8830   70.6750 C   0  0  0  0  0  0  0  0  0  0  0  0
    2.5730   63.6350   71.0220 C   0  0  0  0  0  0  0  0  0  0  0  0
    1.7470   63.2020   72.0670 C   0  0  0  0  0  0  0  0  0  0  0  0
    0.5590   63.8770   72.3530 C   0  0  0  0  0  0  0  0  0  0  0  0
    0.1910   64.9920   71.6040 C   0  0  0  0  0  0  0  0  0  0  0  0
    1.0130   65.4410   70.5730 C   0  0  0  0  0  0  0  0  0  0  0  0
    2.2010   64.7680   70.2830 C   0  0  0  0  0  0  0  0  0  0  0  0
    4.2724   60.8892   72.4792 H   0  0  0  0  0  0  0  0  0  0  0  0
    4.1414   57.5350   72.7942 H   0  0  0  0  0  0  0  0  0  0  0  0
    2.8720   60.0942   73.6296 H   0  0  0  0  0  0  0  0  0  0  0  0
    1.1712   59.1493   72.0493 H   0  0  0  0  0  0  0  0  0  0  0  0
    1.1232   57.6544   73.1289 H   0  0  0  0  0  0  0  0  0  0  0  0
    0.5991   59.7812   74.8255 H   0  0  0  0  0  0  0  0  0  0  0  0
   -1.0228   61.1837   73.9487 H   0  0  0  0  0  0  0  0  0  0  0  0
    0.1266   61.0476   72.5750 H   0  0  0  0  0  0  0  0  0  0  0  0
   -1.3907   60.0862   72.5750 H   0  0  0  0  0  0  0  0  0  0  0  0
   -0.9389   58.1977   75.3997 H   0  0  0  0  0  0  0  0  0  0  0  0
   -1.8611   58.5233   73.8930 H   0  0  0  0  0  0  0  0  0  0  0  0
   -0.5423   57.3038   73.8930 H   0  0  0  0  0  0  0  0  0  0  0  0
    6.3446   60.6044   71.8463 H   0  0  0  0  0  0  0  0  0  0  0  0
    2.5170   61.1920   70.5748 H   0  0  0  0  0  0  0  0  0  0  0  0
    4.8921   60.3727   69.1516 H   0  0  0  0  0  0  0  0  0  0  0  0
    3.3251   60.5217   68.5588 H   0  0  0  0  0  0  0  0  0  0  0  0
    4.3544   61.8520   68.5588 H   0  0  0  0  0  0  0  0  0  0  0  0
    4.5559   63.0030   71.4998 H   0  0  0  0  0  0  0  0  0  0  0  0
    4.2247   63.3011   69.7339 H   0  0  0  0  0  0  0  0  0  0  0  0
    2.0359   62.3255   72.6655 H   0  0  0  0  0  0  0  0  0  0  0  0
   -0.0876   63.5276   73.1714 H   0  0  0  0  0  0  0  0  0  0  0  0
   -0.7490   65.5182   71.8266 H   0  0  0  0  0  0  0  0  0  0  0  0
    0.7258   66.3265   69.9870 H   0  0  0  0  0  0  0  0  0  0  0  0
    2.8492   65.1280   69.4705 H   0  0  0  0  0  0  0  0  0  0  0  0
  2  1  1  0
  3  2  2  0
  4  2  1  0
  5  4  1  0
  6  5  1  0
  7  6  2  0
  8  6  1  0
  9  5  1  0
 10  9  1  0
 11 10  1  0
 12 10  1  0
 13  1  1  0
 14  1  1  0
 15 14  1  0
 16 14  1  0
 17 16  1  0
 18 17  2  0
 19 18  1  0
 20 19  2  0
 21 20  1  0
 22 17  1  0
 22 21  2  0
  1 23  1  1
  4 24  1  0
  5 25  1  1
  9 26  1  0
  9 27  1  0
 10 28  1  0
 11 29  1  0
 11 30  1  0
 11 31  1  0
 12 32  1  0
 12 33  1  0
 12 34  1  0
 13 35  1  0
 14 36  1  6
 15 37  1  0
 15 38  1  0
 15 39  1  0
 16 40  1  0
 16 41  1  0
 18 42  1  0
 19 43  1  0
 20 44  1  0
 21 45  1  0
 22 46  1  0
M  CHG  2   8  -1  15   1
M  END
>  <score>  (8) 
-6.801

$$$$
=
     RDKit          3D

 46 46  0  0  0  0  0  0  0  0999 V2000
    3.1430   59.0070   70.6440 C   0  0  1  0  0  0  0  0  0  0  0  0
    4.0360   60.2620   70.5830 C   0  0  0  0  0  0  0  0  0  0  0  0
    5.2510   60.1690   70.7890 O   0  0  0  0  0  0  0  0  0  0  0  0
    3.4650   61.4330   70.1370 N   0  0  0  0  0  0  0  0  0  0  0  0
    2.2660   61.9740   70.8540 C   0  0  2  0  0  0  0  0  0  0  0  0
    1.6850   63.2160   70.1020 C   0  0  0  0  0  0  0  0  0  0  0  0
    0.4370   63.3360   70.1010 O   0  0  0  0  0  0  0  0  0  0  0  0
    2.5670   63.8280   69.4120 O   0  0  0  0  0  1  0  0  0  0  0  0
    2.6810   62.3870   72.2710 C   0  0  0  0  0  0  0  0  0  0  0  0
    1.6510   62.0990   73.3810 C   0  0  0  0  0  0  0  0  0  0  0  0
    2.2870   61.4600   74.6170 C   0  0  0  0  0  0  0  0  0  0  0  0
    0.9480   63.4000   73.7800 C   0  0  0  0  0  0  0  0  0  0  0  0
    3.8670   57.8660   70.1610 O   0  0  0  0  0  0  0  0  0  0  0  0
    2.7810   58.7180   72.1100 C   0  0  2  0  0  0  0  0  0  0  0  0
    4.0740   58.7270   72.8890 N   0  0  0  0  0  4  0  0  0  0  0  0
    2.1110   57.3370   72.2620 C   0  0  0  0  0  0  0  0  0  0  0  0
    0.9010   57.3710   73.1690 C   0  0  0  0  0  0  0  0  0  0  0  0
    0.3040   56.1830   73.6110 C   0  0  0  0  0  0  0  0  0  0  0  0
   -0.8370   56.2240   74.4130 C   0  0  0  0  0  0  0  0  0  0  0  0
   -1.3870   57.4490   74.7860 C   0  0  0  0  0  0  0  0  0  0  0  0
   -0.7920   58.6360   74.3640 C   0  0  0  0  0  0  0  0  0  0  0  0
    0.3490   58.6000   73.5620 C   0  0  0  0  0  0  0  0  0  0  0  0
    2.2457   59.1857   70.0333 H   0  0  0  0  0  0  0  0  0  0  0  0
    3.8560   61.9290   69.3234 H   0  0  0  0  0  0  0  0  0  0  0  0
    1.4903   61.1950   70.8931 H   0  0  0  0  0  0  0  0  0  0  0  0
    3.6072   61.8493   72.5219 H   0  0  0  0  0  0  0  0  0  0  0  0
    2.7931   63.4809   72.2432 H   0  0  0  0  0  0  0  0  0  0  0  0
    0.9241   61.3796   72.9759 H   0  0  0  0  0  0  0  0  0  0  0  0
    1.8484   61.9007   75.5244 H   0  0  0  0  0  0  0  0  0  0  0  0
    2.0984   60.3763   74.6077 H   0  0  0  0  0  0  0  0  0  0  0  0
    3.3715   61.6435   74.6077 H   0  0  0  0  0  0  0  0  0  0  0  0
    0.9081   63.4738   74.8768 H   0  0  0  0  0  0  0  0  0  0  0  0
    1.5057   64.2573   73.3749 H   0  0  0  0  0  0  0  0  0  0  0  0
   -0.0747   63.4033   73.3749 H   0  0  0  0  0  0  0  0  0  0  0  0
    4.2018   57.3384   70.9289 H   0  0  0  0  0  0  0  0  0  0  0  0
    2.0714   59.4748   72.4757 H   0  0  0  0  0  0  0  0  0  0  0  0
    3.8670   58.7256   73.8980 H   0  0  0  0  0  0  0  0  0  0  0  0
    4.6245   57.8898   72.6503 H   0  0  0  0  0  0  0  0  0  0  0  0
    4.6128   59.5718   72.6503 H   0  0  0  0  0  0  0  0  0  0  0  0
    1.7956   56.9877   71.2678 H   0  0  0  0  0  0  0  0  0  0  0  0
    2.8479   56.6589   72.7170 H   0  0  0  0  0  0  0  0  0  0  0  0
    0.7370   55.2133   73.3243 H   0  0  0  0  0  0  0  0  0  0  0  0
   -1.3036   55.2872   74.7517 H   0  0  0  0  0  0  0  0  0  0  0  0
   -2.2902   57.4787   75.4131 H   0  0  0  0  0  0  0  0  0  0  0  0
   -1.2225   59.6029   74.6636 H   0  0  0  0  0  0  0  0  0  0  0  0
    0.8184   59.5399   73.2360 H   0  0  0  0  0  0  0  0  0  0  0  0
  2  1  1  0
  3  2  2  0
  4  2  1  0
  5  4  1  0
  6  5  1  0
  7  6  2  0
  8  6  1  0
  9  5  1  0
 10  9  1  0
 11 10  1  0
 12 10  1  0
 13  1  1  0
 14  1  1  0
 15 14  1  0
 16 14  1  0
 17 16  1  0
 18 17  2  0
 19 18  1  0
 20 19  2  0
 21 20  1  0
 22 17  1  0
 22 21  2  0
  1 23  1  6
  4 24  1  0
  5 25  1  1
  9 26  1  0
  9 27  1  0
 10 28  1  0
 11 29  1  0
 11 30  1  0
 11 31  1  0
 12 32  1  0
 12 33  1  0
 12 34  1  0
 13 35  1  0
 14 36  1  1
 15 37  1  0
 15 38  1  0
 15 39  1  0
 16 40  1  0
 16 41  1  0
 18 42  1  0
 19 43  1  0
 20 44  1  0
 21 45  1  0
 22 46  1  0
M  CHG  2   8  -1  15   1
M  END
>  <score>  (9) 
-6.79

$$$$
