=
     RDKit          3D

 54 56  0  0  0  0  0  0  0  0999 V2000
    2.5300   63.1890   71.1360 C   0  0  0  0  0  0  0  0  0  0  0  0
    3.2810   62.4000   70.2600 C   0  0  0  0  0  0  0  0  0  0  0  0
    3.2410   61.0150   70.4190 C   0  0  0  0  0  0  0  0  0  0  0  0
    2.4450   60.4110   71.4190 C   0  0  0  0  0  0  0  0  0  0  0  0
    1.6350   61.1900   72.2620 C   0  0  0  0  0  0  0  0  0  0  0  0
    0.6370   60.5850   73.2290 C   0  0  0  0  0  0  0  0  0  0  0  0
   -0.6140   61.0120   72.9110 C   0  0  0  0  0  0  0  0  0  0  0  0
   -1.8470   60.8660   73.4200 C   0  0  0  0  0  0  0  0  0  0  0  0
   -2.2010   60.3570   74.6080 C   0  0  0  0  0  0  0  0  0  0  0  0
   -1.0970   60.0590   75.6100 C   0  0  0  0  0  0  0  0  0  0  0  0
   -1.2530   60.3800   76.7740 O   0  0  0  0  0  0  0  0  0  0  0  0
    0.2280   59.4250   75.2710 C   0  0  0  0  0  0  0  0  0  0  0  0
    1.0210   59.7150   74.2110 C   0  0  0  0  0  0  0  0  0  0  0  0
    2.3710   58.9270   74.2610 C   0  0  2  0  0  0  0  0  0  0  0  0
    3.3470   58.9120   73.0700 C   0  0  0  0  0  0  0  0  0  0  0  0
    2.6500   58.9530   71.7150 C   0  0  0  0  0  0  0  0  0  0  0  0
    1.7550   62.5980   72.1470 C   0  0  0  0  0  0  0  0  0  0  0  0
    2.0240   57.5140   74.5200 N   0  0  0  0  0  0  0  0  0  0  0  0
    2.7200   56.7430   75.4210 C   0  0  0  0  0  0  0  0  0  0  0  0
    3.6530   57.1620   76.0980 O   0  0  0  0  0  0  0  0  0  0  0  0
    2.2540   55.3140   75.4970 C   0  0  0  0  0  0  0  0  0  0  0  0
    1.4900   65.0590   70.3080 C   0  0  0  0  0  0  0  0  0  0  0  0
    2.6010   64.5610   71.0510 O   0  0  0  0  0  0  0  0  0  0  0  0
    4.0210   63.0670   69.3210 O   0  0  0  0  0  0  0  0  0  0  0  0
    3.6910   62.8590   67.9550 C   0  0  0  0  0  0  0  0  0  0  0  0
   -3.4830   60.1590   75.0770 O   0  0  0  0  0  0  0  0  0  0  0  0
   -3.9640   58.8280   75.1970 C   0  0  0  0  0  0  0  0  0  0  0  0
    1.0360   63.4200   72.9910 O   0  0  0  0  0  0  0  0  0  0  0  0
    1.6360   63.4270   74.2870 C   0  0  0  0  0  0  0  0  0  0  0  0
    3.8416   60.3791   69.7521 H   0  0  0  0  0  0  0  0  0  0  0  0
   -0.6159   61.6365   72.0054 H   0  0  0  0  0  0  0  0  0  0  0  0
   -2.6734   61.2081   72.7797 H   0  0  0  0  0  0  0  0  0  0  0  0
    0.5894   58.6444   75.9566 H   0  0  0  0  0  0  0  0  0  0  0  0
    2.9328   59.4862   75.0237 H   0  0  0  0  0  0  0  0  0  0  0  0
    4.0070   59.7884   73.1491 H   0  0  0  0  0  0  0  0  0  0  0  0
    3.9048   57.9652   73.1195 H   0  0  0  0  0  0  0  0  0  0  0  0
    3.2807   58.4880   70.9430 H   0  0  0  0  0  0  0  0  0  0  0  0
    1.6997   58.3990   71.7256 H   0  0  0  0  0  0  0  0  0  0  0  0
    1.2350   57.0930   74.0089 H   0  0  0  0  0  0  0  0  0  0  0  0
    2.1567   55.0156   76.5513 H   0  0  0  0  0  0  0  0  0  0  0  0
    1.2785   55.2194   74.9976 H   0  0  0  0  0  0  0  0  0  0  0  0
    2.9862   54.6625   74.9976 H   0  0  0  0  0  0  0  0  0  0  0  0
    0.7114   65.4080   71.0023 H   0  0  0  0  0  0  0  0  0  0  0  0
    1.8183   65.8961   69.6744 H   0  0  0  0  0  0  0  0  0  0  0  0
    1.0835   64.2570   69.6744 H   0  0  0  0  0  0  0  0  0  0  0  0
    2.7622   62.2736   67.8872 H   0  0  0  0  0  0  0  0  0  0  0  0
    3.5487   63.8310   67.4600 H   0  0  0  0  0  0  0  0  0  0  0  0
    4.5065   62.3114   67.4600 H   0  0  0  0  0  0  0  0  0  0  0  0
   -4.0584   58.5668   76.2614 H   0  0  0  0  0  0  0  0  0  0  0  0
   -4.9477   58.7484   74.7113 H   0  0  0  0  0  0  0  0  0  0  0  0
   -3.2584   58.1379   74.7113 H   0  0  0  0  0  0  0  0  0  0  0  0
    0.8490   63.4178   75.0555 H   0  0  0  0  0  0  0  0  0  0  0  0
    2.2710   62.5362   74.4019 H   0  0  0  0  0  0  0  0  0  0  0  0
    2.2501   64.3324   74.4019 H   0  0  0  0  0  0  0  0  0  0  0  0
  2  1  2  0
  3  2  1  0
  4  3  2  0
  5  4  1  0
  6  5  1  0
  7  6  2  0
  8  7  1  0
  9  8  2  0
 10  9  1  0
 11 10  2  0
 12 10  1  0
 13 12  2  0
 13  6  1  0
 14 13  1  0
 15 14  1  0
 16 15  1  0
 16  4  1  0
 17  5  2  0
 17  1  1  0
 18 14  1  0
 19 18  1  0
 20 19  2  0
 21 19  1  0
 23 22  1  0
 23  1  1  0
 24  2  1  0
 25 24  1  0
 26  9  1  0
 27 26  1  0
 28 17  1  0
 29 28  1  0
  3 30  1  0
  7 31  1  0
  8 32  1  0
 12 33  1  0
 14 34  1  1
 15 35  1  0
 15 36  1  0
 16 37  1  0
 16 38  1  0
 18 39  1  0
 21 40  1  0
 21 41  1  0
 21 42  1  0
 22 43  1  0
 22 44  1  0
 22 45  1  0
 25 46  1  0
 25 47  1  0
 25 48  1  0
 27 49  1  0
 27 50  1  0
 27 51  1  0
 29 52  1  0
 29 53  1  0
 29 54  1  0
M  END
>  <score>  (1) 
-7.192

$$$$
=
     RDKit          3D

 54 56  0  0  0  0  0  0  0  0999 V2000
    0.5650   56.1060   75.5560 C   0  0  0  0  0  0  0  0  0  0  0  0
   -0.8260   56.2400   75.5880 C   0  0  0  0  0  0  0  0  0  0  0  0
   -1.3930   57.3830   75.0260 C   0  0  0  0  0  0  0  0  0  0  0  0
   -0.5950   58.3760   74.4120 C   0  0  0  0  0  0  0  0  0  0  0  0
    0.7980   58.2210   74.3150 C   0  0  0  0  0  0  0  0  0  0  0  0
    1.6750   59.1670   73.5190 C   0  0  0  0  0  0  0  0  0  0  0  0
    2.3030   58.4740   72.5310 C   0  0  0  0  0  0  0  0  0  0  0  0
    3.2100   58.7490   71.5810 C   0  0  0  0  0  0  0  0  0  0  0  0
    3.9640   59.8480   71.4440 C   0  0  0  0  0  0  0  0  0  0  0  0
    3.9540   60.8620   72.5770 C   0  0  0  0  0  0  0  0  0  0  0  0
    5.0080   61.3460   72.9470 O   0  0  0  0  0  0  0  0  0  0  0  0
    2.7250   61.2990   73.3330 C   0  0  0  0  0  0  0  0  0  0  0  0
    1.7280   60.5050   73.7930 C   0  0  0  0  0  0  0  0  0  0  0  0
    0.6800   61.3110   74.6300 C   0  0  2  0  0  0  0  0  0  0  0  0
   -0.6550   60.6880   75.0770 C   0  0  0  0  0  0  0  0  0  0  0  0
   -1.2270   59.6950   74.0710 C   0  0  0  0  0  0  0  0  0  0  0  0
    1.3670   57.0990   74.9690 C   0  0  0  0  0  0  0  0  0  0  0  0
    0.3250   62.4990   73.8260 N   0  0  0  0  0  0  0  0  0  0  0  0
    0.4570   63.7790   74.3130 C   0  0  0  0  0  0  0  0  0  0  0  0
    0.9020   64.0400   75.4250 O   0  0  0  0  0  0  0  0  0  0  0  0
   -0.0150   64.8480   73.3660 C   0  0  0  0  0  0  0  0  0  0  0  0
    1.4010   54.0000   75.1990 C   0  0  0  0  0  0  0  0  0  0  0  0
    1.1620   55.0240   76.1620 O   0  0  0  0  0  0  0  0  0  0  0  0
   -1.5210   55.2320   76.1990 O   0  0  0  0  0  0  0  0  0  0  0  0
   -2.5610   54.6080   75.4590 C   0  0  0  0  0  0  0  0  0  0  0  0
    4.8430   60.1290   70.4190 O   0  0  0  0  0  0  0  0  0  0  0  0
    4.3420   60.7640   69.2510 C   0  0  0  0  0  0  0  0  0  0  0  0
    2.7360   56.9240   74.9680 O   0  0  0  0  0  0  0  0  0  0  0  0
    3.3020   57.5210   76.1350 C   0  0  0  0  0  0  0  0  0  0  0  0
   -2.4845   57.5152   75.0609 H   0  0  0  0  0  0  0  0  0  0  0  0
    1.9870   57.4207   72.5040 H   0  0  0  0  0  0  0  0  0  0  0  0
    3.3529   57.9717   70.8159 H   0  0  0  0  0  0  0  0  0  0  0  0
    2.6273   62.3764   73.5322 H   0  0  0  0  0  0  0  0  0  0  0  0
    1.2094   61.4511   75.5840 H   0  0  0  0  0  0  0  0  0  0  0  0
   -0.4933   60.1641   76.0306 H   0  0  0  0  0  0  0  0  0  0  0  0
   -1.3809   61.5090   75.1714 H   0  0  0  0  0  0  0  0  0  0  0  0
   -2.3210   59.6347   74.1687 H   0  0  0  0  0  0  0  0  0  0  0  0
   -1.0159   59.9947   73.0339 H   0  0  0  0  0  0  0  0  0  0  0  0
   -0.0330   62.3644   72.8696 H   0  0  0  0  0  0  0  0  0  0  0  0
   -0.3938   65.7059   73.9409 H   0  0  0  0  0  0  0  0  0  0  0  0
    0.8234   65.1727   72.7323 H   0  0  0  0  0  0  0  0  0  0  0  0
   -0.8198   64.4472   72.7323 H   0  0  0  0  0  0  0  0  0  0  0  0
    1.6217   53.0546   75.7162 H   0  0  0  0  0  0  0  0  0  0  0  0
    0.5082   53.8736   74.5689 H   0  0  0  0  0  0  0  0  0  0  0  0
    2.2575   54.2819   74.5689 H   0  0  0  0  0  0  0  0  0  0  0  0
   -3.2926   54.1690   76.1533 H   0  0  0  0  0  0  0  0  0  0  0  0
   -3.0599   55.3561   74.8254 H   0  0  0  0  0  0  0  0  0  0  0  0
   -2.1357   53.8158   74.8254 H   0  0  0  0  0  0  0  0  0  0  0  0
    3.6846   61.5972   69.5400 H   0  0  0  0  0  0  0  0  0  0  0  0
    5.1819   61.1495   68.6543 H   0  0  0  0  0  0  0  0  0  0  0  0
    3.7716   60.0369   68.6543 H   0  0  0  0  0  0  0  0  0  0  0  0
    2.8642   57.0592   77.0322 H   0  0  0  0  0  0  0  0  0  0  0  0
    4.3907   57.3639   76.1359 H   0  0  0  0  0  0  0  0  0  0  0  0
    3.0872   58.5998   76.1359 H   0  0  0  0  0  0  0  0  0  0  0  0
  2  1  2  0
  3  2  1  0
  4  3  2  0
  5  4  1  0
  6  5  1  0
  7  6  2  0
  8  7  1  0
  9  8  2  0
 10  9  1  0
 11 10  2  0
 12 10  1  0
 13 12  2  0
 13  6  1  0
 14 13  1  0
 15 14  1  0
 16 15  1  0
 16  4  1  0
 17  5  2  0
 17  1  1  0
 18 14  1  0
 19 18  1  0
 20 19  2  0
 21 19  1  0
 23 22  1  0
 23  1  1  0
 24  2  1  0
 25 24  1  0
 26  9  1  0
 27 26  1  0
 28 17  1  0
 29 28  1  0
  3 30  1  0
  7 31  1  0
  8 32  1  0
 12 33  1  0
 14 34  1  1
 15 35  1  0
 15 36  1  0
 16 37  1  0
 16 38  1  0
 18 39  1  0
 21 40  1  0
 21 41  1  0
 21 42  1  0
 22 43  1  0
 22 44  1  0
 22 45  1  0
 25 46  1  0
 25 47  1  0
 25 48  1  0
 27 49  1  0
 27 50  1  0
 27 51  1  0
 29 52  1  0
 29 53  1  0
 29 54  1  0
M  END
>  <score>  (2) 
-6.959

$$$$
=
     RDKit          3D

 54 56  0  0  0  0  0  0  0  0999 V2000
    2.6860   60.9560   70.8930 C   0  0  0  0  0  0  0  0  0  0  0  0
    1.7580   61.9960   70.9920 C   0  0  0  0  0  0  0  0  0  0  0  0
    0.8720   61.9910   72.0690 C   0  0  0  0  0  0  0  0  0  0  0  0
    0.9180   60.9790   73.0560 C   0  0  0  0  0  0  0  0  0  0  0  0
    1.8890   59.9660   73.0030 C   0  0  0  0  0  0  0  0  0  0  0  0
    2.0920   58.9640   74.1230 C   0  0  0  0  0  0  0  0  0  0  0  0
    3.3550   59.0850   74.6120 C   0  0  0  0  0  0  0  0  0  0  0  0
    4.1010   58.4570   75.5330 C   0  0  0  0  0  0  0  0  0  0  0  0
    3.8480   57.3000   76.1620 C   0  0  0  0  0  0  0  0  0  0  0  0
    2.6680   56.4730   75.6760 C   0  0  0  0  0  0  0  0  0  0  0  0
    2.8030   55.2700   75.5470 O   0  0  0  0  0  0  0  0  0  0  0  0
    1.3220   57.0320   75.2880 C   0  0  0  0  0  0  0  0  0  0  0  0
    1.0860   58.1380   74.5410 C   0  0  0  0  0  0  0  0  0  0  0  0
   -0.4390   58.3340   74.2570 C   0  0  2  0  0  0  0  0  0  0  0  0
   -0.9870   59.6240   73.6200 C   0  0  0  0  0  0  0  0  0  0  0  0
   -0.2200   60.8760   74.0300 C   0  0  0  0  0  0  0  0  0  0  0  0
    2.7230   59.9350   71.8570 C   0  0  0  0  0  0  0  0  0  0  0  0
   -1.1290   58.1970   75.5560 N   0  0  0  0  0  0  0  0  0  0  0  0
   -1.9860   57.1550   75.8250 C   0  0  0  0  0  0  0  0  0  0  0  0
   -2.2220   56.2480   75.0340 O   0  0  0  0  0  0  0  0  0  0  0  0
   -2.6370   57.2270   77.1790 C   0  0  0  0  0  0  0  0  0  0  0  0
    4.8010   61.4410   70.1480 C   0  0  0  0  0  0  0  0  0  0  0  0
    3.5300   60.8920   69.8070 O   0  0  0  0  0  0  0  0  0  0  0  0
    1.7850   62.9330   69.9950 O   0  0  0  0  0  0  0  0  0  0  0  0
    2.2660   64.2290   70.3220 C   0  0  0  0  0  0  0  0  0  0  0  0
    4.6050   56.7110   77.1520 O   0  0  0  0  0  0  0  0  0  0  0  0
    4.4560   57.1740   78.4870 C   0  0  0  0  0  0  0  0  0  0  0  0
    3.6540   58.9260   71.7120 O   0  0  0  0  0  0  0  0  0  0  0  0
    3.0640   57.8150   71.0340 C   0  0  0  0  0  0  0  0  0  0  0  0
    0.1216   62.7910   72.1526 H   0  0  0  0  0  0  0  0  0  0  0  0
    3.9046   59.9068   74.1297 H   0  0  0  0  0  0  0  0  0  0  0  0
    5.0422   58.9556   75.8079 H   0  0  0  0  0  0  0  0  0  0  0  0
    0.4390   56.4845   75.6493 H   0  0  0  0  0  0  0  0  0  0  0  0
   -0.6233   57.5839   73.4738 H   0  0  0  0  0  0  0  0  0  0  0  0
   -0.9309   59.5235   72.5260 H   0  0  0  0  0  0  0  0  0  0  0  0
   -2.0211   59.7467   73.9743 H   0  0  0  0  0  0  0  0  0  0  0  0
   -0.8665   61.7634   73.9627 H   0  0  0  0  0  0  0  0  0  0  0  0
    0.1337   60.8186   75.0700 H   0  0  0  0  0  0  0  0  0  0  0  0
   -0.9629   58.9055   76.2849 H   0  0  0  0  0  0  0  0  0  0  0  0
   -1.8678   57.1419   77.9607 H   0  0  0  0  0  0  0  0  0  0  0  0
   -3.1609   58.1886   77.2833 H   0  0  0  0  0  0  0  0  0  0  0  0
   -3.3584   56.4032   77.2833 H   0  0  0  0  0  0  0  0  0  0  0  0
    4.9001   61.4838   71.2427 H   0  0  0  0  0  0  0  0  0  0  0  0
    5.5978   60.8068   69.7322 H   0  0  0  0  0  0  0  0  0  0  0  0
    4.8855   62.4559   69.7322 H   0  0  0  0  0  0  0  0  0  0  0  0
    2.3071   64.3397   71.4156 H   0  0  0  0  0  0  0  0  0  0  0  0
    3.2737   64.3629   69.9018 H   0  0  0  0  0  0  0  0  0  0  0  0
    1.5897   64.9879   69.9018 H   0  0  0  0  0  0  0  0  0  0  0  0
    4.7161   56.3659   79.1865 H   0  0  0  0  0  0  0  0  0  0  0  0
    5.1233   58.0324   78.6540 H   0  0  0  0  0  0  0  0  0  0  0  0
    3.4133   57.4821   78.6540 H   0  0  0  0  0  0  0  0  0  0  0  0
    2.6818   57.0954   71.7730 H   0  0  0  0  0  0  0  0  0  0  0  0
    2.2348   58.1685   70.4036 H   0  0  0  0  0  0  0  0  0  0  0  0
    3.8212   57.3260   70.4036 H   0  0  0  0  0  0  0  0  0  0  0  0
  2  1  2  0
  3  2  1  0
  4  3  2  0
  5  4  1  0
  6  5  1  0
  7  6  2  0
  8  7  1  0
  9  8  2  0
 10  9  1  0
 11 10  2  0
 12 10  1  0
 13 12  2  0
 13  6  1  0
 14 13  1  0
 15 14  1  0
 16 15  1  0
 16  4  1  0
 17  5  2  0
 17  1  1  0
 18 14  1  0
 19 18  1  0
 20 19  2  0
 21 19  1  0
 23 22  1  0
 23  1  1  0
 24  2  1  0
 25 24  1  0
 26  9  1  0
 27 26  1  0
 28 17  1  0
 29 28  1  0
  3 30  1  0
  7 31  1  0
  8 32  1  0
 12 33  1  0
 14 34  1  6
 15 35  1  0
 15 36  1  0
 16 37  1  0
 16 38  1  0
 18 39  1  0
 21 40  1  0
 21 41  1  0
 21 42  1  0
 22 43  1  0
 22 44  1  0
 22 45  1  0
 25 46  1  0
 25 47  1  0
 25 48  1  0
 27 49  1  0
 27 50  1  0
 27 51  1  0
 29 52  1  0
 29 53  1  0
 29 54  1  0
M  END
>  <score>  (3) 
-6.811

$$$$
=
     RDKit          3D

 54 56  0  0  0  0  0  0  0  0999 V2000
   -0.3210   57.0580   74.3470 C   0  0  0  0  0  0  0  0  0  0  0  0
    0.6790   56.2720   73.7670 C   0  0  0  0  0  0  0  0  0  0  0  0
    1.8160   56.9100   73.2700 C   0  0  0  0  0  0  0  0  0  0  0  0
    1.9760   58.3120   73.3660 C   0  0  0  0  0  0  0  0  0  0  0  0
    1.0080   59.1040   74.0060 C   0  0  0  0  0  0  0  0  0  0  0  0
    1.2120   60.5790   74.2890 C   0  0  0  0  0  0  0  0  0  0  0  0
    1.1590   60.7920   75.6310 C   0  0  0  0  0  0  0  0  0  0  0  0
    1.2120   61.8560   76.4460 C   0  0  0  0  0  0  0  0  0  0  0  0
    1.1410   63.1550   76.1240 C   0  0  0  0  0  0  0  0  0  0  0  0
    0.7770   63.5120   74.6910 C   0  0  0  0  0  0  0  0  0  0  0  0
   -0.0320   64.4000   74.4910 O   0  0  0  0  0  0  0  0  0  0  0  0
    1.3110   62.8140   73.4660 C   0  0  0  0  0  0  0  0  0  0  0  0
    1.4530   61.4780   73.2880 C   0  0  0  0  0  0  0  0  0  0  0  0
    1.9330   61.1310   71.8400 C   0  0  2  0  0  0  0  0  0  0  0  0
    2.3780   59.7100   71.4510 C   0  0  0  0  0  0  0  0  0  0  0  0
    3.0780   58.9630   72.5810 C   0  0  0  0  0  0  0  0  0  0  0  0
   -0.1790   58.4530   74.4260 C   0  0  0  0  0  0  0  0  0  0  0  0
    3.0880   62.0100   71.5590 N   0  0  0  0  0  0  0  0  0  0  0  0
    3.2530   62.6360   70.3450 C   0  0  0  0  0  0  0  0  0  0  0  0
    2.4550   62.5450   69.4190 O   0  0  0  0  0  0  0  0  0  0  0  0
    4.5220   63.4370   70.2340 C   0  0  0  0  0  0  0  0  0  0  0  0
   -1.3770   56.1570   76.1730 C   0  0  0  0  0  0  0  0  0  0  0  0
   -1.4850   56.4690   74.7860 O   0  0  0  0  0  0  0  0  0  0  0  0
    0.4440   54.9250   73.7170 O   0  0  0  0  0  0  0  0  0  0  0  0
    1.4460   54.0620   74.2340 C   0  0  0  0  0  0  0  0  0  0  0  0
    1.2640   64.2300   76.9790 O   0  0  0  0  0  0  0  0  0  0  0  0
    1.5700   63.9800   78.3440 C   0  0  0  0  0  0  0  0  0  0  0  0
   -1.1980   59.1860   75.0020 O   0  0  0  0  0  0  0  0  0  0  0  0
   -1.9880   59.8020   73.9830 C   0  0  0  0  0  0  0  0  0  0  0  0
    2.6049   56.3097   72.7933 H   0  0  0  0  0  0  0  0  0  0  0  0
    1.0431   59.8523   76.1909 H   0  0  0  0  0  0  0  0  0  0  0  0
    1.3288   61.6337   77.5169 H   0  0  0  0  0  0  0  0  0  0  0  0
    1.6178   63.4571   72.6280 H   0  0  0  0  0  0  0  0  0  0  0  0
    1.0097   61.2603   71.2563 H   0  0  0  0  0  0  0  0  0  0  0  0
    1.4886   59.1358   71.1522 H   0  0  0  0  0  0  0  0  0  0  0  0
    3.1036   59.8106   70.6304 H   0  0  0  0  0  0  0  0  0  0  0  0
    3.7627   58.2038   72.1752 H   0  0  0  0  0  0  0  0  0  0  0  0
    3.6841   59.6364   73.2048 H   0  0  0  0  0  0  0  0  0  0  0  0
    3.7920   62.1586   72.2960 H   0  0  0  0  0  0  0  0  0  0  0  0
    4.8959   63.6730   71.2412 H   0  0  0  0  0  0  0  0  0  0  0  0
    5.2783   62.8523   69.6898 H   0  0  0  0  0  0  0  0  0  0  0  0
    4.3195   64.3713   69.6898 H   0  0  0  0  0  0  0  0  0  0  0  0
   -1.6792   57.0302   76.7699 H   0  0  0  0  0  0  0  0  0  0  0  0
   -2.0329   55.3063   76.4096 H   0  0  0  0  0  0  0  0  0  0  0  0
   -0.3355   55.8939   76.4096 H   0  0  0  0  0  0  0  0  0  0  0  0
    1.4186   54.0856   75.3334 H   0  0  0  0  0  0  0  0  0  0  0  0
    1.2617   53.0354   73.8846 H   0  0  0  0  0  0  0  0  0  0  0  0
    2.4339   54.3965   73.8846 H   0  0  0  0  0  0  0  0  0  0  0  0
    0.8775   64.5458   78.9846 H   0  0  0  0  0  0  0  0  0  0  0  0
    1.4664   62.9048   78.5520 H   0  0  0  0  0  0  0  0  0  0  0  0
    2.6029   64.2959   78.5520 H   0  0  0  0  0  0  0  0  0  0  0  0
   -2.7739   60.4148   74.4486 H   0  0  0  0  0  0  0  0  0  0  0  0
   -1.3468   60.4410   73.3580 H   0  0  0  0  0  0  0  0  0  0  0  0
   -2.4514   59.0244   73.3580 H   0  0  0  0  0  0  0  0  0  0  0  0
  2  1  2  0
  3  2  1  0
  4  3  2  0
  5  4  1  0
  6  5  1  0
  7  6  2  0
  8  7  1  0
  9  8  2  0
 10  9  1  0
 11 10  2  0
 12 10  1  0
 13 12  2  0
 13  6  1  0
 14 13  1  0
 15 14  1  0
 16 15  1  0
 16  4  1  0
 17  5  2  0
 17  1  1  0
 18 14  1  0
 19 18  1  0
 20 19  2  0
 21 19  1  0
 23 22  1  0
 23  1  1  0
 24  2  1  0
 25 24  1  0
 26  9  1  0
 27 26  1  0
 28 17  1  0
 29 28  1  0
  3 30  1  0
  7 31  1  0
  8 32  1  0
 12 33  1  0
 14 34  1  6
 15 35  1  0
 15 36  1  0
 16 37  1  0
 16 38  1  0
 18 39  1  0
 21 40  1  0
 21 41  1  0
 21 42  1  0
 22 43  1  0
 22 44  1  0
 22 45  1  0
 25 46  1  0
 25 47  1  0
 25 48  1  0
 27 49  1  0
 27 50  1  0
 27 51  1  0
 29 52  1  0
 29 53  1  0
 29 54  1  0
M  END
>  <score>  (4) 
-6.754

$$$$
=
     RDKit          3D

 54 56  0  0  0  0  0  0  0  0999 V2000
    2.9120   62.8190   70.8000 C   0  0  0  0  0  0  0  0  0  0  0  0
    2.0900   63.9170   71.0690 C   0  0  0  0  0  0  0  0  0  0  0  0
    1.1160   63.7860   72.0580 C   0  0  0  0  0  0  0  0  0  0  0  0
    0.9680   62.5880   72.7940 C   0  0  0  0  0  0  0  0  0  0  0  0
    1.8310   61.5000   72.5770 C   0  0  0  0  0  0  0  0  0  0  0  0
    1.8280   60.2640   73.4540 C   0  0  0  0  0  0  0  0  0  0  0  0
    3.0480   60.1230   74.0390 C   0  0  0  0  0  0  0  0  0  0  0  0
    3.6400   59.2260   74.8410 C   0  0  0  0  0  0  0  0  0  0  0  0
    3.2130   58.0000   75.1760 C   0  0  0  0  0  0  0  0  0  0  0  0
    2.0030   57.4450   74.4420 C   0  0  0  0  0  0  0  0  0  0  0  0
    2.0250   56.2910   74.0550 O   0  0  0  0  0  0  0  0  0  0  0  0
    0.7620   58.2330   74.1030 C   0  0  0  0  0  0  0  0  0  0  0  0
    0.7100   59.4940   73.6100 C   0  0  0  0  0  0  0  0  0  0  0  0
   -0.7560   59.9280   73.2790 C   0  0  2  0  0  0  0  0  0  0  0  0
   -1.1090   61.3810   72.9140 C   0  0  0  0  0  0  0  0  0  0  0  0
   -0.2570   62.4140   73.6440 C   0  0  0  0  0  0  0  0  0  0  0  0
    2.7570   61.6170   71.5100 C   0  0  0  0  0  0  0  0  0  0  0  0
   -1.5710   59.5980   74.4670 N   0  0  0  0  0  0  0  0  0  0  0  0
   -2.8830   59.9920   74.5880 C   0  0  0  0  0  0  0  0  0  0  0  0
   -3.4880   60.6140   73.7220 O   0  0  0  0  0  0  0  0  0  0  0  0
   -3.5210   59.6130   75.8970 C   0  0  0  0  0  0  0  0  0  0  0  0
    5.0800   63.3730   70.2940 C   0  0  0  0  0  0  0  0  0  0  0  0
    3.8380   62.8910   69.7840 O   0  0  0  0  0  0  0  0  0  0  0  0
    2.3030   65.0380   70.3130 O   0  0  0  0  0  0  0  0  0  0  0  0
    1.2180   65.9410   70.1550 C   0  0  0  0  0  0  0  0  0  0  0  0
    3.8130   57.1240   76.0560 O   0  0  0  0  0  0  0  0  0  0  0  0
    4.1630   57.5950   77.3500 C   0  0  0  0  0  0  0  0  0  0  0  0
    3.5880   60.5590   71.2020 O   0  0  0  0  0  0  0  0  0  0  0  0
    3.0980   59.8770   70.0470 C   0  0  0  0  0  0  0  0  0  0  0  0
    0.4478   64.6336   72.2704 H   0  0  0  0  0  0  0  0  0  0  0  0
    3.7203   60.9575   73.7909 H   0  0  0  0  0  0  0  0  0  0  0  0
    4.5995   59.5360   75.2806 H   0  0  0  0  0  0  0  0  0  0  0  0
   -0.2018   57.7312   74.2740 H   0  0  0  0  0  0  0  0  0  0  0  0
   -0.9452   59.3917   72.3374 H   0  0  0  0  0  0  0  0  0  0  0  0
   -0.9654   61.5131   71.8314 H   0  0  0  0  0  0  0  0  0  0  0  0
   -2.1527   61.5476   73.2189 H   0  0  0  0  0  0  0  0  0  0  0  0
   -0.8004   63.3659   73.7364 H   0  0  0  0  0  0  0  0  0  0  0  0
   -0.0056   62.0910   74.6650 H   0  0  0  0  0  0  0  0  0  0  0  0
   -1.1420   59.0548   75.2297 H   0  0  0  0  0  0  0  0  0  0  0  0
   -2.9008   59.9814   76.7274 H   0  0  0  0  0  0  0  0  0  0  0  0
   -4.5230   60.0624   75.9602 H   0  0  0  0  0  0  0  0  0  0  0  0
   -3.6056   58.5181   75.9602 H   0  0  0  0  0  0  0  0  0  0  0  0
    5.0536   63.3627   71.3936 H   0  0  0  0  0  0  0  0  0  0  0  0
    5.8970   62.7267   69.9408 H   0  0  0  0  0  0  0  0  0  0  0  0
    5.2471   64.4013   69.9408 H   0  0  0  0  0  0  0  0  0  0  0  0
    0.8493   66.2479   71.1449 H   0  0  0  0  0  0  0  0  0  0  0  0
    1.5568   66.8275   69.5989 H   0  0  0  0  0  0  0  0  0  0  0  0
    0.4077   65.4469   69.5989 H   0  0  0  0  0  0  0  0  0  0  0  0
    3.6900   56.9584   78.1122 H   0  0  0  0  0  0  0  0  0  0  0  0
    5.2559   57.5599   77.4698 H   0  0  0  0  0  0  0  0  0  0  0  0
    3.8141   58.6313   77.4698 H   0  0  0  0  0  0  0  0  0  0  0  0
    2.4827   59.0207   70.3603 H   0  0  0  0  0  0  0  0  0  0  0  0
    2.4875   60.5666   69.4455 H   0  0  0  0  0  0  0  0  0  0  0  0
    3.9463   59.5184   69.4455 H   0  0  0  0  0  0  0  0  0  0  0  0
  2  1  2  0
  3  2  1  0
  4  3  2  0
  5  4  1  0
  6  5  1  0
  7  6  2  0
  8  7  1  0
  9  8  2  0
 10  9  1  0
 11 10  2  0
 12 10  1  0
 13 12  2  0
 13  6  1  0
 14 13  1  0
 15 14  1  0
 16 15  1  0
 16  4  1  0
 17  5  2  0
 17  1  1  0
 18 14  1  0
 19 18  1  0
 20 19  2  0
 21 19  1  0
 23 22  1  0
 23  1  1  0
 24  2  1  0
 25 24  1  0
 26  9  1  0
 27 26  1  0
 28 17  1  0
 29 28  1  0
  3 30  1  0
  7 31  1  0
  8 32  1  0
 12 33  1  0
 14 34  1  6
 15 35  1  0
 15 36  1  0
 16 37  1  0
 16 38  1  0
 18 39  1  0
 21 40  1  0
 21 41  1  0
 21 42  1  0
 22 43  1  0
 22 44  1  0
 22 45  1  0
 25 46  1  0
 25 47  1  0
 25 48  1  0
 27 49  1  0
 27 50  1  0
 27 51  1  0
 29 52  1  0
 29 53  1  0
 29 54  1  0
M  END
>  <score>  (5) 
-6.563

$$$$
=
     RDKit          3D

 54 56  0  0  0  0  0  0  0  0999 V2000
    1.4830   62.4970   70.8070 C   0  0  0  0  0  0  0  0  0  0  0  0
    2.4670   61.5520   70.5030 C   0  0  0  0  0  0  0  0  0  0  0  0
    2.6630   60.4930   71.3900 C   0  0  0  0  0  0  0  0  0  0  0  0
    1.8760   60.3540   72.5560 C   0  0  0  0  0  0  0  0  0  0  0  0
    0.8400   61.2600   72.8380 C   0  0  0  0  0  0  0  0  0  0  0  0
   -0.1400   61.0570   73.9760 C   0  0  0  0  0  0  0  0  0  0  0  0
   -1.4010   60.9620   73.4740 C   0  0  0  0  0  0  0  0  0  0  0  0
   -2.6380   60.8390   73.9780 C   0  0  0  0  0  0  0  0  0  0  0  0
   -3.0350   60.9750   75.2510 C   0  0  0  0  0  0  0  0  0  0  0  0
   -2.0250   61.5060   76.2560 C   0  0  0  0  0  0  0  0  0  0  0  0
   -2.3790   62.3520   77.0580 O   0  0  0  0  0  0  0  0  0  0  0  0
   -0.5750   61.1000   76.3200 C   0  0  0  0  0  0  0  0  0  0  0  0
    0.2740   60.9500   75.2740 C   0  0  0  0  0  0  0  0  0  0  0  0
    1.7300   60.6290   75.7480 C   0  0  2  0  0  0  0  0  0  0  0  0
    2.8300   60.2010   74.7590 C   0  0  0  0  0  0  0  0  0  0  0  0
    2.3080   59.3620   73.5980 C   0  0  0  0  0  0  0  0  0  0  0  0
    0.7120   62.3780   71.9750 C   0  0  0  0  0  0  0  0  0  0  0  0
    1.6200   59.5340   76.7330 N   0  0  0  0  0  0  0  0  0  0  0  0
    2.4150   59.4740   77.8540 C   0  0  0  0  0  0  0  0  0  0  0  0
    3.2480   60.3250   78.1430 O   0  0  0  0  0  0  0  0  0  0  0  0
    2.1940   58.2500   78.7000 C   0  0  0  0  0  0  0  0  0  0  0  0
    2.2160   64.6250   70.3660 C   0  0  0  0  0  0  0  0  0  0  0  0
    1.3090   63.5910   69.9900 O   0  0  0  0  0  0  0  0  0  0  0  0
    3.1800   61.7630   69.3540 O   0  0  0  0  0  0  0  0  0  0  0  0
    4.3270   60.9550   69.1340 C   0  0  0  0  0  0  0  0  0  0  0  0
   -4.3060   60.7800   75.7490 O   0  0  0  0  0  0  0  0  0  0  0  0
   -5.3800   61.5110   75.1750 C   0  0  0  0  0  0  0  0  0  0  0  0
   -0.2430   63.3390   72.2340 O   0  0  0  0  0  0  0  0  0  0  0  0
    0.2440   64.2540   73.2180 C   0  0  0  0  0  0  0  0  0  0  0  0
    3.4464   59.7506   71.1775 H   0  0  0  0  0  0  0  0  0  0  0  0
   -1.4078   60.9943   72.3745 H   0  0  0  0  0  0  0  0  0  0  0  0
   -3.4286   60.5951   73.2531 H   0  0  0  0  0  0  0  0  0  0  0  0
   -0.1623   60.9049   77.3208 H   0  0  0  0  0  0  0  0  0  0  0  0
    2.0822   61.6151   76.0851 H   0  0  0  0  0  0  0  0  0  0  0  0
    3.3026   61.1062   74.3501 H   0  0  0  0  0  0  0  0  0  0  0  0
    3.5424   59.5755   75.3168 H   0  0  0  0  0  0  0  0  0  0  0  0
    3.1029   58.7113   73.2046 H   0  0  0  0  0  0  0  0  0  0  0  0
    1.4819   58.7041   73.9059 H   0  0  0  0  0  0  0  0  0  0  0  0
    0.9248   58.7905   76.5753 H   0  0  0  0  0  0  0  0  0  0  0  0
    2.2438   58.5256   79.7637 H   0  0  0  0  0  0  0  0  0  0  0  0
    1.2045   57.8242   78.4775 H   0  0  0  0  0  0  0  0  0  0  0  0
    2.9722   57.5051   78.4775 H   0  0  0  0  0  0  0  0  0  0  0  0
    2.2689   64.6853   71.4631 H   0  0  0  0  0  0  0  0  0  0  0  0
    3.2146   64.4014   69.9625 H   0  0  0  0  0  0  0  0  0  0  0  0
    1.8642   65.5860   69.9625 H   0  0  0  0  0  0  0  0  0  0  0  0
    4.7545   60.6539   70.1018 H   0  0  0  0  0  0  0  0  0  0  0  0
    4.0402   60.0584   68.5649 H   0  0  0  0  0  0  0  0  0  0  0  0
    5.0747   61.5269   68.5649 H   0  0  0  0  0  0  0  0  0  0  0  0
   -6.0037   61.9355   75.9754 H   0  0  0  0  0  0  0  0  0  0  0  0
   -4.9787   62.3243   74.5525 H   0  0  0  0  0  0  0  0  0  0  0  0
   -5.9894   60.8393   74.5525 H   0  0  0  0  0  0  0  0  0  0  0  0
    0.0335   63.8584   74.2226 H   0  0  0  0  0  0  0  0  0  0  0  0
    1.3295   64.3819   73.0944 H   0  0  0  0  0  0  0  0  0  0  0  0
   -0.2562   65.2259   73.0944 H   0  0  0  0  0  0  0  0  0  0  0  0
  2  1  2  0
  3  2  1  0
  4  3  2  0
  5  4  1  0
  6  5  1  0
  7  6  2  0
  8  7  1  0
  9  8  2  0
 10  9  1  0
 11 10  2  0
 12 10  1  0
 13 12  2  0
 13  6  1  0
 14 13  1  0
 15 14  1  0
 16 15  1  0
 16  4  1  0
 17  5  2  0
 17  1  1  0
 18 14  1  0
 19 18  1  0
 20 19  2  0
 21 19  1  0
 23 22  1  0
 23  1  1  0
 24  2  1  0
 25 24  1  0
 26  9  1  0
 27 26  1  0
 28 17  1  0
 29 28  1  0
  3 30  1  0
  7 31  1  0
  8 32  1  0
 12 33  1  0
 14 34  1  1
 15 35  1  0
 15 36  1  0
 16 37  1  0
 16 38  1  0
 18 39  1  0
 21 40  1  0
 21 41  1  0
 21 42  1  0
 22 43  1  0
 22 44  1  0
 22 45  1  0
 25 46  1  0
 25 47  1  0
 25 48  1  0
 27 49  1  0
 27 50  1  0
 27 51  1  0
 29 52  1  0
 29 53  1  0
 29 54  1  0
M  END
>  <score>  (6) 
-6.454

$$$$
=
     RDKit          3D

 54 56  0  0  0  0  0  0  0  0999 V2000
    3.9770   67.7940   62.1630 C   0  0  0  0  0  0  0  0  0  0  0  0
    3.2600   68.4100   61.1330 C   0  0  0  0  0  0  0  0  0  0  0  0
    2.0720   69.0650   61.4550 C   0  0  0  0  0  0  0  0  0  0  0  0
    1.6060   69.1340   62.7890 C   0  0  0  0  0  0  0  0  0  0  0  0
    2.3510   68.5770   63.8410 C   0  0  0  0  0  0  0  0  0  0  0  0
    1.9870   68.7740   65.2990 C   0  0  0  0  0  0  0  0  0  0  0  0
    3.0070   69.4070   65.9370 C   0  0  0  0  0  0  0  0  0  0  0  0
    3.2760   69.7870   67.1950 C   0  0  0  0  0  0  0  0  0  0  0  0
    2.6320   69.4500   68.3210 C   0  0  0  0  0  0  0  0  0  0  0  0
    1.5680   68.3680   68.2330 C   0  0  0  0  0  0  0  0  0  0  0  0
    1.5350   67.5010   69.0880 O   0  0  0  0  0  0  0  0  0  0  0  0
    0.5510   68.2440   67.1270 C   0  0  0  0  0  0  0  0  0  0  0  0
    0.7750   68.3850   65.7980 C   0  0  0  0  0  0  0  0  0  0  0  0
   -0.5050   68.0710   64.9550 C   0  0  2  0  0  0  0  0  0  0  0  0
   -0.5760   68.3660   63.4460 C   0  0  0  0  0  0  0  0  0  0  0  0
    0.2030   69.6100   63.0340 C   0  0  0  0  0  0  0  0  0  0  0  0
    3.5090   67.8390   63.4870 C   0  0  0  0  0  0  0  0  0  0  0  0
   -1.6110   68.8330   65.5710 N   0  0  0  0  0  0  0  0  0  0  0  0
   -2.6410   68.2160   66.2430 C   0  0  0  0  0  0  0  0  0  0  0  0
   -2.7130   67.0040   66.4120 O   0  0  0  0  0  0  0  0  0  0  0  0
   -3.7010   69.1590   66.7440 C   0  0  0  0  0  0  0  0  0  0  0  0
    6.2660   67.8000   62.3180 C   0  0  0  0  0  0  0  0  0  0  0  0
    5.1170   67.0810   61.8720 O   0  0  0  0  0  0  0  0  0  0  0  0
    3.7840   68.2960   59.8740 O   0  0  0  0  0  0  0  0  0  0  0  0
    3.7980   69.4600   59.0590 C   0  0  0  0  0  0  0  0  0  0  0  0
    2.8930   69.9080   69.5950 O   0  0  0  0  0  0  0  0  0  0  0  0
    3.9280   70.8660   69.7730 C   0  0  0  0  0  0  0  0  0  0  0  0
    4.2490   67.2100   64.4680 O   0  0  0  0  0  0  0  0  0  0  0  0
    3.8790   65.8330   64.5480 C   0  0  0  0  0  0  0  0  0  0  0  0
    1.4844   69.5383   60.6545 H   0  0  0  0  0  0  0  0  0  0  0  0
    3.8187   69.6762   65.2452 H   0  0  0  0  0  0  0  0  0  0  0  0
    4.1357   70.4620   67.3183 H   0  0  0  0  0  0  0  0  0  0  0  0
   -0.4812   68.0150   67.4307 H   0  0  0  0  0  0  0  0  0  0  0  0
   -0.5335   66.9718   64.9848 H   0  0  0  0  0  0  0  0  0  0  0  0
   -0.1660   67.5021   62.9023 H   0  0  0  0  0  0  0  0  0  0  0  0
   -1.6326   68.5490   63.2007 H   0  0  0  0  0  0  0  0  0  0  0  0
   -0.2221   70.0452   62.1175 H   0  0  0  0  0  0  0  0  0  0  0  0
    0.1638   70.3933   63.8053 H   0  0  0  0  0  0  0  0  0  0  0  0
   -1.6109   69.8602   65.4948 H   0  0  0  0  0  0  0  0  0  0  0  0
   -3.7013   69.1593   67.8440 H   0  0  0  0  0  0  0  0  0  0  0  0
   -3.4914   70.1746   66.3771 H   0  0  0  0  0  0  0  0  0  0  0  0
   -4.6853   68.8325   66.3771 H   0  0  0  0  0  0  0  0  0  0  0  0
    6.2865   67.8128   63.4177 H   0  0  0  0  0  0  0  0  0  0  0  0
    7.1751   67.3094   61.9400 H   0  0  0  0  0  0  0  0  0  0  0  0
    6.2222   68.8321   61.9400 H   0  0  0  0  0  0  0  0  0  0  0  0
    3.8088   70.3551   59.6983 H   0  0  0  0  0  0  0  0  0  0  0  0
    4.6961   69.4522   58.4239 H   0  0  0  0  0  0  0  0  0  0  0  0
    2.9000   69.4738   58.4239 H   0  0  0  0  0  0  0  0  0  0  0  0
    4.0997   71.0249   70.8478 H   0  0  0  0  0  0  0  0  0  0  0  0
    4.8527   70.4981   69.3044 H   0  0  0  0  0  0  0  0  0  0  0  0
    3.6325   71.8163   69.3044 H   0  0  0  0  0  0  0  0  0  0  0  0
    3.7991   65.5356   65.6040 H   0  0  0  0  0  0  0  0  0  0  0  0
    2.9091   65.6845   64.0508 H   0  0  0  0  0  0  0  0  0  0  0  0
    4.6438   65.2183   64.0508 H   0  0  0  0  0  0  0  0  0  0  0  0
  2  1  2  0
  3  2  1  0
  4  3  2  0
  5  4  1  0
  6  5  1  0
  7  6  2  0
  8  7  1  0
  9  8  2  0
 10  9  1  0
 11 10  2  0
 12 10  1  0
 13 12  2  0
 13  6  1  0
 14 13  1  0
 15 14  1  0
 16 15  1  0
 16  4  1  0
 17  5  2  0
 17  1  1  0
 18 14  1  0
 19 18  1  0
 20 19  2  0
 21 19  1  0
 23 22  1  0
 23  1  1  0
 24  2  1  0
 25 24  1  0
 26  9  1  0
 27 26  1  0
 28 17  1  0
 29 28  1  0
  3 30  1  0
  7 31  1  0
  8 32  1  0
 12 33  1  0
 14 34  1  6
 15 35  1  0
 15 36  1  0
 16 37  1  0
 16 38  1  0
 18 39  1  0
 21 40  1  0
 21 41  1  0
 21 42  1  0
 22 43  1  0
 22 44  1  0
 22 45  1  0
 25 46  1  0
 25 47  1  0
 25 48  1  0
 27 49  1  0
 27 50  1  0
 27 51  1  0
 29 52  1  0
 29 53  1  0
 29 54  1  0
M  END
>  <score>  (7) 
-4.527

$$$$
