=
     RDKit          3D

 19 19  0  0  0  0  0  0  0  0999 V2000
    4.3760   64.8420   63.0220 O   0  0  0  0  0  0  0  0  0  0  0  0
    4.1220   66.0360   62.9700 C   0  0  0  0  0  0  0  0  0  0  0  0
    4.6630   66.8700   62.0350 O   0  0  0  0  0  0  0  0  0  0  0  0
    4.1890   68.2050   62.2680 C   0  0  0  0  0  0  0  0  0  0  0  0
    3.3400   68.0460   63.5080 C   0  0  0  0  0  0  0  0  0  0  0  0
    2.7970   68.9480   64.1250 O   0  0  0  0  0  0  0  0  0  0  0  0
    3.3090   66.7230   63.8000 N   0  0  0  0  0  0  0  0  0  0  0  0
    2.6380   66.1490   64.9360 C   0  0  0  0  0  0  0  0  0  0  0  0
    5.3740   69.1220   62.5210 C   0  0  0  0  0  0  0  0  0  0  0  0
    3.3450   68.6480   61.0820 C   0  0  0  0  0  0  0  0  0  0  0  0
    3.0892   66.5350   65.8620 H   0  0  0  0  0  0  0  0  0  0  0  0
    1.5721   66.4191   64.9073 H   0  0  0  0  0  0  0  0  0  0  0  0
    2.7397   65.0541   64.9073 H   0  0  0  0  0  0  0  0  0  0  0  0
    5.5234   69.2376   63.6047 H   0  0  0  0  0  0  0  0  0  0  0  0
    6.2779   68.6858   62.0707 H   0  0  0  0  0  0  0  0  0  0  0  0
    5.1786   70.1064   62.0707 H   0  0  0  0  0  0  0  0  0  0  0  0
    2.4259   69.1304   61.4459 H   0  0  0  0  0  0  0  0  0  0  0  0
    3.9169   69.3622   60.4714 H   0  0  0  0  0  0  0  0  0  0  0  0
    3.0821   67.7717   60.4714 H   0  0  0  0  0  0  0  0  0  0  0  0
  2  1  2  0
  3  2  1  0
  4  3  1  0
  5  4  1  0
  6  5  2  0
  7  5  1  0
  7  2  1  0
  8  7  1  0
  9  4  1  0
 10  4  1  0
  8 11  1  0
  8 12  1  0
  8 13  1  0
  9 14  1  0
  9 15  1  0
  9 16  1  0
 10 17  1  0
 10 18  1  0
 10 19  1  0
M  END
>  <score>  (1) 
-5.588

$$$$
=
     RDKit          3D

 19 19  0  0  0  0  0  0  0  0999 V2000
    4.8880   65.9610   62.6620 O   0  0  0  0  0  0  0  0  0  0  0  0
    4.0850   66.4990   63.4090 C   0  0  0  0  0  0  0  0  0  0  0  0
    3.8660   67.8460   63.4160 O   0  0  0  0  0  0  0  0  0  0  0  0
    2.8930   68.1560   64.4260 C   0  0  0  0  0  0  0  0  0  0  0  0
    2.6170   66.8080   65.0490 C   0  0  0  0  0  0  0  0  0  0  0  0
    1.9050   66.5990   66.0180 O   0  0  0  0  0  0  0  0  0  0  0  0
    3.3140   65.8910   64.3350 N   0  0  0  0  0  0  0  0  0  0  0  0
    3.3570   64.4830   64.6280 C   0  0  0  0  0  0  0  0  0  0  0  0
    3.5020   69.1190   65.4320 C   0  0  0  0  0  0  0  0  0  0  0  0
    1.6440   68.7150   63.7590 C   0  0  0  0  0  0  0  0  0  0  0  0
    3.3615   64.3353   65.7180 H   0  0  0  0  0  0  0  0  0  0  0  0
    2.4735   63.9912   64.1950 H   0  0  0  0  0  0  0  0  0  0  0  0
    4.2689   64.0461   64.1950 H   0  0  0  0  0  0  0  0  0  0  0  0
    3.2820   68.7712   66.4521 H   0  0  0  0  0  0  0  0  0  0  0  0
    4.5914   69.1613   65.2860 H   0  0  0  0  0  0  0  0  0  0  0  0
    3.0733   70.1214   65.2860 H   0  0  0  0  0  0  0  0  0  0  0  0
    0.9284   69.0353   64.5306 H   0  0  0  0  0  0  0  0  0  0  0  0
    1.9174   69.5766   63.1322 H   0  0  0  0  0  0  0  0  0  0  0  0
    1.1836   67.9370   63.1322 H   0  0  0  0  0  0  0  0  0  0  0  0
  2  1  2  0
  3  2  1  0
  4  3  1  0
  5  4  1  0
  6  5  2  0
  7  5  1  0
  7  2  1  0
  8  7  1  0
  9  4  1  0
 10  4  1  0
  8 11  1  0
  8 12  1  0
  8 13  1  0
  9 14  1  0
  9 15  1  0
  9 16  1  0
 10 17  1  0
 10 18  1  0
 10 19  1  0
M  END
>  <score>  (2) 
-5.524

$$$$
=
     RDKit          3D

 19 19  0  0  0  0  0  0  0  0999 V2000
    1.2220   66.4530   65.3910 O   0  0  0  0  0  0  0  0  0  0  0  0
    2.1360   66.7950   64.6560 C   0  0  0  0  0  0  0  0  0  0  0  0
    2.2280   68.0460   64.1190 O   0  0  0  0  0  0  0  0  0  0  0  0
    3.3930   68.1120   63.2820 C   0  0  0  0  0  0  0  0  0  0  0  0
    3.9380   66.7060   63.3580 C   0  0  0  0  0  0  0  0  0  0  0  0
    4.8890   66.2710   62.7280 O   0  0  0  0  0  0  0  0  0  0  0  0
    3.1690   66.0300   64.2450 N   0  0  0  0  0  0  0  0  0  0  0  0
    3.3300   64.6380   64.5780 C   0  0  0  0  0  0  0  0  0  0  0  0
    2.9740   68.4690   61.8650 C   0  0  0  0  0  0  0  0  0  0  0  0
    4.3750   69.1120   63.8740 C   0  0  0  0  0  0  0  0  0  0  0  0
    3.3434   64.5218   65.6718 H   0  0  0  0  0  0  0  0  0  0  0  0
    2.4926   64.0613   64.1583 H   0  0  0  0  0  0  0  0  0  0  0  0
    4.2770   64.2677   64.1583 H   0  0  0  0  0  0  0  0  0  0  0  0
    2.1371   69.1821   61.8988 H   0  0  0  0  0  0  0  0  0  0  0  0
    3.8233   68.9253   61.3354 H   0  0  0  0  0  0  0  0  0  0  0  0
    2.6584   67.5580   61.3354 H   0  0  0  0  0  0  0  0  0  0  0  0
    4.3289   69.0651   64.9720 H   0  0  0  0  0  0  0  0  0  0  0  0
    5.3939   68.8677   63.5390 H   0  0  0  0  0  0  0  0  0  0  0  0
    4.1122   70.1263   63.5390 H   0  0  0  0  0  0  0  0  0  0  0  0
  2  1  2  0
  3  2  1  0
  4  3  1  0
  5  4  1  0
  6  5  2  0
  7  5  1  0
  7  2  1  0
  8  7  1  0
  9  4  1  0
 10  4  1  0
  8 11  1  0
  8 12  1  0
  8 13  1  0
  9 14  1  0
  9 15  1  0
  9 16  1  0
 10 17  1  0
 10 18  1  0
 10 19  1  0
M  END
>  <score>  (3) 
-5.515

$$$$
=
     RDKit          3D

 19 19  0  0  0  0  0  0  0  0999 V2000
    2.6730   69.0530   60.8920 O   0  0  0  0  0  0  0  0  0  0  0  0
    2.4200   68.7680   62.0530 C   0  0  0  0  0  0  0  0  0  0  0  0
    3.3570   68.2880   62.9200 O   0  0  0  0  0  0  0  0  0  0  0  0
    2.7320   68.0240   64.1860 C   0  0  0  0  0  0  0  0  0  0  0  0
    1.2840   68.3620   63.9200 C   0  0  0  0  0  0  0  0  0  0  0  0
    0.3570   68.2080   64.6990 O   0  0  0  0  0  0  0  0  0  0  0  0
    1.2180   68.8560   62.6600 N   0  0  0  0  0  0  0  0  0  0  0  0
    0.0040   69.2620   62.0010 C   0  0  0  0  0  0  0  0  0  0  0  0
    2.9040   66.5550   64.5350 C   0  0  0  0  0  0  0  0  0  0  0  0
    3.3250   68.9520   65.2370 C   0  0  0  0  0  0  0  0  0  0  0  0
   -0.7554   69.5160   62.7553 H   0  0  0  0  0  0  0  0  0  0  0  0
    0.2048   70.1419   61.3721 H   0  0  0  0  0  0  0  0  0  0  0  0
   -0.3649   68.4383   61.3721 H   0  0  0  0  0  0  0  0  0  0  0  0
    2.9178   66.4371   65.6286 H   0  0  0  0  0  0  0  0  0  0  0  0
    2.0673   65.9778   64.1145 H   0  0  0  0  0  0  0  0  0  0  0  0
    3.8514   66.1867   64.1145 H   0  0  0  0  0  0  0  0  0  0  0  0
    3.0823   68.5722   66.2404 H   0  0  0  0  0  0  0  0  0  0  0  0
    4.4174   68.9936   65.1150 H   0  0  0  0  0  0  0  0  0  0  0  0
    2.9038   69.9608   65.1150 H   0  0  0  0  0  0  0  0  0  0  0  0
  2  1  2  0
  3  2  1  0
  4  3  1  0
  5  4  1  0
  6  5  2  0
  7  5  1  0
  7  2  1  0
  8  7  1  0
  9  4  1  0
 10  4  1  0
  8 11  1  0
  8 12  1  0
  8 13  1  0
  9 14  1  0
  9 15  1  0
  9 16  1  0
 10 17  1  0
 10 18  1  0
 10 19  1  0
M  END
>  <score>  (4) 
-5.258

$$$$
=
     RDKit          3D

 19 19  0  0  0  0  0  0  0  0999 V2000
    0.7870   67.6090   64.9330 O   0  0  0  0  0  0  0  0  0  0  0  0
    1.6170   67.8470   64.0700 C   0  0  0  0  0  0  0  0  0  0  0  0
    2.9560   67.6550   64.2540 O   0  0  0  0  0  0  0  0  0  0  0  0
    3.6540   68.0600   63.0660 C   0  0  0  0  0  0  0  0  0  0  0  0
    2.5410   68.5720   62.1820 C   0  0  0  0  0  0  0  0  0  0  0  0
    2.6780   69.1010   61.0900 O   0  0  0  0  0  0  0  0  0  0  0  0
    1.3770   68.3380   62.8360 N   0  0  0  0  0  0  0  0  0  0  0  0
    0.0750   68.7150   62.3520 C   0  0  0  0  0  0  0  0  0  0  0  0
    4.6390   69.1650   63.4140 C   0  0  0  0  0  0  0  0  0  0  0  0
    4.3280   66.8450   62.4470 C   0  0  0  0  0  0  0  0  0  0  0  0
   -0.5917   68.9080   63.2054 H   0  0  0  0  0  0  0  0  0  0  0  0
    0.1606   69.6253   61.7404 H   0  0  0  0  0  0  0  0  0  0  0  0
   -0.3390   67.8998   61.7404 H   0  0  0  0  0  0  0  0  0  0  0  0
    4.7186   69.2543   64.5075 H   0  0  0  0  0  0  0  0  0  0  0  0
    5.6259   68.9224   62.9931 H   0  0  0  0  0  0  0  0  0  0  0  0
    4.2850   70.1177   62.9931 H   0  0  0  0  0  0  0  0  0  0  0  0
    4.6952   66.1831   63.2451 H   0  0  0  0  0  0  0  0  0  0  0  0
    3.6027   66.3010   61.8241 H   0  0  0  0  0  0  0  0  0  0  0  0
    5.1735   67.1723   61.8241 H   0  0  0  0  0  0  0  0  0  0  0  0
  2  1  2  0
  3  2  1  0
  4  3  1  0
  5  4  1  0
  6  5  2  0
  7  5  1  0
  7  2  1  0
  8  7  1  0
  9  4  1  0
 10  4  1  0
  8 11  1  0
  8 12  1  0
  8 13  1  0
  9 14  1  0
  9 15  1  0
  9 16  1  0
 10 17  1  0
 10 18  1  0
 10 19  1  0
M  END
>  <score>  (5) 
-5.239

$$$$
=
     RDKit          3D

 19 19  0  0  0  0  0  0  0  0999 V2000
    4.0120   59.2960   69.1490 O   0  0  0  0  0  0  0  0  0  0  0  0
    3.8710   60.2740   69.8670 C   0  0  0  0  0  0  0  0  0  0  0  0
    3.8930   61.5530   69.3920 O   0  0  0  0  0  0  0  0  0  0  0  0
    3.7320   62.4630   70.4900 C   0  0  0  0  0  0  0  0  0  0  0  0
    3.6720   61.5390   71.6840 C   0  0  0  0  0  0  0  0  0  0  0  0
    3.6230   61.8830   72.8540 O   0  0  0  0  0  0  0  0  0  0  0  0
    3.6910   60.2720   71.2050 N   0  0  0  0  0  0  0  0  0  0  0  0
    3.6900   59.0860   72.0210 C   0  0  0  0  0  0  0  0  0  0  0  0
    4.9400   63.3840   70.5620 C   0  0  0  0  0  0  0  0  0  0  0  0
    2.4240   63.2220   70.3200 C   0  0  0  0  0  0  0  0  0  0  0  0
    3.6902   59.3718   73.0832 H   0  0  0  0  0  0  0  0  0  0  0  0
    2.7914   58.4908   71.8016 H   0  0  0  0  0  0  0  0  0  0  0  0
    4.5876   58.4892   71.8016 H   0  0  0  0  0  0  0  0  0  0  0  0
    5.1922   63.5763   71.6153 H   0  0  0  0  0  0  0  0  0  0  0  0
    5.7953   62.9067   70.0614 H   0  0  0  0  0  0  0  0  0  0  0  0
    4.7062   64.3352   70.0614 H   0  0  0  0  0  0  0  0  0  0  0  0
    2.0086   63.4630   71.3096 H   0  0  0  0  0  0  0  0  0  0  0  0
    2.6097   64.1526   69.7637 H   0  0  0  0  0  0  0  0  0  0  0  0
    1.7082   62.5990   69.7637 H   0  0  0  0  0  0  0  0  0  0  0  0
  2  1  2  0
  3  2  1  0
  4  3  1  0
  5  4  1  0
  6  5  2  0
  7  5  1  0
  7  2  1  0
  8  7  1  0
  9  4  1  0
 10  4  1  0
  8 11  1  0
  8 12  1  0
  8 13  1  0
  9 14  1  0
  9 15  1  0
  9 16  1  0
 10 17  1  0
 10 18  1  0
 10 19  1  0
M  END
>  <score>  (6) 
-5.158

$$$$
=
     RDKit          3D

 19 19  0  0  0  0  0  0  0  0999 V2000
    1.7800   66.6890   64.7730 O   0  0  0  0  0  0  0  0  0  0  0  0
    1.1320   67.2190   65.6630 C   0  0  0  0  0  0  0  0  0  0  0  0
   -0.0830   66.7540   66.0740 O   0  0  0  0  0  0  0  0  0  0  0  0
   -0.5890   67.6160   67.1050 C   0  0  0  0  0  0  0  0  0  0  0  0
    0.4740   68.6850   67.1980 C   0  0  0  0  0  0  0  0  0  0  0  0
    0.4250   69.6860   67.8960 O   0  0  0  0  0  0  0  0  0  0  0  0
    1.4750   68.3230   66.3600 N   0  0  0  0  0  0  0  0  0  0  0  0
    2.6660   69.0950   66.1220 C   0  0  0  0  0  0  0  0  0  0  0  0
   -1.9230   68.1970   66.6650 C   0  0  0  0  0  0  0  0  0  0  0  0
   -0.6900   66.8310   68.4050 C   0  0  0  0  0  0  0  0  0  0  0  0
    3.1134   69.3850   67.0842 H   0  0  0  0  0  0  0  0  0  0  0  0
    3.3860   68.4914   65.5500 H   0  0  0  0  0  0  0  0  0  0  0  0
    2.4090   69.9987   65.5500 H   0  0  0  0  0  0  0  0  0  0  0  0
   -2.5200   68.4570   67.5516 H   0  0  0  0  0  0  0  0  0  0  0  0
   -1.7485   69.1006   66.0625 H   0  0  0  0  0  0  0  0  0  0  0  0
   -2.4658   67.4538   66.0625 H   0  0  0  0  0  0  0  0  0  0  0  0
   -0.6013   67.5205   69.2575 H   0  0  0  0  0  0  0  0  0  0  0  0
   -1.6617   66.3172   68.4485 H   0  0  0  0  0  0  0  0  0  0  0  0
    0.1199   66.0880   68.4485 H   0  0  0  0  0  0  0  0  0  0  0  0
  2  1  2  0
  3  2  1  0
  4  3  1  0
  5  4  1  0
  6  5  2  0
  7  5  1  0
  7  2  1  0
  8  7  1  0
  9  4  1  0
 10  4  1  0
  8 11  1  0
  8 12  1  0
  8 13  1  0
  9 14  1  0
  9 15  1  0
  9 16  1  0
 10 17  1  0
 10 18  1  0
 10 19  1  0
M  END
>  <score>  (7) 
-5.131

$$$$
=
     RDKit          3D

 19 19  0  0  0  0  0  0  0  0999 V2000
    0.9770   61.9090   71.8040 O   0  0  0  0  0  0  0  0  0  0  0  0
    2.0510   61.8770   71.2240 C   0  0  0  0  0  0  0  0  0  0  0  0
    2.5400   62.9320   70.5090 O   0  0  0  0  0  0  0  0  0  0  0  0
    3.8000   62.5600   69.9300 C   0  0  0  0  0  0  0  0  0  0  0  0
    3.9530   61.1200   70.3570 C   0  0  0  0  0  0  0  0  0  0  0  0
    4.8490   60.3630   70.0190 O   0  0  0  0  0  0  0  0  0  0  0  0
    2.9070   60.8350   71.1720 N   0  0  0  0  0  0  0  0  0  0  0  0
    2.6560   59.5480   71.7650 C   0  0  0  0  0  0  0  0  0  0  0  0
    3.7140   62.6840   68.4170 C   0  0  0  0  0  0  0  0  0  0  0  0
    4.8980   63.4270   70.5280 C   0  0  0  0  0  0  0  0  0  0  0  0
    2.6739   59.6395   72.8610 H   0  0  0  0  0  0  0  0  0  0  0  0
    1.6696   59.1823   71.4436 H   0  0  0  0  0  0  0  0  0  0  0  0
    3.4327   58.8384   71.4436 H   0  0  0  0  0  0  0  0  0  0  0  0
    3.1051   63.5619   68.1551 H   0  0  0  0  0  0  0  0  0  0  0  0
    4.7253   62.8018   68.0007 H   0  0  0  0  0  0  0  0  0  0  0  0
    3.2493   61.7781   68.0007 H   0  0  0  0  0  0  0  0  0  0  0  0
    4.8427   63.3833   71.6257 H   0  0  0  0  0  0  0  0  0  0  0  0
    5.8792   63.0574   70.1953 H   0  0  0  0  0  0  0  0  0  0  0  0
    4.7660   64.4671   70.1953 H   0  0  0  0  0  0  0  0  0  0  0  0
  2  1  2  0
  3  2  1  0
  4  3  1  0
  5  4  1  0
  6  5  2  0
  7  5  1  0
  7  2  1  0
  8  7  1  0
  9  4  1  0
 10  4  1  0
  8 11  1  0
  8 12  1  0
  8 13  1  0
  9 14  1  0
  9 15  1  0
  9 16  1  0
 10 17  1  0
 10 18  1  0
 10 19  1  0
M  END
>  <score>  (8) 
-5.1

$$$$
=
     RDKit          3D

 19 19  0  0  0  0  0  0  0  0999 V2000
   -0.1680   66.8510   66.5170 O   0  0  0  0  0  0  0  0  0  0  0  0
    0.7820   67.3740   65.9540 C   0  0  0  0  0  0  0  0  0  0  0  0
    1.2220   66.9830   64.7230 O   0  0  0  0  0  0  0  0  0  0  0  0
    2.3680   67.7720   64.3640 C   0  0  0  0  0  0  0  0  0  0  0  0
    2.5720   68.6390   65.5840 C   0  0  0  0  0  0  0  0  0  0  0  0
    3.4950   69.4180   65.7640 O   0  0  0  0  0  0  0  0  0  0  0  0
    1.5470   68.3780   66.4320 N   0  0  0  0  0  0  0  0  0  0  0  0
    1.3900   68.9690   67.7350 C   0  0  0  0  0  0  0  0  0  0  0  0
    3.5570   66.8540   64.1300 C   0  0  0  0  0  0  0  0  0  0  0  0
    2.0280   68.6160   63.1450 C   0  0  0  0  0  0  0  0  0  0  0  0
    1.5911   68.2122   68.5075 H   0  0  0  0  0  0  0  0  0  0  0  0
    2.0975   69.8038   67.8466 H   0  0  0  0  0  0  0  0  0  0  0  0
    0.3614   69.3426   67.8466 H   0  0  0  0  0  0  0  0  0  0  0  0
    3.9701   66.5350   65.0983 H   0  0  0  0  0  0  0  0  0  0  0  0
    3.2317   65.9705   63.5612 H   0  0  0  0  0  0  0  0  0  0  0  0
    4.3295   67.3923   63.5612 H   0  0  0  0  0  0  0  0  0  0  0  0
    1.6355   69.5903   63.4715 H   0  0  0  0  0  0  0  0  0  0  0  0
    2.9344   68.7696   62.5410 H   0  0  0  0  0  0  0  0  0  0  0  0
    1.2682   68.0984   62.5410 H   0  0  0  0  0  0  0  0  0  0  0  0
  2  1  2  0
  3  2  1  0
  4  3  1  0
  5  4  1  0
  6  5  2  0
  7  5  1  0
  7  2  1  0
  8  7  1  0
  9  4  1  0
 10  4  1  0
  8 11  1  0
  8 12  1  0
  8 13  1  0
  9 14  1  0
  9 15  1  0
  9 16  1  0
 10 17  1  0
 10 18  1  0
 10 19  1  0
M  END
>  <score>  (9) 
-5.032

$$$$
