=
     RDKit          3D

118121  0  0  0  0  0  0  0  0999 V2000
    3.6940   62.1960   70.0720 C   0  0  0  0  0  0  0  0  0  0  0  0
    3.7670   61.9620   68.8640 O   0  0  0  0  0  0  0  0  0  0  0  0
    3.6060   61.1760   71.0090 N   0  0  0  0  0  0  0  0  0  0  0  0
    3.5850   59.8010   70.5120 C   0  0  0  0  0  0  0  0  0  0  0  0
    3.2560   58.7690   71.5950 C   0  0  0  0  0  0  0  0  0  0  0  0
    2.1110   59.2790   72.4830 C   0  0  0  0  0  0  0  0  0  0  0  0
    2.4910   60.6270   73.1440 C   0  0  0  0  0  0  0  0  0  0  0  0
    3.6590   61.3390   72.4580 C   0  0  0  0  0  0  0  0  0  0  0  0
    1.5770   58.2550   73.5210 C   0  0  0  0  0  0  0  0  0  0  0  0
    1.4270   56.8460   72.9250 C   0  0  0  0  0  0  0  0  0  0  0  0
    0.8090   55.8940   73.9480 C   0  0  0  0  0  0  0  0  0  0  0  0
    1.4710   55.9400   75.2520 N   0  0  0  0  0  0  0  0  0  0  0  0
    2.6420   56.8030   75.3660 C   0  0  0  0  0  0  0  0  0  0  0  0
    2.3640   58.2170   74.8500 C   0  0  0  0  0  0  0  0  0  0  0  0
    1.1240   55.1110   76.3120 C   0  0  0  0  0  0  0  0  0  0  0  0
    1.7580   55.0810   77.3710 O   0  0  0  0  0  0  0  0  0  0  0  0
   -0.1040   54.2240   76.1080 C   0  0  0  0  0  0  0  0  0  0  0  0
   -1.3000   54.6970   76.9400 C   0  0  0  0  0  0  0  0  0  0  0  0
   -2.4370   55.2460   76.0660 C   0  0  0  0  0  0  0  0  0  0  0  0
   -2.1390   56.6360   75.4950 C   0  0  0  0  0  0  0  0  0  0  0  0
   -3.2810   57.6180   75.7710 C   0  0  0  0  0  0  0  0  0  0  0  0
   -2.9440   59.0350   75.3520 N   0  0  2  0  0  4  0  0  0  0  0  0
   -4.1000   59.8810   74.8580 C   0  0  0  0  0  0  0  0  0  0  0  0
   -5.3900   59.0840   74.8030 C   0  0  0  0  0  0  0  0  0  0  0  0
   -1.7590   59.0850   74.3990 C   0  0  0  0  0  0  0  0  0  0  0  0
   -1.1700   60.4650   74.2510 C   0  0  0  0  0  0  0  0  0  0  0  0
   -1.1560   61.0750   72.9840 C   0  0  0  0  0  0  0  0  0  0  0  0
   -0.6080   62.3450   72.8170 C   0  0  0  0  0  0  0  0  0  0  0  0
   -0.0660   63.0140   73.9090 C   0  0  0  0  0  0  0  0  0  0  0  0
   -0.0690   62.4180   75.1720 C   0  0  0  0  0  0  0  0  0  0  0  0
   -0.6200   61.1470   75.3530 C   0  0  0  0  0  0  0  0  0  0  0  0
   -0.6500   60.4720   76.5460 O   0  0  0  0  0  0  0  0  0  0  0  0
    0.4780   60.6250   77.4050 C   0  0  0  0  0  0  0  0  0  0  0  0
    3.7070   63.6270   70.5950 C   0  0  0  0  0  0  0  0  0  0  0  0
    2.6430   64.5200   69.9450 C   0  0  0  0  0  0  0  0  0  0  0  0
    1.3050   64.5230   70.6960 C   0  0  0  0  0  0  0  0  0  0  0  0
    0.4400   65.7150   70.2680 C   0  0  0  0  0  0  0  0  0  0  0  0
    1.2370   66.8330   69.5920 C   0  0  0  0  0  0  0  0  0  0  0  0
    0.6240   67.2420   68.2700 N   0  0  1  0  0  4  0  0  0  0  0  0
   -0.8290   66.8210   68.1480 C   0  0  0  0  0  0  0  0  0  0  0  0
   -1.5310   67.6480   67.0840 C   0  0  0  0  0  0  0  0  0  0  0  0
    0.7880   68.7350   68.0130 C   0  0  0  0  0  0  0  0  0  0  0  0
    2.5820   68.7140   66.2130 C   0  0  0  0  0  0  0  0  0  0  0  0
    3.8660   69.0570   65.7800 C   0  0  0  0  0  0  0  0  0  0  0  0
    4.7220   69.7820   66.6100 C   0  0  0  0  0  0  0  0  0  0  0  0
    4.3060   70.1720   67.8790 C   0  0  0  0  0  0  0  0  0  0  0  0
    3.0300   69.8310   68.3250 C   0  0  0  0  0  0  0  0  0  0  0  0
    2.1580   69.0970   67.4980 C   0  0  0  0  0  0  0  0  0  0  0  0
    2.1920   66.9240   64.6840 C   0  0  0  0  0  0  0  0  0  0  0  0
    1.6780   67.9930   65.4780 O   0  0  0  0  0  0  0  0  0  0  0  0
    2.8264   59.7283   69.7188 H   0  0  0  0  0  0  0  0  0  0  0  0
    4.5956   59.5734   70.1421 H   0  0  0  0  0  0  0  0  0  0  0  0
    2.9531   57.8254   71.1177 H   0  0  0  0  0  0  0  0  0  0  0  0
    4.1478   58.6053   72.2178 H   0  0  0  0  0  0  0  0  0  0  0  0
    1.2609   59.4381   71.8033 H   0  0  0  0  0  0  0  0  0  0  0  0
    1.6133   61.2893   73.1123 H   0  0  0  0  0  0  0  0  0  0  0  0
    2.8097   60.4029   74.1727 H   0  0  0  0  0  0  0  0  0  0  0  0
    3.6156   62.4114   72.6992 H   0  0  0  0  0  0  0  0  0  0  0  0
    4.5969   60.8942   72.8219 H   0  0  0  0  0  0  0  0  0  0  0  0
    0.5755   58.6284   73.7808 H   0  0  0  0  0  0  0  0  0  0  0  0
    0.7778   56.8954   72.0384 H   0  0  0  0  0  0  0  0  0  0  0  0
    2.4226   56.4703   72.6462 H   0  0  0  0  0  0  0  0  0  0  0  0
   -0.2486   56.1647   74.0831 H   0  0  0  0  0  0  0  0  0  0  0  0
    0.9275   54.8726   73.5572 H   0  0  0  0  0  0  0  0  0  0  0  0
    2.9377   56.8626   76.4238 H   0  0  0  0  0  0  0  0  0  0  0  0
    3.4452   56.3690   74.7524 H   0  0  0  0  0  0  0  0  0  0  0  0
    1.7823   58.7558   75.6125 H   0  0  0  0  0  0  0  0  0  0  0  0
    3.3409   58.6839   74.6560 H   0  0  0  0  0  0  0  0  0  0  0  0
   -0.3824   54.2426   75.0440 H   0  0  0  0  0  0  0  0  0  0  0  0
    0.1549   53.2060   76.4346 H   0  0  0  0  0  0  0  0  0  0  0  0
   -1.6821   53.8475   77.5250 H   0  0  0  0  0  0  0  0  0  0  0  0
   -0.9544   55.5116   77.5935 H   0  0  0  0  0  0  0  0  0  0  0  0
   -2.6015   54.5516   75.2289 H   0  0  0  0  0  0  0  0  0  0  0  0
   -3.3270   55.3383   76.7058 H   0  0  0  0  0  0  0  0  0  0  0  0
   -1.2180   57.0213   75.9569 H   0  0  0  0  0  0  0  0  0  0  0  0
   -2.0235   56.5416   74.4052 H   0  0  0  0  0  0  0  0  0  0  0  0
   -4.1713   57.2884   75.2153 H   0  0  0  0  0  0  0  0  0  0  0  0
   -3.4602   57.6247   76.8563 H   0  0  0  0  0  0  0  0  0  0  0  0
   -2.6735   59.4856   76.2378 H   0  0  0  0  0  0  0  0  0  0  0  0
   -4.2356   60.7336   75.5397 H   0  0  0  0  0  0  0  0  0  0  0  0
   -3.8644   60.2261   73.8405 H   0  0  0  0  0  0  0  0  0  0  0  0
   -5.7337   58.8716   75.8261 H   0  0  0  0  0  0  0  0  0  0  0  0
   -6.1578   59.6654   74.2715 H   0  0  0  0  0  0  0  0  0  0  0  0
   -5.2137   58.1372   74.2715 H   0  0  0  0  0  0  0  0  0  0  0  0
   -0.9772   58.4106   74.7785 H   0  0  0  0  0  0  0  0  0  0  0  0
   -2.1251   58.7792   73.4078 H   0  0  0  0  0  0  0  0  0  0  0  0
   -1.5808   60.5456   72.1184 H   0  0  0  0  0  0  0  0  0  0  0  0
   -0.6041   62.8174   71.8236 H   0  0  0  0  0  0  0  0  0  0  0  0
    0.3668   64.0167   73.7775 H   0  0  0  0  0  0  0  0  0  0  0  0
    0.3652   62.9527   76.0297 H   0  0  0  0  0  0  0  0  0  0  0  0
    0.1490   60.5804   78.4537 H   0  0  0  0  0  0  0  0  0  0  0  0
    1.1983   59.8163   77.2119 H   0  0  0  0  0  0  0  0  0  0  0  0
    0.9568   61.5963   77.2119 H   0  0  0  0  0  0  0  0  0  0  0  0
    3.5279   63.6038   71.6801 H   0  0  0  0  0  0  0  0  0  0  0  0
    4.6888   64.0560   70.3461 H   0  0  0  0  0  0  0  0  0  0  0  0
    3.0262   65.5506   69.9120 H   0  0  0  0  0  0  0  0  0  0  0  0
    2.4497   64.1146   68.9409 H   0  0  0  0  0  0  0  0  0  0  0  0
    0.7663   63.5896   70.4758 H   0  0  0  0  0  0  0  0  0  0  0  0
    1.5072   64.6046   71.7742 H   0  0  0  0  0  0  0  0  0  0  0  0
   -0.3240   65.3559   69.5627 H   0  0  0  0  0  0  0  0  0  0  0  0
   -0.0033   66.1388   71.1811 H   0  0  0  0  0  0  0  0  0  0  0  0
    1.2598   67.7072   70.2592 H   0  0  0  0  0  0  0  0  0  0  0  0
    2.2523   66.4578   69.3959 H   0  0  0  0  0  0  0  0  0  0  0  0
    1.1445   66.7362   67.5392 H   0  0  0  0  0  0  0  0  0  0  0  0
   -0.8765   65.7576   67.8707 H   0  0  0  0  0  0  0  0  0  0  0  0
   -1.3300   66.9817   69.1140 H   0  0  0  0  0  0  0  0  0  0  0  0
   -2.1704   68.4012   67.5676 H   0  0  0  0  0  0  0  0  0  0  0  0
   -0.7807   68.1520   66.4571 H   0  0  0  0  0  0  0  0  0  0  0  0
   -2.1501   66.9895   66.4571 H   0  0  0  0  0  0  0  0  0  0  0  0
    0.0401   69.0469   67.2691 H   0  0  0  0  0  0  0  0  0  0  0  0
    0.6508   69.2515   68.9745 H   0  0  0  0  0  0  0  0  0  0  0  0
    4.2040   68.7534   64.7782 H   0  0  0  0  0  0  0  0  0  0  0  0
    5.7305   70.0464   66.2592 H   0  0  0  0  0  0  0  0  0  0  0  0
    4.9819   70.7477   68.5285 H   0  0  0  0  0  0  0  0  0  0  0  0
    2.7022   70.1372   69.3294 H   0  0  0  0  0  0  0  0  0  0  0  0
    2.5740   66.1295   65.3419 H   0  0  0  0  0  0  0  0  0  0  0  0
    1.3896   66.5202   64.0491 H   0  0  0  0  0  0  0  0  0  0  0  0
    3.0085   67.2985   64.0491 H   0  0  0  0  0  0  0  0  0  0  0  0
  2  1  2  0
  3  1  1  0
  4  3  1  0
  5  4  1  0
  6  5  1  0
  7  6  1  0
  8  7  1  0
  8  3  1  0
  9  6  1  0
 10  9  1  0
 11 10  1  0
 12 11  1  0
 13 12  1  0
 14 13  1  0
 14  9  1  0
 15 12  1  0
 16 15  2  0
 17 15  1  0
 18 17  1  0
 19 18  1  0
 20 19  1  0
 21 20  1  0
 22 21  1  0
 23 22  1  0
 24 23  1  0
 25 22  1  0
 26 25  1  0
 27 26  2  0
 28 27  1  0
 29 28  2  0
 30 29  1  0
 31 30  2  0
 31 26  1  0
 32 31  1  0
 33 32  1  0
 34  1  1  0
 35 34  1  0
 36 35  1  0
 37 36  1  0
 38 37  1  0
 39 38  1  0
 40 39  1  0
 41 40  1  0
 42 39  1  0
 44 43  2  0
 45 44  1  0
 46 45  2  0
 47 46  1  0
 48 47  2  0
 48 43  1  0
 48 42  1  0
 50 49  1  0
 50 43  1  0
  4 51  1  0
  4 52  1  0
  5 53  1  0
  5 54  1  0
  6 55  1  0
  7 56  1  0
  7 57  1  0
  8 58  1  0
  8 59  1  0
  9 60  1  0
 10 61  1  0
 10 62  1  0
 11 63  1  0
 11 64  1  0
 13 65  1  0
 13 66  1  0
 14 67  1  0
 14 68  1  0
 17 69  1  0
 17 70  1  0
 18 71  1  0
 18 72  1  0
 19 73  1  0
 19 74  1  0
 20 75  1  0
 20 76  1  0
 21 77  1  0
 21 78  1  0
 22 79  1  1
 23 80  1  0
 23 81  1  0
 24 82  1  0
 24 83  1  0
 24 84  1  0
 25 85  1  0
 25 86  1  0
 27 87  1  0
 28 88  1  0
 29 89  1  0
 30 90  1  0
 33 91  1  0
 33 92  1  0
 33 93  1  0
 34 94  1  0
 34 95  1  0
 35 96  1  0
 35 97  1  0
 36 98  1  0
 36 99  1  0
 37100  1  0
 37101  1  0
 38102  1  0
 38103  1  0
 39104  1  6
 40105  1  0
 40106  1  0
 41107  1  0
 41108  1  0
 41109  1  0
 42110  1  0
 42111  1  0
 44112  1  0
 45113  1  0
 46114  1  0
 47115  1  0
 49116  1  0
 49117  1  0
 49118  1  0
M  CHG  2  22   1  39   1
M  END
>  <score>  (1) 
-8.777

$$$$
=
     RDKit          3D

118121  0  0  0  0  0  0  0  0999 V2000
    2.9430   62.8660   69.6520 C   0  0  0  0  0  0  0  0  0  0  0  0
    3.0240   62.7010   68.4330 O   0  0  0  0  0  0  0  0  0  0  0  0
    3.2630   61.8560   70.5490 N   0  0  0  0  0  0  0  0  0  0  0  0
    3.6860   60.5700   69.9960 C   0  0  0  0  0  0  0  0  0  0  0  0
    3.7920   59.4630   71.0480 C   0  0  0  0  0  0  0  0  0  0  0  0
    2.5930   59.5260   72.0060 C   0  0  0  0  0  0  0  0  0  0  0  0
    2.5250   60.9050   72.7050 C   0  0  0  0  0  0  0  0  0  0  0  0
    3.3380   61.9930   71.9990 C   0  0  0  0  0  0  0  0  0  0  0  0
    2.5000   58.3560   73.0230 C   0  0  0  0  0  0  0  0  0  0  0  0
    2.0350   58.8250   74.4110 C   0  0  0  0  0  0  0  0  0  0  0  0
    2.0520   57.6640   75.4030 C   0  0  0  0  0  0  0  0  0  0  0  0
    1.3720   56.4680   74.9020 N   0  0  0  0  0  0  0  0  0  0  0  0
    0.7260   56.5750   73.5980 C   0  0  0  0  0  0  0  0  0  0  0  0
    1.6690   57.1470   72.5370 C   0  0  0  0  0  0  0  0  0  0  0  0
    1.2020   55.3160   75.6590 C   0  0  0  0  0  0  0  0  0  0  0  0
    0.5340   54.3530   75.2700 O   0  0  0  0  0  0  0  0  0  0  0  0
    1.8950   55.2870   77.0210 C   0  0  0  0  0  0  0  0  0  0  0  0
    0.9180   55.5590   78.1690 C   0  0  0  0  0  0  0  0  0  0  0  0
    1.1560   56.9270   78.8250 C   0  0  0  0  0  0  0  0  0  0  0  0
    0.0890   57.9630   78.4580 C   0  0  0  0  0  0  0  0  0  0  0  0
    0.5440   59.3870   78.7920 C   0  0  0  0  0  0  0  0  0  0  0  0
    0.8760   60.1970   77.5540 N   0  0  2  0  0  4  0  0  0  0  0  0
    2.2500   60.8350   77.5190 C   0  0  0  0  0  0  0  0  0  0  0  0
    3.3050   59.9200   78.1140 C   0  0  0  0  0  0  0  0  0  0  0  0
   -0.2200   61.1940   77.2100 C   0  0  0  0  0  0  0  0  0  0  0  0
   -0.5080   61.2790   75.7330 C   0  0  0  0  0  0  0  0  0  0  0  0
   -0.1470   62.4400   75.0260 C   0  0  0  0  0  0  0  0  0  0  0  0
   -0.4120   62.5490   73.6620 C   0  0  0  0  0  0  0  0  0  0  0  0
   -1.0410   61.5040   72.9950 C   0  0  0  0  0  0  0  0  0  0  0  0
   -1.4090   60.3470   73.6840 C   0  0  0  0  0  0  0  0  0  0  0  0
   -1.1450   60.2240   75.0510 C   0  0  0  0  0  0  0  0  0  0  0  0
   -1.4860   59.1400   75.8180 O   0  0  0  0  0  0  0  0  0  0  0  0
   -2.2740   58.1290   75.1940 C   0  0  0  0  0  0  0  0  0  0  0  0
    2.4960   64.2020   70.2330 C   0  0  0  0  0  0  0  0  0  0  0  0
    1.0020   64.2430   70.5750 C   0  0  0  0  0  0  0  0  0  0  0  0
    0.4710   65.6600   70.8330 C   0  0  0  0  0  0  0  0  0  0  0  0
    0.1060   66.3560   69.5160 C   0  0  0  0  0  0  0  0  0  0  0  0
    1.1570   67.3670   69.0510 C   0  0  0  0  0  0  0  0  0  0  0  0
    1.0050   67.7000   67.5830 N   0  0  1  0  0  4  0  0  0  0  0  0
   -0.3530   67.3040   67.0330 C   0  0  0  0  0  0  0  0  0  0  0  0
   -1.1260   68.5370   66.5960 C   0  0  0  0  0  0  0  0  0  0  0  0
    1.3040   69.1700   67.3070 C   0  0  0  0  0  0  0  0  0  0  0  0
    3.2660   69.1220   65.6920 C   0  0  0  0  0  0  0  0  0  0  0  0
    4.6160   69.3590   65.4210 C   0  0  0  0  0  0  0  0  0  0  0  0
    5.4510   69.8970   66.4030 C   0  0  0  0  0  0  0  0  0  0  0  0
    4.9450   70.2050   67.6620 C   0  0  0  0  0  0  0  0  0  0  0  0
    3.6010   69.9690   67.9460 C   0  0  0  0  0  0  0  0  0  0  0  0
    2.7510   69.4230   66.9660 C   0  0  0  0  0  0  0  0  0  0  0  0
    2.6140   67.2450   64.3710 C   0  0  0  0  0  0  0  0  0  0  0  0
    2.3750   68.5850   64.8010 O   0  0  0  0  0  0  0  0  0  0  0  0
    2.9545   60.2597   69.2353 H   0  0  0  0  0  0  0  0  0  0  0  0
    4.6907   60.7129   69.5716 H   0  0  0  0  0  0  0  0  0  0  0  0
    3.8050   58.4844   70.5458 H   0  0  0  0  0  0  0  0  0  0  0  0
    4.7192   59.6018   71.6234 H   0  0  0  0  0  0  0  0  0  0  0  0
    1.7035   59.3989   71.3714 H   0  0  0  0  0  0  0  0  0  0  0  0
    1.4732   61.2251   72.7402 H   0  0  0  0  0  0  0  0  0  0  0  0
    2.9589   60.7790   73.7079 H   0  0  0  0  0  0  0  0  0  0  0  0
    2.9428   62.9785   72.2864 H   0  0  0  0  0  0  0  0  0  0  0  0
    4.3903   61.8911   72.3026 H   0  0  0  0  0  0  0  0  0  0  0  0
    3.5336   57.9901   73.1109 H   0  0  0  0  0  0  0  0  0  0  0  0
    2.7088   59.6171   74.7696 H   0  0  0  0  0  0  0  0  0  0  0  0
    1.0071   59.2082   74.3304 H   0  0  0  0  0  0  0  0  0  0  0  0
    3.0988   57.4056   75.6211 H   0  0  0  0  0  0  0  0  0  0  0  0
    1.5122   57.9945   76.3027 H   0  0  0  0  0  0  0  0  0  0  0  0
    0.3992   55.5739   73.2802 H   0  0  0  0  0  0  0  0  0  0  0  0
   -0.1293   57.2595   73.6974 H   0  0  0  0  0  0  0  0  0  0  0  0
    2.3631   56.3523   72.2261 H   0  0  0  0  0  0  0  0  0  0  0  0
    1.0386   57.5051   71.7097 H   0  0  0  0  0  0  0  0  0  0  0  0
    2.3479   54.2954   77.1678 H   0  0  0  0  0  0  0  0  0  0  0  0
    2.6584   56.0790   77.0302 H   0  0  0  0  0  0  0  0  0  0  0  0
   -0.1084   55.5296   77.7745 H   0  0  0  0  0  0  0  0  0  0  0  0
    1.0759   54.7861   78.9356 H   0  0  0  0  0  0  0  0  0  0  0  0
    1.1560   56.7963   79.9172 H   0  0  0  0  0  0  0  0  0  0  0  0
    2.1208   57.3047   78.4554 H   0  0  0  0  0  0  0  0  0  0  0  0
   -0.1151   57.8977   77.3791 H   0  0  0  0  0  0  0  0  0  0  0  0
   -0.8161   57.7457   79.0441 H   0  0  0  0  0  0  0  0  0  0  0  0
   -0.2628   59.8955   79.3401 H   0  0  0  0  0  0  0  0  0  0  0  0
    1.4596   59.3116   79.3970 H   0  0  0  0  0  0  0  0  0  0  0  0
    0.9190   59.4859   76.8101 H   0  0  0  0  0  0  0  0  0  0  0  0
    2.5155   61.0543   76.4743 H   0  0  0  0  0  0  0  0  0  0  0  0
    2.2169   61.7575   78.1173 H   0  0  0  0  0  0  0  0  0  0  0  0
    3.2527   59.9653   79.2118 H   0  0  0  0  0  0  0  0  0  0  0  0
    3.1249   58.8873   77.7807 H   0  0  0  0  0  0  0  0  0  0  0  0
    4.3019   60.2443   77.7807 H   0  0  0  0  0  0  0  0  0  0  0  0
   -1.1419   60.8918   77.7284 H   0  0  0  0  0  0  0  0  0  0  0  0
    0.1304   62.1861   77.5307 H   0  0  0  0  0  0  0  0  0  0  0  0
    0.3483   63.2684   75.5536 H   0  0  0  0  0  0  0  0  0  0  0  0
   -0.1244   63.4590   73.1150 H   0  0  0  0  0  0  0  0  0  0  0  0
   -1.2499   61.5893   71.9184 H   0  0  0  0  0  0  0  0  0  0  0  0
   -1.9097   59.5273   73.1479 H   0  0  0  0  0  0  0  0  0  0  0  0
   -2.7557   57.5110   75.9660 H   0  0  0  0  0  0  0  0  0  0  0  0
   -3.0455   58.6001   74.5673 H   0  0  0  0  0  0  0  0  0  0  0  0
   -1.6288   57.4959   74.5673 H   0  0  0  0  0  0  0  0  0  0  0  0
    3.0702   64.3933   71.1515 H   0  0  0  0  0  0  0  0  0  0  0  0
    2.6765   64.9688   69.4653 H   0  0  0  0  0  0  0  0  0  0  0  0
    0.4405   63.8085   69.7348 H   0  0  0  0  0  0  0  0  0  0  0  0
    0.8677   63.6729   71.5061 H   0  0  0  0  0  0  0  0  0  0  0  0
   -0.4249   65.5987   71.4683 H   0  0  0  0  0  0  0  0  0  0  0  0
    1.2574   66.2443   71.3331 H   0  0  0  0  0  0  0  0  0  0  0  0
   -0.0086   65.5887   68.7362 H   0  0  0  0  0  0  0  0  0  0  0  0
   -0.8259   66.9136   69.6909 H   0  0  0  0  0  0  0  0  0  0  0  0
    1.0475   68.2903   69.6388 H   0  0  0  0  0  0  0  0  0  0  0  0
    2.1510   66.9197   69.1991 H   0  0  0  0  0  0  0  0  0  0  0  0
    1.7058   67.1346   67.0829 H   0  0  0  0  0  0  0  0  0  0  0  0
   -0.2141   66.6378   66.1688 H   0  0  0  0  0  0  0  0  0  0  0  0
   -0.9206   66.7868   67.8206 H   0  0  0  0  0  0  0  0  0  0  0  0
   -1.4710   69.0872   67.4838 H   0  0  0  0  0  0  0  0  0  0  0  0
   -0.4724   69.1853   65.9939 H   0  0  0  0  0  0  0  0  0  0  0  0
   -1.9943   68.2311   65.9939 H   0  0  0  0  0  0  0  0  0  0  0  0
    0.6817   69.5018   66.4628 H   0  0  0  0  0  0  0  0  0  0  0  0
    1.0800   69.7297   68.2271 H   0  0  0  0  0  0  0  0  0  0  0  0
    5.0240   69.1203   64.4277 H   0  0  0  0  0  0  0  0  0  0  0  0
    6.5129   70.0779   66.1801 H   0  0  0  0  0  0  0  0  0  0  0  0
    5.6041   70.6337   68.4313 H   0  0  0  0  0  0  0  0  0  0  0  0
    3.2022   70.2110   68.9422 H   0  0  0  0  0  0  0  0  0  0  0  0
    2.7302   66.5932   65.2495 H   0  0  0  0  0  0  0  0  0  0  0  0
    1.7638   66.8969   63.7661 H   0  0  0  0  0  0  0  0  0  0  0  0
    3.5322   67.2123   63.7661 H   0  0  0  0  0  0  0  0  0  0  0  0
  2  1  2  0
  3  1  1  0
  4  3  1  0
  5  4  1  0
  6  5  1  0
  7  6  1  0
  8  7  1  0
  8  3  1  0
  9  6  1  0
 10  9  1  0
 11 10  1  0
 12 11  1  0
 13 12  1  0
 14 13  1  0
 14  9  1  0
 15 12  1  0
 16 15  2  0
 17 15  1  0
 18 17  1  0
 19 18  1  0
 20 19  1  0
 21 20  1  0
 22 21  1  0
 23 22  1  0
 24 23  1  0
 25 22  1  0
 26 25  1  0
 27 26  2  0
 28 27  1  0
 29 28  2  0
 30 29  1  0
 31 30  2  0
 31 26  1  0
 32 31  1  0
 33 32  1  0
 34  1  1  0
 35 34  1  0
 36 35  1  0
 37 36  1  0
 38 37  1  0
 39 38  1  0
 40 39  1  0
 41 40  1  0
 42 39  1  0
 44 43  2  0
 45 44  1  0
 46 45  2  0
 47 46  1  0
 48 47  2  0
 48 43  1  0
 48 42  1  0
 50 49  1  0
 50 43  1  0
  4 51  1  0
  4 52  1  0
  5 53  1  0
  5 54  1  0
  6 55  1  0
  7 56  1  0
  7 57  1  0
  8 58  1  0
  8 59  1  0
  9 60  1  0
 10 61  1  0
 10 62  1  0
 11 63  1  0
 11 64  1  0
 13 65  1  0
 13 66  1  0
 14 67  1  0
 14 68  1  0
 17 69  1  0
 17 70  1  0
 18 71  1  0
 18 72  1  0
 19 73  1  0
 19 74  1  0
 20 75  1  0
 20 76  1  0
 21 77  1  0
 21 78  1  0
 22 79  1  6
 23 80  1  0
 23 81  1  0
 24 82  1  0
 24 83  1  0
 24 84  1  0
 25 85  1  0
 25 86  1  0
 27 87  1  0
 28 88  1  0
 29 89  1  0
 30 90  1  0
 33 91  1  0
 33 92  1  0
 33 93  1  0
 34 94  1  0
 34 95  1  0
 35 96  1  0
 35 97  1  0
 36 98  1  0
 36 99  1  0
 37100  1  0
 37101  1  0
 38102  1  0
 38103  1  0
 39104  1  6
 40105  1  0
 40106  1  0
 41107  1  0
 41108  1  0
 41109  1  0
 42110  1  0
 42111  1  0
 44112  1  0
 45113  1  0
 46114  1  0
 47115  1  0
 49116  1  0
 49117  1  0
 49118  1  0
M  CHG  2  22   1  39   1
M  END
>  <score>  (2) 
-8.677

$$$$
=
     RDKit          3D

118121  0  0  0  0  0  0  0  0999 V2000
    2.8250   63.0690   69.8880 C   0  0  0  0  0  0  0  0  0  0  0  0
    3.0280   62.8950   68.6850 O   0  0  0  0  0  0  0  0  0  0  0  0
    2.9470   62.0350   70.8060 N   0  0  0  0  0  0  0  0  0  0  0  0
    3.3090   60.7150   70.2930 C   0  0  0  0  0  0  0  0  0  0  0  0
    3.1930   59.6040   71.3400 C   0  0  0  0  0  0  0  0  0  0  0  0
    1.9050   59.7790   72.1580 C   0  0  0  0  0  0  0  0  0  0  0  0
    1.8850   61.1600   72.8580 C   0  0  0  0  0  0  0  0  0  0  0  0
    2.8700   62.1670   72.2570 C   0  0  0  0  0  0  0  0  0  0  0  0
    1.5900   58.6240   73.1470 C   0  0  0  0  0  0  0  0  0  0  0  0
    2.0700   57.2610   72.6230 C   0  0  0  0  0  0  0  0  0  0  0  0
    1.6560   56.1430   73.5780 C   0  0  0  0  0  0  0  0  0  0  0  0
    2.0020   56.4190   74.9730 N   0  0  0  0  0  0  0  0  0  0  0  0
    2.7430   57.6480   75.2370 C   0  0  0  0  0  0  0  0  0  0  0  0
    2.0770   58.8670   74.5940 C   0  0  0  0  0  0  0  0  0  0  0  0
    1.7860   55.5140   76.0050 C   0  0  0  0  0  0  0  0  0  0  0  0
    2.1790   55.7090   77.1590 O   0  0  0  0  0  0  0  0  0  0  0  0
    1.0190   54.2420   75.6450 C   0  0  0  0  0  0  0  0  0  0  0  0
   -0.3030   54.1310   76.4100 C   0  0  0  0  0  0  0  0  0  0  0  0
   -0.9690   55.4970   76.6240 C   0  0  0  0  0  0  0  0  0  0  0  0
   -2.0210   55.8260   75.5600 C   0  0  0  0  0  0  0  0  0  0  0  0
   -3.2090   56.5890   76.1540 C   0  0  0  0  0  0  0  0  0  0  0  0
   -3.2800   58.0240   75.6730 N   0  0  2  0  0  4  0  0  0  0  0  0
   -4.6230   58.4900   75.1480 C   0  0  0  0  0  0  0  0  0  0  0  0
   -5.0850   59.7550   75.8460 C   0  0  0  0  0  0  0  0  0  0  0  0
   -2.1480   58.3630   74.7130 C   0  0  0  0  0  0  0  0  0  0  0  0
   -1.6650   59.7850   74.8400 C   0  0  0  0  0  0  0  0  0  0  0  0
   -1.6760   60.6190   73.7070 C   0  0  0  0  0  0  0  0  0  0  0  0
   -1.2240   61.9350   73.7940 C   0  0  0  0  0  0  0  0  0  0  0  0
   -0.7530   62.4260   75.0070 C   0  0  0  0  0  0  0  0  0  0  0  0
   -0.7330   61.6080   76.1380 C   0  0  0  0  0  0  0  0  0  0  0  0
   -1.1880   60.2880   76.0650 C   0  0  0  0  0  0  0  0  0  0  0  0
   -1.1860   59.4030   77.1120 O   0  0  0  0  0  0  0  0  0  0  0  0
    0.0850   59.0290   77.6410 C   0  0  0  0  0  0  0  0  0  0  0  0
    2.4400   64.4410   70.4270 C   0  0  0  0  0  0  0  0  0  0  0  0
    0.9270   64.6190   70.6060 C   0  0  0  0  0  0  0  0  0  0  0  0
    0.4690   66.0820   70.5340 C   0  0  0  0  0  0  0  0  0  0  0  0
    1.3640   66.8900   69.5860 C   0  0  0  0  0  0  0  0  0  0  0  0
    0.6190   67.4390   68.3680 C   0  0  0  0  0  0  0  0  0  0  0  0
    1.5720   67.8960   67.2850 N   0  0  1  0  0  4  0  0  0  0  0  0
    1.1620   67.4120   65.9060 C   0  0  0  0  0  0  0  0  0  0  0  0
    2.2390   66.5170   65.3180 C   0  0  0  0  0  0  0  0  0  0  0  0
    1.7600   69.4090   67.3040 C   0  0  0  0  0  0  0  0  0  0  0  0
    4.2150   69.8260   66.7960 C   0  0  0  0  0  0  0  0  0  0  0  0
    5.4920   70.2040   67.2210 C   0  0  0  0  0  0  0  0  0  0  0  0
    5.7110   70.5870   68.5460 C   0  0  0  0  0  0  0  0  0  0  0  0
    4.6600   70.5970   69.4570 C   0  0  0  0  0  0  0  0  0  0  0  0
    3.3840   70.2170   69.0470 C   0  0  0  0  0  0  0  0  0  0  0  0
    3.1500   69.8240   67.7150 C   0  0  0  0  0  0  0  0  0  0  0  0
    4.9600   69.4360   64.5630 C   0  0  0  0  0  0  0  0  0  0  0  0
    3.9050   69.4220   65.5240 O   0  0  0  0  0  0  0  0  0  0  0  0
    2.6426   60.4728   69.4520 H   0  0  0  0  0  0  0  0  0  0  0  0
    4.3642   60.7636   69.9861 H   0  0  0  0  0  0  0  0  0  0  0  0
    3.1719   58.6279   70.8333 H   0  0  0  0  0  0  0  0  0  0  0  0
    4.0583   59.6569   72.0170 H   0  0  0  0  0  0  0  0  0  0  0  0
    1.0853   59.7341   71.4258 H   0  0  0  0  0  0  0  0  0  0  0  0
    0.8699   61.5760   72.7773 H   0  0  0  0  0  0  0  0  0  0  0  0
    2.1885   60.9963   73.9025 H   0  0  0  0  0  0  0  0  0  0  0  0
    2.5376   63.1854   72.5066 H   0  0  0  0  0  0  0  0  0  0  0  0
    3.8674   61.9683   72.6762 H   0  0  0  0  0  0  0  0  0  0  0  0
    0.4916   58.6051   73.2023 H   0  0  0  0  0  0  0  0  0  0  0  0
    1.6241   57.0760   71.6346 H   0  0  0  0  0  0  0  0  0  0  0  0
    3.1673   57.2758   72.5480 H   0  0  0  0  0  0  0  0  0  0  0  0
    0.5665   56.0089   73.5080 H   0  0  0  0  0  0  0  0  0  0  0  0
    2.2038   55.2374   73.2783 H   0  0  0  0  0  0  0  0  0  0  0  0
    2.7960   57.8044   76.3245 H   0  0  0  0  0  0  0  0  0  0  0  0
    3.7475   57.5399   74.8018 H   0  0  0  0  0  0  0  0  0  0  0  0
    1.2100   59.1521   75.2080 H   0  0  0  0  0  0  0  0  0  0  0  0
    2.8390   59.6589   74.5458 H   0  0  0  0  0  0  0  0  0  0  0  0
    0.8049   54.2502   74.5661 H   0  0  0  0  0  0  0  0  0  0  0  0
    1.6438   53.3798   75.9212 H   0  0  0  0  0  0  0  0  0  0  0  0
   -0.9893   53.4885   75.8388 H   0  0  0  0  0  0  0  0  0  0  0  0
   -0.0839   53.7048   77.4001 H   0  0  0  0  0  0  0  0  0  0  0  0
   -1.4562   55.4983   77.6102 H   0  0  0  0  0  0  0  0  0  0  0  0
   -0.1807   56.2609   76.5531 H   0  0  0  0  0  0  0  0  0  0  0  0
   -1.5557   56.4439   74.7779 H   0  0  0  0  0  0  0  0  0  0  0  0
   -2.3954   54.8790   75.1440 H   0  0  0  0  0  0  0  0  0  0  0  0
   -4.1376   56.0746   75.8657 H   0  0  0  0  0  0  0  0  0  0  0  0
   -3.0786   56.6100   77.2460 H   0  0  0  0  0  0  0  0  0  0  0  0
   -3.1544   58.5703   76.5371 H   0  0  0  0  0  0  0  0  0  0  0  0
   -4.5357   58.6885   74.0696 H   0  0  0  0  0  0  0  0  0  0  0  0
   -5.3625   57.6992   75.3424 H   0  0  0  0  0  0  0  0  0  0  0  0
   -5.0330   59.6125   76.9355 H   0  0  0  0  0  0  0  0  0  0  0  0
   -4.4349   60.5930   75.5543 H   0  0  0  0  0  0  0  0  0  0  0  0
   -6.1222   59.9768   75.5543 H   0  0  0  0  0  0  0  0  0  0  0  0
   -1.3037   57.6879   74.9164 H   0  0  0  0  0  0  0  0  0  0  0  0
   -2.5390   58.2414   73.6920 H   0  0  0  0  0  0  0  0  0  0  0  0
   -2.0437   60.2301   72.7460 H   0  0  0  0  0  0  0  0  0  0  0  0
   -1.2399   62.5833   72.9055 H   0  0  0  0  0  0  0  0  0  0  0  0
   -0.3946   63.4637   75.0755 H   0  0  0  0  0  0  0  0  0  0  0  0
   -0.3569   62.0044   77.0927 H   0  0  0  0  0  0  0  0  0  0  0  0
    0.0427   59.0414   78.7401 H   0  0  0  0  0  0  0  0  0  0  0  0
    0.3426   58.0170   77.2954 H   0  0  0  0  0  0  0  0  0  0  0  0
    0.8497   59.7402   77.2954 H   0  0  0  0  0  0  0  0  0  0  0  0
    2.9262   64.5816   71.4036 H   0  0  0  0  0  0  0  0  0  0  0  0
    2.7709   65.1861   69.6886 H   0  0  0  0  0  0  0  0  0  0  0  0
    0.4140   64.0544   69.8135 H   0  0  0  0  0  0  0  0  0  0  0  0
    0.6750   64.2506   71.6114 H   0  0  0  0  0  0  0  0  0  0  0  0
   -0.5677   66.1172   70.1679 H   0  0  0  0  0  0  0  0  0  0  0  0
    0.5363   66.5211   71.5403 H   0  0  0  0  0  0  0  0  0  0  0  0
    1.7897   67.7363   70.1450 H   0  0  0  0  0  0  0  0  0  0  0  0
    2.1404   66.2068   69.2111 H   0  0  0  0  0  0  0  0  0  0  0  0
   -0.0295   66.6490   67.9614 H   0  0  0  0  0  0  0  0  0  0  0  0
    0.0278   68.3081   68.6921 H   0  0  0  0  0  0  0  0  0  0  0  0
    2.4814   67.4610   67.4962 H   0  0  0  0  0  0  0  0  0  0  0  0
    0.2227   66.8450   65.9852 H   0  0  0  0  0  0  0  0  0  0  0  0
    1.0231   68.2829   65.2485 H   0  0  0  0  0  0  0  0  0  0  0  0
    2.8078   66.0443   66.1323 H   0  0  0  0  0  0  0  0  0  0  0  0
    1.7706   65.7385   64.6979 H   0  0  0  0  0  0  0  0  0  0  0  0
    2.9186   67.1200   64.6979 H   0  0  0  0  0  0  0  0  0  0  0  0
    1.5612   69.7998   66.2951 H   0  0  0  0  0  0  0  0  0  0  0  0
    1.0605   69.8185   68.0477 H   0  0  0  0  0  0  0  0  0  0  0  0
    6.3293   70.1997   66.5076 H   0  0  0  0  0  0  0  0  0  0  0  0
    6.7196   70.8822   68.8708 H   0  0  0  0  0  0  0  0  0  0  0  0
    4.8359   70.9042   70.4985 H   0  0  0  0  0  0  0  0  0  0  0  0
    2.5537   70.2239   69.7685 H   0  0  0  0  0  0  0  0  0  0  0  0
    5.9293   69.4489   65.0828 H   0  0  0  0  0  0  0  0  0  0  0  0
    4.8938   68.5369   63.9327 H   0  0  0  0  0  0  0  0  0  0  0  0
    4.8700   70.3330   63.9327 H   0  0  0  0  0  0  0  0  0  0  0  0
  2  1  2  0
  3  1  1  0
  4  3  1  0
  5  4  1  0
  6  5  1  0
  7  6  1  0
  8  7  1  0
  8  3  1  0
  9  6  1  0
 10  9  1  0
 11 10  1  0
 12 11  1  0
 13 12  1  0
 14 13  1  0
 14  9  1  0
 15 12  1  0
 16 15  2  0
 17 15  1  0
 18 17  1  0
 19 18  1  0
 20 19  1  0
 21 20  1  0
 22 21  1  0
 23 22  1  0
 24 23  1  0
 25 22  1  0
 26 25  1  0
 27 26  2  0
 28 27  1  0
 29 28  2  0
 30 29  1  0
 31 30  2  0
 31 26  1  0
 32 31  1  0
 33 32  1  0
 34  1  1  0
 35 34  1  0
 36 35  1  0
 37 36  1  0
 38 37  1  0
 39 38  1  0
 40 39  1  0
 41 40  1  0
 42 39  1  0
 44 43  2  0
 45 44  1  0
 46 45  2  0
 47 46  1  0
 48 47  2  0
 48 43  1  0
 48 42  1  0
 50 49  1  0
 50 43  1  0
  4 51  1  0
  4 52  1  0
  5 53  1  0
  5 54  1  0
  6 55  1  0
  7 56  1  0
  7 57  1  0
  8 58  1  0
  8 59  1  0
  9 60  1  0
 10 61  1  0
 10 62  1  0
 11 63  1  0
 11 64  1  0
 13 65  1  0
 13 66  1  0
 14 67  1  0
 14 68  1  0
 17 69  1  0
 17 70  1  0
 18 71  1  0
 18 72  1  0
 19 73  1  0
 19 74  1  0
 20 75  1  0
 20 76  1  0
 21 77  1  0
 21 78  1  0
 22 79  1  1
 23 80  1  0
 23 81  1  0
 24 82  1  0
 24 83  1  0
 24 84  1  0
 25 85  1  0
 25 86  1  0
 27 87  1  0
 28 88  1  0
 29 89  1  0
 30 90  1  0
 33 91  1  0
 33 92  1  0
 33 93  1  0
 34 94  1  0
 34 95  1  0
 35 96  1  0
 35 97  1  0
 36 98  1  0
 36 99  1  0
 37100  1  0
 37101  1  0
 38102  1  0
 38103  1  0
 39104  1  1
 40105  1  0
 40106  1  0
 41107  1  0
 41108  1  0
 41109  1  0
 42110  1  0
 42111  1  0
 44112  1  0
 45113  1  0
 46114  1  0
 47115  1  0
 49116  1  0
 49117  1  0
 49118  1  0
M  CHG  2  22   1  39   1
M  END
>  <score>  (3) 
-8.629

$$$$
=
     RDKit          3D

118121  0  0  0  0  0  0  0  0999 V2000
    2.8390   63.2230   69.8910 C   0  0  0  0  0  0  0  0  0  0  0  0
    3.1020   63.0900   68.6940 O   0  0  0  0  0  0  0  0  0  0  0  0
    2.9610   62.1700   70.7860 N   0  0  0  0  0  0  0  0  0  0  0  0
    3.3990   60.8790   70.2560 C   0  0  0  0  0  0  0  0  0  0  0  0
    3.2820   59.7360   71.2680 C   0  0  0  0  0  0  0  0  0  0  0  0
    1.9520   59.8380   72.0300 C   0  0  0  0  0  0  0  0  0  0  0  0
    1.8450   61.1970   72.7630 C   0  0  0  0  0  0  0  0  0  0  0  0
    2.8140   62.2580   72.2350 C   0  0  0  0  0  0  0  0  0  0  0  0
    1.6410   58.6450   72.9740 C   0  0  0  0  0  0  0  0  0  0  0  0
    2.2350   57.3240   72.4590 C   0  0  0  0  0  0  0  0  0  0  0  0
    1.8240   56.1620   73.3620 C   0  0  0  0  0  0  0  0  0  0  0  0
    2.0580   56.4260   74.7830 N   0  0  0  0  0  0  0  0  0  0  0  0
    2.7050   57.6900   75.1200 C   0  0  0  0  0  0  0  0  0  0  0  0
    2.0130   58.8830   74.4550 C   0  0  0  0  0  0  0  0  0  0  0  0
    1.8270   55.4870   75.7800 C   0  0  0  0  0  0  0  0  0  0  0  0
    2.1290   55.6790   76.9620 O   0  0  0  0  0  0  0  0  0  0  0  0
    1.1630   54.1810   75.3440 C   0  0  0  0  0  0  0  0  0  0  0  0
    0.4380   53.4900   76.5030 C   0  0  0  0  0  0  0  0  0  0  0  0
   -1.0290   53.1810   76.1710 C   0  0  0  0  0  0  0  0  0  0  0  0
   -1.6280   54.1440   75.1420 C   0  0  0  0  0  0  0  0  0  0  0  0
   -2.7410   55.0020   75.7510 C   0  0  0  0  0  0  0  0  0  0  0  0
   -2.3020   56.4300   76.0050 N   0  0  2  0  0  4  0  0  0  0  0  0
   -1.4650   56.6650   77.2460 C   0  0  0  0  0  0  0  0  0  0  0  0
   -2.3320   56.9830   78.4500 C   0  0  0  0  0  0  0  0  0  0  0  0
   -3.4620   57.4120   75.9100 C   0  0  0  0  0  0  0  0  0  0  0  0
   -3.1140   58.6760   75.1650 C   0  0  0  0  0  0  0  0  0  0  0  0
   -1.8200   58.8280   74.6350 C   0  0  0  0  0  0  0  0  0  0  0  0
   -1.4700   59.9910   73.9510 C   0  0  0  0  0  0  0  0  0  0  0  0
   -2.4030   61.0110   73.7960 C   0  0  0  0  0  0  0  0  0  0  0  0
   -3.6900   60.8740   74.3210 C   0  0  0  0  0  0  0  0  0  0  0  0
   -4.0550   59.7110   75.0050 C   0  0  0  0  0  0  0  0  0  0  0  0
   -5.2830   59.4930   75.5740 O   0  0  0  0  0  0  0  0  0  0  0  0
   -6.4270   59.7670   74.7680 C   0  0  0  0  0  0  0  0  0  0  0  0
    2.3740   64.5640   70.4470 C   0  0  0  0  0  0  0  0  0  0  0  0
    0.8500   64.6710   70.5750 C   0  0  0  0  0  0  0  0  0  0  0  0
    0.3310   66.1140   70.5220 C   0  0  0  0  0  0  0  0  0  0  0  0
    0.9250   66.8660   69.3250 C   0  0  0  0  0  0  0  0  0  0  0  0
   -0.0850   67.1210   68.2040 C   0  0  0  0  0  0  0  0  0  0  0  0
    0.3420   68.2660   67.3120 N   0  0  1  0  0  4  0  0  0  0  0  0
   -0.8320   69.1030   66.8380 C   0  0  0  0  0  0  0  0  0  0  0  0
   -2.0430   68.2200   66.5860 C   0  0  0  0  0  0  0  0  0  0  0  0
    1.4030   69.1330   67.9790 C   0  0  0  0  0  0  0  0  0  0  0  0
    3.8090   69.8910   67.6640 C   0  0  0  0  0  0  0  0  0  0  0  0
    4.9400   70.0230   66.8530 C   0  0  0  0  0  0  0  0  0  0  0  0
    4.9280   69.5490   65.5400 C   0  0  0  0  0  0  0  0  0  0  0  0
    3.7890   68.9380   65.0250 C   0  0  0  0  0  0  0  0  0  0  0  0
    2.6530   68.8050   65.8210 C   0  0  0  0  0  0  0  0  0  0  0  0
    2.6510   69.2830   67.1460 C   0  0  0  0  0  0  0  0  0  0  0  0
    4.9440   70.6480   69.6210 C   0  0  0  0  0  0  0  0  0  0  0  0
    3.7200   70.3370   68.9560 O   0  0  0  0  0  0  0  0  0  0  0  0
    2.7809   60.6338   69.3798 H   0  0  0  0  0  0  0  0  0  0  0  0
    4.4639   60.9776   69.9985 H   0  0  0  0  0  0  0  0  0  0  0  0
    3.3236   58.7739   70.7363 H   0  0  0  0  0  0  0  0  0  0  0  0
    4.1133   59.8042   71.9851 H   0  0  0  0  0  0  0  0  0  0  0  0
    1.1681   59.7810   71.2604 H   0  0  0  0  0  0  0  0  0  0  0  0
    0.8186   61.5749   72.6461 H   0  0  0  0  0  0  0  0  0  0  0  0
    2.1079   61.0164   73.8157 H   0  0  0  0  0  0  0  0  0  0  0  0
    2.4299   63.2552   72.4960 H   0  0  0  0  0  0  0  0  0  0  0  0
    3.7988   62.0869   72.6942 H   0  0  0  0  0  0  0  0  0  0  0  0
    0.5444   58.5615   72.9537 H   0  0  0  0  0  0  0  0  0  0  0  0
    1.8688   57.1362   71.4389 H   0  0  0  0  0  0  0  0  0  0  0  0
    3.3321   57.4038   72.4605 H   0  0  0  0  0  0  0  0  0  0  0  0
    0.7515   55.9668   73.2145 H   0  0  0  0  0  0  0  0  0  0  0  0
    2.4432   55.2965   73.0837 H   0  0  0  0  0  0  0  0  0  0  0  0
    2.6747   57.8248   76.2113 H   0  0  0  0  0  0  0  0  0  0  0  0
    3.7412   57.6501   74.7530 H   0  0  0  0  0  0  0  0  0  0  0  0
    1.0908   59.1035   75.0127 H   0  0  0  0  0  0  0  0  0  0  0  0
    2.7281   59.7186   74.4744 H   0  0  0  0  0  0  0  0  0  0  0  0
    0.4341   54.4012   74.5501 H   0  0  0  0  0  0  0  0  0  0  0  0
    1.9511   53.5031   74.9843 H   0  0  0  0  0  0  0  0  0  0  0  0
    0.9553   52.5465   76.7317 H   0  0  0  0  0  0  0  0  0  0  0  0
    0.4513   54.1743   77.3642 H   0  0  0  0  0  0  0  0  0  0  0  0
   -1.0893   52.1585   75.7700 H   0  0  0  0  0  0  0  0  0  0  0  0
   -1.6063   53.2937   77.1005 H   0  0  0  0  0  0  0  0  0  0  0  0
   -0.8328   54.8051   74.7671 H   0  0  0  0  0  0  0  0  0  0  0  0
   -2.0619   53.5478   74.3258 H   0  0  0  0  0  0  0  0  0  0  0  0
   -3.5957   55.0139   75.0586 H   0  0  0  0  0  0  0  0  0  0  0  0
   -3.0111   54.5586   76.7208 H   0  0  0  0  0  0  0  0  0  0  0  0
   -1.6472   56.6168   75.2322 H   0  0  0  0  0  0  0  0  0  0  0  0
   -0.8777   55.7593   77.4577 H   0  0  0  0  0  0  0  0  0  0  0  0
   -0.8051   57.5251   77.0593 H   0  0  0  0  0  0  0  0  0  0  0  0
   -1.7689   56.7765   79.3721 H   0  0  0  0  0  0  0  0  0  0  0  0
   -2.6185   58.0447   78.4254 H   0  0  0  0  0  0  0  0  0  0  0  0
   -3.2371   56.3583   78.4254 H   0  0  0  0  0  0  0  0  0  0  0  0
   -4.2957   56.9182   75.3894 H   0  0  0  0  0  0  0  0  0  0  0  0
   -3.7283   57.7020   76.9371 H   0  0  0  0  0  0  0  0  0  0  0  0
   -1.0797   58.0242   74.7611 H   0  0  0  0  0  0  0  0  0  0  0  0
   -0.4579   60.1020   73.5346 H   0  0  0  0  0  0  0  0  0  0  0  0
   -2.1260   61.9294   73.2577 H   0  0  0  0  0  0  0  0  0  0  0  0
   -4.4209   61.6864   74.1954 H   0  0  0  0  0  0  0  0  0  0  0  0
   -7.2912   59.9740   75.4163 H   0  0  0  0  0  0  0  0  0  0  0  0
   -6.2269   60.6426   74.1330 H   0  0  0  0  0  0  0  0  0  0  0  0
   -6.6453   58.8957   74.1330 H   0  0  0  0  0  0  0  0  0  0  0  0
    2.8188   64.7021   71.4436 H   0  0  0  0  0  0  0  0  0  0  0  0
    2.6970   65.3406   69.7381 H   0  0  0  0  0  0  0  0  0  0  0  0
    0.3908   64.1054   69.7508 H   0  0  0  0  0  0  0  0  0  0  0  0
    0.5789   64.2657   71.5611 H   0  0  0  0  0  0  0  0  0  0  0  0
   -0.7651   66.0993   70.4301 H   0  0  0  0  0  0  0  0  0  0  0  0
    0.6324   66.6298   71.4456 H   0  0  0  0  0  0  0  0  0  0  0  0
    1.3068   67.8356   69.6772 H   0  0  0  0  0  0  0  0  0  0  0  0
    1.7208   66.2323   68.9065 H   0  0  0  0  0  0  0  0  0  0  0  0
   -0.1775   66.2101   67.5943 H   0  0  0  0  0  0  0  0  0  0  0  0
   -1.0473   67.3878   68.6653 H   0  0  0  0  0  0  0  0  0  0  0  0
    0.7633   67.8399   66.4742 H   0  0  0  0  0  0  0  0  0  0  0  0
   -1.0805   69.8482   67.6080 H   0  0  0  0  0  0  0  0  0  0  0  0
   -0.5559   69.6071   65.9001 H   0  0  0  0  0  0  0  0  0  0  0  0
   -2.4741   67.9057   67.5479 H   0  0  0  0  0  0  0  0  0  0  0  0
   -2.7949   68.7833   66.0138 H   0  0  0  0  0  0  0  0  0  0  0  0
   -1.7365   67.3319   66.0138 H   0  0  0  0  0  0  0  0  0  0  0  0
    0.9782   70.1320   68.1569 H   0  0  0  0  0  0  0  0  0  0  0  0
    1.6915   68.6362   68.9171 H   0  0  0  0  0  0  0  0  0  0  0  0
    5.8454   70.5036   67.2521 H   0  0  0  0  0  0  0  0  0  0  0  0
    5.8229   69.6590   64.9098 H   0  0  0  0  0  0  0  0  0  0  0  0
    3.7853   68.5607   63.9917 H   0  0  0  0  0  0  0  0  0  0  0  0
    1.7523   68.3238   65.4121 H   0  0  0  0  0  0  0  0  0  0  0  0
    4.7901   70.6089   70.7095 H   0  0  0  0  0  0  0  0  0  0  0  0
    5.7138   69.9169   69.3330 H   0  0  0  0  0  0  0  0  0  0  0  0
    5.2714   71.6579   69.3330 H   0  0  0  0  0  0  0  0  0  0  0  0
  2  1  2  0
  3  1  1  0
  4  3  1  0
  5  4  1  0
  6  5  1  0
  7  6  1  0
  8  7  1  0
  8  3  1  0
  9  6  1  0
 10  9  1  0
 11 10  1  0
 12 11  1  0
 13 12  1  0
 14 13  1  0
 14  9  1  0
 15 12  1  0
 16 15  2  0
 17 15  1  0
 18 17  1  0
 19 18  1  0
 20 19  1  0
 21 20  1  0
 22 21  1  0
 23 22  1  0
 24 23  1  0
 25 22  1  0
 26 25  1  0
 27 26  2  0
 28 27  1  0
 29 28  2  0
 30 29  1  0
 31 30  2  0
 31 26  1  0
 32 31  1  0
 33 32  1  0
 34  1  1  0
 35 34  1  0
 36 35  1  0
 37 36  1  0
 38 37  1  0
 39 38  1  0
 40 39  1  0
 41 40  1  0
 42 39  1  0
 44 43  2  0
 45 44  1  0
 46 45  2  0
 47 46  1  0
 48 47  2  0
 48 43  1  0
 48 42  1  0
 50 49  1  0
 50 43  1  0
  4 51  1  0
  4 52  1  0
  5 53  1  0
  5 54  1  0
  6 55  1  0
  7 56  1  0
  7 57  1  0
  8 58  1  0
  8 59  1  0
  9 60  1  0
 10 61  1  0
 10 62  1  0
 11 63  1  0
 11 64  1  0
 13 65  1  0
 13 66  1  0
 14 67  1  0
 14 68  1  0
 17 69  1  0
 17 70  1  0
 18 71  1  0
 18 72  1  0
 19 73  1  0
 19 74  1  0
 20 75  1  0
 20 76  1  0
 21 77  1  0
 21 78  1  0
 22 79  1  6
 23 80  1  0
 23 81  1  0
 24 82  1  0
 24 83  1  0
 24 84  1  0
 25 85  1  0
 25 86  1  0
 27 87  1  0
 28 88  1  0
 29 89  1  0
 30 90  1  0
 33 91  1  0
 33 92  1  0
 33 93  1  0
 34 94  1  0
 34 95  1  0
 35 96  1  0
 35 97  1  0
 36 98  1  0
 36 99  1  0
 37100  1  0
 37101  1  0
 38102  1  0
 38103  1  0
 39104  1  6
 40105  1  0
 40106  1  0
 41107  1  0
 41108  1  0
 41109  1  0
 42110  1  0
 42111  1  0
 44112  1  0
 45113  1  0
 46114  1  0
 47115  1  0
 49116  1  0
 49117  1  0
 49118  1  0
M  CHG  2  22   1  39   1
M  END
>  <score>  (4) 
-8.537

$$$$
=
     RDKit          3D

118121  0  0  0  0  0  0  0  0999 V2000
    2.4880   62.8040   70.0360 C   0  0  0  0  0  0  0  0  0  0  0  0
    2.2560   62.2990   68.9350 O   0  0  0  0  0  0  0  0  0  0  0  0
    2.9430   62.0450   71.1050 N   0  0  0  0  0  0  0  0  0  0  0  0
    3.1240   60.6110   70.8880 C   0  0  0  0  0  0  0  0  0  0  0  0
    3.4040   59.8320   72.1770 C   0  0  0  0  0  0  0  0  0  0  0  0
    2.4850   60.3250   73.3040 C   0  0  0  0  0  0  0  0  0  0  0  0
    2.6890   61.8390   73.5530 C   0  0  0  0  0  0  0  0  0  0  0  0
    3.3810   62.5640   72.3960 C   0  0  0  0  0  0  0  0  0  0  0  0
    2.5590   59.5060   74.6210 C   0  0  0  0  0  0  0  0  0  0  0  0
    3.9390   58.8590   74.8270 C   0  0  0  0  0  0  0  0  0  0  0  0
    3.9390   57.9850   76.0800 C   0  0  0  0  0  0  0  0  0  0  0  0
    3.4010   58.6660   77.2580 N   0  0  0  0  0  0  0  0  0  0  0  0
    3.0240   60.0670   77.0940 C   0  0  0  0  0  0  0  0  0  0  0  0
    2.1110   60.2760   75.8840 C   0  0  0  0  0  0  0  0  0  0  0  0
    3.3690   58.0910   78.5220 C   0  0  0  0  0  0  0  0  0  0  0  0
    3.0140   58.7110   79.5300 O   0  0  0  0  0  0  0  0  0  0  0  0
    3.7960   56.6270   78.6150 C   0  0  0  0  0  0  0  0  0  0  0  0
    2.6270   55.7090   78.9860 C   0  0  0  0  0  0  0  0  0  0  0  0
    1.6840   55.4570   77.8010 C   0  0  0  0  0  0  0  0  0  0  0  0
    0.2670   55.0660   78.2330 C   0  0  0  0  0  0  0  0  0  0  0  0
   -0.1760   53.7470   77.5940 C   0  0  0  0  0  0  0  0  0  0  0  0
   -1.5640   53.8290   76.9910 N   0  0  2  0  0  4  0  0  0  0  0  0
   -2.5670   52.8010   77.4750 C   0  0  0  0  0  0  0  0  0  0  0  0
   -3.5110   52.3790   76.3640 C   0  0  0  0  0  0  0  0  0  0  0  0
   -1.5250   53.9110   75.4720 C   0  0  0  0  0  0  0  0  0  0  0  0
   -1.1450   55.2770   74.9580 C   0  0  0  0  0  0  0  0  0  0  0  0
   -1.8990   56.3960   75.3550 C   0  0  0  0  0  0  0  0  0  0  0  0
   -1.5760   57.6680   74.8860 C   0  0  0  0  0  0  0  0  0  0  0  0
   -0.5040   57.8330   74.0150 C   0  0  0  0  0  0  0  0  0  0  0  0
    0.2510   56.7300   73.6110 C   0  0  0  0  0  0  0  0  0  0  0  0
   -0.0600   55.4500   74.0780 C   0  0  0  0  0  0  0  0  0  0  0  0
    0.6050   54.3060   73.7210 O   0  0  0  0  0  0  0  0  0  0  0  0
    1.8430   54.0450   74.3790 C   0  0  0  0  0  0  0  0  0  0  0  0
    2.2930   64.2970   70.2690 C   0  0  0  0  0  0  0  0  0  0  0  0
    0.9430   64.6390   70.9100 C   0  0  0  0  0  0  0  0  0  0  0  0
    0.2790   65.8860   70.3110 C   0  0  0  0  0  0  0  0  0  0  0  0
    1.2850   66.7000   69.4880 C   0  0  0  0  0  0  0  0  0  0  0  0
    0.6300   67.5630   68.4080 C   0  0  0  0  0  0  0  0  0  0  0  0
    1.6030   67.9210   67.3060 N   0  0  1  0  0  4  0  0  0  0  0  0
    1.1870   67.3620   65.9570 C   0  0  0  0  0  0  0  0  0  0  0  0
    2.3090   66.5280   65.3610 C   0  0  0  0  0  0  0  0  0  0  0  0
    1.8380   69.4250   67.2290 C   0  0  0  0  0  0  0  0  0  0  0  0
    4.3060   69.8290   66.7780 C   0  0  0  0  0  0  0  0  0  0  0  0
    5.5760   70.1960   67.2340 C   0  0  0  0  0  0  0  0  0  0  0  0
    5.7690   70.5680   68.5660 C   0  0  0  0  0  0  0  0  0  0  0  0
    4.6980   70.5780   69.4540 C   0  0  0  0  0  0  0  0  0  0  0  0
    3.4290   70.2090   69.0130 C   0  0  0  0  0  0  0  0  0  0  0  0
    3.2210   69.8280   67.6740 C   0  0  0  0  0  0  0  0  0  0  0  0
    5.1010   69.4360   64.5630 C   0  0  0  0  0  0  0  0  0  0  0  0
    4.0220   69.4360   65.4970 O   0  0  0  0  0  0  0  0  0  0  0  0
    2.2083   60.2093   70.4296 H   0  0  0  0  0  0  0  0  0  0  0  0
    4.0024   60.4890   70.2372 H   0  0  0  0  0  0  0  0  0  0  0  0
    3.2219   58.7615   72.0016 H   0  0  0  0  0  0  0  0  0  0  0  0
    4.4516   59.9909   72.4724 H   0  0  0  0  0  0  0  0  0  0  0  0
    1.4605   60.1544   72.9417 H   0  0  0  0  0  0  0  0  0  0  0  0
    1.7035   62.3008   73.7127 H   0  0  0  0  0  0  0  0  0  0  0  0
    3.3443   61.9354   74.4313 H   0  0  0  0  0  0  0  0  0  0  0  0
    3.1412   63.6361   72.4508 H   0  0  0  0  0  0  0  0  0  0  0  0
    4.4653   62.4017   72.4847 H   0  0  0  0  0  0  0  0  0  0  0  0
    1.8177   58.7048   74.4847 H   0  0  0  0  0  0  0  0  0  0  0  0
    4.1816   58.2376   73.9523 H   0  0  0  0  0  0  0  0  0  0  0  0
    4.6898   59.6538   74.9478 H   0  0  0  0  0  0  0  0  0  0  0  0
    3.3280   57.0917   75.8831 H   0  0  0  0  0  0  0  0  0  0  0  0
    4.9860   57.7293   76.3001 H   0  0  0  0  0  0  0  0  0  0  0  0
    2.4962   60.4012   77.9994 H   0  0  0  0  0  0  0  0  0  0  0  0
    3.9427   60.6498   76.9317 H   0  0  0  0  0  0  0  0  0  0  0  0
    1.0981   59.9414   76.1525 H   0  0  0  0  0  0  0  0  0  0  0  0
    2.1501   61.3469   75.6357 H   0  0  0  0  0  0  0  0  0  0  0  0
    4.1990   56.3124   77.6410 H   0  0  0  0  0  0  0  0  0  0  0  0
    4.5558   56.5450   79.4062 H   0  0  0  0  0  0  0  0  0  0  0  0
    3.0298   54.7445   79.3286 H   0  0  0  0  0  0  0  0  0  0  0  0
    2.0470   56.2065   79.7772 H   0  0  0  0  0  0  0  0  0  0  0  0
    1.6254   56.3756   77.1987 H   0  0  0  0  0  0  0  0  0  0  0  0
    2.0963   54.6139   77.2273 H   0  0  0  0  0  0  0  0  0  0  0  0
    0.2453   54.9570   79.3274 H   0  0  0  0  0  0  0  0  0  0  0  0
   -0.4228   55.8562   77.9019 H   0  0  0  0  0  0  0  0  0  0  0  0
    0.5380   53.4828   76.8000 H   0  0  0  0  0  0  0  0  0  0  0  0
   -0.2015   52.9847   78.3866 H   0  0  0  0  0  0  0  0  0  0  0  0
   -1.9306   54.7183   77.3593 H   0  0  0  0  0  0  0  0  0  0  0  0
   -2.0245   51.9158   77.8386 H   0  0  0  0  0  0  0  0  0  0  0  0
   -3.1631   53.2534   78.2812 H   0  0  0  0  0  0  0  0  0  0  0  0
   -4.4321   51.9672   76.8022 H   0  0  0  0  0  0  0  0  0  0  0  0
   -3.7591   53.2519   75.7423 H   0  0  0  0  0  0  0  0  0  0  0  0
   -3.0260   51.6120   75.7423 H   0  0  0  0  0  0  0  0  0  0  0  0
   -0.7896   53.1816   75.1017 H   0  0  0  0  0  0  0  0  0  0  0  0
   -2.5407   53.6968   75.1079 H   0  0  0  0  0  0  0  0  0  0  0  0
   -2.7495   56.2663   76.0404 H   0  0  0  0  0  0  0  0  0  0  0  0
   -2.1673   58.5394   75.2038 H   0  0  0  0  0  0  0  0  0  0  0  0
   -0.2500   58.8365   73.6430 H   0  0  0  0  0  0  0  0  0  0  0  0
    1.0960   56.8695   72.9207 H   0  0  0  0  0  0  0  0  0  0  0  0
    1.6931   54.0766   75.4683 H   0  0  0  0  0  0  0  0  0  0  0  0
    2.2101   53.0497   74.0881 H   0  0  0  0  0  0  0  0  0  0  0  0
    2.5807   54.8074   74.0881 H   0  0  0  0  0  0  0  0  0  0  0  0
    3.0948   64.6547   70.9316 H   0  0  0  0  0  0  0  0  0  0  0  0
    2.3198   64.7868   69.2845 H   0  0  0  0  0  0  0  0  0  0  0  0
    0.2654   63.7835   70.7720 H   0  0  0  0  0  0  0  0  0  0  0  0
    1.1342   64.8529   71.9719 H   0  0  0  0  0  0  0  0  0  0  0  0
   -0.5508   65.5744   69.6596 H   0  0  0  0  0  0  0  0  0  0  0  0
   -0.0932   66.5151   71.1330 H   0  0  0  0  0  0  0  0  0  0  0  0
    1.8417   67.3589   70.1706 H   0  0  0  0  0  0  0  0  0  0  0  0
    1.9417   65.9816   68.9754 H   0  0  0  0  0  0  0  0  0  0  0  0
   -0.2132   67.0075   67.9716 H   0  0  0  0  0  0  0  0  0  0  0  0
    0.2882   68.4969   68.8781 H   0  0  0  0  0  0  0  0  0  0  0  0
    2.4971   67.4733   67.5529 H   0  0  0  0  0  0  0  0  0  0  0  0
    0.2951   66.7311   66.0854 H   0  0  0  0  0  0  0  0  0  0  0  0
    0.9637   68.1978   65.2776 H   0  0  0  0  0  0  0  0  0  0  0  0
    2.9061   66.0842   66.1712 H   0  0  0  0  0  0  0  0  0  0  0  0
    1.8807   65.7273   64.7402 H   0  0  0  0  0  0  0  0  0  0  0  0
    2.9523   67.1689   64.7402 H   0  0  0  0  0  0  0  0  0  0  0  0
    1.6964   69.7492   66.1874 H   0  0  0  0  0  0  0  0  0  0  0  0
    1.1199   69.9058   67.9095 H   0  0  0  0  0  0  0  0  0  0  0  0
    6.4285   70.1916   66.5389 H   0  0  0  0  0  0  0  0  0  0  0  0
    6.7722   70.8544   68.9147 H   0  0  0  0  0  0  0  0  0  0  0  0
    4.8527   70.8764   70.5014 H   0  0  0  0  0  0  0  0  0  0  0  0
    2.5833   70.2154   69.7164 H   0  0  0  0  0  0  0  0  0  0  0  0
    5.3782   68.3989   64.3230 H   0  0  0  0  0  0  0  0  0  0  0  0
    4.7904   69.9545   63.6440 H   0  0  0  0  0  0  0  0  0  0  0  0
    5.9660   69.9545   65.0021 H   0  0  0  0  0  0  0  0  0  0  0  0
  2  1  2  0
  3  1  1  0
  4  3  1  0
  5  4  1  0
  6  5  1  0
  7  6  1  0
  8  7  1  0
  8  3  1  0
  9  6  1  0
 10  9  1  0
 11 10  1  0
 12 11  1  0
 13 12  1  0
 14 13  1  0
 14  9  1  0
 15 12  1  0
 16 15  2  0
 17 15  1  0
 18 17  1  0
 19 18  1  0
 20 19  1  0
 21 20  1  0
 22 21  1  0
 23 22  1  0
 24 23  1  0
 25 22  1  0
 26 25  1  0
 27 26  2  0
 28 27  1  0
 29 28  2  0
 30 29  1  0
 31 30  2  0
 31 26  1  0
 32 31  1  0
 33 32  1  0
 34  1  1  0
 35 34  1  0
 36 35  1  0
 37 36  1  0
 38 37  1  0
 39 38  1  0
 40 39  1  0
 41 40  1  0
 42 39  1  0
 44 43  2  0
 45 44  1  0
 46 45  2  0
 47 46  1  0
 48 47  2  0
 48 43  1  0
 48 42  1  0
 50 49  1  0
 50 43  1  0
  4 51  1  0
  4 52  1  0
  5 53  1  0
  5 54  1  0
  6 55  1  0
  7 56  1  0
  7 57  1  0
  8 58  1  0
  8 59  1  0
  9 60  1  0
 10 61  1  0
 10 62  1  0
 11 63  1  0
 11 64  1  0
 13 65  1  0
 13 66  1  0
 14 67  1  0
 14 68  1  0
 17 69  1  0
 17 70  1  0
 18 71  1  0
 18 72  1  0
 19 73  1  0
 19 74  1  0
 20 75  1  0
 20 76  1  0
 21 77  1  0
 21 78  1  0
 22 79  1  1
 23 80  1  0
 23 81  1  0
 24 82  1  0
 24 83  1  0
 24 84  1  0
 25 85  1  0
 25 86  1  0
 27 87  1  0
 28 88  1  0
 29 89  1  0
 30 90  1  0
 33 91  1  0
 33 92  1  0
 33 93  1  0
 34 94  1  0
 34 95  1  0
 35 96  1  0
 35 97  1  0
 36 98  1  0
 36 99  1  0
 37100  1  0
 37101  1  0
 38102  1  0
 38103  1  0
 39104  1  1
 40105  1  0
 40106  1  0
 41107  1  0
 41108  1  0
 41109  1  0
 42110  1  0
 42111  1  0
 44112  1  0
 45113  1  0
 46114  1  0
 47115  1  0
 49116  1  0
 49117  1  0
 49118  1  0
M  CHG  2  22   1  39   1
M  END
>  <score>  (5) 
-8.186

$$$$
=
     RDKit          3D

118121  0  0  0  0  0  0  0  0999 V2000
    2.7640   61.9150   70.8300 C   0  0  0  0  0  0  0  0  0  0  0  0
    2.9510   61.8040   69.6170 O   0  0  0  0  0  0  0  0  0  0  0  0
    2.7860   60.8150   71.6760 N   0  0  0  0  0  0  0  0  0  0  0  0
    3.0220   59.5040   71.0740 C   0  0  0  0  0  0  0  0  0  0  0  0
    2.8000   58.3410   72.0450 C   0  0  0  0  0  0  0  0  0  0  0  0
    1.5330   58.5810   72.8790 C   0  0  0  0  0  0  0  0  0  0  0  0
    1.6430   59.9080   73.6690 C   0  0  0  0  0  0  0  0  0  0  0  0
    2.7190   60.8550   73.1330 C   0  0  0  0  0  0  0  0  0  0  0  0
    1.1090   57.3980   73.7900 C   0  0  0  0  0  0  0  0  0  0  0  0
   -0.0510   56.5870   73.1900 C   0  0  0  0  0  0  0  0  0  0  0  0
   -0.5000   55.4950   74.1600 C   0  0  0  0  0  0  0  0  0  0  0  0
    0.6080   54.6890   74.6740 N   0  0  0  0  0  0  0  0  0  0  0  0
    1.9370   54.9810   74.1440 C   0  0  0  0  0  0  0  0  0  0  0  0
    2.2700   56.4730   74.2230 C   0  0  0  0  0  0  0  0  0  0  0  0
    0.4310   53.5970   75.5140 C   0  0  0  0  0  0  0  0  0  0  0  0
    1.3590   52.8580   75.8550 O   0  0  0  0  0  0  0  0  0  0  0  0
   -0.9920   53.3460   76.0120 C   0  0  0  0  0  0  0  0  0  0  0  0
   -1.1600   53.7250   77.4870 C   0  0  0  0  0  0  0  0  0  0  0  0
   -1.0470   55.2390   77.7160 C   0  0  0  0  0  0  0  0  0  0  0  0
    0.2060   55.6350   78.5040 C   0  0  0  0  0  0  0  0  0  0  0  0
    0.0640   57.0260   79.1300 C   0  0  0  0  0  0  0  0  0  0  0  0
    0.5160   58.1330   78.1990 N   0  0  2  0  0  4  0  0  0  0  0  0
    1.9500   58.5970   78.3540 C   0  0  0  0  0  0  0  0  0  0  0  0
    2.5330   59.0550   77.0300 C   0  0  0  0  0  0  0  0  0  0  0  0
   -0.4580   59.3020   78.1830 C   0  0  0  0  0  0  0  0  0  0  0  0
   -1.0240   59.5890   76.8150 C   0  0  0  0  0  0  0  0  0  0  0  0
   -1.7230   58.5760   76.1340 C   0  0  0  0  0  0  0  0  0  0  0  0
   -2.2460   58.8110   74.8630 C   0  0  0  0  0  0  0  0  0  0  0  0
   -2.0730   60.0530   74.2630 C   0  0  0  0  0  0  0  0  0  0  0  0
   -1.3780   61.0660   74.9260 C   0  0  0  0  0  0  0  0  0  0  0  0
   -0.8520   60.8440   76.2020 C   0  0  0  0  0  0  0  0  0  0  0  0
   -0.1370   61.7660   76.9230 O   0  0  0  0  0  0  0  0  0  0  0  0
    0.7590   62.6020   76.1940 C   0  0  0  0  0  0  0  0  0  0  0  0
    2.5090   63.2780   71.4610 C   0  0  0  0  0  0  0  0  0  0  0  0
    2.0780   64.3450   70.4470 C   0  0  0  0  0  0  0  0  0  0  0  0
    0.5630   64.5870   70.4180 C   0  0  0  0  0  0  0  0  0  0  0  0
    0.2510   66.0850   70.3200 C   0  0  0  0  0  0  0  0  0  0  0  0
    1.2600   66.8630   69.4730 C   0  0  0  0  0  0  0  0  0  0  0  0
    0.6700   67.2910   68.1470 N   0  0  1  0  0  4  0  0  0  0  0  0
   -0.7890   66.8960   68.0040 C   0  0  0  0  0  0  0  0  0  0  0  0
   -1.4880   67.8080   67.0100 C   0  0  0  0  0  0  0  0  0  0  0  0
    0.8620   68.7840   67.9030 C   0  0  0  0  0  0  0  0  0  0  0  0
    2.6110   68.7440   66.0590 C   0  0  0  0  0  0  0  0  0  0  0  0
    3.8920   69.0630   65.5990 C   0  0  0  0  0  0  0  0  0  0  0  0
    4.7850   69.7570   66.4170 C   0  0  0  0  0  0  0  0  0  0  0  0
    4.4080   70.1410   67.7000 C   0  0  0  0  0  0  0  0  0  0  0  0
    3.1360   69.8240   68.1730 C   0  0  0  0  0  0  0  0  0  0  0  0
    2.2280   69.1200   67.3590 C   0  0  0  0  0  0  0  0  0  0  0  0
    1.3430   68.5650   64.0460 C   0  0  0  0  0  0  0  0  0  0  0  0
    1.6730   68.0540   65.3380 O   0  0  0  0  0  0  0  0  0  0  0  0
    2.3367   59.3829   70.2221 H   0  0  0  0  0  0  0  0  0  0  0  0
    4.0774   59.4731   70.7657 H   0  0  0  0  0  0  0  0  0  0  0  0
    2.6878   57.4074   71.4742 H   0  0  0  0  0  0  0  0  0  0  0  0
    3.6654   58.2668   72.7200 H   0  0  0  0  0  0  0  0  0  0  0  0
    0.7133   58.6617   72.1499 H   0  0  0  0  0  0  0  0  0  0  0  0
    0.6720   60.4226   73.6207 H   0  0  0  0  0  0  0  0  0  0  0  0
    1.9284   59.6467   74.6987 H   0  0  0  0  0  0  0  0  0  0  0  0
    2.4840   61.8810   73.4524 H   0  0  0  0  0  0  0  0  0  0  0  0
    3.6923   60.5348   73.5331 H   0  0  0  0  0  0  0  0  0  0  0  0
    0.7524   57.8792   74.7127 H   0  0  0  0  0  0  0  0  0  0  0  0
   -0.8965   57.2607   72.9871 H   0  0  0  0  0  0  0  0  0  0  0  0
    0.2908   56.1149   72.2571 H   0  0  0  0  0  0  0  0  0  0  0  0
   -1.0100   55.9710   75.0105 H   0  0  0  0  0  0  0  0  0  0  0  0
   -1.1662   54.8184   73.6047 H   0  0  0  0  0  0  0  0  0  0  0  0
    2.6827   54.4193   74.7257 H   0  0  0  0  0  0  0  0  0  0  0  0
    1.9534   54.6845   73.0848 H   0  0  0  0  0  0  0  0  0  0  0  0
    2.5354   56.7140   75.2629 H   0  0  0  0  0  0  0  0  0  0  0  0
    3.0993   56.6525   73.5230 H   0  0  0  0  0  0  0  0  0  0  0  0
   -1.6899   53.9460   75.4096 H   0  0  0  0  0  0  0  0  0  0  0  0
   -1.2020   52.2709   75.9118 H   0  0  0  0  0  0  0  0  0  0  0  0
   -2.1502   53.3885   77.8281 H   0  0  0  0  0  0  0  0  0  0  0  0
   -0.3529   53.2377   78.0537 H   0  0  0  0  0  0  0  0  0  0  0  0
   -1.0181   55.7401   76.7372 H   0  0  0  0  0  0  0  0  0  0  0  0
   -1.9198   55.5472   78.3104 H   0  0  0  0  0  0  0  0  0  0  0  0
    0.3715   54.8988   79.3044 H   0  0  0  0  0  0  0  0  0  0  0  0
    1.0571   55.6571   77.8075 H   0  0  0  0  0  0  0  0  0  0  0  0
   -0.9930   57.1908   79.3862 H   0  0  0  0  0  0  0  0  0  0  0  0
    0.7073   57.0573   80.0217 H   0  0  0  0  0  0  0  0  0  0  0  0
    0.5054   57.6819   77.2731 H   0  0  0  0  0  0  0  0  0  0  0  0
    1.9795   59.4347   79.0663 H   0  0  0  0  0  0  0  0  0  0  0  0
    2.5489   57.7501   78.7201 H   0  0  0  0  0  0  0  0  0  0  0  0
    3.3854   59.7247   77.2168 H   0  0  0  0  0  0  0  0  0  0  0  0
    2.8729   58.1799   76.4567 H   0  0  0  0  0  0  0  0  0  0  0  0
    1.7632   59.5924   76.4567 H   0  0  0  0  0  0  0  0  0  0  0  0
   -1.2907   59.0719   78.8640 H   0  0  0  0  0  0  0  0  0  0  0  0
    0.1008   60.1956   78.4981 H   0  0  0  0  0  0  0  0  0  0  0  0
   -1.8579   57.5922   76.6071 H   0  0  0  0  0  0  0  0  0  0  0  0
   -2.7940   58.0157   74.3365 H   0  0  0  0  0  0  0  0  0  0  0  0
   -2.4859   60.2385   73.2605 H   0  0  0  0  0  0  0  0  0  0  0  0
   -1.2435   62.0444   74.4416 H   0  0  0  0  0  0  0  0  0  0  0  0
    1.3771   63.1787   76.8978 H   0  0  0  0  0  0  0  0  0  0  0  0
    1.4083   61.9794   75.5609 H   0  0  0  0  0  0  0  0  0  0  0  0
    0.1829   63.2928   75.5609 H   0  0  0  0  0  0  0  0  0  0  0  0
    1.7144   63.1709   72.2141 H   0  0  0  0  0  0  0  0  0  0  0  0
    3.4578   63.6144   71.9044 H   0  0  0  0  0  0  0  0  0  0  0  0
    2.5766   65.2911   70.7043 H   0  0  0  0  0  0  0  0  0  0  0  0
    2.3657   63.9786   69.4505 H   0  0  0  0  0  0  0  0  0  0  0  0
    0.1324   64.0715   69.5469 H   0  0  0  0  0  0  0  0  0  0  0  0
    0.1265   64.1968   71.3492 H   0  0  0  0  0  0  0  0  0  0  0  0
   -0.7462   66.2046   69.8713 H   0  0  0  0  0  0  0  0  0  0  0  0
    0.3005   66.4938   71.3400 H   0  0  0  0  0  0  0  0  0  0  0  0
    1.5750   67.7589   70.0282 H   0  0  0  0  0  0  0  0  0  0  0  0
    2.1158   66.2027   69.2689 H   0  0  0  0  0  0  0  0  0  0  0  0
    1.1907   66.7809   67.4192 H   0  0  0  0  0  0  0  0  0  0  0  0
   -0.8503   65.8569   67.6482 H   0  0  0  0  0  0  0  0  0  0  0  0
   -1.2822   66.9893   68.9828 H   0  0  0  0  0  0  0  0  0  0  0  0
   -2.0694   68.5666   67.5545 H   0  0  0  0  0  0  0  0  0  0  0  0
   -0.7375   68.3052   66.3779 H   0  0  0  0  0  0  0  0  0  0  0  0
   -2.1632   67.2125   66.3779 H   0  0  0  0  0  0  0  0  0  0  0  0
    0.1040   69.1217   67.1809 H   0  0  0  0  0  0  0  0  0  0  0  0
    0.7593   69.2924   68.8730 H   0  0  0  0  0  0  0  0  0  0  0  0
    4.1983   68.7650   64.5854 H   0  0  0  0  0  0  0  0  0  0  0  0
    5.7912   70.0014   66.0457 H   0  0  0  0  0  0  0  0  0  0  0  0
    5.1122   70.6935   68.3395 H   0  0  0  0  0  0  0  0  0  0  0  0
    2.8395   70.1256   69.1885 H   0  0  0  0  0  0  0  0  0  0  0  0
    0.7492   69.4844   64.1560 H   0  0  0  0  0  0  0  0  0  0  0  0
    2.2673   68.7893   63.4934 H   0  0  0  0  0  0  0  0  0  0  0  0
    0.7583   67.8149   63.4934 H   0  0  0  0  0  0  0  0  0  0  0  0
  2  1  2  0
  3  1  1  0
  4  3  1  0
  5  4  1  0
  6  5  1  0
  7  6  1  0
  8  7  1  0
  8  3  1  0
  9  6  1  0
 10  9  1  0
 11 10  1  0
 12 11  1  0
 13 12  1  0
 14 13  1  0
 14  9  1  0
 15 12  1  0
 16 15  2  0
 17 15  1  0
 18 17  1  0
 19 18  1  0
 20 19  1  0
 21 20  1  0
 22 21  1  0
 23 22  1  0
 24 23  1  0
 25 22  1  0
 26 25  1  0
 27 26  2  0
 28 27  1  0
 29 28  2  0
 30 29  1  0
 31 30  2  0
 31 26  1  0
 32 31  1  0
 33 32  1  0
 34  1  1  0
 35 34  1  0
 36 35  1  0
 37 36  1  0
 38 37  1  0
 39 38  1  0
 40 39  1  0
 41 40  1  0
 42 39  1  0
 44 43  2  0
 45 44  1  0
 46 45  2  0
 47 46  1  0
 48 47  2  0
 48 43  1  0
 48 42  1  0
 50 49  1  0
 50 43  1  0
  4 51  1  0
  4 52  1  0
  5 53  1  0
  5 54  1  0
  6 55  1  0
  7 56  1  0
  7 57  1  0
  8 58  1  0
  8 59  1  0
  9 60  1  0
 10 61  1  0
 10 62  1  0
 11 63  1  0
 11 64  1  0
 13 65  1  0
 13 66  1  0
 14 67  1  0
 14 68  1  0
 17 69  1  0
 17 70  1  0
 18 71  1  0
 18 72  1  0
 19 73  1  0
 19 74  1  0
 20 75  1  0
 20 76  1  0
 21 77  1  0
 21 78  1  0
 22 79  1  6
 23 80  1  0
 23 81  1  0
 24 82  1  0
 24 83  1  0
 24 84  1  0
 25 85  1  0
 25 86  1  0
 27 87  1  0
 28 88  1  0
 29 89  1  0
 30 90  1  0
 33 91  1  0
 33 92  1  0
 33 93  1  0
 34 94  1  0
 34 95  1  0
 35 96  1  0
 35 97  1  0
 36 98  1  0
 36 99  1  0
 37100  1  0
 37101  1  0
 38102  1  0
 38103  1  0
 39104  1  6
 40105  1  0
 40106  1  0
 41107  1  0
 41108  1  0
 41109  1  0
 42110  1  0
 42111  1  0
 44112  1  0
 45113  1  0
 46114  1  0
 47115  1  0
 49116  1  0
 49117  1  0
 49118  1  0
M  CHG  2  22   1  39   1
M  END
>  <score>  (6) 
-8.075

$$$$
=
     RDKit          3D

118121  0  0  0  0  0  0  0  0999 V2000
    2.2740   63.6660   70.4490 C   0  0  0  0  0  0  0  0  0  0  0  0
    2.8670   63.6890   69.3690 O   0  0  0  0  0  0  0  0  0  0  0  0
    2.4060   62.6040   71.3330 N   0  0  0  0  0  0  0  0  0  0  0  0
    3.2670   61.4930   70.9300 C   0  0  0  0  0  0  0  0  0  0  0  0
    3.1660   60.2800   71.8590 C   0  0  0  0  0  0  0  0  0  0  0  0
    1.6990   60.0150   72.2290 C   0  0  0  0  0  0  0  0  0  0  0  0
    1.0780   61.2550   72.9190 C   0  0  0  0  0  0  0  0  0  0  0  0
    1.8660   62.5460   72.6870 C   0  0  0  0  0  0  0  0  0  0  0  0
    1.4480   58.7150   73.0380 C   0  0  0  0  0  0  0  0  0  0  0  0
    2.1680   57.5010   72.4290 C   0  0  0  0  0  0  0  0  0  0  0  0
    1.8170   56.2280   73.1970 C   0  0  0  0  0  0  0  0  0  0  0  0
    1.9710   56.3670   74.6460 N   0  0  0  0  0  0  0  0  0  0  0  0
    2.4980   57.6380   75.1330 C   0  0  0  0  0  0  0  0  0  0  0  0
    1.7390   58.8330   74.5520 C   0  0  0  0  0  0  0  0  0  0  0  0
    1.7760   55.3200   75.5370 C   0  0  0  0  0  0  0  0  0  0  0  0
    2.0140   55.4170   76.7450 O   0  0  0  0  0  0  0  0  0  0  0  0
    1.2390   54.0160   74.9480 C   0  0  0  0  0  0  0  0  0  0  0  0
   -0.1770   53.7020   75.4390 C   0  0  0  0  0  0  0  0  0  0  0  0
   -1.1460   54.8710   75.2110 C   0  0  0  0  0  0  0  0  0  0  0  0
   -2.5930   54.5330   75.5830 C   0  0  0  0  0  0  0  0  0  0  0  0
   -3.0320   55.2570   76.8600 C   0  0  0  0  0  0  0  0  0  0  0  0
   -2.8160   56.7550   76.7830 N   0  0  2  0  0  4  0  0  0  0  0  0
   -2.4210   57.4430   78.0750 C   0  0  0  0  0  0  0  0  0  0  0  0
   -1.9150   56.4490   79.1030 C   0  0  0  0  0  0  0  0  0  0  0  0
   -3.9700   57.4660   76.0930 C   0  0  0  0  0  0  0  0  0  0  0  0
   -3.5460   58.7070   75.3480 C   0  0  0  0  0  0  0  0  0  0  0  0
   -2.2590   58.7650   74.7830 C   0  0  0  0  0  0  0  0  0  0  0  0
   -1.8380   59.9050   74.0990 C   0  0  0  0  0  0  0  0  0  0  0  0
   -2.6940   60.9940   73.9780 C   0  0  0  0  0  0  0  0  0  0  0  0
   -3.9720   60.9520   74.5380 C   0  0  0  0  0  0  0  0  0  0  0  0
   -4.4080   59.8130   75.2220 C   0  0  0  0  0  0  0  0  0  0  0  0
   -5.6330   59.6850   75.8240 O   0  0  0  0  0  0  0  0  0  0  0  0
   -6.7630   59.5370   74.9660 C   0  0  0  0  0  0  0  0  0  0  0  0
    1.3700   64.8180   70.8710 C   0  0  0  0  0  0  0  0  0  0  0  0
    1.4670   66.0360   69.9430 C   0  0  0  0  0  0  0  0  0  0  0  0
    0.1070   66.5180   69.4210 C   0  0  0  0  0  0  0  0  0  0  0  0
    0.2860   67.5740   68.3230 C   0  0  0  0  0  0  0  0  0  0  0  0
   -0.3880   67.1970   67.0010 C   0  0  0  0  0  0  0  0  0  0  0  0
    0.5140   67.4570   65.8150 N   0  0  1  0  0  4  0  0  0  0  0  0
   -0.0530   68.5000   64.8690 C   0  0  0  0  0  0  0  0  0  0  0  0
   -1.4280   68.9450   65.3380 C   0  0  0  0  0  0  0  0  0  0  0  0
    1.9280   67.8220   66.2530 C   0  0  0  0  0  0  0  0  0  0  0  0
    3.2520   66.6690   64.4150 C   0  0  0  0  0  0  0  0  0  0  0  0
    4.1780   66.7310   63.3700 C   0  0  0  0  0  0  0  0  0  0  0  0
    4.7590   67.9480   63.0110 C   0  0  0  0  0  0  0  0  0  0  0  0
    4.4210   69.1150   63.6890 C   0  0  0  0  0  0  0  0  0  0  0  0
    3.5020   69.0660   64.7360 C   0  0  0  0  0  0  0  0  0  0  0  0
    2.9110   67.8440   65.1100 C   0  0  0  0  0  0  0  0  0  0  0  0
    3.3840   64.3090   64.7380 C   0  0  0  0  0  0  0  0  0  0  0  0
    2.6410   65.5220   64.8480 O   0  0  0  0  0  0  0  0  0  0  0  0
    2.9809   61.1801   69.9150 H   0  0  0  0  0  0  0  0  0  0  0  0
    4.3055   61.8527   70.9759 H   0  0  0  0  0  0  0  0  0  0  0  0
    3.5772   59.3965   71.3488 H   0  0  0  0  0  0  0  0  0  0  0  0
    3.7364   60.4832   72.7774 H   0  0  0  0  0  0  0  0  0  0  0  0
    1.1828   59.8371   71.2741 H   0  0  0  0  0  0  0  0  0  0  0  0
    0.0588   61.3953   72.5296 H   0  0  0  0  0  0  0  0  0  0  0  0
    1.0901   61.0607   74.0016 H   0  0  0  0  0  0  0  0  0  0  0  0
    1.1981   63.4059   72.8431 H   0  0  0  0  0  0  0  0  0  0  0  0
    2.7065   62.5708   73.3962 H   0  0  0  0  0  0  0  0  0  0  0  0
    0.3635   58.5501   72.9564 H   0  0  0  0  0  0  0  0  0  0  0  0
    1.8597   57.3867   71.3793 H   0  0  0  0  0  0  0  0  0  0  0  0
    3.2540   57.6647   72.4905 H   0  0  0  0  0  0  0  0  0  0  0  0
    0.7708   55.9663   72.9802 H   0  0  0  0  0  0  0  0  0  0  0  0
    2.5159   55.4449   72.8679 H   0  0  0  0  0  0  0  0  0  0  0  0
    2.4120   57.6615   76.2294 H   0  0  0  0  0  0  0  0  0  0  0  0
    3.5482   57.7149   74.8148 H   0  0  0  0  0  0  0  0  0  0  0  0
    0.7800   58.9253   75.0828 H   0  0  0  0  0  0  0  0  0  0  0  0
    2.3824   59.7151   74.6854 H   0  0  0  0  0  0  0  0  0  0  0  0
    1.2232   54.1021   73.8515 H   0  0  0  0  0  0  0  0  0  0  0  0
    1.8996   53.1994   75.2748 H   0  0  0  0  0  0  0  0  0  0  0  0
   -0.5519   52.8211   74.8973 H   0  0  0  0  0  0  0  0  0  0  0  0
   -0.1239   53.5155   76.5218 H   0  0  0  0  0  0  0  0  0  0  0  0
   -0.8169   55.7232   75.8237 H   0  0  0  0  0  0  0  0  0  0  0  0
   -1.1298   55.1059   74.1365 H   0  0  0  0  0  0  0  0  0  0  0  0
   -3.2536   54.8347   74.7568 H   0  0  0  0  0  0  0  0  0  0  0  0
   -2.6575   53.4497   75.7627 H   0  0  0  0  0  0  0  0  0  0  0  0
   -4.1022   55.0632   77.0249 H   0  0  0  0  0  0  0  0  0  0  0  0
   -2.4184   54.8736   77.6886 H   0  0  0  0  0  0  0  0  0  0  0  0
   -1.9758   56.8432   76.1938 H   0  0  0  0  0  0  0  0  0  0  0  0
   -1.6261   58.1730   77.8625 H   0  0  0  0  0  0  0  0  0  0  0  0
   -3.3112   57.9413   78.4863 H   0  0  0  0  0  0  0  0  0  0  0  0
   -2.1115   56.8351   80.1141 H   0  0  0  0  0  0  0  0  0  0  0  0
   -2.4337   55.4881   78.9702 H   0  0  0  0  0  0  0  0  0  0  0  0
   -0.8329   56.3030   78.9702 H   0  0  0  0  0  0  0  0  0  0  0  0
   -4.4314   56.7696   75.3773 H   0  0  0  0  0  0  0  0  0  0  0  0
   -4.6741   57.7812   76.8771 H   0  0  0  0  0  0  0  0  0  0  0  0
   -1.5800   57.9052   74.8814 H   0  0  0  0  0  0  0  0  0  0  0  0
   -0.8316   59.9426   73.6565 H   0  0  0  0  0  0  0  0  0  0  0  0
   -2.3624   61.8933   73.4382 H   0  0  0  0  0  0  0  0  0  0  0  0
   -4.6402   61.8203   74.4406 H   0  0  0  0  0  0  0  0  0  0  0  0
   -7.6719   59.4180   75.5740 H   0  0  0  0  0  0  0  0  0  0  0  0
   -6.8608   60.4300   74.3312 H   0  0  0  0  0  0  0  0  0  0  0  0
   -6.6276   58.6489   74.3312 H   0  0  0  0  0  0  0  0  0  0  0  0
    0.3290   64.4624   70.8730 H   0  0  0  0  0  0  0  0  0  0  0  0
    1.6990   65.1418   71.8695 H   0  0  0  0  0  0  0  0  0  0  0  0
    1.9387   66.8601   70.4984 H   0  0  0  0  0  0  0  0  0  0  0  0
    2.0591   65.7296   69.0681 H   0  0  0  0  0  0  0  0  0  0  0  0
   -0.4455   65.6604   69.0095 H   0  0  0  0  0  0  0  0  0  0  0  0
   -0.4503   66.9690   70.2553 H   0  0  0  0  0  0  0  0  0  0  0  0
   -0.1461   68.5216   68.6769 H   0  0  0  0  0  0  0  0  0  0  0  0
    1.3649   67.6571   68.1253 H   0  0  0  0  0  0  0  0  0  0  0  0
   -0.6450   66.1277   67.0249 H   0  0  0  0  0  0  0  0  0  0  0  0
   -1.2886   67.8183   66.8876 H   0  0  0  0  0  0  0  0  0  0  0  0
    0.5637   66.5725   65.2896 H   0  0  0  0  0  0  0  0  0  0  0  0
    0.6202   69.3695   64.8419 H   0  0  0  0  0  0  0  0  0  0  0  0
   -0.1422   68.0611   63.8643 H   0  0  0  0  0  0  0  0  0  0  0  0
   -1.4552   68.9538   66.4376 H   0  0  0  0  0  0  0  0  0  0  0  0
   -1.6356   69.9562   64.9580 H   0  0  0  0  0  0  0  0  0  0  0  0
   -2.1887   68.2472   64.9580 H   0  0  0  0  0  0  0  0  0  0  0  0
    1.9053   68.8199   66.7152 H   0  0  0  0  0  0  0  0  0  0  0  0
    2.2632   67.0495   66.9607 H   0  0  0  0  0  0  0  0  0  0  0  0
    4.4507   65.8142   62.8268 H   0  0  0  0  0  0  0  0  0  0  0  0
    5.4878   67.9848   62.1879 H   0  0  0  0  0  0  0  0  0  0  0  0
    4.8775   70.0731   63.3998 H   0  0  0  0  0  0  0  0  0  0  0  0
    3.2367   69.9883   65.2736 H   0  0  0  0  0  0  0  0  0  0  0  0
    3.6167   63.9291   65.7437 H   0  0  0  0  0  0  0  0  0  0  0  0
    2.7882   63.5622   64.1927 H   0  0  0  0  0  0  0  0  0  0  0  0
    4.3200   64.5005   64.1927 H   0  0  0  0  0  0  0  0  0  0  0  0
  2  1  2  0
  3  1  1  0
  4  3  1  0
  5  4  1  0
  6  5  1  0
  7  6  1  0
  8  7  1  0
  8  3  1  0
  9  6  1  0
 10  9  1  0
 11 10  1  0
 12 11  1  0
 13 12  1  0
 14 13  1  0
 14  9  1  0
 15 12  1  0
 16 15  2  0
 17 15  1  0
 18 17  1  0
 19 18  1  0
 20 19  1  0
 21 20  1  0
 22 21  1  0
 23 22  1  0
 24 23  1  0
 25 22  1  0
 26 25  1  0
 27 26  2  0
 28 27  1  0
 29 28  2  0
 30 29  1  0
 31 30  2  0
 31 26  1  0
 32 31  1  0
 33 32  1  0
 34  1  1  0
 35 34  1  0
 36 35  1  0
 37 36  1  0
 38 37  1  0
 39 38  1  0
 40 39  1  0
 41 40  1  0
 42 39  1  0
 44 43  2  0
 45 44  1  0
 46 45  2  0
 47 46  1  0
 48 47  2  0
 48 43  1  0
 48 42  1  0
 50 49  1  0
 50 43  1  0
  4 51  1  0
  4 52  1  0
  5 53  1  0
  5 54  1  0
  6 55  1  0
  7 56  1  0
  7 57  1  0
  8 58  1  0
  8 59  1  0
  9 60  1  0
 10 61  1  0
 10 62  1  0
 11 63  1  0
 11 64  1  0
 13 65  1  0
 13 66  1  0
 14 67  1  0
 14 68  1  0
 17 69  1  0
 17 70  1  0
 18 71  1  0
 18 72  1  0
 19 73  1  0
 19 74  1  0
 20 75  1  0
 20 76  1  0
 21 77  1  0
 21 78  1  0
 22 79  1  6
 23 80  1  0
 23 81  1  0
 24 82  1  0
 24 83  1  0
 24 84  1  0
 25 85  1  0
 25 86  1  0
 27 87  1  0
 28 88  1  0
 29 89  1  0
 30 90  1  0
 33 91  1  0
 33 92  1  0
 33 93  1  0
 34 94  1  0
 34 95  1  0
 35 96  1  0
 35 97  1  0
 36 98  1  0
 36 99  1  0
 37100  1  0
 37101  1  0
 38102  1  0
 38103  1  0
 39104  1  6
 40105  1  0
 40106  1  0
 41107  1  0
 41108  1  0
 41109  1  0
 42110  1  0
 42111  1  0
 44112  1  0
 45113  1  0
 46114  1  0
 47115  1  0
 49116  1  0
 49117  1  0
 49118  1  0
M  CHG  2  22   1  39   1
M  END
>  <score>  (7) 
-7.967

$$$$
=
     RDKit          3D

118121  0  0  0  0  0  0  0  0999 V2000
    1.6480   64.3360   70.5070 C   0  0  0  0  0  0  0  0  0  0  0  0
    2.3690   64.5800   69.5380 O   0  0  0  0  0  0  0  0  0  0  0  0
    1.9570   63.3310   71.4130 N   0  0  0  0  0  0  0  0  0  0  0  0
    3.1690   62.5500   71.1680 C   0  0  0  0  0  0  0  0  0  0  0  0
    3.2990   61.3280   72.0810 C   0  0  0  0  0  0  0  0  0  0  0  0
    1.9440   60.6160   72.2100 C   0  0  0  0  0  0  0  0  0  0  0  0
    0.8720   61.5800   72.7760 C   0  0  0  0  0  0  0  0  0  0  0  0
    1.2540   63.0580   72.6610 C   0  0  0  0  0  0  0  0  0  0  0  0
    1.9780   59.2700   72.9830 C   0  0  0  0  0  0  0  0  0  0  0  0
    0.5720   58.7880   73.3760 C   0  0  0  0  0  0  0  0  0  0  0  0
    0.6570   57.5150   74.2160 C   0  0  0  0  0  0  0  0  0  0  0  0
    1.5120   56.4870   73.6210 N   0  0  0  0  0  0  0  0  0  0  0  0
    2.0820   56.7830   72.3100 C   0  0  0  0  0  0  0  0  0  0  0  0
    2.7750   58.1470   72.2820 C   0  0  0  0  0  0  0  0  0  0  0  0
    1.6800   55.2240   74.1720 C   0  0  0  0  0  0  0  0  0  0  0  0
    2.3150   54.3270   73.6080 O   0  0  0  0  0  0  0  0  0  0  0  0
    1.0380   54.9860   75.5390 C   0  0  0  0  0  0  0  0  0  0  0  0
   -0.2910   54.2320   75.4260 C   0  0  0  0  0  0  0  0  0  0  0  0
   -1.4110   54.9010   76.2360 C   0  0  0  0  0  0  0  0  0  0  0  0
   -2.2650   55.8600   75.4010 C   0  0  0  0  0  0  0  0  0  0  0  0
   -3.5120   56.3180   76.1640 C   0  0  0  0  0  0  0  0  0  0  0  0
   -4.0680   57.6260   75.6380 N   0  0  2  0  0  4  0  0  0  0  0  0
   -3.2740   58.8740   75.9700 C   0  0  0  0  0  0  0  0  0  0  0  0
   -2.7110   59.5240   74.7190 C   0  0  0  0  0  0  0  0  0  0  0  0
   -5.5450   57.7930   75.9630 C   0  0  0  0  0  0  0  0  0  0  0  0
   -6.1460   59.0480   75.3830 C   0  0  0  0  0  0  0  0  0  0  0  0
   -6.3510   59.1350   73.9930 C   0  0  0  0  0  0  0  0  0  0  0  0
   -6.8930   60.2890   73.4300 C   0  0  0  0  0  0  0  0  0  0  0  0
   -7.2310   61.3640   74.2450 C   0  0  0  0  0  0  0  0  0  0  0  0
   -7.0290   61.2920   75.6250 C   0  0  0  0  0  0  0  0  0  0  0  0
   -6.4900   60.1400   76.2020 C   0  0  0  0  0  0  0  0  0  0  0  0
   -6.2340   59.9830   77.5400 O   0  0  0  0  0  0  0  0  0  0  0  0
   -5.8480   61.1490   78.2660 C   0  0  0  0  0  0  0  0  0  0  0  0
    0.3800   65.1420   70.7630 C   0  0  0  0  0  0  0  0  0  0  0  0
    0.3220   66.4490   69.9630 C   0  0  0  0  0  0  0  0  0  0  0  0
   -0.7140   66.4290   68.8310 C   0  0  0  0  0  0  0  0  0  0  0  0
   -0.2540   67.2970   67.6530 C   0  0  0  0  0  0  0  0  0  0  0  0
    1.0550   68.0420   67.9220 C   0  0  0  0  0  0  0  0  0  0  0  0
    2.0220   67.9170   66.7650 N   0  0  1  0  0  4  0  0  0  0  0  0
    1.4820   67.0440   65.6460 C   0  0  0  0  0  0  0  0  0  0  0  0
    2.6020   66.2270   65.0260 C   0  0  0  0  0  0  0  0  0  0  0  0
    2.4510   69.2820   66.2400 C   0  0  0  0  0  0  0  0  0  0  0  0
    4.9360   69.6540   65.8580 C   0  0  0  0  0  0  0  0  0  0  0  0
    6.1920   70.0290   66.3430 C   0  0  0  0  0  0  0  0  0  0  0  0
    6.3430   70.4470   67.6670 C   0  0  0  0  0  0  0  0  0  0  0  0
    5.2430   70.4960   68.5170 C   0  0  0  0  0  0  0  0  0  0  0  0
    3.9870   70.1190   68.0470 C   0  0  0  0  0  0  0  0  0  0  0  0
    3.8220   69.6920   66.7160 C   0  0  0  0  0  0  0  0  0  0  0  0
    5.5920   68.2510   64.0440 C   0  0  0  0  0  0  0  0  0  0  0  0
    4.6910   69.2180   64.5830 O   0  0  0  0  0  0  0  0  0  0  0  0
    3.1566   62.2053   70.1235 H   0  0  0  0  0  0  0  0  0  0  0  0
    4.0265   63.2059   71.3789 H   0  0  0  0  0  0  0  0  0  0  0  0
    4.0360   60.6320   71.6539 H   0  0  0  0  0  0  0  0  0  0  0  0
    3.6276   61.6578   73.0776 H   0  0  0  0  0  0  0  0  0  0  0  0
    1.6655   60.3282   71.1855 H   0  0  0  0  0  0  0  0  0  0  0  0
   -0.0660   61.4194   72.2243 H   0  0  0  0  0  0  0  0  0  0  0  0
    0.7708   61.3558   73.8481 H   0  0  0  0  0  0  0  0  0  0  0  0
    0.3392   63.6678   72.6971 H   0  0  0  0  0  0  0  0  0  0  0  0
    1.9236   63.3082   73.4971 H   0  0  0  0  0  0  0  0  0  0  0  0
    2.5345   59.4993   73.9037 H   0  0  0  0  0  0  0  0  0  0  0  0
    0.0702   59.5738   73.9597 H   0  0  0  0  0  0  0  0  0  0  0  0
    0.0016   58.5722   72.4605 H   0  0  0  0  0  0  0  0  0  0  0  0
    1.0606   57.7755   75.2055 H   0  0  0  0  0  0  0  0  0  0  0  0
   -0.3588   57.0978   74.2805 H   0  0  0  0  0  0  0  0  0  0  0  0
    2.8182   56.0052   72.0588 H   0  0  0  0  0  0  0  0  0  0  0  0
    1.2605   56.8037   71.5787 H   0  0  0  0  0  0  0  0  0  0  0  0
    3.7499   58.0503   72.7823 H   0  0  0  0  0  0  0  0  0  0  0  0
    2.8691   58.4352   71.2246 H   0  0  0  0  0  0  0  0  0  0  0  0
    1.7296   54.3957   76.1581 H   0  0  0  0  0  0  0  0  0  0  0  0
    0.8345   55.9666   75.9939 H   0  0  0  0  0  0  0  0  0  0  0  0
   -0.5905   54.1995   74.3680 H   0  0  0  0  0  0  0  0  0  0  0  0
   -0.1399   53.2208   75.8319 H   0  0  0  0  0  0  0  0  0  0  0  0
   -2.0642   54.1161   76.6450 H   0  0  0  0  0  0  0  0  0  0  0  0
   -0.9329   55.4936   77.0299 H   0  0  0  0  0  0  0  0  0  0  0  0
   -1.6611   56.7423   75.1425 H   0  0  0  0  0  0  0  0  0  0  0  0
   -2.5928   55.3280   74.4957 H   0  0  0  0  0  0  0  0  0  0  0  0
   -4.2868   55.5428   76.0709 H   0  0  0  0  0  0  0  0  0  0  0  0
   -3.2217   56.4767   77.2131 H   0  0  0  0  0  0  0  0  0  0  0  0
   -3.9632   57.5345   74.6174 H   0  0  0  0  0  0  0  0  0  0  0  0
   -3.9331   59.5919   76.4802 H   0  0  0  0  0  0  0  0  0  0  0  0
   -2.4330   58.5860   76.6178 H   0  0  0  0  0  0  0  0  0  0  0  0
   -2.0155   60.3270   75.0043 H   0  0  0  0  0  0  0  0  0  0  0  0
   -2.1759   58.7700   74.1231 H   0  0  0  0  0  0  0  0  0  0  0  0
   -3.5337   59.9460   74.1231 H   0  0  0  0  0  0  0  0  0  0  0  0
   -6.0909   56.9267   75.5611 H   0  0  0  0  0  0  0  0  0  0  0  0
   -5.6311   57.8666   77.0572 H   0  0  0  0  0  0  0  0  0  0  0  0
   -6.0816   58.2865   73.3469 H   0  0  0  0  0  0  0  0  0  0  0  0
   -7.0531   60.3494   72.3434 H   0  0  0  0  0  0  0  0  0  0  0  0
   -7.6592   62.2747   73.8009 H   0  0  0  0  0  0  0  0  0  0  0  0
   -7.2962   62.1483   76.2617 H   0  0  0  0  0  0  0  0  0  0  0  0
   -5.9147   60.9477   79.3454 H   0  0  0  0  0  0  0  0  0  0  0  0
   -4.8132   61.4169   78.0062 H   0  0  0  0  0  0  0  0  0  0  0  0
   -6.5185   61.9814   78.0062 H   0  0  0  0  0  0  0  0  0  0  0  0
   -0.4879   64.5249   70.4875 H   0  0  0  0  0  0  0  0  0  0  0  0
    0.3742   65.4115   71.8295 H   0  0  0  0  0  0  0  0  0  0  0  0
    0.0687   67.2680   70.6522 H   0  0  0  0  0  0  0  0  0  0  0  0
    1.3085   66.5863   69.4961 H   0  0  0  0  0  0  0  0  0  0  0  0
   -0.8490   65.3938   68.4845 H   0  0  0  0  0  0  0  0  0  0  0  0
   -1.6626   66.8321   69.2154 H   0  0  0  0  0  0  0  0  0  0  0  0
   -0.1120   66.6481   66.7762 H   0  0  0  0  0  0  0  0  0  0  0  0
   -1.0318   68.0568   67.4863 H   0  0  0  0  0  0  0  0  0  0  0  0
    0.8314   69.1066   68.0855 H   0  0  0  0  0  0  0  0  0  0  0  0
    1.5258   67.5953   68.8102 H   0  0  0  0  0  0  0  0  0  0  0  0
    2.8583   67.4441   67.1363 H   0  0  0  0  0  0  0  0  0  0  0  0
    0.7192   66.3638   66.0527 H   0  0  0  0  0  0  0  0  0  0  0  0
    1.0392   67.6883   64.8722 H   0  0  0  0  0  0  0  0  0  0  0  0
    3.2145   65.7802   65.8230 H   0  0  0  0  0  0  0  0  0  0  0  0
    2.1721   65.4289   64.4029 H   0  0  0  0  0  0  0  0  0  0  0  0
    3.2307   66.8801   64.4029 H   0  0  0  0  0  0  0  0  0  0  0  0
    2.4571   69.2486   65.1405 H   0  0  0  0  0  0  0  0  0  0  0  0
    1.7341   70.0225   66.6243 H   0  0  0  0  0  0  0  0  0  0  0  0
    7.0673   69.9947   65.6776 H   0  0  0  0  0  0  0  0  0  0  0  0
    7.3361   70.7387   68.0393 H   0  0  0  0  0  0  0  0  0  0  0  0
    5.3646   70.8315   69.5575 H   0  0  0  0  0  0  0  0  0  0  0  0
    3.1182   70.1553   68.7207 H   0  0  0  0  0  0  0  0  0  0  0  0
    6.0904   67.7161   64.8659 H   0  0  0  0  0  0  0  0  0  0  0  0
    5.0329   67.5336   63.4254 H   0  0  0  0  0  0  0  0  0  0  0  0
    6.3471   68.7581   63.4254 H   0  0  0  0  0  0  0  0  0  0  0  0
  2  1  2  0
  3  1  1  0
  4  3  1  0
  5  4  1  0
  6  5  1  0
  7  6  1  0
  8  7  1  0
  8  3  1  0
  9  6  1  0
 10  9  1  0
 11 10  1  0
 12 11  1  0
 13 12  1  0
 14 13  1  0
 14  9  1  0
 15 12  1  0
 16 15  2  0
 17 15  1  0
 18 17  1  0
 19 18  1  0
 20 19  1  0
 21 20  1  0
 22 21  1  0
 23 22  1  0
 24 23  1  0
 25 22  1  0
 26 25  1  0
 27 26  2  0
 28 27  1  0
 29 28  2  0
 30 29  1  0
 31 30  2  0
 31 26  1  0
 32 31  1  0
 33 32  1  0
 34  1  1  0
 35 34  1  0
 36 35  1  0
 37 36  1  0
 38 37  1  0
 39 38  1  0
 40 39  1  0
 41 40  1  0
 42 39  1  0
 44 43  2  0
 45 44  1  0
 46 45  2  0
 47 46  1  0
 48 47  2  0
 48 43  1  0
 48 42  1  0
 50 49  1  0
 50 43  1  0
  4 51  1  0
  4 52  1  0
  5 53  1  0
  5 54  1  0
  6 55  1  0
  7 56  1  0
  7 57  1  0
  8 58  1  0
  8 59  1  0
  9 60  1  0
 10 61  1  0
 10 62  1  0
 11 63  1  0
 11 64  1  0
 13 65  1  0
 13 66  1  0
 14 67  1  0
 14 68  1  0
 17 69  1  0
 17 70  1  0
 18 71  1  0
 18 72  1  0
 19 73  1  0
 19 74  1  0
 20 75  1  0
 20 76  1  0
 21 77  1  0
 21 78  1  0
 22 79  1  6
 23 80  1  0
 23 81  1  0
 24 82  1  0
 24 83  1  0
 24 84  1  0
 25 85  1  0
 25 86  1  0
 27 87  1  0
 28 88  1  0
 29 89  1  0
 30 90  1  0
 33 91  1  0
 33 92  1  0
 33 93  1  0
 34 94  1  0
 34 95  1  0
 35 96  1  0
 35 97  1  0
 36 98  1  0
 36 99  1  0
 37100  1  0
 37101  1  0
 38102  1  0
 38103  1  0
 39104  1  1
 40105  1  0
 40106  1  0
 41107  1  0
 41108  1  0
 41109  1  0
 42110  1  0
 42111  1  0
 44112  1  0
 45113  1  0
 46114  1  0
 47115  1  0
 49116  1  0
 49117  1  0
 49118  1  0
M  CHG  2  22   1  39   1
M  END
>  <score>  (8) 
-7.882

$$$$
=
     RDKit          3D

118121  0  0  0  0  0  0  0  0999 V2000
    0.1930   64.8890   71.7720 C   0  0  0  0  0  0  0  0  0  0  0  0
   -0.3950   65.8520   72.2690 O   0  0  0  0  0  0  0  0  0  0  0  0
    0.4560   63.7380   72.5020 N   0  0  0  0  0  0  0  0  0  0  0  0
    0.0230   63.7100   73.8990 C   0  0  0  0  0  0  0  0  0  0  0  0
    0.5580   62.5030   74.6750 C   0  0  0  0  0  0  0  0  0  0  0  0
    2.0340   62.2600   74.3270 C   0  0  0  0  0  0  0  0  0  0  0  0
    2.2040   62.0200   72.8070 C   0  0  0  0  0  0  0  0  0  0  0  0
    1.0130   62.4980   71.9730 C   0  0  0  0  0  0  0  0  0  0  0  0
    2.7370   61.1620   75.1700 C   0  0  0  0  0  0  0  0  0  0  0  0
    1.7670   60.4530   76.1300 C   0  0  0  0  0  0  0  0  0  0  0  0
    2.5170   59.4520   77.0060 C   0  0  0  0  0  0  0  0  0  0  0  0
    3.3860   58.5550   76.2430 N   0  0  0  0  0  0  0  0  0  0  0  0
    3.3560   58.6880   74.7890 C   0  0  0  0  0  0  0  0  0  0  0  0
    3.5490   60.1390   74.3430 C   0  0  0  0  0  0  0  0  0  0  0  0
    4.1090   57.5200   76.8210 C   0  0  0  0  0  0  0  0  0  0  0  0
    4.7530   56.7020   76.1580 O   0  0  0  0  0  0  0  0  0  0  0  0
    4.0760   57.4360   78.3470 C   0  0  0  0  0  0  0  0  0  0  0  0
    3.2690   56.2320   78.8410 C   0  0  0  0  0  0  0  0  0  0  0  0
    1.7880   56.3220   78.4460 C   0  0  0  0  0  0  0  0  0  0  0  0
    1.2810   55.0670   77.7270 C   0  0  0  0  0  0  0  0  0  0  0  0
    1.4410   55.1830   76.2070 C   0  0  0  0  0  0  0  0  0  0  0  0
    0.2540   54.6190   75.4530 N   0  0  2  0  0  4  0  0  0  0  0  0
    0.1560   53.1080   75.3860 C   0  0  0  0  0  0  0  0  0  0  0  0
   -0.9220   52.5780   76.3130 C   0  0  0  0  0  0  0  0  0  0  0  0
    0.0910   55.2580   74.0810 C   0  0  0  0  0  0  0  0  0  0  0  0
   -0.3990   56.6830   74.1410 C   0  0  0  0  0  0  0  0  0  0  0  0
    0.3260   57.6880   73.4740 C   0  0  0  0  0  0  0  0  0  0  0  0
   -0.0980   59.0140   73.5230 C   0  0  0  0  0  0  0  0  0  0  0  0
   -1.2420   59.3490   74.2380 C   0  0  0  0  0  0  0  0  0  0  0  0
   -1.9690   58.3630   74.9080 C   0  0  0  0  0  0  0  0  0  0  0  0
   -1.5570   57.0280   74.8630 C   0  0  0  0  0  0  0  0  0  0  0  0
   -2.1890   55.9940   75.5040 O   0  0  0  0  0  0  0  0  0  0  0  0
   -3.4150   56.2970   76.1670 C   0  0  0  0  0  0  0  0  0  0  0  0
    0.6530   64.9160   70.3200 C   0  0  0  0  0  0  0  0  0  0  0  0
    0.5350   66.3010   69.6730 C   0  0  0  0  0  0  0  0  0  0  0  0
   -0.7200   66.4680   68.8060 C   0  0  0  0  0  0  0  0  0  0  0  0
   -0.3690   67.0860   67.4470 C   0  0  0  0  0  0  0  0  0  0  0  0
    0.7330   68.1440   67.5270 C   0  0  0  0  0  0  0  0  0  0  0  0
    1.8480   67.8710   66.5420 N   0  0  1  0  0  4  0  0  0  0  0  0
    1.4790   66.8050   65.5260 C   0  0  0  0  0  0  0  0  0  0  0  0
    2.7290   66.1120   65.0110 C   0  0  0  0  0  0  0  0  0  0  0  0
    2.3150   69.1490   65.8530 C   0  0  0  0  0  0  0  0  0  0  0  0
    4.7600   69.6040   65.3270 C   0  0  0  0  0  0  0  0  0  0  0  0
    6.0390   69.9780   65.7480 C   0  0  0  0  0  0  0  0  0  0  0  0
    6.2740   70.3160   67.0820 C   0  0  0  0  0  0  0  0  0  0  0  0
    5.2350   70.2850   68.0070 C   0  0  0  0  0  0  0  0  0  0  0  0
    3.9560   69.9090   67.6010 C   0  0  0  0  0  0  0  0  0  0  0  0
    3.7070   69.5610   66.2600 C   0  0  0  0  0  0  0  0  0  0  0  0
    5.5160   68.9290   63.1670 C   0  0  0  0  0  0  0  0  0  0  0  0
    4.4360   69.2410   64.0460 O   0  0  0  0  0  0  0  0  0  0  0  0
    0.3768   64.6271   74.3926 H   0  0  0  0  0  0  0  0  0  0  0  0
   -1.0745   63.6365   73.8985 H   0  0  0  0  0  0  0  0  0  0  0  0
    0.4661   62.6952   75.7542 H   0  0  0  0  0  0  0  0  0  0  0  0
   -0.0265   61.6124   74.4008 H   0  0  0  0  0  0  0  0  0  0  0  0
    2.5581   63.1860   74.6061 H   0  0  0  0  0  0  0  0  0  0  0  0
    3.1027   62.5566   72.4688 H   0  0  0  0  0  0  0  0  0  0  0  0
    2.2847   60.9329   72.6597 H   0  0  0  0  0  0  0  0  0  0  0  0
    1.3458   62.6679   70.9384 H   0  0  0  0  0  0  0  0  0  0  0  0
    0.2319   61.7243   72.0098 H   0  0  0  0  0  0  0  0  0  0  0  0
    3.4762   61.7122   75.7707 H   0  0  0  0  0  0  0  0  0  0  0  0
    1.2807   61.2024   76.7718 H   0  0  0  0  0  0  0  0  0  0  0  0
    1.0128   59.9130   75.5388 H   0  0  0  0  0  0  0  0  0  0  0  0
    3.1354   60.0106   77.7240 H   0  0  0  0  0  0  0  0  0  0  0  0
    1.7629   58.8277   77.5076 H   0  0  0  0  0  0  0  0  0  0  0  0
    4.1613   58.0741   74.3594 H   0  0  0  0  0  0  0  0  0  0  0  0
    2.3694   58.3522   74.4370 H   0  0  0  0  0  0  0  0  0  0  0  0
    4.6162   60.3899   74.4331 H   0  0  0  0  0  0  0  0  0  0  0  0
    3.1854   60.2055   73.3070 H   0  0  0  0  0  0  0  0  0  0  0  0
    5.1073   57.3486   78.7197 H   0  0  0  0  0  0  0  0  0  0  0  0
    3.5903   58.3474   78.7257 H   0  0  0  0  0  0  0  0  0  0  0  0
    3.6964   55.3168   78.4054 H   0  0  0  0  0  0  0  0  0  0  0  0
    3.3242   56.2175   79.9395 H   0  0  0  0  0  0  0  0  0  0  0  0
    1.1906   56.4686   79.3579 H   0  0  0  0  0  0  0  0  0  0  0  0
    1.6853   57.1650   77.7469 H   0  0  0  0  0  0  0  0  0  0  0  0
    1.8539   54.1971   78.0807 H   0  0  0  0  0  0  0  0  0  0  0  0
    0.2105   54.9508   77.9520 H   0  0  0  0  0  0  0  0  0  0  0  0
    1.5532   56.2453   75.9443 H   0  0  0  0  0  0  0  0  0  0  0  0
    2.3275   54.5989   75.9191 H   0  0  0  0  0  0  0  0  0  0  0  0
   -0.5483   54.8878   76.0404 H   0  0  0  0  0  0  0  0  0  0  0  0
   -0.0825   52.8109   74.3541 H   0  0  0  0  0  0  0  0  0  0  0  0
    1.1211   52.6856   75.7026 H   0  0  0  0  0  0  0  0  0  0  0  0
   -0.6139   52.7295   77.3581 H   0  0  0  0  0  0  0  0  0  0  0  0
   -1.8631   53.1161   76.1265 H   0  0  0  0  0  0  0  0  0  0  0  0
   -1.0705   51.5042   76.1265 H   0  0  0  0  0  0  0  0  0  0  0  0
    1.0660   55.2452   73.5718 H   0  0  0  0  0  0  0  0  0  0  0  0
   -0.6678   54.6752   73.5382 H   0  0  0  0  0  0  0  0  0  0  0  0
    1.2332   57.4248   72.9104 H   0  0  0  0  0  0  0  0  0  0  0  0
    0.4714   59.7944   72.9969 H   0  0  0  0  0  0  0  0  0  0  0  0
   -1.5763   60.3963   74.2762 H   0  0  0  0  0  0  0  0  0  0  0  0
   -2.8709   58.6383   75.4744 H   0  0  0  0  0  0  0  0  0  0  0  0
   -3.2622   56.2592   77.2557 H   0  0  0  0  0  0  0  0  0  0  0  0
   -3.7487   57.3046   75.8783 H   0  0  0  0  0  0  0  0  0  0  0  0
   -4.1796   55.5608   75.8783 H   0  0  0  0  0  0  0  0  0  0  0  0
    1.7062   64.6010   70.2813 H   0  0  0  0  0  0  0  0  0  0  0  0
   -0.0035   64.2361   69.7572 H   0  0  0  0  0  0  0  0  0  0  0  0
    0.5093   67.0570   70.4716 H   0  0  0  0  0  0  0  0  0  0  0  0
    1.4042   66.4229   69.0100 H   0  0  0  0  0  0  0  0  0  0  0  0
   -1.1802   65.4819   68.6450 H   0  0  0  0  0  0  0  0  0  0  0  0
   -1.4196   67.1385   69.3265 H   0  0  0  0  0  0  0  0  0  0  0  0
   -0.0329   66.2826   66.7750 H   0  0  0  0  0  0  0  0  0  0  0  0
   -1.2744   67.5878   67.0749 H   0  0  0  0  0  0  0  0  0  0  0  0
    0.2968   69.1295   67.3066 H   0  0  0  0  0  0  0  0  0  0  0  0
    1.1589   68.1173   68.5408 H   0  0  0  0  0  0  0  0  0  0  0  0
    2.6366   67.5010   67.0917 H   0  0  0  0  0  0  0  0  0  0  0  0
    0.8222   66.0620   66.0020 H   0  0  0  0  0  0  0  0  0  0  0  0
    0.9598   67.2807   64.6809 H   0  0  0  0  0  0  0  0  0  0  0  0
    3.3382   65.7743   65.8624 H   0  0  0  0  0  0  0  0  0  0  0  0
    2.4415   65.2445   64.3989 H   0  0  0  0  0  0  0  0  0  0  0  0
    3.3124   66.8155   64.3989 H   0  0  0  0  0  0  0  0  0  0  0  0
    2.3013   68.9862   64.7652 H   0  0  0  0  0  0  0  0  0  0  0  0
    1.6308   69.9555   66.1554 H   0  0  0  0  0  0  0  0  0  0  0  0
    6.8661   70.0063   65.0234 H   0  0  0  0  0  0  0  0  0  0  0  0
    7.2847   70.6080   67.4032 H   0  0  0  0  0  0  0  0  0  0  0  0
    5.4227   70.5566   69.0563 H   0  0  0  0  0  0  0  0  0  0  0  0
    3.1356   69.8840   68.3333 H   0  0  0  0  0  0  0  0  0  0  0  0
    6.4072   68.6715   63.7581 H   0  0  0  0  0  0  0  0  0  0  0  0
    5.2374   68.0746   62.5326 H   0  0  0  0  0  0  0  0  0  0  0  0
    5.7359   69.8003   62.5326 H   0  0  0  0  0  0  0  0  0  0  0  0
  2  1  2  0
  3  1  1  0
  4  3  1  0
  5  4  1  0
  6  5  1  0
  7  6  1  0
  8  7  1  0
  8  3  1  0
  9  6  1  0
 10  9  1  0
 11 10  1  0
 12 11  1  0
 13 12  1  0
 14 13  1  0
 14  9  1  0
 15 12  1  0
 16 15  2  0
 17 15  1  0
 18 17  1  0
 19 18  1  0
 20 19  1  0
 21 20  1  0
 22 21  1  0
 23 22  1  0
 24 23  1  0
 25 22  1  0
 26 25  1  0
 27 26  2  0
 28 27  1  0
 29 28  2  0
 30 29  1  0
 31 30  2  0
 31 26  1  0
 32 31  1  0
 33 32  1  0
 34  1  1  0
 35 34  1  0
 36 35  1  0
 37 36  1  0
 38 37  1  0
 39 38  1  0
 40 39  1  0
 41 40  1  0
 42 39  1  0
 44 43  2  0
 45 44  1  0
 46 45  2  0
 47 46  1  0
 48 47  2  0
 48 43  1  0
 48 42  1  0
 50 49  1  0
 50 43  1  0
  4 51  1  0
  4 52  1  0
  5 53  1  0
  5 54  1  0
  6 55  1  0
  7 56  1  0
  7 57  1  0
  8 58  1  0
  8 59  1  0
  9 60  1  0
 10 61  1  0
 10 62  1  0
 11 63  1  0
 11 64  1  0
 13 65  1  0
 13 66  1  0
 14 67  1  0
 14 68  1  0
 17 69  1  0
 17 70  1  0
 18 71  1  0
 18 72  1  0
 19 73  1  0
 19 74  1  0
 20 75  1  0
 20 76  1  0
 21 77  1  0
 21 78  1  0
 22 79  1  1
 23 80  1  0
 23 81  1  0
 24 82  1  0
 24 83  1  0
 24 84  1  0
 25 85  1  0
 25 86  1  0
 27 87  1  0
 28 88  1  0
 29 89  1  0
 30 90  1  0
 33 91  1  0
 33 92  1  0
 33 93  1  0
 34 94  1  0
 34 95  1  0
 35 96  1  0
 35 97  1  0
 36 98  1  0
 36 99  1  0
 37100  1  0
 37101  1  0
 38102  1  0
 38103  1  0
 39104  1  1
 40105  1  0
 40106  1  0
 41107  1  0
 41108  1  0
 41109  1  0
 42110  1  0
 42111  1  0
 44112  1  0
 45113  1  0
 46114  1  0
 47115  1  0
 49116  1  0
 49117  1  0
 49118  1  0
M  CHG  2  22   1  39   1
M  END
>  <score>  (9) 
-7.696

$$$$
