=
     RDKit          3D

 26 27  0  0  0  0  0  0  0  0999 V2000
    1.9560   66.7260   65.9970 O   0  0  0  0  0  0  0  0  0  0  0  0
    1.7120   67.9170   65.8290 C   0  0  0  0  0  0  0  0  0  0  0  0
    1.4220   68.3770   64.4320 C   0  0  0  0  0  0  0  0  0  0  0  0
    0.1110   68.8280   64.1660 C   0  0  0  0  0  0  0  0  0  0  0  0
   -0.2600   69.2790   62.8940 C   0  0  0  0  0  0  0  0  0  0  0  0
    0.6800   69.2820   61.8740 C   0  0  0  0  0  0  0  0  0  0  0  0
    1.9730   68.8410   62.1180 C   0  0  0  0  0  0  0  0  0  0  0  0
    2.3510   68.3910   63.3850 C   0  0  0  0  0  0  0  0  0  0  0  0
    2.8790   68.8450   61.1310 F   0  0  0  0  0  0  0  0  0  0  0  0
    0.3290   69.7120   60.6550 F   0  0  0  0  0  0  0  0  0  0  0  0
    1.7180   68.8550   67.0390 C   0  0  0  0  0  0  0  0  0  0  0  0
    0.6640   69.0840   67.6210 O   0  0  0  0  0  0  0  0  0  0  0  0
    2.9570   69.5200   67.5620 C   0  0  0  0  0  0  0  0  0  0  0  0
    3.0680   70.1420   68.8150 C   0  0  0  0  0  0  0  0  0  0  0  0
    4.2730   70.7380   69.2160 C   0  0  0  0  0  0  0  0  0  0  0  0
    5.3720   70.7160   68.3680 C   0  0  0  0  0  0  0  0  0  0  0  0
    5.2790   70.1060   67.1270 C   0  0  0  0  0  0  0  0  0  0  0  0
    4.0870   69.5110   66.7200 C   0  0  0  0  0  0  0  0  0  0  0  0
    6.3370   70.0820   66.3060 F   0  0  0  0  0  0  0  0  0  0  0  0
    6.5180   71.2880   68.7590 F   0  0  0  0  0  0  0  0  0  0  0  0
   -0.6343   68.8249   64.9750 H   0  0  0  0  0  0  0  0  0  0  0  0
   -1.2862   69.6274   62.7052 H   0  0  0  0  0  0  0  0  0  0  0  0
    3.3809   68.0469   63.5605 H   0  0  0  0  0  0  0  0  0  0  0  0
    2.2001   70.1625   69.4906 H   0  0  0  0  0  0  0  0  0  0  0  0
    4.3470   71.2221   70.2010 H   0  0  0  0  0  0  0  0  0  0  0  0
    4.0273   69.0299   65.7326 H   0  0  0  0  0  0  0  0  0  0  0  0
  2  1  2  0
  3  2  1  0
  4  3  2  0
  5  4  1  0
  6  5  2  0
  7  6  1  0
  8  7  2  0
  8  3  1  0
  9  7  1  0
 10  6  1  0
 11  2  1  0
 12 11  2  0
 13 11  1  0
 14 13  2  0
 15 14  1  0
 16 15  2  0
 17 16  1  0
 18 17  2  0
 18 13  1  0
 19 17  1  0
 20 16  1  0
  4 21  1  0
  5 22  1  0
  8 23  1  0
 14 24  1  0
 15 25  1  0
 18 26  1  0
M  END
>  <score>  (1) 
-10.117

$$$$
=
     RDKit          3D

 26 27  0  0  0  0  0  0  0  0999 V2000
    0.7940   68.8850   67.9320 O   0  0  0  0  0  0  0  0  0  0  0  0
    1.7550   68.7550   67.1810 C   0  0  0  0  0  0  0  0  0  0  0  0
    3.0100   69.5020   67.5230 C   0  0  0  0  0  0  0  0  0  0  0  0
    3.0210   70.2080   68.7450 C   0  0  0  0  0  0  0  0  0  0  0  0
    4.1440   70.9350   69.1550 C   0  0  0  0  0  0  0  0  0  0  0  0
    5.2700   70.9620   68.3450 C   0  0  0  0  0  0  0  0  0  0  0  0
    5.2750   70.2730   67.1410 C   0  0  0  0  0  0  0  0  0  0  0  0
    4.1590   69.5440   66.7240 C   0  0  0  0  0  0  0  0  0  0  0  0
    6.3640   70.3000   66.3590 F   0  0  0  0  0  0  0  0  0  0  0  0
    6.3460   71.6560   68.7340 F   0  0  0  0  0  0  0  0  0  0  0  0
    1.6230   67.8520   65.9520 C   0  0  0  0  0  0  0  0  0  0  0  0
    1.8720   66.6560   66.0620 O   0  0  0  0  0  0  0  0  0  0  0  0
    1.2000   68.3510   64.6010 C   0  0  0  0  0  0  0  0  0  0  0  0
   -0.0900   68.7980   64.2780 C   0  0  0  0  0  0  0  0  0  0  0  0
   -0.3890   69.2480   62.9840 C   0  0  0  0  0  0  0  0  0  0  0  0
    0.5970   69.2540   62.0070 C   0  0  0  0  0  0  0  0  0  0  0  0
    1.8770   68.8150   62.3110 C   0  0  0  0  0  0  0  0  0  0  0  0
    2.1830   68.3660   63.5930 C   0  0  0  0  0  0  0  0  0  0  0  0
    2.8320   68.8180   61.3710 F   0  0  0  0  0  0  0  0  0  0  0  0
    0.3030   69.6840   60.7740 F   0  0  0  0  0  0  0  0  0  0  0  0
    2.1288   70.1863   69.3880 H   0  0  0  0  0  0  0  0  0  0  0  0
    4.1342   71.4799   70.1105 H   0  0  0  0  0  0  0  0  0  0  0  0
    4.1828   69.0023   65.7669 H   0  0  0  0  0  0  0  0  0  0  0  0
   -0.8754   68.7954   65.0482 H   0  0  0  0  0  0  0  0  0  0  0  0
   -1.4043   69.5960   62.7433 H   0  0  0  0  0  0  0  0  0  0  0  0
    3.2020   68.0198   63.8204 H   0  0  0  0  0  0  0  0  0  0  0  0
  2  1  2  0
  3  2  1  0
  4  3  2  0
  5  4  1  0
  6  5  2  0
  7  6  1  0
  8  7  2  0
  8  3  1  0
  9  7  1  0
 10  6  1  0
 11  2  1  0
 12 11  2  0
 13 11  1  0
 14 13  2  0
 15 14  1  0
 16 15  2  0
 17 16  1  0
 18 17  2  0
 18 13  1  0
 19 17  1  0
 20 16  1  0
  4 21  1  0
  5 22  1  0
  8 23  1  0
 14 24  1  0
 15 25  1  0
 18 26  1  0
M  END
>  <score>  (2) 
-9.983

$$$$
=
     RDKit          3D

 26 27  0  0  0  0  0  0  0  0999 V2000
    0.9000   66.6730   65.7620 O   0  0  0  0  0  0  0  0  0  0  0  0
    1.4890   67.7280   65.5450 C   0  0  0  0  0  0  0  0  0  0  0  0
    2.0480   67.9410   64.1690 C   0  0  0  0  0  0  0  0  0  0  0  0
    1.3290   68.8000   63.3120 C   0  0  0  0  0  0  0  0  0  0  0  0
    1.7670   69.0640   62.0100 C   0  0  0  0  0  0  0  0  0  0  0  0
    2.9340   68.4700   61.5530 C   0  0  0  0  0  0  0  0  0  0  0  0
    3.6540   67.6220   62.3830 C   0  0  0  0  0  0  0  0  0  0  0  0
    3.2220   67.3540   63.6840 C   0  0  0  0  0  0  0  0  0  0  0  0
    4.7800   67.0480   61.9390 F   0  0  0  0  0  0  0  0  0  0  0  0
    3.3570   68.7200   60.3070 F   0  0  0  0  0  0  0  0  0  0  0  0
    1.6190   68.7540   66.6740 C   0  0  0  0  0  0  0  0  0  0  0  0
    0.6130   69.1020   67.2810 O   0  0  0  0  0  0  0  0  0  0  0  0
    2.9250   69.3670   67.0860 C   0  0  0  0  0  0  0  0  0  0  0  0
    4.0600   69.4660   66.2670 C   0  0  0  0  0  0  0  0  0  0  0  0
    5.2390   70.0580   66.7430 C   0  0  0  0  0  0  0  0  0  0  0  0
    5.2900   70.5540   68.0390 C   0  0  0  0  0  0  0  0  0  0  0  0
    4.1770   70.4630   68.8610 C   0  0  0  0  0  0  0  0  0  0  0  0
    3.0020   69.8770   68.3960 C   0  0  0  0  0  0  0  0  0  0  0  0
    4.2210   70.9410   70.1120 F   0  0  0  0  0  0  0  0  0  0  0  0
    6.4190   71.1170   68.4860 F   0  0  0  0  0  0  0  0  0  0  0  0
    0.4043   69.2723   63.6751 H   0  0  0  0  0  0  0  0  0  0  0  0
    1.1920   69.7356   61.3556 H   0  0  0  0  0  0  0  0  0  0  0  0
    3.8057   66.6803   64.3285 H   0  0  0  0  0  0  0  0  0  0  0  0
    4.0247   69.0747   65.2396 H   0  0  0  0  0  0  0  0  0  0  0  0
    6.1219   70.1293   66.0907 H   0  0  0  0  0  0  0  0  0  0  0  0
    2.1262   69.8121   69.0584 H   0  0  0  0  0  0  0  0  0  0  0  0
  2  1  2  0
  3  2  1  0
  4  3  2  0
  5  4  1  0
  6  5  2  0
  7  6  1  0
  8  7  2  0
  8  3  1  0
  9  7  1  0
 10  6  1  0
 11  2  1  0
 12 11  2  0
 13 11  1  0
 14 13  2  0
 15 14  1  0
 16 15  2  0
 17 16  1  0
 18 17  2  0
 18 13  1  0
 19 17  1  0
 20 16  1  0
  4 21  1  0
  5 22  1  0
  8 23  1  0
 14 24  1  0
 15 25  1  0
 18 26  1  0
M  END
>  <score>  (3) 
-9.891

$$$$
=
     RDKit          3D

 26 27  0  0  0  0  0  0  0  0999 V2000
    2.2670   66.4810   66.1040 O   0  0  0  0  0  0  0  0  0  0  0  0
    1.8110   67.6030   65.9040 C   0  0  0  0  0  0  0  0  0  0  0  0
    0.3420   67.8060   66.1260 C   0  0  0  0  0  0  0  0  0  0  0  0
   -0.3220   68.6870   65.2460 C   0  0  0  0  0  0  0  0  0  0  0  0
   -1.6920   68.9430   65.3680 C   0  0  0  0  0  0  0  0  0  0  0  0
   -2.4130   68.3170   66.3750 C   0  0  0  0  0  0  0  0  0  0  0  0
   -1.7750   67.4470   67.2480 C   0  0  0  0  0  0  0  0  0  0  0  0
   -0.4080   67.1870   67.1320 C   0  0  0  0  0  0  0  0  0  0  0  0
   -2.4730   66.8440   68.2200 F   0  0  0  0  0  0  0  0  0  0  0  0
   -3.7240   68.5590   66.4950 F   0  0  0  0  0  0  0  0  0  0  0  0
    2.7540   68.7190   65.4460 C   0  0  0  0  0  0  0  0  0  0  0  0
    2.7110   69.0920   64.2790 O   0  0  0  0  0  0  0  0  0  0  0  0
    3.7420   69.3910   66.3530 C   0  0  0  0  0  0  0  0  0  0  0  0
    5.0920   69.6180   66.0450 C   0  0  0  0  0  0  0  0  0  0  0  0
    5.9390   70.2570   66.9620 C   0  0  0  0  0  0  0  0  0  0  0  0
    5.4430   70.6720   68.1900 C   0  0  0  0  0  0  0  0  0  0  0  0
    4.1110   70.4550   68.5100 C   0  0  0  0  0  0  0  0  0  0  0  0
    3.2630   69.8210   67.6060 C   0  0  0  0  0  0  0  0  0  0  0  0
    3.6280   70.8540   69.6950 F   0  0  0  0  0  0  0  0  0  0  0  0
    6.2590   71.2810   69.0600 F   0  0  0  0  0  0  0  0  0  0  0  0
    0.2495   69.1828   64.4475 H   0  0  0  0  0  0  0  0  0  0  0  0
   -2.1924   69.6333   64.6730 H   0  0  0  0  0  0  0  0  0  0  0  0
    0.0803   66.4941   67.8330 H   0  0  0  0  0  0  0  0  0  0  0  0
    5.4905   69.2910   65.0732 H   0  0  0  0  0  0  0  0  0  0  0  0
    6.9954   70.4291   66.7083 H   0  0  0  0  0  0  0  0  0  0  0  0
    2.2089   69.6543   67.8727 H   0  0  0  0  0  0  0  0  0  0  0  0
  2  1  2  0
  3  2  1  0
  4  3  2  0
  5  4  1  0
  6  5  2  0
  7  6  1  0
  8  7  2  0
  8  3  1  0
  9  7  1  0
 10  6  1  0
 11  2  1  0
 12 11  2  0
 13 11  1  0
 14 13  2  0
 15 14  1  0
 16 15  2  0
 17 16  1  0
 18 17  2  0
 18 13  1  0
 19 17  1  0
 20 16  1  0
  4 21  1  0
  5 22  1  0
  8 23  1  0
 14 24  1  0
 15 25  1  0
 18 26  1  0
M  END
>  <score>  (4) 
-9.889

$$$$
=
     RDKit          3D

 26 27  0  0  0  0  0  0  0  0999 V2000
    3.9730   66.9930   63.1340 O   0  0  0  0  0  0  0  0  0  0  0  0
    3.6690   68.1500   63.4070 C   0  0  0  0  0  0  0  0  0  0  0  0
    2.2750   68.5980   63.0820 C   0  0  0  0  0  0  0  0  0  0  0  0
    2.0430   69.0700   61.7730 C   0  0  0  0  0  0  0  0  0  0  0  0
    0.7780   69.5100   61.3700 C   0  0  0  0  0  0  0  0  0  0  0  0
   -0.2710   69.4820   62.2770 C   0  0  0  0  0  0  0  0  0  0  0  0
   -0.0610   69.0210   63.5690 C   0  0  0  0  0  0  0  0  0  0  0  0
    1.2000   68.5800   63.9780 C   0  0  0  0  0  0  0  0  0  0  0  0
   -1.0750   68.9940   64.4440 F   0  0  0  0  0  0  0  0  0  0  0  0
   -1.4840   69.9020   61.8970 F   0  0  0  0  0  0  0  0  0  0  0  0
    4.7160   69.0610   64.0540 C   0  0  0  0  0  0  0  0  0  0  0  0
    5.6240   69.5090   63.3630 O   0  0  0  0  0  0  0  0  0  0  0  0
    4.6950   69.4430   65.5050 C   0  0  0  0  0  0  0  0  0  0  0  0
    3.5550   69.4260   66.3240 C   0  0  0  0  0  0  0  0  0  0  0  0
    3.6360   69.8010   67.6730 C   0  0  0  0  0  0  0  0  0  0  0  0
    4.8540   70.1940   68.2110 C   0  0  0  0  0  0  0  0  0  0  0  0
    5.9890   70.2170   67.4150 C   0  0  0  0  0  0  0  0  0  0  0  0
    5.9180   69.8460   66.0740 C   0  0  0  0  0  0  0  0  0  0  0  0
    7.1670   70.5950   67.9300 F   0  0  0  0  0  0  0  0  0  0  0  0
    4.9220   70.5520   69.4990 F   0  0  0  0  0  0  0  0  0  0  0  0
    2.8749   69.0925   61.0537 H   0  0  0  0  0  0  0  0  0  0  0  0
    0.6168   69.8744   60.3447 H   0  0  0  0  0  0  0  0  0  0  0  0
    1.3482   68.2180   65.0061 H   0  0  0  0  0  0  0  0  0  0  0  0
    2.5875   69.1151   65.9030 H   0  0  0  0  0  0  0  0  0  0  0  0
    2.7353   69.7837   68.3042 H   0  0  0  0  0  0  0  0  0  0  0  0
    6.8263   69.8682   65.4539 H   0  0  0  0  0  0  0  0  0  0  0  0
  2  1  2  0
  3  2  1  0
  4  3  2  0
  5  4  1  0
  6  5  2  0
  7  6  1  0
  8  7  2  0
  8  3  1  0
  9  7  1  0
 10  6  1  0
 11  2  1  0
 12 11  2  0
 13 11  1  0
 14 13  2  0
 15 14  1  0
 16 15  2  0
 17 16  1  0
 18 17  2  0
 18 13  1  0
 19 17  1  0
 20 16  1  0
  4 21  1  0
  5 22  1  0
  8 23  1  0
 14 24  1  0
 15 25  1  0
 18 26  1  0
M  END
>  <score>  (5) 
-9.695

$$$$
=
     RDKit          3D

 26 27  0  0  0  0  0  0  0  0999 V2000
    0.4150   69.2600   67.3880 O   0  0  0  0  0  0  0  0  0  0  0  0
    1.4080   68.8490   66.7960 C   0  0  0  0  0  0  0  0  0  0  0  0
    2.7440   69.3700   67.2350 C   0  0  0  0  0  0  0  0  0  0  0  0
    3.7740   69.3820   66.2710 C   0  0  0  0  0  0  0  0  0  0  0  0
    5.0560   69.8490   66.5810 C   0  0  0  0  0  0  0  0  0  0  0  0
    5.3200   70.3110   67.8620 C   0  0  0  0  0  0  0  0  0  0  0  0
    4.3180   70.3050   68.8220 C   0  0  0  0  0  0  0  0  0  0  0  0
    3.0360   69.8410   68.5200 C   0  0  0  0  0  0  0  0  0  0  0  0
    4.5750   70.7500   70.0600 F   0  0  0  0  0  0  0  0  0  0  0  0
    6.5450   70.7580   68.1630 F   0  0  0  0  0  0  0  0  0  0  0  0
    1.2310   67.8430   65.6550 C   0  0  0  0  0  0  0  0  0  0  0  0
    0.5960   66.8150   65.8620 O   0  0  0  0  0  0  0  0  0  0  0  0
    1.7970   68.0450   64.2810 C   0  0  0  0  0  0  0  0  0  0  0  0
    3.0280   67.5370   63.8370 C   0  0  0  0  0  0  0  0  0  0  0  0
    3.4730   67.7790   62.5290 C   0  0  0  0  0  0  0  0  0  0  0  0
    2.6920   68.5280   61.6590 C   0  0  0  0  0  0  0  0  0  0  0  0
    1.4740   69.0370   62.0830 C   0  0  0  0  0  0  0  0  0  0  0  0
    1.0240   68.8010   63.3790 C   0  0  0  0  0  0  0  0  0  0  0  0
    0.7170   69.7600   61.2460 F   0  0  0  0  0  0  0  0  0  0  0  0
    3.1250   68.7550   60.4120 F   0  0  0  0  0  0  0  0  0  0  0  0
    3.5649   69.0167   65.2547 H   0  0  0  0  0  0  0  0  0  0  0  0
    5.8468   69.8498   65.8164 H   0  0  0  0  0  0  0  0  0  0  0  0
    2.2541   69.8457   69.2937 H   0  0  0  0  0  0  0  0  0  0  0  0
    3.6503   66.9427   64.5222 H   0  0  0  0  0  0  0  0  0  0  0  0
    4.4397   67.3758   62.1928 H   0  0  0  0  0  0  0  0  0  0  0  0
    0.0548   69.2092   63.7017 H   0  0  0  0  0  0  0  0  0  0  0  0
  2  1  2  0
  3  2  1  0
  4  3  2  0
  5  4  1  0
  6  5  2  0
  7  6  1  0
  8  7  2  0
  8  3  1  0
  9  7  1  0
 10  6  1  0
 11  2  1  0
 12 11  2  0
 13 11  1  0
 14 13  2  0
 15 14  1  0
 16 15  2  0
 17 16  1  0
 18 17  2  0
 18 13  1  0
 19 17  1  0
 20 16  1  0
  4 21  1  0
  5 22  1  0
  8 23  1  0
 14 24  1  0
 15 25  1  0
 18 26  1  0
M  END
>  <score>  (6) 
-9.692

$$$$
=
     RDKit          3D

 26 27  0  0  0  0  0  0  0  0999 V2000
    0.8700   68.8120   67.2720 O   0  0  0  0  0  0  0  0  0  0  0  0
    1.8800   68.8900   66.5800 C   0  0  0  0  0  0  0  0  0  0  0  0
    3.1060   69.4870   67.2040 C   0  0  0  0  0  0  0  0  0  0  0  0
    2.9900   69.9410   68.5350 C   0  0  0  0  0  0  0  0  0  0  0  0
    4.0760   70.5130   69.2070 C   0  0  0  0  0  0  0  0  0  0  0  0
    5.2920   70.6350   68.5510 C   0  0  0  0  0  0  0  0  0  0  0  0
    5.4240   70.1940   67.2420 C   0  0  0  0  0  0  0  0  0  0  0  0
    4.3440   69.6220   66.5650 C   0  0  0  0  0  0  0  0  0  0  0  0
    6.5990   70.3140   66.6100 F   0  0  0  0  0  0  0  0  0  0  0  0
    6.3340   71.1820   69.1900 F   0  0  0  0  0  0  0  0  0  0  0  0
    1.8340   68.3810   65.1360 C   0  0  0  0  0  0  0  0  0  0  0  0
    1.0200   68.8670   64.3590 O   0  0  0  0  0  0  0  0  0  0  0  0
    2.7400   67.3060   64.6100 C   0  0  0  0  0  0  0  0  0  0  0  0
    3.6970   67.4860   63.6010 C   0  0  0  0  0  0  0  0  0  0  0  0
    4.5000   66.4170   63.1760 C   0  0  0  0  0  0  0  0  0  0  0  0
    4.3500   65.1650   63.7560 C   0  0  0  0  0  0  0  0  0  0  0  0
    3.4080   64.9710   64.7540 C   0  0  0  0  0  0  0  0  0  0  0  0
    2.6070   66.0270   65.1830 C   0  0  0  0  0  0  0  0  0  0  0  0
    3.2600   63.7640   65.3170 F   0  0  0  0  0  0  0  0  0  0  0  0
    5.1200   64.1500   63.3430 F   0  0  0  0  0  0  0  0  0  0  0  0
    2.0257   69.8432   69.0552 H   0  0  0  0  0  0  0  0  0  0  0  0
    3.9665   70.8621   70.2444 H   0  0  0  0  0  0  0  0  0  0  0  0
    4.4668   69.2770   65.5277 H   0  0  0  0  0  0  0  0  0  0  0  0
    3.8194   68.4761   63.1377 H   0  0  0  0  0  0  0  0  0  0  0  0
    5.2477   66.5709   62.3840 H   0  0  0  0  0  0  0  0  0  0  0  0
    1.8639   65.8599   65.9766 H   0  0  0  0  0  0  0  0  0  0  0  0
  2  1  2  0
  3  2  1  0
  4  3  2  0
  5  4  1  0
  6  5  2  0
  7  6  1  0
  8  7  2  0
  8  3  1  0
  9  7  1  0
 10  6  1  0
 11  2  1  0
 12 11  2  0
 13 11  1  0
 14 13  2  0
 15 14  1  0
 16 15  2  0
 17 16  1  0
 18 17  2  0
 18 13  1  0
 19 17  1  0
 20 16  1  0
  4 21  1  0
  5 22  1  0
  8 23  1  0
 14 24  1  0
 15 25  1  0
 18 26  1  0
M  END
>  <score>  (7) 
-9.657

$$$$
=
     RDKit          3D

 26 27  0  0  0  0  0  0  0  0999 V2000
    1.4680   69.0180   63.4060 O   0  0  0  0  0  0  0  0  0  0  0  0
    1.5970   68.5830   64.5460 C   0  0  0  0  0  0  0  0  0  0  0  0
    0.3500   68.3380   65.3420 C   0  0  0  0  0  0  0  0  0  0  0  0
    0.4430   67.4180   66.4090 C   0  0  0  0  0  0  0  0  0  0  0  0
   -0.6630   67.1200   67.2120 C   0  0  0  0  0  0  0  0  0  0  0  0
   -1.8760   67.7420   66.9550 C   0  0  0  0  0  0  0  0  0  0  0  0
   -1.9850   68.6480   65.9100 C   0  0  0  0  0  0  0  0  0  0  0  0
   -0.8850   68.9510   65.1040 C   0  0  0  0  0  0  0  0  0  0  0  0
   -3.1580   69.2470   65.6620 F   0  0  0  0  0  0  0  0  0  0  0  0
   -2.9370   67.4600   67.7210 F   0  0  0  0  0  0  0  0  0  0  0  0
    3.0060   68.3210   65.0870 C   0  0  0  0  0  0  0  0  0  0  0  0
    3.6710   67.4140   64.5990 O   0  0  0  0  0  0  0  0  0  0  0  0
    3.6280   69.1210   66.1930 C   0  0  0  0  0  0  0  0  0  0  0  0
    2.9810   69.4840   67.3840 C   0  0  0  0  0  0  0  0  0  0  0  0
    3.6480   70.2350   68.3620 C   0  0  0  0  0  0  0  0  0  0  0  0
    4.9650   70.6260   68.1570 C   0  0  0  0  0  0  0  0  0  0  0  0
    5.6180   70.2750   66.9860 C   0  0  0  0  0  0  0  0  0  0  0  0
    4.9630   69.5290   66.0090 C   0  0  0  0  0  0  0  0  0  0  0  0
    6.8890   70.6500   66.7840 F   0  0  0  0  0  0  0  0  0  0  0  0
    5.5940   71.3430   69.0970 F   0  0  0  0  0  0  0  0  0  0  0  0
    1.4051   66.9254   66.6131 H   0  0  0  0  0  0  0  0  0  0  0  0
   -0.5718   66.4000   68.0386 H   0  0  0  0  0  0  0  0  0  0  0  0
   -0.9900   69.6729   64.2807 H   0  0  0  0  0  0  0  0  0  0  0  0
    1.9385   69.1758   67.5522 H   0  0  0  0  0  0  0  0  0  0  0  0
    3.1289   70.5143   69.2907 H   0  0  0  0  0  0  0  0  0  0  0  0
    5.4937   69.2560   65.0850 H   0  0  0  0  0  0  0  0  0  0  0  0
  2  1  2  0
  3  2  1  0
  4  3  2  0
  5  4  1  0
  6  5  2  0
  7  6  1  0
  8  7  2  0
  8  3  1  0
  9  7  1  0
 10  6  1  0
 11  2  1  0
 12 11  2  0
 13 11  1  0
 14 13  2  0
 15 14  1  0
 16 15  2  0
 17 16  1  0
 18 17  2  0
 18 13  1  0
 19 17  1  0
 20 16  1  0
  4 21  1  0
  5 22  1  0
  8 23  1  0
 14 24  1  0
 15 25  1  0
 18 26  1  0
M  END
>  <score>  (8) 
-9.62

$$$$
=
     RDKit          3D

 26 27  0  0  0  0  0  0  0  0999 V2000
    1.7380   67.3290   68.8960 O   0  0  0  0  0  0  0  0  0  0  0  0
    1.3760   68.2610   68.1840 C   0  0  0  0  0  0  0  0  0  0  0  0
   -0.0010   68.1900   67.5950 C   0  0  0  0  0  0  0  0  0  0  0  0
   -0.4510   69.3220   66.8820 C   0  0  0  0  0  0  0  0  0  0  0  0
   -1.7200   69.3560   66.2940 C   0  0  0  0  0  0  0  0  0  0  0  0
   -2.5530   68.2530   66.4130 C   0  0  0  0  0  0  0  0  0  0  0  0
   -2.1270   67.1320   67.1110 C   0  0  0  0  0  0  0  0  0  0  0  0
   -0.8610   67.0910   67.7010 C   0  0  0  0  0  0  0  0  0  0  0  0
   -2.9330   66.0680   67.2260 F   0  0  0  0  0  0  0  0  0  0  0  0
   -3.7680   68.2810   65.8520 F   0  0  0  0  0  0  0  0  0  0  0  0
    2.3370   69.4280   67.9390 C   0  0  0  0  0  0  0  0  0  0  0  0
    2.3170   70.3870   68.7030 O   0  0  0  0  0  0  0  0  0  0  0  0
    3.3160   69.4660   66.8030 C   0  0  0  0  0  0  0  0  0  0  0  0
    4.6620   69.8480   66.9150 C   0  0  0  0  0  0  0  0  0  0  0  0
    5.5020   69.8520   65.7920 C   0  0  0  0  0  0  0  0  0  0  0  0
    5.0030   69.4730   64.5530 C   0  0  0  0  0  0  0  0  0  0  0  0
    3.6750   69.0930   64.4260 C   0  0  0  0  0  0  0  0  0  0  0  0
    2.8340   69.0870   65.5360 C   0  0  0  0  0  0  0  0  0  0  0  0
    3.1890   68.7280   63.2320 F   0  0  0  0  0  0  0  0  0  0  0  0
    5.8120   69.4800   63.4850 F   0  0  0  0  0  0  0  0  0  0  0  0
    0.2101   70.1960   66.7866 H   0  0  0  0  0  0  0  0  0  0  0  0
   -2.0537   70.2478   65.7432 H   0  0  0  0  0  0  0  0  0  0  0  0
   -0.5398   66.1934   68.2497 H   0  0  0  0  0  0  0  0  0  0  0  0
    5.0625   70.1476   67.8947 H   0  0  0  0  0  0  0  0  0  0  0  0
    6.5547   70.1550   65.8926 H   0  0  0  0  0  0  0  0  0  0  0  0
    1.7830   68.7832   65.4215 H   0  0  0  0  0  0  0  0  0  0  0  0
  2  1  2  0
  3  2  1  0
  4  3  2  0
  5  4  1  0
  6  5  2  0
  7  6  1  0
  8  7  2  0
  8  3  1  0
  9  7  1  0
 10  6  1  0
 11  2  1  0
 12 11  2  0
 13 11  1  0
 14 13  2  0
 15 14  1  0
 16 15  2  0
 17 16  1  0
 18 17  2  0
 18 13  1  0
 19 17  1  0
 20 16  1  0
  4 21  1  0
  5 22  1  0
  8 23  1  0
 14 24  1  0
 15 25  1  0
 18 26  1  0
M  END
>  <score>  (9) 
-9.312

$$$$
