=
     RDKit          3D

 42 45  0  0  0  0  0  0  0  0999 V2000
    6.6090   70.5960   69.7710 C   0  0  0  0  0  0  0  0  0  0  0  0
    7.3450   70.7060   68.6020 C   0  0  0  0  0  0  0  0  0  0  0  0
    6.7180   70.4950   67.3710 C   0  0  0  0  0  0  0  0  0  0  0  0
    5.3530   70.1590   67.2920 C   0  0  0  0  0  0  0  0  0  0  0  0
    4.6120   70.0820   68.4920 C   0  0  0  0  0  0  0  0  0  0  0  0
    5.2560   70.2880   69.7250 C   0  0  0  0  0  0  0  0  0  0  0  0
    3.1450   69.7300   68.5170 C   0  0  0  0  0  0  0  0  0  0  0  0
    2.4630   69.8060   67.1550 C   0  0  0  0  0  0  0  0  0  0  0  0
    3.3460   69.1480   66.0940 C   0  0  2  0  0  0  0  0  0  0  0  0
    4.6610   69.9750   65.9450 C   0  0  2  0  0  0  0  0  0  0  0  0
    5.5620   69.4090   64.8130 C   0  0  0  0  0  0  0  0  0  0  0  0
    4.8170   69.1590   63.4860 C   0  0  0  0  0  0  0  0  0  0  0  0
    3.5600   68.3250   63.7060 C   0  0  1  0  0  0  0  0  0  0  0  0
    2.6720   69.0690   64.7250 C   0  0  1  0  0  0  0  0  0  0  0  0
    1.3060   68.4070   64.5820 C   0  0  0  0  0  0  0  0  0  0  0  0
    1.1370   68.3050   63.0590 C   0  0  0  0  0  0  0  0  0  0  0  0
    2.5700   68.2660   62.5560 C   0  0  0  0  0  0  0  0  0  0  0  0
    2.8780   68.1750   61.3770 O   0  0  0  0  0  0  0  0  0  0  0  0
    3.9140   66.8680   64.0540 C   0  0  0  0  0  0  0  0  0  0  0  0
    7.1780   70.7890   70.9940 O   0  0  0  0  0  0  0  0  0  0  0  0
    8.4151   70.9576   68.6427 H   0  0  0  0  0  0  0  0  0  0  0  0
    7.3030   70.5935   66.4447 H   0  0  0  0  0  0  0  0  0  0  0  0
    4.6833   70.2045   70.6604 H   0  0  0  0  0  0  0  0  0  0  0  0
    3.0426   68.7031   68.8977 H   0  0  0  0  0  0  0  0  0  0  0  0
    2.6515   70.4730   69.1607 H   0  0  0  0  0  0  0  0  0  0  0  0
    1.4966   69.2826   67.2012 H   0  0  0  0  0  0  0  0  0  0  0  0
    2.3018   70.8611   66.8888 H   0  0  0  0  0  0  0  0  0  0  0  0
    3.5450   68.1199   66.4308 H   0  0  0  0  0  0  0  0  0  0  0  0
    4.4095   70.9940   65.6159 H   0  0  0  0  0  0  0  0  0  0  0  0
    6.3733   70.1275   64.6244 H   0  0  0  0  0  0  0  0  0  0  0  0
    5.9333   68.4331   65.1589 H   0  0  0  0  0  0  0  0  0  0  0  0
    4.5329   70.1266   63.0466 H   0  0  0  0  0  0  0  0  0  0  0  0
    5.4866   68.6068   62.8102 H   0  0  0  0  0  0  0  0  0  0  0  0
    2.5219   70.1444   64.5488 H   0  0  0  0  0  0  0  0  0  0  0  0
    1.2970   67.4113   65.0495 H   0  0  0  0  0  0  0  0  0  0  0  0
    0.4967   68.9662   65.0741 H   0  0  0  0  0  0  0  0  0  0  0  0
    0.5961   67.3881   62.7821 H   0  0  0  0  0  0  0  0  0  0  0  0
    0.5510   69.1324   62.6323 H   0  0  0  0  0  0  0  0  0  0  0  0
    3.9430   66.7488   65.1471 H   0  0  0  0  0  0  0  0  0  0  0  0
    3.1533   66.1950   63.6318 H   0  0  0  0  0  0  0  0  0  0  0  0
    4.8988   66.6191   63.6318 H   0  0  0  0  0  0  0  0  0  0  0  0
    6.6297   70.7045   71.8139 H   0  0  0  0  0  0  0  0  0  0  0  0
  2  1  2  0
  3  2  1  0
  4  3  2  0
  5  4  1  0
  6  5  2  0
  6  1  1  0
  7  5  1  0
  8  7  1  0
  9  8  1  0
 10  9  1  0
 10  4  1  0
 11 10  1  0
 12 11  1  0
 13 12  1  0
 14 13  1  0
 14  9  1  0
 15 14  1  0
 16 15  1  0
 17 16  1  0
 17 13  1  0
 18 17  2  0
 13 19  1  1
 20  1  1  0
  2 21  1  0
  3 22  1  0
  6 23  1  0
  7 24  1  0
  7 25  1  0
  8 26  1  0
  8 27  1  0
  9 28  1  1
 10 29  1  6
 11 30  1  0
 11 31  1  0
 12 32  1  0
 12 33  1  0
 14 34  1  6
 15 35  1  0
 15 36  1  0
 16 37  1  0
 16 38  1  0
 19 39  1  0
 19 40  1  0
 19 41  1  0
 20 42  1  0
M  END
>  <score>  (1) 
-11.069

$$$$
=
     RDKit          3D

 42 45  0  0  0  0  0  0  0  0999 V2000
    1.3990   68.5810   62.8220 C   0  0  0  0  0  0  0  0  0  0  0  0
    2.7460   68.5910   62.4980 C   0  0  0  0  0  0  0  0  0  0  0  0
    3.6940   68.7910   63.5060 C   0  0  0  0  0  0  0  0  0  0  0  0
    3.3100   68.9970   64.8440 C   0  0  0  0  0  0  0  0  0  0  0  0
    1.9340   68.9540   65.1590 C   0  0  0  0  0  0  0  0  0  0  0  0
    0.9880   68.7590   64.1360 C   0  0  0  0  0  0  0  0  0  0  0  0
    1.4170   69.1620   66.5610 C   0  0  0  0  0  0  0  0  0  0  0  0
    2.4920   69.0780   67.6400 C   0  0  0  0  0  0  0  0  0  0  0  0
    3.7300   69.8610   67.2030 C   0  0  2  0  0  0  0  0  0  0  0  0
    4.3490   69.1700   65.9470 C   0  0  2  0  0  0  0  0  0  0  0  0
    5.6670   69.8670   65.5080 C   0  0  0  0  0  0  0  0  0  0  0  0
    6.6660   70.0990   66.6600 C   0  0  0  0  0  0  0  0  0  0  0  0
    5.9970   70.7990   67.8380 C   0  0  1  0  0  0  0  0  0  0  0  0
    4.8030   69.9320   68.2880 C   0  0  1  0  0  0  0  0  0  0  0  0
    4.4550   70.4650   69.6730 C   0  0  0  0  0  0  0  0  0  0  0  0
    5.8340   70.6140   70.3340 C   0  0  0  0  0  0  0  0  0  0  0  0
    6.7640   70.8110   69.1490 C   0  0  0  0  0  0  0  0  0  0  0  0
    7.9710   70.9810   69.2480 O   0  0  0  0  0  0  0  0  0  0  0  0
    5.6800   72.2680   67.5040 C   0  0  0  0  0  0  0  0  0  0  0  0
    0.4380   68.3920   61.8740 O   0  0  0  0  0  0  0  0  0  0  0  0
    3.0669   68.4428   61.4564 H   0  0  0  0  0  0  0  0  0  0  0  0
    4.7632   68.7872   63.2475 H   0  0  0  0  0  0  0  0  0  0  0  0
   -0.0848   68.7475   64.3790 H   0  0  0  0  0  0  0  0  0  0  0  0
    0.9518   70.1574   66.6135 H   0  0  0  0  0  0  0  0  0  0  0  0
    0.7036   68.3487   66.7600 H   0  0  0  0  0  0  0  0  0  0  0  0
    2.1028   69.5039   68.5765 H   0  0  0  0  0  0  0  0  0  0  0  0
    2.7665   68.0244   67.7965 H   0  0  0  0  0  0  0  0  0  0  0  0
    3.4031   70.8886   66.9860 H   0  0  0  0  0  0  0  0  0  0  0  0
    4.6514   68.1461   66.2121 H   0  0  0  0  0  0  0  0  0  0  0  0
    6.1546   69.2384   64.7483 H   0  0  0  0  0  0  0  0  0  0  0  0
    5.3898   70.8589   65.1216 H   0  0  0  0  0  0  0  0  0  0  0  0
    7.0584   69.1277   66.9956 H   0  0  0  0  0  0  0  0  0  0  0  0
    7.4803   70.7399   66.2909 H   0  0  0  0  0  0  0  0  0  0  0  0
    4.9980   68.8557   68.4041 H   0  0  0  0  0  0  0  0  0  0  0  0
    3.9400   71.4347   69.6069 H   0  0  0  0  0  0  0  0  0  0  0  0
    3.7708   69.8107   70.2332 H   0  0  0  0  0  0  0  0  0  0  0  0
    5.8585   71.4857   71.0045 H   0  0  0  0  0  0  0  0  0  0  0  0
    6.1086   69.7528   70.9609 H   0  0  0  0  0  0  0  0  0  0  0  0
    5.5570   72.8378   68.4368 H   0  0  0  0  0  0  0  0  0  0  0  0
    6.5062   72.6974   66.9183 H   0  0  0  0  0  0  0  0  0  0  0  0
    4.7503   72.3185   66.9183 H   0  0  0  0  0  0  0  0  0  0  0  0
   -0.5178   68.3892   62.1318 H   0  0  0  0  0  0  0  0  0  0  0  0
  2  1  2  0
  3  2  1  0
  4  3  2  0
  5  4  1  0
  6  5  2  0
  6  1  1  0
  7  5  1  0
  8  7  1  0
  9  8  1  0
 10  9  1  0
 10  4  1  0
 11 10  1  0
 12 11  1  0
 13 12  1  0
 14 13  1  0
 14  9  1  0
 15 14  1  0
 16 15  1  0
 17 16  1  0
 17 13  1  0
 18 17  2  0
 13 19  1  6
 20  1  1  0
  2 21  1  0
  3 22  1  0
  6 23  1  0
  7 24  1  0
  7 25  1  0
  8 26  1  0
  8 27  1  0
  9 28  1  6
 10 29  1  1
 11 30  1  0
 11 31  1  0
 12 32  1  0
 12 33  1  0
 14 34  1  1
 15 35  1  0
 15 36  1  0
 16 37  1  0
 16 38  1  0
 19 39  1  0
 19 40  1  0
 19 41  1  0
 20 42  1  0
M  END
>  <score>  (2) 
-9.809

$$$$
=
     RDKit          3D

 42 45  0  0  0  0  0  0  0  0999 V2000
    5.0320   68.4330   62.7180 C   0  0  0  0  0  0  0  0  0  0  0  0
    5.0450   67.6840   63.8840 C   0  0  0  0  0  0  0  0  0  0  0  0
    3.8460   67.4440   64.5610 C   0  0  0  0  0  0  0  0  0  0  0  0
    2.6230   67.9590   64.0920 C   0  0  0  0  0  0  0  0  0  0  0  0
    2.6260   68.6950   62.8870 C   0  0  0  0  0  0  0  0  0  0  0  0
    3.8380   68.9370   62.2180 C   0  0  0  0  0  0  0  0  0  0  0  0
    1.3700   69.2900   62.2980 C   0  0  0  0  0  0  0  0  0  0  0  0
    0.0800   68.7500   62.9090 C   0  0  0  0  0  0  0  0  0  0  0  0
    0.2090   68.6960   64.4320 C   0  0  2  0  0  0  0  0  0  0  0  0
    1.3110   67.6570   64.8100 C   0  0  2  0  0  0  0  0  0  0  0  0
    1.4260   67.4860   66.3500 C   0  0  0  0  0  0  0  0  0  0  0  0
    0.0740   67.2610   67.0570 C   0  0  0  0  0  0  0  0  0  0  0  0
   -0.9420   68.3250   66.6590 C   0  0  1  0  0  0  0  0  0  0  0  0
   -1.0910   68.2880   65.1240 C   0  0  1  0  0  0  0  0  0  0  0  0
   -2.3760   69.0620   64.8550 C   0  0  0  0  0  0  0  0  0  0  0  0
   -3.3330   68.5120   65.9240 C   0  0  0  0  0  0  0  0  0  0  0  0
   -2.3910   68.0560   67.0250 C   0  0  0  0  0  0  0  0  0  0  0  0
   -2.7620   67.5590   68.0790 O   0  0  0  0  0  0  0  0  0  0  0  0
   -0.5830   69.6920   67.2720 C   0  0  0  0  0  0  0  0  0  0  0  0
    6.1750   68.6960   62.0250 O   0  0  0  0  0  0  0  0  0  0  0  0
    5.9917   67.2815   64.2737 H   0  0  0  0  0  0  0  0  0  0  0  0
    3.8585   66.8397   65.4800 H   0  0  0  0  0  0  0  0  0  0  0  0
    3.8412   69.5300   61.2915 H   0  0  0  0  0  0  0  0  0  0  0  0
    1.3971   70.3785   62.4540 H   0  0  0  0  0  0  0  0  0  0  0  0
    1.3569   69.0141   61.2332 H   0  0  0  0  0  0  0  0  0  0  0  0
   -0.7568   69.4101   62.6369 H   0  0  0  0  0  0  0  0  0  0  0  0
   -0.1064   67.7362   62.5249 H   0  0  0  0  0  0  0  0  0  0  0  0
    0.4678   69.7097   64.7719 H   0  0  0  0  0  0  0  0  0  0  0  0
    1.0107   66.6644   64.4432 H   0  0  0  0  0  0  0  0  0  0  0  0
    2.0722   66.6197   66.5549 H   0  0  0  0  0  0  0  0  0  0  0  0
    1.8403   68.4252   66.7452 H   0  0  0  0  0  0  0  0  0  0  0  0
   -0.3159   66.2709   66.7782 H   0  0  0  0  0  0  0  0  0  0  0  0
    0.2353   67.3236   68.1433 H   0  0  0  0  0  0  0  0  0  0  0  0
   -1.2204   67.2948   64.6693 H   0  0  0  0  0  0  0  0  0  0  0  0
   -2.2209   70.1438   64.9805 H   0  0  0  0  0  0  0  0  0  0  0  0
   -2.7520   68.9396   63.8285 H   0  0  0  0  0  0  0  0  0  0  0  0
   -4.0139   69.2964   66.2861 H   0  0  0  0  0  0  0  0  0  0  0  0
   -3.9839   67.7079   65.5502 H   0  0  0  0  0  0  0  0  0  0  0  0
   -0.6024   69.6182   68.3694 H   0  0  0  0  0  0  0  0  0  0  0  0
    0.4235   69.9888   66.9422 H   0  0  0  0  0  0  0  0  0  0  0  0
   -1.3138   70.4451   66.9422 H   0  0  0  0  0  0  0  0  0  0  0  0
    6.1378   69.2338   61.1947 H   0  0  0  0  0  0  0  0  0  0  0  0
  2  1  2  0
  3  2  1  0
  4  3  2  0
  5  4  1  0
  6  5  2  0
  6  1  1  0
  7  5  1  0
  8  7  1  0
  9  8  1  0
 10  9  1  0
 10  4  1  0
 11 10  1  0
 12 11  1  0
 13 12  1  0
 14 13  1  0
 14  9  1  0
 15 14  1  0
 16 15  1  0
 17 16  1  0
 17 13  1  0
 18 17  2  0
 13 19  1  6
 20  1  1  0
  2 21  1  0
  3 22  1  0
  6 23  1  0
  7 24  1  0
  7 25  1  0
  8 26  1  0
  8 27  1  0
  9 28  1  1
 10 29  1  6
 11 30  1  0
 11 31  1  0
 12 32  1  0
 12 33  1  0
 14 34  1  6
 15 35  1  0
 15 36  1  0
 16 37  1  0
 16 38  1  0
 19 39  1  0
 19 40  1  0
 19 41  1  0
 20 42  1  0
M  END
>  <score>  (3) 
-8.933

$$$$
=
     RDKit          3D

 42 45  0  0  0  0  0  0  0  0999 V2000
   -2.5350   59.6650   74.4010 C   0  0  0  0  0  0  0  0  0  0  0  0
   -1.5210   58.7890   74.7540 C   0  0  0  0  0  0  0  0  0  0  0  0
   -0.2090   59.0590   74.3560 C   0  0  0  0  0  0  0  0  0  0  0  0
    0.1050   60.1980   73.5900 C   0  0  0  0  0  0  0  0  0  0  0  0
   -0.9370   61.0940   73.2660 C   0  0  0  0  0  0  0  0  0  0  0  0
   -2.2540   60.8080   73.6660 C   0  0  0  0  0  0  0  0  0  0  0  0
   -0.7070   62.3430   72.4510 C   0  0  0  0  0  0  0  0  0  0  0  0
    0.7620   62.7310   72.3060 C   0  0  0  0  0  0  0  0  0  0  0  0
    1.5960   61.4910   71.9810 C   0  0  2  0  0  0  0  0  0  0  0  0
    1.5450   60.5130   73.1960 C   0  0  2  0  0  0  0  0  0  0  0  0
    2.4520   59.2730   72.9650 C   0  0  0  0  0  0  0  0  0  0  0  0
    3.8780   59.6200   72.4910 C   0  0  0  0  0  0  0  0  0  0  0  0
    3.8480   60.5570   71.2890 C   0  0  1  0  0  0  0  0  0  0  0  0
    3.0600   61.8210   71.6930 C   0  0  1  0  0  0  0  0  0  0  0  0
    3.4170   62.8420   70.6190 C   0  0  0  0  0  0  0  0  0  0  0  0
    4.9370   62.6650   70.4760 C   0  0  0  0  0  0  0  0  0  0  0  0
    5.1580   61.2270   70.9140 C   0  0  0  0  0  0  0  0  0  0  0  0
    6.2510   60.6800   70.9350 O   0  0  0  0  0  0  0  0  0  0  0  0
    3.3540   59.8260   70.0270 C   0  0  0  0  0  0  0  0  0  0  0  0
   -3.8300   59.4420   74.7640 O   0  0  0  0  0  0  0  0  0  0  0  0
   -1.7471   57.8879   75.3430 H   0  0  0  0  0  0  0  0  0  0  0  0
    0.5953   58.3673   74.6472 H   0  0  0  0  0  0  0  0  0  0  0  0
   -3.0683   61.4958   73.3942 H   0  0  0  0  0  0  0  0  0  0  0  0
   -1.1222   62.1806   71.4454 H   0  0  0  0  0  0  0  0  0  0  0  0
   -1.2012   63.1668   72.9869 H   0  0  0  0  0  0  0  0  0  0  0  0
    0.8673   63.4651   71.4936 H   0  0  0  0  0  0  0  0  0  0  0  0
    1.1166   63.1697   73.2504 H   0  0  0  0  0  0  0  0  0  0  0  0
    1.1668   61.0392   71.0745 H   0  0  0  0  0  0  0  0  0  0  0  0
    1.9760   61.0107   74.0772 H   0  0  0  0  0  0  0  0  0  0  0  0
    2.5274   58.7181   73.9118 H   0  0  0  0  0  0  0  0  0  0  0  0
    1.9850   58.6812   72.1640 H   0  0  0  0  0  0  0  0  0  0  0  0
    4.4202   60.1093   73.3136 H   0  0  0  0  0  0  0  0  0  0  0  0
    4.3819   58.6886   72.1934 H   0  0  0  0  0  0  0  0  0  0  0  0
    3.3249   62.2746   72.6595 H   0  0  0  0  0  0  0  0  0  0  0  0
    2.9011   62.6196   69.6733 H   0  0  0  0  0  0  0  0  0  0  0  0
    3.1197   63.8691   70.8772 H   0  0  0  0  0  0  0  0  0  0  0  0
    5.2558   62.8140   69.4338 H   0  0  0  0  0  0  0  0  0  0  0  0
    5.5148   63.3911   71.0667 H   0  0  0  0  0  0  0  0  0  0  0  0
    2.7604   58.9477   70.3207 H   0  0  0  0  0  0  0  0  0  0  0  0
    2.7302   60.5069   69.4294 H   0  0  0  0  0  0  0  0  0  0  0  0
    4.2185   59.5012   69.4294 H   0  0  0  0  0  0  0  0  0  0  0  0
   -4.5359   60.0836   74.4990 H   0  0  0  0  0  0  0  0  0  0  0  0
  2  1  2  0
  3  2  1  0
  4  3  2  0
  5  4  1  0
  6  5  2  0
  6  1  1  0
  7  5  1  0
  8  7  1  0
  9  8  1  0
 10  9  1  0
 10  4  1  0
 11 10  1  0
 12 11  1  0
 13 12  1  0
 14 13  1  0
 14  9  1  0
 15 14  1  0
 16 15  1  0
 17 16  1  0
 17 13  1  0
 18 17  2  0
 13 19  1  6
 20  1  1  0
  2 21  1  0
  3 22  1  0
  6 23  1  0
  7 24  1  0
  7 25  1  0
  8 26  1  0
  8 27  1  0
  9 28  1  6
 10 29  1  1
 11 30  1  0
 11 31  1  0
 12 32  1  0
 12 33  1  0
 14 34  1  1
 15 35  1  0
 15 36  1  0
 16 37  1  0
 16 38  1  0
 19 39  1  0
 19 40  1  0
 19 41  1  0
 20 42  1  0
M  END
>  <score>  (4) 
-8.876

$$$$
=
     RDKit          3D

 42 45  0  0  0  0  0  0  0  0999 V2000
    0.1840   56.5040   74.2770 C   0  0  0  0  0  0  0  0  0  0  0  0
    1.5500   56.4060   74.0640 C   0  0  0  0  0  0  0  0  0  0  0  0
    2.2540   57.5170   73.5900 C   0  0  0  0  0  0  0  0  0  0  0  0
    1.6020   58.7330   73.3110 C   0  0  0  0  0  0  0  0  0  0  0  0
    0.2150   58.8220   73.5630 C   0  0  0  0  0  0  0  0  0  0  0  0
   -0.4840   57.6960   74.0320 C   0  0  0  0  0  0  0  0  0  0  0  0
   -0.5770   60.0790   73.2990 C   0  0  0  0  0  0  0  0  0  0  0  0
    0.2810   61.3210   73.0730 C   0  0  0  0  0  0  0  0  0  0  0  0
    1.4420   60.9870   72.1360 C   0  0  2  0  0  0  0  0  0  0  0  0
    2.3810   59.9570   72.8380 C   0  0  2  0  0  0  0  0  0  0  0  0
    3.6330   59.6470   71.9720 C   0  0  0  0  0  0  0  0  0  0  0  0
    4.3540   60.9040   71.4430 C   0  0  0  0  0  0  0  0  0  0  0  0
    3.3800   61.8490   70.7480 C   0  0  1  0  0  0  0  0  0  0  0  0
    2.2720   62.2130   71.7590 C   0  0  1  0  0  0  0  0  0  0  0  0
    1.5970   63.4350   71.1480 C   0  0  0  0  0  0  0  0  0  0  0  0
    2.7910   64.2860   70.6870 C   0  0  0  0  0  0  0  0  0  0  0  0
    3.8800   63.2530   70.4590 C   0  0  0  0  0  0  0  0  0  0  0  0
    5.0070   63.5230   70.0680 O   0  0  0  0  0  0  0  0  0  0  0  0
    2.9050   61.2680   69.4040 C   0  0  0  0  0  0  0  0  0  0  0  0
   -0.5450   55.4470   74.7340 O   0  0  0  0  0  0  0  0  0  0  0  0
    2.0762   55.4614   74.2663 H   0  0  0  0  0  0  0  0  0  0  0  0
    3.3398   57.4393   73.4318 H   0  0  0  0  0  0  0  0  0  0  0  0
   -1.5682   57.7600   74.2061 H   0  0  0  0  0  0  0  0  0  0  0  0
   -1.1931   59.9170   72.4022 H   0  0  0  0  0  0  0  0  0  0  0  0
   -1.1790   60.2693   74.1998 H   0  0  0  0  0  0  0  0  0  0  0  0
   -0.3352   62.1131   72.6225 H   0  0  0  0  0  0  0  0  0  0  0  0
    0.6815   61.6654   74.0379 H   0  0  0  0  0  0  0  0  0  0  0  0
    1.0056   60.5785   71.2126 H   0  0  0  0  0  0  0  0  0  0  0  0
    2.7846   60.4072   73.7569 H   0  0  0  0  0  0  0  0  0  0  0  0
    4.3436   59.0719   72.5838 H   0  0  0  0  0  0  0  0  0  0  0  0
    3.2823   59.0864   71.0930 H   0  0  0  0  0  0  0  0  0  0  0  0
    4.8232   61.4302   72.2874 H   0  0  0  0  0  0  0  0  0  0  0  0
    5.1128   60.5877   70.7121 H   0  0  0  0  0  0  0  0  0  0  0  0
    2.6057   62.5069   72.7651 H   0  0  0  0  0  0  0  0  0  0  0  0
    0.9597   63.1521   70.2973 H   0  0  0  0  0  0  0  0  0  0  0  0
    0.9307   63.9609   71.8476 H   0  0  0  0  0  0  0  0  0  0  0  0
    2.5566   64.8250   69.7572 H   0  0  0  0  0  0  0  0  0  0  0  0
    3.0754   65.0623   71.4126 H   0  0  0  0  0  0  0  0  0  0  0  0
    2.2187   60.4286   69.5895 H   0  0  0  0  0  0  0  0  0  0  0  0
    2.3831   62.0486   68.8311 H   0  0  0  0  0  0  0  0  0  0  0  0
    3.7738   60.9116   68.8311 H   0  0  0  0  0  0  0  0  0  0  0  0
   -1.5198   55.5432   74.8779 H   0  0  0  0  0  0  0  0  0  0  0  0
  2  1  2  0
  3  2  1  0
  4  3  2  0
  5  4  1  0
  6  5  2  0
  6  1  1  0
  7  5  1  0
  8  7  1  0
  9  8  1  0
 10  9  1  0
 10  4  1  0
 11 10  1  0
 12 11  1  0
 13 12  1  0
 14 13  1  0
 14  9  1  0
 15 14  1  0
 16 15  1  0
 17 16  1  0
 17 13  1  0
 18 17  2  0
 13 19  1  6
 20  1  1  0
  2 21  1  0
  3 22  1  0
  6 23  1  0
  7 24  1  0
  7 25  1  0
  8 26  1  0
  8 27  1  0
  9 28  1  6
 10 29  1  1
 11 30  1  0
 11 31  1  0
 12 32  1  0
 12 33  1  0
 14 34  1  1
 15 35  1  0
 15 36  1  0
 16 37  1  0
 16 38  1  0
 19 39  1  0
 19 40  1  0
 19 41  1  0
 20 42  1  0
M  END
>  <score>  (5) 
-8.551

$$$$
=
     RDKit          3D

 42 45  0  0  0  0  0  0  0  0999 V2000
    4.5540   63.0390   70.6410 C   0  0  0  0  0  0  0  0  0  0  0  0
    4.7660   61.6920   70.8900 C   0  0  0  0  0  0  0  0  0  0  0  0
    3.7230   60.9150   71.4020 C   0  0  0  0  0  0  0  0  0  0  0  0
    2.4620   61.4740   71.6830 C   0  0  0  0  0  0  0  0  0  0  0  0
    2.2570   62.8400   71.3930 C   0  0  0  0  0  0  0  0  0  0  0  0
    3.3150   63.6150   70.8870 C   0  0  0  0  0  0  0  0  0  0  0  0
    0.9430   63.5360   71.6560 C   0  0  0  0  0  0  0  0  0  0  0  0
   -0.2210   62.5860   71.9260 C   0  0  0  0  0  0  0  0  0  0  0  0
    0.2200   61.4850   72.8900 C   0  0  2  0  0  0  0  0  0  0  0  0
    1.3130   60.6120   72.1970 C   0  0  2  0  0  0  0  0  0  0  0  0
    1.7360   59.4150   73.0940 C   0  0  0  0  0  0  0  0  0  0  0  0
    0.5510   58.6110   73.6640 C   0  0  0  0  0  0  0  0  0  0  0  0
   -0.4610   59.5240   74.3460 C   0  0  1  0  0  0  0  0  0  0  0  0
   -0.9280   60.5690   73.3100 C   0  0  1  0  0  0  0  0  0  0  0  0
   -2.1930   61.1600   73.9220 C   0  0  0  0  0  0  0  0  0  0  0  0
   -2.9370   59.9150   74.4310 C   0  0  0  0  0  0  0  0  0  0  0  0
   -1.8150   58.9200   74.6730 C   0  0  0  0  0  0  0  0  0  0  0  0
   -1.9860   57.7870   75.0990 O   0  0  0  0  0  0  0  0  0  0  0  0
    0.0980   60.0840   75.6670 C   0  0  0  0  0  0  0  0  0  0  0  0
    5.5410   63.8370   70.1460 O   0  0  0  0  0  0  0  0  0  0  0  0
    5.7471   61.2382   70.6863 H   0  0  0  0  0  0  0  0  0  0  0  0
    3.8911   59.8442   71.5893 H   0  0  0  0  0  0  0  0  0  0  0  0
    3.1602   64.6851   70.6846 H   0  0  0  0  0  0  0  0  0  0  0  0
    1.0670   64.1887   72.5327 H   0  0  0  0  0  0  0  0  0  0  0  0
    0.6914   64.0953   70.7429 H   0  0  0  0  0  0  0  0  0  0  0  0
   -1.0551   63.1482   72.3712 H   0  0  0  0  0  0  0  0  0  0  0  0
   -0.5441   62.1301   70.9785 H   0  0  0  0  0  0  0  0  0  0  0  0
    0.6042   61.9806   73.7938 H   0  0  0  0  0  0  0  0  0  0  0  0
    0.8853   60.1460   71.2971 H   0  0  0  0  0  0  0  0  0  0  0  0
    2.3584   58.7354   72.4934 H   0  0  0  0  0  0  0  0  0  0  0  0
    2.2781   59.8365   73.9534 H   0  0  0  0  0  0  0  0  0  0  0  0
    0.0534   58.0751   72.8423 H   0  0  0  0  0  0  0  0  0  0  0  0
    0.9392   57.9035   74.4115 H   0  0  0  0  0  0  0  0  0  0  0  0
   -1.2068   60.1830   72.3184 H   0  0  0  0  0  0  0  0  0  0  0  0
   -1.9512   61.8433   74.7494 H   0  0  0  0  0  0  0  0  0  0  0  0
   -2.7816   61.7599   73.2123 H   0  0  0  0  0  0  0  0  0  0  0  0
   -3.4800   60.1325   75.3626 H   0  0  0  0  0  0  0  0  0  0  0  0
   -3.6976   59.5470   73.7267 H   0  0  0  0  0  0  0  0  0  0  0  0
   -0.3974   59.5877   76.5145 H   0  0  0  0  0  0  0  0  0  0  0  0
    1.1810   59.8977   75.7151 H   0  0  0  0  0  0  0  0  0  0  0  0
   -0.0903   61.1667   75.7151 H   0  0  0  0  0  0  0  0  0  0  0  0
    5.3639   64.7962   69.9769 H   0  0  0  0  0  0  0  0  0  0  0  0
  2  1  2  0
  3  2  1  0
  4  3  2  0
  5  4  1  0
  6  5  2  0
  6  1  1  0
  7  5  1  0
  8  7  1  0
  9  8  1  0
 10  9  1  0
 10  4  1  0
 11 10  1  0
 12 11  1  0
 13 12  1  0
 14 13  1  0
 14  9  1  0
 15 14  1  0
 16 15  1  0
 17 16  1  0
 17 13  1  0
 18 17  2  0
 13 19  1  1
 20  1  1  0
  2 21  1  0
  3 22  1  0
  6 23  1  0
  7 24  1  0
  7 25  1  0
  8 26  1  0
  8 27  1  0
  9 28  1  1
 10 29  1  6
 11 30  1  0
 11 31  1  0
 12 32  1  0
 12 33  1  0
 14 34  1  6
 15 35  1  0
 15 36  1  0
 16 37  1  0
 16 38  1  0
 19 39  1  0
 19 40  1  0
 19 41  1  0
 20 42  1  0
M  END
>  <score>  (6) 
-8.279

$$$$
=
     RDKit          3D

 42 45  0  0  0  0  0  0  0  0999 V2000
    0.2800   63.6530   76.5050 C   0  0  0  0  0  0  0  0  0  0  0  0
   -0.0280   64.6030   75.5430 C   0  0  0  0  0  0  0  0  0  0  0  0
    0.3520   64.3860   74.2160 C   0  0  0  0  0  0  0  0  0  0  0  0
    1.0550   63.2280   73.8340 C   0  0  0  0  0  0  0  0  0  0  0  0
    1.3330   62.2580   74.8220 C   0  0  0  0  0  0  0  0  0  0  0  0
    0.9530   62.4900   76.1560 C   0  0  0  0  0  0  0  0  0  0  0  0
    2.0800   60.9820   74.5180 C   0  0  0  0  0  0  0  0  0  0  0  0
    2.2000   60.6710   73.0290 C   0  0  0  0  0  0  0  0  0  0  0  0
    2.5890   61.9370   72.2630 C   0  0  2  0  0  0  0  0  0  0  0  0
    1.4280   62.9740   72.3760 C   0  0  2  0  0  0  0  0  0  0  0  0
    1.7230   64.2500   71.5390 C   0  0  0  0  0  0  0  0  0  0  0  0
    2.1740   63.9590   70.0940 C   0  0  0  0  0  0  0  0  0  0  0  0
    3.3250   62.9590   70.0640 C   0  0  1  0  0  0  0  0  0  0  0  0
    2.8550   61.6760   70.7820 C   0  0  1  0  0  0  0  0  0  0  0  0
    3.8730   60.6210   70.3620 C   0  0  0  0  0  0  0  0  0  0  0  0
    4.0210   60.8760   68.8540 C   0  0  0  0  0  0  0  0  0  0  0  0
    3.6600   62.3450   68.7170 C   0  0  0  0  0  0  0  0  0  0  0  0
    3.6650   62.9530   67.6560 O   0  0  0  0  0  0  0  0  0  0  0  0
    4.6250   63.5930   70.5910 C   0  0  0  0  0  0  0  0  0  0  0  0
   -0.0670   63.8220   77.8110 O   0  0  0  0  0  0  0  0  0  0  0  0
   -0.5672   65.5202   75.8223 H   0  0  0  0  0  0  0  0  0  0  0  0
    0.0962   65.1364   73.4534 H   0  0  0  0  0  0  0  0  0  0  0  0
    1.1909   61.7442   76.9288 H   0  0  0  0  0  0  0  0  0  0  0  0
    3.0939   61.0671   74.9361 H   0  0  0  0  0  0  0  0  0  0  0  0
    1.5027   60.1611   74.9684 H   0  0  0  0  0  0  0  0  0  0  0  0
    2.9715   59.9016   72.8780 H   0  0  0  0  0  0  0  0  0  0  0  0
    1.2321   60.3048   72.6561 H   0  0  0  0  0  0  0  0  0  0  0  0
    3.5200   62.3143   72.7112 H   0  0  0  0  0  0  0  0  0  0  0  0
    0.5205   62.5488   71.9226 H   0  0  0  0  0  0  0  0  0  0  0  0
    0.8072   64.8580   71.5001 H   0  0  0  0  0  0  0  0  0  0  0  0
    2.5554   64.7712   72.0343 H   0  0  0  0  0  0  0  0  0  0  0  0
    1.3250   63.5453   69.5300 H   0  0  0  0  0  0  0  0  0  0  0  0
    2.5197   64.9003   69.6418 H   0  0  0  0  0  0  0  0  0  0  0  0
    1.8647   61.2908   70.4975 H   0  0  0  0  0  0  0  0  0  0  0  0
    4.8305   60.7636   70.8843 H   0  0  0  0  0  0  0  0  0  0  0  0
    3.5616   59.5938   70.6025 H   0  0  0  0  0  0  0  0  0  0  0  0
    5.0529   60.6901   68.5213 H   0  0  0  0  0  0  0  0  0  0  0  0
    3.3906   60.2163   68.2396 H   0  0  0  0  0  0  0  0  0  0  0  0
    4.6155   63.5884   71.6909 H   0  0  0  0  0  0  0  0  0  0  0  0
    5.4879   63.0146   70.2293 H   0  0  0  0  0  0  0  0  0  0  0  0
    4.7005   64.6291   70.2293 H   0  0  0  0  0  0  0  0  0  0  0  0
    0.1647   63.1285   78.4785 H   0  0  0  0  0  0  0  0  0  0  0  0
  2  1  2  0
  3  2  1  0
  4  3  2  0
  5  4  1  0
  6  5  2  0
  6  1  1  0
  7  5  1  0
  8  7  1  0
  9  8  1  0
 10  9  1  0
 10  4  1  0
 11 10  1  0
 12 11  1  0
 13 12  1  0
 14 13  1  0
 14  9  1  0
 15 14  1  0
 16 15  1  0
 17 16  1  0
 17 13  1  0
 18 17  2  0
 13 19  1  1
 20  1  1  0
  2 21  1  0
  3 22  1  0
  6 23  1  0
  7 24  1  0
  7 25  1  0
  8 26  1  0
  8 27  1  0
  9 28  1  1
 10 29  1  6
 11 30  1  0
 11 31  1  0
 12 32  1  0
 12 33  1  0
 14 34  1  6
 15 35  1  0
 15 36  1  0
 16 37  1  0
 16 38  1  0
 19 39  1  0
 19 40  1  0
 19 41  1  0
 20 42  1  0
M  END
>  <score>  (7) 
-8.276

$$$$
