=
     RDKit          3D

 29 30  0  0  0  0  0  0  0  0999 V2000
    1.8390   68.8170   66.7840 C   0  0  0  0  0  0  0  0  0  0  0  0
    0.7910   69.0810   67.3640 O   0  0  0  0  0  0  0  0  0  0  0  0
    5.5200   70.7040   67.9650 C   0  0  0  0  0  0  0  0  0  0  0  0
    5.4050   70.1320   66.6900 C   0  0  0  0  0  0  0  0  0  0  0  0
    4.2190   69.5080   66.2900 C   0  0  0  0  0  0  0  0  0  0  0  0
    3.1270   69.4510   67.1640 C   0  0  0  0  0  0  0  0  0  0  0  0
    3.2360   70.0250   68.4370 C   0  0  0  0  0  0  0  0  0  0  0  0
    4.4220   70.6480   68.8330 C   0  0  0  0  0  0  0  0  0  0  0  0
    7.3860   70.6390   70.0790 Br  0  0  0  0  0  0  0  0  0  0  0  0
    6.7910   71.3820   68.3850 C   0  0  0  0  0  0  0  0  0  0  0  0
    1.7950   67.8450   65.6270 C   0  0  0  0  0  0  0  0  0  0  0  0
    2.0410   66.6650   65.8510 O   0  0  0  0  0  0  0  0  0  0  0  0
    1.4970   68.3410   64.2590 C   0  0  0  0  0  0  0  0  0  0  0  0
    2.5240   68.3110   63.3030 C   0  0  0  0  0  0  0  0  0  0  0  0
    2.2960   68.7830   62.0100 C   0  0  0  0  0  0  0  0  0  0  0  0
    1.0440   69.2860   61.6630 C   0  0  0  0  0  0  0  0  0  0  0  0
    0.0180   69.3170   62.6070 C   0  0  0  0  0  0  0  0  0  0  0  0
    0.2410   68.8460   63.9030 C   0  0  0  0  0  0  0  0  0  0  0  0
    6.2576   70.1745   65.9962 H   0  0  0  0  0  0  0  0  0  0  0  0
    4.1442   69.0615   65.2875 H   0  0  0  0  0  0  0  0  0  0  0  0
    2.3822   69.9850   69.1294 H   0  0  0  0  0  0  0  0  0  0  0  0
    4.4942   71.0980   69.8341 H   0  0  0  0  0  0  0  0  0  0  0  0
    6.6111   72.4611   68.5000 H   0  0  0  0  0  0  0  0  0  0  0  0
    7.5647   71.2208   67.6199 H   0  0  0  0  0  0  0  0  0  0  0  0
    3.5132   67.9136   63.5743 H   0  0  0  0  0  0  0  0  0  0  0  0
    3.1046   68.7580   61.2647 H   0  0  0  0  0  0  0  0  0  0  0  0
    0.8646   69.6589   60.6438 H   0  0  0  0  0  0  0  0  0  0  0  0
   -0.9700   69.7136   62.3302 H   0  0  0  0  0  0  0  0  0  0  0  0
   -0.5711   68.8720   64.6445 H   0  0  0  0  0  0  0  0  0  0  0  0
  2  1  2  0
  4  3  2  0
  5  4  1  0
  6  5  2  0
  6  1  1  0
  7  6  1  0
  8  7  2  0
  8  3  1  0
 10  9  1  0
 10  3  1  0
 11  1  1  0
 12 11  2  0
 13 11  1  0
 14 13  2  0
 15 14  1  0
 16 15  2  0
 17 16  1  0
 18 17  2  0
 18 13  1  0
  4 19  1  0
  5 20  1  0
  7 21  1  0
  8 22  1  0
 10 23  1  0
 10 24  1  0
 14 25  1  0
 15 26  1  0
 16 27  1  0
 17 28  1  0
 18 29  1  0
M  END
>  <score>  (1) 
-9.551

$$$$
=
     RDKit          3D

 29 30  0  0  0  0  0  0  0  0999 V2000
    4.5390   68.9780   63.7680 C   0  0  0  0  0  0  0  0  0  0  0  0
    5.2830   69.3320   62.8610 O   0  0  0  0  0  0  0  0  0  0  0  0
    5.2200   70.2830   67.8100 C   0  0  0  0  0  0  0  0  0  0  0  0
    3.9570   69.8090   67.4320 C   0  0  0  0  0  0  0  0  0  0  0  0
    3.7140   69.3870   66.1210 C   0  0  0  0  0  0  0  0  0  0  0  0
    4.7380   69.4310   65.1690 C   0  0  0  0  0  0  0  0  0  0  0  0
    6.0040   69.8990   65.5430 C   0  0  0  0  0  0  0  0  0  0  0  0
    6.2440   70.3200   66.8530 C   0  0  0  0  0  0  0  0  0  0  0  0
    7.3950   70.9040   69.4950 Br  0  0  0  0  0  0  0  0  0  0  0  0
    5.4800   70.7240   69.2210 C   0  0  0  0  0  0  0  0  0  0  0  0
    3.4120   68.0240   63.4420 C   0  0  0  0  0  0  0  0  0  0  0  0
    3.6320   66.8200   63.5100 O   0  0  0  0  0  0  0  0  0  0  0  0
    2.0950   68.5610   63.0120 C   0  0  0  0  0  0  0  0  0  0  0  0
    1.0390   68.5480   63.9340 C   0  0  0  0  0  0  0  0  0  0  0  0
   -0.2210   69.0260   63.5700 C   0  0  0  0  0  0  0  0  0  0  0  0
   -0.4330   69.5190   62.2840 C   0  0  0  0  0  0  0  0  0  0  0  0
    0.6130   69.5370   61.3620 C   0  0  0  0  0  0  0  0  0  0  0  0
    1.8760   69.0600   61.7220 C   0  0  0  0  0  0  0  0  0  0  0  0
    3.1470   69.7683   68.1751 H   0  0  0  0  0  0  0  0  0  0  0  0
    2.7164   69.0200   65.8381 H   0  0  0  0  0  0  0  0  0  0  0  0
    6.8145   69.9352   64.8002 H   0  0  0  0  0  0  0  0  0  0  0  0
    7.2431   70.6830   67.1358 H   0  0  0  0  0  0  0  0  0  0  0  0
    5.0775   69.9759   69.9198 H   0  0  0  0  0  0  0  0  0  0  0  0
    4.9895   71.6920   69.4008 H   0  0  0  0  0  0  0  0  0  0  0  0
    1.2042   68.1591   64.9496 H   0  0  0  0  0  0  0  0  0  0  0  0
   -1.0458   69.0135   64.2977 H   0  0  0  0  0  0  0  0  0  0  0  0
   -1.4261   69.8942   61.9960 H   0  0  0  0  0  0  0  0  0  0  0  0
    0.4433   69.9280   60.3479 H   0  0  0  0  0  0  0  0  0  0  0  0
    2.6986   69.0764   60.9919 H   0  0  0  0  0  0  0  0  0  0  0  0
  2  1  2  0
  4  3  2  0
  5  4  1  0
  6  5  2  0
  6  1  1  0
  7  6  1  0
  8  7  2  0
  8  3  1  0
 10  9  1  0
 10  3  1  0
 11  1  1  0
 12 11  2  0
 13 11  1  0
 14 13  2  0
 15 14  1  0
 16 15  2  0
 17 16  1  0
 18 17  2  0
 18 13  1  0
  4 19  1  0
  5 20  1  0
  7 21  1  0
  8 22  1  0
 10 23  1  0
 10 24  1  0
 14 25  1  0
 15 26  1  0
 16 27  1  0
 17 28  1  0
 18 29  1  0
M  END
>  <score>  (2) 
-9.365

$$$$
=
     RDKit          3D

 29 30  0  0  0  0  0  0  0  0999 V2000
    2.2330   68.4410   64.9520 C   0  0  0  0  0  0  0  0  0  0  0  0
    1.8680   69.0870   63.9760 O   0  0  0  0  0  0  0  0  0  0  0  0
    4.4490   70.2430   68.1690 C   0  0  0  0  0  0  0  0  0  0  0  0
    5.0660   70.0270   66.9290 C   0  0  0  0  0  0  0  0  0  0  0  0
    4.3650   69.4370   65.8740 C   0  0  0  0  0  0  0  0  0  0  0  0
    3.0290   69.0560   66.0460 C   0  0  0  0  0  0  0  0  0  0  0  0
    2.4060   69.2730   67.2810 C   0  0  0  0  0  0  0  0  0  0  0  0
    3.1100   69.8640   68.3330 C   0  0  0  0  0  0  0  0  0  0  0  0
    7.0910   70.9650   68.8430 Br  0  0  0  0  0  0  0  0  0  0  0  0
    5.2020   70.8880   69.2950 C   0  0  0  0  0  0  0  0  0  0  0  0
    1.8860   66.9710   65.0130 C   0  0  0  0  0  0  0  0  0  0  0  0
    0.7610   66.6550   65.3840 O   0  0  0  0  0  0  0  0  0  0  0  0
    2.9140   65.9570   64.6640 C   0  0  0  0  0  0  0  0  0  0  0  0
    3.7750   66.2250   63.5890 C   0  0  0  0  0  0  0  0  0  0  0  0
    4.7450   65.2950   63.2150 C   0  0  0  0  0  0  0  0  0  0  0  0
    4.8630   64.0930   63.9100 C   0  0  0  0  0  0  0  0  0  0  0  0
    4.0130   63.8210   64.9820 C   0  0  0  0  0  0  0  0  0  0  0  0
    3.0390   64.7490   65.3600 C   0  0  0  0  0  0  0  0  0  0  0  0
    6.1148   70.3256   66.7847 H   0  0  0  0  0  0  0  0  0  0  0  0
    4.8634   69.2718   64.9074 H   0  0  0  0  0  0  0  0  0  0  0  0
    1.3564   68.9765   67.4237 H   0  0  0  0  0  0  0  0  0  0  0  0
    2.6092   70.0332   69.2977 H   0  0  0  0  0  0  0  0  0  0  0  0
    5.0676   70.2971   70.2130 H   0  0  0  0  0  0  0  0  0  0  0  0
    4.8201   71.9066   69.4581 H   0  0  0  0  0  0  0  0  0  0  0  0
    3.6846   67.1731   63.0385 H   0  0  0  0  0  0  0  0  0  0  0  0
    5.4170   65.5105   62.3712 H   0  0  0  0  0  0  0  0  0  0  0  0
    5.6264   63.3587   63.6133 H   0  0  0  0  0  0  0  0  0  0  0  0
    4.1097   62.8730   65.5316 H   0  0  0  0  0  0  0  0  0  0  0  0
    2.3700   64.5300   66.2052 H   0  0  0  0  0  0  0  0  0  0  0  0
  2  1  2  0
  4  3  2  0
  5  4  1  0
  6  5  2  0
  6  1  1  0
  7  6  1  0
  8  7  2  0
  8  3  1  0
 10  9  1  0
 10  3  1  0
 11  1  1  0
 12 11  2  0
 13 11  1  0
 14 13  2  0
 15 14  1  0
 16 15  2  0
 17 16  1  0
 18 17  2  0
 18 13  1  0
  4 19  1  0
  5 20  1  0
  7 21  1  0
  8 22  1  0
 10 23  1  0
 10 24  1  0
 14 25  1  0
 15 26  1  0
 16 27  1  0
 17 28  1  0
 18 29  1  0
M  END
>  <score>  (3) 
-9.356

$$$$
=
     RDKit          3D

 29 30  0  0  0  0  0  0  0  0999 V2000
    4.6080   69.0860   63.7520 C   0  0  0  0  0  0  0  0  0  0  0  0
    5.3460   69.4600   62.8460 O   0  0  0  0  0  0  0  0  0  0  0  0
    5.2620   70.3920   67.7990 C   0  0  0  0  0  0  0  0  0  0  0  0
    4.0200   69.8590   67.4270 C   0  0  0  0  0  0  0  0  0  0  0  0
    3.7860   69.4350   66.1150 C   0  0  0  0  0  0  0  0  0  0  0  0
    4.7980   69.5380   65.1540 C   0  0  0  0  0  0  0  0  0  0  0  0
    6.0430   70.0650   65.5210 C   0  0  0  0  0  0  0  0  0  0  0  0
    6.2730   70.4870   66.8320 C   0  0  0  0  0  0  0  0  0  0  0  0
    7.4260   70.8450   69.5500 Br  0  0  0  0  0  0  0  0  0  0  0  0
    5.5130   70.8330   69.2100 C   0  0  0  0  0  0  0  0  0  0  0  0
    3.5020   68.1110   63.4210 C   0  0  0  0  0  0  0  0  0  0  0  0
    2.4900   68.5420   62.8800 O   0  0  0  0  0  0  0  0  0  0  0  0
    3.6480   66.6790   63.7910 C   0  0  0  0  0  0  0  0  0  0  0  0
    2.8410   66.1730   64.8200 C   0  0  0  0  0  0  0  0  0  0  0  0
    2.9540   64.8390   65.2130 C   0  0  0  0  0  0  0  0  0  0  0  0
    3.8740   64.0030   64.5820 C   0  0  0  0  0  0  0  0  0  0  0  0
    4.6780   64.4990   63.5570 C   0  0  0  0  0  0  0  0  0  0  0  0
    4.5680   65.8340   63.1590 C   0  0  0  0  0  0  0  0  0  0  0  0
    3.2194   69.7732   68.1764 H   0  0  0  0  0  0  0  0  0  0  0  0
    2.8055   69.0202   65.8382 H   0  0  0  0  0  0  0  0  0  0  0  0
    6.8443   70.1469   64.7718 H   0  0  0  0  0  0  0  0  0  0  0  0
    7.2554   70.8974   67.1085 H   0  0  0  0  0  0  0  0  0  0  0  0
    5.0208   70.1371   69.9053 H   0  0  0  0  0  0  0  0  0  0  0  0
    5.1067   71.8446   69.3572 H   0  0  0  0  0  0  0  0  0  0  0  0
    2.1151   66.8311   65.3200 H   0  0  0  0  0  0  0  0  0  0  0  0
    2.3176   64.4472   66.0202 H   0  0  0  0  0  0  0  0  0  0  0  0
    3.9655   62.9519   64.8930 H   0  0  0  0  0  0  0  0  0  0  0  0
    5.4019   63.8369   63.0595 H   0  0  0  0  0  0  0  0  0  0  0  0
    5.2042   66.2208   62.3493 H   0  0  0  0  0  0  0  0  0  0  0  0
  2  1  2  0
  4  3  2  0
  5  4  1  0
  6  5  2  0
  6  1  1  0
  7  6  1  0
  8  7  2  0
  8  3  1  0
 10  9  1  0
 10  3  1  0
 11  1  1  0
 12 11  2  0
 13 11  1  0
 14 13  2  0
 15 14  1  0
 16 15  2  0
 17 16  1  0
 18 17  2  0
 18 13  1  0
  4 19  1  0
  5 20  1  0
  7 21  1  0
  8 22  1  0
 10 23  1  0
 10 24  1  0
 14 25  1  0
 15 26  1  0
 16 27  1  0
 17 28  1  0
 18 29  1  0
M  END
>  <score>  (4) 
-9.218

$$$$
=
     RDKit          3D

 29 30  0  0  0  0  0  0  0  0999 V2000
    3.8160   68.1070   64.7090 C   0  0  0  0  0  0  0  0  0  0  0  0
    4.2770   67.0370   64.3270 O   0  0  0  0  0  0  0  0  0  0  0  0
   -0.3740   68.5510   65.5780 C   0  0  0  0  0  0  0  0  0  0  0  0
    0.1380   68.9990   64.3530 C   0  0  0  0  0  0  0  0  0  0  0  0
    1.4980   68.8700   64.0550 C   0  0  0  0  0  0  0  0  0  0  0  0
    2.3670   68.2850   64.9820 C   0  0  0  0  0  0  0  0  0  0  0  0
    1.8600   67.8310   66.2070 C   0  0  0  0  0  0  0  0  0  0  0  0
    0.5010   67.9610   66.5010 C   0  0  0  0  0  0  0  0  0  0  0  0
   -2.3080   67.4220   67.2930 Br  0  0  0  0  0  0  0  0  0  0  0  0
   -1.8360   68.6800   65.8880 C   0  0  0  0  0  0  0  0  0  0  0  0
    4.7580   69.2790   64.8670 C   0  0  0  0  0  0  0  0  0  0  0  0
    5.2730   69.7500   63.8590 O   0  0  0  0  0  0  0  0  0  0  0  0
    5.0660   69.7990   66.2240 C   0  0  0  0  0  0  0  0  0  0  0  0
    6.3910   70.1550   66.5150 C   0  0  0  0  0  0  0  0  0  0  0  0
    6.7310   70.6320   67.7820 C   0  0  0  0  0  0  0  0  0  0  0  0
    5.7500   70.7560   68.7650 C   0  0  0  0  0  0  0  0  0  0  0  0
    4.4310   70.4060   68.4820 C   0  0  0  0  0  0  0  0  0  0  0  0
    4.0860   69.9280   67.2150 C   0  0  0  0  0  0  0  0  0  0  0  0
   -0.5383   69.4578   63.6167 H   0  0  0  0  0  0  0  0  0  0  0  0
    1.8852   69.2291   63.0901 H   0  0  0  0  0  0  0  0  0  0  0  0
    2.5365   67.3695   66.9414 H   0  0  0  0  0  0  0  0  0  0  0  0
    0.1140   67.5976   67.4644 H   0  0  0  0  0  0  0  0  0  0  0  0
   -2.4240   68.4598   64.9848 H   0  0  0  0  0  0  0  0  0  0  0  0
   -2.0527   69.7051   66.2230 H   0  0  0  0  0  0  0  0  0  0  0  0
    7.1663   70.0578   65.7408 H   0  0  0  0  0  0  0  0  0  0  0  0
    7.7718   70.9098   68.0047 H   0  0  0  0  0  0  0  0  0  0  0  0
    6.0172   71.1302   69.7643 H   0  0  0  0  0  0  0  0  0  0  0  0
    3.6587   70.5064   69.2588 H   0  0  0  0  0  0  0  0  0  0  0  0
    3.0436   69.6530   66.9964 H   0  0  0  0  0  0  0  0  0  0  0  0
  2  1  2  0
  4  3  2  0
  5  4  1  0
  6  5  2  0
  6  1  1  0
  7  6  1  0
  8  7  2  0
  8  3  1  0
 10  9  1  0
 10  3  1  0
 11  1  1  0
 12 11  2  0
 13 11  1  0
 14 13  2  0
 15 14  1  0
 16 15  2  0
 17 16  1  0
 18 17  2  0
 18 13  1  0
  4 19  1  0
  5 20  1  0
  7 21  1  0
  8 22  1  0
 10 23  1  0
 10 24  1  0
 14 25  1  0
 15 26  1  0
 16 27  1  0
 17 28  1  0
 18 29  1  0
M  END
>  <score>  (5) 
-8.971

$$$$
=
     RDKit          3D

 29 30  0  0  0  0  0  0  0  0999 V2000
    1.2820   68.0420   65.7650 C   0  0  0  0  0  0  0  0  0  0  0  0
    0.0760   68.2150   65.8980 O   0  0  0  0  0  0  0  0  0  0  0  0
    4.0820   70.2420   68.1790 C   0  0  0  0  0  0  0  0  0  0  0  0
    4.4430   69.8300   66.8880 C   0  0  0  0  0  0  0  0  0  0  0  0
    3.5490   69.1090   66.0910 C   0  0  0  0  0  0  0  0  0  0  0  0
    2.2760   68.7910   66.5760 C   0  0  0  0  0  0  0  0  0  0  0  0
    1.9090   69.2030   67.8640 C   0  0  0  0  0  0  0  0  0  0  0  0
    2.8030   69.9240   68.6570 C   0  0  0  0  0  0  0  0  0  0  0  0
    6.8340   70.8480   68.3000 Br  0  0  0  0  0  0  0  0  0  0  0  0
    5.0400   71.0270   69.0260 C   0  0  0  0  0  0  0  0  0  0  0  0
    1.7560   67.0620   64.7160 C   0  0  0  0  0  0  0  0  0  0  0  0
    1.6000   65.8650   64.9280 O   0  0  0  0  0  0  0  0  0  0  0  0
    2.4280   67.5630   63.4900 C   0  0  0  0  0  0  0  0  0  0  0  0
    1.7720   68.5400   62.7250 C   0  0  0  0  0  0  0  0  0  0  0  0
    2.3560   69.0290   61.5560 C   0  0  0  0  0  0  0  0  0  0  0  0
    3.5970   68.5470   61.1440 C   0  0  0  0  0  0  0  0  0  0  0  0
    4.2560   67.5780   61.9000 C   0  0  0  0  0  0  0  0  0  0  0  0
    3.6750   67.0850   63.0710 C   0  0  0  0  0  0  0  0  0  0  0  0
    5.4414   70.0771   66.4979 H   0  0  0  0  0  0  0  0  0  0  0  0
    3.8470   68.7912   65.0809 H   0  0  0  0  0  0  0  0  0  0  0  0
    0.9099   68.9566   68.2526 H   0  0  0  0  0  0  0  0  0  0  0  0
    2.5017   70.2453   69.6650 H   0  0  0  0  0  0  0  0  0  0  0  0
    5.0203   70.6419   70.0562 H   0  0  0  0  0  0  0  0  0  0  0  0
    4.7471   72.0873   69.0276 H   0  0  0  0  0  0  0  0  0  0  0  0
    0.7926   68.9221   63.0487 H   0  0  0  0  0  0  0  0  0  0  0  0
    1.8373   69.7944   60.9600 H   0  0  0  0  0  0  0  0  0  0  0  0
    4.0571   68.9312   60.2217 H   0  0  0  0  0  0  0  0  0  0  0  0
    5.2363   67.2007   61.5733 H   0  0  0  0  0  0  0  0  0  0  0  0
    4.1980   66.3205   63.6642 H   0  0  0  0  0  0  0  0  0  0  0  0
  2  1  2  0
  4  3  2  0
  5  4  1  0
  6  5  2  0
  6  1  1  0
  7  6  1  0
  8  7  2  0
  8  3  1  0
 10  9  1  0
 10  3  1  0
 11  1  1  0
 12 11  2  0
 13 11  1  0
 14 13  2  0
 15 14  1  0
 16 15  2  0
 17 16  1  0
 18 17  2  0
 18 13  1  0
  4 19  1  0
  5 20  1  0
  7 21  1  0
  8 22  1  0
 10 23  1  0
 10 24  1  0
 14 25  1  0
 15 26  1  0
 16 27  1  0
 17 28  1  0
 18 29  1  0
M  END
>  <score>  (6) 
-8.766

$$$$
=
     RDKit          3D

 29 30  0  0  0  0  0  0  0  0999 V2000
    1.9590   67.6950   65.1720 C   0  0  0  0  0  0  0  0  0  0  0  0
    2.0150   66.4760   65.0530 O   0  0  0  0  0  0  0  0  0  0  0  0
    5.3240   70.0640   66.4260 C   0  0  0  0  0  0  0  0  0  0  0  0
    5.3130   69.4840   65.1500 C   0  0  0  0  0  0  0  0  0  0  0  0
    4.2310   68.7050   64.7270 C   0  0  0  0  0  0  0  0  0  0  0  0
    3.1400   68.4980   65.5780 C   0  0  0  0  0  0  0  0  0  0  0  0
    3.1440   69.0790   66.8520 C   0  0  0  0  0  0  0  0  0  0  0  0
    4.2250   69.8580   67.2720 C   0  0  0  0  0  0  0  0  0  0  0  0
    6.5260   70.9650   68.8130 Br  0  0  0  0  0  0  0  0  0  0  0  0
    6.4810   70.9090   66.8710 C   0  0  0  0  0  0  0  0  0  0  0  0
    0.6330   68.3800   64.9290 C   0  0  0  0  0  0  0  0  0  0  0  0
    0.5500   69.1670   63.9930 O   0  0  0  0  0  0  0  0  0  0  0  0
   -0.5090   68.1180   65.8420 C   0  0  0  0  0  0  0  0  0  0  0  0
   -0.3030   67.2630   66.9360 C   0  0  0  0  0  0  0  0  0  0  0  0
   -1.3510   66.9750   67.8110 C   0  0  0  0  0  0  0  0  0  0  0  0
   -2.6090   67.5370   67.6000 C   0  0  0  0  0  0  0  0  0  0  0  0
   -2.8200   68.3890   66.5170 C   0  0  0  0  0  0  0  0  0  0  0  0
   -1.7740   68.6810   65.6380 C   0  0  0  0  0  0  0  0  0  0  0  0
    6.1654   69.6433   64.4732 H   0  0  0  0  0  0  0  0  0  0  0  0
    4.2379   68.2544   63.7236 H   0  0  0  0  0  0  0  0  0  0  0  0
    2.2899   68.9209   67.5270 H   0  0  0  0  0  0  0  0  0  0  0  0
    4.2139   70.3129   68.2734 H   0  0  0  0  0  0  0  0  0  0  0  0
    6.3641   71.9292   66.4766 H   0  0  0  0  0  0  0  0  0  0  0  0
    7.4195   70.4773   66.4930 H   0  0  0  0  0  0  0  0  0  0  0  0
    0.6889   66.8181   67.1042 H   0  0  0  0  0  0  0  0  0  0  0  0
   -1.1845   66.3046   68.6671 H   0  0  0  0  0  0  0  0  0  0  0  0
   -3.4358   67.3081   68.2885 H   0  0  0  0  0  0  0  0  0  0  0  0
   -3.8132   68.8328   66.3540 H   0  0  0  0  0  0  0  0  0  0  0  0
   -1.9449   69.3540   64.7848 H   0  0  0  0  0  0  0  0  0  0  0  0
  2  1  2  0
  4  3  2  0
  5  4  1  0
  6  5  2  0
  6  1  1  0
  7  6  1  0
  8  7  2  0
  8  3  1  0
 10  9  1  0
 10  3  1  0
 11  1  1  0
 12 11  2  0
 13 11  1  0
 14 13  2  0
 15 14  1  0
 16 15  2  0
 17 16  1  0
 18 17  2  0
 18 13  1  0
  4 19  1  0
  5 20  1  0
  7 21  1  0
  8 22  1  0
 10 23  1  0
 10 24  1  0
 14 25  1  0
 15 26  1  0
 16 27  1  0
 17 28  1  0
 18 29  1  0
M  END
>  <score>  (7) 
-8.641

$$$$
=
     RDKit          3D

 29 30  0  0  0  0  0  0  0  0999 V2000
    1.8730   68.8220   68.0320 C   0  0  0  0  0  0  0  0  0  0  0  0
    1.8880   67.8500   68.7790 O   0  0  0  0  0  0  0  0  0  0  0  0
   -0.0880   68.7780   64.2030 C   0  0  0  0  0  0  0  0  0  0  0  0
   -0.8500   68.8110   65.3790 C   0  0  0  0  0  0  0  0  0  0  0  0
   -0.2310   68.8200   66.6330 C   0  0  0  0  0  0  0  0  0  0  0  0
    1.1640   68.7970   66.7260 C   0  0  0  0  0  0  0  0  0  0  0  0
    1.9310   68.7680   65.5540 C   0  0  0  0  0  0  0  0  0  0  0  0
    1.3100   68.7610   64.3030 C   0  0  0  0  0  0  0  0  0  0  0  0
    0.3900   69.6810   61.5740 Br  0  0  0  0  0  0  0  0  0  0  0  0
   -0.7570   68.7820   62.8600 C   0  0  0  0  0  0  0  0  0  0  0  0
    2.6310   70.0610   68.4490 C   0  0  0  0  0  0  0  0  0  0  0  0
    2.0110   70.9620   69.0030 O   0  0  0  0  0  0  0  0  0  0  0  0
    4.0810   70.1730   68.1470 C   0  0  0  0  0  0  0  0  0  0  0  0
    4.9300   70.6850   69.1390 C   0  0  0  0  0  0  0  0  0  0  0  0
    6.2970   70.8250   68.8940 C   0  0  0  0  0  0  0  0  0  0  0  0
    6.8240   70.4540   67.6590 C   0  0  0  0  0  0  0  0  0  0  0  0
    5.9870   69.9420   66.6680 C   0  0  0  0  0  0  0  0  0  0  0  0
    4.6180   69.8010   66.9090 C   0  0  0  0  0  0  0  0  0  0  0  0
   -1.9480   68.8300   65.3148 H   0  0  0  0  0  0  0  0  0  0  0  0
   -0.8422   68.8452   67.5472 H   0  0  0  0  0  0  0  0  0  0  0  0
    3.0289   68.7506   65.6194 H   0  0  0  0  0  0  0  0  0  0  0  0
    1.9225   68.7420   63.3895 H   0  0  0  0  0  0  0  0  0  0  0  0
   -1.7178   69.3130   62.9296 H   0  0  0  0  0  0  0  0  0  0  0  0
   -0.9355   67.7467   62.5341 H   0  0  0  0  0  0  0  0  0  0  0  0
    4.5164   70.9778   70.1153 H   0  0  0  0  0  0  0  0  0  0  0  0
    6.9577   71.2280   69.6756 H   0  0  0  0  0  0  0  0  0  0  0  0
    7.9011   70.5650   67.4653 H   0  0  0  0  0  0  0  0  0  0  0  0
    6.4057   69.6484   65.6941 H   0  0  0  0  0  0  0  0  0  0  0  0
    3.9611   69.3970   66.1246 H   0  0  0  0  0  0  0  0  0  0  0  0
  2  1  2  0
  4  3  2  0
  5  4  1  0
  6  5  2  0
  6  1  1  0
  7  6  1  0
  8  7  2  0
  8  3  1  0
 10  9  1  0
 10  3  1  0
 11  1  1  0
 12 11  2  0
 13 11  1  0
 14 13  2  0
 15 14  1  0
 16 15  2  0
 17 16  1  0
 18 17  2  0
 18 13  1  0
  4 19  1  0
  5 20  1  0
  7 21  1  0
  8 22  1  0
 10 23  1  0
 10 24  1  0
 14 25  1  0
 15 26  1  0
 16 27  1  0
 17 28  1  0
 18 29  1  0
M  END
>  <score>  (8) 
-8.26

$$$$
=
     RDKit          3D

 29 30  0  0  0  0  0  0  0  0999 V2000
    0.6250   68.7860   67.3560 C   0  0  0  0  0  0  0  0  0  0  0  0
   -0.0550   69.8030   67.4460 O   0  0  0  0  0  0  0  0  0  0  0  0
    0.4000   65.5770   70.2120 C   0  0  0  0  0  0  0  0  0  0  0  0
   -0.6620   65.8000   69.3250 C   0  0  0  0  0  0  0  0  0  0  0  0
   -0.6100   66.8420   68.3940 C   0  0  0  0  0  0  0  0  0  0  0  0
    0.5110   67.6770   68.3370 C   0  0  0  0  0  0  0  0  0  0  0  0
    1.5780   67.4560   69.2180 C   0  0  0  0  0  0  0  0  0  0  0  0
    1.5230   66.4130   70.1460 C   0  0  0  0  0  0  0  0  0  0  0  0
    1.5780   63.0520   70.6510 Br  0  0  0  0  0  0  0  0  0  0  0  0
    0.3450   64.4510   71.2010 C   0  0  0  0  0  0  0  0  0  0  0  0
    1.6280   68.6910   66.2290 C   0  0  0  0  0  0  0  0  0  0  0  0
    1.2810   68.1450   65.1880 O   0  0  0  0  0  0  0  0  0  0  0  0
    3.0040   69.2170   66.4220 C   0  0  0  0  0  0  0  0  0  0  0  0
    3.9100   69.1160   65.3560 C   0  0  0  0  0  0  0  0  0  0  0  0
    5.2190   69.5810   65.4960 C   0  0  0  0  0  0  0  0  0  0  0  0
    5.6290   70.1490   66.7000 C   0  0  0  0  0  0  0  0  0  0  0  0
    4.7340   70.2550   67.7640 C   0  0  0  0  0  0  0  0  0  0  0  0
    3.4230   69.7910   67.6280 C   0  0  0  0  0  0  0  0  0  0  0  0
   -1.5469   65.1476   69.3617 H   0  0  0  0  0  0  0  0  0  0  0  0
   -1.4520   67.0054   67.7052 H   0  0  0  0  0  0  0  0  0  0  0  0
    2.4637   68.1072   69.1788 H   0  0  0  0  0  0  0  0  0  0  0  0
    2.3679   66.2466   70.8304 H   0  0  0  0  0  0  0  0  0  0  0  0
   -0.6769   64.0457   71.2400 H   0  0  0  0  0  0  0  0  0  0  0  0
    0.6285   64.8214   72.1972 H   0  0  0  0  0  0  0  0  0  0  0  0
    3.5875   68.6680   64.4045 H   0  0  0  0  0  0  0  0  0  0  0  0
    5.9254   69.4989   64.6568 H   0  0  0  0  0  0  0  0  0  0  0  0
    6.6605   70.5145   66.8116 H   0  0  0  0  0  0  0  0  0  0  0  0
    5.0609   70.7051   68.7130 H   0  0  0  0  0  0  0  0  0  0  0  0
    2.7196   69.8769   68.4694 H   0  0  0  0  0  0  0  0  0  0  0  0
  2  1  2  0
  4  3  2  0
  5  4  1  0
  6  5  2  0
  6  1  1  0
  7  6  1  0
  8  7  2  0
  8  3  1  0
 10  9  1  0
 10  3  1  0
 11  1  1  0
 12 11  2  0
 13 11  1  0
 14 13  2  0
 15 14  1  0
 16 15  2  0
 17 16  1  0
 18 17  2  0
 18 13  1  0
  4 19  1  0
  5 20  1  0
  7 21  1  0
  8 22  1  0
 10 23  1  0
 10 24  1  0
 14 25  1  0
 15 26  1  0
 16 27  1  0
 17 28  1  0
 18 29  1  0
M  END
>  <score>  (9) 
-8.182

$$$$
