=
     RDKit          3D

 54 56  0  0  0  0  0  0  0  0999 V2000
    3.0780   68.6890   65.5260 C   0  0  1  0  0  0  0  0  0  0  0  0
    4.0200   69.4480   66.4740 C   0  0  0  0  0  0  0  0  0  0  0  0
    3.5520   69.8620   67.7380 C   0  0  0  0  0  0  0  0  0  0  0  0
    4.3620   70.5890   68.6130 C   0  0  0  0  0  0  0  0  0  0  0  0
    5.6590   70.9250   68.2410 C   0  0  0  0  0  0  0  0  0  0  0  0
    6.1430   70.5370   66.9960 C   0  0  0  0  0  0  0  0  0  0  0  0
    5.3320   69.8110   66.1180 C   0  0  0  0  0  0  0  0  0  0  0  0
    3.1450   69.1230   64.0150 C   0  0  0  0  0  0  0  0  0  0  0  0
    4.4100   68.5780   63.3030 C   0  0  0  0  0  0  0  0  0  0  0  0
    4.4920   69.0360   61.8490 C   0  0  0  0  0  0  0  0  0  0  0  0
    3.2550   68.6180   61.0650 C   0  0  0  0  0  0  0  0  0  0  0  0
    1.9820   69.1100   61.7390 C   0  0  0  0  0  0  0  0  0  0  0  0
    1.9040   68.6760   63.2030 C   0  0  0  0  0  0  0  0  0  0  0  0
    3.4150   67.2940   65.5710 O   0  0  0  0  0  0  0  0  0  0  0  0
    1.6440   68.7560   66.1240 C   0  0  0  0  0  0  0  0  0  0  0  0
    0.9680   67.4000   66.2970 C   0  0  0  0  0  0  0  0  0  0  0  0
   -0.5470   67.5560   66.2600 N   0  0  0  0  0  4  0  0  0  0  0  0
   -1.1890   66.9630   67.5010 C   0  0  0  0  0  0  0  0  0  0  0  0
   -2.6180   67.4650   67.6910 C   0  0  0  0  0  0  0  0  0  0  0  0
   -3.2790   67.8590   66.3790 C   0  0  0  0  0  0  0  0  0  0  0  0
   -2.4920   68.9600   65.6690 C   0  0  0  0  0  0  0  0  0  0  0  0
   -1.0060   68.9700   66.0150 C   0  0  0  0  0  0  0  0  0  0  0  0
    2.5260   69.6067   68.0416 H   0  0  0  0  0  0  0  0  0  0  0  0
    3.9743   70.8956   69.5957 H   0  0  0  0  0  0  0  0  0  0  0  0
    6.3001   71.4957   68.9289 H   0  0  0  0  0  0  0  0  0  0  0  0
    7.1688   70.8025   66.7006 H   0  0  0  0  0  0  0  0  0  0  0  0
    5.7260   69.5191   65.1334 H   0  0  0  0  0  0  0  0  0  0  0  0
    3.1785   70.2221   64.0428 H   0  0  0  0  0  0  0  0  0  0  0  0
    5.3011   68.9369   63.8388 H   0  0  0  0  0  0  0  0  0  0  0  0
    4.3561   67.4793   63.3099 H   0  0  0  0  0  0  0  0  0  0  0  0
    4.5787   70.1323   61.8233 H   0  0  0  0  0  0  0  0  0  0  0  0
    5.3714   68.5644   61.3862 H   0  0  0  0  0  0  0  0  0  0  0  0
    3.3118   69.0433   60.0521 H   0  0  0  0  0  0  0  0  0  0  0  0
    3.2243   67.5192   61.0239 H   0  0  0  0  0  0  0  0  0  0  0  0
    1.9576   70.2087   61.6926 H   0  0  0  0  0  0  0  0  0  0  0  0
    1.1249   68.6699   61.2082 H   0  0  0  0  0  0  0  0  0  0  0  0
    1.0057   69.1203   63.6564 H   0  0  0  0  0  0  0  0  0  0  0  0
    1.8640   67.5770   63.2268 H   0  0  0  0  0  0  0  0  0  0  0  0
    3.4856   67.0018   66.5143 H   0  0  0  0  0  0  0  0  0  0  0  0
    1.7053   69.2380   67.1109 H   0  0  0  0  0  0  0  0  0  0  0  0
    1.0316   69.3221   65.4067 H   0  0  0  0  0  0  0  0  0  0  0  0
    1.2839   66.7306   65.4833 H   0  0  0  0  0  0  0  0  0  0  0  0
    1.2604   66.9758   67.2689 H   0  0  0  0  0  0  0  0  0  0  0  0
   -0.8685   67.0194   65.4417 H   0  0  0  0  0  0  0  0  0  0  0  0
   -1.2057   65.8673   67.4050 H   0  0  0  0  0  0  0  0  0  0  0  0
   -0.5973   67.2727   68.3750 H   0  0  0  0  0  0  0  0  0  0  0  0
   -3.2125   66.6666   68.1592 H   0  0  0  0  0  0  0  0  0  0  0  0
   -2.5741   68.3630   68.3247 H   0  0  0  0  0  0  0  0  0  0  0  0
   -3.3304   66.9764   65.7245 H   0  0  0  0  0  0  0  0  0  0  0  0
   -4.2873   68.2398   66.5990 H   0  0  0  0  0  0  0  0  0  0  0  0
   -2.5951   68.8161   64.5833 H   0  0  0  0  0  0  0  0  0  0  0  0
   -2.9076   69.9213   66.0054 H   0  0  0  0  0  0  0  0  0  0  0  0
   -0.4362   69.4026   65.1794 H   0  0  0  0  0  0  0  0  0  0  0  0
   -0.8401   69.5751   66.9185 H   0  0  0  0  0  0  0  0  0  0  0  0
  2  1  1  0
  3  2  2  0
  4  3  1  0
  5  4  2  0
  6  5  1  0
  7  2  1  0
  7  6  2  0
  8  1  1  0
  9  8  1  0
 10  9  1  0
 11 10  1  0
 12 11  1  0
 13 12  1  0
 13  8  1  0
  1 14  1  6
 15  1  1  0
 16 15  1  0
 17 16  1  0
 18 17  1  0
 19 18  1  0
 20 19  1  0
 21 20  1  0
 22 21  1  0
 22 17  1  0
  3 23  1  0
  4 24  1  0
  5 25  1  0
  6 26  1  0
  7 27  1  0
  8 28  1  0
  9 29  1  0
  9 30  1  0
 10 31  1  0
 10 32  1  0
 11 33  1  0
 11 34  1  0
 12 35  1  0
 12 36  1  0
 13 37  1  0
 13 38  1  0
 14 39  1  0
 15 40  1  0
 15 41  1  0
 16 42  1  0
 16 43  1  0
 17 44  1  0
 18 45  1  0
 18 46  1  0
 19 47  1  0
 19 48  1  0
 20 49  1  0
 20 50  1  0
 21 51  1  0
 21 52  1  0
 22 53  1  0
 22 54  1  0
M  CHG  1  17   1
M  END
>  <score>  (1) 
-9.765

$$$$
=
     RDKit          3D

 54 56  0  0  0  0  0  0  0  0999 V2000
    1.6960   68.5680   66.2320 C   0  0  1  0  0  0  0  0  0  0  0  0
    2.7390   69.3370   67.0570 C   0  0  0  0  0  0  0  0  0  0  0  0
    4.0390   69.5190   66.5420 C   0  0  0  0  0  0  0  0  0  0  0  0
    5.0280   70.1770   67.2760 C   0  0  0  0  0  0  0  0  0  0  0  0
    4.7430   70.6630   68.5460 C   0  0  0  0  0  0  0  0  0  0  0  0
    3.4700   70.4900   69.0820 C   0  0  0  0  0  0  0  0  0  0  0  0
    2.4800   69.8300   68.3480 C   0  0  0  0  0  0  0  0  0  0  0  0
    0.2810   68.4150   66.9030 C   0  0  0  0  0  0  0  0  0  0  0  0
   -0.8750   68.6400   65.8940 C   0  0  0  0  0  0  0  0  0  0  0  0
   -2.2450   68.5310   66.5590 C   0  0  0  0  0  0  0  0  0  0  0  0
   -2.4270   67.1810   67.2400 C   0  0  0  0  0  0  0  0  0  0  0  0
   -1.3000   66.9040   68.2250 C   0  0  0  0  0  0  0  0  0  0  0  0
    0.0760   67.0340   67.5730 C   0  0  0  0  0  0  0  0  0  0  0  0
    1.4920   69.2650   64.9920 O   0  0  0  0  0  0  0  0  0  0  0  0
    2.3280   67.2110   65.8090 C   0  0  0  0  0  0  0  0  0  0  0  0
    2.2930   66.9380   64.3080 C   0  0  0  0  0  0  0  0  0  0  0  0
    3.3230   67.8000   63.5900 N   0  0  0  0  0  4  0  0  0  0  0  0
    4.7320   67.3010   63.8500 C   0  0  0  0  0  0  0  0  0  0  0  0
    5.7260   67.8630   62.8360 C   0  0  0  0  0  0  0  0  0  0  0  0
    5.2860   69.2030   62.2670 C   0  0  0  0  0  0  0  0  0  0  0  0
    3.9280   69.0930   61.5730 C   0  0  0  0  0  0  0  0  0  0  0  0
    3.0530   67.9670   62.1160 C   0  0  0  0  0  0  0  0  0  0  0  0
    4.2793   69.1341   65.5399 H   0  0  0  0  0  0  0  0  0  0  0  0
    6.0328   70.3106   66.8487 H   0  0  0  0  0  0  0  0  0  0  0  0
    5.5203   71.1825   69.1257 H   0  0  0  0  0  0  0  0  0  0  0  0
    3.2421   70.8742   70.0872 H   0  0  0  0  0  0  0  0  0  0  0  0
    1.4811   69.6940   68.7881 H   0  0  0  0  0  0  0  0  0  0  0  0
    0.2552   69.1956   67.6776 H   0  0  0  0  0  0  0  0  0  0  0  0
   -0.7725   69.6432   65.4546 H   0  0  0  0  0  0  0  0  0  0  0  0
   -0.8091   67.8587   65.1225 H   0  0  0  0  0  0  0  0  0  0  0  0
   -2.3417   69.3273   67.3117 H   0  0  0  0  0  0  0  0  0  0  0  0
   -3.0161   68.6328   65.7812 H   0  0  0  0  0  0  0  0  0  0  0  0
   -3.3848   67.1784   67.7809 H   0  0  0  0  0  0  0  0  0  0  0  0
   -2.4149   66.3974   66.4681 H   0  0  0  0  0  0  0  0  0  0  0  0
   -1.3690   67.6229   69.0547 H   0  0  0  0  0  0  0  0  0  0  0  0
   -1.4093   65.8699   68.5838 H   0  0  0  0  0  0  0  0  0  0  0  0
    0.8476   66.8974   68.3450 H   0  0  0  0  0  0  0  0  0  0  0  0
    0.1510   66.2655   66.7895 H   0  0  0  0  0  0  0  0  0  0  0  0
    1.2189   70.1980   65.1790 H   0  0  0  0  0  0  0  0  0  0  0  0
    3.3785   67.2046   66.1351 H   0  0  0  0  0  0  0  0  0  0  0  0
    1.7256   66.4231   66.2847 H   0  0  0  0  0  0  0  0  0  0  0  0
    2.5183   65.8767   64.1268 H   0  0  0  0  0  0  0  0  0  0  0  0
    1.2917   67.1816   63.9232 H   0  0  0  0  0  0  0  0  0  0  0  0
    3.2348   68.7438   63.9929 H   0  0  0  0  0  0  0  0  0  0  0  0
    5.0393   67.6107   64.8598 H   0  0  0  0  0  0  0  0  0  0  0  0
    4.7303   66.2049   63.7574 H   0  0  0  0  0  0  0  0  0  0  0  0
    6.6993   67.9932   63.3316 H   0  0  0  0  0  0  0  0  0  0  0  0
    5.7885   67.1504   62.0004 H   0  0  0  0  0  0  0  0  0  0  0  0
    5.2116   69.9331   63.0864 H   0  0  0  0  0  0  0  0  0  0  0  0
    6.0303   69.5260   61.5243 H   0  0  0  0  0  0  0  0  0  0  0  0
    3.3920   70.0444   61.7053 H   0  0  0  0  0  0  0  0  0  0  0  0
    4.1244   68.8666   60.5146 H   0  0  0  0  0  0  0  0  0  0  0  0
    1.9930   68.2170   61.9616 H   0  0  0  0  0  0  0  0  0  0  0  0
    3.2845   67.0301   61.5882 H   0  0  0  0  0  0  0  0  0  0  0  0
  2  1  1  0
  3  2  2  0
  4  3  1  0
  5  4  2  0
  6  5  1  0
  7  2  1  0
  7  6  2  0
  8  1  1  0
  9  8  1  0
 10  9  1  0
 11 10  1  0
 12 11  1  0
 13 12  1  0
 13  8  1  0
  1 14  1  6
 15  1  1  0
 16 15  1  0
 17 16  1  0
 18 17  1  0
 19 18  1  0
 20 19  1  0
 21 20  1  0
 22 21  1  0
 22 17  1  0
  3 23  1  0
  4 24  1  0
  5 25  1  0
  6 26  1  0
  7 27  1  0
  8 28  1  0
  9 29  1  0
  9 30  1  0
 10 31  1  0
 10 32  1  0
 11 33  1  0
 11 34  1  0
 12 35  1  0
 12 36  1  0
 13 37  1  0
 13 38  1  0
 14 39  1  0
 15 40  1  0
 15 41  1  0
 16 42  1  0
 16 43  1  0
 17 44  1  0
 18 45  1  0
 18 46  1  0
 19 47  1  0
 19 48  1  0
 20 49  1  0
 20 50  1  0
 21 51  1  0
 21 52  1  0
 22 53  1  0
 22 54  1  0
M  CHG  1  17   1
M  END
>  <score>  (2) 
-9.668

$$$$
=
     RDKit          3D

 54 56  0  0  0  0  0  0  0  0999 V2000
    2.3940   67.4460   64.9020 C   0  0  1  0  0  0  0  0  0  0  0  0
    3.1970   66.1640   64.6320 C   0  0  0  0  0  0  0  0  0  0  0  0
    4.0990   66.1210   63.5490 C   0  0  0  0  0  0  0  0  0  0  0  0
    4.8170   64.9640   63.2450 C   0  0  0  0  0  0  0  0  0  0  0  0
    4.6470   63.8180   64.0130 C   0  0  0  0  0  0  0  0  0  0  0  0
    3.7570   63.8300   65.0830 C   0  0  0  0  0  0  0  0  0  0  0  0
    3.0350   64.9890   65.3870 C   0  0  0  0  0  0  0  0  0  0  0  0
    1.4230   67.8930   63.7470 C   0  0  0  0  0  0  0  0  0  0  0  0
    0.2100   68.6990   64.2780 C   0  0  0  0  0  0  0  0  0  0  0  0
   -0.7500   69.0950   63.1590 C   0  0  0  0  0  0  0  0  0  0  0  0
   -0.0430   69.9020   62.0790 C   0  0  0  0  0  0  0  0  0  0  0  0
    1.1720   69.1590   61.5420 C   0  0  0  0  0  0  0  0  0  0  0  0
    2.1280   68.7390   62.6580 C   0  0  0  0  0  0  0  0  0  0  0  0
    1.5810   67.2370   66.0680 O   0  0  0  0  0  0  0  0  0  0  0  0
    3.3960   68.5560   65.3290 C   0  0  0  0  0  0  0  0  0  0  0  0
    3.1100   69.1750   66.6930 C   0  0  0  0  0  0  0  0  0  0  0  0
    4.4070   69.6320   67.3490 N   0  0  0  0  0  4  0  0  0  0  0  0
    5.4200   70.0750   66.3100 C   0  0  0  0  0  0  0  0  0  0  0  0
    6.5360   70.9120   66.9300 C   0  0  0  0  0  0  0  0  0  0  0  0
    6.7660   70.5830   68.3980 C   0  0  0  0  0  0  0  0  0  0  0  0
    5.5010   70.8130   69.2240 C   0  0  0  0  0  0  0  0  0  0  0  0
    4.2120   70.6760   68.4190 C   0  0  0  0  0  0  0  0  0  0  0  0
    4.2397   67.0195   62.9302 H   0  0  0  0  0  0  0  0  0  0  0  0
    5.5179   64.9587   62.3972 H   0  0  0  0  0  0  0  0  0  0  0  0
    5.2135   62.9054   63.7761 H   0  0  0  0  0  0  0  0  0  0  0  0
    3.6207   62.9243   65.6922 H   0  0  0  0  0  0  0  0  0  0  0  0
    2.3290   64.9810   66.2305 H   0  0  0  0  0  0  0  0  0  0  0  0
    1.0743   66.9515   63.2976 H   0  0  0  0  0  0  0  0  0  0  0  0
   -0.3329   68.0824   65.0095 H   0  0  0  0  0  0  0  0  0  0  0  0
    0.5919   69.6217   64.7393 H   0  0  0  0  0  0  0  0  0  0  0  0
   -1.1690   68.1835   62.7078 H   0  0  0  0  0  0  0  0  0  0  0  0
   -1.5464   69.7187   63.5912 H   0  0  0  0  0  0  0  0  0  0  0  0
   -0.7447   70.0868   61.2522 H   0  0  0  0  0  0  0  0  0  0  0  0
    0.2963   70.8510   62.5198 H   0  0  0  0  0  0  0  0  0  0  0  0
    0.8307   68.2589   61.0097 H   0  0  0  0  0  0  0  0  0  0  0  0
    1.7147   69.8388   60.8687 H   0  0  0  0  0  0  0  0  0  0  0  0
    2.9433   68.1442   62.2204 H   0  0  0  0  0  0  0  0  0  0  0  0
    2.5101   69.6530   63.1362 H   0  0  0  0  0  0  0  0  0  0  0  0
    2.1279   67.3776   66.8812 H   0  0  0  0  0  0  0  0  0  0  0  0
    4.4043   68.1171   65.3554 H   0  0  0  0  0  0  0  0  0  0  0  0
    3.2989   69.3660   64.5911 H   0  0  0  0  0  0  0  0  0  0  0  0
    2.4430   70.0405   66.5660 H   0  0  0  0  0  0  0  0  0  0  0  0
    2.6309   68.4209   67.3347 H   0  0  0  0  0  0  0  0  0  0  0  0
    4.7840   68.8074   67.8376 H   0  0  0  0  0  0  0  0  0  0  0  0
    5.8618   69.1838   65.8403 H   0  0  0  0  0  0  0  0  0  0  0  0
    4.8990   70.6956   65.5661 H   0  0  0  0  0  0  0  0  0  0  0  0
    7.4675   70.7232   66.3763 H   0  0  0  0  0  0  0  0  0  0  0  0
    6.2349   71.9682   66.8679 H   0  0  0  0  0  0  0  0  0  0  0  0
    7.0645   69.5279   68.4861 H   0  0  0  0  0  0  0  0  0  0  0  0
    7.5563   71.2447   68.7822 H   0  0  0  0  0  0  0  0  0  0  0  0
    5.4806   70.0767   70.0410 H   0  0  0  0  0  0  0  0  0  0  0  0
    5.5414   71.8480   69.5942 H   0  0  0  0  0  0  0  0  0  0  0  0
    3.3919   70.3713   69.0858 H   0  0  0  0  0  0  0  0  0  0  0  0
    3.9613   71.6408   67.9540 H   0  0  0  0  0  0  0  0  0  0  0  0
  2  1  1  0
  3  2  2  0
  4  3  1  0
  5  4  2  0
  6  5  1  0
  7  2  1  0
  7  6  2  0
  8  1  1  0
  9  8  1  0
 10  9  1  0
 11 10  1  0
 12 11  1  0
 13 12  1  0
 13  8  1  0
  1 14  1  1
 15  1  1  0
 16 15  1  0
 17 16  1  0
 18 17  1  0
 19 18  1  0
 20 19  1  0
 21 20  1  0
 22 21  1  0
 22 17  1  0
  3 23  1  0
  4 24  1  0
  5 25  1  0
  6 26  1  0
  7 27  1  0
  8 28  1  0
  9 29  1  0
  9 30  1  0
 10 31  1  0
 10 32  1  0
 11 33  1  0
 11 34  1  0
 12 35  1  0
 12 36  1  0
 13 37  1  0
 13 38  1  0
 14 39  1  0
 15 40  1  0
 15 41  1  0
 16 42  1  0
 16 43  1  0
 17 44  1  0
 18 45  1  0
 18 46  1  0
 19 47  1  0
 19 48  1  0
 20 49  1  0
 20 50  1  0
 21 51  1  0
 21 52  1  0
 22 53  1  0
 22 54  1  0
M  CHG  1  17   1
M  END
>  <score>  (3) 
-9.341

$$$$
=
     RDKit          3D

 54 56  0  0  0  0  0  0  0  0999 V2000
    1.6090   67.6850   66.3580 C   0  0  1  0  0  0  0  0  0  0  0  0
    2.4530   67.0240   65.2570 C   0  0  0  0  0  0  0  0  0  0  0  0
    2.6590   65.6290   65.2800 C   0  0  0  0  0  0  0  0  0  0  0  0
    3.4530   64.9940   64.3230 C   0  0  0  0  0  0  0  0  0  0  0  0
    4.0650   65.7400   63.3220 C   0  0  0  0  0  0  0  0  0  0  0  0
    3.8850   67.1190   63.2810 C   0  0  0  0  0  0  0  0  0  0  0  0
    3.0920   67.7560   64.2410 C   0  0  0  0  0  0  0  0  0  0  0  0
    0.0500   67.5650   66.1800 C   0  0  0  0  0  0  0  0  0  0  0  0
   -0.6590   67.1370   67.4900 C   0  0  0  0  0  0  0  0  0  0  0  0
   -2.1670   66.9820   67.3010 C   0  0  0  0  0  0  0  0  0  0  0  0
   -2.7970   68.2680   66.7850 C   0  0  0  0  0  0  0  0  0  0  0  0
   -2.1160   68.7430   65.5090 C   0  0  0  0  0  0  0  0  0  0  0  0
   -0.6040   68.8780   65.6820 C   0  0  0  0  0  0  0  0  0  0  0  0
    1.9310   67.0640   67.6130 O   0  0  0  0  0  0  0  0  0  0  0  0
    2.1010   69.1520   66.5200 C   0  0  0  0  0  0  0  0  0  0  0  0
    2.5560   69.5140   67.9300 C   0  0  0  0  0  0  0  0  0  0  0  0
    4.0570   69.7680   67.9520 N   0  0  0  0  0  4  0  0  0  0  0  0
    4.6210   69.8440   66.5460 C   0  0  0  0  0  0  0  0  0  0  0  0
    6.0000   70.5010   66.5250 C   0  0  0  0  0  0  0  0  0  0  0  0
    6.7490   70.3290   67.8370 C   0  0  0  0  0  0  0  0  0  0  0  0
    5.9680   70.9280   69.0060 C   0  0  0  0  0  0  0  0  0  0  0  0
    4.4590   70.9620   68.7810 C   0  0  0  0  0  0  0  0  0  0  0  0
    2.1837   65.0280   66.0692 H   0  0  0  0  0  0  0  0  0  0  0  0
    3.5943   63.9038   64.3610 H   0  0  0  0  0  0  0  0  0  0  0  0
    4.6891   65.2419   62.5654 H   0  0  0  0  0  0  0  0  0  0  0  0
    4.3686   67.7110   62.4900 H   0  0  0  0  0  0  0  0  0  0  0  0
    2.9662   68.8480   64.2004 H   0  0  0  0  0  0  0  0  0  0  0  0
   -0.0834   66.7865   65.4144 H   0  0  0  0  0  0  0  0  0  0  0  0
   -0.2419   66.1745   67.8213 H   0  0  0  0  0  0  0  0  0  0  0  0
   -0.4899   67.9236   68.2401 H   0  0  0  0  0  0  0  0  0  0  0  0
   -2.3560   66.1754   66.5773 H   0  0  0  0  0  0  0  0  0  0  0  0
   -2.6156   66.7439   68.2767 H   0  0  0  0  0  0  0  0  0  0  0  0
   -3.8619   68.0872   66.5771 H   0  0  0  0  0  0  0  0  0  0  0  0
   -2.6777   69.0462   67.5532 H   0  0  0  0  0  0  0  0  0  0  0  0
   -2.3181   68.0172   64.7075 H   0  0  0  0  0  0  0  0  0  0  0  0
   -2.5188   69.7355   65.2587 H   0  0  0  0  0  0  0  0  0  0  0  0
   -0.1598   69.1491   64.7129 H   0  0  0  0  0  0  0  0  0  0  0  0
   -0.4198   69.6542   66.4394 H   0  0  0  0  0  0  0  0  0  0  0  0
    1.6297   67.6451   68.3557 H   0  0  0  0  0  0  0  0  0  0  0  0
    2.9474   69.3082   65.8350 H   0  0  0  0  0  0  0  0  0  0  0  0
    1.2398   69.7978   66.2935 H   0  0  0  0  0  0  0  0  0  0  0  0
    2.0295   70.4219   68.2593 H   0  0  0  0  0  0  0  0  0  0  0  0
    2.3246   68.6779   68.6063 H   0  0  0  0  0  0  0  0  0  0  0  0
    4.4760   68.9542   68.4243 H   0  0  0  0  0  0  0  0  0  0  0  0
    4.7054   68.8251   66.1402 H   0  0  0  0  0  0  0  0  0  0  0  0
    3.9403   70.4561   65.9361 H   0  0  0  0  0  0  0  0  0  0  0  0
    6.5942   70.0475   65.7179 H   0  0  0  0  0  0  0  0  0  0  0  0
    5.8532   71.5792   66.3637 H   0  0  0  0  0  0  0  0  0  0  0  0
    6.9046   69.2560   68.0226 H   0  0  0  0  0  0  0  0  0  0  0  0
    7.7122   70.8544   67.7579 H   0  0  0  0  0  0  0  0  0  0  0  0
    6.1719   70.3270   69.9044 H   0  0  0  0  0  0  0  0  0  0  0  0
    6.3008   71.9708   69.1149 H   0  0  0  0  0  0  0  0  0  0  0  0
    3.9411   70.9284   69.7508 H   0  0  0  0  0  0  0  0  0  0  0  0
    4.1833   71.8881   68.2553 H   0  0  0  0  0  0  0  0  0  0  0  0
  2  1  1  0
  3  2  2  0
  4  3  1  0
  5  4  2  0
  6  5  1  0
  7  2  1  0
  7  6  2  0
  8  1  1  0
  9  8  1  0
 10  9  1  0
 11 10  1  0
 12 11  1  0
 13 12  1  0
 13  8  1  0
  1 14  1  1
 15  1  1  0
 16 15  1  0
 17 16  1  0
 18 17  1  0
 19 18  1  0
 20 19  1  0
 21 20  1  0
 22 21  1  0
 22 17  1  0
  3 23  1  0
  4 24  1  0
  5 25  1  0
  6 26  1  0
  7 27  1  0
  8 28  1  0
  9 29  1  0
  9 30  1  0
 10 31  1  0
 10 32  1  0
 11 33  1  0
 11 34  1  0
 12 35  1  0
 12 36  1  0
 13 37  1  0
 13 38  1  0
 14 39  1  0
 15 40  1  0
 15 41  1  0
 16 42  1  0
 16 43  1  0
 17 44  1  0
 18 45  1  0
 18 46  1  0
 19 47  1  0
 19 48  1  0
 20 49  1  0
 20 50  1  0
 21 51  1  0
 21 52  1  0
 22 53  1  0
 22 54  1  0
M  CHG  1  17   1
M  END
>  <score>  (4) 
-9.328

$$$$
=
     RDKit          3D

 54 56  0  0  0  0  0  0  0  0999 V2000
    2.2710   68.3070   65.6910 C   0  0  1  0  0  0  0  0  0  0  0  0
    1.1300   67.8440   66.6110 C   0  0  0  0  0  0  0  0  0  0  0  0
    1.4090   67.5050   67.9510 C   0  0  0  0  0  0  0  0  0  0  0  0
    0.4100   67.0410   68.8080 C   0  0  0  0  0  0  0  0  0  0  0  0
   -0.8930   66.9000   68.3450 C   0  0  0  0  0  0  0  0  0  0  0  0
   -1.1940   67.2200   67.0240 C   0  0  0  0  0  0  0  0  0  0  0  0
   -0.1930   67.6820   66.1640 C   0  0  0  0  0  0  0  0  0  0  0  0
    3.2450   67.1730   65.1970 C   0  0  0  0  0  0  0  0  0  0  0  0
    2.5570   65.7850   65.1570 C   0  0  0  0  0  0  0  0  0  0  0  0
    3.5170   64.6810   64.7180 C   0  0  0  0  0  0  0  0  0  0  0  0
    4.1210   64.9830   63.3520 C   0  0  0  0  0  0  0  0  0  0  0  0
    4.7890   66.3500   63.3350 C   0  0  0  0  0  0  0  0  0  0  0  0
    3.8420   67.4570   63.7970 C   0  0  0  0  0  0  0  0  0  0  0  0
    1.6960   68.8980   64.5150 O   0  0  0  0  0  0  0  0  0  0  0  0
    3.0030   69.4850   66.3940 C   0  0  0  0  0  0  0  0  0  0  0  0
    4.5080   69.5290   66.1520 C   0  0  0  0  0  0  0  0  0  0  0  0
    5.2410   69.8710   67.4420 N   0  0  0  0  0  4  0  0  0  0  0  0
    6.5390   70.6040   67.1570 C   0  0  0  0  0  0  0  0  0  0  0  0
    7.0700   71.3150   68.4000 C   0  0  0  0  0  0  0  0  0  0  0  0
    6.6240   70.6460   69.6910 C   0  0  0  0  0  0  0  0  0  0  0  0
    5.1000   70.6040   69.7980 C   0  0  0  0  0  0  0  0  0  0  0  0
    4.3920   70.6080   68.4460 C   0  0  0  0  0  0  0  0  0  0  0  0
    2.4367   67.6086   68.3292 H   0  0  0  0  0  0  0  0  0  0  0  0
    0.6538   66.7868   69.8501 H   0  0  0  0  0  0  0  0  0  0  0  0
   -1.6827   66.5372   69.0193 H   0  0  0  0  0  0  0  0  0  0  0  0
   -2.2243   67.1089   66.6550 H   0  0  0  0  0  0  0  0  0  0  0  0
   -0.4448   67.9226   65.1206 H   0  0  0  0  0  0  0  0  0  0  0  0
    4.0584   67.1633   65.9374 H   0  0  0  0  0  0  0  0  0  0  0  0
    2.1788   65.5473   66.1622 H   0  0  0  0  0  0  0  0  0  0  0  0
    1.7382   65.8335   64.4241 H   0  0  0  0  0  0  0  0  0  0  0  0
    4.3272   64.5960   65.4571 H   0  0  0  0  0  0  0  0  0  0  0  0
    2.9536   63.7388   64.6478 H   0  0  0  0  0  0  0  0  0  0  0  0
    4.8709   64.2144   63.1135 H   0  0  0  0  0  0  0  0  0  0  0  0
    3.3126   64.9814   62.6060 H   0  0  0  0  0  0  0  0  0  0  0  0
    5.6615   66.3270   64.0045 H   0  0  0  0  0  0  0  0  0  0  0  0
    5.0872   66.5690   62.2991 H   0  0  0  0  0  0  0  0  0  0  0  0
    4.3982   68.4052   63.8353 H   0  0  0  0  0  0  0  0  0  0  0  0
    3.0093   67.5085   63.0801 H   0  0  0  0  0  0  0  0  0  0  0  0
    1.0310   69.5816   64.7807 H   0  0  0  0  0  0  0  0  0  0  0  0
    2.5685   70.4269   66.0280 H   0  0  0  0  0  0  0  0  0  0  0  0
    2.8642   69.3388   67.4754 H   0  0  0  0  0  0  0  0  0  0  0  0
    4.8465   68.5463   65.7919 H   0  0  0  0  0  0  0  0  0  0  0  0
    4.7271   70.3017   65.4004 H   0  0  0  0  0  0  0  0  0  0  0  0
    5.4693   68.9704   67.8866 H   0  0  0  0  0  0  0  0  0  0  0  0
    7.2904   69.8780   66.8131 H   0  0  0  0  0  0  0  0  0  0  0  0
    6.3424   71.3628   66.3853 H   0  0  0  0  0  0  0  0  0  0  0  0
    8.1694   71.3138   68.3640 H   0  0  0  0  0  0  0  0  0  0  0  0
    6.6654   72.3379   68.3975 H   0  0  0  0  0  0  0  0  0  0  0  0
    7.0132   69.6174   69.7144 H   0  0  0  0  0  0  0  0  0  0  0  0
    7.0151   71.2299   70.5372 H   0  0  0  0  0  0  0  0  0  0  0  0
    4.8144   69.6888   70.3374 H   0  0  0  0  0  0  0  0  0  0  0  0
    4.7887   71.5164   70.3277 H   0  0  0  0  0  0  0  0  0  0  0  0
    3.4161   70.1092   68.5399 H   0  0  0  0  0  0  0  0  0  0  0  0
    4.2385   71.6445   68.1114 H   0  0  0  0  0  0  0  0  0  0  0  0
  2  1  1  0
  3  2  2  0
  4  3  1  0
  5  4  2  0
  6  5  1  0
  7  2  1  0
  7  6  2  0
  8  1  1  0
  9  8  1  0
 10  9  1  0
 11 10  1  0
 12 11  1  0
 13 12  1  0
 13  8  1  0
  1 14  1  6
 15  1  1  0
 16 15  1  0
 17 16  1  0
 18 17  1  0
 19 18  1  0
 20 19  1  0
 21 20  1  0
 22 21  1  0
 22 17  1  0
  3 23  1  0
  4 24  1  0
  5 25  1  0
  6 26  1  0
  7 27  1  0
  8 28  1  0
  9 29  1  0
  9 30  1  0
 10 31  1  0
 10 32  1  0
 11 33  1  0
 11 34  1  0
 12 35  1  0
 12 36  1  0
 13 37  1  0
 13 38  1  0
 14 39  1  0
 15 40  1  0
 15 41  1  0
 16 42  1  0
 16 43  1  0
 17 44  1  0
 18 45  1  0
 18 46  1  0
 19 47  1  0
 19 48  1  0
 20 49  1  0
 20 50  1  0
 21 51  1  0
 21 52  1  0
 22 53  1  0
 22 54  1  0
M  CHG  1  17   1
M  END
>  <score>  (5) 
-8.975

$$$$
=
     RDKit          3D

 54 56  0  0  0  0  0  0  0  0999 V2000
    1.8980   68.6360   66.9880 C   0  0  1  0  0  0  0  0  0  0  0  0
    3.0610   69.4740   67.5400 C   0  0  0  0  0  0  0  0  0  0  0  0
    2.8860   70.2130   68.7290 C   0  0  0  0  0  0  0  0  0  0  0  0
    3.9040   71.0190   69.2410 C   0  0  0  0  0  0  0  0  0  0  0  0
    5.1200   71.1120   68.5750 C   0  0  0  0  0  0  0  0  0  0  0  0
    5.3170   70.4000   67.3950 C   0  0  0  0  0  0  0  0  0  0  0  0
    4.2970   69.5940   66.8790 C   0  0  0  0  0  0  0  0  0  0  0  0
    0.9250   68.0340   68.0690 C   0  0  0  0  0  0  0  0  0  0  0  0
   -0.3020   67.3350   67.4300 C   0  0  0  0  0  0  0  0  0  0  0  0
   -1.2640   66.7890   68.4840 C   0  0  0  0  0  0  0  0  0  0  0  0
   -0.5640   65.8160   69.4230 C   0  0  0  0  0  0  0  0  0  0  0  0
    0.6660   66.4510   70.0580 C   0  0  0  0  0  0  0  0  0  0  0  0
    1.6220   67.0210   69.0120 C   0  0  0  0  0  0  0  0  0  0  0  0
    1.1000   69.4710   66.1340 O   0  0  0  0  0  0  0  0  0  0  0  0
    2.4930   67.5650   66.0300 C   0  0  0  0  0  0  0  0  0  0  0  0
    1.5810   67.1780   64.8700 C   0  0  0  0  0  0  0  0  0  0  0  0
    2.1510   67.6910   63.5540 N   0  0  0  0  0  4  0  0  0  0  0  0
    1.0840   68.3870   62.7290 C   0  0  0  0  0  0  0  0  0  0  0  0
    1.6970   69.2580   61.6350 C   0  0  0  0  0  0  0  0  0  0  0  0
    3.0640   68.7630   61.1900 C   0  0  0  0  0  0  0  0  0  0  0  0
    4.0490   68.7270   62.3590 C   0  0  0  0  0  0  0  0  0  0  0  0
    3.3790   68.5500   63.7180 C   0  0  0  0  0  0  0  0  0  0  0  0
    1.9267   70.1527   69.2640 H   0  0  0  0  0  0  0  0  0  0  0  0
    3.7435   71.5812   70.1728 H   0  0  0  0  0  0  0  0  0  0  0  0
    5.9236   71.7456   68.9785 H   0  0  0  0  0  0  0  0  0  0  0  0
    6.2789   70.4716   66.8662 H   0  0  0  0  0  0  0  0  0  0  0  0
    4.4641   69.0448   65.9407 H   0  0  0  0  0  0  0  0  0  0  0  0
    0.5931   68.9016   68.6582 H   0  0  0  0  0  0  0  0  0  0  0  0
   -0.8382   68.0624   66.8029 H   0  0  0  0  0  0  0  0  0  0  0  0
    0.0636   66.4869   66.8324 H   0  0  0  0  0  0  0  0  0  0  0  0
   -1.6650   67.6280   69.0717 H   0  0  0  0  0  0  0  0  0  0  0  0
   -2.0738   66.2516   67.9688 H   0  0  0  0  0  0  0  0  0  0  0  0
   -1.2641   65.5175   70.2172 H   0  0  0  0  0  0  0  0  0  0  0  0
   -0.2421   64.9404   68.8402 H   0  0  0  0  0  0  0  0  0  0  0  0
    0.3418   67.2648   70.7233 H   0  0  0  0  0  0  0  0  0  0  0  0
    1.2014   65.6690   70.6164 H   0  0  0  0  0  0  0  0  0  0  0  0
    2.4492   67.5298   69.5286 H   0  0  0  0  0  0  0  0  0  0  0  0
    1.9864   66.1846   68.3975 H   0  0  0  0  0  0  0  0  0  0  0  0
    0.5333   70.0640   66.6883 H   0  0  0  0  0  0  0  0  0  0  0  0
    3.4309   67.9603   65.6127 H   0  0  0  0  0  0  0  0  0  0  0  0
    2.6394   66.6549   66.6302 H   0  0  0  0  0  0  0  0  0  0  0  0
    1.4958   66.0822   64.8257 H   0  0  0  0  0  0  0  0  0  0  0  0
    0.5898   67.6275   65.0294 H   0  0  0  0  0  0  0  0  0  0  0  0
    2.4674   66.8582   63.0371 H   0  0  0  0  0  0  0  0  0  0  0  0
    0.4418   67.6262   62.2613 H   0  0  0  0  0  0  0  0  0  0  0  0
    0.5009   69.0362   63.3987 H   0  0  0  0  0  0  0  0  0  0  0  0
    1.0226   69.2585   60.7660 H   0  0  0  0  0  0  0  0  0  0  0  0
    1.8274   70.2690   62.0484 H   0  0  0  0  0  0  0  0  0  0  0  0
    2.9609   67.7488   60.7769 H   0  0  0  0  0  0  0  0  0  0  0  0
    3.4533   69.4553   60.4289 H   0  0  0  0  0  0  0  0  0  0  0  0
    4.7440   67.8889   62.2023 H   0  0  0  0  0  0  0  0  0  0  0  0
    4.5629   69.6994   62.3773 H   0  0  0  0  0  0  0  0  0  0  0  0
    4.0789   68.0633   64.4132 H   0  0  0  0  0  0  0  0  0  0  0  0
    3.0929   69.5327   64.1211 H   0  0  0  0  0  0  0  0  0  0  0  0
  2  1  1  0
  3  2  2  0
  4  3  1  0
  5  4  2  0
  6  5  1  0
  7  2  1  0
  7  6  2  0
  8  1  1  0
  9  8  1  0
 10  9  1  0
 11 10  1  0
 12 11  1  0
 13 12  1  0
 13  8  1  0
  1 14  1  6
 15  1  1  0
 16 15  1  0
 17 16  1  0
 18 17  1  0
 19 18  1  0
 20 19  1  0
 21 20  1  0
 22 21  1  0
 22 17  1  0
  3 23  1  0
  4 24  1  0
  5 25  1  0
  6 26  1  0
  7 27  1  0
  8 28  1  0
  9 29  1  0
  9 30  1  0
 10 31  1  0
 10 32  1  0
 11 33  1  0
 11 34  1  0
 12 35  1  0
 12 36  1  0
 13 37  1  0
 13 38  1  0
 14 39  1  0
 15 40  1  0
 15 41  1  0
 16 42  1  0
 16 43  1  0
 17 44  1  0
 18 45  1  0
 18 46  1  0
 19 47  1  0
 19 48  1  0
 20 49  1  0
 20 50  1  0
 21 51  1  0
 21 52  1  0
 22 53  1  0
 22 54  1  0
M  CHG  1  17   1
M  END
>  <score>  (6) 
-8.838

$$$$
=
     RDKit          3D

 54 56  0  0  0  0  0  0  0  0999 V2000
    1.2420   63.7590   70.7510 C   0  0  1  0  0  0  0  0  0  0  0  0
    0.6290   63.2930   72.0810 C   0  0  0  0  0  0  0  0  0  0  0  0
   -0.1080   62.0920   72.1260 C   0  0  0  0  0  0  0  0  0  0  0  0
   -0.7150   61.6530   73.3040 C   0  0  0  0  0  0  0  0  0  0  0  0
   -0.6050   62.4090   74.4660 C   0  0  0  0  0  0  0  0  0  0  0  0
    0.1100   63.6030   74.4470 C   0  0  0  0  0  0  0  0  0  0  0  0
    0.7170   64.0440   73.2670 C   0  0  0  0  0  0  0  0  0  0  0  0
    2.6460   63.1400   70.3990 C   0  0  0  0  0  0  0  0  0  0  0  0
    3.4320   62.7110   71.6640 C   0  0  0  0  0  0  0  0  0  0  0  0
    4.8100   62.1490   71.3210 C   0  0  0  0  0  0  0  0  0  0  0  0
    4.7060   60.9660   70.3670 C   0  0  0  0  0  0  0  0  0  0  0  0
    3.9190   61.3330   69.1170 C   0  0  0  0  0  0  0  0  0  0  0  0
    2.5480   61.9180   69.4530 C   0  0  0  0  0  0  0  0  0  0  0  0
    0.3500   63.3930   69.6860 O   0  0  0  0  0  0  0  0  0  0  0  0
    1.2330   65.3140   70.7400 C   0  0  0  0  0  0  0  0  0  0  0  0
   -0.0660   65.9350   70.2360 C   0  0  0  0  0  0  0  0  0  0  0  0
    0.1060   66.4360   68.8080 N   0  0  0  0  0  4  0  0  0  0  0  0
   -1.2350   66.7520   68.1730 C   0  0  0  0  0  0  0  0  0  0  0  0
   -1.0800   67.6300   66.9340 C   0  0  0  0  0  0  0  0  0  0  0  0
    0.2700   67.4510   66.2560 C   0  0  0  0  0  0  0  0  0  0  0  0
    1.4180   67.7860   67.2080 C   0  0  0  0  0  0  0  0  0  0  0  0
    1.0700   67.5880   68.6810 C   0  0  0  0  0  0  0  0  0  0  0  0
   -0.2070   61.4873   71.2125 H   0  0  0  0  0  0  0  0  0  0  0  0
   -1.2802   60.7093   73.3131 H   0  0  0  0  0  0  0  0  0  0  0  0
   -1.0810   62.0649   75.3961 H   0  0  0  0  0  0  0  0  0  0  0  0
    0.1980   64.2028   75.3649 H   0  0  0  0  0  0  0  0  0  0  0  0
    1.2723   64.9936   73.2663 H   0  0  0  0  0  0  0  0  0  0  0  0
    3.1846   63.9488   69.8834 H   0  0  0  0  0  0  0  0  0  0  0  0
    3.5587   63.5871   72.3169 H   0  0  0  0  0  0  0  0  0  0  0  0
    2.8584   61.9183   72.1666 H   0  0  0  0  0  0  0  0  0  0  0  0
    5.4110   62.9391   70.8472 H   0  0  0  0  0  0  0  0  0  0  0  0
    5.2841   61.8029   72.2513 H   0  0  0  0  0  0  0  0  0  0  0  0
    5.7185   60.6517   70.0738 H   0  0  0  0  0  0  0  0  0  0  0  0
    4.1795   60.1490   70.8821 H   0  0  0  0  0  0  0  0  0  0  0  0
    4.4912   62.0768   68.5431 H   0  0  0  0  0  0  0  0  0  0  0  0
    3.7617   60.4140   68.5334 H   0  0  0  0  0  0  0  0  0  0  0  0
    2.0589   62.2320   68.5191 H   0  0  0  0  0  0  0  0  0  0  0  0
    1.9671   61.1391   69.9687 H   0  0  0  0  0  0  0  0  0  0  0  0
   -0.4950   63.0463   70.0678 H   0  0  0  0  0  0  0  0  0  0  0  0
    1.4061   65.6660   71.7677 H   0  0  0  0  0  0  0  0  0  0  0  0
    2.0218   65.6267   70.0400 H   0  0  0  0  0  0  0  0  0  0  0  0
   -0.8637   65.1780   70.2612 H   0  0  0  0  0  0  0  0  0  0  0  0
   -0.3311   66.7840   70.8833 H   0  0  0  0  0  0  0  0  0  0  0  0
    0.5366   65.6607   68.2842 H   0  0  0  0  0  0  0  0  0  0  0  0
   -1.7232   65.8098   67.8834 H   0  0  0  0  0  0  0  0  0  0  0  0
   -1.8419   67.3006   68.9083 H   0  0  0  0  0  0  0  0  0  0  0  0
   -1.8720   67.3698   66.2164 H   0  0  0  0  0  0  0  0  0  0  0  0
   -1.1543   68.6788   67.2572 H   0  0  0  0  0  0  0  0  0  0  0  0
    0.3703   66.4060   65.9274 H   0  0  0  0  0  0  0  0  0  0  0  0
    0.3205   68.1356   65.3965 H   0  0  0  0  0  0  0  0  0  0  0  0
    2.2728   67.1386   66.9629 H   0  0  0  0  0  0  0  0  0  0  0  0
    1.6478   68.8531   67.0722 H   0  0  0  0  0  0  0  0  0  0  0  0
    1.9854   67.3671   69.2496 H   0  0  0  0  0  0  0  0  0  0  0  0
    0.6089   68.5036   69.0798 H   0  0  0  0  0  0  0  0  0  0  0  0
  2  1  1  0
  3  2  2  0
  4  3  1  0
  5  4  2  0
  6  5  1  0
  7  2  1  0
  7  6  2  0
  8  1  1  0
  9  8  1  0
 10  9  1  0
 11 10  1  0
 12 11  1  0
 13 12  1  0
 13  8  1  0
  1 14  1  6
 15  1  1  0
 16 15  1  0
 17 16  1  0
 18 17  1  0
 19 18  1  0
 20 19  1  0
 21 20  1  0
 22 21  1  0
 22 17  1  0
  3 23  1  0
  4 24  1  0
  5 25  1  0
  6 26  1  0
  7 27  1  0
  8 28  1  0
  9 29  1  0
  9 30  1  0
 10 31  1  0
 10 32  1  0
 11 33  1  0
 11 34  1  0
 12 35  1  0
 12 36  1  0
 13 37  1  0
 13 38  1  0
 14 39  1  0
 15 40  1  0
 15 41  1  0
 16 42  1  0
 16 43  1  0
 17 44  1  0
 18 45  1  0
 18 46  1  0
 19 47  1  0
 19 48  1  0
 20 49  1  0
 20 50  1  0
 21 51  1  0
 21 52  1  0
 22 53  1  0
 22 54  1  0
M  CHG  1  17   1
M  END
>  <score>  (7) 
-8.523

$$$$
=
     RDKit          3D

 54 56  0  0  0  0  0  0  0  0999 V2000
    2.2590   67.8840   65.8210 C   0  0  1  0  0  0  0  0  0  0  0  0
    3.2680   67.8510   64.6630 C   0  0  0  0  0  0  0  0  0  0  0  0
    3.7820   69.0600   64.1500 C   0  0  0  0  0  0  0  0  0  0  0  0
    4.6690   69.0760   63.0720 C   0  0  0  0  0  0  0  0  0  0  0  0
    5.0600   67.8830   62.4770 C   0  0  0  0  0  0  0  0  0  0  0  0
    4.5620   66.6750   62.9570 C   0  0  0  0  0  0  0  0  0  0  0  0
    3.6720   66.6590   64.0350 C   0  0  0  0  0  0  0  0  0  0  0  0
    0.9160   68.6500   65.5270 C   0  0  0  0  0  0  0  0  0  0  0  0
    0.3500   68.3230   64.1210 C   0  0  0  0  0  0  0  0  0  0  0  0
   -0.9310   69.0990   63.8240 C   0  0  0  0  0  0  0  0  0  0  0  0
   -2.0010   68.8280   64.8730 C   0  0  0  0  0  0  0  0  0  0  0  0
   -1.4830   69.1130   66.2760 C   0  0  0  0  0  0  0  0  0  0  0  0
   -0.1880   68.3570   66.5730 C   0  0  0  0  0  0  0  0  0  0  0  0
    1.9010   66.5330   66.1520 O   0  0  0  0  0  0  0  0  0  0  0  0
    3.0010   68.4040   67.0850 C   0  0  0  0  0  0  0  0  0  0  0  0
    2.8980   69.9100   67.3040 C   0  0  0  0  0  0  0  0  0  0  0  0
    4.2500   70.4780   67.7130 N   0  0  0  0  0  4  0  0  0  0  0  0
    4.3890   70.5310   69.2240 C   0  0  0  0  0  0  0  0  0  0  0  0
    5.8460   70.6910   69.6520 C   0  0  0  0  0  0  0  0  0  0  0  0
    6.6910   71.3900   68.5980 C   0  0  0  0  0  0  0  0  0  0  0  0
    6.6780   70.6240   67.2760 C   0  0  0  0  0  0  0  0  0  0  0  0
    5.4220   69.7830   67.0690 C   0  0  0  0  0  0  0  0  0  0  0  0
    3.4772   70.0118   64.6096 H   0  0  0  0  0  0  0  0  0  0  0  0
    5.0582   70.0329   62.6939 H   0  0  0  0  0  0  0  0  0  0  0  0
    5.7609   67.8930   61.6293 H   0  0  0  0  0  0  0  0  0  0  0  0
    4.8699   65.7296   62.4864 H   0  0  0  0  0  0  0  0  0  0  0  0
    3.2808   65.6973   64.3985 H   0  0  0  0  0  0  0  0  0  0  0  0
    1.1856   69.7151   65.5806 H   0  0  0  0  0  0  0  0  0  0  0  0
    1.1057   68.5828   63.3650 H   0  0  0  0  0  0  0  0  0  0  0  0
    0.1107   67.2497   64.0929 H   0  0  0  0  0  0  0  0  0  0  0  0
   -0.7034   70.1752   63.8147 H   0  0  0  0  0  0  0  0  0  0  0  0
   -1.3145   68.7725   62.8461 H   0  0  0  0  0  0  0  0  0  0  0  0
   -2.8699   69.4725   64.6738 H   0  0  0  0  0  0  0  0  0  0  0  0
   -2.2834   67.7664   64.8155 H   0  0  0  0  0  0  0  0  0  0  0  0
   -1.2942   70.1924   66.3724 H   0  0  0  0  0  0  0  0  0  0  0  0
   -2.2451   68.7766   66.9944 H   0  0  0  0  0  0  0  0  0  0  0  0
    0.1771   68.6571   67.5663 H   0  0  0  0  0  0  0  0  0  0  0  0
   -0.4103   67.2804   66.5354 H   0  0  0  0  0  0  0  0  0  0  0  0
    1.8738   66.4305   67.1363 H   0  0  0  0  0  0  0  0  0  0  0  0
    2.5760   67.8990   67.9650 H   0  0  0  0  0  0  0  0  0  0  0  0
    4.0679   68.1818   66.9351 H   0  0  0  0  0  0  0  0  0  0  0  0
    2.5697   70.3908   66.3707 H   0  0  0  0  0  0  0  0  0  0  0  0
    2.1702   70.1062   68.1052 H   0  0  0  0  0  0  0  0  0  0  0  0
    4.2727   71.4424   67.3520 H   0  0  0  0  0  0  0  0  0  0  0  0
    3.8096   71.3847   69.6055 H   0  0  0  0  0  0  0  0  0  0  0  0
    4.0126   69.5832   69.6364 H   0  0  0  0  0  0  0  0  0  0  0  0
    5.8782   71.2826   70.5788 H   0  0  0  0  0  0  0  0  0  0  0  0
    6.2628   69.6838   69.7995 H   0  0  0  0  0  0  0  0  0  0  0  0
    6.2902   72.4005   68.4302 H   0  0  0  0  0  0  0  0  0  0  0  0
    7.7283   71.4372   68.9609 H   0  0  0  0  0  0  0  0  0  0  0  0
    6.7498   71.3501   66.4528 H   0  0  0  0  0  0  0  0  0  0  0  0
    7.5309   69.9297   67.2974 H   0  0  0  0  0  0  0  0  0  0  0  0
    5.2326   69.6632   65.9921 H   0  0  0  0  0  0  0  0  0  0  0  0
    5.5609   68.7918   67.5254 H   0  0  0  0  0  0  0  0  0  0  0  0
  2  1  1  0
  3  2  2  0
  4  3  1  0
  5  4  2  0
  6  5  1  0
  7  2  1  0
  7  6  2  0
  8  1  1  0
  9  8  1  0
 10  9  1  0
 11 10  1  0
 12 11  1  0
 13 12  1  0
 13  8  1  0
  1 14  1  1
 15  1  1  0
 16 15  1  0
 17 16  1  0
 18 17  1  0
 19 18  1  0
 20 19  1  0
 21 20  1  0
 22 21  1  0
 22 17  1  0
  3 23  1  0
  4 24  1  0
  5 25  1  0
  6 26  1  0
  7 27  1  0
  8 28  1  0
  9 29  1  0
  9 30  1  0
 10 31  1  0
 10 32  1  0
 11 33  1  0
 11 34  1  0
 12 35  1  0
 12 36  1  0
 13 37  1  0
 13 38  1  0
 14 39  1  0
 15 40  1  0
 15 41  1  0
 16 42  1  0
 16 43  1  0
 17 44  1  0
 18 45  1  0
 18 46  1  0
 19 47  1  0
 19 48  1  0
 20 49  1  0
 20 50  1  0
 21 51  1  0
 21 52  1  0
 22 53  1  0
 22 54  1  0
M  CHG  1  17   1
M  END
>  <score>  (8) 
-8.183

$$$$
=
     RDKit          3D

 54 56  0  0  0  0  0  0  0  0999 V2000
    2.1810   58.9840   73.0790 C   0  0  1  0  0  0  0  0  0  0  0  0
    2.1650   57.6600   73.8590 C   0  0  0  0  0  0  0  0  0  0  0  0
    2.7300   57.6040   75.1500 C   0  0  0  0  0  0  0  0  0  0  0  0
    2.7720   56.4120   75.8750 C   0  0  0  0  0  0  0  0  0  0  0  0
    2.2550   55.2450   75.3250 C   0  0  0  0  0  0  0  0  0  0  0  0
    1.6990   55.2700   74.0500 C   0  0  0  0  0  0  0  0  0  0  0  0
    1.6590   56.4630   73.3210 C   0  0  0  0  0  0  0  0  0  0  0  0
    0.7780   59.6670   72.8740 C   0  0  0  0  0  0  0  0  0  0  0  0
   -0.1720   59.4260   74.0750 C   0  0  0  0  0  0  0  0  0  0  0  0
   -1.5460   60.0550   73.8550 C   0  0  0  0  0  0  0  0  0  0  0  0
   -1.4360   61.5520   73.5920 C   0  0  0  0  0  0  0  0  0  0  0  0
   -0.4920   61.8400   72.4330 C   0  0  0  0  0  0  0  0  0  0  0  0
    0.8780   61.1940   72.6350 C   0  0  0  0  0  0  0  0  0  0  0  0
    2.9980   59.9240   73.7950 O   0  0  0  0  0  0  0  0  0  0  0  0
    2.9510   58.7450   71.7480 C   0  0  0  0  0  0  0  0  0  0  0  0
    4.2440   59.5430   71.6140 C   0  0  0  0  0  0  0  0  0  0  0  0
    3.9590   60.9160   71.0210 N   0  0  0  0  0  4  0  0  0  0  0  0
    4.9780   61.9380   71.4890 C   0  0  0  0  0  0  0  0  0  0  0  0
    4.9740   63.1850   70.6070 C   0  0  0  0  0  0  0  0  0  0  0  0
    3.6270   63.4260   69.9430 C   0  0  0  0  0  0  0  0  0  0  0  0
    3.2170   62.2400   69.0710 C   0  0  0  0  0  0  0  0  0  0  0  0
    3.8210   60.9130   69.5190 C   0  0  0  0  0  0  0  0  0  0  0  0
    3.1466   58.5195   75.5952 H   0  0  0  0  0  0  0  0  0  0  0  0
    3.2144   56.3962   76.8820 H   0  0  0  0  0  0  0  0  0  0  0  0
    2.2853   54.3051   75.8957 H   0  0  0  0  0  0  0  0  0  0  0  0
    1.2890   54.3474   73.6133 H   0  0  0  0  0  0  0  0  0  0  0  0
    1.2247   56.4651   72.3104 H   0  0  0  0  0  0  0  0  0  0  0  0
    0.3657   59.1907   71.9722 H   0  0  0  0  0  0  0  0  0  0  0  0
   -0.2965   58.3423   74.2170 H   0  0  0  0  0  0  0  0  0  0  0  0
    0.2776   59.8955   74.9624 H   0  0  0  0  0  0  0  0  0  0  0  0
   -2.0256   59.5738   72.9899 H   0  0  0  0  0  0  0  0  0  0  0  0
   -2.1448   59.9064   74.7657 H   0  0  0  0  0  0  0  0  0  0  0  0
   -2.4332   61.9478   73.3492 H   0  0  0  0  0  0  0  0  0  0  0  0
   -1.0358   62.0356   74.4953 H   0  0  0  0  0  0  0  0  0  0  0  0
   -0.9367   61.4468   71.5069 H   0  0  0  0  0  0  0  0  0  0  0  0
   -0.3484   62.9290   72.3750 H   0  0  0  0  0  0  0  0  0  0  0  0
    1.4890   61.3724   71.7379 H   0  0  0  0  0  0  0  0  0  0  0  0
    1.3346   61.6454   73.5282 H   0  0  0  0  0  0  0  0  0  0  0  0
    2.8805   59.7888   74.7687 H   0  0  0  0  0  0  0  0  0  0  0  0
    3.1988   57.6753   71.6816 H   0  0  0  0  0  0  0  0  0  0  0  0
    2.2885   59.0838   70.9378 H   0  0  0  0  0  0  0  0  0  0  0  0
    4.7000   59.6645   72.6076 H   0  0  0  0  0  0  0  0  0  0  0  0
    4.9312   59.0012   70.9475 H   0  0  0  0  0  0  0  0  0  0  0  0
    3.0343   61.1934   71.3799 H   0  0  0  0  0  0  0  0  0  0  0  0
    4.7400   62.2314   72.5221 H   0  0  0  0  0  0  0  0  0  0  0  0
    5.9759   61.4792   71.4293 H   0  0  0  0  0  0  0  0  0  0  0  0
    5.2215   64.0577   71.2292 H   0  0  0  0  0  0  0  0  0  0  0  0
    5.7164   63.0323   69.8098 H   0  0  0  0  0  0  0  0  0  0  0  0
    2.8656   63.5778   70.7222 H   0  0  0  0  0  0  0  0  0  0  0  0
    3.7107   64.3157   69.3016 H   0  0  0  0  0  0  0  0  0  0  0  0
    2.1210   62.1502   69.0996 H   0  0  0  0  0  0  0  0  0  0  0  0
    3.5949   62.4398   68.0575 H   0  0  0  0  0  0  0  0  0  0  0  0
    3.1638   60.0864   69.2111 H   0  0  0  0  0  0  0  0  0  0  0  0
    4.8101   60.7808   69.0561 H   0  0  0  0  0  0  0  0  0  0  0  0
  2  1  1  0
  3  2  2  0
  4  3  1  0
  5  4  2  0
  6  5  1  0
  7  2  1  0
  7  6  2  0
  8  1  1  0
  9  8  1  0
 10  9  1  0
 11 10  1  0
 12 11  1  0
 13 12  1  0
 13  8  1  0
  1 14  1  1
 15  1  1  0
 16 15  1  0
 17 16  1  0
 18 17  1  0
 19 18  1  0
 20 19  1  0
 21 20  1  0
 22 21  1  0
 22 17  1  0
  3 23  1  0
  4 24  1  0
  5 25  1  0
  6 26  1  0
  7 27  1  0
  8 28  1  0
  9 29  1  0
  9 30  1  0
 10 31  1  0
 10 32  1  0
 11 33  1  0
 11 34  1  0
 12 35  1  0
 12 36  1  0
 13 37  1  0
 13 38  1  0
 14 39  1  0
 15 40  1  0
 15 41  1  0
 16 42  1  0
 16 43  1  0
 17 44  1  0
 18 45  1  0
 18 46  1  0
 19 47  1  0
 19 48  1  0
 20 49  1  0
 20 50  1  0
 21 51  1  0
 21 52  1  0
 22 53  1  0
 22 54  1  0
M  CHG  1  17   1
M  END
>  <score>  (9) 
-7.98

$$$$
