=
     RDKit          3D

 28 29  0  0  0  0  0  0  0  0999 V2000
    0.4680   67.9750   67.1040 O   0  0  0  0  0  0  0  0  0  0  0  0
    1.4450   68.1330   66.3800 C   0  0  0  0  0  0  0  0  0  0  0  0
    2.6190   68.9490   66.7820 C   0  0  0  0  0  0  0  0  0  0  0  0
    3.7420   69.0830   65.9570 C   0  0  0  0  0  0  0  0  0  0  0  0
    4.8460   69.8160   66.4010 C   0  0  0  0  0  0  0  0  0  0  0  0
    4.8530   70.4260   67.6660 C   0  0  0  0  0  0  0  0  0  0  0  0
    3.7120   70.2950   68.4740 C   0  0  0  0  0  0  0  0  0  0  0  0
    2.6040   69.5660   68.0390 C   0  0  0  0  0  0  0  0  0  0  0  0
    6.0650   71.2030   68.1470 C   0  0  0  0  0  0  0  0  0  0  0  0
    7.0410   70.5250   68.5980 O   0  0  0  0  0  0  0  0  0  0  0  0
    6.0070   72.4690   68.0670 O   0  0  0  0  0  1  0  0  0  0  0  0
    1.4740   67.4000   65.0610 C   0  0  0  0  0  0  0  0  0  0  0  0
    1.6650   66.1900   65.0610 O   0  0  0  0  0  0  0  0  0  0  0  0
    1.2570   68.1640   63.8050 C   0  0  0  0  0  0  0  0  0  0  0  0
    2.2390   68.2530   62.8100 C   0  0  0  0  0  0  0  0  0  0  0  0
    1.9940   68.9970   61.6520 C   0  0  0  0  0  0  0  0  0  0  0  0
    0.7730   69.6490   61.4820 C   0  0  0  0  0  0  0  0  0  0  0  0
   -0.2080   69.5610   62.4680 C   0  0  0  0  0  0  0  0  0  0  0  0
    0.0310   68.8210   63.6260 C   0  0  0  0  0  0  0  0  0  0  0  0
    3.7554   68.6129   64.9626 H   0  0  0  0  0  0  0  0  0  0  0  0
    5.7253   69.9170   65.7479 H   0  0  0  0  0  0  0  0  0  0  0  0
    3.6911   70.7738   69.4641 H   0  0  0  0  0  0  0  0  0  0  0  0
    1.7178   69.4760   68.6845 H   0  0  0  0  0  0  0  0  0  0  0  0
    3.2022   67.7379   62.9397 H   0  0  0  0  0  0  0  0  0  0  0  0
    2.7668   69.0683   60.8725 H   0  0  0  0  0  0  0  0  0  0  0  0
    0.5841   70.2330   60.5692 H   0  0  0  0  0  0  0  0  0  0  0  0
   -1.1710   70.0752   62.3330 H   0  0  0  0  0  0  0  0  0  0  0  0
   -0.7455   68.7525   64.4021 H   0  0  0  0  0  0  0  0  0  0  0  0
  2  1  2  0
  3  2  1  0
  4  3  2  0
  5  4  1  0
  6  5  2  0
  7  6  1  0
  8  7  2  0
  8  3  1  0
  9  6  1  0
 10  9  2  0
 11  9  1  0
 12  2  1  0
 13 12  2  0
 14 12  1  0
 15 14  2  0
 16 15  1  0
 17 16  2  0
 18 17  1  0
 19 18  2  0
 19 14  1  0
  4 20  1  0
  5 21  1  0
  7 22  1  0
  8 23  1  0
 15 24  1  0
 16 25  1  0
 17 26  1  0
 18 27  1  0
 19 28  1  0
M  CHG  1  11  -1
M  END
>  <score>  (1) 
-9.818

$$$$
=
     RDKit          3D

 28 29  0  0  0  0  0  0  0  0999 V2000
    2.8230   67.0110   64.3480 O   0  0  0  0  0  0  0  0  0  0  0  0
    2.4940   68.0510   64.9070 C   0  0  0  0  0  0  0  0  0  0  0  0
    3.4190   68.8270   65.7710 C   0  0  0  0  0  0  0  0  0  0  0  0
    3.0220   69.3260   67.0160 C   0  0  0  0  0  0  0  0  0  0  0  0
    3.9090   70.0990   67.7710 C   0  0  0  0  0  0  0  0  0  0  0  0
    5.2020   70.3860   67.3030 C   0  0  0  0  0  0  0  0  0  0  0  0
    5.5900   69.8630   66.0590 C   0  0  0  0  0  0  0  0  0  0  0  0
    4.7110   69.0900   65.2980 C   0  0  0  0  0  0  0  0  0  0  0  0
    6.1520   71.2410   68.1190 C   0  0  0  0  0  0  0  0  0  0  0  0
    7.0920   70.6380   68.7260 O   0  0  0  0  0  0  0  0  0  0  0  0
    5.9320   72.4930   68.1380 O   0  0  0  0  0  1  0  0  0  0  0  0
    1.1120   68.5940   64.6340 C   0  0  0  0  0  0  0  0  0  0  0  0
    0.9340   69.2880   63.6400 O   0  0  0  0  0  0  0  0  0  0  0  0
    0.0060   68.2590   65.5690 C   0  0  0  0  0  0  0  0  0  0  0  0
    0.1650   67.3290   66.6050 C   0  0  0  0  0  0  0  0  0  0  0  0
   -0.9090   67.0350   67.4490 C   0  0  0  0  0  0  0  0  0  0  0  0
   -2.1390   67.6660   67.2670 C   0  0  0  0  0  0  0  0  0  0  0  0
   -2.3010   68.5930   66.2390 C   0  0  0  0  0  0  0  0  0  0  0  0
   -1.2330   68.8900   65.3930 C   0  0  0  0  0  0  0  0  0  0  0  0
    2.0140   69.1106   67.4002 H   0  0  0  0  0  0  0  0  0  0  0  0
    3.5889   70.4892   68.7484 H   0  0  0  0  0  0  0  0  0  0  0  0
    6.6019   70.0654   65.6782 H   0  0  0  0  0  0  0  0  0  0  0  0
    5.0332   68.6873   64.3264 H   0  0  0  0  0  0  0  0  0  0  0  0
    1.1344   66.8309   66.7537 H   0  0  0  0  0  0  0  0  0  0  0  0
   -0.7837   66.3028   68.2603 H   0  0  0  0  0  0  0  0  0  0  0  0
   -2.9813   67.4322   67.9347 H   0  0  0  0  0  0  0  0  0  0  0  0
   -3.2715   69.0904   66.0950 H   0  0  0  0  0  0  0  0  0  0  0  0
   -1.3636   69.6232   64.5835 H   0  0  0  0  0  0  0  0  0  0  0  0
  2  1  2  0
  3  2  1  0
  4  3  2  0
  5  4  1  0
  6  5  2  0
  7  6  1  0
  8  7  2  0
  8  3  1  0
  9  6  1  0
 10  9  2  0
 11  9  1  0
 12  2  1  0
 13 12  2  0
 14 12  1  0
 15 14  2  0
 16 15  1  0
 17 16  2  0
 18 17  1  0
 19 18  2  0
 19 14  1  0
  4 20  1  0
  5 21  1  0
  7 22  1  0
  8 23  1  0
 15 24  1  0
 16 25  1  0
 17 26  1  0
 18 27  1  0
 19 28  1  0
M  CHG  1  11  -1
M  END
>  <score>  (2) 
-9.602

$$$$
=
     RDKit          3D

 28 29  0  0  0  0  0  0  0  0999 V2000
    0.6490   67.6810   67.0490 O   0  0  0  0  0  0  0  0  0  0  0  0
    1.5460   68.0820   66.3150 C   0  0  0  0  0  0  0  0  0  0  0  0
    2.6610   68.9330   66.8000 C   0  0  0  0  0  0  0  0  0  0  0  0
    3.7990   69.1730   66.0220 C   0  0  0  0  0  0  0  0  0  0  0  0
    4.8490   69.9350   66.5420 C   0  0  0  0  0  0  0  0  0  0  0  0
    4.7850   70.4710   67.8380 C   0  0  0  0  0  0  0  0  0  0  0  0
    3.6290   70.2350   68.6000 C   0  0  0  0  0  0  0  0  0  0  0  0
    2.5750   69.4750   68.0880 C   0  0  0  0  0  0  0  0  0  0  0  0
    5.9380   71.2810   68.4020 C   0  0  0  0  0  0  0  0  0  0  0  0
    6.7710   70.6620   69.1360 O   0  0  0  0  0  0  0  0  0  0  0  0
    5.9780   72.5150   68.1010 O   0  0  0  0  0  1  0  0  0  0  0  0
    1.5430   67.6190   64.8780 C   0  0  0  0  0  0  0  0  0  0  0  0
    0.6800   68.0470   64.1200 O   0  0  0  0  0  0  0  0  0  0  0  0
    2.5940   66.6730   64.4210 C   0  0  0  0  0  0  0  0  0  0  0  0
    3.5220   67.0150   63.4300 C   0  0  0  0  0  0  0  0  0  0  0  0
    4.4810   66.0850   63.0210 C   0  0  0  0  0  0  0  0  0  0  0  0
    4.5200   64.8170   63.5990 C   0  0  0  0  0  0  0  0  0  0  0  0
    3.6010   64.4720   64.5880 C   0  0  0  0  0  0  0  0  0  0  0  0
    2.6400   65.3970   64.9990 C   0  0  0  0  0  0  0  0  0  0  0  0
    3.8671   68.7629   65.0036 H   0  0  0  0  0  0  0  0  0  0  0  0
    5.7411   70.1179   65.9250 H   0  0  0  0  0  0  0  0  0  0  0  0
    3.5527   70.6545   69.6140 H   0  0  0  0  0  0  0  0  0  0  0  0
    1.6759   69.3020   68.6977 H   0  0  0  0  0  0  0  0  0  0  0  0
    3.4960   68.0155   62.9736 H   0  0  0  0  0  0  0  0  0  0  0  0
    5.2077   66.3542   62.2403 H   0  0  0  0  0  0  0  0  0  0  0  0
    5.2770   64.0881   63.2740 H   0  0  0  0  0  0  0  0  0  0  0  0
    3.6329   63.4716   65.0444 H   0  0  0  0  0  0  0  0  0  0  0  0
    1.9154   65.1233   65.7801 H   0  0  0  0  0  0  0  0  0  0  0  0
  2  1  2  0
  3  2  1  0
  4  3  2  0
  5  4  1  0
  6  5  2  0
  7  6  1  0
  8  7  2  0
  8  3  1  0
  9  6  1  0
 10  9  2  0
 11  9  1  0
 12  2  1  0
 13 12  2  0
 14 12  1  0
 15 14  2  0
 16 15  1  0
 17 16  2  0
 18 17  1  0
 19 18  2  0
 19 14  1  0
  4 20  1  0
  5 21  1  0
  7 22  1  0
  8 23  1  0
 15 24  1  0
 16 25  1  0
 17 26  1  0
 18 27  1  0
 19 28  1  0
M  CHG  1  11  -1
M  END
>  <score>  (3) 
-9.4

$$$$
=
     RDKit          3D

 28 29  0  0  0  0  0  0  0  0999 V2000
    1.6070   68.9000   64.0150 O   0  0  0  0  0  0  0  0  0  0  0  0
    2.7870   68.6180   64.1930 C   0  0  0  0  0  0  0  0  0  0  0  0
    3.5940   69.1980   65.2950 C   0  0  0  0  0  0  0  0  0  0  0  0
    4.9360   69.5560   65.1180 C   0  0  0  0  0  0  0  0  0  0  0  0
    5.6730   70.0460   66.2000 C   0  0  0  0  0  0  0  0  0  0  0  0
    5.0910   70.1890   67.4700 C   0  0  0  0  0  0  0  0  0  0  0  0
    3.7400   69.8410   67.6270 C   0  0  0  0  0  0  0  0  0  0  0  0
    2.9950   69.3510   66.5520 C   0  0  0  0  0  0  0  0  0  0  0  0
    5.9050   70.7040   68.6440 C   0  0  0  0  0  0  0  0  0  0  0  0
    7.0230   71.2450   68.3750 O   0  0  0  0  0  0  0  0  0  0  0  0
    5.4080   70.5490   69.8030 O   0  0  0  0  0  1  0  0  0  0  0  0
    3.4080   67.5800   63.2910 C   0  0  0  0  0  0  0  0  0  0  0  0
    3.6700   67.8820   62.1320 O   0  0  0  0  0  0  0  0  0  0  0  0
    3.6980   66.2280   63.8370 C   0  0  0  0  0  0  0  0  0  0  0  0
    4.6640   65.3890   63.2680 C   0  0  0  0  0  0  0  0  0  0  0  0
    4.8900   64.1190   63.8070 C   0  0  0  0  0  0  0  0  0  0  0  0
    4.1590   63.6850   64.9120 C   0  0  0  0  0  0  0  0  0  0  0  0
    3.1990   64.5180   65.4840 C   0  0  0  0  0  0  0  0  0  0  0  0
    2.9680   65.7860   64.9490 C   0  0  0  0  0  0  0  0  0  0  0  0
    5.4090   69.4520   64.1303 H   0  0  0  0  0  0  0  0  0  0  0  0
    6.7271   70.3244   66.0541 H   0  0  0  0  0  0  0  0  0  0  0  0
    3.2614   69.9559   68.6107 H   0  0  0  0  0  0  0  0  0  0  0  0
    1.9369   69.0850   66.6926 H   0  0  0  0  0  0  0  0  0  0  0  0
    5.2445   65.7289   62.3977 H   0  0  0  0  0  0  0  0  0  0  0  0
    5.6473   63.4598   63.3576 H   0  0  0  0  0  0  0  0  0  0  0  0
    4.3400   62.6848   65.3326 H   0  0  0  0  0  0  0  0  0  0  0  0
    2.6236   64.1760   66.3569 H   0  0  0  0  0  0  0  0  0  0  0  0
    2.2097   66.4416   65.4020 H   0  0  0  0  0  0  0  0  0  0  0  0
  2  1  2  0
  3  2  1  0
  4  3  2  0
  5  4  1  0
  6  5  2  0
  7  6  1  0
  8  7  2  0
  8  3  1  0
  9  6  1  0
 10  9  2  0
 11  9  1  0
 12  2  1  0
 13 12  2  0
 14 12  1  0
 15 14  2  0
 16 15  1  0
 17 16  2  0
 18 17  1  0
 19 18  2  0
 19 14  1  0
  4 20  1  0
  5 21  1  0
  7 22  1  0
  8 23  1  0
 15 24  1  0
 16 25  1  0
 17 26  1  0
 18 27  1  0
 19 28  1  0
M  CHG  1  11  -1
M  END
>  <score>  (4) 
-9.291

$$$$
=
     RDKit          3D

 28 29  0  0  0  0  0  0  0  0999 V2000
    3.7760   66.6700   64.4270 O   0  0  0  0  0  0  0  0  0  0  0  0
    3.2680   67.7520   64.7030 C   0  0  0  0  0  0  0  0  0  0  0  0
    1.8430   67.8940   65.0920 C   0  0  0  0  0  0  0  0  0  0  0  0
    0.9490   68.6710   64.3460 C   0  0  0  0  0  0  0  0  0  0  0  0
   -0.3710   68.8220   64.7810 C   0  0  0  0  0  0  0  0  0  0  0  0
   -0.8230   68.2050   65.9590 C   0  0  0  0  0  0  0  0  0  0  0  0
    0.0820   67.4160   66.6860 C   0  0  0  0  0  0  0  0  0  0  0  0
    1.4020   67.2590   66.2590 C   0  0  0  0  0  0  0  0  0  0  0  0
   -2.2520   68.3900   66.4330 C   0  0  0  0  0  0  0  0  0  0  0  0
   -3.0320   69.0430   65.6710 O   0  0  0  0  0  0  0  0  0  0  0  0
   -2.5570   67.8830   67.5580 O   0  0  0  0  0  1  0  0  0  0  0  0
    4.1610   68.9690   64.7170 C   0  0  0  0  0  0  0  0  0  0  0  0
    4.4960   69.4700   63.6500 O   0  0  0  0  0  0  0  0  0  0  0  0
    4.5970   69.5310   66.0220 C   0  0  0  0  0  0  0  0  0  0  0  0
    3.7020   69.7300   67.0810 C   0  0  0  0  0  0  0  0  0  0  0  0
    4.1540   70.2770   68.2850 C   0  0  0  0  0  0  0  0  0  0  0  0
    5.4970   70.6240   68.4370 C   0  0  0  0  0  0  0  0  0  0  0  0
    6.3920   70.4250   67.3880 C   0  0  0  0  0  0  0  0  0  0  0  0
    5.9450   69.8800   66.1830 C   0  0  0  0  0  0  0  0  0  0  0  0
    1.2841   69.1614   63.4201 H   0  0  0  0  0  0  0  0  0  0  0  0
   -1.0678   69.4348   64.1903 H   0  0  0  0  0  0  0  0  0  0  0  0
   -0.2536   66.9141   67.6055 H   0  0  0  0  0  0  0  0  0  0  0  0
    2.0967   66.6352   66.8407 H   0  0  0  0  0  0  0  0  0  0  0  0
    2.6431   69.4557   66.9649 H   0  0  0  0  0  0  0  0  0  0  0  0
    3.4494   70.4344   69.1149 H   0  0  0  0  0  0  0  0  0  0  0  0
    5.8493   71.0550   69.3858 H   0  0  0  0  0  0  0  0  0  0  0  0
    7.4508   70.6973   67.5093 H   0  0  0  0  0  0  0  0  0  0  0  0
    6.6537   69.7238   65.3563 H   0  0  0  0  0  0  0  0  0  0  0  0
  2  1  2  0
  3  2  1  0
  4  3  2  0
  5  4  1  0
  6  5  2  0
  7  6  1  0
  8  7  2  0
  8  3  1  0
  9  6  1  0
 10  9  2  0
 11  9  1  0
 12  2  1  0
 13 12  2  0
 14 12  1  0
 15 14  2  0
 16 15  1  0
 17 16  2  0
 18 17  1  0
 19 18  2  0
 19 14  1  0
  4 20  1  0
  5 21  1  0
  7 22  1  0
  8 23  1  0
 15 24  1  0
 16 25  1  0
 17 26  1  0
 18 27  1  0
 19 28  1  0
M  CHG  1  11  -1
M  END
>  <score>  (5) 
-9.274

$$$$
=
     RDKit          3D

 28 29  0  0  0  0  0  0  0  0999 V2000
    1.5050   69.1000   63.9510 O   0  0  0  0  0  0  0  0  0  0  0  0
    2.0210   68.3620   64.7840 C   0  0  0  0  0  0  0  0  0  0  0  0
    2.7530   67.1240   64.4150 C   0  0  0  0  0  0  0  0  0  0  0  0
    2.4870   65.8970   65.0350 C   0  0  0  0  0  0  0  0  0  0  0  0
    3.2390   64.7690   64.6960 C   0  0  0  0  0  0  0  0  0  0  0  0
    4.2630   64.8400   63.7380 C   0  0  0  0  0  0  0  0  0  0  0  0
    4.5060   66.0740   63.1130 C   0  0  0  0  0  0  0  0  0  0  0  0
    3.7590   67.2060   63.4450 C   0  0  0  0  0  0  0  0  0  0  0  0
    5.0870   63.6150   63.3900 C   0  0  0  0  0  0  0  0  0  0  0  0
    6.2920   63.5970   63.7950 O   0  0  0  0  0  0  0  0  0  0  0  0
    4.5120   62.7040   62.7160 O   0  0  0  0  0  1  0  0  0  0  0  0
    1.9680   68.7830   66.2320 C   0  0  0  0  0  0  0  0  0  0  0  0
    0.9360   68.5950   66.8660 O   0  0  0  0  0  0  0  0  0  0  0  0
    3.1710   69.4000   66.8500 C   0  0  0  0  0  0  0  0  0  0  0  0
    4.3780   69.5330   66.1530 C   0  0  0  0  0  0  0  0  0  0  0  0
    5.4880   70.1040   66.7820 C   0  0  0  0  0  0  0  0  0  0  0  0
    5.3960   70.5460   68.1020 C   0  0  0  0  0  0  0  0  0  0  0  0
    4.1960   70.4190   68.7990 C   0  0  0  0  0  0  0  0  0  0  0  0
    3.0860   69.8480   68.1750 C   0  0  0  0  0  0  0  0  0  0  0  0
    1.6879   65.8212   65.7872 H   0  0  0  0  0  0  0  0  0  0  0  0
    3.0250   63.8088   65.1882 H   0  0  0  0  0  0  0  0  0  0  0  0
    5.2959   66.1498   62.3512 H   0  0  0  0  0  0  0  0  0  0  0  0
    3.9614   68.1639   62.9435 H   0  0  0  0  0  0  0  0  0  0  0  0
    4.4527   69.1884   65.1111 H   0  0  0  0  0  0  0  0  0  0  0  0
    6.4368   70.2051   66.2346 H   0  0  0  0  0  0  0  0  0  0  0  0
    6.2717   70.9953   68.5932 H   0  0  0  0  0  0  0  0  0  0  0  0
    4.1238   70.7683   69.8396 H   0  0  0  0  0  0  0  0  0  0  0  0
    2.1392   69.7491   68.7262 H   0  0  0  0  0  0  0  0  0  0  0  0
  2  1  2  0
  3  2  1  0
  4  3  2  0
  5  4  1  0
  6  5  2  0
  7  6  1  0
  8  7  2  0
  8  3  1  0
  9  6  1  0
 10  9  2  0
 11  9  1  0
 12  2  1  0
 13 12  2  0
 14 12  1  0
 15 14  2  0
 16 15  1  0
 17 16  2  0
 18 17  1  0
 19 18  2  0
 19 14  1  0
  4 20  1  0
  5 21  1  0
  7 22  1  0
  8 23  1  0
 15 24  1  0
 16 25  1  0
 17 26  1  0
 18 27  1  0
 19 28  1  0
M  CHG  1  11  -1
M  END
>  <score>  (6) 
-8.52

$$$$
=
     RDKit          3D

 28 29  0  0  0  0  0  0  0  0999 V2000
    0.0580   69.8470   67.6390 O   0  0  0  0  0  0  0  0  0  0  0  0
    0.7060   68.8140   67.5120 C   0  0  0  0  0  0  0  0  0  0  0  0
    0.5520   67.6520   68.4240 C   0  0  0  0  0  0  0  0  0  0  0  0
   -0.5860   66.8390   68.3980 C   0  0  0  0  0  0  0  0  0  0  0  0
   -0.7130   65.7900   69.3130 C   0  0  0  0  0  0  0  0  0  0  0  0
    0.2860   65.5320   70.2650 C   0  0  0  0  0  0  0  0  0  0  0  0
    1.4300   66.3470   70.2670 C   0  0  0  0  0  0  0  0  0  0  0  0
    1.5650   67.3970   69.3570 C   0  0  0  0  0  0  0  0  0  0  0  0
    0.1310   64.4040   71.2670 C   0  0  0  0  0  0  0  0  0  0  0  0
    0.1950   63.2180   70.8130 O   0  0  0  0  0  0  0  0  0  0  0  0
   -0.0550   64.7300   72.4810 O   0  0  0  0  0  1  0  0  0  0  0  0
    1.6400   68.7050   66.3310 C   0  0  0  0  0  0  0  0  0  0  0  0
    1.2220   68.2090   65.2910 O   0  0  0  0  0  0  0  0  0  0  0  0
    3.0300   69.2130   66.4590 C   0  0  0  0  0  0  0  0  0  0  0  0
    3.5110   69.7700   67.6510 C   0  0  0  0  0  0  0  0  0  0  0  0
    4.8220   70.2500   67.7180 C   0  0  0  0  0  0  0  0  0  0  0  0
    5.6550   70.1750   66.6020 C   0  0  0  0  0  0  0  0  0  0  0  0
    5.1820   69.6190   65.4150 C   0  0  0  0  0  0  0  0  0  0  0  0
    3.8740   69.1390   65.3420 C   0  0  0  0  0  0  0  0  0  0  0  0
   -1.3793   67.0248   67.6590 H   0  0  0  0  0  0  0  0  0  0  0  0
   -1.6113   65.1556   69.2867 H   0  0  0  0  0  0  0  0  0  0  0  0
    2.2310   66.1551   70.9961 H   0  0  0  0  0  0  0  0  0  0  0  0
    2.4681   68.0249   69.3727 H   0  0  0  0  0  0  0  0  0  0  0  0
    2.8573   69.8296   68.5337 H   0  0  0  0  0  0  0  0  0  0  0  0
    5.1980   70.6884   68.6542 H   0  0  0  0  0  0  0  0  0  0  0  0
    6.6858   70.5549   66.6588 H   0  0  0  0  0  0  0  0  0  0  0  0
    5.8399   69.5585   64.5355 H   0  0  0  0  0  0  0  0  0  0  0  0
    3.5033   68.7005   64.4038 H   0  0  0  0  0  0  0  0  0  0  0  0
  2  1  2  0
  3  2  1  0
  4  3  2  0
  5  4  1  0
  6  5  2  0
  7  6  1  0
  8  7  2  0
  8  3  1  0
  9  6  1  0
 10  9  2  0
 11  9  1  0
 12  2  1  0
 13 12  2  0
 14 12  1  0
 15 14  2  0
 16 15  1  0
 17 16  2  0
 18 17  1  0
 19 18  2  0
 19 14  1  0
  4 20  1  0
  5 21  1  0
  7 22  1  0
  8 23  1  0
 15 24  1  0
 16 25  1  0
 17 26  1  0
 18 27  1  0
 19 28  1  0
M  CHG  1  11  -1
M  END
>  <score>  (7) 
-8.473

$$$$
=
     RDKit          3D

 28 29  0  0  0  0  0  0  0  0999 V2000
    4.7590   69.8070   67.9250 O   0  0  0  0  0  0  0  0  0  0  0  0
    3.6920   69.7580   67.3240 C   0  0  0  0  0  0  0  0  0  0  0  0
    3.5960   69.4150   65.8820 C   0  0  0  0  0  0  0  0  0  0  0  0
    2.4090   68.9370   65.3150 C   0  0  0  0  0  0  0  0  0  0  0  0
    2.3810   68.5740   63.9650 C   0  0  0  0  0  0  0  0  0  0  0  0
    3.5270   68.6810   63.1600 C   0  0  0  0  0  0  0  0  0  0  0  0
    4.7050   69.1780   63.7410 C   0  0  0  0  0  0  0  0  0  0  0  0
    4.7420   69.5440   65.0880 C   0  0  0  0  0  0  0  0  0  0  0  0
    3.4920   68.2670   61.7010 C   0  0  0  0  0  0  0  0  0  0  0  0
    4.0590   67.1700   61.4010 O   0  0  0  0  0  0  0  0  0  0  0  0
    2.9050   69.0510   60.8920 O   0  0  0  0  0  1  0  0  0  0  0  0
    2.4250   69.9830   68.1130 C   0  0  0  0  0  0  0  0  0  0  0  0
    2.2850   71.0390   68.7190 O   0  0  0  0  0  0  0  0  0  0  0  0
    1.3810   68.9250   68.1220 C   0  0  0  0  0  0  0  0  0  0  0  0
    0.1760   69.0650   67.4210 C   0  0  0  0  0  0  0  0  0  0  0  0
   -0.7830   68.0500   67.4730 C   0  0  0  0  0  0  0  0  0  0  0  0
   -0.5440   66.8960   68.2180 C   0  0  0  0  0  0  0  0  0  0  0  0
    0.6540   66.7500   68.9140 C   0  0  0  0  0  0  0  0  0  0  0  0
    1.6150   67.7610   68.8670 C   0  0  0  0  0  0  0  0  0  0  0  0
    1.5011   68.8472   65.9295 H   0  0  0  0  0  0  0  0  0  0  0  0
    1.4452   68.1981   63.5257 H   0  0  0  0  0  0  0  0  0  0  0  0
    5.6114   69.2804   63.1262 H   0  0  0  0  0  0  0  0  0  0  0  0
    5.6726   69.9341   65.5259 H   0  0  0  0  0  0  0  0  0  0  0  0
   -0.0149   69.9731   66.8303 H   0  0  0  0  0  0  0  0  0  0  0  0
   -1.7298   68.1618   66.9243 H   0  0  0  0  0  0  0  0  0  0  0  0
   -1.3022   66.0999   68.2563 H   0  0  0  0  0  0  0  0  0  0  0  0
    0.8424   65.8385   69.5002 H   0  0  0  0  0  0  0  0  0  0  0  0
    2.5603   67.6438   69.4171 H   0  0  0  0  0  0  0  0  0  0  0  0
  2  1  2  0
  3  2  1  0
  4  3  2  0
  5  4  1  0
  6  5  2  0
  7  6  1  0
  8  7  2  0
  8  3  1  0
  9  6  1  0
 10  9  2  0
 11  9  1  0
 12  2  1  0
 13 12  2  0
 14 12  1  0
 15 14  2  0
 16 15  1  0
 17 16  2  0
 18 17  1  0
 19 18  2  0
 19 14  1  0
  4 20  1  0
  5 21  1  0
  7 22  1  0
  8 23  1  0
 15 24  1  0
 16 25  1  0
 17 26  1  0
 18 27  1  0
 19 28  1  0
M  CHG  1  11  -1
M  END
>  <score>  (8) 
-8.31

$$$$
=
     RDKit          3D

 28 29  0  0  0  0  0  0  0  0999 V2000
    4.0770   58.9190   73.2210 O   0  0  0  0  0  0  0  0  0  0  0  0
    3.2290   59.2380   72.3940 C   0  0  0  0  0  0  0  0  0  0  0  0
    1.8200   59.5290   72.7600 C   0  0  0  0  0  0  0  0  0  0  0  0
    1.2160   60.7540   72.4520 C   0  0  0  0  0  0  0  0  0  0  0  0
   -0.0950   61.0050   72.8650 C   0  0  0  0  0  0  0  0  0  0  0  0
   -0.8260   60.0470   73.5870 C   0  0  0  0  0  0  0  0  0  0  0  0
   -0.2110   58.8180   73.8720 C   0  0  0  0  0  0  0  0  0  0  0  0
    1.0980   58.5570   73.4630 C   0  0  0  0  0  0  0  0  0  0  0  0
   -2.2430   60.3360   74.0480 C   0  0  0  0  0  0  0  0  0  0  0  0
   -2.8950   59.3650   74.5460 O   0  0  0  0  0  0  0  0  0  0  0  0
   -2.6680   61.5240   73.8960 O   0  0  0  0  0  1  0  0  0  0  0  0
    3.6700   59.4110   70.9610 C   0  0  0  0  0  0  0  0  0  0  0  0
    3.8130   58.4150   70.2610 O   0  0  0  0  0  0  0  0  0  0  0  0
    3.9030   60.7820   70.4370 C   0  0  0  0  0  0  0  0  0  0  0  0
    4.7470   61.6910   71.0870 C   0  0  0  0  0  0  0  0  0  0  0  0
    4.9230   62.9760   70.5660 C   0  0  0  0  0  0  0  0  0  0  0  0
    4.2620   63.3560   69.3970 C   0  0  0  0  0  0  0  0  0  0  0  0
    3.4240   62.4540   68.7460 C   0  0  0  0  0  0  0  0  0  0  0  0
    3.2440   61.1700   69.2630 C   0  0  0  0  0  0  0  0  0  0  0  0
    1.7719   61.5165   71.8866 H   0  0  0  0  0  0  0  0  0  0  0  0
   -0.5630   61.9699   72.6204 H   0  0  0  0  0  0  0  0  0  0  0  0
   -0.7689   58.0487   74.4261 H   0  0  0  0  0  0  0  0  0  0  0  0
    1.5626   57.5869   73.6932 H   0  0  0  0  0  0  0  0  0  0  0  0
    5.2712   61.3938   72.0072 H   0  0  0  0  0  0  0  0  0  0  0  0
    5.5844   63.6899   71.0788 H   0  0  0  0  0  0  0  0  0  0  0  0
    4.4029   64.3681   68.9898 H   0  0  0  0  0  0  0  0  0  0  0  0
    2.9039   62.7535   67.8242 H   0  0  0  0  0  0  0  0  0  0  0  0
    2.5818   60.4596   68.7464 H   0  0  0  0  0  0  0  0  0  0  0  0
  2  1  2  0
  3  2  1  0
  4  3  2  0
  5  4  1  0
  6  5  2  0
  7  6  1  0
  8  7  2  0
  8  3  1  0
  9  6  1  0
 10  9  2  0
 11  9  1  0
 12  2  1  0
 13 12  2  0
 14 12  1  0
 15 14  2  0
 16 15  1  0
 17 16  2  0
 18 17  1  0
 19 18  2  0
 19 14  1  0
  4 20  1  0
  5 21  1  0
  7 22  1  0
  8 23  1  0
 15 24  1  0
 16 25  1  0
 17 26  1  0
 18 27  1  0
 19 28  1  0
M  CHG  1  11  -1
M  END
>  <score>  (9) 
-7.851

$$$$
