=
     RDKit          3D

 48 51  0  0  0  0  0  0  0  0999 V2000
    0.3530   68.2360   63.2330 C   0  0  2  0  0  0  0  0  0  0  0  0
   -0.8580   68.4790   64.1820 C   0  0  0  0  0  0  0  0  0  0  0  0
   -0.2760   68.8580   65.5660 C   0  0  0  0  0  0  0  0  0  0  0  0
    1.2020   69.0630   65.2810 C   0  0  2  0  0  0  0  0  0  0  0  0
    1.5250   67.9740   64.2280 C   0  0  1  0  0  0  0  0  0  0  0  0
    1.4000   66.5130   64.7700 C   0  0  0  0  0  0  0  0  0  0  0  0
    2.9800   68.1170   63.7190 C   0  0  0  0  0  0  0  0  0  0  0  0
    3.7720   69.3050   64.2900 C   0  0  0  0  0  0  0  0  0  0  0  0
    3.5400   69.6800   65.7830 C   0  0  1  0  0  0  0  0  0  0  0  0
    2.2500   69.0540   66.3800 C   0  0  1  0  0  0  0  0  0  0  0  0
    1.8740   69.8040   67.6550 C   0  0  0  0  0  0  0  0  0  0  0  0
    2.9910   69.6370   68.6860 C   0  0  0  0  0  0  0  0  0  0  0  0
    4.3640   69.9900   68.1510 C   0  0  0  0  0  0  0  0  0  0  0  0
    5.2010   70.7180   68.9130 C   0  0  0  0  0  0  0  0  0  0  0  0
    6.5970   70.9730   68.4970 C   0  0  0  0  0  0  0  0  0  0  0  0
    7.3160   71.6910   69.1870 O   0  0  0  0  0  0  0  0  0  0  0  0
    7.1080   70.2500   67.2780 C   0  0  0  0  0  0  0  0  0  0  0  0
    6.0140   70.1510   66.2270 C   0  0  0  0  0  0  0  0  0  0  0  0
    4.7350   69.4680   66.7570 C   0  0  2  0  0  0  0  0  0  0  0  0
    0.7460   70.3580   61.6430 C   0  0  0  0  0  0  0  0  0  0  0  0
    0.5740   69.4100   62.3590 C   0  0  0  0  0  0  0  0  0  0  0  0
    0.0910   67.1150   62.4020 O   0  0  0  0  0  0  0  0  0  0  0  0
   -1.4820   69.2989   63.7967 H   0  0  0  0  0  0  0  0  0  0  0  0
   -1.4891   67.5808   64.2528 H   0  0  0  0  0  0  0  0  0  0  0  0
   -0.7355   69.7820   65.9468 H   0  0  0  0  0  0  0  0  0  0  0  0
   -0.4636   68.0942   66.3350 H   0  0  0  0  0  0  0  0  0  0  0  0
    1.2950   70.1200   64.9911 H   0  0  0  0  0  0  0  0  0  0  0  0
    1.4013   66.5286   65.8699 H   0  0  0  0  0  0  0  0  0  0  0  0
    0.4605   66.0678   64.4107 H   0  0  0  0  0  0  0  0  0  0  0  0
    2.2502   65.9146   64.4107 H   0  0  0  0  0  0  0  0  0  0  0  0
    3.5208   67.1947   63.9775 H   0  0  0  0  0  0  0  0  0  0  0  0
    2.9027   68.3001   62.6371 H   0  0  0  0  0  0  0  0  0  0  0  0
    4.8410   69.0742   64.1717 H   0  0  0  0  0  0  0  0  0  0  0  0
    3.4101   70.1769   63.7253 H   0  0  0  0  0  0  0  0  0  0  0  0
    3.4192   70.7710   65.7114 H   0  0  0  0  0  0  0  0  0  0  0  0
    2.3731   68.0078   66.6968 H   0  0  0  0  0  0  0  0  0  0  0  0
    1.7402   70.8719   67.4275 H   0  0  0  0  0  0  0  0  0  0  0  0
    0.9351   69.3975   68.0590 H   0  0  0  0  0  0  0  0  0  0  0  0
    2.7732   70.2896   69.5443 H   0  0  0  0  0  0  0  0  0  0  0  0
    3.0163   68.5737   68.9668 H   0  0  0  0  0  0  0  0  0  0  0  0
    4.8390   71.1322   69.8656 H   0  0  0  0  0  0  0  0  0  0  0  0
    7.9634   70.8016   66.8608 H   0  0  0  0  0  0  0  0  0  0  0  0
    7.4193   69.2355   67.5676 H   0  0  0  0  0  0  0  0  0  0  0  0
    5.7567   71.1663   65.8909 H   0  0  0  0  0  0  0  0  0  0  0  0
    6.4015   69.5341   65.4028 H   0  0  0  0  0  0  0  0  0  0  0  0
    4.9474   68.3910   66.8279 H   0  0  0  0  0  0  0  0  0  0  0  0
    0.9036   71.2267   60.9869 H   0  0  0  0  0  0  0  0  0  0  0  0
   -0.0942   66.3225   62.9657 H   0  0  0  0  0  0  0  0  0  0  0  0
  2  1  1  0
  3  2  1  0
  4  3  1  0
  5  4  1  0
  5  1  1  0
  5  6  1  1
  7  5  1  0
  8  7  1  0
  9  8  1  0
 10  4  1  0
 10  9  1  0
 11 10  1  0
 12 11  1  0
 13 12  1  0
 14 13  2  0
 15 14  1  0
 16 15  2  0
 17 15  1  0
 18 17  1  0
 19 13  1  0
 19  9  1  0
 19 18  1  0
 21 20  3  0
  1 21  1  6
 22  1  1  0
  2 23  1  0
  2 24  1  0
  3 25  1  0
  3 26  1  0
  4 27  1  6
  6 28  1  0
  6 29  1  0
  6 30  1  0
  7 31  1  0
  7 32  1  0
  8 33  1  0
  8 34  1  0
  9 35  1  6
 10 36  1  1
 11 37  1  0
 11 38  1  0
 12 39  1  0
 12 40  1  0
 14 41  1  0
 17 42  1  0
 17 43  1  0
 18 44  1  0
 18 45  1  0
 19 46  1  1
 20 47  1  0
 22 48  1  0
M  END
>  <score>  (1) 
-8.937

$$$$
=
     RDKit          3D

 48 51  0  0  0  0  0  0  0  0999 V2000
    4.0190   62.8990   70.4930 C   0  0  2  0  0  0  0  0  0  0  0  0
    4.1280   62.1930   69.1090 C   0  0  0  0  0  0  0  0  0  0  0  0
    3.7520   60.7080   69.3310 C   0  0  0  0  0  0  0  0  0  0  0  0
    3.2040   60.6920   70.7490 C   0  0  2  0  0  0  0  0  0  0  0  0
    4.1020   61.7090   71.4960 C   0  0  1  0  0  0  0  0  0  0  0  0
    5.5970   61.2640   71.6170 C   0  0  0  0  0  0  0  0  0  0  0  0
    3.6030   61.9190   72.9460 C   0  0  0  0  0  0  0  0  0  0  0  0
    2.3230   61.1560   73.3270 C   0  0  0  0  0  0  0  0  0  0  0  0
    2.1370   59.7200   72.7520 C   0  0  1  0  0  0  0  0  0  0  0  0
    3.0780   59.4130   71.5560 C   0  0  1  0  0  0  0  0  0  0  0  0
    2.5400   58.2040   70.7950 C   0  0  0  0  0  0  0  0  0  0  0  0
    2.5470   56.9830   71.7180 C   0  0  0  0  0  0  0  0  0  0  0  0
    1.8590   57.2270   73.0450 C   0  0  0  0  0  0  0  0  0  0  0  0
    1.0330   56.2870   73.5410 C   0  0  0  0  0  0  0  0  0  0  0  0
    0.4450   56.4140   74.8930 C   0  0  0  0  0  0  0  0  0  0  0  0
   -0.3510   55.5670   75.2910 O   0  0  0  0  0  0  0  0  0  0  0  0
    0.9320   57.5400   75.7660 C   0  0  0  0  0  0  0  0  0  0  0  0
    1.1770   58.7870   74.9310 C   0  0  0  0  0  0  0  0  0  0  0  0
    2.1660   58.5440   73.7690 C   0  0  2  0  0  0  0  0  0  0  0  0
    1.7240   64.2730   70.6740 C   0  0  0  0  0  0  0  0  0  0  0  0
    2.7540   63.6620   70.5900 C   0  0  0  0  0  0  0  0  0  0  0  0
    5.0940   63.8120   70.6500 O   0  0  0  0  0  0  0  0  0  0  0  0
    3.4336   62.6560   68.3924 H   0  0  0  0  0  0  0  0  0  0  0  0
    5.1447   62.2847   68.6992 H   0  0  0  0  0  0  0  0  0  0  0  0
    2.9875   60.3834   68.6098 H   0  0  0  0  0  0  0  0  0  0  0  0
    4.6021   60.0240   69.1912 H   0  0  0  0  0  0  0  0  0  0  0  0
    2.1310   60.9118   70.6471 H   0  0  0  0  0  0  0  0  0  0  0  0
    5.8705   61.1826   72.6793 H   0  0  0  0  0  0  0  0  0  0  0  0
    5.7296   60.2874   71.1284 H   0  0  0  0  0  0  0  0  0  0  0  0
    6.2420   62.0091   71.1284 H   0  0  0  0  0  0  0  0  0  0  0  0
    4.4036   61.5985   73.6289 H   0  0  0  0  0  0  0  0  0  0  0  0
    3.3508   62.9868   73.0250 H   0  0  0  0  0  0  0  0  0  0  0  0
    2.3027   61.0757   74.4239 H   0  0  0  0  0  0  0  0  0  0  0  0
    1.5067   61.7422   72.8798 H   0  0  0  0  0  0  0  0  0  0  0  0
    1.0963   59.7652   72.3986 H   0  0  0  0  0  0  0  0  0  0  0  0
    4.0955   59.1241   71.8581 H   0  0  0  0  0  0  0  0  0  0  0  0
    1.5116   58.4071   70.4618 H   0  0  0  0  0  0  0  0  0  0  0  0
    3.1745   58.0075   69.9182 H   0  0  0  0  0  0  0  0  0  0  0  0
    2.0332   56.1561   71.2059 H   0  0  0  0  0  0  0  0  0  0  0  0
    3.5991   56.7477   71.9366 H   0  0  0  0  0  0  0  0  0  0  0  0
    0.7900   55.4061   72.9286 H   0  0  0  0  0  0  0  0  0  0  0  0
    0.1736   57.7594   76.5320 H   0  0  0  0  0  0  0  0  0  0  0  0
    1.8754   57.2391   76.2451 H   0  0  0  0  0  0  0  0  0  0  0  0
    0.2174   59.1233   74.5114 H   0  0  0  0  0  0  0  0  0  0  0  0
    1.6216   59.5460   75.5914 H   0  0  0  0  0  0  0  0  0  0  0  0
    3.1728   58.4796   74.2074 H   0  0  0  0  0  0  0  0  0  0  0  0
    0.7803   64.8328   70.7510 H   0  0  0  0  0  0  0  0  0  0  0  0
    5.2653   63.9575   71.6142 H   0  0  0  0  0  0  0  0  0  0  0  0
  2  1  1  0
  3  2  1  0
  4  3  1  0
  5  4  1  0
  5  1  1  0
  5  6  1  1
  7  5  1  0
  8  7  1  0
  9  8  1  0
 10  4  1  0
 10  9  1  0
 11 10  1  0
 12 11  1  0
 13 12  1  0
 14 13  2  0
 15 14  1  0
 16 15  2  0
 17 15  1  0
 18 17  1  0
 19 13  1  0
 19  9  1  0
 19 18  1  0
 21 20  3  0
  1 21  1  6
 22  1  1  0
  2 23  1  0
  2 24  1  0
  3 25  1  0
  3 26  1  0
  4 27  1  6
  6 28  1  0
  6 29  1  0
  6 30  1  0
  7 31  1  0
  7 32  1  0
  8 33  1  0
  8 34  1  0
  9 35  1  6
 10 36  1  1
 11 37  1  0
 11 38  1  0
 12 39  1  0
 12 40  1  0
 14 41  1  0
 17 42  1  0
 17 43  1  0
 18 44  1  0
 18 45  1  0
 19 46  1  1
 20 47  1  0
 22 48  1  0
M  END
>  <score>  (2) 
-8.244

$$$$
=
     RDKit          3D

 48 51  0  0  0  0  0  0  0  0999 V2000
    3.8640   61.2120   71.0930 C   0  0  2  0  0  0  0  0  0  0  0  0
    4.4100   59.7540   71.0360 C   0  0  0  0  0  0  0  0  0  0  0  0
    3.4280   58.8740   71.8470 C   0  0  0  0  0  0  0  0  0  0  0  0
    2.2540   59.8040   72.1050 C   0  0  2  0  0  0  0  0  0  0  0  0
    2.9240   61.1810   72.3360 C   0  0  1  0  0  0  0  0  0  0  0  0
    3.8050   61.2470   73.6270 C   0  0  0  0  0  0  0  0  0  0  0  0
    1.8570   62.2910   72.4920 C   0  0  0  0  0  0  0  0  0  0  0  0
    0.3960   61.8390   72.3280 C   0  0  0  0  0  0  0  0  0  0  0  0
    0.0020   60.4430   72.8940 C   0  0  1  0  0  0  0  0  0  0  0  0
    1.2260   59.5340   73.1900 C   0  0  1  0  0  0  0  0  0  0  0  0
    0.7570   58.0860   73.3060 C   0  0  0  0  0  0  0  0  0  0  0  0
   -0.2090   57.9630   74.4870 C   0  0  0  0  0  0  0  0  0  0  0  0
   -1.3390   58.9720   74.4480 C   0  0  0  0  0  0  0  0  0  0  0  0
   -2.5900   58.5700   74.7370 C   0  0  0  0  0  0  0  0  0  0  0  0
   -3.7040   59.5370   74.8490 C   0  0  0  0  0  0  0  0  0  0  0  0
   -4.8450   59.1300   75.0550 O   0  0  0  0  0  0  0  0  0  0  0  0
   -3.3650   61.0040   74.7990 C   0  0  0  0  0  0  0  0  0  0  0  0
   -2.2470   61.2540   73.8010 C   0  0  0  0  0  0  0  0  0  0  0  0
   -0.9810   60.4220   74.0990 C   0  0  2  0  0  0  0  0  0  0  0  0
    2.5910   61.8420   68.8190 C   0  0  0  0  0  0  0  0  0  0  0  0
    3.1640   61.5550   69.8340 C   0  0  0  0  0  0  0  0  0  0  0  0
    4.9430   62.1190   71.2550 O   0  0  0  0  0  0  0  0  0  0  0  0
    4.4553   59.4076   69.9930 H   0  0  0  0  0  0  0  0  0  0  0  0
    5.4261   59.6975   71.4535 H   0  0  0  0  0  0  0  0  0  0  0  0
    3.1137   57.9953   71.2647 H   0  0  0  0  0  0  0  0  0  0  0  0
    3.8713   58.4749   72.7712 H   0  0  0  0  0  0  0  0  0  0  0  0
    1.5919   59.6794   71.2355 H   0  0  0  0  0  0  0  0  0  0  0  0
    3.1580   61.1985   74.5153 H   0  0  0  0  0  0  0  0  0  0  0  0
    4.5053   60.3988   73.6367 H   0  0  0  0  0  0  0  0  0  0  0  0
    4.3711   62.1901   73.6367 H   0  0  0  0  0  0  0  0  0  0  0  0
    1.9657   62.7255   73.4967 H   0  0  0  0  0  0  0  0  0  0  0  0
    2.0440   63.0038   71.6753 H   0  0  0  0  0  0  0  0  0  0  0  0
   -0.2372   62.5867   72.8279 H   0  0  0  0  0  0  0  0  0  0  0  0
    0.2535   61.7484   71.2410 H   0  0  0  0  0  0  0  0  0  0  0  0
   -0.5703   60.0264   72.0520 H   0  0  0  0  0  0  0  0  0  0  0  0
    1.7122   59.7495   74.1529 H   0  0  0  0  0  0  0  0  0  0  0  0
    0.2443   57.7899   72.3789 H   0  0  0  0  0  0  0  0  0  0  0  0
    1.6239   57.4285   73.4676 H   0  0  0  0  0  0  0  0  0  0  0  0
   -0.6434   56.9525   74.4783 H   0  0  0  0  0  0  0  0  0  0  0  0
    0.3698   58.1589   75.4017 H   0  0  0  0  0  0  0  0  0  0  0  0
   -2.7887   57.4995   74.8933 H   0  0  0  0  0  0  0  0  0  0  0  0
   -4.2565   61.5721   74.4948 H   0  0  0  0  0  0  0  0  0  0  0  0
   -3.0331   61.3284   75.7963 H   0  0  0  0  0  0  0  0  0  0  0  0
   -2.6093   60.9945   72.7953 H   0  0  0  0  0  0  0  0  0  0  0  0
   -1.9698   62.3160   73.8738 H   0  0  0  0  0  0  0  0  0  0  0  0
   -0.4869   60.8828   74.9671 H   0  0  0  0  0  0  0  0  0  0  0  0
    2.0659   62.1050   67.8889 H   0  0  0  0  0  0  0  0  0  0  0  0
    5.1124   62.2614   72.2200 H   0  0  0  0  0  0  0  0  0  0  0  0
  2  1  1  0
  3  2  1  0
  4  3  1  0
  5  4  1  0
  5  1  1  0
  5  6  1  1
  7  5  1  0
  8  7  1  0
  9  8  1  0
 10  4  1  0
 10  9  1  0
 11 10  1  0
 12 11  1  0
 13 12  1  0
 14 13  2  0
 15 14  1  0
 16 15  2  0
 17 15  1  0
 18 17  1  0
 19 13  1  0
 19  9  1  0
 19 18  1  0
 21 20  3  0
  1 21  1  6
 22  1  1  0
  2 23  1  0
  2 24  1  0
  3 25  1  0
  3 26  1  0
  4 27  1  6
  6 28  1  0
  6 29  1  0
  6 30  1  0
  7 31  1  0
  7 32  1  0
  8 33  1  0
  8 34  1  0
  9 35  1  6
 10 36  1  1
 11 37  1  0
 11 38  1  0
 12 39  1  0
 12 40  1  0
 14 41  1  0
 17 42  1  0
 17 43  1  0
 18 44  1  0
 18 45  1  0
 19 46  1  1
 20 47  1  0
 22 48  1  0
M  END
>  <score>  (3) 
-8.205

$$$$
=
     RDKit          3D

 48 51  0  0  0  0  0  0  0  0999 V2000
   -0.0950   57.5620   75.3480 C   0  0  2  0  0  0  0  0  0  0  0  0
   -1.4240   58.3540   75.5370 C   0  0  0  0  0  0  0  0  0  0  0  0
   -1.3040   59.6420   74.6880 C   0  0  0  0  0  0  0  0  0  0  0  0
   -0.0470   59.4070   73.8660 C   0  0  2  0  0  0  0  0  0  0  0  0
    0.8920   58.6590   74.8450 C   0  0  1  0  0  0  0  0  0  0  0  0
    1.3450   59.5200   76.0700 C   0  0  0  0  0  0  0  0  0  0  0  0
    2.1920   58.2200   74.1300 C   0  0  0  0  0  0  0  0  0  0  0  0
    2.2690   58.5430   72.6280 C   0  0  0  0  0  0  0  0  0  0  0  0
    1.6550   59.8910   72.1450 C   0  0  1  0  0  0  0  0  0  0  0  0
    0.7020   60.5380   73.1850 C   0  0  1  0  0  0  0  0  0  0  0  0
   -0.1700   61.5770   72.4840 C   0  0  0  0  0  0  0  0  0  0  0  0
    0.7210   62.6850   71.9190 C   0  0  0  0  0  0  0  0  0  0  0  0
    1.8600   62.1650   71.0650 C   0  0  0  0  0  0  0  0  0  0  0  0
    2.1490   62.7840   69.9060 C   0  0  0  0  0  0  0  0  0  0  0  0
    3.3330   62.4050   69.1040 C   0  0  0  0  0  0  0  0  0  0  0  0
    3.5350   62.9500   68.0220 O   0  0  0  0  0  0  0  0  0  0  0  0
    4.3020   61.4220   69.7080 C   0  0  0  0  0  0  0  0  0  0  0  0
    3.5530   60.3600   70.4960 C   0  0  0  0  0  0  0  0  0  0  0  0
    2.6440   60.9570   71.5920 C   0  0  2  0  0  0  0  0  0  0  0  0
   -0.4220   55.5520   73.6050 C   0  0  0  0  0  0  0  0  0  0  0  0
   -0.2820   56.4530   74.3860 C   0  0  0  0  0  0  0  0  0  0  0  0
    0.3070   57.0030   76.5890 O   0  0  0  0  0  0  0  0  0  0  0  0
   -2.2763   57.7508   75.1910 H   0  0  0  0  0  0  0  0  0  0  0  0
   -1.5913   58.5953   76.5971 H   0  0  0  0  0  0  0  0  0  0  0  0
   -2.1819   59.7676   74.0373 H   0  0  0  0  0  0  0  0  0  0  0  0
   -1.2529   60.5554   75.2987 H   0  0  0  0  0  0  0  0  0  0  0  0
   -0.3884   58.8853   72.9598 H   0  0  0  0  0  0  0  0  0  0  0  0
    1.0730   59.0031   77.0021 H   0  0  0  0  0  0  0  0  0  0  0  0
    2.4351   59.6630   76.0346 H   0  0  0  0  0  0  0  0  0  0  0  0
    0.8454   60.4994   76.0346 H   0  0  0  0  0  0  0  0  0  0  0  0
    3.0364   58.7201   74.6269 H   0  0  0  0  0  0  0  0  0  0  0  0
    2.2181   57.1227   74.2024 H   0  0  0  0  0  0  0  0  0  0  0  0
    3.3325   58.5469   72.3468 H   0  0  0  0  0  0  0  0  0  0  0  0
    1.6547   57.7687   72.1451 H   0  0  0  0  0  0  0  0  0  0  0  0
    1.0739   59.5598   71.2717 H   0  0  0  0  0  0  0  0  0  0  0  0
    1.2249   61.0970   73.9750 H   0  0  0  0  0  0  0  0  0  0  0  0
   -0.7255   61.0980   71.6642 H   0  0  0  0  0  0  0  0  0  0  0  0
   -0.8821   62.0071   73.2037 H   0  0  0  0  0  0  0  0  0  0  0  0
    0.0998   63.3519   71.3031 H   0  0  0  0  0  0  0  0  0  0  0  0
    1.1704   63.2087   72.7756 H   0  0  0  0  0  0  0  0  0  0  0  0
    1.4909   63.5891   69.5470 H   0  0  0  0  0  0  0  0  0  0  0  0
    4.8775   60.9393   68.9044 H   0  0  0  0  0  0  0  0  0  0  0  0
    4.9806   61.9593   70.3868 H   0  0  0  0  0  0  0  0  0  0  0  0
    2.9293   59.7804   69.7996 H   0  0  0  0  0  0  0  0  0  0  0  0
    4.3025   59.7285   70.9955 H   0  0  0  0  0  0  0  0  0  0  0  0
    3.2987   61.2903   72.4107 H   0  0  0  0  0  0  0  0  0  0  0  0
   -0.5503   54.7265   72.8894 H   0  0  0  0  0  0  0  0  0  0  0  0
   -0.0760   57.5356   77.3304 H   0  0  0  0  0  0  0  0  0  0  0  0
  2  1  1  0
  3  2  1  0
  4  3  1  0
  5  4  1  0
  5  1  1  0
  5  6  1  1
  7  5  1  0
  8  7  1  0
  9  8  1  0
 10  4  1  0
 10  9  1  0
 11 10  1  0
 12 11  1  0
 13 12  1  0
 14 13  2  0
 15 14  1  0
 16 15  2  0
 17 15  1  0
 18 17  1  0
 19 13  1  0
 19  9  1  0
 19 18  1  0
 21 20  3  0
  1 21  1  6
 22  1  1  0
  2 23  1  0
  2 24  1  0
  3 25  1  0
  3 26  1  0
  4 27  1  6
  6 28  1  0
  6 29  1  0
  6 30  1  0
  7 31  1  0
  7 32  1  0
  8 33  1  0
  8 34  1  0
  9 35  1  6
 10 36  1  1
 11 37  1  0
 11 38  1  0
 12 39  1  0
 12 40  1  0
 14 41  1  0
 17 42  1  0
 17 43  1  0
 18 44  1  0
 18 45  1  0
 19 46  1  1
 20 47  1  0
 22 48  1  0
M  END
>  <score>  (4) 
-8.15

$$$$
=
     RDKit          3D

 48 51  0  0  0  0  0  0  0  0999 V2000
    3.4440   63.2000   69.5860 C   0  0  2  0  0  0  0  0  0  0  0  0
    2.3650   64.2790   69.9040 C   0  0  0  0  0  0  0  0  0  0  0  0
    1.3330   63.6170   70.8480 C   0  0  0  0  0  0  0  0  0  0  0  0
    1.9940   62.3020   71.2260 C   0  0  2  0  0  0  0  0  0  0  0  0
    2.7090   61.8670   69.9220 C   0  0  1  0  0  0  0  0  0  0  0  0
    1.7330   61.5270   68.7480 C   0  0  0  0  0  0  0  0  0  0  0  0
    3.5510   60.5910   70.1580 C   0  0  0  0  0  0  0  0  0  0  0  0
    3.5660   60.0590   71.6020 C   0  0  0  0  0  0  0  0  0  0  0  0
    2.2460   60.1570   72.4220 C   0  0  1  0  0  0  0  0  0  0  0  0
    1.2110   61.1370   71.8060 C   0  0  1  0  0  0  0  0  0  0  0  0
    0.1750   61.5020   72.8660 C   0  0  0  0  0  0  0  0  0  0  0  0
   -0.5770   60.2400   73.2910 C   0  0  0  0  0  0  0  0  0  0  0  0
    0.3360   59.1000   73.6950 C   0  0  0  0  0  0  0  0  0  0  0  0
    0.0430   58.3780   74.7920 C   0  0  0  0  0  0  0  0  0  0  0  0
    0.8210   57.1730   75.1520 C   0  0  0  0  0  0  0  0  0  0  0  0
    0.5640   56.5710   76.1920 O   0  0  0  0  0  0  0  0  0  0  0  0
    1.8440   56.6780   74.1630 C   0  0  0  0  0  0  0  0  0  0  0  0
    2.5390   57.8520   73.4910 C   0  0  0  0  0  0  0  0  0  0  0  0
    1.5500   58.8170   72.8010 C   0  0  2  0  0  0  0  0  0  0  0  0
    5.6480   63.6150   71.0540 C   0  0  0  0  0  0  0  0  0  0  0  0
    4.6600   63.4240   70.3990 C   0  0  0  0  0  0  0  0  0  0  0  0
    3.8110   63.2820   68.2170 O   0  0  0  0  0  0  0  0  0  0  0  0
    2.8297   65.1446   70.3988 H   0  0  0  0  0  0  0  0  0  0  0  0
    1.8829   64.6377   68.9826 H   0  0  0  0  0  0  0  0  0  0  0  0
    1.1576   64.2394   71.7378 H   0  0  0  0  0  0  0  0  0  0  0  0
    0.3468   63.4828   70.3796 H   0  0  0  0  0  0  0  0  0  0  0  0
    2.6054   62.5300   72.1116 H   0  0  0  0  0  0  0  0  0  0  0  0
    0.7691   61.1912   69.1581 H   0  0  0  0  0  0  0  0  0  0  0  0
    1.5763   62.4235   68.1301 H   0  0  0  0  0  0  0  0  0  0  0  0
    2.1672   60.7272   68.1301 H   0  0  0  0  0  0  0  0  0  0  0  0
    3.1511   59.7975   69.5096 H   0  0  0  0  0  0  0  0  0  0  0  0
    4.5902   60.8712   69.9309 H   0  0  0  0  0  0  0  0  0  0  0  0
    3.8476   58.9966   71.5580 H   0  0  0  0  0  0  0  0  0  0  0  0
    4.2728   60.7138   72.1327 H   0  0  0  0  0  0  0  0  0  0  0  0
    2.6179   60.5662   73.3730 H   0  0  0  0  0  0  0  0  0  0  0  0
    0.6264   60.7014   70.9823 H   0  0  0  0  0  0  0  0  0  0  0  0
    0.6808   61.9403   73.7390 H   0  0  0  0  0  0  0  0  0  0  0  0
   -0.5350   62.2331   72.4520 H   0  0  0  0  0  0  0  0  0  0  0  0
   -1.2214   60.4901   74.1467 H   0  0  0  0  0  0  0  0  0  0  0  0
   -1.1550   59.8986   72.4196 H   0  0  0  0  0  0  0  0  0  0  0  0
   -0.7931   58.6908   75.4347 H   0  0  0  0  0  0  0  0  0  0  0  0
    2.5916   56.0666   74.6895 H   0  0  0  0  0  0  0  0  0  0  0  0
    1.3372   56.0748   73.3953 H   0  0  0  0  0  0  0  0  0  0  0  0
    3.1014   58.4109   74.2534 H   0  0  0  0  0  0  0  0  0  0  0  0
    3.2013   57.4441   72.7132 H   0  0  0  0  0  0  0  0  0  0  0  0
    1.2034   58.3247   71.8804 H   0  0  0  0  0  0  0  0  0  0  0  0
    6.5531   63.7900   71.6541 H   0  0  0  0  0  0  0  0  0  0  0  0
    4.7747   63.4973   68.1460 H   0  0  0  0  0  0  0  0  0  0  0  0
  2  1  1  0
  3  2  1  0
  4  3  1  0
  5  4  1  0
  5  1  1  0
  5  6  1  6
  7  5  1  0
  8  7  1  0
  9  8  1  0
 10  4  1  0
 10  9  1  0
 11 10  1  0
 12 11  1  0
 13 12  1  0
 14 13  2  0
 15 14  1  0
 16 15  2  0
 17 15  1  0
 18 17  1  0
 19 13  1  0
 19  9  1  0
 19 18  1  0
 21 20  3  0
  1 21  1  1
 22  1  1  0
  2 23  1  0
  2 24  1  0
  3 25  1  0
  3 26  1  0
  4 27  1  1
  6 28  1  0
  6 29  1  0
  6 30  1  0
  7 31  1  0
  7 32  1  0
  8 33  1  0
  8 34  1  0
  9 35  1  1
 10 36  1  6
 11 37  1  0
 11 38  1  0
 12 39  1  0
 12 40  1  0
 14 41  1  0
 17 42  1  0
 17 43  1  0
 18 44  1  0
 18 45  1  0
 19 46  1  6
 20 47  1  0
 22 48  1  0
M  END
>  <score>  (5) 
-7.261

$$$$
=
     RDKit          3D

 48 51  0  0  0  0  0  0  0  0999 V2000
   -0.8120   68.0600   66.1540 C   0  0  2  0  0  0  0  0  0  0  0  0
   -1.6620   68.9680   67.0920 C   0  0  0  0  0  0  0  0  0  0  0  0
   -0.6660   69.7600   67.9740 C   0  0  0  0  0  0  0  0  0  0  0  0
    0.6810   69.4670   67.3330 C   0  0  2  0  0  0  0  0  0  0  0  0
    0.5590   67.9870   66.8910 C   0  0  1  0  0  0  0  0  0  0  0  0
    0.4320   66.9800   68.0810 C   0  0  0  0  0  0  0  0  0  0  0  0
    1.8120   67.5480   66.0950 C   0  0  0  0  0  0  0  0  0  0  0  0
    2.8640   68.6430   65.8510 C   0  0  0  0  0  0  0  0  0  0  0  0
    3.1180   69.6710   66.9930 C   0  0  1  0  0  0  0  0  0  0  0  0
    1.9930   69.6880   68.0630 C   0  0  1  0  0  0  0  0  0  0  0  0
    2.0890   70.9830   68.8680 C   0  0  0  0  0  0  0  0  0  0  0  0
    3.4300   71.0210   69.6030 C   0  0  0  0  0  0  0  0  0  0  0  0
    4.6210   70.7720   68.6990 C   0  0  0  0  0  0  0  0  0  0  0  0
    5.7180   71.5390   68.8300 C   0  0  0  0  0  0  0  0  0  0  0  0
    6.9550   71.2520   68.0710 C   0  0  0  0  0  0  0  0  0  0  0  0
    7.9190   72.0070   68.1700 O   0  0  0  0  0  0  0  0  0  0  0  0
    7.0060   69.9750   67.2740 C   0  0  0  0  0  0  0  0  0  0  0  0
    5.6510   69.6900   66.6460 C   0  0  0  0  0  0  0  0  0  0  0  0
    4.5110   69.6270   67.6850 C   0  0  2  0  0  0  0  0  0  0  0  0
   -0.6460   69.1200   63.6970 C   0  0  0  0  0  0  0  0  0  0  0  0
   -0.7210   68.6510   64.7990 C   0  0  0  0  0  0  0  0  0  0  0  0
   -1.4280   66.7860   66.0350 O   0  0  0  0  0  0  0  0  0  0  0  0
   -2.2732   69.6613   66.4955 H   0  0  0  0  0  0  0  0  0  0  0  0
   -2.3439   68.3663   67.7108 H   0  0  0  0  0  0  0  0  0  0  0  0
   -0.8881   70.8371   67.9488 H   0  0  0  0  0  0  0  0  0  0  0  0
   -0.7087   69.4725   69.0349 H   0  0  0  0  0  0  0  0  0  0  0  0
    0.8065   70.2394   66.5599 H   0  0  0  0  0  0  0  0  0  0  0  0
    0.5010   67.5268   69.0330 H   0  0  0  0  0  0  0  0  0  0  0  0
   -0.5382   66.4649   68.0235 H   0  0  0  0  0  0  0  0  0  0  0  0
    1.2439   66.2401   68.0235 H   0  0  0  0  0  0  0  0  0  0  0  0
    2.2965   66.7315   66.6505 H   0  0  0  0  0  0  0  0  0  0  0  0
    1.4475   67.2549   65.0994 H   0  0  0  0  0  0  0  0  0  0  0  0
    3.8199   68.1397   65.6436 H   0  0  0  0  0  0  0  0  0  0  0  0
    2.4548   69.2420   65.0241 H   0  0  0  0  0  0  0  0  0  0  0  0
    3.1074   70.6178   66.4331 H   0  0  0  0  0  0  0  0  0  0  0  0
    2.0826   68.8855   68.8100 H   0  0  0  0  0  0  0  0  0  0  0  0
    2.0177   71.8448   68.1881 H   0  0  0  0  0  0  0  0  0  0  0  0
    1.2668   71.0262   69.5974 H   0  0  0  0  0  0  0  0  0  0  0  0
    3.5454   72.0120   70.0663 H   0  0  0  0  0  0  0  0  0  0  0  0
    3.4141   70.2121   70.3482 H   0  0  0  0  0  0  0  0  0  0  0  0
    5.6950   72.3983   69.5163 H   0  0  0  0  0  0  0  0  0  0  0  0
    7.7606   70.0730   66.4797 H   0  0  0  0  0  0  0  0  0  0  0  0
    7.2708   69.1448   67.9453 H   0  0  0  0  0  0  0  0  0  0  0  0
    5.4240   70.4875   65.9232 H   0  0  0  0  0  0  0  0  0  0  0  0
    5.7116   68.7046   66.1610 H   0  0  0  0  0  0  0  0  0  0  0  0
    4.6106   68.6710   68.2199 H   0  0  0  0  0  0  0  0  0  0  0  0
   -0.5772   69.5499   62.6868 H   0  0  0  0  0  0  0  0  0  0  0  0
   -1.6052   66.4195   66.9374 H   0  0  0  0  0  0  0  0  0  0  0  0
  2  1  1  0
  3  2  1  0
  4  3  1  0
  5  4  1  0
  5  1  1  0
  5  6  1  1
  7  5  1  0
  8  7  1  0
  9  8  1  0
 10  4  1  0
 10  9  1  0
 11 10  1  0
 12 11  1  0
 13 12  1  0
 14 13  2  0
 15 14  1  0
 16 15  2  0
 17 15  1  0
 18 17  1  0
 19 13  1  0
 19  9  1  0
 19 18  1  0
 21 20  3  0
  1 21  1  6
 22  1  1  0
  2 23  1  0
  2 24  1  0
  3 25  1  0
  3 26  1  0
  4 27  1  6
  6 28  1  0
  6 29  1  0
  6 30  1  0
  7 31  1  0
  7 32  1  0
  8 33  1  0
  8 34  1  0
  9 35  1  6
 10 36  1  1
 11 37  1  0
 11 38  1  0
 12 39  1  0
 12 40  1  0
 14 41  1  0
 17 42  1  0
 17 43  1  0
 18 44  1  0
 18 45  1  0
 19 46  1  1
 20 47  1  0
 22 48  1  0
M  END
>  <score>  (6) 
-6.823

$$$$
=
     RDKit          3D

 48 51  0  0  0  0  0  0  0  0999 V2000
    0.8260   63.4600   71.4410 C   0  0  2  0  0  0  0  0  0  0  0  0
    0.2910   64.5970   72.3620 C   0  0  0  0  0  0  0  0  0  0  0  0
    0.3970   64.0830   73.8180 C   0  0  0  0  0  0  0  0  0  0  0  0
    1.2110   62.8070   73.6820 C   0  0  2  0  0  0  0  0  0  0  0  0
    0.7130   62.1980   72.3480 C   0  0  1  0  0  0  0  0  0  0  0  0
   -0.7830   61.7410   72.3810 C   0  0  0  0  0  0  0  0  0  0  0  0
    1.5340   60.9390   71.9800 C   0  0  0  0  0  0  0  0  0  0  0  0
    2.6840   60.5880   72.9400 C   0  0  0  0  0  0  0  0  0  0  0  0
    2.4520   60.8200   74.4620 C   0  0  1  0  0  0  0  0  0  0  0  0
    1.2400   61.7430   74.7640 C   0  0  1  0  0  0  0  0  0  0  0  0
    1.3520   62.2620   76.1960 C   0  0  0  0  0  0  0  0  0  0  0  0
    1.2900   61.0810   77.1660 C   0  0  0  0  0  0  0  0  0  0  0  0
    2.2740   59.9760   76.8370 C   0  0  0  0  0  0  0  0  0  0  0  0
    2.9760   59.4020   77.8310 C   0  0  0  0  0  0  0  0  0  0  0  0
    3.8450   58.2310   77.5830 C   0  0  0  0  0  0  0  0  0  0  0  0
    4.5180   57.7680   78.5010 O   0  0  0  0  0  0  0  0  0  0  0  0
    3.7880   57.5930   76.2200 C   0  0  0  0  0  0  0  0  0  0  0  0
    3.6330   58.6570   75.1450 C   0  0  0  0  0  0  0  0  0  0  0  0
    2.3960   59.5550   75.3670 C   0  0  2  0  0  0  0  0  0  0  0  0
    3.3380   63.9820   70.6640 C   0  0  0  0  0  0  0  0  0  0  0  0
    2.2110   63.7510   71.0060 C   0  0  0  0  0  0  0  0  0  0  0  0
    0.0140   63.3640   70.2800 O   0  0  0  0  0  0  0  0  0  0  0  0
    0.9001   65.5042   72.2358 H   0  0  0  0  0  0  0  0  0  0  0  0
   -0.7486   64.8523   72.1091 H   0  0  0  0  0  0  0  0  0  0  0  0
    0.9144   64.8139   74.4569 H   0  0  0  0  0  0  0  0  0  0  0  0
   -0.5838   63.9189   74.2882 H   0  0  0  0  0  0  0  0  0  0  0  0
    2.2611   63.1260   73.7559 H   0  0  0  0  0  0  0  0  0  0  0  0
   -1.1127   61.6403   73.4256 H   0  0  0  0  0  0  0  0  0  0  0  0
   -1.4064   62.4897   71.8703 H   0  0  0  0  0  0  0  0  0  0  0  0
   -0.8817   60.7717   71.8703 H   0  0  0  0  0  0  0  0  0  0  0  0
    0.8445   60.0824   71.9512 H   0  0  0  0  0  0  0  0  0  0  0  0
    2.0084   61.1626   71.0131 H   0  0  0  0  0  0  0  0  0  0  0  0
    2.9137   59.5212   72.8015 H   0  0  0  0  0  0  0  0  0  0  0  0
    3.4922   61.2846   72.6724 H   0  0  0  0  0  0  0  0  0  0  0  0
    3.3835   61.3329   74.7434 H   0  0  0  0  0  0  0  0  0  0  0  0
    0.2706   61.2243   74.7288 H   0  0  0  0  0  0  0  0  0  0  0  0
    2.3080   62.7913   76.3216 H   0  0  0  0  0  0  0  0  0  0  0  0
    0.5229   62.9544   76.4037 H   0  0  0  0  0  0  0  0  0  0  0  0
    1.5075   61.4506   78.1790 H   0  0  0  0  0  0  0  0  0  0  0  0
    0.2811   60.6499   77.0868 H   0  0  0  0  0  0  0  0  0  0  0  0
    2.9022   59.8120   78.8491 H   0  0  0  0  0  0  0  0  0  0  0  0
    4.7171   57.0313   76.0432 H   0  0  0  0  0  0  0  0  0  0  0  0
    2.9234   56.9142   76.1787 H   0  0  0  0  0  0  0  0  0  0  0  0
    4.5321   59.2907   75.1452 H   0  0  0  0  0  0  0  0  0  0  0  0
    3.4991   58.1399   74.1834 H   0  0  0  0  0  0  0  0  0  0  0  0
    1.5099   58.9631   75.0942 H   0  0  0  0  0  0  0  0  0  0  0  0
    4.3709   64.1937   70.3505 H   0  0  0  0  0  0  0  0  0  0  0  0
   -0.9325   63.2521   70.5476 H   0  0  0  0  0  0  0  0  0  0  0  0
  2  1  1  0
  3  2  1  0
  4  3  1  0
  5  4  1  0
  5  1  1  0
  5  6  1  1
  7  5  1  0
  8  7  1  0
  9  8  1  0
 10  4  1  0
 10  9  1  0
 11 10  1  0
 12 11  1  0
 13 12  1  0
 14 13  2  0
 15 14  1  0
 16 15  2  0
 17 15  1  0
 18 17  1  0
 19 13  1  0
 19  9  1  0
 19 18  1  0
 21 20  3  0
  1 21  1  6
 22  1  1  0
  2 23  1  0
  2 24  1  0
  3 25  1  0
  3 26  1  0
  4 27  1  6
  6 28  1  0
  6 29  1  0
  6 30  1  0
  7 31  1  0
  7 32  1  0
  8 33  1  0
  8 34  1  0
  9 35  1  1
 10 36  1  1
 11 37  1  0
 11 38  1  0
 12 39  1  0
 12 40  1  0
 14 41  1  0
 17 42  1  0
 17 43  1  0
 18 44  1  0
 18 45  1  0
 19 46  1  6
 20 47  1  0
 22 48  1  0
M  END
>  <score>  (7) 
-6.772

$$$$
=
     RDKit          3D

 48 51  0  0  0  0  0  0  0  0999 V2000
    3.1710   62.7680   71.1240 C   0  0  2  0  0  0  0  0  0  0  0  0
    4.6870   62.7320   71.4820 C   0  0  0  0  0  0  0  0  0  0  0  0
    4.8790   61.5900   72.5090 C   0  0  0  0  0  0  0  0  0  0  0  0
    3.5390   60.8730   72.4930 C   0  0  2  0  0  0  0  0  0  0  0  0
    2.5140   62.0220   72.3250 C   0  0  1  0  0  0  0  0  0  0  0  0
    2.4540   63.0000   73.5450 C   0  0  0  0  0  0  0  0  0  0  0  0
    1.0820   61.4600   72.1600 C   0  0  0  0  0  0  0  0  0  0  0  0
    0.9670   59.9260   72.1320 C   0  0  0  0  0  0  0  0  0  0  0  0
    1.9070   59.1120   73.0690 C   0  0  1  0  0  0  0  0  0  0  0  0
    3.1020   59.9420   73.6100 C   0  0  1  0  0  0  0  0  0  0  0  0
    4.1760   58.9910   74.1320 C   0  0  0  0  0  0  0  0  0  0  0  0
    3.6080   58.1810   75.2990 C   0  0  0  0  0  0  0  0  0  0  0  0
    2.2920   57.5010   74.9770 C   0  0  0  0  0  0  0  0  0  0  0  0
    2.0950   56.2290   75.3670 C   0  0  0  0  0  0  0  0  0  0  0  0
    0.7830   55.5660   75.2010 C   0  0  0  0  0  0  0  0  0  0  0  0
    0.6540   54.3850   75.5140 O   0  0  0  0  0  0  0  0  0  0  0  0
   -0.3750   56.4110   74.7390 C   0  0  0  0  0  0  0  0  0  0  0  0
    0.0920   57.4280   73.7100 C   0  0  0  0  0  0  0  0  0  0  0  0
    1.2350   58.3260   74.2320 C   0  0  2  0  0  0  0  0  0  0  0  0
    2.7270   61.5870   68.7580 C   0  0  0  0  0  0  0  0  0  0  0  0
    2.9280   62.1110   69.8200 C   0  0  0  0  0  0  0  0  0  0  0  0
    2.7360   64.1150   71.0230 O   0  0  0  0  0  0  0  0  0  0  0  0
    5.2842   62.5338   70.5797 H   0  0  0  0  0  0  0  0  0  0  0  0
    5.0165   63.6955   71.8981 H   0  0  0  0  0  0  0  0  0  0  0  0
    5.6904   60.9148   72.1997 H   0  0  0  0  0  0  0  0  0  0  0  0
    5.1595   61.9539   73.5085 H   0  0  0  0  0  0  0  0  0  0  0  0
    3.6240   60.1212   71.6945 H   0  0  0  0  0  0  0  0  0  0  0  0
    2.4895   62.4221   74.4803 H   0  0  0  0  0  0  0  0  0  0  0  0
    3.3116   63.6877   73.5062 H   0  0  0  0  0  0  0  0  0  0  0  0
    1.5187   63.5777   73.5062 H   0  0  0  0  0  0  0  0  0  0  0  0
    0.4751   61.8292   72.9998 H   0  0  0  0  0  0  0  0  0  0  0  0
    0.7360   61.8049   71.1744 H   0  0  0  0  0  0  0  0  0  0  0  0
   -0.0681   59.6693   72.4017 H   0  0  0  0  0  0  0  0  0  0  0  0
    1.2756   59.6428   71.1149 H   0  0  0  0  0  0  0  0  0  0  0  0
    2.2782   58.3401   72.3788 H   0  0  0  0  0  0  0  0  0  0  0  0
    2.8446   60.5746   74.4723 H   0  0  0  0  0  0  0  0  0  0  0  0
    4.4856   58.3084   73.3269 H   0  0  0  0  0  0  0  0  0  0  0  0
    5.0470   59.5696   74.4736 H   0  0  0  0  0  0  0  0  0  0  0  0
    4.3406   57.4088   75.5764 H   0  0  0  0  0  0  0  0  0  0  0  0
    3.4158   58.8868   76.1205 H   0  0  0  0  0  0  0  0  0  0  0  0
    2.9273   55.6696   75.8191 H   0  0  0  0  0  0  0  0  0  0  0  0
   -1.1400   55.7625   74.2871 H   0  0  0  0  0  0  0  0  0  0  0  0
   -0.7965   56.9444   75.6038 H   0  0  0  0  0  0  0  0  0  0  0  0
    0.4473   56.8890   72.8193 H   0  0  0  0  0  0  0  0  0  0  0  0
   -0.7625   58.0808   73.4781 H   0  0  0  0  0  0  0  0  0  0  0  0
    0.7889   59.0455   74.9344 H   0  0  0  0  0  0  0  0  0  0  0  0
    2.5429   61.1071   67.7855 H   0  0  0  0  0  0  0  0  0  0  0  0
    2.6144   64.4914   71.9305 H   0  0  0  0  0  0  0  0  0  0  0  0
  2  1  1  0
  3  2  1  0
  4  3  1  0
  5  4  1  0
  5  1  1  0
  5  6  1  1
  7  5  1  0
  8  7  1  0
  9  8  1  0
 10  4  1  0
 10  9  1  0
 11 10  1  0
 12 11  1  0
 13 12  1  0
 14 13  2  0
 15 14  1  0
 16 15  2  0
 17 15  1  0
 18 17  1  0
 19 13  1  0
 19  9  1  0
 19 18  1  0
 21 20  3  0
  1 21  1  6
 22  1  1  0
  2 23  1  0
  2 24  1  0
  3 25  1  0
  3 26  1  0
  4 27  1  6
  6 28  1  0
  6 29  1  0
  6 30  1  0
  7 31  1  0
  7 32  1  0
  8 33  1  0
  8 34  1  0
  9 35  1  6
 10 36  1  1
 11 37  1  0
 11 38  1  0
 12 39  1  0
 12 40  1  0
 14 41  1  0
 17 42  1  0
 17 43  1  0
 18 44  1  0
 18 45  1  0
 19 46  1  1
 20 47  1  0
 22 48  1  0
M  END
>  <score>  (8) 
-6.727

$$$$
