=
     RDKit          3D

 30 31  0  0  0  0  0  0  0  0999 V2000
    4.1420   69.5050   63.8300 O   0  0  0  0  0  0  0  0  0  0  0  0
    3.9220   68.9690   64.9120 C   0  0  0  0  0  0  0  0  0  0  0  0
    4.6490   69.5010   66.1120 C   0  0  0  0  0  0  0  0  0  0  0  0
    6.0420   69.6810   65.9880 C   0  0  0  0  0  0  0  0  0  0  0  0
    6.8140   70.1710   67.0480 C   0  0  0  0  0  0  0  0  0  0  0  0
    6.1920   70.4920   68.2570 C   0  0  0  0  0  0  0  0  0  0  0  0
    4.8120   70.3220   68.4050 C   0  0  0  0  0  0  0  0  0  0  0  0
    4.0480   69.8300   67.3340 C   0  0  0  0  0  0  0  0  0  0  0  0
    6.9900   71.0070   69.3770 N   0  0  0  0  0  4  0  0  0  0  0  0
    7.8530   71.8590   69.1250 O   0  0  0  0  0  0  0  0  0  0  0  0
    6.7540   70.5580   70.5060 O   0  0  0  0  0  1  0  0  0  0  0  0
    2.9290   67.8040   64.9770 C   0  0  0  0  0  0  0  0  0  0  0  0
    3.3260   66.6680   64.7360 O   0  0  0  0  0  0  0  0  0  0  0  0
    1.4780   67.9740   65.3230 C   0  0  0  0  0  0  0  0  0  0  0  0
    0.5440   68.6700   64.5440 C   0  0  0  0  0  0  0  0  0  0  0  0
   -0.7960   68.7770   64.9500 C   0  0  0  0  0  0  0  0  0  0  0  0
   -1.2130   68.1830   66.1450 C   0  0  0  0  0  0  0  0  0  0  0  0
   -0.3000   67.4840   66.9380 C   0  0  0  0  0  0  0  0  0  0  0  0
    1.0330   67.3840   66.5230 C   0  0  0  0  0  0  0  0  0  0  0  0
   -2.6150   68.2960   66.5680 N   0  0  0  0  0  4  0  0  0  0  0  0
   -3.4020   68.8700   65.8020 O   0  0  0  0  0  0  0  0  0  0  0  0
   -2.9270   67.8130   67.6660 O   0  0  0  0  0  1  0  0  0  0  0  0
    6.5335   69.4306   65.0363 H   0  0  0  0  0  0  0  0  0  0  0  0
    7.8998   70.3020   66.9301 H   0  0  0  0  0  0  0  0  0  0  0  0
    4.3253   70.5733   69.3590 H   0  0  0  0  0  0  0  0  0  0  0  0
    2.9625   69.7012   67.4564 H   0  0  0  0  0  0  0  0  0  0  0  0
    0.8647   69.1387   63.6020 H   0  0  0  0  0  0  0  0  0  0  0  0
   -1.5171   69.3278   64.3282 H   0  0  0  0  0  0  0  0  0  0  0  0
   -0.6253   67.0168   67.8792 H   0  0  0  0  0  0  0  0  0  0  0  0
    1.7501   66.8319   67.1482 H   0  0  0  0  0  0  0  0  0  0  0  0
  2  1  2  0
  3  2  1  0
  4  3  2  0
  5  4  1  0
  6  5  2  0
  7  6  1  0
  8  7  2  0
  8  3  1  0
  9  6  1  0
 10  9  2  0
 11  9  1  0
 12  2  1  0
 13 12  2  0
 14 12  1  0
 15 14  2  0
 16 15  1  0
 17 16  2  0
 18 17  1  0
 19 14  1  0
 19 18  2  0
 20 17  1  0
 21 20  2  0
 22 20  1  0
  4 23  1  0
  5 24  1  0
  7 25  1  0
  8 26  1  0
 15 27  1  0
 16 28  1  0
 18 29  1  0
 19 30  1  0
M  CHG  4   9   1  11  -1  20   1  22  -1
M  END
>  <score>  (1) 
-9.582

$$$$
=
     RDKit          3D

 30 31  0  0  0  0  0  0  0  0999 V2000
    3.2990   66.7120   64.1200 O   0  0  0  0  0  0  0  0  0  0  0  0
    2.9560   67.8180   64.5280 C   0  0  0  0  0  0  0  0  0  0  0  0
    1.5340   67.9790   64.9820 C   0  0  0  0  0  0  0  0  0  0  0  0
    1.1740   67.3550   66.1940 C   0  0  0  0  0  0  0  0  0  0  0  0
   -0.1260   67.4440   66.7050 C   0  0  0  0  0  0  0  0  0  0  0  0
   -1.0910   68.1690   66.0010 C   0  0  0  0  0  0  0  0  0  0  0  0
   -0.7580   68.7970   64.7970 C   0  0  0  0  0  0  0  0  0  0  0  0
    0.5500   68.7010   64.2940 C   0  0  0  0  0  0  0  0  0  0  0  0
   -2.4590   68.2700   66.5260 N   0  0  0  0  0  4  0  0  0  0  0  0
   -3.3200   68.7770   65.7940 O   0  0  0  0  0  0  0  0  0  0  0  0
   -2.6680   67.8440   67.6700 O   0  0  0  0  0  1  0  0  0  0  0  0
    3.9820   68.9550   64.5520 C   0  0  0  0  0  0  0  0  0  0  0  0
    4.3140   69.4800   63.4950 O   0  0  0  0  0  0  0  0  0  0  0  0
    4.6140   69.4690   65.8130 C   0  0  0  0  0  0  0  0  0  0  0  0
    3.9220   69.7720   66.9920 C   0  0  0  0  0  0  0  0  0  0  0  0
    4.6000   70.2500   68.1250 C   0  0  0  0  0  0  0  0  0  0  0  0
    5.9870   70.4260   68.0850 C   0  0  0  0  0  0  0  0  0  0  0  0
    6.6990   70.1300   66.9210 C   0  0  0  0  0  0  0  0  0  0  0  0
    6.0120   69.6550   65.7980 C   0  0  0  0  0  0  0  0  0  0  0  0
    6.6960   70.9260   69.2710 N   0  0  0  0  0  4  0  0  0  0  0  0
    7.5990   71.7550   69.0930 O   0  0  0  0  0  0  0  0  0  0  0  0
    6.3490   70.4880   70.3770 O   0  0  0  0  0  1  0  0  0  0  0  0
    1.9323   66.7851   66.7508 H   0  0  0  0  0  0  0  0  0  0  0  0
   -0.3855   66.9479   67.6518 H   0  0  0  0  0  0  0  0  0  0  0  0
   -1.5199   69.3659   64.2440 H   0  0  0  0  0  0  0  0  0  0  0  0
    0.8052   69.1994   63.3472 H   0  0  0  0  0  0  0  0  0  0  0  0
    2.8314   69.6336   67.0312 H   0  0  0  0  0  0  0  0  0  0  0  0
    4.0411   70.4857   69.0427 H   0  0  0  0  0  0  0  0  0  0  0  0
    7.7897   70.2688   66.8869 H   0  0  0  0  0  0  0  0  0  0  0  0
    6.5754   69.4213   64.8826 H   0  0  0  0  0  0  0  0  0  0  0  0
  2  1  2  0
  3  2  1  0
  4  3  2  0
  5  4  1  0
  6  5  2  0
  7  6  1  0
  8  7  2  0
  8  3  1  0
  9  6  1  0
 10  9  2  0
 11  9  1  0
 12  2  1  0
 13 12  2  0
 14 12  1  0
 15 14  2  0
 16 15  1  0
 17 16  2  0
 18 17  1  0
 19 14  1  0
 19 18  2  0
 20 17  1  0
 21 20  2  0
 22 20  1  0
  4 23  1  0
  5 24  1  0
  7 25  1  0
  8 26  1  0
 15 27  1  0
 16 28  1  0
 18 29  1  0
 19 30  1  0
M  CHG  4   9   1  11  -1  20   1  22  -1
M  END
>  <score>  (2) 
-9.449

$$$$
=
     RDKit          3D

 30 31  0  0  0  0  0  0  0  0999 V2000
    3.2780   70.1870   69.4300 O   0  0  0  0  0  0  0  0  0  0  0  0
    3.0530   69.7610   68.3000 C   0  0  0  0  0  0  0  0  0  0  0  0
    1.6890   69.1950   68.0310 C   0  0  0  0  0  0  0  0  0  0  0  0
    0.6820   70.1060   67.6530 C   0  0  0  0  0  0  0  0  0  0  0  0
   -0.6240   69.6810   67.3790 C   0  0  0  0  0  0  0  0  0  0  0  0
   -0.9380   68.3230   67.4810 C   0  0  0  0  0  0  0  0  0  0  0  0
    0.0450   67.4000   67.8540 C   0  0  0  0  0  0  0  0  0  0  0  0
    1.3510   67.8390   68.1260 C   0  0  0  0  0  0  0  0  0  0  0  0
   -2.3040   67.8640   67.1970 N   0  0  0  0  0  4  0  0  0  0  0  0
   -2.8400   68.2640   66.1540 O   0  0  0  0  0  0  0  0  0  0  0  0
   -2.8380   67.1060   68.0170 O   0  0  0  0  0  1  0  0  0  0  0  0
    4.1610   69.8310   67.2440 C   0  0  0  0  0  0  0  0  0  0  0  0
    5.2720   70.2320   67.5720 O   0  0  0  0  0  0  0  0  0  0  0  0
    3.9600   69.4310   65.8110 C   0  0  0  0  0  0  0  0  0  0  0  0
    2.7410   69.0230   65.2550 C   0  0  0  0  0  0  0  0  0  0  0  0
    2.6490   68.6670   63.9000 C   0  0  0  0  0  0  0  0  0  0  0  0
    3.7860   68.7180   63.0860 C   0  0  0  0  0  0  0  0  0  0  0  0
    5.0120   69.1220   63.6180 C   0  0  0  0  0  0  0  0  0  0  0  0
    5.0910   69.4750   64.9710 C   0  0  0  0  0  0  0  0  0  0  0  0
    3.6890   68.3450   61.6690 N   0  0  0  0  0  4  0  0  0  0  0  0
    3.2700   69.2010   60.8770 O   0  0  0  0  0  0  0  0  0  0  0  0
    4.0300   67.1970   61.3510 O   0  0  0  0  0  1  0  0  0  0  0  0
    0.9275   71.1751   67.5714 H   0  0  0  0  0  0  0  0  0  0  0  0
   -1.3951   70.4089   67.0864 H   0  0  0  0  0  0  0  0  0  0  0  0
   -0.2047   66.3317   67.9341 H   0  0  0  0  0  0  0  0  0  0  0  0
    2.1192   67.1077   68.4177 H   0  0  0  0  0  0  0  0  0  0  0  0
    1.8430   68.9809   65.8889 H   0  0  0  0  0  0  0  0  0  0  0  0
    1.6841   68.3483   63.4787 H   0  0  0  0  0  0  0  0  0  0  0  0
    5.9075   69.1627   62.9804 H   0  0  0  0  0  0  0  0  0  0  0  0
    6.0578   69.7939   65.3877 H   0  0  0  0  0  0  0  0  0  0  0  0
  2  1  2  0
  3  2  1  0
  4  3  2  0
  5  4  1  0
  6  5  2  0
  7  6  1  0
  8  7  2  0
  8  3  1  0
  9  6  1  0
 10  9  2  0
 11  9  1  0
 12  2  1  0
 13 12  2  0
 14 12  1  0
 15 14  2  0
 16 15  1  0
 17 16  2  0
 18 17  1  0
 19 14  1  0
 19 18  2  0
 20 17  1  0
 21 20  2  0
 22 20  1  0
  4 23  1  0
  5 24  1  0
  7 25  1  0
  8 26  1  0
 15 27  1  0
 16 28  1  0
 18 29  1  0
 19 30  1  0
M  CHG  4   9   1  11  -1  20   1  22  -1
M  END
>  <score>  (3) 
-9.332

$$$$
=
     RDKit          3D

 30 31  0  0  0  0  0  0  0  0999 V2000
    5.3470   70.3360   67.6220 O   0  0  0  0  0  0  0  0  0  0  0  0
    4.2480   69.8930   67.3020 C   0  0  0  0  0  0  0  0  0  0  0  0
    4.0560   69.4770   65.8730 C   0  0  0  0  0  0  0  0  0  0  0  0
    5.1950   69.4950   65.0420 C   0  0  0  0  0  0  0  0  0  0  0  0
    5.1230   69.1260   63.6940 C   0  0  0  0  0  0  0  0  0  0  0  0
    3.8960   68.7290   63.1560 C   0  0  0  0  0  0  0  0  0  0  0  0
    2.7520   68.7030   63.9600 C   0  0  0  0  0  0  0  0  0  0  0  0
    2.8360   69.0750   65.3120 C   0  0  0  0  0  0  0  0  0  0  0  0
    3.8070   68.3400   61.7430 N   0  0  0  0  0  4  0  0  0  0  0  0
    4.1080   67.1750   61.4470 O   0  0  0  0  0  0  0  0  0  0  0  0
    3.4380   69.1990   60.9320 O   0  0  0  0  0  1  0  0  0  0  0  0
    3.1490   69.7890   68.3650 C   0  0  0  0  0  0  0  0  0  0  0  0
    3.3750   70.2020   69.4980 O   0  0  0  0  0  0  0  0  0  0  0  0
    1.7940   69.2030   68.0950 C   0  0  0  0  0  0  0  0  0  0  0  0
    1.4590   67.8520   68.2470 C   0  0  0  0  0  0  0  0  0  0  0  0
    0.1610   67.3940   67.9700 C   0  0  0  0  0  0  0  0  0  0  0  0
   -0.8190   68.2940   67.5380 C   0  0  0  0  0  0  0  0  0  0  0  0
   -0.5090   69.6470   67.3800 C   0  0  0  0  0  0  0  0  0  0  0  0
    0.7890   70.0910   67.6590 C   0  0  0  0  0  0  0  0  0  0  0  0
   -2.1770   67.8140   67.2480 N   0  0  0  0  0  4  0  0  0  0  0  0
   -2.7360   68.2520   66.2330 O   0  0  0  0  0  0  0  0  0  0  0  0
   -2.6810   67.0020   68.0360 O   0  0  0  0  0  1  0  0  0  0  0  0
    6.1624   69.8063   65.4630 H   0  0  0  0  0  0  0  0  0  0  0  0
    6.0242   69.1483   63.0636 H   0  0  0  0  0  0  0  0  0  0  0  0
    1.7869   68.3914   63.5339 H   0  0  0  0  0  0  0  0  0  0  0  0
    1.9324   69.0505   65.9388 H   0  0  0  0  0  0  0  0  0  0  0  0
    2.2239   67.1390   68.5884 H   0  0  0  0  0  0  0  0  0  0  0  0
   -0.0850   66.3289   68.0925 H   0  0  0  0  0  0  0  0  0  0  0  0
   -1.2775   70.3567   67.0396 H   0  0  0  0  0  0  0  0  0  0  0  0
    1.0305   71.1570   67.5353 H   0  0  0  0  0  0  0  0  0  0  0  0
  2  1  2  0
  3  2  1  0
  4  3  2  0
  5  4  1  0
  6  5  2  0
  7  6  1  0
  8  7  2  0
  8  3  1  0
  9  6  1  0
 10  9  2  0
 11  9  1  0
 12  2  1  0
 13 12  2  0
 14 12  1  0
 15 14  2  0
 16 15  1  0
 17 16  2  0
 18 17  1  0
 19 14  1  0
 19 18  2  0
 20 17  1  0
 21 20  2  0
 22 20  1  0
  4 23  1  0
  5 24  1  0
  7 25  1  0
  8 26  1  0
 15 27  1  0
 16 28  1  0
 18 29  1  0
 19 30  1  0
M  CHG  4   9   1  11  -1  20   1  22  -1
M  END
>  <score>  (4) 
-9.296

$$$$
=
     RDKit          3D

 30 31  0  0  0  0  0  0  0  0999 V2000
    0.7330   67.2960   67.0040 O   0  0  0  0  0  0  0  0  0  0  0  0
    1.3820   68.2640   66.6170 C   0  0  0  0  0  0  0  0  0  0  0  0
    1.8350   68.2690   65.1870 C   0  0  0  0  0  0  0  0  0  0  0  0
    3.1060   67.7220   64.9160 C   0  0  0  0  0  0  0  0  0  0  0  0
    3.6230   67.6790   63.6150 C   0  0  0  0  0  0  0  0  0  0  0  0
    2.8620   68.1880   62.5590 C   0  0  0  0  0  0  0  0  0  0  0  0
    1.5990   68.7360   62.8020 C   0  0  0  0  0  0  0  0  0  0  0  0
    1.0910   68.7730   64.1110 C   0  0  0  0  0  0  0  0  0  0  0  0
    3.3930   68.1490   61.1900 N   0  0  0  0  0  4  0  0  0  0  0  0
    4.1190   67.1940   60.8810 O   0  0  0  0  0  0  0  0  0  0  0  0
    3.0830   69.0740   60.4270 O   0  0  0  0  0  1  0  0  0  0  0  0
    1.6870   69.3970   67.6020 C   0  0  0  0  0  0  0  0  0  0  0  0
    0.7550   69.9940   68.1320 O   0  0  0  0  0  0  0  0  0  0  0  0
    3.0810   69.8250   67.9610 C   0  0  0  0  0  0  0  0  0  0  0  0
    4.1760   69.8020   67.0890 C   0  0  0  0  0  0  0  0  0  0  0  0
    5.4470   70.2230   67.5150 C   0  0  0  0  0  0  0  0  0  0  0  0
    5.6290   70.6750   68.8260 C   0  0  0  0  0  0  0  0  0  0  0  0
    4.5510   70.7070   69.7140 C   0  0  0  0  0  0  0  0  0  0  0  0
    3.2890   70.2840   69.2770 C   0  0  0  0  0  0  0  0  0  0  0  0
    6.9580   71.1140   69.2710 N   0  0  0  0  0  4  0  0  0  0  0  0
    7.4420   70.5600   70.2670 O   0  0  0  0  0  0  0  0  0  0  0  0
    7.5140   72.0130   68.6240 O   0  0  0  0  0  1  0  0  0  0  0  0
    3.7056   67.3196   65.7458 H   0  0  0  0  0  0  0  0  0  0  0  0
    4.6178   67.2490   63.4263 H   0  0  0  0  0  0  0  0  0  0  0  0
    1.0037   69.1378   61.9689 H   0  0  0  0  0  0  0  0  0  0  0  0
    0.0955   69.2035   64.2944 H   0  0  0  0  0  0  0  0  0  0  0  0
    4.0394   69.4494   66.0560 H   0  0  0  0  0  0  0  0  0  0  0  0
    6.2978   70.1971   66.8183 H   0  0  0  0  0  0  0  0  0  0  0  0
    4.6917   71.0608   70.7460 H   0  0  0  0  0  0  0  0  0  0  0  0
    2.4410   70.3108   69.9772 H   0  0  0  0  0  0  0  0  0  0  0  0
  2  1  2  0
  3  2  1  0
  4  3  2  0
  5  4  1  0
  6  5  2  0
  7  6  1  0
  8  7  2  0
  8  3  1  0
  9  6  1  0
 10  9  2  0
 11  9  1  0
 12  2  1  0
 13 12  2  0
 14 12  1  0
 15 14  2  0
 16 15  1  0
 17 16  2  0
 18 17  1  0
 19 14  1  0
 19 18  2  0
 20 17  1  0
 21 20  2  0
 22 20  1  0
  4 23  1  0
  5 24  1  0
  7 25  1  0
  8 26  1  0
 15 27  1  0
 16 28  1  0
 18 29  1  0
 19 30  1  0
M  CHG  4   9   1  11  -1  20   1  22  -1
M  END
>  <score>  (5) 
-9.153

$$$$
=
     RDKit          3D

 30 31  0  0  0  0  0  0  0  0999 V2000
    4.2660   69.1570   63.0220 O   0  0  0  0  0  0  0  0  0  0  0  0
    3.9060   68.7290   64.1140 C   0  0  0  0  0  0  0  0  0  0  0  0
    4.5600   69.3050   65.3360 C   0  0  0  0  0  0  0  0  0  0  0  0
    3.7430   69.4970   66.4690 C   0  0  0  0  0  0  0  0  0  0  0  0
    4.2560   70.0290   67.6590 C   0  0  0  0  0  0  0  0  0  0  0  0
    5.6070   70.3770   67.7280 C   0  0  0  0  0  0  0  0  0  0  0  0
    6.4370   70.1960   66.6170 C   0  0  0  0  0  0  0  0  0  0  0  0
    5.9120   69.6620   65.4290 C   0  0  0  0  0  0  0  0  0  0  0  0
    6.1570   70.9360   68.9690 N   0  0  0  0  0  4  0  0  0  0  0  0
    5.6220   70.6030   70.0360 O   0  0  0  0  0  0  0  0  0  0  0  0
    7.1210   71.7070   68.8760 O   0  0  0  0  0  1  0  0  0  0  0  0
    2.8230   67.6460   64.1700 C   0  0  0  0  0  0  0  0  0  0  0  0
    3.0950   66.5120   63.7900 O   0  0  0  0  0  0  0  0  0  0  0  0
    1.4300   67.8980   64.6680 C   0  0  0  0  0  0  0  0  0  0  0  0
    0.4800   68.7010   64.0240 C   0  0  0  0  0  0  0  0  0  0  0  0
   -0.8030   68.8780   64.5680 C   0  0  0  0  0  0  0  0  0  0  0  0
   -1.1460   68.2460   65.7680 C   0  0  0  0  0  0  0  0  0  0  0  0
   -0.2150   67.4410   66.4280 C   0  0  0  0  0  0  0  0  0  0  0  0
    1.0610   67.2720   65.8760 C   0  0  0  0  0  0  0  0  0  0  0  0
   -2.4870   68.4330   66.3360 N   0  0  0  0  0  4  0  0  0  0  0  0
   -2.7090   67.9510   67.4560 O   0  0  0  0  0  0  0  0  0  0  0  0
   -3.3170   69.0590   65.6610 O   0  0  0  0  0  1  0  0  0  0  0  0
    2.6790   69.2229   66.4173 H   0  0  0  0  0  0  0  0  0  0  0  0
    3.6009   70.1714   68.5311 H   0  0  0  0  0  0  0  0  0  0  0  0
    7.5004   70.4717   66.6737 H   0  0  0  0  0  0  0  0  0  0  0  0
    6.5710   69.5220   64.5595 H   0  0  0  0  0  0  0  0  0  0  0  0
    0.7422   69.1998   63.0793 H   0  0  0  0  0  0  0  0  0  0  0  0
   -1.5374   69.5130   64.0508 H   0  0  0  0  0  0  0  0  0  0  0  0
   -0.4814   66.9443   67.3726 H   0  0  0  0  0  0  0  0  0  0  0  0
    1.7920   66.6362   66.3970 H   0  0  0  0  0  0  0  0  0  0  0  0
  2  1  2  0
  3  2  1  0
  4  3  2  0
  5  4  1  0
  6  5  2  0
  7  6  1  0
  8  7  2  0
  8  3  1  0
  9  6  1  0
 10  9  2  0
 11  9  1  0
 12  2  1  0
 13 12  2  0
 14 12  1  0
 15 14  2  0
 16 15  1  0
 17 16  2  0
 18 17  1  0
 19 14  1  0
 19 18  2  0
 20 17  1  0
 21 20  2  0
 22 20  1  0
  4 23  1  0
  5 24  1  0
  7 25  1  0
  8 26  1  0
 15 27  1  0
 16 28  1  0
 18 29  1  0
 19 30  1  0
M  CHG  4   9   1  11  -1  20   1  22  -1
M  END
>  <score>  (6) 
-9.082

$$$$
=
     RDKit          3D

 30 31  0  0  0  0  0  0  0  0999 V2000
    0.5050   68.0060   68.5940 O   0  0  0  0  0  0  0  0  0  0  0  0
    1.0780   68.3370   67.5600 C   0  0  0  0  0  0  0  0  0  0  0  0
    2.3710   69.0880   67.6930 C   0  0  0  0  0  0  0  0  0  0  0  0
    2.5880   69.7790   68.9020 C   0  0  0  0  0  0  0  0  0  0  0  0
    3.7610   70.5110   69.1270 C   0  0  0  0  0  0  0  0  0  0  0  0
    4.7410   70.5570   68.1310 C   0  0  0  0  0  0  0  0  0  0  0  0
    4.5480   69.8790   66.9230 C   0  0  0  0  0  0  0  0  0  0  0  0
    3.3680   69.1490   66.7090 C   0  0  0  0  0  0  0  0  0  0  0  0
    5.9750   71.3200   68.3540 N   0  0  0  0  0  4  0  0  0  0  0  0
    5.9680   72.5240   68.0620 O   0  0  0  0  0  0  0  0  0  0  0  0
    6.9500   70.7150   68.8190 O   0  0  0  0  0  1  0  0  0  0  0  0
    0.4510   67.9710   66.2110 C   0  0  0  0  0  0  0  0  0  0  0  0
   -0.7050   67.5620   66.1830 O   0  0  0  0  0  0  0  0  0  0  0  0
    1.1810   68.0840   64.9040 C   0  0  0  0  0  0  0  0  0  0  0  0
    0.9100   69.0370   63.9140 C   0  0  0  0  0  0  0  0  0  0  0  0
    1.6480   69.0660   62.7200 C   0  0  0  0  0  0  0  0  0  0  0  0
    2.6710   68.1350   62.5080 C   0  0  0  0  0  0  0  0  0  0  0  0
    2.9590   67.1760   63.4810 C   0  0  0  0  0  0  0  0  0  0  0  0
    2.2170   67.1570   64.6680 C   0  0  0  0  0  0  0  0  0  0  0  0
    3.4420   68.1670   61.2580 N   0  0  0  0  0  4  0  0  0  0  0  0
    4.1980   67.2130   61.0260 O   0  0  0  0  0  0  0  0  0  0  0  0
    3.2910   69.1440   60.5120 O   0  0  0  0  0  1  0  0  0  0  0  0
    1.8184   69.7427   69.6872 H   0  0  0  0  0  0  0  0  0  0  0  0
    3.9095   71.0442   70.0776 H   0  0  0  0  0  0  0  0  0  0  0  0
    5.3205   69.9177   66.1409 H   0  0  0  0  0  0  0  0  0  0  0  0
    3.2237   68.6178   65.7566 H   0  0  0  0  0  0  0  0  0  0  0  0
    0.1081   69.7727   64.0742 H   0  0  0  0  0  0  0  0  0  0  0  0
    1.4222   69.8201   61.9516 H   0  0  0  0  0  0  0  0  0  0  0  0
    3.7616   66.4420   63.3164 H   0  0  0  0  0  0  0  0  0  0  0  0
    2.4474   66.4018   65.4339 H   0  0  0  0  0  0  0  0  0  0  0  0
  2  1  2  0
  3  2  1  0
  4  3  2  0
  5  4  1  0
  6  5  2  0
  7  6  1  0
  8  7  2  0
  8  3  1  0
  9  6  1  0
 10  9  2  0
 11  9  1  0
 12  2  1  0
 13 12  2  0
 14 12  1  0
 15 14  2  0
 16 15  1  0
 17 16  2  0
 18 17  1  0
 19 14  1  0
 19 18  2  0
 20 17  1  0
 21 20  2  0
 22 20  1  0
  4 23  1  0
  5 24  1  0
  7 25  1  0
  8 26  1  0
 15 27  1  0
 16 28  1  0
 18 29  1  0
 19 30  1  0
M  CHG  4   9   1  11  -1  20   1  22  -1
M  END
>  <score>  (7) 
-9.037

$$$$
=
     RDKit          3D

 30 31  0  0  0  0  0  0  0  0999 V2000
    2.2770   68.6890   62.3340 O   0  0  0  0  0  0  0  0  0  0  0  0
    2.3080   68.4010   63.5270 C   0  0  0  0  0  0  0  0  0  0  0  0
    1.0060   68.4000   64.2740 C   0  0  0  0  0  0  0  0  0  0  0  0
    0.9740   67.7110   65.5030 C   0  0  0  0  0  0  0  0  0  0  0  0
   -0.1910   67.6490   66.2780 C   0  0  0  0  0  0  0  0  0  0  0  0
   -1.3500   68.2840   65.8240 C   0  0  0  0  0  0  0  0  0  0  0  0
   -1.3430   68.9740   64.6070 C   0  0  0  0  0  0  0  0  0  0  0  0
   -0.1690   69.0300   63.8390 C   0  0  0  0  0  0  0  0  0  0  0  0
   -2.5780   68.2260   66.6270 N   0  0  0  0  0  4  0  0  0  0  0  0
   -2.4930   67.7740   67.7770 O   0  0  0  0  0  0  0  0  0  0  0  0
   -3.6250   68.6330   66.1060 O   0  0  0  0  0  1  0  0  0  0  0  0
    3.6530   68.0640   64.1780 C   0  0  0  0  0  0  0  0  0  0  0  0
    4.2390   67.0410   63.8390 O   0  0  0  0  0  0  0  0  0  0  0  0
    4.3030   68.9250   65.2210 C   0  0  0  0  0  0  0  0  0  0  0  0
    5.5440   69.5600   65.0790 C   0  0  0  0  0  0  0  0  0  0  0  0
    6.0740   70.3480   66.1130 C   0  0  0  0  0  0  0  0  0  0  0  0
    5.3590   70.5100   67.3040 C   0  0  0  0  0  0  0  0  0  0  0  0
    4.1200   69.8870   67.4690 C   0  0  0  0  0  0  0  0  0  0  0  0
    3.6020   69.1030   66.4310 C   0  0  0  0  0  0  0  0  0  0  0  0
    5.9150   71.3340   68.3850 N   0  0  0  0  0  4  0  0  0  0  0  0
    6.0150   72.5530   68.1840 O   0  0  0  0  0  0  0  0  0  0  0  0
    6.2510   70.7630   69.4310 O   0  0  0  0  0  1  0  0  0  0  0  0
    1.8852   67.2102   65.8620 H   0  0  0  0  0  0  0  0  0  0  0  0
   -0.1936   67.1058   67.2345 H   0  0  0  0  0  0  0  0  0  0  0  0
   -2.2570   69.4725   64.2519 H   0  0  0  0  0  0  0  0  0  0  0  0
   -0.1709   69.5752   62.8836 H   0  0  0  0  0  0  0  0  0  0  0  0
    6.1110   69.4394   64.1441 H   0  0  0  0  0  0  0  0  0  0  0  0
    7.0509   70.8376   65.9865 H   0  0  0  0  0  0  0  0  0  0  0  0
    3.5565   70.0111   68.4055 H   0  0  0  0  0  0  0  0  0  0  0  0
    2.6252   68.6146   66.5628 H   0  0  0  0  0  0  0  0  0  0  0  0
  2  1  2  0
  3  2  1  0
  4  3  2  0
  5  4  1  0
  6  5  2  0
  7  6  1  0
  8  7  2  0
  8  3  1  0
  9  6  1  0
 10  9  2  0
 11  9  1  0
 12  2  1  0
 13 12  2  0
 14 12  1  0
 15 14  2  0
 16 15  1  0
 17 16  2  0
 18 17  1  0
 19 14  1  0
 19 18  2  0
 20 17  1  0
 21 20  2  0
 22 20  1  0
  4 23  1  0
  5 24  1  0
  7 25  1  0
  8 26  1  0
 15 27  1  0
 16 28  1  0
 18 29  1  0
 19 30  1  0
M  CHG  4   9   1  11  -1  20   1  22  -1
M  END
>  <score>  (8) 
-8.866

$$$$
=
     RDKit          3D

 30 31  0  0  0  0  0  0  0  0999 V2000
   -0.4160   69.4390   67.2770 O   0  0  0  0  0  0  0  0  0  0  0  0
    0.5600   68.7130   67.4390 C   0  0  0  0  0  0  0  0  0  0  0  0
    0.4200   67.5630   68.3940 C   0  0  0  0  0  0  0  0  0  0  0  0
    1.5010   67.3190   69.2640 C   0  0  0  0  0  0  0  0  0  0  0  0
    1.4710   66.2720   70.1930 C   0  0  0  0  0  0  0  0  0  0  0  0
    0.3440   65.4490   70.2620 C   0  0  0  0  0  0  0  0  0  0  0  0
   -0.7420   65.6710   69.4080 C   0  0  0  0  0  0  0  0  0  0  0  0
   -0.7000   66.7250   68.4810 C   0  0  0  0  0  0  0  0  0  0  0  0
    0.3000   64.3470   71.2310 N   0  0  0  0  0  4  0  0  0  0  0  0
    0.5590   63.2070   70.8190 O   0  0  0  0  0  0  0  0  0  0  0  0
    0.0050   64.6220   72.4010 O   0  0  0  0  0  1  0  0  0  0  0  0
    1.8490   69.0150   66.6670 C   0  0  0  0  0  0  0  0  0  0  0  0
    1.8940   68.7720   65.4650 O   0  0  0  0  0  0  0  0  0  0  0  0
    3.0750   69.5970   67.3060 C   0  0  0  0  0  0  0  0  0  0  0  0
    3.1170   70.1790   68.5800 C   0  0  0  0  0  0  0  0  0  0  0  0
    4.3150   70.7000   69.0960 C   0  0  0  0  0  0  0  0  0  0  0  0
    5.4870   70.6400   68.3350 C   0  0  0  0  0  0  0  0  0  0  0  0
    5.4700   70.0640   67.0630 C   0  0  0  0  0  0  0  0  0  0  0  0
    4.2700   69.5480   66.5590 C   0  0  0  0  0  0  0  0  0  0  0  0
    6.7390   71.1850   68.8760 N   0  0  0  0  0  4  0  0  0  0  0  0
    7.3170   70.5330   69.7570 O   0  0  0  0  0  0  0  0  0  0  0  0
    7.1420   72.2650   68.4210 O   0  0  0  0  0  1  0  0  0  0  0  0
    2.3891   67.9660   69.2122 H   0  0  0  0  0  0  0  0  0  0  0  0
    2.3266   66.0989   70.8623 H   0  0  0  0  0  0  0  0  0  0  0  0
   -1.6275   65.0207   69.4627 H   0  0  0  0  0  0  0  0  0  0  0  0
   -1.5580   66.8952   67.8140 H   0  0  0  0  0  0  0  0  0  0  0  0
    2.1992   70.2285   69.1843 H   0  0  0  0  0  0  0  0  0  0  0  0
    4.3315   71.1547   70.0975 H   0  0  0  0  0  0  0  0  0  0  0  0
    6.3906   70.0161   66.4628 H   0  0  0  0  0  0  0  0  0  0  0  0
    4.2591   69.0939   65.5572 H   0  0  0  0  0  0  0  0  0  0  0  0
  2  1  2  0
  3  2  1  0
  4  3  2  0
  5  4  1  0
  6  5  2  0
  7  6  1  0
  8  7  2  0
  8  3  1  0
  9  6  1  0
 10  9  2  0
 11  9  1  0
 12  2  1  0
 13 12  2  0
 14 12  1  0
 15 14  2  0
 16 15  1  0
 17 16  2  0
 18 17  1  0
 19 14  1  0
 19 18  2  0
 20 17  1  0
 21 20  2  0
 22 20  1  0
  4 23  1  0
  5 24  1  0
  7 25  1  0
  8 26  1  0
 15 27  1  0
 16 28  1  0
 18 29  1  0
 19 30  1  0
M  CHG  4   9   1  11  -1  20   1  22  -1
M  END
>  <score>  (9) 
-8.678

$$$$
