=
     RDKit          3D

 57 59  0  0  0  0  0  0  0  0999 V2000
    1.0940   68.6940   67.5150 N   0  0  2  0  0  4  0  0  0  0  0  0
    0.0330   68.1280   66.5980 C   0  0  0  0  0  0  0  0  0  0  0  0
    0.5160   66.8370   65.9430 C   0  0  0  0  0  0  0  0  0  0  0  0
    1.8840   66.9790   65.3180 C   0  0  0  0  0  0  0  0  0  0  0  0
    2.7430   68.0430   65.6560 C   0  0  0  0  0  0  0  0  0  0  0  0
    2.3040   69.1180   66.6530 C   0  0  2  0  0  0  0  0  0  0  0  0
    3.9700   68.1570   64.9690 C   0  0  0  0  0  0  0  0  0  0  0  0
    4.3780   67.1940   64.0400 C   0  0  0  0  0  0  0  0  0  0  0  0
    3.5380   66.1050   63.7520 C   0  0  0  0  0  0  0  0  0  0  0  0
    2.2980   66.0080   64.3890 C   0  0  0  0  0  0  0  0  0  0  0  0
    3.3910   69.7750   67.4970 C   0  0  0  0  0  0  0  0  0  0  0  0
    4.7070   69.8400   67.0000 C   0  0  0  0  0  0  0  0  0  0  0  0
    5.7140   70.4710   67.7320 C   0  0  0  0  0  0  0  0  0  0  0  0
    5.4250   71.0500   68.9650 C   0  0  0  0  0  0  0  0  0  0  0  0
    4.1280   70.9990   69.4700 C   0  0  0  0  0  0  0  0  0  0  0  0
    3.1170   70.3700   68.7420 C   0  0  0  0  0  0  0  0  0  0  0  0
    4.0130   65.2040   62.8350 O   0  0  0  0  0  0  0  0  0  0  0  0
    4.5010   63.9560   63.3060 C   0  0  0  0  0  0  0  0  0  0  0  0
    5.5660   67.2340   63.3550 O   0  0  0  0  0  0  0  0  0  0  0  0
    5.9440   68.4510   62.7270 C   0  0  0  0  0  0  0  0  0  0  0  0
    1.4590   67.8260   68.7070 C   0  0  0  0  0  0  0  0  0  0  0  0
    0.3590   66.8520   69.1240 C   0  0  0  0  0  0  0  0  0  0  0  0
    0.6520   66.1360   70.4420 C   0  0  0  0  0  0  0  0  0  0  0  0
    1.0890   63.7210   70.6370 C   0  0  0  0  0  0  0  0  0  0  0  0
    0.0550   63.4650   71.2300 O   0  0  0  0  0  0  0  0  0  0  0  0
    1.4920   64.9820   70.2500 N   0  0  0  0  0  0  0  0  0  0  0  0
    2.6850   62.6620   69.1410 N   0  0  0  0  0  0  0  0  0  0  0  0
    2.0500   62.6140   70.2690 C   0  0  0  0  0  0  0  0  0  0  0  0
    3.5020   61.5280   69.0480 O   0  0  0  0  0  0  0  0  0  0  0  0
    0.6973   69.5214   67.9829 H   0  0  0  0  0  0  0  0  0  0  0  0
   -0.8747   67.9181   67.1829 H   0  0  0  0  0  0  0  0  0  0  0  0
   -0.1815   68.8647   65.8098 H   0  0  0  0  0  0  0  0  0  0  0  0
    0.5586   66.0481   66.7084 H   0  0  0  0  0  0  0  0  0  0  0  0
   -0.1926   66.5855   65.1401 H   0  0  0  0  0  0  0  0  0  0  0  0
    1.9848   69.9231   65.9748 H   0  0  0  0  0  0  0  0  0  0  0  0
    4.6199   69.0218   65.1682 H   0  0  0  0  0  0  0  0  0  0  0  0
    1.6361   65.1597   64.1604 H   0  0  0  0  0  0  0  0  0  0  0  0
    4.9437   69.3889   66.0251 H   0  0  0  0  0  0  0  0  0  0  0  0
    6.7386   70.5110   67.3339 H   0  0  0  0  0  0  0  0  0  0  0  0
    6.2203   71.5472   69.5396 H   0  0  0  0  0  0  0  0  0  0  0  0
    3.9000   71.4554   70.4446 H   0  0  0  0  0  0  0  0  0  0  0  0
    2.0944   70.3391   69.1462 H   0  0  0  0  0  0  0  0  0  0  0  0
    4.5017   63.9541   64.4060 H   0  0  0  0  0  0  0  0  0  0  0  0
    3.8531   63.1466   62.9384 H   0  0  0  0  0  0  0  0  0  0  0  0
    5.5261   63.8008   62.9384 H   0  0  0  0  0  0  0  0  0  0  0  0
    6.1775   69.2029   63.4952 H   0  0  0  0  0  0  0  0  0  0  0  0
    6.8313   68.2798   62.0998 H   0  0  0  0  0  0  0  0  0  0  0  0
    5.1158   68.8126   62.0998 H   0  0  0  0  0  0  0  0  0  0  0  0
    2.3569   67.2448   68.4501 H   0  0  0  0  0  0  0  0  0  0  0  0
    1.6235   68.5044   69.5571 H   0  0  0  0  0  0  0  0  0  0  0  0
   -0.5809   67.4130   69.2331 H   0  0  0  0  0  0  0  0  0  0  0  0
    0.2937   66.0809   68.3423 H   0  0  0  0  0  0  0  0  0  0  0  0
    1.1592   66.8361   71.1221 H   0  0  0  0  0  0  0  0  0  0  0  0
   -0.3044   65.7954   70.8654 H   0  0  0  0  0  0  0  0  0  0  0  0
    2.4169   65.1014   69.8127 H   0  0  0  0  0  0  0  0  0  0  0  0
    2.2096   61.7705   70.9567 H   0  0  0  0  0  0  0  0  0  0  0  0
    4.0681   61.3901   68.2476 H   0  0  0  0  0  0  0  0  0  0  0  0
  2  1  1  0
  3  2  1  0
  4  3  1  0
  5  4  2  0
  6  5  1  0
  6  1  1  0
  7  5  1  0
  8  7  2  0
  9  8  1  0
 10  9  2  0
 10  4  1  0
 11  6  1  0
 12 11  2  0
 13 12  1  0
 14 13  2  0
 15 14  1  0
 16 11  1  0
 16 15  2  0
 17  9  1  0
 18 17  1  0
 19  8  1  0
 20 19  1  0
 21  1  1  0
 22 21  1  0
 23 22  1  0
 25 24  2  0
 26 24  1  0
 26 23  1  0
 28 27  2  0
 28 24  1  0
 29 27  1  0
  1 30  1  1
  2 31  1  0
  2 32  1  0
  3 33  1  0
  3 34  1  0
  6 35  1  6
  7 36  1  0
 10 37  1  0
 12 38  1  0
 13 39  1  0
 14 40  1  0
 15 41  1  0
 16 42  1  0
 18 43  1  0
 18 44  1  0
 18 45  1  0
 20 46  1  0
 20 47  1  0
 20 48  1  0
 21 49  1  0
 21 50  1  0
 22 51  1  0
 22 52  1  0
 23 53  1  0
 23 54  1  0
 26 55  1  0
 28 56  1  0
 29 57  1  0
M  CHG  1   1   1
M  END
>  <score>  (1) 
-9.548

$$$$
=
     RDKit          3D

 57 59  0  0  0  0  0  0  0  0999 V2000
    1.2140   68.7300   67.8200 N   0  0  2  0  0  4  0  0  0  0  0  0
    0.1020   68.1120   67.0020 C   0  0  0  0  0  0  0  0  0  0  0  0
    0.5840   66.8440   66.3030 C   0  0  0  0  0  0  0  0  0  0  0  0
    1.8810   67.0490   65.5560 C   0  0  0  0  0  0  0  0  0  0  0  0
    2.7170   68.1520   65.8170 C   0  0  0  0  0  0  0  0  0  0  0  0
    2.3200   69.2070   66.8520 C   0  0  2  0  0  0  0  0  0  0  0  0
    3.8690   68.3220   65.0220 C   0  0  0  0  0  0  0  0  0  0  0  0
    4.2360   67.3770   64.0570 C   0  0  0  0  0  0  0  0  0  0  0  0
    3.4250   66.2490   63.8460 C   0  0  0  0  0  0  0  0  0  0  0  0
    2.2540   66.0960   64.5920 C   0  0  0  0  0  0  0  0  0  0  0  0
    3.4470   69.9170   67.5940 C   0  0  0  0  0  0  0  0  0  0  0  0
    3.1730   70.5590   68.8170 C   0  0  0  0  0  0  0  0  0  0  0  0
    4.1910   71.1820   69.5390 C   0  0  0  0  0  0  0  0  0  0  0  0
    5.4980   71.1710   69.0570 C   0  0  0  0  0  0  0  0  0  0  0  0
    5.7890   70.5380   67.8510 C   0  0  0  0  0  0  0  0  0  0  0  0
    4.7740   69.9130   67.1260 C   0  0  0  0  0  0  0  0  0  0  0  0
    3.8570   65.3690   62.8870 O   0  0  0  0  0  0  0  0  0  0  0  0
    4.5220   64.1860   63.3080 C   0  0  0  0  0  0  0  0  0  0  0  0
    5.3530   67.4710   63.2680 O   0  0  0  0  0  0  0  0  0  0  0  0
    5.6750   68.7310   62.6980 C   0  0  0  0  0  0  0  0  0  0  0  0
    1.7270   67.8830   68.9720 C   0  0  0  0  0  0  0  0  0  0  0  0
    0.7420   66.8140   69.4410 C   0  0  0  0  0  0  0  0  0  0  0  0
    1.4150   65.6390   70.1490 C   0  0  0  0  0  0  0  0  0  0  0  0
    0.7410   63.4560   71.0660 C   0  0  0  0  0  0  0  0  0  0  0  0
    1.7640   62.8760   70.7440 O   0  0  0  0  0  0  0  0  0  0  0  0
    0.4550   64.7770   70.7890 N   0  0  0  0  0  0  0  0  0  0  0  0
   -0.3910   62.8240   73.1220 N   0  0  0  0  0  0  0  0  0  0  0  0
   -0.3390   62.7270   71.8300 C   0  0  0  0  0  0  0  0  0  0  0  0
   -1.4740   62.0620   73.5760 O   0  0  0  0  0  0  0  0  0  0  0  0
    0.8225   69.5390   68.3232 H   0  0  0  0  0  0  0  0  0  0  0  0
   -0.7377   67.8605   67.6666 H   0  0  0  0  0  0  0  0  0  0  0  0
   -0.2180   68.8359   66.2381 H   0  0  0  0  0  0  0  0  0  0  0  0
    0.7336   66.0598   67.0598 H   0  0  0  0  0  0  0  0  0  0  0  0
   -0.1821   66.5576   65.5675 H   0  0  0  0  0  0  0  0  0  0  0  0
    1.9021   69.9937   66.2067 H   0  0  0  0  0  0  0  0  0  0  0  0
    4.4929   69.2169   65.1633 H   0  0  0  0  0  0  0  0  0  0  0  0
    1.6144   65.2172   64.4228 H   0  0  0  0  0  0  0  0  0  0  0  0
    2.1446   70.5693   69.2074 H   0  0  0  0  0  0  0  0  0  0  0  0
    3.9613   71.6830   70.4909 H   0  0  0  0  0  0  0  0  0  0  0  0
    6.2996   71.6619   69.6284 H   0  0  0  0  0  0  0  0  0  0  0  0
    6.8207   70.5308   67.4695 H   0  0  0  0  0  0  0  0  0  0  0  0
    5.0140   69.4110   66.1771 H   0  0  0  0  0  0  0  0  0  0  0  0
    4.5430   64.1486   64.4072 H   0  0  0  0  0  0  0  0  0  0  0  0
    3.9860   63.3067   62.9214 H   0  0  0  0  0  0  0  0  0  0  0  0
    5.5518   64.1869   62.9214 H   0  0  0  0  0  0  0  0  0  0  0  0
    5.8612   69.4597   63.5007 H   0  0  0  0  0  0  0  0  0  0  0  0
    6.5768   68.6323   62.0759 H   0  0  0  0  0  0  0  0  0  0  0  0
    4.8364   69.0771   62.0759 H   0  0  0  0  0  0  0  0  0  0  0  0
    2.6524   67.3835   68.6493 H   0  0  0  0  0  0  0  0  0  0  0  0
    1.8881   68.5632   69.8213 H   0  0  0  0  0  0  0  0  0  0  0  0
    0.0284   67.2786   70.1374 H   0  0  0  0  0  0  0  0  0  0  0  0
    0.2463   66.4129   68.5447 H   0  0  0  0  0  0  0  0  0  0  0  0
    1.9803   65.0540   69.4086 H   0  0  0  0  0  0  0  0  0  0  0  0
    2.0804   66.0444   70.9255 H   0  0  0  0  0  0  0  0  0  0  0  0
   -0.4676   65.1560   71.0462 H   0  0  0  0  0  0  0  0  0  0  0  0
   -1.0788   62.1159   71.2922 H   0  0  0  0  0  0  0  0  0  0  0  0
   -1.6742   62.0141   74.5444 H   0  0  0  0  0  0  0  0  0  0  0  0
  2  1  1  0
  3  2  1  0
  4  3  1  0
  5  4  2  0
  6  5  1  0
  6  1  1  0
  7  5  1  0
  8  7  2  0
  9  8  1  0
 10  9  2  0
 10  4  1  0
 11  6  1  0
 12 11  2  0
 13 12  1  0
 14 13  2  0
 15 14  1  0
 16 11  1  0
 16 15  2  0
 17  9  1  0
 18 17  1  0
 19  8  1  0
 20 19  1  0
 21  1  1  0
 22 21  1  0
 23 22  1  0
 25 24  2  0
 26 24  1  0
 26 23  1  0
 28 27  2  0
 28 24  1  0
 29 27  1  0
  1 30  1  1
  2 31  1  0
  2 32  1  0
  3 33  1  0
  3 34  1  0
  6 35  1  6
  7 36  1  0
 10 37  1  0
 12 38  1  0
 13 39  1  0
 14 40  1  0
 15 41  1  0
 16 42  1  0
 18 43  1  0
 18 44  1  0
 18 45  1  0
 20 46  1  0
 20 47  1  0
 20 48  1  0
 21 49  1  0
 21 50  1  0
 22 51  1  0
 22 52  1  0
 23 53  1  0
 23 54  1  0
 26 55  1  0
 28 56  1  0
 29 57  1  0
M  CHG  1   1   1
M  END
>  <score>  (2) 
-9.118

$$$$
=
     RDKit          3D

 57 59  0  0  0  0  0  0  0  0999 V2000
    0.3770   61.7970   72.2310 N   0  0  2  0  0  4  0  0  0  0  0  0
   -1.0740   61.4960   72.5310 C   0  0  0  0  0  0  0  0  0  0  0  0
   -1.2240   60.8730   73.9160 C   0  0  0  0  0  0  0  0  0  0  0  0
   -0.2790   59.7170   74.1390 C   0  0  0  0  0  0  0  0  0  0  0  0
    0.8510   59.5180   73.3200 C   0  0  0  0  0  0  0  0  0  0  0  0
    1.1430   60.4570   72.1480 C   0  0  2  0  0  0  0  0  0  0  0  0
    1.6400   58.3690   73.5360 C   0  0  0  0  0  0  0  0  0  0  0  0
    1.3740   57.4890   74.5910 C   0  0  0  0  0  0  0  0  0  0  0  0
    0.2790   57.7290   75.4380 C   0  0  0  0  0  0  0  0  0  0  0  0
   -0.5400   58.8360   75.2030 C   0  0  0  0  0  0  0  0  0  0  0  0
    2.6050   60.6680   71.7690 C   0  0  0  0  0  0  0  0  0  0  0  0
    3.5690   60.8070   72.7850 C   0  0  0  0  0  0  0  0  0  0  0  0
    4.9200   60.9620   72.4700 C   0  0  0  0  0  0  0  0  0  0  0  0
    5.3300   60.9760   71.1390 C   0  0  0  0  0  0  0  0  0  0  0  0
    4.3910   60.8360   70.1200 C   0  0  0  0  0  0  0  0  0  0  0  0
    3.0390   60.6800   70.4310 C   0  0  0  0  0  0  0  0  0  0  0  0
    0.0910   56.8230   76.4500 O   0  0  0  0  0  0  0  0  0  0  0  0
   -1.0190   55.9400   76.3670 C   0  0  0  0  0  0  0  0  0  0  0  0
    2.1150   56.3690   74.8690 O   0  0  0  0  0  0  0  0  0  0  0  0
    1.9360   55.2210   74.0510 C   0  0  0  0  0  0  0  0  0  0  0  0
    1.0330   62.8250   73.1370 C   0  0  0  0  0  0  0  0  0  0  0  0
    1.0380   64.2410   72.5640 C   0  0  0  0  0  0  0  0  0  0  0  0
    1.4740   64.3000   71.1010 C   0  0  0  0  0  0  0  0  0  0  0  0
    0.5290   66.0980   69.7100 C   0  0  0  0  0  0  0  0  0  0  0  0
    1.4180   66.9000   69.9400 O   0  0  0  0  0  0  0  0  0  0  0  0
    0.4390   64.8330   70.2530 N   0  0  0  0  0  0  0  0  0  0  0  0
   -0.3240   66.8130   67.5490 N   0  0  0  0  0  0  0  0  0  0  0  0
   -0.5950   66.4560   68.7650 C   0  0  0  0  0  0  0  0  0  0  0  0
   -1.5310   67.0870   66.8930 O   0  0  0  0  0  0  0  0  0  0  0  0
    0.4167   62.2757   71.3198 H   0  0  0  0  0  0  0  0  0  0  0  0
   -1.6517   62.4313   72.4920 H   0  0  0  0  0  0  0  0  0  0  0  0
   -1.4480   60.7829   71.7816 H   0  0  0  0  0  0  0  0  0  0  0  0
   -1.0211   61.6448   74.6731 H   0  0  0  0  0  0  0  0  0  0  0  0
   -2.2499   60.4845   73.9968 H   0  0  0  0  0  0  0  0  0  0  0  0
    0.7405   59.8783   71.3036 H   0  0  0  0  0  0  0  0  0  0  0  0
    2.4827   58.1601   72.8605 H   0  0  0  0  0  0  0  0  0  0  0  0
   -1.4022   59.0212   75.8605 H   0  0  0  0  0  0  0  0  0  0  0  0
    3.2543   60.7933   73.8389 H   0  0  0  0  0  0  0  0  0  0  0  0
    5.6621   61.0733   73.2743 H   0  0  0  0  0  0  0  0  0  0  0  0
    6.3952   61.0976   70.8927 H   0  0  0  0  0  0  0  0  0  0  0  0
    4.7150   60.8484   69.0689 H   0  0  0  0  0  0  0  0  0  0  0  0
    2.3045   60.5651   69.6203 H   0  0  0  0  0  0  0  0  0  0  0  0
   -1.3529   55.6744   77.3809 H   0  0  0  0  0  0  0  0  0  0  0  0
   -1.8409   56.4339   75.8279 H   0  0  0  0  0  0  0  0  0  0  0  0
   -0.7226   55.0281   75.8279 H   0  0  0  0  0  0  0  0  0  0  0  0
    1.7978   54.3349   74.6879 H   0  0  0  0  0  0  0  0  0  0  0  0
    1.0484   55.3581   73.4159 H   0  0  0  0  0  0  0  0  0  0  0  0
    2.8232   55.0813   73.4159 H   0  0  0  0  0  0  0  0  0  0  0  0
    0.4901   62.8403   74.0936 H   0  0  0  0  0  0  0  0  0  0  0  0
    2.0845   62.5237   73.2532 H   0  0  0  0  0  0  0  0  0  0  0  0
    0.0209   64.6527   72.6420 H   0  0  0  0  0  0  0  0  0  0  0  0
    1.7674   64.8246   73.1448 H   0  0  0  0  0  0  0  0  0  0  0  0
    2.3645   64.9408   71.0209 H   0  0  0  0  0  0  0  0  0  0  0  0
    1.6922   63.2743   70.7688 H   0  0  0  0  0  0  0  0  0  0  0  0
   -0.3886   64.2555   70.0469 H   0  0  0  0  0  0  0  0  0  0  0  0
   -1.6393   66.4137   69.1081 H   0  0  0  0  0  0  0  0  0  0  0  0
   -1.5252   67.3772   65.9465 H   0  0  0  0  0  0  0  0  0  0  0  0
  2  1  1  0
  3  2  1  0
  4  3  1  0
  5  4  2  0
  6  5  1  0
  6  1  1  0
  7  5  1  0
  8  7  2  0
  9  8  1  0
 10  9  2  0
 10  4  1  0
 11  6  1  0
 12 11  2  0
 13 12  1  0
 14 13  2  0
 15 14  1  0
 16 11  1  0
 16 15  2  0
 17  9  1  0
 18 17  1  0
 19  8  1  0
 20 19  1  0
 21  1  1  0
 22 21  1  0
 23 22  1  0
 25 24  2  0
 26 24  1  0
 26 23  1  0
 28 27  2  0
 28 24  1  0
 29 27  1  0
  1 30  1  6
  2 31  1  0
  2 32  1  0
  3 33  1  0
  3 34  1  0
  6 35  1  6
  7 36  1  0
 10 37  1  0
 12 38  1  0
 13 39  1  0
 14 40  1  0
 15 41  1  0
 16 42  1  0
 18 43  1  0
 18 44  1  0
 18 45  1  0
 20 46  1  0
 20 47  1  0
 20 48  1  0
 21 49  1  0
 21 50  1  0
 22 51  1  0
 22 52  1  0
 23 53  1  0
 23 54  1  0
 26 55  1  0
 28 56  1  0
 29 57  1  0
M  CHG  1   1   1
M  END
>  <score>  (3) 
-8.127

$$$$
=
     RDKit          3D

 57 59  0  0  0  0  0  0  0  0999 V2000
    2.5140   68.3560   63.8840 N   0  0  2  0  0  4  0  0  0  0  0  0
    3.5760   69.1110   63.1160 C   0  0  0  0  0  0  0  0  0  0  0  0
    4.9240   69.0250   63.8270 C   0  0  0  0  0  0  0  0  0  0  0  0
    4.8320   69.3760   65.2930 C   0  0  0  0  0  0  0  0  0  0  0  0
    3.5980   69.3860   65.9740 C   0  0  0  0  0  0  0  0  0  0  0  0
    2.2950   69.0700   65.2380 C   0  0  2  0  0  0  0  0  0  0  0  0
    3.5800   69.8060   67.3200 C   0  0  0  0  0  0  0  0  0  0  0  0
    4.7610   70.1180   68.0030 C   0  0  0  0  0  0  0  0  0  0  0  0
    5.9930   70.0490   67.3300 C   0  0  0  0  0  0  0  0  0  0  0  0
    6.0180   69.6830   65.9820 C   0  0  0  0  0  0  0  0  0  0  0  0
    1.1780   68.4130   66.0430 C   0  0  0  0  0  0  0  0  0  0  0  0
    1.4950   67.7170   67.2240 C   0  0  0  0  0  0  0  0  0  0  0  0
    0.4910   67.1400   68.0020 C   0  0  0  0  0  0  0  0  0  0  0  0
   -0.8430   67.2540   67.6190 C   0  0  0  0  0  0  0  0  0  0  0  0
   -1.1760   67.9430   66.4560 C   0  0  0  0  0  0  0  0  0  0  0  0
   -0.1750   68.5220   65.6740 C   0  0  0  0  0  0  0  0  0  0  0  0
    7.1010   70.3660   68.0710 O   0  0  0  0  0  0  0  0  0  0  0  0
    7.2460   71.7030   68.5300 C   0  0  0  0  0  0  0  0  0  0  0  0
    4.8140   70.5110   69.3160 O   0  0  0  0  0  0  0  0  0  0  0  0
    3.6970   71.1960   69.8630 C   0  0  0  0  0  0  0  0  0  0  0  0
    2.7370   66.8580   64.0060 C   0  0  0  0  0  0  0  0  0  0  0  0
    3.4390   66.2370   62.8000 C   0  0  0  0  0  0  0  0  0  0  0  0
    4.5750   65.2890   63.1830 C   0  0  0  0  0  0  0  0  0  0  0  0
    3.9670   63.8890   65.1150 C   0  0  0  0  0  0  0  0  0  0  0  0
    3.3040   63.0910   64.4740 O   0  0  0  0  0  0  0  0  0  0  0  0
    4.5850   65.0070   64.5960 N   0  0  0  0  0  0  0  0  0  0  0  0
    3.4030   62.8690   67.2480 N   0  0  0  0  0  0  0  0  0  0  0  0
    4.1630   63.6960   66.6010 C   0  0  0  0  0  0  0  0  0  0  0  0
    3.7910   62.8780   68.5940 O   0  0  0  0  0  0  0  0  0  0  0  0
    1.6443   68.3867   63.3330 H   0  0  0  0  0  0  0  0  0  0  0  0
    3.6707   68.6766   62.1099 H   0  0  0  0  0  0  0  0  0  0  0  0
    3.2790   70.1681   63.0505 H   0  0  0  0  0  0  0  0  0  0  0  0
    5.3061   67.9977   63.7342 H   0  0  0  0  0  0  0  0  0  0  0  0
    5.5977   69.7535   63.3521 H   0  0  0  0  0  0  0  0  0  0  0  0
    1.9096   70.0814   65.0415 H   0  0  0  0  0  0  0  0  0  0  0  0
    2.6168   69.8902   67.8445 H   0  0  0  0  0  0  0  0  0  0  0  0
    6.9805   69.6343   65.4517 H   0  0  0  0  0  0  0  0  0  0  0  0
    2.5456   67.6269   67.5372 H   0  0  0  0  0  0  0  0  0  0  0  0
    0.7537   66.5938   68.9200 H   0  0  0  0  0  0  0  0  0  0  0  0
   -1.6332   66.7999   68.2350 H   0  0  0  0  0  0  0  0  0  0  0  0
   -2.2297   68.0313   66.1528 H   0  0  0  0  0  0  0  0  0  0  0  0
   -0.4472   69.0693   64.7595 H   0  0  0  0  0  0  0  0  0  0  0  0
    7.2473   71.7149   69.6299 H   0  0  0  0  0  0  0  0  0  0  0  0
    8.1944   72.1177   68.1577 H   0  0  0  0  0  0  0  0  0  0  0  0
    6.4086   72.3113   68.1577 H   0  0  0  0  0  0  0  0  0  0  0  0
    3.7491   71.1640   70.9613 H   0  0  0  0  0  0  0  0  0  0  0  0
    3.7078   72.2430   69.5257 H   0  0  0  0  0  0  0  0  0  0  0  0
    2.7687   70.7117   69.5257 H   0  0  0  0  0  0  0  0  0  0  0  0
    3.3516   66.6708   64.8989 H   0  0  0  0  0  0  0  0  0  0  0  0
    1.7431   66.3914   64.0723 H   0  0  0  0  0  0  0  0  0  0  0  0
    2.6964   65.6738   62.2157 H   0  0  0  0  0  0  0  0  0  0  0  0
    3.8833   67.0608   62.2222 H   0  0  0  0  0  0  0  0  0  0  0  0
    4.4512   64.3447   62.6326 H   0  0  0  0  0  0  0  0  0  0  0  0
    5.5272   65.7757   62.9254 H   0  0  0  0  0  0  0  0  0  0  0  0
    5.0658   65.6568   65.2343 H   0  0  0  0  0  0  0  0  0  0  0  0
    4.9477   64.2552   67.1316 H   0  0  0  0  0  0  0  0  0  0  0  0
    3.3205   62.3034   69.2486 H   0  0  0  0  0  0  0  0  0  0  0  0
  2  1  1  0
  3  2  1  0
  4  3  1  0
  5  4  2  0
  6  5  1  0
  6  1  1  0
  7  5  1  0
  8  7  2  0
  9  8  1  0
 10  9  2  0
 10  4  1  0
 11  6  1  0
 12 11  2  0
 13 12  1  0
 14 13  2  0
 15 14  1  0
 16 11  1  0
 16 15  2  0
 17  9  1  0
 18 17  1  0
 19  8  1  0
 20 19  1  0
 21  1  1  0
 22 21  1  0
 23 22  1  0
 25 24  2  0
 26 24  1  0
 26 23  1  0
 28 27  2  0
 28 24  1  0
 29 27  1  0
  1 30  1  6
  2 31  1  0
  2 32  1  0
  3 33  1  0
  3 34  1  0
  6 35  1  6
  7 36  1  0
 10 37  1  0
 12 38  1  0
 13 39  1  0
 14 40  1  0
 15 41  1  0
 16 42  1  0
 18 43  1  0
 18 44  1  0
 18 45  1  0
 20 46  1  0
 20 47  1  0
 20 48  1  0
 21 49  1  0
 21 50  1  0
 22 51  1  0
 22 52  1  0
 23 53  1  0
 23 54  1  0
 26 55  1  0
 28 56  1  0
 29 57  1  0
M  CHG  1   1   1
M  END
>  <score>  (4) 
-7.938

$$$$
=
     RDKit          3D

 57 59  0  0  0  0  0  0  0  0999 V2000
    0.5330   62.6440   73.2730 N   0  0  2  0  0  4  0  0  0  0  0  0
   -0.8060   62.0980   73.7160 C   0  0  0  0  0  0  0  0  0  0  0  0
   -0.6280   60.8140   74.5220 C   0  0  0  0  0  0  0  0  0  0  0  0
    0.2660   59.8130   73.8310 C   0  0  0  0  0  0  0  0  0  0  0  0
    1.1280   60.1930   72.7830 C   0  0  0  0  0  0  0  0  0  0  0  0
    1.1630   61.6380   72.2830 C   0  0  2  0  0  0  0  0  0  0  0  0
    1.8720   59.1870   72.1300 C   0  0  0  0  0  0  0  0  0  0  0  0
    1.8360   57.8570   72.5610 C   0  0  0  0  0  0  0  0  0  0  0  0
    1.0170   57.4990   73.6460 C   0  0  0  0  0  0  0  0  0  0  0  0
    0.2370   58.4770   74.2680 C   0  0  0  0  0  0  0  0  0  0  0  0
    2.4860   62.1540   71.7260 C   0  0  0  0  0  0  0  0  0  0  0  0
    2.4810   63.2340   70.8220 C   0  0  0  0  0  0  0  0  0  0  0  0
    3.6770   63.7530   70.3260 C   0  0  0  0  0  0  0  0  0  0  0  0
    4.8950   63.2090   70.7270 C   0  0  0  0  0  0  0  0  0  0  0  0
    4.9200   62.1440   71.6230 C   0  0  0  0  0  0  0  0  0  0  0  0
    3.7260   61.6210   72.1220 C   0  0  0  0  0  0  0  0  0  0  0  0
    1.0430   56.1780   74.0090 O   0  0  0  0  0  0  0  0  0  0  0  0
   -0.1860   55.4660   74.0500 C   0  0  0  0  0  0  0  0  0  0  0  0
    2.5500   56.8370   71.9850 O   0  0  0  0  0  0  0  0  0  0  0  0
    3.3300   57.1250   70.8340 C   0  0  0  0  0  0  0  0  0  0  0  0
    1.4660   63.0740   74.3920 C   0  0  0  0  0  0  0  0  0  0  0  0
    0.8880   64.1590   75.2970 C   0  0  0  0  0  0  0  0  0  0  0  0
    1.1220   63.8960   76.7840 C   0  0  0  0  0  0  0  0  0  0  0  0
    2.5680   64.6320   78.6350 C   0  0  0  0  0  0  0  0  0  0  0  0
    2.0600   63.9070   79.4730 O   0  0  0  0  0  0  0  0  0  0  0  0
    2.1630   64.7350   77.3210 N   0  0  0  0  0  0  0  0  0  0  0  0
    4.8280   64.9840   79.4590 N   0  0  0  0  0  0  0  0  0  0  0  0
    3.7380   65.5160   79.0020 C   0  0  0  0  0  0  0  0  0  0  0  0
    5.7440   66.0120   79.7160 O   0  0  0  0  0  0  0  0  0  0  0  0
    0.3652   63.5405   72.7944 H   0  0  0  0  0  0  0  0  0  0  0  0
   -1.3127   62.8485   74.3405 H   0  0  0  0  0  0  0  0  0  0  0  0
   -1.4080   61.8733   72.8232 H   0  0  0  0  0  0  0  0  0  0  0  0
   -0.1849   61.0683   75.4961 H   0  0  0  0  0  0  0  0  0  0  0  0
   -1.6198   60.3519   74.6351 H   0  0  0  0  0  0  0  0  0  0  0  0
    0.5183   61.5725   71.3941 H   0  0  0  0  0  0  0  0  0  0  0  0
    2.4938   59.4549   71.2631 H   0  0  0  0  0  0  0  0  0  0  0  0
   -0.4098   58.1975   75.1127 H   0  0  0  0  0  0  0  0  0  0  0  0
    1.5239   63.6729   70.5037 H   0  0  0  0  0  0  0  0  0  0  0  0
    3.6582   64.5936   69.6167 H   0  0  0  0  0  0  0  0  0  0  0  0
    5.8369   63.6209   70.3357 H   0  0  0  0  0  0  0  0  0  0  0  0
    5.8821   61.7140   71.9382 H   0  0  0  0  0  0  0  0  0  0  0  0
    3.7551   60.7823   72.8332 H   0  0  0  0  0  0  0  0  0  0  0  0
   -0.4772   55.2973   75.0972 H   0  0  0  0  0  0  0  0  0  0  0  0
   -0.9663   56.0519   73.5423 H   0  0  0  0  0  0  0  0  0  0  0  0
   -0.0659   54.4976   73.5423 H   0  0  0  0  0  0  0  0  0  0  0  0
    4.3201   57.4906   71.1441 H   0  0  0  0  0  0  0  0  0  0  0  0
    3.4482   56.2112   70.2331 H   0  0  0  0  0  0  0  0  0  0  0  0
    2.8260   57.8963   70.2331 H   0  0  0  0  0  0  0  0  0  0  0  0
    1.6947   62.1932   75.0099 H   0  0  0  0  0  0  0  0  0  0  0  0
    2.3613   63.4995   73.9153 H   0  0  0  0  0  0  0  0  0  0  0  0
    1.3571   65.1187   75.0344 H   0  0  0  0  0  0  0  0  0  0  0  0
   -0.2001   64.1708   75.1362 H   0  0  0  0  0  0  0  0  0  0  0  0
    0.1884   64.0935   77.3312 H   0  0  0  0  0  0  0  0  0  0  0  0
    1.4355   62.8480   76.8995 H   0  0  0  0  0  0  0  0  0  0  0  0
    2.6156   65.4285   76.7085 H   0  0  0  0  0  0  0  0  0  0  0  0
    3.6646   66.6069   78.8816 H   0  0  0  0  0  0  0  0  0  0  0  0
    6.6419   65.7970   80.0732 H   0  0  0  0  0  0  0  0  0  0  0  0
  2  1  1  0
  3  2  1  0
  4  3  1  0
  5  4  2  0
  6  5  1  0
  6  1  1  0
  7  5  1  0
  8  7  2  0
  9  8  1  0
 10  9  2  0
 10  4  1  0
 11  6  1  0
 12 11  2  0
 13 12  1  0
 14 13  2  0
 15 14  1  0
 16 11  1  0
 16 15  2  0
 17  9  1  0
 18 17  1  0
 19  8  1  0
 20 19  1  0
 21  1  1  0
 22 21  1  0
 23 22  1  0
 25 24  2  0
 26 24  1  0
 26 23  1  0
 28 27  2  0
 28 24  1  0
 29 27  1  0
  1 30  1  6
  2 31  1  0
  2 32  1  0
  3 33  1  0
  3 34  1  0
  6 35  1  6
  7 36  1  0
 10 37  1  0
 12 38  1  0
 13 39  1  0
 14 40  1  0
 15 41  1  0
 16 42  1  0
 18 43  1  0
 18 44  1  0
 18 45  1  0
 20 46  1  0
 20 47  1  0
 20 48  1  0
 21 49  1  0
 21 50  1  0
 22 51  1  0
 22 52  1  0
 23 53  1  0
 23 54  1  0
 26 55  1  0
 28 56  1  0
 29 57  1  0
M  CHG  1   1   1
M  END
>  <score>  (5) 
-7.888

$$$$
=
     RDKit          3D

 57 59  0  0  0  0  0  0  0  0999 V2000
    1.1200   68.1850   64.0490 N   0  0  2  0  0  4  0  0  0  0  0  0
    1.9820   68.9960   63.1080 C   0  0  0  0  0  0  0  0  0  0  0  0
    3.4510   68.9140   63.5110 C   0  0  0  0  0  0  0  0  0  0  0  0
    3.6690   69.2040   64.9770 C   0  0  0  0  0  0  0  0  0  0  0  0
    2.6090   69.1550   65.9050 C   0  0  0  0  0  0  0  0  0  0  0  0
    1.1840   68.8370   65.4490 C   0  0  2  0  0  0  0  0  0  0  0  0
    2.8720   69.5190   67.2420 C   0  0  0  0  0  0  0  0  0  0  0  0
    4.1660   69.8330   67.6710 C   0  0  0  0  0  0  0  0  0  0  0  0
    5.2270   69.8210   66.7500 C   0  0  0  0  0  0  0  0  0  0  0  0
    4.9700   69.5110   65.4120 C   0  0  0  0  0  0  0  0  0  0  0  0
    0.2740   68.1220   66.4420 C   0  0  0  0  0  0  0  0  0  0  0  0
    0.8410   67.4780   67.5580 C   0  0  0  0  0  0  0  0  0  0  0  0
    0.0320   66.8490   68.5050 C   0  0  0  0  0  0  0  0  0  0  0  0
   -1.3530   66.8580   68.3580 C   0  0  0  0  0  0  0  0  0  0  0  0
   -1.9320   67.4940   67.2630 C   0  0  0  0  0  0  0  0  0  0  0  0
   -1.1270   68.1240   66.3130 C   0  0  0  0  0  0  0  0  0  0  0  0
    6.4630   70.1350   67.2520 O   0  0  0  0  0  0  0  0  0  0  0  0
    6.7950   71.5060   67.4190 C   0  0  0  0  0  0  0  0  0  0  0  0
    4.4930   70.1730   68.9590 O   0  0  0  0  0  0  0  0  0  0  0  0
    3.8070   71.2590   69.5670 C   0  0  0  0  0  0  0  0  0  0  0  0
    1.3860   66.6890   64.0540 C   0  0  0  0  0  0  0  0  0  0  0  0
    2.8490   66.3220   64.2930 C   0  0  0  0  0  0  0  0  0  0  0  0
    3.0350   65.2440   65.3610 C   0  0  0  0  0  0  0  0  0  0  0  0
    4.6620   64.2240   63.8200 C   0  0  0  0  0  0  0  0  0  0  0  0
    4.8870   65.2470   63.1970 O   0  0  0  0  0  0  0  0  0  0  0  0
    3.7560   64.1050   64.8530 N   0  0  0  0  0  0  0  0  0  0  0  0
    5.3450   62.4730   62.2780 N   0  0  0  0  0  0  0  0  0  0  0  0
    5.4000   62.9490   63.4820 C   0  0  0  0  0  0  0  0  0  0  0  0
    6.1070   61.2990   62.2350 O   0  0  0  0  0  0  0  0  0  0  0  0
    0.1528   68.2174   63.6965 H   0  0  0  0  0  0  0  0  0  0  0  0
    1.8662   68.6055   62.0862 H   0  0  0  0  0  0  0  0  0  0  0  0
    1.6620   70.0474   63.1552 H   0  0  0  0  0  0  0  0  0  0  0  0
    3.8197   67.9006   63.2939 H   0  0  0  0  0  0  0  0  0  0  0  0
    3.9968   69.6766   62.9362 H   0  0  0  0  0  0  0  0  0  0  0  0
    0.7504   69.8459   65.3846 H   0  0  0  0  0  0  0  0  0  0  0  0
    2.0419   69.5568   67.9628 H   0  0  0  0  0  0  0  0  0  0  0  0
    5.7982   69.5071   64.6881 H   0  0  0  0  0  0  0  0  0  0  0  0
    1.9336   67.4706   67.6849 H   0  0  0  0  0  0  0  0  0  0  0  0
    0.4890   66.3450   69.3694 H   0  0  0  0  0  0  0  0  0  0  0  0
   -1.9891   66.3629   69.1065 H   0  0  0  0  0  0  0  0  0  0  0  0
   -3.0258   67.4999   67.1466 H   0  0  0  0  0  0  0  0  0  0  0  0
   -1.5932   68.6279   65.4535 H   0  0  0  0  0  0  0  0  0  0  0  0
    6.8520   71.7414   68.4920 H   0  0  0  0  0  0  0  0  0  0  0  0
    7.7680   71.7078   66.9472 H   0  0  0  0  0  0  0  0  0  0  0  0
    6.0221   72.1305   66.9472 H   0  0  0  0  0  0  0  0  0  0  0  0
    3.8670   71.1641   70.6613 H   0  0  0  0  0  0  0  0  0  0  0  0
    4.2709   72.2064   69.2552 H   0  0  0  0  0  0  0  0  0  0  0  0
    2.7522   71.2471   69.2552 H   0  0  0  0  0  0  0  0  0  0  0  0
    0.7797   66.2320   64.8499 H   0  0  0  0  0  0  0  0  0  0  0  0
    1.1217   66.3141   63.0542 H   0  0  0  0  0  0  0  0  0  0  0  0
    3.2757   65.9547   63.3480 H   0  0  0  0  0  0  0  0  0  0  0  0
    3.3579   67.2285   64.6527 H   0  0  0  0  0  0  0  0  0  0  0  0
    3.5954   65.6723   66.2051 H   0  0  0  0  0  0  0  0  0  0  0  0
    2.0387   64.9032   65.6793 H   0  0  0  0  0  0  0  0  0  0  0  0
    3.5908   63.1786   65.2717 H   0  0  0  0  0  0  0  0  0  0  0  0
    5.9820   62.4268   64.2557 H   0  0  0  0  0  0  0  0  0  0  0  0
    6.1841   60.7896   61.3896 H   0  0  0  0  0  0  0  0  0  0  0  0
  2  1  1  0
  3  2  1  0
  4  3  1  0
  5  4  2  0
  6  5  1  0
  6  1  1  0
  7  5  1  0
  8  7  2  0
  9  8  1  0
 10  9  2  0
 10  4  1  0
 11  6  1  0
 12 11  2  0
 13 12  1  0
 14 13  2  0
 15 14  1  0
 16 11  1  0
 16 15  2  0
 17  9  1  0
 18 17  1  0
 19  8  1  0
 20 19  1  0
 21  1  1  0
 22 21  1  0
 23 22  1  0
 25 24  2  0
 26 24  1  0
 26 23  1  0
 28 27  2  0
 28 24  1  0
 29 27  1  0
  1 30  1  6
  2 31  1  0
  2 32  1  0
  3 33  1  0
  3 34  1  0
  6 35  1  6
  7 36  1  0
 10 37  1  0
 12 38  1  0
 13 39  1  0
 14 40  1  0
 15 41  1  0
 16 42  1  0
 18 43  1  0
 18 44  1  0
 18 45  1  0
 20 46  1  0
 20 47  1  0
 20 48  1  0
 21 49  1  0
 21 50  1  0
 22 51  1  0
 22 52  1  0
 23 53  1  0
 23 54  1  0
 26 55  1  0
 28 56  1  0
 29 57  1  0
M  CHG  1   1   1
M  END
>  <score>  (6) 
-7.731

$$$$
=
     RDKit          3D

 57 59  0  0  0  0  0  0  0  0999 V2000
    0.5760   62.5880   72.8400 N   0  0  2  0  0  4  0  0  0  0  0  0
   -0.7860   62.0390   73.2040 C   0  0  0  0  0  0  0  0  0  0  0  0
   -0.6520   60.7880   74.0670 C   0  0  0  0  0  0  0  0  0  0  0  0
    0.3020   59.7750   73.4800 C   0  0  0  0  0  0  0  0  0  0  0  0
    1.2330   60.1290   72.4840 C   0  0  0  0  0  0  0  0  0  0  0  0
    1.2880   61.5560   71.9350 C   0  0  2  0  0  0  0  0  0  0  0  0
    2.0340   59.1120   71.9240 C   0  0  0  0  0  0  0  0  0  0  0  0
    1.9820   57.7970   72.4000 C   0  0  0  0  0  0  0  0  0  0  0  0
    1.0900   57.4670   73.4340 C   0  0  0  0  0  0  0  0  0  0  0  0
    0.2560   58.4550   73.9630 C   0  0  0  0  0  0  0  0  0  0  0  0
    2.6420   62.0710   71.4570 C   0  0  0  0  0  0  0  0  0  0  0  0
    2.6930   63.0190   70.4180 C   0  0  0  0  0  0  0  0  0  0  0  0
    3.9140   63.5380   69.9860 C   0  0  0  0  0  0  0  0  0  0  0  0
    5.1010   63.1240   70.5860 C   0  0  0  0  0  0  0  0  0  0  0  0
    5.0700   62.1900   71.6180 C   0  0  0  0  0  0  0  0  0  0  0  0
    3.8510   61.6680   72.0540 C   0  0  0  0  0  0  0  0  0  0  0  0
    1.1050   56.1600   73.8460 O   0  0  0  0  0  0  0  0  0  0  0  0
    1.7550   55.8460   75.0700 C   0  0  0  0  0  0  0  0  0  0  0  0
    2.7480   56.7680   71.9150 O   0  0  0  0  0  0  0  0  0  0  0  0
    3.4420   56.9600   70.6900 C   0  0  0  0  0  0  0  0  0  0  0  0
    1.4200   63.0700   74.0070 C   0  0  0  0  0  0  0  0  0  0  0  0
    0.6030   63.5690   75.1970 C   0  0  0  0  0  0  0  0  0  0  0  0
    0.9260   62.8410   76.5010 C   0  0  0  0  0  0  0  0  0  0  0  0
    1.9590   60.7160   77.1930 C   0  0  0  0  0  0  0  0  0  0  0  0
    1.3600   60.6370   78.2520 O   0  0  0  0  0  0  0  0  0  0  0  0
    1.8540   61.7590   76.2960 N   0  0  0  0  0  0  0  0  0  0  0  0
    3.3130   59.5560   75.5420 N   0  0  0  0  0  0  0  0  0  0  0  0
    2.9090   59.6190   76.7710 C   0  0  0  0  0  0  0  0  0  0  0  0
    4.1760   58.4590   75.4190 O   0  0  0  0  0  0  0  0  0  0  0  0
    0.4334   63.4649   72.3188 H   0  0  0  0  0  0  0  0  0  0  0  0
   -1.3460   62.8039   73.7620 H   0  0  0  0  0  0  0  0  0  0  0  0
   -1.3185   61.7741   72.2787 H   0  0  0  0  0  0  0  0  0  0  0  0
   -0.2840   61.0836   75.0606 H   0  0  0  0  0  0  0  0  0  0  0  0
   -1.6439   60.3161   74.1247 H   0  0  0  0  0  0  0  0  0  0  0  0
    0.7110   61.4494   71.0046 H   0  0  0  0  0  0  0  0  0  0  0  0
    2.7142   59.3578   71.0952 H   0  0  0  0  0  0  0  0  0  0  0  0
   -0.4468   58.1968   74.7689 H   0  0  0  0  0  0  0  0  0  0  0  0
    1.7601   63.3544   69.9413 H   0  0  0  0  0  0  0  0  0  0  0  0
    3.9393   64.2754   69.1702 H   0  0  0  0  0  0  0  0  0  0  0  0
    6.0625   63.5349   70.2445 H   0  0  0  0  0  0  0  0  0  0  0  0
    6.0078   61.8628   72.0907 H   0  0  0  0  0  0  0  0  0  0  0  0
    3.8352   60.9338   72.8730 H   0  0  0  0  0  0  0  0  0  0  0  0
    1.1183   56.1536   75.9127 H   0  0  0  0  0  0  0  0  0  0  0  0
    1.9342   54.7620   75.1224 H   0  0  0  0  0  0  0  0  0  0  0  0
    2.7156   56.3794   75.1224 H   0  0  0  0  0  0  0  0  0  0  0  0
    4.4828   57.2479   70.8994 H   0  0  0  0  0  0  0  0  0  0  0  0
    3.4297   56.0247   70.1111 H   0  0  0  0  0  0  0  0  0  0  0  0
    2.9507   57.7560   70.1111 H   0  0  0  0  0  0  0  0  0  0  0  0
    2.0513   62.2354   74.3459 H   0  0  0  0  0  0  0  0  0  0  0  0
    2.0093   63.9247   73.6434 H   0  0  0  0  0  0  0  0  0  0  0  0
    0.8076   64.6409   75.3358 H   0  0  0  0  0  0  0  0  0  0  0  0
   -0.4555   63.3746   74.9694 H   0  0  0  0  0  0  0  0  0  0  0  0
    1.3667   63.5583   77.2090 H   0  0  0  0  0  0  0  0  0  0  0  0
   -0.0093   62.4178   76.8960 H   0  0  0  0  0  0  0  0  0  0  0  0
    2.4542   61.7639   75.4590 H   0  0  0  0  0  0  0  0  0  0  0  0
    3.2561   58.8768   77.5049 H   0  0  0  0  0  0  0  0  0  0  0  0
    4.5882   58.2491   74.5437 H   0  0  0  0  0  0  0  0  0  0  0  0
  2  1  1  0
  3  2  1  0
  4  3  1  0
  5  4  2  0
  6  5  1  0
  6  1  1  0
  7  5  1  0
  8  7  2  0
  9  8  1  0
 10  9  2  0
 10  4  1  0
 11  6  1  0
 12 11  2  0
 13 12  1  0
 14 13  2  0
 15 14  1  0
 16 11  1  0
 16 15  2  0
 17  9  1  0
 18 17  1  0
 19  8  1  0
 20 19  1  0
 21  1  1  0
 22 21  1  0
 23 22  1  0
 25 24  2  0
 26 24  1  0
 26 23  1  0
 28 27  2  0
 28 24  1  0
 29 27  1  0
  1 30  1  6
  2 31  1  0
  2 32  1  0
  3 33  1  0
  3 34  1  0
  6 35  1  6
  7 36  1  0
 10 37  1  0
 12 38  1  0
 13 39  1  0
 14 40  1  0
 15 41  1  0
 16 42  1  0
 18 43  1  0
 18 44  1  0
 18 45  1  0
 20 46  1  0
 20 47  1  0
 20 48  1  0
 21 49  1  0
 21 50  1  0
 22 51  1  0
 22 52  1  0
 23 53  1  0
 23 54  1  0
 26 55  1  0
 28 56  1  0
 29 57  1  0
M  CHG  1   1   1
M  END
>  <score>  (7) 
-7.577

$$$$
=
     RDKit          3D

 57 59  0  0  0  0  0  0  0  0999 V2000
    4.1700   68.1820   64.6050 N   0  0  2  0  0  4  0  0  0  0  0  0
    4.4140   67.7700   63.1700 C   0  0  0  0  0  0  0  0  0  0  0  0
    3.6180   68.6490   62.2110 C   0  0  0  0  0  0  0  0  0  0  0  0
    2.1630   68.7630   62.5980 C   0  0  0  0  0  0  0  0  0  0  0  0
    1.7140   68.4270   63.8900 C   0  0  0  0  0  0  0  0  0  0  0  0
    2.6890   67.9000   64.9450 C   0  0  2  0  0  0  0  0  0  0  0  0
    0.3290   68.4780   64.1530 C   0  0  0  0  0  0  0  0  0  0  0  0
   -0.5790   68.9380   63.1930 C   0  0  0  0  0  0  0  0  0  0  0  0
   -0.1130   69.3270   61.9250 C   0  0  0  0  0  0  0  0  0  0  0  0
    1.2500   69.2320   61.6360 C   0  0  0  0  0  0  0  0  0  0  0  0
    2.3790   68.2160   66.4040 C   0  0  0  0  0  0  0  0  0  0  0  0
    1.5650   67.3370   67.1440 C   0  0  0  0  0  0  0  0  0  0  0  0
    1.2970   67.5790   68.4920 C   0  0  0  0  0  0  0  0  0  0  0  0
    1.8390   68.6950   69.1240 C   0  0  0  0  0  0  0  0  0  0  0  0
    2.6500   69.5730   68.4090 C   0  0  0  0  0  0  0  0  0  0  0  0
    2.9220   69.3360   67.0610 C   0  0  0  0  0  0  0  0  0  0  0  0
   -1.0660   69.7700   61.0450 O   0  0  0  0  0  0  0  0  0  0  0  0
   -0.6570   70.1210   59.7300 C   0  0  0  0  0  0  0  0  0  0  0  0
   -1.9330   69.0340   63.3920 O   0  0  0  0  0  0  0  0  0  0  0  0
   -2.4270   68.9720   64.7220 C   0  0  0  0  0  0  0  0  0  0  0  0
    4.6300   69.5840   64.9690 C   0  0  0  0  0  0  0  0  0  0  0  0
    6.1420   69.7810   64.8820 C   0  0  0  0  0  0  0  0  0  0  0  0
    6.6570   70.9140   65.7690 C   0  0  0  0  0  0  0  0  0  0  0  0
    6.3050   71.3690   68.1630 C   0  0  0  0  0  0  0  0  0  0  0  0
    5.9280   72.5180   68.0070 O   0  0  0  0  0  0  0  0  0  0  0  0
    6.7200   70.5240   67.1540 N   0  0  0  0  0  0  0  0  0  0  0  0
    7.4580   70.7550   70.2130 N   0  0  0  0  0  0  0  0  0  0  0  0
    6.3460   70.7620   69.5460 C   0  0  0  0  0  0  0  0  0  0  0  0
    7.2240   70.1420   71.4500 O   0  0  0  0  0  0  0  0  0  0  0  0
    4.7776   67.6072   65.2061 H   0  0  0  0  0  0  0  0  0  0  0  0
    5.4860   67.8685   62.9439 H   0  0  0  0  0  0  0  0  0  0  0  0
    4.0900   66.7265   63.0430 H   0  0  0  0  0  0  0  0  0  0  0  0
    4.0610   69.6558   62.2062 H   0  0  0  0  0  0  0  0  0  0  0  0
    3.6620   68.1810   61.2165 H   0  0  0  0  0  0  0  0  0  0  0  0
    2.5151   66.8161   64.8749 H   0  0  0  0  0  0  0  0  0  0  0  0
   -0.0451   68.1491   65.1337 H   0  0  0  0  0  0  0  0  0  0  0  0
    1.6150   69.5283   60.6415 H   0  0  0  0  0  0  0  0  0  0  0  0
    1.1359   66.4503   66.6544 H   0  0  0  0  0  0  0  0  0  0  0  0
    0.6558   66.8862   69.0568 H   0  0  0  0  0  0  0  0  0  0  0  0
    1.6269   68.8830   70.1869 H   0  0  0  0  0  0  0  0  0  0  0  0
    3.0771   70.4553   68.9081 H   0  0  0  0  0  0  0  0  0  0  0  0
    3.5679   70.0321   66.5058 H   0  0  0  0  0  0  0  0  0  0  0  0
    0.1767   70.8365   59.7840 H   0  0  0  0  0  0  0  0  0  0  0  0
   -0.3307   69.2175   59.1941 H   0  0  0  0  0  0  0  0  0  0  0  0
   -1.5005   70.5807   59.1941 H   0  0  0  0  0  0  0  0  0  0  0  0
   -1.5908   69.0769   65.4290 H   0  0  0  0  0  0  0  0  0  0  0  0
   -3.1482   69.7867   64.8836 H   0  0  0  0  0  0  0  0  0  0  0  0
   -2.9246   68.0044   64.8836 H   0  0  0  0  0  0  0  0  0  0  0  0
    4.1479   70.2958   64.2828 H   0  0  0  0  0  0  0  0  0  0  0  0
    4.3460   69.7510   66.0185 H   0  0  0  0  0  0  0  0  0  0  0  0
    6.6339   68.8463   65.1891 H   0  0  0  0  0  0  0  0  0  0  0  0
    6.3757   70.0505   63.8414 H   0  0  0  0  0  0  0  0  0  0  0  0
    7.6651   71.1986   65.4333 H   0  0  0  0  0  0  0  0  0  0  0  0
    5.9580   71.7590   65.6837 H   0  0  0  0  0  0  0  0  0  0  0  0
    7.0837   69.5916   67.3973 H   0  0  0  0  0  0  0  0  0  0  0  0
    5.4359   70.3276   69.9854 H   0  0  0  0  0  0  0  0  0  0  0  0
    7.9628   70.0443   72.1017 H   0  0  0  0  0  0  0  0  0  0  0  0
  2  1  1  0
  3  2  1  0
  4  3  1  0
  5  4  2  0
  6  5  1  0
  6  1  1  0
  7  5  1  0
  8  7  2  0
  9  8  1  0
 10  9  2  0
 10  4  1  0
 11  6  1  0
 12 11  2  0
 13 12  1  0
 14 13  2  0
 15 14  1  0
 16 11  1  0
 16 15  2  0
 17  9  1  0
 18 17  1  0
 19  8  1  0
 20 19  1  0
 21  1  1  0
 22 21  1  0
 23 22  1  0
 25 24  2  0
 26 24  1  0
 26 23  1  0
 28 27  2  0
 28 24  1  0
 29 27  1  0
  1 30  1  1
  2 31  1  0
  2 32  1  0
  3 33  1  0
  3 34  1  0
  6 35  1  1
  7 36  1  0
 10 37  1  0
 12 38  1  0
 13 39  1  0
 14 40  1  0
 15 41  1  0
 16 42  1  0
 18 43  1  0
 18 44  1  0
 18 45  1  0
 20 46  1  0
 20 47  1  0
 20 48  1  0
 21 49  1  0
 21 50  1  0
 22 51  1  0
 22 52  1  0
 23 53  1  0
 23 54  1  0
 26 55  1  0
 28 56  1  0
 29 57  1  0
M  CHG  1   1   1
M  END
>  <score>  (8) 
-7.536

$$$$
=
     RDKit          3D

 57 59  0  0  0  0  0  0  0  0999 V2000
    0.2830   62.5850   72.8000 N   0  0  2  0  0  4  0  0  0  0  0  0
   -1.0660   61.9870   73.1310 C   0  0  0  0  0  0  0  0  0  0  0  0
   -0.9110   60.7590   74.0230 C   0  0  0  0  0  0  0  0  0  0  0  0
    0.1020   59.7760   73.4880 C   0  0  0  0  0  0  0  0  0  0  0  0
    1.0520   60.1490   72.5160 C   0  0  0  0  0  0  0  0  0  0  0  0
    1.0670   61.5670   71.9400 C   0  0  2  0  0  0  0  0  0  0  0  0
    1.9110   59.1560   72.0030 C   0  0  0  0  0  0  0  0  0  0  0  0
    1.8970   57.8490   72.5030 C   0  0  0  0  0  0  0  0  0  0  0  0
    0.9850   57.5020   73.5150 C   0  0  0  0  0  0  0  0  0  0  0  0
    0.0940   58.4640   73.9950 C   0  0  0  0  0  0  0  0  0  0  0  0
    2.4140   62.1280   71.4960 C   0  0  0  0  0  0  0  0  0  0  0  0
    3.5880   61.6990   72.1430 C   0  0  0  0  0  0  0  0  0  0  0  0
    4.8380   62.1640   71.7330 C   0  0  0  0  0  0  0  0  0  0  0  0
    4.9370   63.0570   70.6690 C   0  0  0  0  0  0  0  0  0  0  0  0
    3.7870   63.4890   70.0140 C   0  0  0  0  0  0  0  0  0  0  0  0
    2.5340   63.0270   70.4210 C   0  0  0  0  0  0  0  0  0  0  0  0
    1.0390   56.2040   73.9530 O   0  0  0  0  0  0  0  0  0  0  0  0
   -0.1650   55.4520   73.9810 C   0  0  0  0  0  0  0  0  0  0  0  0
    2.7200   56.8440   72.0640 O   0  0  0  0  0  0  0  0  0  0  0  0
    3.4070   57.0200   70.8340 C   0  0  0  0  0  0  0  0  0  0  0  0
    1.0670   63.1240   73.9850 C   0  0  0  0  0  0  0  0  0  0  0  0
    0.4410   64.3570   74.6320 C   0  0  0  0  0  0  0  0  0  0  0  0
   -0.1530   64.0810   76.0130 C   0  0  0  0  0  0  0  0  0  0  0  0
   -2.5240   63.8030   76.6120 C   0  0  0  0  0  0  0  0  0  0  0  0
   -2.4310   62.6230   76.9040 O   0  0  0  0  0  0  0  0  0  0  0  0
   -1.4960   64.5860   76.1310 N   0  0  0  0  0  0  0  0  0  0  0  0
   -4.3500   64.6960   77.9440 N   0  0  0  0  0  0  0  0  0  0  0  0
   -3.8440   64.5230   76.7630 C   0  0  0  0  0  0  0  0  0  0  0  0
   -5.5630   65.3840   77.8050 O   0  0  0  0  0  0  0  0  0  0  0  0
    0.1220   63.4447   72.2560 H   0  0  0  0  0  0  0  0  0  0  0  0
   -1.6747   62.7386   73.6549 H   0  0  0  0  0  0  0  0  0  0  0  0
   -1.5557   61.6824   72.1943 H   0  0  0  0  0  0  0  0  0  0  0  0
   -0.5890   61.0879   75.0221 H   0  0  0  0  0  0  0  0  0  0  0  0
   -1.8845   60.2479   74.0578 H   0  0  0  0  0  0  0  0  0  0  0  0
    0.5264   61.4197   70.9934 H   0  0  0  0  0  0  0  0  0  0  0  0
    2.6077   59.4141   71.1918 H   0  0  0  0  0  0  0  0  0  0  0  0
   -0.6251   58.1917   74.7816 H   0  0  0  0  0  0  0  0  0  0  0  0
    3.5194   60.9896   72.9808 H   0  0  0  0  0  0  0  0  0  0  0  0
    5.7470   61.8246   72.2512 H   0  0  0  0  0  0  0  0  0  0  0  0
    5.9236   63.4209   70.3462 H   0  0  0  0  0  0  0  0  0  0  0  0
    3.8657   64.1954   69.1745 H   0  0  0  0  0  0  0  0  0  0  0  0
    1.6307   63.3698   69.8952 H   0  0  0  0  0  0  0  0  0  0  0  0
   -0.4586   55.2686   75.0251 H   0  0  0  0  0  0  0  0  0  0  0  0
   -0.9604   56.0141   73.4698 H   0  0  0  0  0  0  0  0  0  0  0  0
   -0.0088   54.4906   73.4698 H   0  0  0  0  0  0  0  0  0  0  0  0
    4.4548   57.2884   71.0344 H   0  0  0  0  0  0  0  0  0  0  0  0
    3.3721   56.0839   70.2573 H   0  0  0  0  0  0  0  0  0  0  0  0
    2.9264   57.8240   70.2573 H   0  0  0  0  0  0  0  0  0  0  0  0
    1.1352   62.3313   74.7446 H   0  0  0  0  0  0  0  0  0  0  0  0
    2.0525   63.4294   73.6034 H   0  0  0  0  0  0  0  0  0  0  0  0
    1.2174   65.1295   74.7342 H   0  0  0  0  0  0  0  0  0  0  0  0
   -0.3847   64.6816   73.9818 H   0  0  0  0  0  0  0  0  0  0  0  0
   -0.1654   62.9944   76.1840 H   0  0  0  0  0  0  0  0  0  0  0  0
    0.4705   64.5932   76.7606 H   0  0  0  0  0  0  0  0  0  0  0  0
   -1.6939   65.5567   75.8490 H   0  0  0  0  0  0  0  0  0  0  0  0
   -4.3732   64.8986   75.8748 H   0  0  0  0  0  0  0  0  0  0  0  0
   -6.0992   65.6088   78.6063 H   0  0  0  0  0  0  0  0  0  0  0  0
  2  1  1  0
  3  2  1  0
  4  3  1  0
  5  4  2  0
  6  5  1  0
  6  1  1  0
  7  5  1  0
  8  7  2  0
  9  8  1  0
 10  9  2  0
 10  4  1  0
 11  6  1  0
 12 11  2  0
 13 12  1  0
 14 13  2  0
 15 14  1  0
 16 11  1  0
 16 15  2  0
 17  9  1  0
 18 17  1  0
 19  8  1  0
 20 19  1  0
 21  1  1  0
 22 21  1  0
 23 22  1  0
 25 24  2  0
 26 24  1  0
 26 23  1  0
 28 27  2  0
 28 24  1  0
 29 27  1  0
  1 30  1  6
  2 31  1  0
  2 32  1  0
  3 33  1  0
  3 34  1  0
  6 35  1  6
  7 36  1  0
 10 37  1  0
 12 38  1  0
 13 39  1  0
 14 40  1  0
 15 41  1  0
 16 42  1  0
 18 43  1  0
 18 44  1  0
 18 45  1  0
 20 46  1  0
 20 47  1  0
 20 48  1  0
 21 49  1  0
 21 50  1  0
 22 51  1  0
 22 52  1  0
 23 53  1  0
 23 54  1  0
 26 55  1  0
 28 56  1  0
 29 57  1  0
M  CHG  1   1   1
M  END
>  <score>  (9) 
-7.336

$$$$
