=
     RDKit          3D

 30 31  0  0  0  0  0  0  0  0999 V2000
    1.3020   68.2550   64.0030 O   0  0  0  0  0  0  0  0  0  0  0  0
    1.6330   68.6330   65.1190 C   0  0  0  0  0  0  0  0  0  0  0  0
    0.8890   68.7050   66.2770 N   0  0  0  0  0  0  0  0  0  0  0  0
   -0.4590   68.3570   66.4620 C   0  0  0  0  0  0  0  0  0  0  0  0
   -1.5210   68.9900   65.8120 C   0  0  0  0  0  0  0  0  0  0  0  0
   -2.8370   68.5850   66.0490 C   0  0  0  0  0  0  0  0  0  0  0  0
   -3.1030   67.5450   66.9380 C   0  0  0  0  0  0  0  0  0  0  0  0
   -2.0510   66.9070   67.5900 C   0  0  0  0  0  0  0  0  0  0  0  0
   -0.7350   67.3130   67.3520 C   0  0  0  0  0  0  0  0  0  0  0  0
    3.0850   69.1110   65.3350 C   0  0  0  0  0  0  0  0  0  0  0  0
    3.8340   69.1560   64.3680 O   0  0  0  0  0  0  0  0  0  0  0  0
    3.3310   69.4350   66.6510 N   0  0  0  0  0  0  0  0  0  0  0  0
    4.5280   69.9020   67.2170 C   0  0  0  0  0  0  0  0  0  0  0  0
    4.4660   70.4060   68.5220 C   0  0  0  0  0  0  0  0  0  0  0  0
    5.6140   70.8900   69.1540 C   0  0  0  0  0  0  0  0  0  0  0  0
    6.8360   70.8730   68.4860 C   0  0  0  0  0  0  0  0  0  0  0  0
    6.9060   70.3730   67.1870 C   0  0  0  0  0  0  0  0  0  0  0  0
    5.7570   69.8890   66.5550 C   0  0  0  0  0  0  0  0  0  0  0  0
    1.3826   69.0576   67.1095 H   0  0  0  0  0  0  0  0  0  0  0  0
   -1.3201   69.8122   65.1094 H   0  0  0  0  0  0  0  0  0  0  0  0
   -3.6667   69.0891   65.5318 H   0  0  0  0  0  0  0  0  0  0  0  0
   -4.1402   67.2294   67.1239 H   0  0  0  0  0  0  0  0  0  0  0  0
   -2.2554   66.0846   68.2914 H   0  0  0  0  0  0  0  0  0  0  0  0
    0.0927   66.8064   67.8699 H   0  0  0  0  0  0  0  0  0  0  0  0
    2.5392   69.3206   67.2998 H   0  0  0  0  0  0  0  0  0  0  0  0
    3.5038   70.4210   69.0548 H   0  0  0  0  0  0  0  0  0  0  0  0
    5.5528   71.2845   70.1790 H   0  0  0  0  0  0  0  0  0  0  0  0
    7.7418   71.2525   68.9815 H   0  0  0  0  0  0  0  0  0  0  0  0
    7.8697   70.3592   66.6567 H   0  0  0  0  0  0  0  0  0  0  0  0
    5.8216   69.4955   65.5298 H   0  0  0  0  0  0  0  0  0  0  0  0
  2  1  2  0
  3  2  1  0
  4  3  1  0
  5  4  2  0
  6  5  1  0
  7  6  2  0
  8  7  1  0
  9  8  2  0
  9  4  1  0
 10  2  1  0
 11 10  2  0
 12 10  1  0
 13 12  1  0
 14 13  2  0
 15 14  1  0
 16 15  2  0
 17 16  1  0
 18 13  1  0
 18 17  2  0
  3 19  1  0
  5 20  1  0
  6 21  1  0
  7 22  1  0
  8 23  1  0
  9 24  1  0
 12 25  1  0
 14 26  1  0
 15 27  1  0
 16 28  1  0
 17 29  1  0
 18 30  1  0
M  END
>  <score>  (1) 
-9.194

$$$$
=
     RDKit          3D

 30 31  0  0  0  0  0  0  0  0999 V2000
    3.9750   69.1000   64.4240 O   0  0  0  0  0  0  0  0  0  0  0  0
    3.2160   69.0860   65.3840 C   0  0  0  0  0  0  0  0  0  0  0  0
    3.4500   69.4460   66.6940 N   0  0  0  0  0  0  0  0  0  0  0  0
    4.6430   69.9260   67.2580 C   0  0  0  0  0  0  0  0  0  0  0  0
    5.8800   69.8830   66.6120 C   0  0  0  0  0  0  0  0  0  0  0  0
    7.0240   70.3820   67.2420 C   0  0  0  0  0  0  0  0  0  0  0  0
    6.9410   70.9270   68.5220 C   0  0  0  0  0  0  0  0  0  0  0  0
    5.7110   70.9740   69.1730 C   0  0  0  0  0  0  0  0  0  0  0  0
    4.5680   70.4760   68.5440 C   0  0  0  0  0  0  0  0  0  0  0  0
    1.7640   68.6070   65.1680 C   0  0  0  0  0  0  0  0  0  0  0  0
    1.4450   68.1960   64.0600 O   0  0  0  0  0  0  0  0  0  0  0  0
    1.0080   68.7190   66.3130 N   0  0  0  0  0  0  0  0  0  0  0  0
   -0.3440   68.3830   66.4940 C   0  0  0  0  0  0  0  0  0  0  0  0
   -0.6280   67.2960   67.3300 C   0  0  0  0  0  0  0  0  0  0  0  0
   -1.9490   66.9010   67.5590 C   0  0  0  0  0  0  0  0  0  0  0  0
   -2.9960   67.5910   66.9540 C   0  0  0  0  0  0  0  0  0  0  0  0
   -2.7220   68.6730   66.1210 C   0  0  0  0  0  0  0  0  0  0  0  0
   -1.4000   69.0690   65.8920 C   0  0  0  0  0  0  0  0  0  0  0  0
    2.6518   69.3513   67.3381 H   0  0  0  0  0  0  0  0  0  0  0  0
    5.9549   69.4542   65.6018 H   0  0  0  0  0  0  0  0  0  0  0  0
    7.9942   70.3443   66.7250 H   0  0  0  0  0  0  0  0  0  0  0  0
    7.8428   71.3182   69.0156 H   0  0  0  0  0  0  0  0  0  0  0  0
    5.6397   71.4036   70.1831 H   0  0  0  0  0  0  0  0  0  0  0  0
    3.5993   70.5160   69.0636 H   0  0  0  0  0  0  0  0  0  0  0  0
    1.4938   69.0958   67.1394 H   0  0  0  0  0  0  0  0  0  0  0  0
    0.1959   66.7482   67.8107 H   0  0  0  0  0  0  0  0  0  0  0  0
   -2.1613   66.0454   68.2169 H   0  0  0  0  0  0  0  0  0  0  0  0
   -4.0365   67.2825   67.1334 H   0  0  0  0  0  0  0  0  0  0  0  0
   -3.5482   69.2182   65.6413 H   0  0  0  0  0  0  0  0  0  0  0  0
   -1.1916   69.9255   65.2340 H   0  0  0  0  0  0  0  0  0  0  0  0
  2  1  2  0
  3  2  1  0
  4  3  1  0
  5  4  2  0
  6  5  1  0
  7  6  2  0
  8  7  1  0
  9  8  2  0
  9  4  1  0
 10  2  1  0
 11 10  2  0
 12 10  1  0
 13 12  1  0
 14 13  2  0
 15 14  1  0
 16 15  2  0
 17 16  1  0
 18 13  1  0
 18 17  2  0
  3 19  1  0
  5 20  1  0
  6 21  1  0
  7 22  1  0
  8 23  1  0
  9 24  1  0
 12 25  1  0
 14 26  1  0
 15 27  1  0
 16 28  1  0
 17 29  1  0
 18 30  1  0
M  END
>  <score>  (2) 
-9.146

$$$$
=
     RDKit          3D

 30 31  0  0  0  0  0  0  0  0999 V2000
   -0.3270   66.2110   71.3310 O   0  0  0  0  0  0  0  0  0  0  0  0
    0.4040   65.6550   70.5230 C   0  0  0  0  0  0  0  0  0  0  0  0
    0.6450   65.9610   69.2010 N   0  0  0  0  0  0  0  0  0  0  0  0
    0.0970   67.0080   68.4420 C   0  0  0  0  0  0  0  0  0  0  0  0
    0.7820   68.1840   68.1330 C   0  0  0  0  0  0  0  0  0  0  0  0
    0.1650   69.1820   67.3710 C   0  0  0  0  0  0  0  0  0  0  0  0
   -1.1390   69.0110   66.9140 C   0  0  0  0  0  0  0  0  0  0  0  0
   -1.8300   67.8400   67.2170 C   0  0  0  0  0  0  0  0  0  0  0  0
   -1.2140   66.8440   67.9780 C   0  0  0  0  0  0  0  0  0  0  0  0
    1.2080   64.4210   70.9860 C   0  0  0  0  0  0  0  0  0  0  0  0
    0.9610   63.9420   72.0840 O   0  0  0  0  0  0  0  0  0  0  0  0
    2.1310   64.0230   70.0430 N   0  0  0  0  0  0  0  0  0  0  0  0
    3.0330   62.9490   70.1150 C   0  0  0  0  0  0  0  0  0  0  0  0
    4.1710   63.1190   70.9130 C   0  0  0  0  0  0  0  0  0  0  0  0
    5.1150   62.0970   71.0350 C   0  0  0  0  0  0  0  0  0  0  0  0
    4.9290   60.8940   70.3580 C   0  0  0  0  0  0  0  0  0  0  0  0
    3.8000   60.7170   69.5610 C   0  0  0  0  0  0  0  0  0  0  0  0
    2.8550   61.7400   69.4400 C   0  0  0  0  0  0  0  0  0  0  0  0
    1.3088   65.3461   68.7090 H   0  0  0  0  0  0  0  0  0  0  0  0
    1.8124   68.3270   68.4904 H   0  0  0  0  0  0  0  0  0  0  0  0
    0.7124   70.1057   67.1319 H   0  0  0  0  0  0  0  0  0  0  0  0
   -1.6219   69.7978   66.3158 H   0  0  0  0  0  0  0  0  0  0  0  0
   -2.8600   67.6999   66.8572 H   0  0  0  0  0  0  0  0  0  0  0  0
   -1.7642   65.9215   68.2153 H   0  0  0  0  0  0  0  0  0  0  0  0
    2.1632   64.5824   69.1787 H   0  0  0  0  0  0  0  0  0  0  0  0
    4.3230   64.0673   71.4493 H   0  0  0  0  0  0  0  0  0  0  0  0
    6.0048   62.2420   71.6653 H   0  0  0  0  0  0  0  0  0  0  0  0
    5.6705   60.0870   70.4522 H   0  0  0  0  0  0  0  0  0  0  0  0
    3.6516   59.7682   69.0246 H   0  0  0  0  0  0  0  0  0  0  0  0
    1.9661   61.5915   68.8093 H   0  0  0  0  0  0  0  0  0  0  0  0
  2  1  2  0
  3  2  1  0
  4  3  1  0
  5  4  2  0
  6  5  1  0
  7  6  2  0
  8  7  1  0
  9  8  2  0
  9  4  1  0
 10  2  1  0
 11 10  2  0
 12 10  1  0
 13 12  1  0
 14 13  2  0
 15 14  1  0
 16 15  2  0
 17 16  1  0
 18 13  1  0
 18 17  2  0
  3 19  1  0
  5 20  1  0
  6 21  1  0
  7 22  1  0
  8 23  1  0
  9 24  1  0
 12 25  1  0
 14 26  1  0
 15 27  1  0
 16 28  1  0
 17 29  1  0
 18 30  1  0
M  END
>  <score>  (3) 
-8.555

$$$$
=
     RDKit          3D

 30 31  0  0  0  0  0  0  0  0999 V2000
    0.9340   63.8920   72.0500 O   0  0  0  0  0  0  0  0  0  0  0  0
    1.2270   64.3940   70.9740 C   0  0  0  0  0  0  0  0  0  0  0  0
    2.1720   64.0030   70.0500 N   0  0  0  0  0  0  0  0  0  0  0  0
    3.0500   62.9090   70.1220 C   0  0  0  0  0  0  0  0  0  0  0  0
    2.8470   61.7050   69.4450 C   0  0  0  0  0  0  0  0  0  0  0  0
    3.7690   60.6610   69.5680 C   0  0  0  0  0  0  0  0  0  0  0  0
    4.8990   60.8130   70.3690 C   0  0  0  0  0  0  0  0  0  0  0  0
    5.1100   62.0100   71.0470 C   0  0  0  0  0  0  0  0  0  0  0  0
    4.1880   63.0540   70.9240 C   0  0  0  0  0  0  0  0  0  0  0  0
    0.4620   65.6560   70.5190 C   0  0  0  0  0  0  0  0  0  0  0  0
   -0.2660   66.2200   71.3250 O   0  0  0  0  0  0  0  0  0  0  0  0
    0.7280   65.9750   69.2050 N   0  0  0  0  0  0  0  0  0  0  0  0
    0.2180   67.0460   68.4540 C   0  0  0  0  0  0  0  0  0  0  0  0
   -1.1070   66.9450   68.0120 C   0  0  0  0  0  0  0  0  0  0  0  0
   -1.6860   67.9700   67.2590 C   0  0  0  0  0  0  0  0  0  0  0  0
   -0.9440   69.1050   66.9420 C   0  0  0  0  0  0  0  0  0  0  0  0
    0.3750   69.2130   67.3780 C   0  0  0  0  0  0  0  0  0  0  0  0
    0.9540   68.1880   68.1310 C   0  0  0  0  0  0  0  0  0  0  0  0
    2.2431   64.5844   69.2027 H   0  0  0  0  0  0  0  0  0  0  0  0
    1.9569   61.5770   68.8114 H   0  0  0  0  0  0  0  0  0  0  0  0
    3.6016   59.7161   69.0304 H   0  0  0  0  0  0  0  0  0  0  0  0
    5.6220   59.9896   70.4652 H   0  0  0  0  0  0  0  0  0  0  0  0
    6.0015   62.1347   71.6792 H   0  0  0  0  0  0  0  0  0  0  0  0
    4.3585   63.9979   71.4624 H   0  0  0  0  0  0  0  0  0  0  0  0
    1.3822   65.3501   68.7127 H   0  0  0  0  0  0  0  0  0  0  0  0
   -1.6974   66.0506   68.2598 H   0  0  0  0  0  0  0  0  0  0  0  0
   -2.7276   67.8803   66.9168 H   0  0  0  0  0  0  0  0  0  0  0  0
   -1.3975   69.9133   66.3496 H   0  0  0  0  0  0  0  0  0  0  0  0
    0.9629   70.1086   67.1285 H   0  0  0  0  0  0  0  0  0  0  0  0
    1.9958   68.2813   68.4714 H   0  0  0  0  0  0  0  0  0  0  0  0
  2  1  2  0
  3  2  1  0
  4  3  1  0
  5  4  2  0
  6  5  1  0
  7  6  2  0
  8  7  1  0
  9  8  2  0
  9  4  1  0
 10  2  1  0
 11 10  2  0
 12 10  1  0
 13 12  1  0
 14 13  2  0
 15 14  1  0
 16 15  2  0
 17 16  1  0
 18 13  1  0
 18 17  2  0
  3 19  1  0
  5 20  1  0
  6 21  1  0
  7 22  1  0
  8 23  1  0
  9 24  1  0
 12 25  1  0
 14 26  1  0
 15 27  1  0
 16 28  1  0
 17 29  1  0
 18 30  1  0
M  END
>  <score>  (4) 
-8.524

$$$$
=
     RDKit          3D

 30 31  0  0  0  0  0  0  0  0999 V2000
   -0.1440   68.7410   66.9250 O   0  0  0  0  0  0  0  0  0  0  0  0
    0.5190   67.7580   67.2280 C   0  0  0  0  0  0  0  0  0  0  0  0
    1.7030   67.2990   66.6930 N   0  0  0  0  0  0  0  0  0  0  0  0
    2.4530   67.8590   65.6470 C   0  0  0  0  0  0  0  0  0  0  0  0
    2.3080   67.4970   64.3060 C   0  0  0  0  0  0  0  0  0  0  0  0
    3.0940   68.1030   63.3210 C   0  0  0  0  0  0  0  0  0  0  0  0
    4.0310   69.0740   63.6690 C   0  0  0  0  0  0  0  0  0  0  0  0
    4.1830   69.4410   65.0030 C   0  0  0  0  0  0  0  0  0  0  0  0
    3.3970   68.8360   65.9870 C   0  0  0  0  0  0  0  0  0  0  0  0
    0.0130   66.8520   68.3720 C   0  0  0  0  0  0  0  0  0  0  0  0
   -1.1900   66.6510   68.4680 O   0  0  0  0  0  0  0  0  0  0  0  0
    1.0450   66.3820   69.1530 N   0  0  0  0  0  0  0  0  0  0  0  0
    0.9680   65.5410   70.2750 C   0  0  0  0  0  0  0  0  0  0  0  0
    1.8770   64.4780   70.3430 C   0  0  0  0  0  0  0  0  0  0  0  0
    1.8630   63.5970   71.4270 C   0  0  0  0  0  0  0  0  0  0  0  0
    0.9390   63.7730   72.4540 C   0  0  0  0  0  0  0  0  0  0  0  0
    0.0310   64.8280   72.3940 C   0  0  0  0  0  0  0  0  0  0  0  0
    0.0450   65.7090   71.3090 C   0  0  0  0  0  0  0  0  0  0  0  0
    2.0847   66.4391   67.1123 H   0  0  0  0  0  0  0  0  0  0  0  0
    1.5713   66.7308   64.0230 H   0  0  0  0  0  0  0  0  0  0  0  0
    2.9722   67.8121   62.2672 H   0  0  0  0  0  0  0  0  0  0  0  0
    4.6483   69.5488   62.8922 H   0  0  0  0  0  0  0  0  0  0  0  0
    4.9215   70.2069   65.2824 H   0  0  0  0  0  0  0  0  0  0  0  0
    3.5209   69.1301   67.0397 H   0  0  0  0  0  0  0  0  0  0  0  0
    1.9910   66.6849   68.8804 H   0  0  0  0  0  0  0  0  0  0  0  0
    2.6094   64.3353   69.5348 H   0  0  0  0  0  0  0  0  0  0  0  0
    2.5812   62.7649   71.4694 H   0  0  0  0  0  0  0  0  0  0  0  0
    0.9261   63.0816   73.3094 H   0  0  0  0  0  0  0  0  0  0  0  0
   -0.7000   64.9682   73.2039 H   0  0  0  0  0  0  0  0  0  0  0  0
   -0.6753   66.5394   71.2695 H   0  0  0  0  0  0  0  0  0  0  0  0
  2  1  2  0
  3  2  1  0
  4  3  1  0
  5  4  2  0
  6  5  1  0
  7  6  2  0
  8  7  1  0
  9  8  2  0
  9  4  1  0
 10  2  1  0
 11 10  2  0
 12 10  1  0
 13 12  1  0
 14 13  2  0
 15 14  1  0
 16 15  2  0
 17 16  1  0
 18 13  1  0
 18 17  2  0
  3 19  1  0
  5 20  1  0
  6 21  1  0
  7 22  1  0
  8 23  1  0
  9 24  1  0
 12 25  1  0
 14 26  1  0
 15 27  1  0
 16 28  1  0
 17 29  1  0
 18 30  1  0
M  END
>  <score>  (5) 
-8.003

$$$$
=
     RDKit          3D

 30 31  0  0  0  0  0  0  0  0999 V2000
    1.9690   64.6450   69.9050 O   0  0  0  0  0  0  0  0  0  0  0  0
    0.8680   64.9150   70.3660 C   0  0  0  0  0  0  0  0  0  0  0  0
   -0.0410   65.8700   69.9650 N   0  0  0  0  0  0  0  0  0  0  0  0
    0.0780   66.7870   68.9080 C   0  0  0  0  0  0  0  0  0  0  0  0
    1.1830   67.6190   68.7230 C   0  0  0  0  0  0  0  0  0  0  0  0
    1.2260   68.5070   67.6440 C   0  0  0  0  0  0  0  0  0  0  0  0
    0.1650   68.5700   66.7430 C   0  0  0  0  0  0  0  0  0  0  0  0
   -0.9410   67.7430   66.9200 C   0  0  0  0  0  0  0  0  0  0  0  0
   -0.9840   66.8560   67.9980 C   0  0  0  0  0  0  0  0  0  0  0  0
    0.3580   64.1030   71.5760 C   0  0  0  0  0  0  0  0  0  0  0  0
   -0.0440   64.7120   72.5590 O   0  0  0  0  0  0  0  0  0  0  0  0
    0.4360   62.7460   71.3570 N   0  0  0  0  0  0  0  0  0  0  0  0
    0.0670   61.7060   72.2250 C   0  0  0  0  0  0  0  0  0  0  0  0
    1.0230   60.7170   72.4850 C   0  0  0  0  0  0  0  0  0  0  0  0
    0.7310   59.6500   73.3380 C   0  0  0  0  0  0  0  0  0  0  0  0
   -0.5220   59.5640   73.9400 C   0  0  0  0  0  0  0  0  0  0  0  0
   -1.4800   60.5430   73.6860 C   0  0  0  0  0  0  0  0  0  0  0  0
   -1.1870   61.6110   72.8320 C   0  0  0  0  0  0  0  0  0  0  0  0
   -0.9154   65.9170   70.5073 H   0  0  0  0  0  0  0  0  0  0  0  0
    2.0247   67.5759   69.4299 H   0  0  0  0  0  0  0  0  0  0  0  0
    2.1013   69.1588   67.5057 H   0  0  0  0  0  0  0  0  0  0  0  0
    0.2010   69.2702   65.8954 H   0  0  0  0  0  0  0  0  0  0  0  0
   -1.7808   67.7882   66.2110 H   0  0  0  0  0  0  0  0  0  0  0  0
   -1.8606   66.2054   68.1334 H   0  0  0  0  0  0  0  0  0  0  0  0
    0.8119   62.4578   70.4424 H   0  0  0  0  0  0  0  0  0  0  0  0
    2.0144   60.7807   72.0127 H   0  0  0  0  0  0  0  0  0  0  0  0
    1.4900   58.8784   73.5341 H   0  0  0  0  0  0  0  0  0  0  0  0
   -0.7543   58.7260   74.6136 H   0  0  0  0  0  0  0  0  0  0  0  0
   -2.4708   60.4757   74.1590 H   0  0  0  0  0  0  0  0  0  0  0  0
   -1.9486   62.3805   72.6373 H   0  0  0  0  0  0  0  0  0  0  0  0
  2  1  2  0
  3  2  1  0
  4  3  1  0
  5  4  2  0
  6  5  1  0
  7  6  2  0
  8  7  1  0
  9  8  2  0
  9  4  1  0
 10  2  1  0
 11 10  2  0
 12 10  1  0
 13 12  1  0
 14 13  2  0
 15 14  1  0
 16 15  2  0
 17 16  1  0
 18 13  1  0
 18 17  2  0
  3 19  1  0
  5 20  1  0
  6 21  1  0
  7 22  1  0
  8 23  1  0
  9 24  1  0
 12 25  1  0
 14 26  1  0
 15 27  1  0
 16 28  1  0
 17 29  1  0
 18 30  1  0
M  END
>  <score>  (6) 
-7.618

$$$$
=
     RDKit          3D

 30 31  0  0  0  0  0  0  0  0999 V2000
   -0.1350   66.1890   71.1750 O   0  0  0  0  0  0  0  0  0  0  0  0
    0.6070   65.7000   70.3330 C   0  0  0  0  0  0  0  0  0  0  0  0
    0.8160   66.0740   69.0230 N   0  0  0  0  0  0  0  0  0  0  0  0
    0.2130   67.1300   68.3200 C   0  0  0  0  0  0  0  0  0  0  0  0
    0.8540   68.3360   68.0310 C   0  0  0  0  0  0  0  0  0  0  0  0
    0.1850   69.3400   67.3250 C   0  0  0  0  0  0  0  0  0  0  0  0
   -1.1280   69.1460   66.9020 C   0  0  0  0  0  0  0  0  0  0  0  0
   -1.7750   67.9450   67.1840 C   0  0  0  0  0  0  0  0  0  0  0  0
   -1.1060   66.9420   67.8910 C   0  0  0  0  0  0  0  0  0  0  0  0
    1.4690   64.4810   70.7300 C   0  0  0  0  0  0  0  0  0  0  0  0
    2.6860   64.5780   70.6530 O   0  0  0  0  0  0  0  0  0  0  0  0
    0.6970   63.4140   71.1330 N   0  0  0  0  0  0  0  0  0  0  0  0
    1.1280   62.1480   71.5620 C   0  0  0  0  0  0  0  0  0  0  0  0
    0.3410   61.4920   72.5160 C   0  0  0  0  0  0  0  0  0  0  0  0
    0.7030   60.2290   72.9920 C   0  0  0  0  0  0  0  0  0  0  0  0
    1.8570   59.6120   72.5170 C   0  0  0  0  0  0  0  0  0  0  0  0
    2.6460   60.2580   71.5670 C   0  0  0  0  0  0  0  0  0  0  0  0
    2.2830   61.5210   71.0910 C   0  0  0  0  0  0  0  0  0  0  0  0
    1.4975   65.5103   68.4951 H   0  0  0  0  0  0  0  0  0  0  0  0
    1.8910   68.4971   68.3606 H   0  0  0  0  0  0  0  0  0  0  0  0
    0.6976   70.2875   67.1025 H   0  0  0  0  0  0  0  0  0  0  0  0
   -1.6520   69.9383   66.3473 H   0  0  0  0  0  0  0  0  0  0  0  0
   -2.8112   67.7862   66.8506 H   0  0  0  0  0  0  0  0  0  0  0  0
   -1.6211   65.9956   68.1125 H   0  0  0  0  0  0  0  0  0  0  0  0
   -0.3221   63.5628   71.1179 H   0  0  0  0  0  0  0  0  0  0  0  0
   -0.5715   61.9756   72.8947 H   0  0  0  0  0  0  0  0  0  0  0  0
    0.0767   59.7228   73.7413 H   0  0  0  0  0  0  0  0  0  0  0  0
    2.1451   58.6181   72.8902 H   0  0  0  0  0  0  0  0  0  0  0  0
    3.5581   59.7719   71.1903 H   0  0  0  0  0  0  0  0  0  0  0  0
    2.9110   62.0239   70.3409 H   0  0  0  0  0  0  0  0  0  0  0  0
  2  1  2  0
  3  2  1  0
  4  3  1  0
  5  4  2  0
  6  5  1  0
  7  6  2  0
  8  7  1  0
  9  8  2  0
  9  4  1  0
 10  2  1  0
 11 10  2  0
 12 10  1  0
 13 12  1  0
 14 13  2  0
 15 14  1  0
 16 15  2  0
 17 16  1  0
 18 13  1  0
 18 17  2  0
  3 19  1  0
  5 20  1  0
  6 21  1  0
  7 22  1  0
  8 23  1  0
  9 24  1  0
 12 25  1  0
 14 26  1  0
 15 27  1  0
 16 28  1  0
 17 29  1  0
 18 30  1  0
M  END
>  <score>  (7) 
-7.573

$$$$
=
     RDKit          3D

 30 31  0  0  0  0  0  0  0  0999 V2000
    1.4930   67.2150   69.8280 O   0  0  0  0  0  0  0  0  0  0  0  0
    0.7960   66.2280   69.6340 C   0  0  0  0  0  0  0  0  0  0  0  0
   -0.2700   66.0610   68.7760 N   0  0  0  0  0  0  0  0  0  0  0  0
   -0.8270   67.0030   67.8970 C   0  0  0  0  0  0  0  0  0  0  0  0
   -2.1990   67.1500   67.6850 C   0  0  0  0  0  0  0  0  0  0  0  0
   -2.6770   68.1140   66.7910 C   0  0  0  0  0  0  0  0  0  0  0  0
   -1.7870   68.9360   66.1030 C   0  0  0  0  0  0  0  0  0  0  0  0
   -0.4170   68.7960   66.3080 C   0  0  0  0  0  0  0  0  0  0  0  0
    0.0600   67.8330   67.2010 C   0  0  0  0  0  0  0  0  0  0  0  0
    1.1000   64.9440   70.4360 C   0  0  0  0  0  0  0  0  0  0  0  0
    2.0630   64.2660   70.1070 O   0  0  0  0  0  0  0  0  0  0  0  0
    0.1930   64.7450   71.4540 N   0  0  0  0  0  0  0  0  0  0  0  0
    0.1520   63.6910   72.3820 C   0  0  0  0  0  0  0  0  0  0  0  0
    0.5040   63.9880   73.7040 C   0  0  0  0  0  0  0  0  0  0  0  0
    0.4880   62.9940   74.6860 C   0  0  0  0  0  0  0  0  0  0  0  0
    0.1190   61.6930   74.3520 C   0  0  0  0  0  0  0  0  0  0  0  0
   -0.2320   61.3890   73.0380 C   0  0  0  0  0  0  0  0  0  0  0  0
   -0.2160   62.3850   72.0560 C   0  0  0  0  0  0  0  0  0  0  0  0
   -0.7121   65.1307   68.7805 H   0  0  0  0  0  0  0  0  0  0  0  0
   -2.9080   66.5043   68.2238 H   0  0  0  0  0  0  0  0  0  0  0  0
   -3.7597   68.2234   66.6306 H   0  0  0  0  0  0  0  0  0  0  0  0
   -2.1654   69.6930   65.4003 H   0  0  0  0  0  0  0  0  0  0  0  0
    0.2894   69.4431   65.7673 H   0  0  0  0  0  0  0  0  0  0  0  0
    1.1433   67.7259   67.3588 H   0  0  0  0  0  0  0  0  0  0  0  0
   -0.5460   65.4566   71.5459 H   0  0  0  0  0  0  0  0  0  0  0  0
    0.7961   65.0140   73.9724 H   0  0  0  0  0  0  0  0  0  0  0  0
    0.7665   63.2386   75.7217 H   0  0  0  0  0  0  0  0  0  0  0  0
    0.1047   60.9083   75.1227 H   0  0  0  0  0  0  0  0  0  0  0  0
   -0.5227   60.3620   72.7721 H   0  0  0  0  0  0  0  0  0  0  0  0
   -0.4950   62.1374   71.0212 H   0  0  0  0  0  0  0  0  0  0  0  0
  2  1  2  0
  3  2  1  0
  4  3  1  0
  5  4  2  0
  6  5  1  0
  7  6  2  0
  8  7  1  0
  9  8  2  0
  9  4  1  0
 10  2  1  0
 11 10  2  0
 12 10  1  0
 13 12  1  0
 14 13  2  0
 15 14  1  0
 16 15  2  0
 17 16  1  0
 18 13  1  0
 18 17  2  0
  3 19  1  0
  5 20  1  0
  6 21  1  0
  7 22  1  0
  8 23  1  0
  9 24  1  0
 12 25  1  0
 14 26  1  0
 15 27  1  0
 16 28  1  0
 17 29  1  0
 18 30  1  0
M  END
>  <score>  (8) 
-7.277

$$$$
=
     RDKit          3D

 30 31  0  0  0  0  0  0  0  0999 V2000
    1.7450   59.9950   72.7630 O   0  0  0  0  0  0  0  0  0  0  0  0
    2.3760   59.2540   72.0220 C   0  0  0  0  0  0  0  0  0  0  0  0
    3.2550   59.5680   71.0080 N   0  0  0  0  0  0  0  0  0  0  0  0
    3.6460   60.8420   70.5670 C   0  0  0  0  0  0  0  0  0  0  0  0
    3.1070   61.4760   69.4460 C   0  0  0  0  0  0  0  0  0  0  0  0
    3.5500   62.7480   69.0710 C   0  0  0  0  0  0  0  0  0  0  0  0
    4.5360   63.3950   69.8140 C   0  0  0  0  0  0  0  0  0  0  0  0
    5.0790   62.7710   70.9340 C   0  0  0  0  0  0  0  0  0  0  0  0
    4.6350   61.5000   71.3080 C   0  0  0  0  0  0  0  0  0  0  0  0
    2.2150   57.7280   72.1940 C   0  0  0  0  0  0  0  0  0  0  0  0
    2.7030   56.9900   71.3490 O   0  0  0  0  0  0  0  0  0  0  0  0
    1.5090   57.4090   73.3340 N   0  0  0  0  0  0  0  0  0  0  0  0
    1.1690   56.1340   73.8130 C   0  0  0  0  0  0  0  0  0  0  0  0
    2.1890   55.3790   74.4060 C   0  0  0  0  0  0  0  0  0  0  0  0
    1.9290   54.1000   74.9060 C   0  0  0  0  0  0  0  0  0  0  0  0
    0.6460   53.5660   74.8180 C   0  0  0  0  0  0  0  0  0  0  0  0
   -0.3740   54.3110   74.2300 C   0  0  0  0  0  0  0  0  0  0  0  0
   -0.1140   55.5900   73.7290 C   0  0  0  0  0  0  0  0  0  0  0  0
    3.6770   58.7695   70.5128 H   0  0  0  0  0  0  0  0  0  0  0  0
    2.3290   60.9717   68.8541 H   0  0  0  0  0  0  0  0  0  0  0  0
    3.1189   63.2398   68.1866 H   0  0  0  0  0  0  0  0  0  0  0  0
    4.8840   64.3952   69.5165 H   0  0  0  0  0  0  0  0  0  0  0  0
    5.8568   63.2781   71.5238 H   0  0  0  0  0  0  0  0  0  0  0  0
    5.0670   61.0113   72.1938 H   0  0  0  0  0  0  0  0  0  0  0  0
    1.1914   58.2050   73.9054 H   0  0  0  0  0  0  0  0  0  0  0  0
    3.2040   55.7966   74.4788 H   0  0  0  0  0  0  0  0  0  0  0  0
    2.7377   53.5154   75.3689 H   0  0  0  0  0  0  0  0  0  0  0  0
    0.4386   52.5598   75.2112 H   0  0  0  0  0  0  0  0  0  0  0  0
   -1.3882   53.8910   74.1597 H   0  0  0  0  0  0  0  0  0  0  0  0
   -0.9251   56.1711   73.2659 H   0  0  0  0  0  0  0  0  0  0  0  0
  2  1  2  0
  3  2  1  0
  4  3  1  0
  5  4  2  0
  6  5  1  0
  7  6  2  0
  8  7  1  0
  9  8  2  0
  9  4  1  0
 10  2  1  0
 11 10  2  0
 12 10  1  0
 13 12  1  0
 14 13  2  0
 15 14  1  0
 16 15  2  0
 17 16  1  0
 18 13  1  0
 18 17  2  0
  3 19  1  0
  5 20  1  0
  6 21  1  0
  7 22  1  0
  8 23  1  0
  9 24  1  0
 12 25  1  0
 14 26  1  0
 15 27  1  0
 16 28  1  0
 17 29  1  0
 18 30  1  0
M  END
>  <score>  (9) 
-7.188

$$$$
