=
     RDKit          3D

 55 57  0  0  0  0  0  0  0  0999 V2000
    0.2850   64.6800   71.2590 C   0  0  0  0  0  0  0  0  0  0  0  0
   -0.1640   65.3950   72.1520 O   0  0  0  0  0  0  0  0  0  0  0  0
    0.3520   65.1140   69.9520 N   0  0  0  0  0  0  0  0  0  0  0  0
    2.0910   62.8350   71.2690 C   0  0  0  0  0  0  0  0  0  0  0  0
    2.4440   61.5260   71.6390 C   0  0  0  0  0  0  0  0  0  0  0  0
    1.5250   60.6590   72.2480 C   0  0  0  0  0  0  0  0  0  0  0  0
    0.2540   61.1540   72.5700 C   0  0  0  0  0  0  0  0  0  0  0  0
   -0.1140   62.4520   72.2200 C   0  0  0  0  0  0  0  0  0  0  0  0
    0.7950   63.3030   71.5700 C   0  0  0  0  0  0  0  0  0  0  0  0
   -0.9020   60.1600   73.3840 Cl  0  0  0  0  0  0  0  0  0  0  0  0
    1.9710   59.4080   72.7090 N   0  0  0  0  0  0  0  0  0  0  0  0
    2.9520   63.7030   70.6450 O   0  0  0  0  0  0  0  0  0  0  0  0
    3.7030   62.8570   68.5000 C   0  0  0  0  0  0  0  0  0  0  0  0
    4.0810   63.1940   69.9310 C   0  0  0  0  0  0  0  0  0  0  0  0
   -0.1590   66.4080   69.5540 C   0  0  0  0  0  0  0  0  0  0  0  0
    0.4180   66.9050   68.2120 C   0  0  1  0  0  0  0  0  0  0  0  0
   -0.4780   66.6890   67.1030 O   0  0  0  0  0  0  0  0  0  0  0  0
   -1.4000   67.7640   66.9180 C   0  0  0  0  0  0  0  0  0  0  0  0
   -0.6680   69.0250   66.4350 C   0  0  0  0  0  0  0  0  0  0  0  0
    0.7630   69.0840   66.9810 N   0  0  1  0  0  4  0  0  0  0  0  0
    0.8370   68.3900   68.3310 C   0  0  0  0  0  0  0  0  0  0  0  0
    1.7910   68.5570   66.0000 C   0  0  0  0  0  0  0  0  0  0  0  0
    3.1630   69.1370   66.2310 C   0  0  0  0  0  0  0  0  0  0  0  0
    4.1390   69.0840   65.2210 C   0  0  0  0  0  0  0  0  0  0  0  0
    5.4150   69.6030   65.4440 C   0  0  0  0  0  0  0  0  0  0  0  0
    5.7190   70.1780   66.6710 C   0  0  0  0  0  0  0  0  0  0  0  0
    4.7680   70.2460   67.6820 C   0  0  0  0  0  0  0  0  0  0  0  0
    3.4900   69.7280   67.4640 C   0  0  0  0  0  0  0  0  0  0  0  0
    6.9440   70.6740   66.8830 F   0  0  0  0  0  0  0  0  0  0  0  0
    0.7765   64.5016   69.2409 H   0  0  0  0  0  0  0  0  0  0  0  0
    3.4675   61.1722   71.4460 H   0  0  0  0  0  0  0  0  0  0  0  0
   -1.1260   62.8134   72.4551 H   0  0  0  0  0  0  0  0  0  0  0  0
    1.3094   58.7591   73.1586 H   0  0  0  0  0  0  0  0  0  0  0  0
    2.9593   59.1404   72.5971 H   0  0  0  0  0  0  0  0  0  0  0  0
    2.8819   62.1250   68.5003 H   0  0  0  0  0  0  0  0  0  0  0  0
    3.3789   63.7713   67.9813 H   0  0  0  0  0  0  0  0  0  0  0  0
    4.5743   62.4305   67.9813 H   0  0  0  0  0  0  0  0  0  0  0  0
    4.4453   62.2850   70.4320 H   0  0  0  0  0  0  0  0  0  0  0  0
    4.8672   63.9632   69.9175 H   0  0  0  0  0  0  0  0  0  0  0  0
   -1.2526   66.3375   69.4592 H   0  0  0  0  0  0  0  0  0  0  0  0
    0.1442   67.1299   70.3266 H   0  0  0  0  0  0  0  0  0  0  0  0
    1.3123   66.3031   67.9929 H   0  0  0  0  0  0  0  0  0  0  0  0
   -2.1505   67.4720   66.1687 H   0  0  0  0  0  0  0  0  0  0  0  0
   -1.8881   67.9828   67.8792 H   0  0  0  0  0  0  0  0  0  0  0  0
   -0.6317   69.0189   65.3356 H   0  0  0  0  0  0  0  0  0  0  0  0
   -1.2155   69.9055   66.8023 H   0  0  0  0  0  0  0  0  0  0  0  0
    1.0061   70.0757   67.1165 H   0  0  0  0  0  0  0  0  0  0  0  0
    1.8691   68.4440   68.7076 H   0  0  0  0  0  0  0  0  0  0  0  0
    0.1483   68.8951   69.0242 H   0  0  0  0  0  0  0  0  0  0  0  0
    1.8487   67.4634   66.1037 H   0  0  0  0  0  0  0  0  0  0  0  0
    1.4700   68.8523   64.9902 H   0  0  0  0  0  0  0  0  0  0  0  0
    3.8955   68.6306   64.2488 H   0  0  0  0  0  0  0  0  0  0  0  0
    6.1765   69.5569   64.6516 H   0  0  0  0  0  0  0  0  0  0  0  0
    5.0208   70.7055   68.6489 H   0  0  0  0  0  0  0  0  0  0  0  0
    2.7345   69.7826   68.2616 H   0  0  0  0  0  0  0  0  0  0  0  0
  2  1  2  0
  3  1  1  0
  5  4  2  0
  6  5  1  0
  7  6  2  0
  8  7  1  0
  9  8  2  0
  9  4  1  0
  9  1  1  0
 10  7  1  0
 11  6  1  0
 12  4  1  0
 14 13  1  0
 14 12  1  0
 15  3  1  0
 16 15  1  0
 17 16  1  0
 18 17  1  0
 19 18  1  0
 20 19  1  0
 21 20  1  0
 21 16  1  0
 22 20  1  0
 23 22  1  0
 24 23  2  0
 25 24  1  0
 26 25  2  0
 27 26  1  0
 28 27  2  0
 28 23  1  0
 29 26  1  0
  3 30  1  0
  5 31  1  0
  8 32  1  0
 11 33  1  0
 11 34  1  0
 13 35  1  0
 13 36  1  0
 13 37  1  0
 14 38  1  0
 14 39  1  0
 15 40  1  0
 15 41  1  0
 16 42  1  6
 18 43  1  0
 18 44  1  0
 19 45  1  0
 19 46  1  0
 20 47  1  1
 21 48  1  0
 21 49  1  0
 22 50  1  0
 22 51  1  0
 24 52  1  0
 25 53  1  0
 27 54  1  0
 28 55  1  0
M  CHG  1  20   1
M  END
>  <score>  (1) 
-10.524

$$$$
=
     RDKit          3D

 55 57  0  0  0  0  0  0  0  0999 V2000
    0.9700   64.0810   70.3390 C   0  0  0  0  0  0  0  0  0  0  0  0
   -0.1450   63.7890   69.9140 O   0  0  0  0  0  0  0  0  0  0  0  0
    1.4360   65.3780   70.3110 N   0  0  0  0  0  0  0  0  0  0  0  0
    2.0430   62.7960   72.3050 C   0  0  0  0  0  0  0  0  0  0  0  0
    2.8920   61.7550   72.7160 C   0  0  0  0  0  0  0  0  0  0  0  0
    3.6050   60.9760   71.7910 C   0  0  0  0  0  0  0  0  0  0  0  0
    3.3840   61.1970   70.4250 C   0  0  0  0  0  0  0  0  0  0  0  0
    2.5390   62.2190   69.9950 C   0  0  0  0  0  0  0  0  0  0  0  0
    1.8610   63.0250   70.9250 C   0  0  0  0  0  0  0  0  0  0  0  0
    4.1770   60.2270   69.2340 Cl  0  0  0  0  0  0  0  0  0  0  0  0
    4.3390   59.8710   72.2540 N   0  0  0  0  0  0  0  0  0  0  0  0
    1.3520   63.5980   73.1790 O   0  0  0  0  0  0  0  0  0  0  0  0
    1.0820   64.3300   75.4750 C   0  0  0  0  0  0  0  0  0  0  0  0
    1.1150   63.1530   74.5170 C   0  0  0  0  0  0  0  0  0  0  0  0
    0.6640   66.4500   69.7220 C   0  0  0  0  0  0  0  0  0  0  0  0
    1.3550   67.1030   68.5060 C   0  0  1  0  0  0  0  0  0  0  0  0
    0.6890   66.8100   67.2610 O   0  0  0  0  0  0  0  0  0  0  0  0
   -0.3550   67.7370   66.9600 C   0  0  0  0  0  0  0  0  0  0  0  0
    0.2290   69.1210   66.6370 C   0  0  0  0  0  0  0  0  0  0  0  0
    1.5290   69.3710   67.4090 N   0  0  1  0  0  4  0  0  0  0  0  0
    1.5040   68.6260   68.7330 C   0  0  0  0  0  0  0  0  0  0  0  0
    2.7680   69.0640   66.5930 C   0  0  0  0  0  0  0  0  0  0  0  0
    4.0060   69.7210   67.1490 C   0  0  0  0  0  0  0  0  0  0  0  0
    3.9900   70.3040   68.4280 C   0  0  0  0  0  0  0  0  0  0  0  0
    5.1310   70.9310   68.9330 C   0  0  0  0  0  0  0  0  0  0  0  0
    6.2880   70.9740   68.1650 C   0  0  0  0  0  0  0  0  0  0  0  0
    6.3280   70.3990   66.9020 C   0  0  0  0  0  0  0  0  0  0  0  0
    5.1900   69.7710   66.3920 C   0  0  0  0  0  0  0  0  0  0  0  0
    7.3800   71.5760   68.6510 F   0  0  0  0  0  0  0  0  0  0  0  0
    2.3575   65.5891   70.7199 H   0  0  0  0  0  0  0  0  0  0  0  0
    3.0009   61.5448   73.7902 H   0  0  0  0  0  0  0  0  0  0  0  0
    2.4018   62.3960   68.9180 H   0  0  0  0  0  0  0  0  0  0  0  0
    4.8678   59.2888   71.5890 H   0  0  0  0  0  0  0  0  0  0  0  0
    4.3483   59.6432   73.2584 H   0  0  0  0  0  0  0  0  0  0  0  0
    1.0924   63.9600   76.5109 H   0  0  0  0  0  0  0  0  0  0  0  0
    1.9626   64.9666   75.3042 H   0  0  0  0  0  0  0  0  0  0  0  0
    0.1671   64.9163   75.3042 H   0  0  0  0  0  0  0  0  0  0  0  0
    1.9196   62.4655   74.8169 H   0  0  0  0  0  0  0  0  0  0  0  0
    0.1425   62.6402   74.5525 H   0  0  0  0  0  0  0  0  0  0  0  0
   -0.3053   66.0443   69.3966 H   0  0  0  0  0  0  0  0  0  0  0  0
    0.5502   67.2296   70.4897 H   0  0  0  0  0  0  0  0  0  0  0  0
    2.3584   66.6610   68.4182 H   0  0  0  0  0  0  0  0  0  0  0  0
   -0.9232   67.3725   66.0915 H   0  0  0  0  0  0  0  0  0  0  0  0
   -1.0148   67.8255   67.8357 H   0  0  0  0  0  0  0  0  0  0  0  0
    0.4360   69.1797   65.5582 H   0  0  0  0  0  0  0  0  0  0  0  0
   -0.5040   69.8852   66.9349 H   0  0  0  0  0  0  0  0  0  0  0  0
    1.5843   70.3796   67.6104 H   0  0  0  0  0  0  0  0  0  0  0  0
    2.4425   68.8196   69.2731 H   0  0  0  0  0  0  0  0  0  0  0  0
    0.6434   68.9800   69.3196 H   0  0  0  0  0  0  0  0  0  0  0  0
    2.9218   67.9749   66.5822 H   0  0  0  0  0  0  0  0  0  0  0  0
    2.6065   69.4610   65.5799 H   0  0  0  0  0  0  0  0  0  0  0  0
    3.0732   70.2661   69.0347 H   0  0  0  0  0  0  0  0  0  0  0  0
    5.1138   71.3883   69.9333 H   0  0  0  0  0  0  0  0  0  0  0  0
    7.2517   70.4380   66.3060 H   0  0  0  0  0  0  0  0  0  0  0  0
    5.2198   69.3128   65.3924 H   0  0  0  0  0  0  0  0  0  0  0  0
  2  1  2  0
  3  1  1  0
  5  4  2  0
  6  5  1  0
  7  6  2  0
  8  7  1  0
  9  8  2  0
  9  4  1  0
  9  1  1  0
 10  7  1  0
 11  6  1  0
 12  4  1  0
 14 13  1  0
 14 12  1  0
 15  3  1  0
 16 15  1  0
 17 16  1  0
 18 17  1  0
 19 18  1  0
 20 19  1  0
 21 20  1  0
 21 16  1  0
 22 20  1  0
 23 22  1  0
 24 23  2  0
 25 24  1  0
 26 25  2  0
 27 26  1  0
 28 27  2  0
 28 23  1  0
 29 26  1  0
  3 30  1  0
  5 31  1  0
  8 32  1  0
 11 33  1  0
 11 34  1  0
 13 35  1  0
 13 36  1  0
 13 37  1  0
 14 38  1  0
 14 39  1  0
 15 40  1  0
 15 41  1  0
 16 42  1  6
 18 43  1  0
 18 44  1  0
 19 45  1  0
 19 46  1  0
 20 47  1  1
 21 48  1  0
 21 49  1  0
 22 50  1  0
 22 51  1  0
 24 52  1  0
 25 53  1  0
 27 54  1  0
 28 55  1  0
M  CHG  1  20   1
M  END
>  <score>  (2) 
-9.87

$$$$
=
     RDKit          3D

 55 57  0  0  0  0  0  0  0  0999 V2000
    0.5550   64.3170   70.2590 C   0  0  0  0  0  0  0  0  0  0  0  0
   -0.4400   63.6990   69.8870 O   0  0  0  0  0  0  0  0  0  0  0  0
    0.6720   65.6770   70.0730 N   0  0  0  0  0  0  0  0  0  0  0  0
    1.5270   62.7280   72.0470 C   0  0  0  0  0  0  0  0  0  0  0  0
    2.6670   62.1060   72.5840 C   0  0  0  0  0  0  0  0  0  0  0  0
    3.9540   62.3740   72.0930 C   0  0  0  0  0  0  0  0  0  0  0  0
    4.0800   63.2170   70.9810 C   0  0  0  0  0  0  0  0  0  0  0  0
    2.9620   63.8380   70.4270 C   0  0  0  0  0  0  0  0  0  0  0  0
    1.6800   63.6010   70.9500 C   0  0  0  0  0  0  0  0  0  0  0  0
    5.6290   63.5330   70.2820 Cl  0  0  0  0  0  0  0  0  0  0  0  0
    5.0390   61.6280   72.5840 N   0  0  0  0  0  0  0  0  0  0  0  0
    0.2560   62.5150   72.5190 O   0  0  0  0  0  0  0  0  0  0  0  0
   -1.6360   61.1850   73.2490 C   0  0  0  0  0  0  0  0  0  0  0  0
   -0.2060   61.1800   72.7380 C   0  0  0  0  0  0  0  0  0  0  0  0
   -0.3420   66.4380   69.3760 C   0  0  0  0  0  0  0  0  0  0  0  0
    0.1160   66.9360   67.9890 C   0  0  1  0  0  0  0  0  0  0  0  0
   -0.8610   66.6910   66.9560 O   0  0  0  0  0  0  0  0  0  0  0  0
   -1.8180   67.7440   66.8370 C   0  0  0  0  0  0  0  0  0  0  0  0
   -1.1540   69.0170   66.2890 C   0  0  0  0  0  0  0  0  0  0  0  0
    0.3140   69.1100   66.7180 N   0  0  1  0  0  4  0  0  0  0  0  0
    0.5100   68.4310   68.0630 C   0  0  0  0  0  0  0  0  0  0  0  0
    1.2710   68.5970   65.6620 C   0  0  0  0  0  0  0  0  0  0  0  0
    2.6880   69.0610   65.8900 C   0  0  0  0  0  0  0  0  0  0  0  0
    3.6230   69.0370   64.8400 C   0  0  0  0  0  0  0  0  0  0  0  0
    4.9390   69.4480   65.0580 C   0  0  0  0  0  0  0  0  0  0  0  0
    5.3230   69.8840   66.3190 C   0  0  0  0  0  0  0  0  0  0  0  0
    4.4140   69.9210   67.3690 C   0  0  0  0  0  0  0  0  0  0  0  0
    3.0960   69.5120   67.1570 C   0  0  0  0  0  0  0  0  0  0  0  0
    6.5860   70.2760   66.5260 F   0  0  0  0  0  0  0  0  0  0  0  0
    1.5022   66.1643   70.4394 H   0  0  0  0  0  0  0  0  0  0  0  0
    2.5474   61.3904   73.4108 H   0  0  0  0  0  0  0  0  0  0  0  0
    3.0846   64.5198   69.5726 H   0  0  0  0  0  0  0  0  0  0  0  0
    5.9904   61.8116   72.2346 H   0  0  0  0  0  0  0  0  0  0  0  0
    4.8829   60.8976   73.2933 H   0  0  0  0  0  0  0  0  0  0  0  0
   -1.6323   61.1850   74.3490 H   0  0  0  0  0  0  0  0  0  0  0  0
   -2.1526   62.0850   72.8841 H   0  0  0  0  0  0  0  0  0  0  0  0
   -2.1589   60.2887   72.8841 H   0  0  0  0  0  0  0  0  0  0  0  0
    0.4414   60.6910   73.4808 H   0  0  0  0  0  0  0  0  0  0  0  0
   -0.1727   60.6329   71.7843 H   0  0  0  0  0  0  0  0  0  0  0  0
   -1.2280   65.7998   69.2430 H   0  0  0  0  0  0  0  0  0  0  0  0
   -0.5600   67.3269   69.9863 H   0  0  0  0  0  0  0  0  0  0  0  0
    1.0036   66.3519   67.7045 H   0  0  0  0  0  0  0  0  0  0  0  0
   -2.6185   67.4296   66.1512 H   0  0  0  0  0  0  0  0  0  0  0  0
   -2.2337   67.9604   67.8322 H   0  0  0  0  0  0  0  0  0  0  0  0
   -1.2057   69.0032   65.1903 H   0  0  0  0  0  0  0  0  0  0  0  0
   -1.6892   69.8887   66.6937 H   0  0  0  0  0  0  0  0  0  0  0  0
    0.5465   70.1075   66.8264 H   0  0  0  0  0  0  0  0  0  0  0  0
    1.5672   68.5108   68.3562 H   0  0  0  0  0  0  0  0  0  0  0  0
   -0.1327   68.9278   68.8047 H   0  0  0  0  0  0  0  0  0  0  0  0
    1.2538   67.4972   65.6752 H   0  0  0  0  0  0  0  0  0  0  0  0
    0.9415   68.9959   64.6913 H   0  0  0  0  0  0  0  0  0  0  0  0
    3.3157   68.6925   63.8416 H   0  0  0  0  0  0  0  0  0  0  0  0
    5.6683   69.4266   64.2348 H   0  0  0  0  0  0  0  0  0  0  0  0
    4.7311   70.2708   68.3625 H   0  0  0  0  0  0  0  0  0  0  0  0
    2.3734   69.5429   67.9858 H   0  0  0  0  0  0  0  0  0  0  0  0
  2  1  2  0
  3  1  1  0
  5  4  2  0
  6  5  1  0
  7  6  2  0
  8  7  1  0
  9  8  2  0
  9  4  1  0
  9  1  1  0
 10  7  1  0
 11  6  1  0
 12  4  1  0
 14 13  1  0
 14 12  1  0
 15  3  1  0
 16 15  1  0
 17 16  1  0
 18 17  1  0
 19 18  1  0
 20 19  1  0
 21 20  1  0
 21 16  1  0
 22 20  1  0
 23 22  1  0
 24 23  2  0
 25 24  1  0
 26 25  2  0
 27 26  1  0
 28 27  2  0
 28 23  1  0
 29 26  1  0
  3 30  1  0
  5 31  1  0
  8 32  1  0
 11 33  1  0
 11 34  1  0
 13 35  1  0
 13 36  1  0
 13 37  1  0
 14 38  1  0
 14 39  1  0
 15 40  1  0
 15 41  1  0
 16 42  1  6
 18 43  1  0
 18 44  1  0
 19 45  1  0
 19 46  1  0
 20 47  1  1
 21 48  1  0
 21 49  1  0
 22 50  1  0
 22 51  1  0
 24 52  1  0
 25 53  1  0
 27 54  1  0
 28 55  1  0
M  CHG  1  20   1
M  END
>  <score>  (3) 
-9.62

$$$$
=
     RDKit          3D

 55 57  0  0  0  0  0  0  0  0999 V2000
    1.6040   67.9960   68.0760 C   0  0  0  0  0  0  0  0  0  0  0  0
    1.9940   68.8880   68.8250 O   0  0  0  0  0  0  0  0  0  0  0  0
    1.0300   66.8420   68.5640 N   0  0  0  0  0  0  0  0  0  0  0  0
    0.7220   67.8130   65.6560 C   0  0  0  0  0  0  0  0  0  0  0  0
    0.9640   68.0260   64.2880 C   0  0  0  0  0  0  0  0  0  0  0  0
    2.1980   68.5070   63.8240 C   0  0  0  0  0  0  0  0  0  0  0  0
    3.1710   68.8630   64.7670 C   0  0  0  0  0  0  0  0  0  0  0  0
    2.9490   68.6680   66.1290 C   0  0  0  0  0  0  0  0  0  0  0  0
    1.7290   68.1450   66.5870 C   0  0  0  0  0  0  0  0  0  0  0  0
    4.6870   69.5270   64.2650 Cl  0  0  0  0  0  0  0  0  0  0  0  0
    2.3380   68.8180   62.4610 N   0  0  0  0  0  0  0  0  0  0  0  0
   -0.4600   67.3170   66.1470 O   0  0  0  0  0  0  0  0  0  0  0  0
   -2.5920   67.5570   67.2780 C   0  0  0  0  0  0  0  0  0  0  0  0
   -1.5670   68.1970   66.3580 C   0  0  0  0  0  0  0  0  0  0  0  0
    0.9140   66.5930   69.9840 C   0  0  0  0  0  0  0  0  0  0  0  0
    0.5480   65.1320   70.3200 C   0  0  1  0  0  0  0  0  0  0  0  0
    1.5190   64.1850   69.8270 O   0  0  0  0  0  0  0  0  0  0  0  0
    2.5880   63.9570   70.7460 C   0  0  0  0  0  0  0  0  0  0  0  0
    2.0800   63.2060   71.9870 C   0  0  0  0  0  0  0  0  0  0  0  0
    0.6210   63.5580   72.2940 N   0  0  1  0  0  4  0  0  0  0  0  0
    0.3180   64.9770   71.8420 C   0  0  0  0  0  0  0  0  0  0  0  0
   -0.3600   62.5470   71.7340 C   0  0  0  0  0  0  0  0  0  0  0  0
   -0.5830   61.3810   72.6640 C   0  0  0  0  0  0  0  0  0  0  0  0
    0.4180   60.4090   72.8390 C   0  0  0  0  0  0  0  0  0  0  0  0
    0.2020   59.3180   73.6840 C   0  0  0  0  0  0  0  0  0  0  0  0
   -1.0080   59.1980   74.3550 C   0  0  0  0  0  0  0  0  0  0  0  0
   -2.0080   60.1500   74.2010 C   0  0  0  0  0  0  0  0  0  0  0  0
   -1.7970   61.2420   73.3570 C   0  0  0  0  0  0  0  0  0  0  0  0
   -1.2130   58.1510   75.1630 F   0  0  0  0  0  0  0  0  0  0  0  0
    0.6745   66.1389   67.9005 H   0  0  0  0  0  0  0  0  0  0  0  0
    0.1658   67.8102   63.5625 H   0  0  0  0  0  0  0  0  0  0  0  0
    3.7368   68.9262   66.8519 H   0  0  0  0  0  0  0  0  0  0  0  0
    3.2366   69.1722   62.1032 H   0  0  0  0  0  0  0  0  0  0  0  0
    1.5420   68.6918   61.8196 H   0  0  0  0  0  0  0  0  0  0  0  0
   -2.3066   67.7352   68.3253 H   0  0  0  0  0  0  0  0  0  0  0  0
   -3.5816   67.9980   67.0875 H   0  0  0  0  0  0  0  0  0  0  0  0
   -2.6302   66.4743   67.0875 H   0  0  0  0  0  0  0  0  0  0  0  0
   -2.0399   68.4211   65.3905 H   0  0  0  0  0  0  0  0  0  0  0  0
   -1.1998   69.1223   66.8260 H   0  0  0  0  0  0  0  0  0  0  0  0
    1.8771   66.8298   70.4597 H   0  0  0  0  0  0  0  0  0  0  0  0
    0.0983   67.2278   70.3604 H   0  0  0  0  0  0  0  0  0  0  0  0
   -0.3907   64.8973   69.7967 H   0  0  0  0  0  0  0  0  0  0  0  0
    3.3671   63.3567   70.2533 H   0  0  0  0  0  0  0  0  0  0  0  0
    2.9994   64.9273   71.0610 H   0  0  0  0  0  0  0  0  0  0  0  0
    2.1569   62.1236   71.8069 H   0  0  0  0  0  0  0  0  0  0  0  0
    2.6967   63.5027   72.8482 H   0  0  0  0  0  0  0  0  0  0  0  0
    0.4963   63.5144   73.3155 H   0  0  0  0  0  0  0  0  0  0  0  0
   -0.7312   65.2126   72.0736 H   0  0  0  0  0  0  0  0  0  0  0  0
    0.9922   65.6663   72.3715 H   0  0  0  0  0  0  0  0  0  0  0  0
   -1.3233   63.0490   71.5607 H   0  0  0  0  0  0  0  0  0  0  0  0
    0.0647   62.1520   70.7993 H   0  0  0  0  0  0  0  0  0  0  0  0
    1.3760   60.5084   72.3077 H   0  0  0  0  0  0  0  0  0  0  0  0
    0.9860   58.5580   73.8173 H   0  0  0  0  0  0  0  0  0  0  0  0
   -2.9605   60.0441   74.7409 H   0  0  0  0  0  0  0  0  0  0  0  0
   -2.5863   61.9982   73.2339 H   0  0  0  0  0  0  0  0  0  0  0  0
  2  1  2  0
  3  1  1  0
  5  4  2  0
  6  5  1  0
  7  6  2  0
  8  7  1  0
  9  8  2  0
  9  4  1  0
  9  1  1  0
 10  7  1  0
 11  6  1  0
 12  4  1  0
 14 13  1  0
 14 12  1  0
 15  3  1  0
 16 15  1  0
 17 16  1  0
 18 17  1  0
 19 18  1  0
 20 19  1  0
 21 20  1  0
 21 16  1  0
 22 20  1  0
 23 22  1  0
 24 23  2  0
 25 24  1  0
 26 25  2  0
 27 26  1  0
 28 27  2  0
 28 23  1  0
 29 26  1  0
  3 30  1  0
  5 31  1  0
  8 32  1  0
 11 33  1  0
 11 34  1  0
 13 35  1  0
 13 36  1  0
 13 37  1  0
 14 38  1  0
 14 39  1  0
 15 40  1  0
 15 41  1  0
 16 42  1  6
 18 43  1  0
 18 44  1  0
 19 45  1  0
 19 46  1  0
 20 47  1  1
 21 48  1  0
 21 49  1  0
 22 50  1  0
 22 51  1  0
 24 52  1  0
 25 53  1  0
 27 54  1  0
 28 55  1  0
M  CHG  1  20   1
M  END
>  <score>  (4) 
-9.282

$$$$
=
     RDKit          3D

 55 57  0  0  0  0  0  0  0  0999 V2000
    1.1080   67.7880   68.3650 C   0  0  0  0  0  0  0  0  0  0  0  0
    1.9070   68.5130   68.9540 O   0  0  0  0  0  0  0  0  0  0  0  0
    0.6320   66.6270   68.9350 N   0  0  0  0  0  0  0  0  0  0  0  0
    1.4150   68.2730   65.8480 C   0  0  0  0  0  0  0  0  0  0  0  0
    0.8110   68.6070   64.6250 C   0  0  0  0  0  0  0  0  0  0  0  0
   -0.5620   68.8830   64.5310 C   0  0  0  0  0  0  0  0  0  0  0  0
   -1.3510   68.7310   65.6790 C   0  0  0  0  0  0  0  0  0  0  0  0
   -0.7740   68.3920   66.9010 C   0  0  0  0  0  0  0  0  0  0  0  0
    0.6080   68.1600   67.0000 C   0  0  0  0  0  0  0  0  0  0  0  0
   -3.0600   68.9880   65.6160 Cl  0  0  0  0  0  0  0  0  0  0  0  0
   -1.1310   69.0870   63.2620 N   0  0  0  0  0  0  0  0  0  0  0  0
    2.7580   68.0250   65.9860 O   0  0  0  0  0  0  0  0  0  0  0  0
    4.3770   69.6770   66.7170 C   0  0  0  0  0  0  0  0  0  0  0  0
    3.7100   68.9930   65.5360 C   0  0  0  0  0  0  0  0  0  0  0  0
    1.0950   66.1680   70.2260 C   0  0  0  0  0  0  0  0  0  0  0  0
    0.6640   64.7230   70.5510 C   0  0  1  0  0  0  0  0  0  0  0  0
    1.6400   63.7420   70.1430 O   0  0  0  0  0  0  0  0  0  0  0  0
    2.6310   63.4980   71.1420 C   0  0  0  0  0  0  0  0  0  0  0  0
    2.0120   62.7790   72.3510 C   0  0  0  0  0  0  0  0  0  0  0  0
    0.5440   63.1760   72.5440 N   0  0  1  0  0  4  0  0  0  0  0  0
    0.3170   64.5960   72.0540 C   0  0  0  0  0  0  0  0  0  0  0  0
   -0.4210   62.1850   71.9250 C   0  0  0  0  0  0  0  0  0  0  0  0
   -0.8560   61.1160   72.8960 C   0  0  0  0  0  0  0  0  0  0  0  0
   -0.0160   60.0240   73.1760 C   0  0  0  0  0  0  0  0  0  0  0  0
   -0.4290   59.0250   74.0600 C   0  0  0  0  0  0  0  0  0  0  0  0
   -1.6760   59.1150   74.6660 C   0  0  0  0  0  0  0  0  0  0  0  0
   -2.5180   60.1890   74.4080 C   0  0  0  0  0  0  0  0  0  0  0  0
   -2.1110   61.1910   73.5250 C   0  0  0  0  0  0  0  0  0  0  0  0
   -2.0690   58.1560   75.5110 F   0  0  0  0  0  0  0  0  0  0  0  0
   -0.0720   66.0716   68.4282 H   0  0  0  0  0  0  0  0  0  0  0  0
    1.4301   68.6535   63.7169 H   0  0  0  0  0  0  0  0  0  0  0  0
   -1.4065   68.3052   67.7967 H   0  0  0  0  0  0  0  0  0  0  0  0
   -2.1370   69.2905   63.1753 H   0  0  0  0  0  0  0  0  0  0  0  0
   -0.5420   69.0330   62.4188 H   0  0  0  0  0  0  0  0  0  0  0  0
    3.9751   69.2648   67.6543 H   0  0  0  0  0  0  0  0  0  0  0  0
    5.4625   69.5037   66.6759 H   0  0  0  0  0  0  0  0  0  0  0  0
    4.1764   70.7578   66.6759 H   0  0  0  0  0  0  0  0  0  0  0  0
    3.1955   69.7486   64.9241 H   0  0  0  0  0  0  0  0  0  0  0  0
    4.4810   68.4817   64.9409 H   0  0  0  0  0  0  0  0  0  0  0  0
    2.1939   66.2160   70.2400 H   0  0  0  0  0  0  0  0  0  0  0  0
    0.6416   66.8216   70.9857 H   0  0  0  0  0  0  0  0  0  0  0  0
   -0.2393   64.5073   69.9614 H   0  0  0  0  0  0  0  0  0  0  0  0
    3.4272   62.8698   70.7161 H   0  0  0  0  0  0  0  0  0  0  0  0
    3.0448   64.4613   71.4749 H   0  0  0  0  0  0  0  0  0  0  0  0
    2.0711   61.6924   72.1904 H   0  0  0  0  0  0  0  0  0  0  0  0
    2.5717   63.0705   73.2520 H   0  0  0  0  0  0  0  0  0  0  0  0
    0.3420   63.1504   73.5537 H   0  0  0  0  0  0  0  0  0  0  0  0
   -0.7392   64.8643   72.2038 H   0  0  0  0  0  0  0  0  0  0  0  0
    0.9697   65.2734   72.6241 H   0  0  0  0  0  0  0  0  0  0  0  0
   -1.3116   62.7298   71.5784 H   0  0  0  0  0  0  0  0  0  0  0  0
    0.0995   61.6880   71.0931 H   0  0  0  0  0  0  0  0  0  0  0  0
    0.9716   59.9562   72.6963 H   0  0  0  0  0  0  0  0  0  0  0  0
    0.2298   58.1709   74.2755 H   0  0  0  0  0  0  0  0  0  0  0  0
   -3.5013   60.2499   74.8973 H   0  0  0  0  0  0  0  0  0  0  0  0
   -2.7756   62.0433   73.3205 H   0  0  0  0  0  0  0  0  0  0  0  0
  2  1  2  0
  3  1  1  0
  5  4  2  0
  6  5  1  0
  7  6  2  0
  8  7  1  0
  9  8  2  0
  9  4  1  0
  9  1  1  0
 10  7  1  0
 11  6  1  0
 12  4  1  0
 14 13  1  0
 14 12  1  0
 15  3  1  0
 16 15  1  0
 17 16  1  0
 18 17  1  0
 19 18  1  0
 20 19  1  0
 21 20  1  0
 21 16  1  0
 22 20  1  0
 23 22  1  0
 24 23  2  0
 25 24  1  0
 26 25  2  0
 27 26  1  0
 28 27  2  0
 28 23  1  0
 29 26  1  0
  3 30  1  0
  5 31  1  0
  8 32  1  0
 11 33  1  0
 11 34  1  0
 13 35  1  0
 13 36  1  0
 13 37  1  0
 14 38  1  0
 14 39  1  0
 15 40  1  0
 15 41  1  0
 16 42  1  6
 18 43  1  0
 18 44  1  0
 19 45  1  0
 19 46  1  0
 20 47  1  1
 21 48  1  0
 21 49  1  0
 22 50  1  0
 22 51  1  0
 24 52  1  0
 25 53  1  0
 27 54  1  0
 28 55  1  0
M  CHG  1  20   1
M  END
>  <score>  (5) 
-9.266

$$$$
=
     RDKit          3D

 55 57  0  0  0  0  0  0  0  0999 V2000
    0.3780   65.2990   70.0400 C   0  0  0  0  0  0  0  0  0  0  0  0
   -0.5920   64.9550   69.3680 O   0  0  0  0  0  0  0  0  0  0  0  0
    1.0000   66.5120   69.8410 N   0  0  0  0  0  0  0  0  0  0  0  0
    1.9050   63.4210   70.9390 C   0  0  0  0  0  0  0  0  0  0  0  0
    2.3270   62.6670   72.0470 C   0  0  0  0  0  0  0  0  0  0  0  0
    1.7450   62.8280   73.3130 C   0  0  0  0  0  0  0  0  0  0  0  0
    0.7830   63.8330   73.4810 C   0  0  0  0  0  0  0  0  0  0  0  0
    0.3560   64.5980   72.3980 C   0  0  0  0  0  0  0  0  0  0  0  0
    0.9100   64.4040   71.1220 C   0  0  0  0  0  0  0  0  0  0  0  0
    0.0760   64.1300   75.0310 Cl  0  0  0  0  0  0  0  0  0  0  0  0
    2.2930   62.1380   74.4080 N   0  0  0  0  0  0  0  0  0  0  0  0
    2.4290   63.2730   69.6790 O   0  0  0  0  0  0  0  0  0  0  0  0
    3.7880   61.3250   69.1900 C   0  0  0  0  0  0  0  0  0  0  0  0
    3.7720   62.8070   69.5170 C   0  0  0  0  0  0  0  0  0  0  0  0
    0.5850   67.4160   68.7900 C   0  0  0  0  0  0  0  0  0  0  0  0
    1.6730   67.6490   67.7200 C   0  0  1  0  0  0  0  0  0  0  0  0
    1.4630   66.8640   66.5280 O   0  0  0  0  0  0  0  0  0  0  0  0
    0.6180   67.5160   65.5780 C   0  0  0  0  0  0  0  0  0  0  0  0
    1.3280   68.7390   64.9770 C   0  0  0  0  0  0  0  0  0  0  0  0
    2.2940   69.3740   65.9830 N   0  0  1  0  0  4  0  0  0  0  0  0
    1.7900   69.1580   67.4000 C   0  0  0  0  0  0  0  0  0  0  0  0
    3.7250   68.9130   65.7980 C   0  0  0  0  0  0  0  0  0  0  0  0
    4.6900   69.6410   66.7000 C   0  0  0  0  0  0  0  0  0  0  0  0
    4.2520   70.1870   67.9190 C   0  0  0  0  0  0  0  0  0  0  0  0
    5.1410   70.8790   68.7430 C   0  0  0  0  0  0  0  0  0  0  0  0
    6.4670   71.0240   68.3540 C   0  0  0  0  0  0  0  0  0  0  0  0
    6.9220   70.4880   67.1560 C   0  0  0  0  0  0  0  0  0  0  0  0
    6.0370   69.7950   66.3290 C   0  0  0  0  0  0  0  0  0  0  0  0
    7.3170   71.6890   69.1450 F   0  0  0  0  0  0  0  0  0  0  0  0
    1.7806   66.7825   70.4562 H   0  0  0  0  0  0  0  0  0  0  0  0
    3.1347   61.9314   71.9182 H   0  0  0  0  0  0  0  0  0  0  0  0
   -0.4225   65.3614   72.5435 H   0  0  0  0  0  0  0  0  0  0  0  0
    1.8776   62.2452   75.3444 H   0  0  0  0  0  0  0  0  0  0  0  0
    3.1100   61.5252   74.2740 H   0  0  0  0  0  0  0  0  0  0  0  0
    3.7943   60.7435   70.1237 H   0  0  0  0  0  0  0  0  0  0  0  0
    2.8926   61.0690   68.6046 H   0  0  0  0  0  0  0  0  0  0  0  0
    4.6888   61.0884   68.6046 H   0  0  0  0  0  0  0  0  0  0  0  0
    4.3287   62.9772   70.4504 H   0  0  0  0  0  0  0  0  0  0  0  0
    4.2407   63.3579   68.6882 H   0  0  0  0  0  0  0  0  0  0  0  0
   -0.3040   66.9947   68.2979 H   0  0  0  0  0  0  0  0  0  0  0  0
    0.3769   68.3885   69.2601 H   0  0  0  0  0  0  0  0  0  0  0  0
    2.6292   67.3030   68.1396 H   0  0  0  0  0  0  0  0  0  0  0  0
    0.3675   66.8105   64.7721 H   0  0  0  0  0  0  0  0  0  0  0  0
   -0.2979   67.8507   66.0870 H   0  0  0  0  0  0  0  0  0  0  0  0
    1.8934   68.4236   64.0877 H   0  0  0  0  0  0  0  0  0  0  0  0
    0.5657   69.4856   64.7098 H   0  0  0  0  0  0  0  0  0  0  0  0
    2.3145   70.3877   65.8016 H   0  0  0  0  0  0  0  0  0  0  0  0
    2.4929   69.6227   68.1071 H   0  0  0  0  0  0  0  0  0  0  0  0
    0.7938   69.6152   67.4923 H   0  0  0  0  0  0  0  0  0  0  0  0
    3.7798   67.8368   66.0189 H   0  0  0  0  0  0  0  0  0  0  0  0
    4.0129   69.1290   64.7585 H   0  0  0  0  0  0  0  0  0  0  0  0
    3.2022   70.0682   68.2254 H   0  0  0  0  0  0  0  0  0  0  0  0
    4.7938   71.3071   69.6949 H   0  0  0  0  0  0  0  0  0  0  0  0
    7.9747   70.6092   66.8607 H   0  0  0  0  0  0  0  0  0  0  0  0
    6.3956   69.3668   65.3813 H   0  0  0  0  0  0  0  0  0  0  0  0
  2  1  2  0
  3  1  1  0
  5  4  2  0
  6  5  1  0
  7  6  2  0
  8  7  1  0
  9  8  2  0
  9  4  1  0
  9  1  1  0
 10  7  1  0
 11  6  1  0
 12  4  1  0
 14 13  1  0
 14 12  1  0
 15  3  1  0
 16 15  1  0
 17 16  1  0
 18 17  1  0
 19 18  1  0
 20 19  1  0
 21 20  1  0
 21 16  1  0
 22 20  1  0
 23 22  1  0
 24 23  2  0
 25 24  1  0
 26 25  2  0
 27 26  1  0
 28 27  2  0
 28 23  1  0
 29 26  1  0
  3 30  1  0
  5 31  1  0
  8 32  1  0
 11 33  1  0
 11 34  1  0
 13 35  1  0
 13 36  1  0
 13 37  1  0
 14 38  1  0
 14 39  1  0
 15 40  1  0
 15 41  1  0
 16 42  1  1
 18 43  1  0
 18 44  1  0
 19 45  1  0
 19 46  1  0
 20 47  1  6
 21 48  1  0
 21 49  1  0
 22 50  1  0
 22 51  1  0
 24 52  1  0
 25 53  1  0
 27 54  1  0
 28 55  1  0
M  CHG  1  20   1
M  END
>  <score>  (6) 
-9.258

$$$$
=
     RDKit          3D

 55 57  0  0  0  0  0  0  0  0999 V2000
    1.0480   64.5410   70.4860 C   0  0  0  0  0  0  0  0  0  0  0  0
   -0.1550   64.3970   70.6940 O   0  0  0  0  0  0  0  0  0  0  0  0
    1.5500   65.6970   69.9280 N   0  0  0  0  0  0  0  0  0  0  0  0
    3.0000   62.9260   69.9910 C   0  0  0  0  0  0  0  0  0  0  0  0
    3.8610   61.9260   70.4740 C   0  0  0  0  0  0  0  0  0  0  0  0
    3.7320   61.4060   71.7710 C   0  0  0  0  0  0  0  0  0  0  0  0
    2.7740   61.9710   72.6240 C   0  0  0  0  0  0  0  0  0  0  0  0
    1.9160   62.9700   72.1680 C   0  0  0  0  0  0  0  0  0  0  0  0
    2.0180   63.4570   70.8540 C   0  0  0  0  0  0  0  0  0  0  0  0
    2.6110   61.4250   74.2560 Cl  0  0  0  0  0  0  0  0  0  0  0  0
    4.6990   60.5000   72.2410 N   0  0  0  0  0  0  0  0  0  0  0  0
    3.0740   63.4390   68.7200 O   0  0  0  0  0  0  0  0  0  0  0  0
    3.7980   63.4780   66.4050 C   0  0  0  0  0  0  0  0  0  0  0  0
    4.0270   62.9090   67.7940 C   0  0  0  0  0  0  0  0  0  0  0  0
    0.6830   66.7730   69.4990 C   0  0  0  0  0  0  0  0  0  0  0  0
    0.6610   66.9650   67.9680 C   0  0  1  0  0  0  0  0  0  0  0  0
   -0.6330   66.6970   67.3890 O   0  0  0  0  0  0  0  0  0  0  0  0
   -1.4860   67.8430   67.3830 C   0  0  0  0  0  0  0  0  0  0  0  0
   -0.9610   68.8990   66.3980 C   0  0  0  0  0  0  0  0  0  0  0  0
    0.5670   68.8500   66.2890 N   0  0  1  0  0  4  0  0  0  0  0  0
    1.1710   68.3790   67.6010 C   0  0  0  0  0  0  0  0  0  0  0  0
    1.0480   68.0370   65.1030 C   0  0  0  0  0  0  0  0  0  0  0  0
    2.3870   68.5020   64.5870 C   0  0  0  0  0  0  0  0  0  0  0  0
    3.3260   69.0780   65.4600 C   0  0  0  0  0  0  0  0  0  0  0  0
    4.5560   69.5270   64.9770 C   0  0  0  0  0  0  0  0  0  0  0  0
    4.8520   69.3990   63.6260 C   0  0  0  0  0  0  0  0  0  0  0  0
    3.9410   68.8280   62.7470 C   0  0  0  0  0  0  0  0  0  0  0  0
    2.7090   68.3770   63.2250 C   0  0  0  0  0  0  0  0  0  0  0  0
    6.0320   69.8320   63.1650 F   0  0  0  0  0  0  0  0  0  0  0  0
    2.5687   65.7975   69.8134 H   0  0  0  0  0  0  0  0  0  0  0  0
    4.6563   61.5410   69.8188 H   0  0  0  0  0  0  0  0  0  0  0  0
    1.1514   63.3813   72.8434 H   0  0  0  0  0  0  0  0  0  0  0  0
    4.6197   60.1087   73.1904 H   0  0  0  0  0  0  0  0  0  0  0  0
    5.4867   60.2276   71.6359 H   0  0  0  0  0  0  0  0  0  0  0  0
    3.3885   64.4955   66.4885 H   0  0  0  0  0  0  0  0  0  0  0  0
    4.7530   63.5107   65.8601 H   0  0  0  0  0  0  0  0  0  0  0  0
    3.0866   62.8400   65.8601 H   0  0  0  0  0  0  0  0  0  0  0  0
    3.9249   61.8144   67.7573 H   0  0  0  0  0  0  0  0  0  0  0  0
    5.0376   63.1866   68.1282 H   0  0  0  0  0  0  0  0  0  0  0  0
   -0.3401   66.5535   69.8382 H   0  0  0  0  0  0  0  0  0  0  0  0
    1.0747   67.7022   69.9385 H   0  0  0  0  0  0  0  0  0  0  0  0
    1.3432   66.2204   67.5318 H   0  0  0  0  0  0  0  0  0  0  0  0
   -2.4992   67.5387   67.0815 H   0  0  0  0  0  0  0  0  0  0  0  0
   -1.5056   68.2774   68.3934 H   0  0  0  0  0  0  0  0  0  0  0  0
   -1.3970   68.7112   65.4057 H   0  0  0  0  0  0  0  0  0  0  0  0
   -1.2503   69.8933   66.7691 H   0  0  0  0  0  0  0  0  0  0  0  0
    0.8991   69.8083   66.1095 H   0  0  0  0  0  0  0  0  0  0  0  0
    2.2664   68.3528   67.5042 H   0  0  0  0  0  0  0  0  0  0  0  0
    0.8719   69.0777   68.3963 H   0  0  0  0  0  0  0  0  0  0  0  0
    1.1346   66.9841   65.4093 H   0  0  0  0  0  0  0  0  0  0  0  0
    0.3156   68.1642   64.2922 H   0  0  0  0  0  0  0  0  0  0  0  0
    3.0901   69.1754   66.5300 H   0  0  0  0  0  0  0  0  0  0  0  0
    5.2872   69.9799   65.6627 H   0  0  0  0  0  0  0  0  0  0  0  0
    4.1887   68.7315   61.6796 H   0  0  0  0  0  0  0  0  0  0  0  0
    1.9867   67.9214   62.5316 H   0  0  0  0  0  0  0  0  0  0  0  0
  2  1  2  0
  3  1  1  0
  5  4  2  0
  6  5  1  0
  7  6  2  0
  8  7  1  0
  9  8  2  0
  9  4  1  0
  9  1  1  0
 10  7  1  0
 11  6  1  0
 12  4  1  0
 14 13  1  0
 14 12  1  0
 15  3  1  0
 16 15  1  0
 17 16  1  0
 18 17  1  0
 19 18  1  0
 20 19  1  0
 21 20  1  0
 21 16  1  0
 22 20  1  0
 23 22  1  0
 24 23  2  0
 25 24  1  0
 26 25  2  0
 27 26  1  0
 28 27  2  0
 28 23  1  0
 29 26  1  0
  3 30  1  0
  5 31  1  0
  8 32  1  0
 11 33  1  0
 11 34  1  0
 13 35  1  0
 13 36  1  0
 13 37  1  0
 14 38  1  0
 14 39  1  0
 15 40  1  0
 15 41  1  0
 16 42  1  6
 18 43  1  0
 18 44  1  0
 19 45  1  0
 19 46  1  0
 20 47  1  6
 21 48  1  0
 21 49  1  0
 22 50  1  0
 22 51  1  0
 24 52  1  0
 25 53  1  0
 27 54  1  0
 28 55  1  0
M  CHG  1  20   1
M  END
>  <score>  (7) 
-9.181

$$$$
=
     RDKit          3D

 55 57  0  0  0  0  0  0  0  0999 V2000
    0.7640   67.3620   68.2820 C   0  0  0  0  0  0  0  0  0  0  0  0
   -0.4500   67.4880   68.1340 O   0  0  0  0  0  0  0  0  0  0  0  0
    1.2930   66.6560   69.3400 N   0  0  0  0  0  0  0  0  0  0  0  0
    2.6120   69.0210   67.5760 C   0  0  0  0  0  0  0  0  0  0  0  0
    3.4670   69.4780   66.5590 C   0  0  0  0  0  0  0  0  0  0  0  0
    3.4140   68.9530   65.2590 C   0  0  0  0  0  0  0  0  0  0  0  0
    2.5410   67.8850   65.0080 C   0  0  0  0  0  0  0  0  0  0  0  0
    1.6910   67.4100   66.0040 C   0  0  0  0  0  0  0  0  0  0  0  0
    1.7170   67.9680   67.2930 C   0  0  0  0  0  0  0  0  0  0  0  0
    2.4760   67.1470   63.4460 Cl  0  0  0  0  0  0  0  0  0  0  0  0
    4.3760   69.3600   64.3200 N   0  0  0  0  0  0  0  0  0  0  0  0
    2.6150   69.5280   68.8520 O   0  0  0  0  0  0  0  0  0  0  0  0
    4.6720   70.5850   69.5800 C   0  0  0  0  0  0  0  0  0  0  0  0
    3.2410   70.7870   69.1150 C   0  0  0  0  0  0  0  0  0  0  0  0
    0.4510   66.0800   70.3660 C   0  0  0  0  0  0  0  0  0  0  0  0
    0.6480   64.5580   70.5330 C   0  0  1  0  0  0  0  0  0  0  0  0
    1.8150   64.0660   69.8430 O   0  0  0  0  0  0  0  0  0  0  0  0
    3.0010   64.1420   70.6360 C   0  0  0  0  0  0  0  0  0  0  0  0
    2.9330   63.1450   71.8030 C   0  0  0  0  0  0  0  0  0  0  0  0
    1.4890   62.9290   72.2700 N   0  0  1  0  0  4  0  0  0  0  0  0
    0.6700   64.1860   72.0350 C   0  0  0  0  0  0  0  0  0  0  0  0
    0.8510   61.6960   71.6610 C   0  0  0  0  0  0  0  0  0  0  0  0
   -0.0830   60.9960   72.6160 C   0  0  0  0  0  0  0  0  0  0  0  0
    0.3030   59.7990   73.2420 C   0  0  0  0  0  0  0  0  0  0  0  0
   -0.5710   59.1410   74.1100 C   0  0  0  0  0  0  0  0  0  0  0  0
   -1.8280   59.6790   74.3560 C   0  0  0  0  0  0  0  0  0  0  0  0
   -2.2280   60.8640   73.7520 C   0  0  0  0  0  0  0  0  0  0  0  0
   -1.3580   61.5260   72.8840 C   0  0  0  0  0  0  0  0  0  0  0  0
   -2.6650   59.0460   75.1870 F   0  0  0  0  0  0  0  0  0  0  0  0
    2.3140   66.5351   69.4023 H   0  0  0  0  0  0  0  0  0  0  0  0
    4.1971   70.2682   66.7881 H   0  0  0  0  0  0  0  0  0  0  0  0
    0.9928   66.5903   65.7792 H   0  0  0  0  0  0  0  0  0  0  0  0
    4.3512   68.9841   63.3614 H   0  0  0  0  0  0  0  0  0  0  0  0
    5.1062   70.0344   64.5901 H   0  0  0  0  0  0  0  0  0  0  0  0
    4.7031   70.5806   70.6796 H   0  0  0  0  0  0  0  0  0  0  0  0
    5.0493   69.6247   69.1987 H   0  0  0  0  0  0  0  0  0  0  0  0
    5.3004   71.4033   69.1987 H   0  0  0  0  0  0  0  0  0  0  0  0
    2.6772   71.3144   69.8986 H   0  0  0  0  0  0  0  0  0  0  0  0
    3.2494   71.3795   68.1883 H   0  0  0  0  0  0  0  0  0  0  0  0
    0.6827   66.5694   71.3235 H   0  0  0  0  0  0  0  0  0  0  0  0
   -0.5931   66.2422   70.0602 H   0  0  0  0  0  0  0  0  0  0  0  0
   -0.2103   64.0591   70.0593 H   0  0  0  0  0  0  0  0  0  0  0  0
    3.8723   63.9050   70.0078 H   0  0  0  0  0  0  0  0  0  0  0  0
    3.0923   65.1600   71.0427 H   0  0  0  0  0  0  0  0  0  0  0  0
    3.3513   62.1817   71.4757 H   0  0  0  0  0  0  0  0  0  0  0  0
    3.5112   63.5559   72.6438 H   0  0  0  0  0  0  0  0  0  0  0  0
    1.5104   62.7462   73.2834 H   0  0  0  0  0  0  0  0  0  0  0  0
   -0.3607   64.0138   72.3785 H   0  0  0  0  0  0  0  0  0  0  0  0
    1.1285   65.0141   72.5955 H   0  0  0  0  0  0  0  0  0  0  0  0
    0.2822   61.9974   70.7690 H   0  0  0  0  0  0  0  0  0  0  0  0
    1.6583   60.9929   71.4082 H   0  0  0  0  0  0  0  0  0  0  0  0
    1.3001   59.3773   73.0472 H   0  0  0  0  0  0  0  0  0  0  0  0
   -0.2660   58.2025   74.5959 H   0  0  0  0  0  0  0  0  0  0  0  0
   -3.2259   61.2790   73.9567 H   0  0  0  0  0  0  0  0  0  0  0  0
   -1.6710   62.4666   72.4073 H   0  0  0  0  0  0  0  0  0  0  0  0
  2  1  2  0
  3  1  1  0
  5  4  2  0
  6  5  1  0
  7  6  2  0
  8  7  1  0
  9  8  2  0
  9  4  1  0
  9  1  1  0
 10  7  1  0
 11  6  1  0
 12  4  1  0
 14 13  1  0
 14 12  1  0
 15  3  1  0
 16 15  1  0
 17 16  1  0
 18 17  1  0
 19 18  1  0
 20 19  1  0
 21 20  1  0
 21 16  1  0
 22 20  1  0
 23 22  1  0
 24 23  2  0
 25 24  1  0
 26 25  2  0
 27 26  1  0
 28 27  2  0
 28 23  1  0
 29 26  1  0
  3 30  1  0
  5 31  1  0
  8 32  1  0
 11 33  1  0
 11 34  1  0
 13 35  1  0
 13 36  1  0
 13 37  1  0
 14 38  1  0
 14 39  1  0
 15 40  1  0
 15 41  1  0
 16 42  1  6
 18 43  1  0
 18 44  1  0
 19 45  1  0
 19 46  1  0
 20 47  1  1
 21 48  1  0
 21 49  1  0
 22 50  1  0
 22 51  1  0
 24 52  1  0
 25 53  1  0
 27 54  1  0
 28 55  1  0
M  CHG  1  20   1
M  END
>  <score>  (8) 
-8.796

$$$$
=
     RDKit          3D

 55 57  0  0  0  0  0  0  0  0999 V2000
    2.2670   68.9970   67.2270 C   0  0  0  0  0  0  0  0  0  0  0  0
    2.0170   70.0010   67.8900 O   0  0  0  0  0  0  0  0  0  0  0  0
    1.7330   67.7680   67.5500 N   0  0  0  0  0  0  0  0  0  0  0  0
    4.5200   69.4470   66.0500 C   0  0  0  0  0  0  0  0  0  0  0  0
    5.2430   69.4650   64.8460 C   0  0  0  0  0  0  0  0  0  0  0  0
    4.6320   69.1870   63.6140 C   0  0  0  0  0  0  0  0  0  0  0  0
    3.2870   68.7940   63.6120 C   0  0  0  0  0  0  0  0  0  0  0  0
    2.5530   68.7610   64.7950 C   0  0  0  0  0  0  0  0  0  0  0  0
    3.1570   69.0840   66.0220 C   0  0  0  0  0  0  0  0  0  0  0  0
    2.4920   68.3700   62.1360 Cl  0  0  0  0  0  0  0  0  0  0  0  0
    5.4320   69.0970   62.4620 N   0  0  0  0  0  0  0  0  0  0  0  0
    5.0750   69.7420   67.2710 O   0  0  0  0  0  0  0  0  0  0  0  0
    6.6320   71.0580   68.5840 C   0  0  0  0  0  0  0  0  0  0  0  0
    6.4250   70.2070   67.3440 C   0  0  0  0  0  0  0  0  0  0  0  0
    0.9040   67.5840   68.7210 C   0  0  0  0  0  0  0  0  0  0  0  0
    1.4680   66.5410   69.7100 C   0  0  1  0  0  0  0  0  0  0  0  0
    0.5670   66.2610   70.8010 O   0  0  0  0  0  0  0  0  0  0  0  0
   -0.3690   65.2260   70.4960 C   0  0  0  0  0  0  0  0  0  0  0  0
    0.3470   63.8710   70.3780 C   0  0  0  0  0  0  0  0  0  0  0  0
    1.7800   64.0390   69.8630 N   0  0  1  0  0  4  0  0  0  0  0  0
    1.8700   65.2530   68.9530 C   0  0  0  0  0  0  0  0  0  0  0  0
    2.8070   64.0700   70.9760 C   0  0  0  0  0  0  0  0  0  0  0  0
    3.2670   62.6910   71.3780 C   0  0  0  0  0  0  0  0  0  0  0  0
    3.9320   61.8650   70.4560 C   0  0  0  0  0  0  0  0  0  0  0  0
    4.3390   60.5800   70.8240 C   0  0  0  0  0  0  0  0  0  0  0  0
    4.0840   60.1210   72.1100 C   0  0  0  0  0  0  0  0  0  0  0  0
    3.4330   60.9230   73.0390 C   0  0  0  0  0  0  0  0  0  0  0  0
    3.0250   62.2080   72.6760 C   0  0  0  0  0  0  0  0  0  0  0  0
    4.4740   58.8890   72.4590 F   0  0  0  0  0  0  0  0  0  0  0  0
    1.9293   66.9601   66.9420 H   0  0  0  0  0  0  0  0  0  0  0  0
    6.3166   69.7033   64.8696 H   0  0  0  0  0  0  0  0  0  0  0  0
    1.4900   68.4793   64.7687 H   0  0  0  0  0  0  0  0  0  0  0  0
    4.9998   68.8936   61.5495 H   0  0  0  0  0  0  0  0  0  0  0  0
    6.4505   69.2344   62.5303 H   0  0  0  0  0  0  0  0  0  0  0  0
    6.4818   70.4404   69.4818 H   0  0  0  0  0  0  0  0  0  0  0  0
    7.6548   71.4628   68.5843 H   0  0  0  0  0  0  0  0  0  0  0  0
    5.9094   71.8874   68.5843 H   0  0  0  0  0  0  0  0  0  0  0  0
    6.6484   70.8093   66.4511 H   0  0  0  0  0  0  0  0  0  0  0  0
    7.0968   69.3374   67.3951 H   0  0  0  0  0  0  0  0  0  0  0  0
    0.8172   68.5486   69.2425 H   0  0  0  0  0  0  0  0  0  0  0  0
   -0.0712   67.2111   68.3748 H   0  0  0  0  0  0  0  0  0  0  0  0
    2.3683   66.9740   70.1705 H   0  0  0  0  0  0  0  0  0  0  0  0
   -1.1205   65.1698   71.2973 H   0  0  0  0  0  0  0  0  0  0  0  0
   -0.8547   65.4567   69.5364 H   0  0  0  0  0  0  0  0  0  0  0  0
    0.3764   63.3943   71.3689 H   0  0  0  0  0  0  0  0  0  0  0  0
   -0.2076   63.2476   69.6612 H   0  0  0  0  0  0  0  0  0  0  0  0
    2.0133   63.2038   69.3072 H   0  0  0  0  0  0  0  0  0  0  0  0
    2.9035   65.3558   68.5908 H   0  0  0  0  0  0  0  0  0  0  0  0
    1.1794   65.1114   68.1086 H   0  0  0  0  0  0  0  0  0  0  0  0
    3.6792   64.6470   70.6349 H   0  0  0  0  0  0  0  0  0  0  0  0
    2.3332   64.5328   71.8543 H   0  0  0  0  0  0  0  0  0  0  0  0
    4.1333   62.2321   69.4388 H   0  0  0  0  0  0  0  0  0  0  0  0
    4.8584   59.9355   70.0995 H   0  0  0  0  0  0  0  0  0  0  0  0
    3.2401   60.5478   74.0549 H   0  0  0  0  0  0  0  0  0  0  0  0
    2.5112   62.8463   73.4099 H   0  0  0  0  0  0  0  0  0  0  0  0
  2  1  2  0
  3  1  1  0
  5  4  2  0
  6  5  1  0
  7  6  2  0
  8  7  1  0
  9  8  2  0
  9  4  1  0
  9  1  1  0
 10  7  1  0
 11  6  1  0
 12  4  1  0
 14 13  1  0
 14 12  1  0
 15  3  1  0
 16 15  1  0
 17 16  1  0
 18 17  1  0
 19 18  1  0
 20 19  1  0
 21 20  1  0
 21 16  1  0
 22 20  1  0
 23 22  1  0
 24 23  2  0
 25 24  1  0
 26 25  2  0
 27 26  1  0
 28 27  2  0
 28 23  1  0
 29 26  1  0
  3 30  1  0
  5 31  1  0
  8 32  1  0
 11 33  1  0
 11 34  1  0
 13 35  1  0
 13 36  1  0
 13 37  1  0
 14 38  1  0
 14 39  1  0
 15 40  1  0
 15 41  1  0
 16 42  1  1
 18 43  1  0
 18 44  1  0
 19 45  1  0
 19 46  1  0
 20 47  1  6
 21 48  1  0
 21 49  1  0
 22 50  1  0
 22 51  1  0
 24 52  1  0
 25 53  1  0
 27 54  1  0
 28 55  1  0
M  CHG  1  20   1
M  END
>  <score>  (9) 
-8.602

$$$$
