=
     RDKit          3D

 60 63  0  0  0  0  0  0  0  0999 V2000
    1.5740   63.1670   71.9750 C   0  0  0  0  0  0  0  0  0  0  0  0
    0.4360   63.9740   71.9060 C   0  0  0  0  0  0  0  0  0  0  0  0
    0.3900   65.0320   70.9960 C   0  0  0  0  0  0  0  0  0  0  0  0
    1.4830   65.3060   70.1680 C   0  0  0  0  0  0  0  0  0  0  0  0
    2.6380   64.5300   70.2730 C   0  0  0  0  0  0  0  0  0  0  0  0
    2.6840   63.4590   71.1730 C   0  0  0  0  0  0  0  0  0  0  0  0
    1.9320   62.1690   74.0530 O   0  0  0  0  0  0  0  0  0  0  0  0
    1.5690   62.0000   72.8980 C   0  0  0  0  0  0  0  0  0  0  0  0
    1.0760   60.8430   72.3310 N   0  0  0  0  0  0  0  0  0  0  0  0
    0.9180   59.5660   72.9220 C   0  0  0  0  0  0  0  0  0  0  0  0
   -0.2290   59.2250   73.6480 C   0  0  0  0  0  0  0  0  0  0  0  0
   -0.3590   57.9610   74.2280 C   0  0  0  0  0  0  0  0  0  0  0  0
    0.6550   57.0200   74.0920 C   0  0  0  0  0  0  0  0  0  0  0  0
    1.8080   57.3400   73.3760 C   0  0  0  0  0  0  0  0  0  0  0  0
    1.9570   58.6100   72.7910 C   0  0  0  0  0  0  0  0  0  0  0  0
    3.2090   58.9310   72.0200 C   0  0  0  0  0  0  0  0  0  0  0  0
    4.0490   59.7070   72.4850 O   0  0  0  0  0  0  0  0  0  0  0  0
    3.4250   58.2950   70.6690 C   0  0  0  0  0  0  0  0  0  0  0  0
    1.2630   66.2920   69.2470 O   0  0  0  0  0  0  0  0  0  0  0  0
   -0.0500   66.8310   69.1340 C   0  0  0  0  0  0  0  0  0  0  0  0
   -0.4100   67.1290   67.6770 C   0  0  0  0  0  0  0  0  0  0  0  0
    0.0470   68.5090   67.1820 C   0  0  0  0  0  0  0  0  0  0  0  0
    0.8760   68.5320   65.8950 C   0  0  0  0  0  0  0  0  0  0  0  0
    2.2650   69.0060   66.1390 N   0  0  0  0  0  4  0  0  0  0  0  0
    3.1630   68.9890   65.1290 C   0  0  0  0  0  0  0  0  0  0  0  0
    4.4770   69.3850   65.3330 C   0  0  0  0  0  0  0  0  0  0  0  0
    4.8740   69.8400   66.5900 C   0  0  0  0  0  0  0  0  0  0  0  0
    3.9210   69.9030   67.6260 C   0  0  0  0  0  0  0  0  0  0  0  0
    2.6150   69.4840   67.3570 C   0  0  0  0  0  0  0  0  0  0  0  0
    4.3080   70.3770   68.8910 C   0  0  0  0  0  0  0  0  0  0  0  0
    5.6240   70.7750   69.1240 C   0  0  0  0  0  0  0  0  0  0  0  0
    6.5670   70.7060   68.1020 C   0  0  0  0  0  0  0  0  0  0  0  0
    6.1940   70.2400   66.8400 C   0  0  0  0  0  0  0  0  0  0  0  0
   -0.4212   63.7766   72.5665 H   0  0  0  0  0  0  0  0  0  0  0  0
   -0.5139   65.6554   70.9299 H   0  0  0  0  0  0  0  0  0  0  0  0
    3.5133   64.7602   69.6478 H   0  0  0  0  0  0  0  0  0  0  0  0
    3.5938   62.8456   71.2504 H   0  0  0  0  0  0  0  0  0  0  0  0
    0.7838   60.9181   71.3462 H   0  0  0  0  0  0  0  0  0  0  0  0
   -1.0380   59.9614   73.7632 H   0  0  0  0  0  0  0  0  0  0  0  0
   -1.2675   57.7092   74.7947 H   0  0  0  0  0  0  0  0  0  0  0  0
    0.5481   56.0248   74.5483 H   0  0  0  0  0  0  0  0  0  0  0  0
    2.6078   56.5926   73.2679 H   0  0  0  0  0  0  0  0  0  0  0  0
    3.7761   57.2611   70.8024 H   0  0  0  0  0  0  0  0  0  0  0  0
    2.4777   58.2913   70.1098 H   0  0  0  0  0  0  0  0  0  0  0  0
    4.1786   58.8689   70.1098 H   0  0  0  0  0  0  0  0  0  0  0  0
   -0.7705   66.1051   69.5390 H   0  0  0  0  0  0  0  0  0  0  0  0
   -0.0857   67.7745   69.6984 H   0  0  0  0  0  0  0  0  0  0  0  0
    0.0595   66.3628   67.0426 H   0  0  0  0  0  0  0  0  0  0  0  0
   -1.5083   67.1207   67.6162 H   0  0  0  0  0  0  0  0  0  0  0  0
   -0.8531   69.1178   67.0109 H   0  0  0  0  0  0  0  0  0  0  0  0
    0.7156   68.8933   67.9664 H   0  0  0  0  0  0  0  0  0  0  0  0
    0.9153   67.5145   65.4789 H   0  0  0  0  0  0  0  0  0  0  0  0
    0.3960   69.2291   65.1924 H   0  0  0  0  0  0  0  0  0  0  0  0
    2.8471   68.6559   64.1294 H   0  0  0  0  0  0  0  0  0  0  0  0
    5.2022   69.3403   64.5071 H   0  0  0  0  0  0  0  0  0  0  0  0
    1.8558   69.5437   68.1508 H   0  0  0  0  0  0  0  0  0  0  0  0
    3.5679   70.4345   69.7028 H   0  0  0  0  0  0  0  0  0  0  0  0
    5.9178   71.1444   70.1176 H   0  0  0  0  0  0  0  0  0  0  0  0
    7.6050   71.0184   68.2888 H   0  0  0  0  0  0  0  0  0  0  0  0
    6.9420   70.1863   66.0353 H   0  0  0  0  0  0  0  0  0  0  0  0
  2  1  2  0
  3  2  1  0
  4  3  2  0
  5  4  1  0
  6  5  2  0
  6  1  1  0
  8  7  2  0
  8  1  1  0
  9  8  1  0
 10  9  1  0
 11 10  2  0
 12 11  1  0
 13 12  2  0
 14 13  1  0
 15 14  2  0
 15 10  1  0
 16 15  1  0
 17 16  2  0
 18 16  1  0
 19  4  1  0
 20 19  1  0
 21 20  1  0
 22 21  1  0
 23 22  1  0
 24 23  1  0
 25 24  2  0
 26 25  1  0
 27 26  2  0
 28 27  1  0
 29 28  2  0
 29 24  1  0
 30 28  1  0
 31 30  2  0
 32 31  1  0
 33 27  1  0
 33 32  2  0
  2 34  1  0
  3 35  1  0
  5 36  1  0
  6 37  1  0
  9 38  1  0
 11 39  1  0
 12 40  1  0
 13 41  1  0
 14 42  1  0
 18 43  1  0
 18 44  1  0
 18 45  1  0
 20 46  1  0
 20 47  1  0
 21 48  1  0
 21 49  1  0
 22 50  1  0
 22 51  1  0
 23 52  1  0
 23 53  1  0
 25 54  1  0
 26 55  1  0
 29 56  1  0
 30 57  1  0
 31 58  1  0
 32 59  1  0
 33 60  1  0
M  CHG  1  24   1
M  END
>  <score>  (1) 
-11.483

$$$$
=
     RDKit          3D

 60 63  0  0  0  0  0  0  0  0999 V2000
   -0.0750   66.6000   69.1390 C   0  0  0  0  0  0  0  0  0  0  0  0
    0.9570   67.3810   68.6150 C   0  0  0  0  0  0  0  0  0  0  0  0
    0.7410   68.1290   67.4560 C   0  0  0  0  0  0  0  0  0  0  0  0
   -0.4940   68.0860   66.8010 C   0  0  0  0  0  0  0  0  0  0  0  0
   -1.5080   67.2650   67.2980 C   0  0  0  0  0  0  0  0  0  0  0  0
   -1.3010   66.5260   68.4680 C   0  0  0  0  0  0  0  0  0  0  0  0
   -0.2570   66.3720   71.4540 O   0  0  0  0  0  0  0  0  0  0  0  0
    0.1560   65.8740   70.4170 C   0  0  0  0  0  0  0  0  0  0  0  0
    0.7750   64.6510   70.2590 N   0  0  0  0  0  0  0  0  0  0  0  0
    1.1290   63.7040   71.2510 C   0  0  0  0  0  0  0  0  0  0  0  0
    0.2800   63.4030   72.3220 C   0  0  0  0  0  0  0  0  0  0  0  0
    0.6530   62.4710   73.2920 C   0  0  0  0  0  0  0  0  0  0  0  0
    1.8810   61.8260   73.2070 C   0  0  0  0  0  0  0  0  0  0  0  0
    2.7450   62.1120   72.1500 C   0  0  0  0  0  0  0  0  0  0  0  0
    2.3850   63.0520   71.1680 C   0  0  0  0  0  0  0  0  0  0  0  0
    3.3330   63.3430   70.0360 C   0  0  0  0  0  0  0  0  0  0  0  0
    2.9160   63.4350   68.8770 O   0  0  0  0  0  0  0  0  0  0  0  0
    4.8010   63.5180   70.3320 C   0  0  0  0  0  0  0  0  0  0  0  0
   -0.6090   68.9510   65.7490 O   0  0  0  0  0  0  0  0  0  0  0  0
   -0.2460   68.4890   64.4520 C   0  0  0  0  0  0  0  0  0  0  0  0
    0.9890   69.2200   63.9220 C   0  0  0  0  0  0  0  0  0  0  0  0
    1.7790   68.4420   62.8590 C   0  0  0  0  0  0  0  0  0  0  0  0
    3.0120   67.6780   63.3480 C   0  0  0  0  0  0  0  0  0  0  0  0
    3.8610   68.5100   64.2440 N   0  0  0  0  0  4  0  0  0  0  0  0
    5.0210   69.0220   63.7770 C   0  0  0  0  0  0  0  0  0  0  0  0
    5.8550   69.7670   64.5980 C   0  0  0  0  0  0  0  0  0  0  0  0
    5.4790   70.0210   65.9160 C   0  0  0  0  0  0  0  0  0  0  0  0
    4.2460   69.5280   66.3820 C   0  0  0  0  0  0  0  0  0  0  0  0
    3.4530   68.7790   65.5070 C   0  0  0  0  0  0  0  0  0  0  0  0
    3.8510   69.7940   67.7040 C   0  0  0  0  0  0  0  0  0  0  0  0
    4.6740   70.5350   68.5520 C   0  0  0  0  0  0  0  0  0  0  0  0
    5.8970   71.0170   68.0920 C   0  0  0  0  0  0  0  0  0  0  0  0
    6.2990   70.7620   66.7800 C   0  0  0  0  0  0  0  0  0  0  0  0
    1.9371   67.4069   69.1137 H   0  0  0  0  0  0  0  0  0  0  0  0
    1.5494   68.7577   67.0545 H   0  0  0  0  0  0  0  0  0  0  0  0
   -2.4704   67.1991   66.7694 H   0  0  0  0  0  0  0  0  0  0  0  0
   -2.1039   65.8852   68.8614 H   0  0  0  0  0  0  0  0  0  0  0  0
    1.0112   64.3922   69.2904 H   0  0  0  0  0  0  0  0  0  0  0  0
   -0.6943   63.9076   72.4005 H   0  0  0  0  0  0  0  0  0  0  0  0
   -0.0275   62.2463   74.1266 H   0  0  0  0  0  0  0  0  0  0  0  0
    2.1712   61.0910   73.9722 H   0  0  0  0  0  0  0  0  0  0  0  0
    3.7154   61.5983   72.0841 H   0  0  0  0  0  0  0  0  0  0  0  0
    4.9558   63.5365   71.4209 H   0  0  0  0  0  0  0  0  0  0  0  0
    5.3654   62.6808   69.8955 H   0  0  0  0  0  0  0  0  0  0  0  0
    5.1528   64.4644   69.8955 H   0  0  0  0  0  0  0  0  0  0  0  0
   -0.0290   67.4119   64.5040 H   0  0  0  0  0  0  0  0  0  0  0  0
   -1.0844   68.6869   63.7679 H   0  0  0  0  0  0  0  0  0  0  0  0
    0.6616   70.1721   63.4790 H   0  0  0  0  0  0  0  0  0  0  0  0
    1.6653   69.3560   64.7788 H   0  0  0  0  0  0  0  0  0  0  0  0
    1.0943   67.7133   62.4005 H   0  0  0  0  0  0  0  0  0  0  0  0
    2.1647   69.2047   62.1666 H   0  0  0  0  0  0  0  0  0  0  0  0
    2.6817   66.7851   63.8991 H   0  0  0  0  0  0  0  0  0  0  0  0
    3.6127   67.4016   62.4689 H   0  0  0  0  0  0  0  0  0  0  0  0
    5.3084   68.8454   62.7300 H   0  0  0  0  0  0  0  0  0  0  0  0
    6.8085   70.1554   64.2107 H   0  0  0  0  0  0  0  0  0  0  0  0
    2.4790   68.4010   65.8512 H   0  0  0  0  0  0  0  0  0  0  0  0
    2.8863   69.4153   68.0726 H   0  0  0  0  0  0  0  0  0  0  0  0
    4.3567   70.7389   69.5853 H   0  0  0  0  0  0  0  0  0  0  0  0
    6.5462   71.5988   68.7628 H   0  0  0  0  0  0  0  0  0  0  0  0
    7.2657   71.1448   66.4209 H   0  0  0  0  0  0  0  0  0  0  0  0
  2  1  2  0
  3  2  1  0
  4  3  2  0
  5  4  1  0
  6  5  2  0
  6  1  1  0
  8  7  2  0
  8  1  1  0
  9  8  1  0
 10  9  1  0
 11 10  2  0
 12 11  1  0
 13 12  2  0
 14 13  1  0
 15 14  2  0
 15 10  1  0
 16 15  1  0
 17 16  2  0
 18 16  1  0
 19  4  1  0
 20 19  1  0
 21 20  1  0
 22 21  1  0
 23 22  1  0
 24 23  1  0
 25 24  2  0
 26 25  1  0
 27 26  2  0
 28 27  1  0
 29 28  2  0
 29 24  1  0
 30 28  1  0
 31 30  2  0
 32 31  1  0
 33 27  1  0
 33 32  2  0
  2 34  1  0
  3 35  1  0
  5 36  1  0
  6 37  1  0
  9 38  1  0
 11 39  1  0
 12 40  1  0
 13 41  1  0
 14 42  1  0
 18 43  1  0
 18 44  1  0
 18 45  1  0
 20 46  1  0
 20 47  1  0
 21 48  1  0
 21 49  1  0
 22 50  1  0
 22 51  1  0
 23 52  1  0
 23 53  1  0
 25 54  1  0
 26 55  1  0
 29 56  1  0
 30 57  1  0
 31 58  1  0
 32 59  1  0
 33 60  1  0
M  CHG  1  24   1
M  END
>  <score>  (2) 
-11.291

$$$$
=
     RDKit          3D

 60 63  0  0  0  0  0  0  0  0999 V2000
    1.5570   62.7910   72.1730 C   0  0  0  0  0  0  0  0  0  0  0  0
    0.4720   63.6600   72.0410 C   0  0  0  0  0  0  0  0  0  0  0  0
    0.5180   64.6890   71.0980 C   0  0  0  0  0  0  0  0  0  0  0  0
    1.6510   64.8720   70.2990 C   0  0  0  0  0  0  0  0  0  0  0  0
    2.7540   64.0330   70.4670 C   0  0  0  0  0  0  0  0  0  0  0  0
    2.7070   62.9910   71.4000 C   0  0  0  0  0  0  0  0  0  0  0  0
    2.0850   61.7160   74.1750 O   0  0  0  0  0  0  0  0  0  0  0  0
    1.4520   61.6570   73.1300 C   0  0  0  0  0  0  0  0  0  0  0  0
    0.5720   60.6720   72.7340 N   0  0  0  0  0  0  0  0  0  0  0  0
    0.2250   59.4730   73.4040 C   0  0  0  0  0  0  0  0  0  0  0  0
    0.9150   58.2770   73.1820 C   0  0  0  0  0  0  0  0  0  0  0  0
    0.5510   57.1050   73.8490 C   0  0  0  0  0  0  0  0  0  0  0  0
   -0.5100   57.1120   74.7460 C   0  0  0  0  0  0  0  0  0  0  0  0
   -1.2150   58.2930   74.9810 C   0  0  0  0  0  0  0  0  0  0  0  0
   -0.8630   59.4790   74.3130 C   0  0  0  0  0  0  0  0  0  0  0  0
   -1.6360   60.7410   74.5840 C   0  0  0  0  0  0  0  0  0  0  0  0
   -1.1270   61.6620   75.2280 O   0  0  0  0  0  0  0  0  0  0  0  0
   -3.0460   60.8660   74.0610 C   0  0  0  0  0  0  0  0  0  0  0  0
    1.5200   65.8380   69.3420 O   0  0  0  0  0  0  0  0  0  0  0  0
    0.4780   66.7980   69.4880 C   0  0  0  0  0  0  0  0  0  0  0  0
   -0.1410   67.1640   68.1380 C   0  0  0  0  0  0  0  0  0  0  0  0
    0.2050   68.5760   67.6440 C   0  0  0  0  0  0  0  0  0  0  0  0
    0.9490   68.6690   66.3090 C   0  0  0  0  0  0  0  0  0  0  0  0
    2.3590   69.1090   66.4900 N   0  0  0  0  0  4  0  0  0  0  0  0
    3.2220   69.0230   65.4530 C   0  0  0  0  0  0  0  0  0  0  0  0
    4.5530   69.3850   65.6000 C   0  0  0  0  0  0  0  0  0  0  0  0
    5.0050   69.8770   66.8240 C   0  0  0  0  0  0  0  0  0  0  0  0
    4.0890   70.0120   67.8850 C   0  0  0  0  0  0  0  0  0  0  0  0
    2.7630   69.6240   67.6760 C   0  0  0  0  0  0  0  0  0  0  0  0
    4.5310   70.5240   69.1170 C   0  0  0  0  0  0  0  0  0  0  0  0
    5.8660   70.8900   69.2920 C   0  0  0  0  0  0  0  0  0  0  0  0
    6.7710   70.7500   68.2440 C   0  0  0  0  0  0  0  0  0  0  0  0
    6.3440   70.2460   67.0150 C   0  0  0  0  0  0  0  0  0  0  0  0
   -0.4161   63.5344   72.6778 H   0  0  0  0  0  0  0  0  0  0  0  0
   -0.3447   65.3616   70.9827 H   0  0  0  0  0  0  0  0  0  0  0  0
    3.6612   64.1911   69.8653 H   0  0  0  0  0  0  0  0  0  0  0  0
    3.5754   62.3277   71.5263 H   0  0  0  0  0  0  0  0  0  0  0  0
    0.1043   60.8291   71.8299 H   0  0  0  0  0  0  0  0  0  0  0  0
    1.7556   58.2590   72.4727 H   0  0  0  0  0  0  0  0  0  0  0  0
    1.1061   56.1736   73.6635 H   0  0  0  0  0  0  0  0  0  0  0  0
   -0.7939   56.1876   75.2703 H   0  0  0  0  0  0  0  0  0  0  0  0
   -2.0524   58.2961   75.6942 H   0  0  0  0  0  0  0  0  0  0  0  0
   -3.7466   60.9281   74.9067 H   0  0  0  0  0  0  0  0  0  0  0  0
   -3.1303   61.7751   73.4475 H   0  0  0  0  0  0  0  0  0  0  0  0
   -3.2889   59.9859   73.4475 H   0  0  0  0  0  0  0  0  0  0  0  0
   -0.3045   66.3799   70.1383 H   0  0  0  0  0  0  0  0  0  0  0  0
    0.9081   67.7095   69.9287 H   0  0  0  0  0  0  0  0  0  0  0  0
    0.2142   66.4408   67.3892 H   0  0  0  0  0  0  0  0  0  0  0  0
   -1.2321   67.1378   68.2753 H   0  0  0  0  0  0  0  0  0  0  0  0
   -0.7371   69.1344   67.5413 H   0  0  0  0  0  0  0  0  0  0  0  0
    0.8988   68.9849   68.3933 H   0  0  0  0  0  0  0  0  0  0  0  0
    0.9440   67.6792   65.8292 H   0  0  0  0  0  0  0  0  0  0  0  0
    0.4363   69.4149   65.6838 H   0  0  0  0  0  0  0  0  0  0  0  0
    2.8635   68.6606   64.4783 H   0  0  0  0  0  0  0  0  0  0  0  0
    5.2492   69.2843   64.7543 H   0  0  0  0  0  0  0  0  0  0  0  0
    2.0328   69.7390   68.4906 H   0  0  0  0  0  0  0  0  0  0  0  0
    3.8199   70.6369   69.9486 H   0  0  0  0  0  0  0  0  0  0  0  0
    6.2036   71.2897   70.2596 H   0  0  0  0  0  0  0  0  0  0  0  0
    7.8236   71.0369   68.3847 H   0  0  0  0  0  0  0  0  0  0  0  0
    7.0633   70.1374   66.1899 H   0  0  0  0  0  0  0  0  0  0  0  0
  2  1  2  0
  3  2  1  0
  4  3  2  0
  5  4  1  0
  6  5  2  0
  6  1  1  0
  8  7  2  0
  8  1  1  0
  9  8  1  0
 10  9  1  0
 11 10  2  0
 12 11  1  0
 13 12  2  0
 14 13  1  0
 15 14  2  0
 15 10  1  0
 16 15  1  0
 17 16  2  0
 18 16  1  0
 19  4  1  0
 20 19  1  0
 21 20  1  0
 22 21  1  0
 23 22  1  0
 24 23  1  0
 25 24  2  0
 26 25  1  0
 27 26  2  0
 28 27  1  0
 29 28  2  0
 29 24  1  0
 30 28  1  0
 31 30  2  0
 32 31  1  0
 33 27  1  0
 33 32  2  0
  2 34  1  0
  3 35  1  0
  5 36  1  0
  6 37  1  0
  9 38  1  0
 11 39  1  0
 12 40  1  0
 13 41  1  0
 14 42  1  0
 18 43  1  0
 18 44  1  0
 18 45  1  0
 20 46  1  0
 20 47  1  0
 21 48  1  0
 21 49  1  0
 22 50  1  0
 22 51  1  0
 23 52  1  0
 23 53  1  0
 25 54  1  0
 26 55  1  0
 29 56  1  0
 30 57  1  0
 31 58  1  0
 32 59  1  0
 33 60  1  0
M  CHG  1  24   1
M  END
>  <score>  (3) 
-10.906

$$$$
=
     RDKit          3D

 60 63  0  0  0  0  0  0  0  0999 V2000
    0.7790   61.3950   72.2390 C   0  0  0  0  0  0  0  0  0  0  0  0
    0.0600   62.5780   72.4260 C   0  0  0  0  0  0  0  0  0  0  0  0
    0.3820   63.7110   71.6760 C   0  0  0  0  0  0  0  0  0  0  0  0
    1.4340   63.6800   70.7550 C   0  0  0  0  0  0  0  0  0  0  0  0
    2.1840   62.5120   70.6060 C   0  0  0  0  0  0  0  0  0  0  0  0
    1.8560   61.3690   71.3440 C   0  0  0  0  0  0  0  0  0  0  0  0
   -0.7630   60.1390   73.4570 O   0  0  0  0  0  0  0  0  0  0  0  0
    0.3680   60.1810   72.9930 C   0  0  0  0  0  0  0  0  0  0  0  0
    1.3270   59.1900   73.0230 N   0  0  0  0  0  0  0  0  0  0  0  0
    1.2630   57.9150   73.6340 C   0  0  0  0  0  0  0  0  0  0  0  0
    0.2660   56.9880   73.3080 C   0  0  0  0  0  0  0  0  0  0  0  0
    0.2180   55.7380   73.9280 C   0  0  0  0  0  0  0  0  0  0  0  0
    1.1660   55.3960   74.8860 C   0  0  0  0  0  0  0  0  0  0  0  0
    2.1670   56.3050   75.2300 C   0  0  0  0  0  0  0  0  0  0  0  0
    2.2250   57.5690   74.6170 C   0  0  0  0  0  0  0  0  0  0  0  0
    3.3150   58.5320   75.0020 C   0  0  0  0  0  0  0  0  0  0  0  0
    4.1210   58.9370   74.1590 O   0  0  0  0  0  0  0  0  0  0  0  0
    3.4150   58.9960   76.4350 C   0  0  0  0  0  0  0  0  0  0  0  0
    1.5670   64.8160   70.0070 O   0  0  0  0  0  0  0  0  0  0  0  0
    0.5960   65.8460   70.1640 C   0  0  0  0  0  0  0  0  0  0  0  0
    1.0680   67.1610   69.5410 C   0  0  0  0  0  0  0  0  0  0  0  0
    0.5680   67.4000   68.1100 C   0  0  0  0  0  0  0  0  0  0  0  0
    0.6840   68.8300   67.5750 C   0  0  0  0  0  0  0  0  0  0  0  0
    2.0970   69.2030   67.2940 N   0  0  0  0  0  4  0  0  0  0  0  0
    2.6100   68.9950   66.0610 C   0  0  0  0  0  0  0  0  0  0  0  0
    3.9340   69.2940   65.7770 C   0  0  0  0  0  0  0  0  0  0  0  0
    4.7450   69.8470   66.7680 C   0  0  0  0  0  0  0  0  0  0  0  0
    4.1910   70.1080   68.0360 C   0  0  0  0  0  0  0  0  0  0  0  0
    2.8510   69.7800   68.2600 C   0  0  0  0  0  0  0  0  0  0  0  0
    4.9950   70.6830   69.0350 C   0  0  0  0  0  0  0  0  0  0  0  0
    6.3330   70.9870   68.7780 C   0  0  0  0  0  0  0  0  0  0  0  0
    6.8800   70.7220   67.5260 C   0  0  0  0  0  0  0  0  0  0  0  0
    6.0910   70.1550   66.5250 C   0  0  0  0  0  0  0  0  0  0  0  0
   -0.7570   62.6169   73.1615 H   0  0  0  0  0  0  0  0  0  0  0  0
   -0.1971   64.6364   71.8108 H   0  0  0  0  0  0  0  0  0  0  0  0
    3.0337   62.4900   69.9078 H   0  0  0  0  0  0  0  0  0  0  0  0
    2.4453   60.4483   71.2209 H   0  0  0  0  0  0  0  0  0  0  0  0
    2.2079   59.4070   72.5353 H   0  0  0  0  0  0  0  0  0  0  0  0
   -0.4902   57.2481   72.5527 H   0  0  0  0  0  0  0  0  0  0  0  0
   -0.5719   55.0217   73.6579 H   0  0  0  0  0  0  0  0  0  0  0  0
    1.1268   54.4100   75.3721 H   0  0  0  0  0  0  0  0  0  0  0  0
    2.9167   56.0306   75.9867 H   0  0  0  0  0  0  0  0  0  0  0  0
    3.2319   58.1463   77.1092 H   0  0  0  0  0  0  0  0  0  0  0  0
    4.4210   59.4007   76.6200 H   0  0  0  0  0  0  0  0  0  0  0  0
    2.6650   59.7791   76.6200 H   0  0  0  0  0  0  0  0  0  0  0  0
   -0.3385   65.5339   69.6748 H   0  0  0  0  0  0  0  0  0  0  0  0
    0.4385   66.0108   71.2401 H   0  0  0  0  0  0  0  0  0  0  0  0
    0.7118   67.9882   70.1725 H   0  0  0  0  0  0  0  0  0  0  0  0
    2.1652   67.1058   69.4851 H   0  0  0  0  0  0  0  0  0  0  0  0
    1.1451   66.7451   67.4407 H   0  0  0  0  0  0  0  0  0  0  0  0
   -0.5108   67.1871   68.1395 H   0  0  0  0  0  0  0  0  0  0  0  0
    0.1030   68.9100   66.6444 H   0  0  0  0  0  0  0  0  0  0  0  0
    0.2965   69.5147   68.3437 H   0  0  0  0  0  0  0  0  0  0  0  0
    1.9669   68.5819   65.2700 H   0  0  0  0  0  0  0  0  0  0  0  0
    4.3427   69.0960   64.7751 H   0  0  0  0  0  0  0  0  0  0  0  0
    2.3999   69.9946   69.2400 H   0  0  0  0  0  0  0  0  0  0  0  0
    4.5672   70.8949   70.0260 H   0  0  0  0  0  0  0  0  0  0  0  0
    6.9555   71.4364   69.5657 H   0  0  0  0  0  0  0  0  0  0  0  0
    7.9351   70.9598   67.3256 H   0  0  0  0  0  0  0  0  0  0  0  0
    6.5284   69.9479   65.5372 H   0  0  0  0  0  0  0  0  0  0  0  0
  2  1  2  0
  3  2  1  0
  4  3  2  0
  5  4  1  0
  6  5  2  0
  6  1  1  0
  8  7  2  0
  8  1  1  0
  9  8  1  0
 10  9  1  0
 11 10  2  0
 12 11  1  0
 13 12  2  0
 14 13  1  0
 15 14  2  0
 15 10  1  0
 16 15  1  0
 17 16  2  0
 18 16  1  0
 19  4  1  0
 20 19  1  0
 21 20  1  0
 22 21  1  0
 23 22  1  0
 24 23  1  0
 25 24  2  0
 26 25  1  0
 27 26  2  0
 28 27  1  0
 29 28  2  0
 29 24  1  0
 30 28  1  0
 31 30  2  0
 32 31  1  0
 33 27  1  0
 33 32  2  0
  2 34  1  0
  3 35  1  0
  5 36  1  0
  6 37  1  0
  9 38  1  0
 11 39  1  0
 12 40  1  0
 13 41  1  0
 14 42  1  0
 18 43  1  0
 18 44  1  0
 18 45  1  0
 20 46  1  0
 20 47  1  0
 21 48  1  0
 21 49  1  0
 22 50  1  0
 22 51  1  0
 23 52  1  0
 23 53  1  0
 25 54  1  0
 26 55  1  0
 29 56  1  0
 30 57  1  0
 31 58  1  0
 32 59  1  0
 33 60  1  0
M  CHG  1  24   1
M  END
>  <score>  (4) 
-10.703

$$$$
=
     RDKit          3D

 60 63  0  0  0  0  0  0  0  0999 V2000
    0.8980   64.5260   70.7690 C   0  0  0  0  0  0  0  0  0  0  0  0
   -0.3530   64.9060   70.2790 C   0  0  0  0  0  0  0  0  0  0  0  0
   -0.4700   66.0520   69.4880 C   0  0  0  0  0  0  0  0  0  0  0  0
    0.6520   66.8360   69.2020 C   0  0  0  0  0  0  0  0  0  0  0  0
    1.8920   66.4830   69.7350 C   0  0  0  0  0  0  0  0  0  0  0  0
    2.0170   65.3280   70.5140 C   0  0  0  0  0  0  0  0  0  0  0  0
    0.0100   62.5670   71.6710 O   0  0  0  0  0  0  0  0  0  0  0  0
    1.0080   63.2610   71.5440 C   0  0  0  0  0  0  0  0  0  0  0  0
    2.2860   62.9860   71.9840 N   0  0  0  0  0  0  0  0  0  0  0  0
    2.7450   61.8730   72.7290 C   0  0  0  0  0  0  0  0  0  0  0  0
    2.2430   61.5780   74.0010 C   0  0  0  0  0  0  0  0  0  0  0  0
    2.7160   60.4790   74.7210 C   0  0  0  0  0  0  0  0  0  0  0  0
    3.6990   59.6580   74.1800 C   0  0  0  0  0  0  0  0  0  0  0  0
    4.2160   59.9350   72.9140 C   0  0  0  0  0  0  0  0  0  0  0  0
    3.7540   61.0410   72.1800 C   0  0  0  0  0  0  0  0  0  0  0  0
    4.3250   61.3180   70.8150 C   0  0  0  0  0  0  0  0  0  0  0  0
    5.1890   62.1850   70.6620 O   0  0  0  0  0  0  0  0  0  0  0  0
    3.8250   60.5230   69.6340 C   0  0  0  0  0  0  0  0  0  0  0  0
    0.4200   67.8590   68.3260 O   0  0  0  0  0  0  0  0  0  0  0  0
   -0.3570   67.5910   67.1630 C   0  0  0  0  0  0  0  0  0  0  0  0
    0.5310   67.3110   65.9490 C   0  0  0  0  0  0  0  0  0  0  0  0
    0.9230   68.5620   65.1500 C   0  0  0  0  0  0  0  0  0  0  0  0
    2.2620   68.5080   64.4100 C   0  0  0  0  0  0  0  0  0  0  0  0
    3.3690   69.0750   65.2260 N   0  0  0  0  0  4  0  0  0  0  0  0
    4.5730   69.3010   64.6530 C   0  0  0  0  0  0  0  0  0  0  0  0
    5.6380   69.7900   65.3960 C   0  0  0  0  0  0  0  0  0  0  0  0
    5.4600   70.0840   66.7470 C   0  0  0  0  0  0  0  0  0  0  0  0
    4.1910   69.8930   67.3270 C   0  0  0  0  0  0  0  0  0  0  0  0
    3.1600   69.3930   66.5270 C   0  0  0  0  0  0  0  0  0  0  0  0
    3.9980   70.2040   68.6840 C   0  0  0  0  0  0  0  0  0  0  0  0
    5.0550   70.6900   69.4550 C   0  0  0  0  0  0  0  0  0  0  0  0
    6.3100   70.8720   68.8820 C   0  0  0  0  0  0  0  0  0  0  0  0
    6.5140   70.5710   67.5350 C   0  0  0  0  0  0  0  0  0  0  0  0
   -1.2437   64.3051   70.5149 H   0  0  0  0  0  0  0  0  0  0  0  0
   -1.4530   66.3398   69.0869 H   0  0  0  0  0  0  0  0  0  0  0  0
    2.7724   67.1137   69.5424 H   0  0  0  0  0  0  0  0  0  0  0  0
    2.9974   65.0489   70.9275 H   0  0  0  0  0  0  0  0  0  0  0  0
    3.0024   63.6838   71.7376 H   0  0  0  0  0  0  0  0  0  0  0  0
    1.4653   62.2203   74.4399 H   0  0  0  0  0  0  0  0  0  0  0  0
    2.3094   60.2620   75.7198 H   0  0  0  0  0  0  0  0  0  0  0  0
    4.0683   58.7920   74.7488 H   0  0  0  0  0  0  0  0  0  0  0  0
    4.9916   59.2824   72.4868 H   0  0  0  0  0  0  0  0  0  0  0  0
    3.2713   59.6427   69.9925 H   0  0  0  0  0  0  0  0  0  0  0  0
    3.1593   61.1515   69.0243 H   0  0  0  0  0  0  0  0  0  0  0  0
    4.6799   60.1952   69.0243 H   0  0  0  0  0  0  0  0  0  0  0  0
   -0.9921   66.7129   67.3517 H   0  0  0  0  0  0  0  0  0  0  0  0
   -0.9704   68.4777   66.9453 H   0  0  0  0  0  0  0  0  0  0  0  0
    1.4526   66.8246   66.3013 H   0  0  0  0  0  0  0  0  0  0  0  0
   -0.0558   66.6750   65.2699 H   0  0  0  0  0  0  0  0  0  0  0  0
    0.1355   68.7420   64.4033 H   0  0  0  0  0  0  0  0  0  0  0  0
    1.0354   69.3613   65.8973 H   0  0  0  0  0  0  0  0  0  0  0  0
    2.4956   67.4595   64.1731 H   0  0  0  0  0  0  0  0  0  0  0  0
    2.1702   69.1101   63.4940 H   0  0  0  0  0  0  0  0  0  0  0  0
    4.7101   69.0940   63.5814 H   0  0  0  0  0  0  0  0  0  0  0  0
    6.6181   69.9449   64.9212 H   0  0  0  0  0  0  0  0  0  0  0  0
    2.1590   69.2548   66.9617 H   0  0  0  0  0  0  0  0  0  0  0  0
    3.0075   70.0635   69.1413 H   0  0  0  0  0  0  0  0  0  0  0  0
    4.8959   70.9294   70.5168 H   0  0  0  0  0  0  0  0  0  0  0  0
    7.1422   71.2536   69.4918 H   0  0  0  0  0  0  0  0  0  0  0  0
    7.5083   70.7165   67.0875 H   0  0  0  0  0  0  0  0  0  0  0  0
  2  1  2  0
  3  2  1  0
  4  3  2  0
  5  4  1  0
  6  5  2  0
  6  1  1  0
  8  7  2  0
  8  1  1  0
  9  8  1  0
 10  9  1  0
 11 10  2  0
 12 11  1  0
 13 12  2  0
 14 13  1  0
 15 14  2  0
 15 10  1  0
 16 15  1  0
 17 16  2  0
 18 16  1  0
 19  4  1  0
 20 19  1  0
 21 20  1  0
 22 21  1  0
 23 22  1  0
 24 23  1  0
 25 24  2  0
 26 25  1  0
 27 26  2  0
 28 27  1  0
 29 28  2  0
 29 24  1  0
 30 28  1  0
 31 30  2  0
 32 31  1  0
 33 27  1  0
 33 32  2  0
  2 34  1  0
  3 35  1  0
  5 36  1  0
  6 37  1  0
  9 38  1  0
 11 39  1  0
 12 40  1  0
 13 41  1  0
 14 42  1  0
 18 43  1  0
 18 44  1  0
 18 45  1  0
 20 46  1  0
 20 47  1  0
 21 48  1  0
 21 49  1  0
 22 50  1  0
 22 51  1  0
 23 52  1  0
 23 53  1  0
 25 54  1  0
 26 55  1  0
 29 56  1  0
 30 57  1  0
 31 58  1  0
 32 59  1  0
 33 60  1  0
M  CHG  1  24   1
M  END
>  <score>  (5) 
-10.596

$$$$
=
     RDKit          3D

 60 63  0  0  0  0  0  0  0  0999 V2000
    2.9060   60.9350   71.5810 C   0  0  0  0  0  0  0  0  0  0  0  0
    2.3370   61.9840   72.3080 C   0  0  0  0  0  0  0  0  0  0  0  0
    2.0050   63.1760   71.6600 C   0  0  0  0  0  0  0  0  0  0  0  0
    2.2570   63.3380   70.2950 C   0  0  0  0  0  0  0  0  0  0  0  0
    2.8710   62.3080   69.5810 C   0  0  0  0  0  0  0  0  0  0  0  0
    3.1930   61.1060   70.2220 C   0  0  0  0  0  0  0  0  0  0  0  0
    3.7270   58.7530   71.6510 O   0  0  0  0  0  0  0  0  0  0  0  0
    3.1800   59.6490   72.2770 C   0  0  0  0  0  0  0  0  0  0  0  0
    2.8270   59.6500   73.6110 N   0  0  0  0  0  0  0  0  0  0  0  0
    2.9600   58.6100   74.5620 C   0  0  0  0  0  0  0  0  0  0  0  0
    4.1440   58.4150   75.2830 C   0  0  0  0  0  0  0  0  0  0  0  0
    4.2550   57.3780   76.2120 C   0  0  0  0  0  0  0  0  0  0  0  0
    3.1840   56.5190   76.4320 C   0  0  0  0  0  0  0  0  0  0  0  0
    1.9960   56.6920   75.7220 C   0  0  0  0  0  0  0  0  0  0  0  0
    1.8710   57.7290   74.7810 C   0  0  0  0  0  0  0  0  0  0  0  0
    0.5790   57.8980   74.0290 C   0  0  0  0  0  0  0  0  0  0  0  0
    0.0670   59.0140   73.9040 O   0  0  0  0  0  0  0  0  0  0  0  0
   -0.0880   56.6840   73.4310 C   0  0  0  0  0  0  0  0  0  0  0  0
    1.7790   64.5030   69.7640 O   0  0  0  0  0  0  0  0  0  0  0  0
    0.7690   65.2080   70.4800 C   0  0  0  0  0  0  0  0  0  0  0  0
    0.7000   66.6750   70.0540 C   0  0  0  0  0  0  0  0  0  0  0  0
    0.8350   66.9020   68.5410 C   0  0  0  0  0  0  0  0  0  0  0  0
    0.7440   68.3520   68.0570 C   0  0  0  0  0  0  0  0  0  0  0  0
    2.0510   68.8500   67.5520 N   0  0  0  0  0  4  0  0  0  0  0  0
    2.3940   68.6360   66.2620 C   0  0  0  0  0  0  0  0  0  0  0  0
    3.6230   69.0510   65.7700 C   0  0  0  0  0  0  0  0  0  0  0  0
    4.5080   69.7300   66.6070 C   0  0  0  0  0  0  0  0  0  0  0  0
    4.1250   69.9950   67.9350 C   0  0  0  0  0  0  0  0  0  0  0  0
    2.8760   69.5450   68.3720 C   0  0  0  0  0  0  0  0  0  0  0  0
    5.0030   70.6930   68.7810 C   0  0  0  0  0  0  0  0  0  0  0  0
    6.2480   71.1160   68.3130 C   0  0  0  0  0  0  0  0  0  0  0  0
    6.6280   70.8480   67.0010 C   0  0  0  0  0  0  0  0  0  0  0  0
    5.7630   70.1580   66.1510 C   0  0  0  0  0  0  0  0  0  0  0  0
    2.1513   61.8715   73.3864 H   0  0  0  0  0  0  0  0  0  0  0  0
    1.5409   63.9948   72.2294 H   0  0  0  0  0  0  0  0  0  0  0  0
    3.1021   62.4408   68.5138 H   0  0  0  0  0  0  0  0  0  0  0  0
    3.6728   60.2938   69.6561 H   0  0  0  0  0  0  0  0  0  0  0  0
    2.4110   60.5246   73.9617 H   0  0  0  0  0  0  0  0  0  0  0  0
    4.9983   59.0874   75.1157 H   0  0  0  0  0  0  0  0  0  0  0  0
    5.1923   57.2405   76.7711 H   0  0  0  0  0  0  0  0  0  0  0  0
    3.2735   55.7039   77.1652 H   0  0  0  0  0  0  0  0  0  0  0  0
    1.1501   56.0116   75.8997 H   0  0  0  0  0  0  0  0  0  0  0  0
   -0.4480   56.0287   74.2378 H   0  0  0  0  0  0  0  0  0  0  0  0
   -0.9383   57.0016   72.8096 H   0  0  0  0  0  0  0  0  0  0  0  0
    0.6360   56.1366   72.8096 H   0  0  0  0  0  0  0  0  0  0  0  0
   -0.2041   64.7333   70.2858 H   0  0  0  0  0  0  0  0  0  0  0  0
    1.0160   65.1711   71.5513 H   0  0  0  0  0  0  0  0  0  0  0  0
   -0.2690   67.0824   70.3782 H   0  0  0  0  0  0  0  0  0  0  0  0
    1.5560   67.1800   70.5254 H   0  0  0  0  0  0  0  0  0  0  0  0
    1.8131   66.5065   68.2296 H   0  0  0  0  0  0  0  0  0  0  0  0
   -0.0288   66.3902   68.0916 H   0  0  0  0  0  0  0  0  0  0  0  0
    0.0034   68.4105   67.2458 H   0  0  0  0  0  0  0  0  0  0  0  0
    0.4466   68.9788   68.9106 H   0  0  0  0  0  0  0  0  0  0  0  0
    1.6874   68.1247   65.5918 H   0  0  0  0  0  0  0  0  0  0  0  0
    3.8980   68.8455   64.7249 H   0  0  0  0  0  0  0  0  0  0  0  0
    2.5563   69.7594   69.4024 H   0  0  0  0  0  0  0  0  0  0  0  0
    4.7074   70.9074   69.8186 H   0  0  0  0  0  0  0  0  0  0  0  0
    6.9298   71.6618   68.9818 H   0  0  0  0  0  0  0  0  0  0  0  0
    7.6104   71.1802   66.6342 H   0  0  0  0  0  0  0  0  0  0  0  0
    6.0679   69.9482   65.1152 H   0  0  0  0  0  0  0  0  0  0  0  0
  2  1  2  0
  3  2  1  0
  4  3  2  0
  5  4  1  0
  6  5  2  0
  6  1  1  0
  8  7  2  0
  8  1  1  0
  9  8  1  0
 10  9  1  0
 11 10  2  0
 12 11  1  0
 13 12  2  0
 14 13  1  0
 15 14  2  0
 15 10  1  0
 16 15  1  0
 17 16  2  0
 18 16  1  0
 19  4  1  0
 20 19  1  0
 21 20  1  0
 22 21  1  0
 23 22  1  0
 24 23  1  0
 25 24  2  0
 26 25  1  0
 27 26  2  0
 28 27  1  0
 29 28  2  0
 29 24  1  0
 30 28  1  0
 31 30  2  0
 32 31  1  0
 33 27  1  0
 33 32  2  0
  2 34  1  0
  3 35  1  0
  5 36  1  0
  6 37  1  0
  9 38  1  0
 11 39  1  0
 12 40  1  0
 13 41  1  0
 14 42  1  0
 18 43  1  0
 18 44  1  0
 18 45  1  0
 20 46  1  0
 20 47  1  0
 21 48  1  0
 21 49  1  0
 22 50  1  0
 22 51  1  0
 23 52  1  0
 23 53  1  0
 25 54  1  0
 26 55  1  0
 29 56  1  0
 30 57  1  0
 31 58  1  0
 32 59  1  0
 33 60  1  0
M  CHG  1  24   1
M  END
>  <score>  (6) 
-10.48

$$$$
=
     RDKit          3D

 60 63  0  0  0  0  0  0  0  0999 V2000
    0.7250   67.6500   67.1820 C   0  0  0  0  0  0  0  0  0  0  0  0
    1.5310   67.5820   68.3210 C   0  0  0  0  0  0  0  0  0  0  0  0
    1.0380   66.9890   69.4850 C   0  0  0  0  0  0  0  0  0  0  0  0
   -0.2650   66.4830   69.5290 C   0  0  0  0  0  0  0  0  0  0  0  0
   -1.0860   66.5980   68.4060 C   0  0  0  0  0  0  0  0  0  0  0  0
   -0.5920   67.1770   67.2320 C   0  0  0  0  0  0  0  0  0  0  0  0
    0.5540   68.8070   65.1640 O   0  0  0  0  0  0  0  0  0  0  0  0
    1.2990   68.2170   65.9320 C   0  0  0  0  0  0  0  0  0  0  0  0
    2.6650   68.0550   65.8220 N   0  0  0  0  0  0  0  0  0  0  0  0
    3.5260   68.4800   64.7810 C   0  0  0  0  0  0  0  0  0  0  0  0
    3.3360   68.0750   63.4550 C   0  0  0  0  0  0  0  0  0  0  0  0
    4.2010   68.5010   62.4450 C   0  0  0  0  0  0  0  0  0  0  0  0
    5.2710   69.3360   62.7470 C   0  0  0  0  0  0  0  0  0  0  0  0
    5.4810   69.7490   64.0630 C   0  0  0  0  0  0  0  0  0  0  0  0
    4.6210   69.3250   65.0900 C   0  0  0  0  0  0  0  0  0  0  0  0
    4.8670   69.7850   66.5020 C   0  0  0  0  0  0  0  0  0  0  0  0
    3.9280   69.9130   67.2920 O   0  0  0  0  0  0  0  0  0  0  0  0
    6.2780   70.0920   66.9400 C   0  0  0  0  0  0  0  0  0  0  0  0
   -0.5800   65.8290   70.6870 O   0  0  0  0  0  0  0  0  0  0  0  0
    0.4480   65.1050   71.3560 C   0  0  0  0  0  0  0  0  0  0  0  0
    1.0860   64.0600   70.4390 C   0  0  0  0  0  0  0  0  0  0  0  0
    2.4980   63.6260   70.8580 C   0  0  0  0  0  0  0  0  0  0  0  0
    3.1560   62.5320   70.0130 C   0  0  0  0  0  0  0  0  0  0  0  0
    2.9420   61.1790   70.5940 N   0  0  0  0  0  4  0  0  0  0  0  0
    3.6200   60.1230   70.0910 C   0  0  0  0  0  0  0  0  0  0  0  0
    3.4140   58.8420   70.5820 C   0  0  0  0  0  0  0  0  0  0  0  0
    2.5180   58.6400   71.6320 C   0  0  0  0  0  0  0  0  0  0  0  0
    1.8530   59.7510   72.1850 C   0  0  0  0  0  0  0  0  0  0  0  0
    2.1000   61.0150   71.6420 C   0  0  0  0  0  0  0  0  0  0  0  0
    0.9630   59.5600   73.2550 C   0  0  0  0  0  0  0  0  0  0  0  0
    0.7320   58.2810   73.7630 C   0  0  0  0  0  0  0  0  0  0  0  0
    1.3860   57.1830   73.2110 C   0  0  0  0  0  0  0  0  0  0  0  0
    2.2750   57.3600   72.1500 C   0  0  0  0  0  0  0  0  0  0  0  0
    2.5506   67.9942   68.3009 H   0  0  0  0  0  0  0  0  0  0  0  0
    1.6802   66.9192   70.3753 H   0  0  0  0  0  0  0  0  0  0  0  0
   -2.1229   66.2329   68.4441 H   0  0  0  0  0  0  0  0  0  0  0  0
   -1.2394   67.2608   66.3466 H   0  0  0  0  0  0  0  0  0  0  0  0
    3.1193   67.5583   66.6016 H   0  0  0  0  0  0  0  0  0  0  0  0
    2.4943   67.4124   63.2051 H   0  0  0  0  0  0  0  0  0  0  0  0
    4.0355   68.1751   61.4075 H   0  0  0  0  0  0  0  0  0  0  0  0
    5.9509   69.6704   61.9496 H   0  0  0  0  0  0  0  0  0  0  0  0
    6.3267   70.4119   64.2984 H   0  0  0  0  0  0  0  0  0  0  0  0
    6.3267   70.1026   68.0389 H   0  0  0  0  0  0  0  0  0  0  0  0
    6.9589   69.3210   66.5502 H   0  0  0  0  0  0  0  0  0  0  0  0
    6.5770   71.0762   66.5502 H   0  0  0  0  0  0  0  0  0  0  0  0
    1.2239   65.8105   71.6880 H   0  0  0  0  0  0  0  0  0  0  0  0
   -0.0002   64.5831   72.2144 H   0  0  0  0  0  0  0  0  0  0  0  0
    0.4405   63.1693   70.4309 H   0  0  0  0  0  0  0  0  0  0  0  0
    1.1825   64.5286   69.4485 H   0  0  0  0  0  0  0  0  0  0  0  0
    3.1460   64.5140   70.8182 H   0  0  0  0  0  0  0  0  0  0  0  0
    2.3823   63.1889   71.8608 H   0  0  0  0  0  0  0  0  0  0  0  0
    2.7254   62.5568   69.0011 H   0  0  0  0  0  0  0  0  0  0  0  0
    4.2386   62.7252   69.9878 H   0  0  0  0  0  0  0  0  0  0  0  0
    4.3460   60.2820   69.2801 H   0  0  0  0  0  0  0  0  0  0  0  0
    3.9547   57.9894   70.1454 H   0  0  0  0  0  0  0  0  0  0  0  0
    1.6004   61.8944   72.0746 H   0  0  0  0  0  0  0  0  0  0  0  0
    0.4447   60.4245   73.6954 H   0  0  0  0  0  0  0  0  0  0  0  0
    0.0326   58.1403   74.6003 H   0  0  0  0  0  0  0  0  0  0  0  0
    1.2019   56.1752   73.6115 H   0  0  0  0  0  0  0  0  0  0  0  0
    2.7888   56.4891   71.7170 H   0  0  0  0  0  0  0  0  0  0  0  0
  2  1  2  0
  3  2  1  0
  4  3  2  0
  5  4  1  0
  6  5  2  0
  6  1  1  0
  8  7  2  0
  8  1  1  0
  9  8  1  0
 10  9  1  0
 11 10  2  0
 12 11  1  0
 13 12  2  0
 14 13  1  0
 15 14  2  0
 15 10  1  0
 16 15  1  0
 17 16  2  0
 18 16  1  0
 19  4  1  0
 20 19  1  0
 21 20  1  0
 22 21  1  0
 23 22  1  0
 24 23  1  0
 25 24  2  0
 26 25  1  0
 27 26  2  0
 28 27  1  0
 29 28  2  0
 29 24  1  0
 30 28  1  0
 31 30  2  0
 32 31  1  0
 33 27  1  0
 33 32  2  0
  2 34  1  0
  3 35  1  0
  5 36  1  0
  6 37  1  0
  9 38  1  0
 11 39  1  0
 12 40  1  0
 13 41  1  0
 14 42  1  0
 18 43  1  0
 18 44  1  0
 18 45  1  0
 20 46  1  0
 20 47  1  0
 21 48  1  0
 21 49  1  0
 22 50  1  0
 22 51  1  0
 23 52  1  0
 23 53  1  0
 25 54  1  0
 26 55  1  0
 29 56  1  0
 30 57  1  0
 31 58  1  0
 32 59  1  0
 33 60  1  0
M  CHG  1  24   1
M  END
>  <score>  (7) 
-10.304

$$$$
=
     RDKit          3D

 60 63  0  0  0  0  0  0  0  0999 V2000
    1.5590   63.0660   71.9160 C   0  0  0  0  0  0  0  0  0  0  0  0
    0.3690   63.7760   71.7390 C   0  0  0  0  0  0  0  0  0  0  0  0
    0.3210   64.8320   70.8270 C   0  0  0  0  0  0  0  0  0  0  0  0
    1.4600   65.2010   70.1040 C   0  0  0  0  0  0  0  0  0  0  0  0
    2.6610   64.5230   70.3190 C   0  0  0  0  0  0  0  0  0  0  0  0
    2.7110   63.4540   71.2210 C   0  0  0  0  0  0  0  0  0  0  0  0
    2.3090   61.9210   73.8040 O   0  0  0  0  0  0  0  0  0  0  0  0
    1.5640   61.8970   72.8350 C   0  0  0  0  0  0  0  0  0  0  0  0
    0.6460   60.9220   72.5030 N   0  0  0  0  0  0  0  0  0  0  0  0
    0.3780   59.6980   73.1630 C   0  0  0  0  0  0  0  0  0  0  0  0
    1.2160   58.5850   73.0240 C   0  0  0  0  0  0  0  0  0  0  0  0
    0.9280   57.3860   73.6780 C   0  0  0  0  0  0  0  0  0  0  0  0
   -0.2020   57.2800   74.4800 C   0  0  0  0  0  0  0  0  0  0  0  0
   -1.0540   58.3750   74.6290 C   0  0  0  0  0  0  0  0  0  0  0  0
   -0.7800   59.5870   73.9730 C   0  0  0  0  0  0  0  0  0  0  0  0
   -1.7110   60.7550   74.1520 C   0  0  0  0  0  0  0  0  0  0  0  0
   -2.3820   61.1730   73.2030 O   0  0  0  0  0  0  0  0  0  0  0  0
   -1.8150   61.4130   75.5050 C   0  0  0  0  0  0  0  0  0  0  0  0
    1.2470   66.1710   69.1650 O   0  0  0  0  0  0  0  0  0  0  0  0
    0.0060   66.8700   69.1850 C   0  0  0  0  0  0  0  0  0  0  0  0
   -0.6090   66.9620   67.7870 C   0  0  0  0  0  0  0  0  0  0  0  0
   -0.6540   68.3830   67.2080 C   0  0  0  0  0  0  0  0  0  0  0  0
   -0.7620   68.4970   65.6850 C   0  0  0  0  0  0  0  0  0  0  0  0
    0.5750   68.6260   65.0430 N   0  0  0  0  0  4  0  0  0  0  0  0
    0.7000   68.4080   63.7140 C   0  0  0  0  0  0  0  0  0  0  0  0
    1.9380   68.4800   63.0920 C   0  0  0  0  0  0  0  0  0  0  0  0
    3.0680   68.8120   63.8390 C   0  0  0  0  0  0  0  0  0  0  0  0
    2.9230   69.0870   65.2120 C   0  0  0  0  0  0  0  0  0  0  0  0
    1.6500   68.9920   65.7810 C   0  0  0  0  0  0  0  0  0  0  0  0
    4.0530   69.4400   65.9680 C   0  0  0  0  0  0  0  0  0  0  0  0
    5.3110   69.5130   65.3680 C   0  0  0  0  0  0  0  0  0  0  0  0
    5.4540   69.2350   64.0120 C   0  0  0  0  0  0  0  0  0  0  0  0
    4.3380   68.8860   63.2490 C   0  0  0  0  0  0  0  0  0  0  0  0
   -0.5271   63.5040   72.3162 H   0  0  0  0  0  0  0  0  0  0  0  0
   -0.6214   65.3789   70.6757 H   0  0  0  0  0  0  0  0  0  0  0  0
    3.5691   64.8292   69.7790 H   0  0  0  0  0  0  0  0  0  0  0  0
    3.6573   62.9175   71.3843 H   0  0  0  0  0  0  0  0  0  0  0  0
    0.0801   61.1093   71.6630 H   0  0  0  0  0  0  0  0  0  0  0  0
    2.1129   58.6564   72.3912 H   0  0  0  0  0  0  0  0  0  0  0  0
    1.5979   56.5218   73.5582 H   0  0  0  0  0  0  0  0  0  0  0  0
   -0.4244   56.3346   74.9964 H   0  0  0  0  0  0  0  0  0  0  0  0
   -1.9473   58.2887   75.2651 H   0  0  0  0  0  0  0  0  0  0  0  0
   -1.6950   60.6540   76.2921 H   0  0  0  0  0  0  0  0  0  0  0  0
   -1.0258   62.1727   75.6049 H   0  0  0  0  0  0  0  0  0  0  0  0
   -2.8000   61.8923   75.6049 H   0  0  0  0  0  0  0  0  0  0  0  0
   -0.6925   66.3390   69.8484 H   0  0  0  0  0  0  0  0  0  0  0  0
    0.1914   67.8916   69.5481 H   0  0  0  0  0  0  0  0  0  0  0  0
   -0.0159   66.3320   67.1078 H   0  0  0  0  0  0  0  0  0  0  0  0
   -1.6526   66.6268   67.8797 H   0  0  0  0  0  0  0  0  0  0  0  0
   -1.5250   68.8941   67.6440 H   0  0  0  0  0  0  0  0  0  0  0  0
    0.3161   68.8332   67.4656 H   0  0  0  0  0  0  0  0  0  0  0  0
   -1.2586   67.5963   65.2950 H   0  0  0  0  0  0  0  0  0  0  0  0
   -1.3421   69.4018   65.4506 H   0  0  0  0  0  0  0  0  0  0  0  0
   -0.1931   68.1701   63.1175 H   0  0  0  0  0  0  0  0  0  0  0  0
    2.0279   68.2762   62.0148 H   0  0  0  0  0  0  0  0  0  0  0  0
    1.5186   69.2190   66.8493 H   0  0  0  0  0  0  0  0  0  0  0  0
    3.9457   69.6604   67.0403 H   0  0  0  0  0  0  0  0  0  0  0  0
    6.1904   69.7906   65.9676 H   0  0  0  0  0  0  0  0  0  0  0  0
    6.4466   69.2902   63.5411 H   0  0  0  0  0  0  0  0  0  0  0  0
    4.4558   68.6675   62.1774 H   0  0  0  0  0  0  0  0  0  0  0  0
  2  1  2  0
  3  2  1  0
  4  3  2  0
  5  4  1  0
  6  5  2  0
  6  1  1  0
  8  7  2  0
  8  1  1  0
  9  8  1  0
 10  9  1  0
 11 10  2  0
 12 11  1  0
 13 12  2  0
 14 13  1  0
 15 14  2  0
 15 10  1  0
 16 15  1  0
 17 16  2  0
 18 16  1  0
 19  4  1  0
 20 19  1  0
 21 20  1  0
 22 21  1  0
 23 22  1  0
 24 23  1  0
 25 24  2  0
 26 25  1  0
 27 26  2  0
 28 27  1  0
 29 28  2  0
 29 24  1  0
 30 28  1  0
 31 30  2  0
 32 31  1  0
 33 27  1  0
 33 32  2  0
  2 34  1  0
  3 35  1  0
  5 36  1  0
  6 37  1  0
  9 38  1  0
 11 39  1  0
 12 40  1  0
 13 41  1  0
 14 42  1  0
 18 43  1  0
 18 44  1  0
 18 45  1  0
 20 46  1  0
 20 47  1  0
 21 48  1  0
 21 49  1  0
 22 50  1  0
 22 51  1  0
 23 52  1  0
 23 53  1  0
 25 54  1  0
 26 55  1  0
 29 56  1  0
 30 57  1  0
 31 58  1  0
 32 59  1  0
 33 60  1  0
M  CHG  1  24   1
M  END
>  <score>  (8) 
-10.183

$$$$
=
     RDKit          3D

 60 63  0  0  0  0  0  0  0  0999 V2000
   -0.0880   67.6710   67.4100 C   0  0  0  0  0  0  0  0  0  0  0  0
    1.1010   67.8830   68.1120 C   0  0  0  0  0  0  0  0  0  0  0  0
    1.3200   67.2190   69.3210 C   0  0  0  0  0  0  0  0  0  0  0  0
    0.3510   66.3600   69.8470 C   0  0  0  0  0  0  0  0  0  0  0  0
   -0.8570   66.1880   69.1690 C   0  0  0  0  0  0  0  0  0  0  0  0
   -1.0760   66.8390   67.9500 C   0  0  0  0  0  0  0  0  0  0  0  0
   -1.2180   69.0810   65.9350 O   0  0  0  0  0  0  0  0  0  0  0  0
   -0.2650   68.3310   66.0890 C   0  0  0  0  0  0  0  0  0  0  0  0
    0.7420   68.0530   65.1870 N   0  0  0  0  0  0  0  0  0  0  0  0
    0.8930   68.5190   63.8580 C   0  0  0  0  0  0  0  0  0  0  0  0
   -0.1870   69.0260   63.1260 C   0  0  0  0  0  0  0  0  0  0  0  0
   -0.0150   69.4740   61.8140 C   0  0  0  0  0  0  0  0  0  0  0  0
    1.2380   69.4200   61.2150 C   0  0  0  0  0  0  0  0  0  0  0  0
    2.3270   68.9160   61.9250 C   0  0  0  0  0  0  0  0  0  0  0  0
    2.1690   68.4570   63.2440 C   0  0  0  0  0  0  0  0  0  0  0  0
    3.3600   67.9200   63.9920 C   0  0  0  0  0  0  0  0  0  0  0  0
    3.5490   66.7030   64.0780 O   0  0  0  0  0  0  0  0  0  0  0  0
    4.3210   68.8870   64.6380 C   0  0  0  0  0  0  0  0  0  0  0  0
    0.7390   65.6870   70.9720 O   0  0  0  0  0  0  0  0  0  0  0  0
    1.1100   64.3180   70.8460 C   0  0  0  0  0  0  0  0  0  0  0  0
    2.5240   64.1690   70.2810 C   0  0  0  0  0  0  0  0  0  0  0  0
    3.3740   63.0970   70.9780 C   0  0  0  0  0  0  0  0  0  0  0  0
    3.7060   61.8480   70.1570 C   0  0  0  0  0  0  0  0  0  0  0  0
    3.2330   60.6050   70.8240 N   0  0  0  0  0  4  0  0  0  0  0  0
    3.8090   59.4210   70.5160 C   0  0  0  0  0  0  0  0  0  0  0  0
    3.3640   58.2390   71.0890 C   0  0  0  0  0  0  0  0  0  0  0  0
    2.3290   58.2700   72.0220 C   0  0  0  0  0  0  0  0  0  0  0  0
    1.7660   59.5110   72.3760 C   0  0  0  0  0  0  0  0  0  0  0  0
    2.2540   60.6660   71.7590 C   0  0  0  0  0  0  0  0  0  0  0  0
    0.7340   59.5540   73.3290 C   0  0  0  0  0  0  0  0  0  0  0  0
    0.2640   58.3780   73.9150 C   0  0  0  0  0  0  0  0  0  0  0  0
    0.8160   57.1510   73.5590 C   0  0  0  0  0  0  0  0  0  0  0  0
    1.8440   57.0960   72.6160 C   0  0  0  0  0  0  0  0  0  0  0  0
    1.8620   68.5704   67.7140 H   0  0  0  0  0  0  0  0  0  0  0  0
    2.2639   67.3735   69.8643 H   0  0  0  0  0  0  0  0  0  0  0  0
   -1.6378   65.5398   69.5936 H   0  0  0  0  0  0  0  0  0  0  0  0
   -2.0265   66.6968   67.4148 H   0  0  0  0  0  0  0  0  0  0  0  0
    1.4827   67.4224   65.5256 H   0  0  0  0  0  0  0  0  0  0  0  0
   -1.1835   69.0722   63.5895 H   0  0  0  0  0  0  0  0  0  0  0  0
   -0.8741   69.8708   61.2532 H   0  0  0  0  0  0  0  0  0  0  0  0
    1.3704   69.7744   60.1821 H   0  0  0  0  0  0  0  0  0  0  0  0
    3.3179   68.8773   61.4489 H   0  0  0  0  0  0  0  0  0  0  0  0
    4.2415   68.8070   65.7322 H   0  0  0  0  0  0  0  0  0  0  0  0
    5.3481   68.6464   64.3264 H   0  0  0  0  0  0  0  0  0  0  0  0
    4.0740   69.9126   64.3264 H   0  0  0  0  0  0  0  0  0  0  0  0
    1.0699   63.8442   71.8379 H   0  0  0  0  0  0  0  0  0  0  0  0
    0.4083   63.8332   70.1513 H   0  0  0  0  0  0  0  0  0  0  0  0
    2.4433   63.9058   69.2160 H   0  0  0  0  0  0  0  0  0  0  0  0
    3.0321   65.1304   70.4469 H   0  0  0  0  0  0  0  0  0  0  0  0
    4.3246   63.5646   71.2742 H   0  0  0  0  0  0  0  0  0  0  0  0
    2.7599   62.7389   71.8174 H   0  0  0  0  0  0  0  0  0  0  0  0
    3.2217   61.9300   69.1728 H   0  0  0  0  0  0  0  0  0  0  0  0
    4.7997   61.7864   70.0563 H   0  0  0  0  0  0  0  0  0  0  0  0
    4.6435   59.3949   69.7998 H   0  0  0  0  0  0  0  0  0  0  0  0
    3.8260   57.2810   70.8083 H   0  0  0  0  0  0  0  0  0  0  0  0
    1.8351   61.6441   72.0378 H   0  0  0  0  0  0  0  0  0  0  0  0
    0.2940   60.5208   73.6148 H   0  0  0  0  0  0  0  0  0  0  0  0
   -0.5444   58.4209   74.6598 H   0  0  0  0  0  0  0  0  0  0  0  0
    0.4425   56.2250   74.0204 H   0  0  0  0  0  0  0  0  0  0  0  0
    2.2769   56.1241   72.3368 H   0  0  0  0  0  0  0  0  0  0  0  0
  2  1  2  0
  3  2  1  0
  4  3  2  0
  5  4  1  0
  6  5  2  0
  6  1  1  0
  8  7  2  0
  8  1  1  0
  9  8  1  0
 10  9  1  0
 11 10  2  0
 12 11  1  0
 13 12  2  0
 14 13  1  0
 15 14  2  0
 15 10  1  0
 16 15  1  0
 17 16  2  0
 18 16  1  0
 19  4  1  0
 20 19  1  0
 21 20  1  0
 22 21  1  0
 23 22  1  0
 24 23  1  0
 25 24  2  0
 26 25  1  0
 27 26  2  0
 28 27  1  0
 29 28  2  0
 29 24  1  0
 30 28  1  0
 31 30  2  0
 32 31  1  0
 33 27  1  0
 33 32  2  0
  2 34  1  0
  3 35  1  0
  5 36  1  0
  6 37  1  0
  9 38  1  0
 11 39  1  0
 12 40  1  0
 13 41  1  0
 14 42  1  0
 18 43  1  0
 18 44  1  0
 18 45  1  0
 20 46  1  0
 20 47  1  0
 21 48  1  0
 21 49  1  0
 22 50  1  0
 22 51  1  0
 23 52  1  0
 23 53  1  0
 25 54  1  0
 26 55  1  0
 29 56  1  0
 30 57  1  0
 31 58  1  0
 32 59  1  0
 33 60  1  0
M  CHG  1  24   1
M  END
>  <score>  (9) 
-10.176

$$$$
