=
     RDKit          3D

 34 35  0  0  0  0  0  0  0  0999 V2000
    3.7050   68.1790   64.2850 C   0  0  0  0  0  0  0  0  0  0  0  0
    4.0850   67.0190   64.4110 O   0  0  0  0  0  0  0  0  0  0  0  0
    0.0020   68.8240   63.6920 C   0  0  0  0  0  0  0  0  0  0  0  0
    0.0210   69.1930   62.3460 C   0  0  0  0  0  0  0  0  0  0  0  0
    1.2280   69.2200   61.6440 C   0  0  0  0  0  0  0  0  0  0  0  0
    2.4190   68.8820   62.2850 C   0  0  0  0  0  0  0  0  0  0  0  0
    2.4110   68.5120   63.6360 C   0  0  0  0  0  0  0  0  0  0  0  0
    1.1980   68.4840   64.3340 C   0  0  0  0  0  0  0  0  0  0  0  0
   -0.8890   68.7070   65.8960 C   0  0  0  0  0  0  0  0  0  0  0  0
   -1.1080   68.7600   64.4910 O   0  0  0  0  0  0  0  0  0  0  0  0
    4.6050   69.2870   64.7750 C   0  0  0  0  0  0  0  0  0  0  0  0
    5.4110   69.7700   63.9880 O   0  0  0  0  0  0  0  0  0  0  0  0
    4.5200   69.7330   66.1900 C   0  0  0  0  0  0  0  0  0  0  0  0
    3.3860   69.5080   66.9760 C   0  0  0  0  0  0  0  0  0  0  0  0
    3.3650   69.9360   68.3050 C   0  0  0  0  0  0  0  0  0  0  0  0
    4.4720   70.5870   68.8550 C   0  0  0  0  0  0  0  0  0  0  0  0
    5.6080   70.8170   68.0780 C   0  0  0  0  0  0  0  0  0  0  0  0
    5.6270   70.3890   66.7490 C   0  0  0  0  0  0  0  0  0  0  0  0
    6.7520   71.4380   68.4940 O   0  0  0  0  0  0  0  0  0  0  0  0
    7.4800   70.8180   69.5470 C   0  0  0  0  0  0  0  0  0  0  0  0
   -0.9162   69.4630   61.8374 H   0  0  0  0  0  0  0  0  0  0  0  0
    1.2390   69.5087   60.5826 H   0  0  0  0  0  0  0  0  0  0  0  0
    3.3675   68.9059   61.7284 H   0  0  0  0  0  0  0  0  0  0  0  0
    1.1848   68.1927   65.3946 H   0  0  0  0  0  0  0  0  0  0  0  0
   -1.8278   68.9342   66.4223 H   0  0  0  0  0  0  0  0  0  0  0  0
   -0.5462   67.7000   66.1759 H   0  0  0  0  0  0  0  0  0  0  0  0
   -0.1237   69.4459   66.1759 H   0  0  0  0  0  0  0  0  0  0  0  0
    2.5120   68.9948   66.5484 H   0  0  0  0  0  0  0  0  0  0  0  0
    2.4718   69.7596   68.9223 H   0  0  0  0  0  0  0  0  0  0  0  0
    4.4480   70.9192   69.9034 H   0  0  0  0  0  0  0  0  0  0  0  0
    6.5205   70.5683   66.1330 H   0  0  0  0  0  0  0  0  0  0  0  0
    7.0832   71.1560   70.5157 H   0  0  0  0  0  0  0  0  0  0  0  0
    7.3776   69.7255   69.4698 H   0  0  0  0  0  0  0  0  0  0  0  0
    8.5423   71.0931   69.4698 H   0  0  0  0  0  0  0  0  0  0  0  0
  2  1  2  0
  4  3  2  0
  5  4  1  0
  6  5  2  0
  7  6  1  0
  7  1  1  0
  8  7  2  0
  8  3  1  0
 10  3  1  0
 10  9  1  0
 11  1  1  0
 12 11  2  0
 13 11  1  0
 14 13  2  0
 15 14  1  0
 16 15  2  0
 17 16  1  0
 18 13  1  0
 18 17  2  0
 19 17  1  0
 20 19  1  0
  4 21  1  0
  5 22  1  0
  6 23  1  0
  8 24  1  0
  9 25  1  0
  9 26  1  0
  9 27  1  0
 14 28  1  0
 15 29  1  0
 16 30  1  0
 18 31  1  0
 20 32  1  0
 20 33  1  0
 20 34  1  0
M  END
>  <score>  (1) 
-9.469

$$$$
=
     RDKit          3D

 34 35  0  0  0  0  0  0  0  0999 V2000
    4.6710   69.2840   64.7490 C   0  0  0  0  0  0  0  0  0  0  0  0
    5.4490   69.7530   63.9240 O   0  0  0  0  0  0  0  0  0  0  0  0
    5.6800   70.8510   68.0660 C   0  0  0  0  0  0  0  0  0  0  0  0
    4.5270   70.6190   68.8170 C   0  0  0  0  0  0  0  0  0  0  0  0
    3.4410   69.9520   68.2460 C   0  0  0  0  0  0  0  0  0  0  0  0
    3.5030   69.5170   66.9230 C   0  0  0  0  0  0  0  0  0  0  0  0
    4.6550   69.7450   66.1600 C   0  0  0  0  0  0  0  0  0  0  0  0
    5.7410   70.4130   66.7380 C   0  0  0  0  0  0  0  0  0  0  0  0
    7.5530   70.8580   69.5350 C   0  0  0  0  0  0  0  0  0  0  0  0
    6.8070   71.4930   68.5030 O   0  0  0  0  0  0  0  0  0  0  0  0
    3.7370   68.1820   64.3080 C   0  0  0  0  0  0  0  0  0  0  0  0
    4.0770   67.0220   64.5060 O   0  0  0  0  0  0  0  0  0  0  0  0
    2.4640   68.5260   63.6230 C   0  0  0  0  0  0  0  0  0  0  0  0
    2.4170   68.8750   62.2700 C   0  0  0  0  0  0  0  0  0  0  0  0
    1.1910   69.1740   61.6710 C   0  0  0  0  0  0  0  0  0  0  0  0
    0.0110   69.1270   62.4180 C   0  0  0  0  0  0  0  0  0  0  0  0
    0.0480   68.7810   63.7690 C   0  0  0  0  0  0  0  0  0  0  0  0
    1.2750   68.4820   64.3650 C   0  0  0  0  0  0  0  0  0  0  0  0
   -1.0290   68.6970   64.6050 O   0  0  0  0  0  0  0  0  0  0  0  0
   -0.7660   68.7040   66.0030 C   0  0  0  0  0  0  0  0  0  0  0  0
    4.4734   70.9621   69.8607 H   0  0  0  0  0  0  0  0  0  0  0  0
    2.5344   69.7694   68.8417 H   0  0  0  0  0  0  0  0  0  0  0  0
    2.6446   68.9932   66.4771 H   0  0  0  0  0  0  0  0  0  0  0  0
    6.6489   70.5950   66.1442 H   0  0  0  0  0  0  0  0  0  0  0  0
    7.1725   71.1819   70.5149 H   0  0  0  0  0  0  0  0  0  0  0  0
    7.4494   69.7667   69.4439 H   0  0  0  0  0  0  0  0  0  0  0  0
    8.6138   71.1345   69.4439 H   0  0  0  0  0  0  0  0  0  0  0  0
    3.3435   68.9141   61.6784 H   0  0  0  0  0  0  0  0  0  0  0  0
    1.1543   69.4477   60.6062 H   0  0  0  0  0  0  0  0  0  0  0  0
   -0.9506   69.3637   61.9391 H   0  0  0  0  0  0  0  0  0  0  0  0
    1.3092   68.2085   65.4299 H   0  0  0  0  0  0  0  0  0  0  0  0
   -1.7171   68.6787   66.5551 H   0  0  0  0  0  0  0  0  0  0  0  0
   -0.1649   67.8215   66.2674 H   0  0  0  0  0  0  0  0  0  0  0  0
   -0.2127   69.6172   66.2674 H   0  0  0  0  0  0  0  0  0  0  0  0
  2  1  2  0
  4  3  2  0
  5  4  1  0
  6  5  2  0
  7  6  1  0
  7  1  1  0
  8  7  2  0
  8  3  1  0
 10  3  1  0
 10  9  1  0
 11  1  1  0
 12 11  2  0
 13 11  1  0
 14 13  2  0
 15 14  1  0
 16 15  2  0
 17 16  1  0
 18 13  1  0
 18 17  2  0
 19 17  1  0
 20 19  1  0
  4 21  1  0
  5 22  1  0
  6 23  1  0
  8 24  1  0
  9 25  1  0
  9 26  1  0
  9 27  1  0
 14 28  1  0
 15 29  1  0
 16 30  1  0
 18 31  1  0
 20 32  1  0
 20 33  1  0
 20 34  1  0
M  END
>  <score>  (2) 
-9.456

$$$$
=
     RDKit          3D

 34 35  0  0  0  0  0  0  0  0999 V2000
    1.3190   68.8850   67.0040 C   0  0  0  0  0  0  0  0  0  0  0  0
    0.2640   69.2230   67.5320 O   0  0  0  0  0  0  0  0  0  0  0  0
    4.9440   70.0420   66.9990 C   0  0  0  0  0  0  0  0  0  0  0  0
    5.0330   70.6000   68.2750 C   0  0  0  0  0  0  0  0  0  0  0  0
    3.9250   70.5880   69.1250 C   0  0  0  0  0  0  0  0  0  0  0  0
    2.7240   70.0210   68.7010 C   0  0  0  0  0  0  0  0  0  0  0  0
    2.6230   69.4600   67.4220 C   0  0  0  0  0  0  0  0  0  0  0  0
    3.7370   69.4730   66.5760 C   0  0  0  0  0  0  0  0  0  0  0  0
    5.5900   69.6160   64.7490 C   0  0  0  0  0  0  0  0  0  0  0  0
    5.9500   69.9930   66.0720 O   0  0  0  0  0  0  0  0  0  0  0  0
    1.2680   67.8840   65.8750 C   0  0  0  0  0  0  0  0  0  0  0  0
    1.4310   66.6990   66.1430 O   0  0  0  0  0  0  0  0  0  0  0  0
    1.0600   68.3560   64.4810 C   0  0  0  0  0  0  0  0  0  0  0  0
   -0.1240   68.9770   64.0730 C   0  0  0  0  0  0  0  0  0  0  0  0
   -0.2620   69.4140   62.7540 C   0  0  0  0  0  0  0  0  0  0  0  0
    0.7800   69.2370   61.8390 C   0  0  0  0  0  0  0  0  0  0  0  0
    1.9640   68.6170   62.2360 C   0  0  0  0  0  0  0  0  0  0  0  0
    2.0990   68.1790   63.5560 C   0  0  0  0  0  0  0  0  0  0  0  0
    3.0530   68.3840   61.4440 O   0  0  0  0  0  0  0  0  0  0  0  0
    4.1020   67.5990   61.9980 C   0  0  0  0  0  0  0  0  0  0  0  0
    5.9782   71.0504   68.6121 H   0  0  0  0  0  0  0  0  0  0  0  0
    4.0000   71.0267   70.1309 H   0  0  0  0  0  0  0  0  0  0  0  0
    1.8532   70.0143   69.3731 H   0  0  0  0  0  0  0  0  0  0  0  0
    3.6640   69.0327   65.5706 H   0  0  0  0  0  0  0  0  0  0  0  0
    4.8308   68.8210   64.7880 H   0  0  0  0  0  0  0  0  0  0  0  0
    5.1808   70.4880   64.2178 H   0  0  0  0  0  0  0  0  0  0  0  0
    6.4799   69.2474   64.2178 H   0  0  0  0  0  0  0  0  0  0  0  0
   -0.9457   69.1212   64.7899 H   0  0  0  0  0  0  0  0  0  0  0  0
   -1.1953   69.9000   62.4333 H   0  0  0  0  0  0  0  0  0  0  0  0
    0.6654   69.5879   60.8028 H   0  0  0  0  0  0  0  0  0  0  0  0
    3.0315   67.6895   63.8734 H   0  0  0  0  0  0  0  0  0  0  0  0
    4.0490   67.6387   63.0960 H   0  0  0  0  0  0  0  0  0  0  0  0
    3.9960   66.5566   61.6632 H   0  0  0  0  0  0  0  0  0  0  0  0
    5.0722   67.9948   61.6632 H   0  0  0  0  0  0  0  0  0  0  0  0
  2  1  2  0
  4  3  2  0
  5  4  1  0
  6  5  2  0
  7  6  1  0
  7  1  1  0
  8  7  2  0
  8  3  1  0
 10  3  1  0
 10  9  1  0
 11  1  1  0
 12 11  2  0
 13 11  1  0
 14 13  2  0
 15 14  1  0
 16 15  2  0
 17 16  1  0
 18 13  1  0
 18 17  2  0
 19 17  1  0
 20 19  1  0
  4 21  1  0
  5 22  1  0
  6 23  1  0
  8 24  1  0
  9 25  1  0
  9 26  1  0
  9 27  1  0
 14 28  1  0
 15 29  1  0
 16 30  1  0
 18 31  1  0
 20 32  1  0
 20 33  1  0
 20 34  1  0
M  END
>  <score>  (3) 
-9.121

$$$$
=
     RDKit          3D

 34 35  0  0  0  0  0  0  0  0999 V2000
    2.2660   69.0960   66.9180 C   0  0  0  0  0  0  0  0  0  0  0  0
    1.4420   69.5250   67.7190 O   0  0  0  0  0  0  0  0  0  0  0  0
    5.5800   70.6740   67.9230 C   0  0  0  0  0  0  0  0  0  0  0  0
    6.3090   70.5010   66.7460 C   0  0  0  0  0  0  0  0  0  0  0  0
    5.7200   69.8850   65.6400 C   0  0  0  0  0  0  0  0  0  0  0  0
    4.4010   69.4380   65.7070 C   0  0  0  0  0  0  0  0  0  0  0  0
    3.6610   69.6050   66.8830 C   0  0  0  0  0  0  0  0  0  0  0  0
    4.2560   70.2250   67.9880 C   0  0  0  0  0  0  0  0  0  0  0  0
    7.2360   70.7270   69.6300 C   0  0  0  0  0  0  0  0  0  0  0  0
    6.0380   71.2550   69.0740 O   0  0  0  0  0  0  0  0  0  0  0  0
    1.8240   68.0480   65.9250 C   0  0  0  0  0  0  0  0  0  0  0  0
    2.0370   66.8710   66.1920 O   0  0  0  0  0  0  0  0  0  0  0  0
    1.1850   68.4640   64.6500 C   0  0  0  0  0  0  0  0  0  0  0  0
   -0.1730   68.7850   64.5680 C   0  0  0  0  0  0  0  0  0  0  0  0
   -0.7210   69.1850   63.3470 C   0  0  0  0  0  0  0  0  0  0  0  0
    0.0830   69.2690   62.2070 C   0  0  0  0  0  0  0  0  0  0  0  0
    1.4390   68.9500   62.2790 C   0  0  0  0  0  0  0  0  0  0  0  0
    1.9830   68.5490   63.5010 C   0  0  0  0  0  0  0  0  0  0  0  0
    2.3290   68.9920   61.2430 O   0  0  0  0  0  0  0  0  0  0  0  0
    3.6750   68.6320   61.5310 C   0  0  0  0  0  0  0  0  0  0  0  0
    7.3504   70.8508   66.6892 H   0  0  0  0  0  0  0  0  0  0  0  0
    6.2980   69.7520   64.7136 H   0  0  0  0  0  0  0  0  0  0  0  0
    3.9410   68.9529   64.8334 H   0  0  0  0  0  0  0  0  0  0  0  0
    3.6786   70.3603   68.9144 H   0  0  0  0  0  0  0  0  0  0  0  0
    7.1739   70.7544   70.7279 H   0  0  0  0  0  0  0  0  0  0  0  0
    7.3681   69.6873   69.2960 H   0  0  0  0  0  0  0  0  0  0  0  0
    8.0925   71.3310   69.2960 H   0  0  0  0  0  0  0  0  0  0  0  0
   -0.8089   68.7227   65.4634 H   0  0  0  0  0  0  0  0  0  0  0  0
   -1.7903   69.4350   63.2825 H   0  0  0  0  0  0  0  0  0  0  0  0
   -0.3550   69.5878   61.2496 H   0  0  0  0  0  0  0  0  0  0  0  0
    3.0519   68.2965   63.5626 H   0  0  0  0  0  0  0  0  0  0  0  0
    3.8191   68.5935   62.6208 H   0  0  0  0  0  0  0  0  0  0  0  0
    3.8912   67.6445   61.0974 H   0  0  0  0  0  0  0  0  0  0  0  0
    4.3553   69.3797   61.0974 H   0  0  0  0  0  0  0  0  0  0  0  0
  2  1  2  0
  4  3  2  0
  5  4  1  0
  6  5  2  0
  7  6  1  0
  7  1  1  0
  8  7  2  0
  8  3  1  0
 10  3  1  0
 10  9  1  0
 11  1  1  0
 12 11  2  0
 13 11  1  0
 14 13  2  0
 15 14  1  0
 16 15  2  0
 17 16  1  0
 18 13  1  0
 18 17  2  0
 19 17  1  0
 20 19  1  0
  4 21  1  0
  5 22  1  0
  6 23  1  0
  8 24  1  0
  9 25  1  0
  9 26  1  0
  9 27  1  0
 14 28  1  0
 15 29  1  0
 16 30  1  0
 18 31  1  0
 20 32  1  0
 20 33  1  0
 20 34  1  0
M  END
>  <score>  (4) 
-9.082

$$$$
=
     RDKit          3D

 34 35  0  0  0  0  0  0  0  0999 V2000
    1.7340   68.5220   65.4010 C   0  0  0  0  0  0  0  0  0  0  0  0
    1.1610   69.2170   64.5680 O   0  0  0  0  0  0  0  0  0  0  0  0
    4.7180   70.0060   67.2370 C   0  0  0  0  0  0  0  0  0  0  0  0
    4.1440   70.2690   68.4820 C   0  0  0  0  0  0  0  0  0  0  0  0
    2.8040   69.9560   68.7160 C   0  0  0  0  0  0  0  0  0  0  0  0
    2.0320   69.3820   67.7070 C   0  0  0  0  0  0  0  0  0  0  0  0
    2.5970   69.1150   66.4540 C   0  0  0  0  0  0  0  0  0  0  0  0
    3.9420   69.4300   66.2250 C   0  0  0  0  0  0  0  0  0  0  0  0
    6.9050   70.6510   67.9180 C   0  0  0  0  0  0  0  0  0  0  0  0
    6.0130   70.2670   66.8790 O   0  0  0  0  0  0  0  0  0  0  0  0
    1.5750   67.0230   65.3170 C   0  0  0  0  0  0  0  0  0  0  0  0
    0.5520   66.5230   65.7690 O   0  0  0  0  0  0  0  0  0  0  0  0
    2.6640   66.1990   64.7300 C   0  0  0  0  0  0  0  0  0  0  0  0
    2.8800   64.8710   65.1090 C   0  0  0  0  0  0  0  0  0  0  0  0
    3.9080   64.1360   64.5150 C   0  0  0  0  0  0  0  0  0  0  0  0
    4.7230   64.7220   63.5420 C   0  0  0  0  0  0  0  0  0  0  0  0
    4.5160   66.0470   63.1580 C   0  0  0  0  0  0  0  0  0  0  0  0
    3.4870   66.7790   63.7550 C   0  0  0  0  0  0  0  0  0  0  0  0
    5.2370   66.7340   62.2230 O   0  0  0  0  0  0  0  0  0  0  0  0
    5.3690   68.1370   62.4080 C   0  0  0  0  0  0  0  0  0  0  0  0
    4.7489   70.7238   69.2803 H   0  0  0  0  0  0  0  0  0  0  0  0
    2.3560   70.1628   69.6991 H   0  0  0  0  0  0  0  0  0  0  0  0
    0.9761   69.1382   67.8958 H   0  0  0  0  0  0  0  0  0  0  0  0
    4.3917   69.2232   65.2427 H   0  0  0  0  0  0  0  0  0  0  0  0
    6.4391   70.4504   68.8940 H   0  0  0  0  0  0  0  0  0  0  0  0
    7.8381   70.0748   67.8318 H   0  0  0  0  0  0  0  0  0  0  0  0
    7.1278   71.7247   67.8318 H   0  0  0  0  0  0  0  0  0  0  0  0
    2.2411   64.4056   65.8740 H   0  0  0  0  0  0  0  0  0  0  0  0
    4.0773   63.0911   64.8141 H   0  0  0  0  0  0  0  0  0  0  0  0
    5.5301   64.1364   63.0777 H   0  0  0  0  0  0  0  0  0  0  0  0
    3.3204   67.8244   63.4560 H   0  0  0  0  0  0  0  0  0  0  0  0
    5.3904   68.3645   63.4840 H   0  0  0  0  0  0  0  0  0  0  0  0
    6.3036   68.4820   61.9416 H   0  0  0  0  0  0  0  0  0  0  0  0
    4.5152   68.6503   61.9416 H   0  0  0  0  0  0  0  0  0  0  0  0
  2  1  2  0
  4  3  2  0
  5  4  1  0
  6  5  2  0
  7  6  1  0
  7  1  1  0
  8  7  2  0
  8  3  1  0
 10  3  1  0
 10  9  1  0
 11  1  1  0
 12 11  2  0
 13 11  1  0
 14 13  2  0
 15 14  1  0
 16 15  2  0
 17 16  1  0
 18 13  1  0
 18 17  2  0
 19 17  1  0
 20 19  1  0
  4 21  1  0
  5 22  1  0
  6 23  1  0
  8 24  1  0
  9 25  1  0
  9 26  1  0
  9 27  1  0
 14 28  1  0
 15 29  1  0
 16 30  1  0
 18 31  1  0
 20 32  1  0
 20 33  1  0
 20 34  1  0
M  END
>  <score>  (5) 
-8.949

$$$$
=
     RDKit          3D

 34 35  0  0  0  0  0  0  0  0999 V2000
    2.2960   69.0800   66.8800 C   0  0  0  0  0  0  0  0  0  0  0  0
    1.3810   69.6230   67.4910 O   0  0  0  0  0  0  0  0  0  0  0  0
    5.5960   70.4710   68.1670 C   0  0  0  0  0  0  0  0  0  0  0  0
    6.3380   70.4960   66.9850 C   0  0  0  0  0  0  0  0  0  0  0  0
    5.7610   70.0720   65.7860 C   0  0  0  0  0  0  0  0  0  0  0  0
    4.4430   69.6190   65.7640 C   0  0  0  0  0  0  0  0  0  0  0  0
    3.6900   69.5880   66.9440 C   0  0  0  0  0  0  0  0  0  0  0  0
    4.2720   70.0170   68.1430 C   0  0  0  0  0  0  0  0  0  0  0  0
    7.4400   70.7540   69.6430 C   0  0  0  0  0  0  0  0  0  0  0  0
    6.0420   70.8540   69.4030 O   0  0  0  0  0  0  0  0  0  0  0  0
    1.9720   67.8840   66.0170 C   0  0  0  0  0  0  0  0  0  0  0  0
    1.2550   67.0080   66.4870 O   0  0  0  0  0  0  0  0  0  0  0  0
    2.5520   67.7820   64.6530 C   0  0  0  0  0  0  0  0  0  0  0  0
    2.2370   68.6910   63.6390 C   0  0  0  0  0  0  0  0  0  0  0  0
    2.8210   68.5580   62.3780 C   0  0  0  0  0  0  0  0  0  0  0  0
    3.7220   67.5200   62.1240 C   0  0  0  0  0  0  0  0  0  0  0  0
    4.0420   66.6070   63.1290 C   0  0  0  0  0  0  0  0  0  0  0  0
    3.4550   66.7420   64.3890 C   0  0  0  0  0  0  0  0  0  0  0  0
    4.9040   65.5530   63.0110 O   0  0  0  0  0  0  0  0  0  0  0  0
    4.6530   64.4160   63.8270 C   0  0  0  0  0  0  0  0  0  0  0  0
    7.3793   70.8504   66.9979 H   0  0  0  0  0  0  0  0  0  0  0  0
    6.3484   70.0956   64.8562 H   0  0  0  0  0  0  0  0  0  0  0  0
    3.9934   69.2850   64.8173 H   0  0  0  0  0  0  0  0  0  0  0  0
    3.6846   69.9972   69.0728 H   0  0  0  0  0  0  0  0  0  0  0  0
    7.6259   70.7407   70.7271 H   0  0  0  0  0  0  0  0  0  0  0  0
    7.8237   69.8261   69.1938 H   0  0  0  0  0  0  0  0  0  0  0  0
    7.9519   71.6178   69.1938 H   0  0  0  0  0  0  0  0  0  0  0  0
    1.5296   69.5104   63.8344 H   0  0  0  0  0  0  0  0  0  0  0  0
    2.5710   69.2733   61.5806 H   0  0  0  0  0  0  0  0  0  0  0  0
    4.1801   67.4228   61.1287 H   0  0  0  0  0  0  0  0  0  0  0  0
    3.7040   66.0238   65.1841 H   0  0  0  0  0  0  0  0  0  0  0  0
    4.7166   64.7040   64.8867 H   0  0  0  0  0  0  0  0  0  0  0  0
    3.6471   64.0258   63.6128 H   0  0  0  0  0  0  0  0  0  0  0  0
    5.4011   63.6386   63.6128 H   0  0  0  0  0  0  0  0  0  0  0  0
  2  1  2  0
  4  3  2  0
  5  4  1  0
  6  5  2  0
  7  6  1  0
  7  1  1  0
  8  7  2  0
  8  3  1  0
 10  3  1  0
 10  9  1  0
 11  1  1  0
 12 11  2  0
 13 11  1  0
 14 13  2  0
 15 14  1  0
 16 15  2  0
 17 16  1  0
 18 13  1  0
 18 17  2  0
 19 17  1  0
 20 19  1  0
  4 21  1  0
  5 22  1  0
  6 23  1  0
  8 24  1  0
  9 25  1  0
  9 26  1  0
  9 27  1  0
 14 28  1  0
 15 29  1  0
 16 30  1  0
 18 31  1  0
 20 32  1  0
 20 33  1  0
 20 34  1  0
M  END
>  <score>  (6) 
-8.736

$$$$
=
     RDKit          3D

 34 35  0  0  0  0  0  0  0  0999 V2000
    1.5120   67.8630   66.1280 C   0  0  0  0  0  0  0  0  0  0  0  0
    0.8660   66.9980   66.7100 O   0  0  0  0  0  0  0  0  0  0  0  0
    4.5630   69.9550   67.0190 C   0  0  0  0  0  0  0  0  0  0  0  0
    4.1670   70.4650   68.2570 C   0  0  0  0  0  0  0  0  0  0  0  0
    2.9250   70.1200   68.7920 C   0  0  0  0  0  0  0  0  0  0  0  0
    2.0730   69.2670   68.0920 C   0  0  0  0  0  0  0  0  0  0  0  0
    2.4590   68.7510   66.8490 C   0  0  0  0  0  0  0  0  0  0  0  0
    3.7060   69.0990   66.3180 C   0  0  0  0  0  0  0  0  0  0  0  0
    6.7970   70.7580   67.1760 C   0  0  0  0  0  0  0  0  0  0  0  0
    5.7470   70.2170   66.3840 O   0  0  0  0  0  0  0  0  0  0  0  0
    1.3010   68.0390   64.6430 C   0  0  0  0  0  0  0  0  0  0  0  0
    0.1840   68.3560   64.2510 O   0  0  0  0  0  0  0  0  0  0  0  0
    2.4250   67.7900   63.7040 C   0  0  0  0  0  0  0  0  0  0  0  0
    2.7800   68.7040   62.7080 C   0  0  0  0  0  0  0  0  0  0  0  0
    3.8550   68.4280   61.8610 C   0  0  0  0  0  0  0  0  0  0  0  0
    4.5810   67.2420   62.0050 C   0  0  0  0  0  0  0  0  0  0  0  0
    4.2330   66.3230   62.9950 C   0  0  0  0  0  0  0  0  0  0  0  0
    3.1570   66.6020   63.8410 C   0  0  0  0  0  0  0  0  0  0  0  0
    4.8590   65.1330   63.2410 O   0  0  0  0  0  0  0  0  0  0  0  0
    4.3110   64.3130   64.2640 C   0  0  0  0  0  0  0  0  0  0  0  0
    4.8353   71.1400   68.8117 H   0  0  0  0  0  0  0  0  0  0  0  0
    2.6175   70.5222   69.7686 H   0  0  0  0  0  0  0  0  0  0  0  0
    1.0947   68.9986   68.5174 H   0  0  0  0  0  0  0  0  0  0  0  0
    4.0151   68.6966   65.3420 H   0  0  0  0  0  0  0  0  0  0  0  0
    6.5543   70.6329   68.2416 H   0  0  0  0  0  0  0  0  0  0  0  0
    7.7358   70.2314   66.9495 H   0  0  0  0  0  0  0  0  0  0  0  0
    6.9131   71.8282   66.9495 H   0  0  0  0  0  0  0  0  0  0  0  0
    2.2132   69.6395   62.5916 H   0  0  0  0  0  0  0  0  0  0  0  0
    4.1321   69.1474   61.0764 H   0  0  0  0  0  0  0  0  0  0  0  0
    5.4288   67.0330   61.3360 H   0  0  0  0  0  0  0  0  0  0  0  0
    2.8806   65.8808   64.6243 H   0  0  0  0  0  0  0  0  0  0  0  0
    4.5844   64.7222   65.2478 H   0  0  0  0  0  0  0  0  0  0  0  0
    3.2154   64.2901   64.1681 H   0  0  0  0  0  0  0  0  0  0  0  0
    4.7089   63.2920   64.1681 H   0  0  0  0  0  0  0  0  0  0  0  0
  2  1  2  0
  4  3  2  0
  5  4  1  0
  6  5  2  0
  7  6  1  0
  7  1  1  0
  8  7  2  0
  8  3  1  0
 10  3  1  0
 10  9  1  0
 11  1  1  0
 12 11  2  0
 13 11  1  0
 14 13  2  0
 15 14  1  0
 16 15  2  0
 17 16  1  0
 18 13  1  0
 18 17  2  0
 19 17  1  0
 20 19  1  0
  4 21  1  0
  5 22  1  0
  6 23  1  0
  8 24  1  0
  9 25  1  0
  9 26  1  0
  9 27  1  0
 14 28  1  0
 15 29  1  0
 16 30  1  0
 18 31  1  0
 20 32  1  0
 20 33  1  0
 20 34  1  0
M  END
>  <score>  (7) 
-8.666

$$$$
=
     RDKit          3D

 34 35  0  0  0  0  0  0  0  0999 V2000
    1.3090   68.5700   64.9550 C   0  0  0  0  0  0  0  0  0  0  0  0
    1.2220   69.1050   63.8550 O   0  0  0  0  0  0  0  0  0  0  0  0
   -0.9950   67.0670   67.5840 C   0  0  0  0  0  0  0  0  0  0  0  0
   -2.1990   67.6890   67.2500 C   0  0  0  0  0  0  0  0  0  0  0  0
   -2.2540   68.5780   66.1750 C   0  0  0  0  0  0  0  0  0  0  0  0
   -1.1070   68.8520   65.4320 C   0  0  0  0  0  0  0  0  0  0  0  0
    0.1070   68.2350   65.7600 C   0  0  0  0  0  0  0  0  0  0  0  0
    0.1560   67.3430   66.8370 C   0  0  0  0  0  0  0  0  0  0  0  0
    0.2410   66.4750   69.5300 C   0  0  0  0  0  0  0  0  0  0  0  0
   -0.8060   66.1830   68.6110 O   0  0  0  0  0  0  0  0  0  0  0  0
    2.6850   68.2850   65.5080 C   0  0  0  0  0  0  0  0  0  0  0  0
    3.3130   67.3420   65.0390 O   0  0  0  0  0  0  0  0  0  0  0  0
    3.2230   69.1190   66.6140 C   0  0  0  0  0  0  0  0  0  0  0  0
    2.4390   69.5010   67.7070 C   0  0  0  0  0  0  0  0  0  0  0  0
    2.9980   70.2740   68.7270 C   0  0  0  0  0  0  0  0  0  0  0  0
    4.3380   70.6660   68.6620 C   0  0  0  0  0  0  0  0  0  0  0  0
    5.1270   70.2900   67.5750 C   0  0  0  0  0  0  0  0  0  0  0  0
    4.5650   69.5180   66.5550 C   0  0  0  0  0  0  0  0  0  0  0  0
    6.4450   70.6060   67.3920 O   0  0  0  0  0  0  0  0  0  0  0  0
    7.1850   70.9840   68.5460 C   0  0  0  0  0  0  0  0  0  0  0  0
   -3.1064   67.4783   67.8350 H   0  0  0  0  0  0  0  0  0  0  0  0
   -3.2056   69.0638   65.9135 H   0  0  0  0  0  0  0  0  0  0  0  0
   -1.1552   69.5540   64.5865 H   0  0  0  0  0  0  0  0  0  0  0  0
    1.1065   66.8549   67.0986 H   0  0  0  0  0  0  0  0  0  0  0  0
   -0.1343   66.3703   70.5587 H   0  0  0  0  0  0  0  0  0  0  0  0
    1.0745   65.7750   69.3708 H   0  0  0  0  0  0  0  0  0  0  0  0
    0.5919   67.5053   69.3708 H   0  0  0  0  0  0  0  0  0  0  0  0
    1.3844   69.1934   67.7633 H   0  0  0  0  0  0  0  0  0  0  0  0
    2.3806   70.5759   69.5859 H   0  0  0  0  0  0  0  0  0  0  0  0
    4.7717   71.2728   69.4705 H   0  0  0  0  0  0  0  0  0  0  0  0
    5.1833   69.2199   65.6955 H   0  0  0  0  0  0  0  0  0  0  0  0
    6.6263   70.6986   69.4496 H   0  0  0  0  0  0  0  0  0  0  0  0
    8.1591   70.4731   68.5405 H   0  0  0  0  0  0  0  0  0  0  0  0
    7.3420   72.0727   68.5405 H   0  0  0  0  0  0  0  0  0  0  0  0
  2  1  2  0
  4  3  2  0
  5  4  1  0
  6  5  2  0
  7  6  1  0
  7  1  1  0
  8  7  2  0
  8  3  1  0
 10  3  1  0
 10  9  1  0
 11  1  1  0
 12 11  2  0
 13 11  1  0
 14 13  2  0
 15 14  1  0
 16 15  2  0
 17 16  1  0
 18 13  1  0
 18 17  2  0
 19 17  1  0
 20 19  1  0
  4 21  1  0
  5 22  1  0
  6 23  1  0
  8 24  1  0
  9 25  1  0
  9 26  1  0
  9 27  1  0
 14 28  1  0
 15 29  1  0
 16 30  1  0
 18 31  1  0
 20 32  1  0
 20 33  1  0
 20 34  1  0
M  END
>  <score>  (8) 
-8.66

$$$$
=
     RDKit          3D

 34 35  0  0  0  0  0  0  0  0999 V2000
    1.4620   67.8400   66.6490 C   0  0  0  0  0  0  0  0  0  0  0  0
    0.9890   66.8540   67.2050 O   0  0  0  0  0  0  0  0  0  0  0  0
    1.9980   68.5060   62.9410 C   0  0  0  0  0  0  0  0  0  0  0  0
    3.0550   67.6330   62.6770 C   0  0  0  0  0  0  0  0  0  0  0  0
    3.5750   66.8340   63.6970 C   0  0  0  0  0  0  0  0  0  0  0  0
    3.0440   66.9060   64.9840 C   0  0  0  0  0  0  0  0  0  0  0  0
    1.9840   67.7790   65.2600 C   0  0  0  0  0  0  0  0  0  0  0  0
    1.4650   68.5770   64.2330 C   0  0  0  0  0  0  0  0  0  0  0  0
    0.0040   69.5560   62.1780 C   0  0  0  0  0  0  0  0  0  0  0  0
    1.4020   69.3410   62.0360 O   0  0  0  0  0  0  0  0  0  0  0  0
    1.5400   69.1330   67.4250 C   0  0  0  0  0  0  0  0  0  0  0  0
    0.4940   69.7170   67.6830 O   0  0  0  0  0  0  0  0  0  0  0  0
    2.8660   69.6760   67.8180 C   0  0  0  0  0  0  0  0  0  0  0  0
    3.1190   70.1670   69.1030 C   0  0  0  0  0  0  0  0  0  0  0  0
    4.3880   70.6530   69.4250 C   0  0  0  0  0  0  0  0  0  0  0  0
    5.4080   70.6510   68.4690 C   0  0  0  0  0  0  0  0  0  0  0  0
    5.1650   70.1650   67.1840 C   0  0  0  0  0  0  0  0  0  0  0  0
    3.8940   69.6800   66.8650 C   0  0  0  0  0  0  0  0  0  0  0  0
    6.0710   70.1070   66.1630 O   0  0  0  0  0  0  0  0  0  0  0  0
    5.5870   69.6990   64.8900 C   0  0  0  0  0  0  0  0  0  0  0  0
    3.4788   67.5746   61.6636 H   0  0  0  0  0  0  0  0  0  0  0  0
    4.4062   66.1456   63.4845 H   0  0  0  0  0  0  0  0  0  0  0  0
    3.4584   66.2757   65.7846 H   0  0  0  0  0  0  0  0  0  0  0  0
    0.6325   69.2645   64.4433 H   0  0  0  0  0  0  0  0  0  0  0  0
   -0.2542   69.5957   63.2465 H   0  0  0  0  0  0  0  0  0  0  0  0
   -0.2713   70.5070   61.6987 H   0  0  0  0  0  0  0  0  0  0  0  0
   -0.5443   68.7316   61.6987 H   0  0  0  0  0  0  0  0  0  0  0  0
    2.3197   70.1703   69.8587 H   0  0  0  0  0  0  0  0  0  0  0  0
    4.5859   71.0393   70.4358 H   0  0  0  0  0  0  0  0  0  0  0  0
    6.4054   71.0339   68.7308 H   0  0  0  0  0  0  0  0  0  0  0  0
    3.6976   69.2964   65.8530 H   0  0  0  0  0  0  0  0  0  0  0  0
    4.7522   68.9953   65.0235 H   0  0  0  0  0  0  0  0  0  0  0  0
    5.2383   70.5797   64.3308 H   0  0  0  0  0  0  0  0  0  0  0  0
    6.3961   69.2063   64.3308 H   0  0  0  0  0  0  0  0  0  0  0  0
  2  1  2  0
  4  3  2  0
  5  4  1  0
  6  5  2  0
  7  6  1  0
  7  1  1  0
  8  7  2  0
  8  3  1  0
 10  3  1  0
 10  9  1  0
 11  1  1  0
 12 11  2  0
 13 11  1  0
 14 13  2  0
 15 14  1  0
 16 15  2  0
 17 16  1  0
 18 13  1  0
 18 17  2  0
 19 17  1  0
 20 19  1  0
  4 21  1  0
  5 22  1  0
  6 23  1  0
  8 24  1  0
  9 25  1  0
  9 26  1  0
  9 27  1  0
 14 28  1  0
 15 29  1  0
 16 30  1  0
 18 31  1  0
 20 32  1  0
 20 33  1  0
 20 34  1  0
M  END
>  <score>  (9) 
-8.359

$$$$
