=
     RDKit          3D

 28 29  0  0  0  0  0  0  0  0999 V2000
    0.3460   68.6560   67.4200 O   0  0  0  0  0  0  0  0  0  0  0  0
    1.3690   68.5610   66.7530 C   0  0  0  0  0  0  0  0  0  0  0  0
    2.6220   69.2610   67.1480 C   0  0  0  0  0  0  0  0  0  0  0  0
    3.7540   69.2950   66.3210 C   0  0  0  0  0  0  0  0  0  0  0  0
    4.9150   69.9570   66.7410 C   0  0  0  0  0  0  0  0  0  0  0  0
    4.9420   70.5870   67.9920 C   0  0  0  0  0  0  0  0  0  0  0  0
    3.8180   70.5580   68.8260 C   0  0  0  0  0  0  0  0  0  0  0  0
    2.6620   69.8940   68.4000 C   0  0  0  0  0  0  0  0  0  0  0  0
    6.1600   71.2810   68.4330 N   0  0  0  0  0  4  0  0  0  0  0  0
    7.0270   70.6100   69.0110 O   0  0  0  0  0  0  0  0  0  0  0  0
    6.2450   72.4960   68.2050 O   0  0  0  0  0  1  0  0  0  0  0  0
    1.3520   67.6890   65.5190 C   0  0  0  0  0  0  0  0  0  0  0  0
    1.4690   66.4780   65.6670 O   0  0  0  0  0  0  0  0  0  0  0  0
    1.1530   68.3010   64.1790 C   0  0  0  0  0  0  0  0  0  0  0  0
   -0.0460   68.9260   63.8130 C   0  0  0  0  0  0  0  0  0  0  0  0
   -0.1880   69.4690   62.5320 C   0  0  0  0  0  0  0  0  0  0  0  0
    0.8600   69.3890   61.6160 C   0  0  0  0  0  0  0  0  0  0  0  0
    2.0540   68.7680   61.9750 C   0  0  0  0  0  0  0  0  0  0  0  0
    2.2020   68.2250   63.2520 C   0  0  0  0  0  0  0  0  0  0  0  0
    3.7303   68.8001   65.3389 H   0  0  0  0  0  0  0  0  0  0  0  0
    5.8020   69.9820   66.0910 H   0  0  0  0  0  0  0  0  0  0  0  0
    3.8432   71.0530   69.8080 H   0  0  0  0  0  0  0  0  0  0  0  0
    1.7767   69.8680   69.0524 H   0  0  0  0  0  0  0  0  0  0  0  0
   -0.8754   68.9897   64.5327 H   0  0  0  0  0  0  0  0  0  0  0  0
   -1.1296   69.9608   62.2463 H   0  0  0  0  0  0  0  0  0  0  0  0
    0.7439   69.8166   60.6092 H   0  0  0  0  0  0  0  0  0  0  0  0
    2.8805   68.7056   61.2518 H   0  0  0  0  0  0  0  0  0  0  0  0
    3.1461   67.7351   63.5325 H   0  0  0  0  0  0  0  0  0  0  0  0
  2  1  2  0
  3  2  1  0
  4  3  2  0
  5  4  1  0
  6  5  2  0
  7  6  1  0
  8  7  2  0
  8  3  1  0
  9  6  1  0
 10  9  2  0
 11  9  1  0
 12  2  1  0
 13 12  2  0
 14 12  1  0
 15 14  2  0
 16 15  1  0
 17 16  2  0
 18 17  1  0
 19 18  2  0
 19 14  1  0
  4 20  1  0
  5 21  1  0
  7 22  1  0
  8 23  1  0
 15 24  1  0
 16 25  1  0
 17 26  1  0
 18 27  1  0
 19 28  1  0
M  CHG  2   9   1  11  -1
M  END
>  <score>  (1) 
-9.624

$$$$
=
     RDKit          3D

 28 29  0  0  0  0  0  0  0  0999 V2000
    2.7490   66.7460   65.1140 O   0  0  0  0  0  0  0  0  0  0  0  0
    2.4730   67.9080   65.3890 C   0  0  0  0  0  0  0  0  0  0  0  0
    3.4470   68.7960   66.0790 C   0  0  0  0  0  0  0  0  0  0  0  0
    4.7020   69.1010   65.5310 C   0  0  0  0  0  0  0  0  0  0  0  0
    5.5900   69.9340   66.2230 C   0  0  0  0  0  0  0  0  0  0  0  0
    5.2210   70.4630   67.4670 C   0  0  0  0  0  0  0  0  0  0  0  0
    3.9710   70.1640   68.0230 C   0  0  0  0  0  0  0  0  0  0  0  0
    3.0900   69.3310   67.3270 C   0  0  0  0  0  0  0  0  0  0  0  0
    6.1530   71.3360   68.1940 N   0  0  0  0  0  4  0  0  0  0  0  0
    5.9860   72.5600   68.1010 O   0  0  0  0  0  0  0  0  0  0  0  0
    7.0530   70.7950   68.8520 O   0  0  0  0  0  1  0  0  0  0  0  0
    1.1190   68.4450   64.9870 C   0  0  0  0  0  0  0  0  0  0  0  0
    1.0360   69.0790   63.9410 O   0  0  0  0  0  0  0  0  0  0  0  0
   -0.0730   68.1620   65.8300 C   0  0  0  0  0  0  0  0  0  0  0  0
   -0.0320   67.2670   66.9070 C   0  0  0  0  0  0  0  0  0  0  0  0
   -1.1870   67.0220   67.6560 C   0  0  0  0  0  0  0  0  0  0  0  0
   -2.3820   67.6650   67.3350 C   0  0  0  0  0  0  0  0  0  0  0  0
   -2.4280   68.5570   66.2640 C   0  0  0  0  0  0  0  0  0  0  0  0
   -1.2780   68.8050   65.5140 C   0  0  0  0  0  0  0  0  0  0  0  0
    4.9895   68.6844   64.5544 H   0  0  0  0  0  0  0  0  0  0  0  0
    6.5735   70.1721   65.7916 H   0  0  0  0  0  0  0  0  0  0  0  0
    3.6846   70.5813   68.9997 H   0  0  0  0  0  0  0  0  0  0  0  0
    2.1079   69.0925   67.7612 H   0  0  0  0  0  0  0  0  0  0  0  0
    0.9084   66.7572   67.1633 H   0  0  0  0  0  0  0  0  0  0  0  0
   -1.1529   66.3194   68.5017 H   0  0  0  0  0  0  0  0  0  0  0  0
   -3.2884   67.4686   67.9266 H   0  0  0  0  0  0  0  0  0  0  0  0
   -3.3704   69.0647   66.0107 H   0  0  0  0  0  0  0  0  0  0  0  0
   -1.3170   69.5092   64.6698 H   0  0  0  0  0  0  0  0  0  0  0  0
  2  1  2  0
  3  2  1  0
  4  3  2  0
  5  4  1  0
  6  5  2  0
  7  6  1  0
  8  7  2  0
  8  3  1  0
  9  6  1  0
 10  9  2  0
 11  9  1  0
 12  2  1  0
 13 12  2  0
 14 12  1  0
 15 14  2  0
 16 15  1  0
 17 16  2  0
 18 17  1  0
 19 18  2  0
 19 14  1  0
  4 20  1  0
  5 21  1  0
  7 22  1  0
  8 23  1  0
 15 24  1  0
 16 25  1  0
 17 26  1  0
 18 27  1  0
 19 28  1  0
M  CHG  2   9   1  11  -1
M  END
>  <score>  (2) 
-9.368

$$$$
=
     RDKit          3D

 28 29  0  0  0  0  0  0  0  0999 V2000
    5.3750   69.4850   63.0330 O   0  0  0  0  0  0  0  0  0  0  0  0
    4.5670   69.0310   63.8330 C   0  0  0  0  0  0  0  0  0  0  0  0
    4.5900   69.4210   65.2690 C   0  0  0  0  0  0  0  0  0  0  0  0
    3.4650   69.3020   66.0970 C   0  0  0  0  0  0  0  0  0  0  0  0
    3.5320   69.6920   67.4400 C   0  0  0  0  0  0  0  0  0  0  0  0
    4.7300   70.2050   67.9560 C   0  0  0  0  0  0  0  0  0  0  0  0
    5.8590   70.3300   67.1380 C   0  0  0  0  0  0  0  0  0  0  0  0
    5.7840   69.9380   65.7970 C   0  0  0  0  0  0  0  0  0  0  0  0
    4.8000   70.6160   69.3650 N   0  0  0  0  0  4  0  0  0  0  0  0
    5.9160   70.6350   69.9030 O   0  0  0  0  0  0  0  0  0  0  0  0
    3.7390   70.9140   69.9310 O   0  0  0  0  0  1  0  0  0  0  0  0
    3.5100   68.0740   63.3310 C   0  0  0  0  0  0  0  0  0  0  0  0
    3.7930   66.8830   63.2700 O   0  0  0  0  0  0  0  0  0  0  0  0
    2.1600   68.5800   62.9700 C   0  0  0  0  0  0  0  0  0  0  0  0
    1.0930   68.5760   63.8780 C   0  0  0  0  0  0  0  0  0  0  0  0
   -0.1630   69.0460   63.4810 C   0  0  0  0  0  0  0  0  0  0  0  0
   -0.3580   69.5180   62.1840 C   0  0  0  0  0  0  0  0  0  0  0  0
    0.7000   69.5240   61.2770 C   0  0  0  0  0  0  0  0  0  0  0  0
    1.9550   69.0570   61.6680 C   0  0  0  0  0  0  0  0  0  0  0  0
    2.5254   68.9004   65.6897 H   0  0  0  0  0  0  0  0  0  0  0  0
    2.6480   69.5962   68.0876 H   0  0  0  0  0  0  0  0  0  0  0  0
    6.7975   70.7331   67.5462 H   0  0  0  0  0  0  0  0  0  0  0  0
    6.6685   70.0357   65.1504 H   0  0  0  0  0  0  0  0  0  0  0  0
    1.2430   68.2036   64.9021 H   0  0  0  0  0  0  0  0  0  0  0  0
   -0.9999   69.0432   64.1948 H   0  0  0  0  0  0  0  0  0  0  0  0
   -1.3478   69.8860   61.8762 H   0  0  0  0  0  0  0  0  0  0  0  0
    0.5456   69.8967   60.2536 H   0  0  0  0  0  0  0  0  0  0  0  0
    2.7886   69.0631   60.9503 H   0  0  0  0  0  0  0  0  0  0  0  0
  2  1  2  0
  3  2  1  0
  4  3  2  0
  5  4  1  0
  6  5  2  0
  7  6  1  0
  8  7  2  0
  8  3  1  0
  9  6  1  0
 10  9  2  0
 11  9  1  0
 12  2  1  0
 13 12  2  0
 14 12  1  0
 15 14  2  0
 16 15  1  0
 17 16  2  0
 18 17  1  0
 19 18  2  0
 19 14  1  0
  4 20  1  0
  5 21  1  0
  7 22  1  0
  8 23  1  0
 15 24  1  0
 16 25  1  0
 17 26  1  0
 18 27  1  0
 19 28  1  0
M  CHG  2   9   1  11  -1
M  END
>  <score>  (3) 
-9.352

$$$$
=
     RDKit          3D

 28 29  0  0  0  0  0  0  0  0999 V2000
    2.2330   68.7160   64.0240 O   0  0  0  0  0  0  0  0  0  0  0  0
    2.3320   68.4460   65.2140 C   0  0  0  0  0  0  0  0  0  0  0  0
    3.2740   69.1790   66.1020 C   0  0  0  0  0  0  0  0  0  0  0  0
    2.9290   69.5670   67.4050 C   0  0  0  0  0  0  0  0  0  0  0  0
    3.8460   70.2650   68.2000 C   0  0  0  0  0  0  0  0  0  0  0  0
    5.1130   70.5770   67.6900 C   0  0  0  0  0  0  0  0  0  0  0  0
    5.4680   70.1950   66.3900 C   0  0  0  0  0  0  0  0  0  0  0  0
    4.5470   69.4980   65.6020 C   0  0  0  0  0  0  0  0  0  0  0  0
    6.0750   71.3100   68.5240 N   0  0  0  0  0  4  0  0  0  0  0  0
    6.6520   70.6830   69.4230 O   0  0  0  0  0  0  0  0  0  0  0  0
    6.2470   72.5130   68.2810 O   0  0  0  0  0  1  0  0  0  0  0  0
    1.4520   67.3590   65.7860 C   0  0  0  0  0  0  0  0  0  0  0  0
    1.9450   66.2510   65.9650 O   0  0  0  0  0  0  0  0  0  0  0  0
    0.0430   67.6600   66.1540 C   0  0  0  0  0  0  0  0  0  0  0  0
   -0.7010   68.6590   65.5140 C   0  0  0  0  0  0  0  0  0  0  0  0
   -2.0160   68.9150   65.9130 C   0  0  0  0  0  0  0  0  0  0  0  0
   -2.5920   68.1790   66.9470 C   0  0  0  0  0  0  0  0  0  0  0  0
   -1.8560   67.1840   67.5880 C   0  0  0  0  0  0  0  0  0  0  0  0
   -0.5430   66.9240   67.1940 C   0  0  0  0  0  0  0  0  0  0  0  0
    1.9337   69.3218   67.8040 H   0  0  0  0  0  0  0  0  0  0  0  0
    3.5726   70.5674   69.2217 H   0  0  0  0  0  0  0  0  0  0  0  0
    6.4635   70.4414   65.9922 H   0  0  0  0  0  0  0  0  0  0  0  0
    4.8222   69.1966   64.5805 H   0  0  0  0  0  0  0  0  0  0  0  0
   -0.2506   69.2422   64.6973 H   0  0  0  0  0  0  0  0  0  0  0  0
   -2.5984   69.7003   65.4090 H   0  0  0  0  0  0  0  0  0  0  0  0
   -3.6274   68.3834   67.2571 H   0  0  0  0  0  0  0  0  0  0  0  0
   -2.3103   66.6036   68.4046 H   0  0  0  0  0  0  0  0  0  0  0  0
    0.0353   66.1379   67.7016 H   0  0  0  0  0  0  0  0  0  0  0  0
  2  1  2  0
  3  2  1  0
  4  3  2  0
  5  4  1  0
  6  5  2  0
  7  6  1  0
  8  7  2  0
  8  3  1  0
  9  6  1  0
 10  9  2  0
 11  9  1  0
 12  2  1  0
 13 12  2  0
 14 12  1  0
 15 14  2  0
 16 15  1  0
 17 16  2  0
 18 17  1  0
 19 18  2  0
 19 14  1  0
  4 20  1  0
  5 21  1  0
  7 22  1  0
  8 23  1  0
 15 24  1  0
 16 25  1  0
 17 26  1  0
 18 27  1  0
 19 28  1  0
M  CHG  2   9   1  11  -1
M  END
>  <score>  (4) 
-9.34

$$$$
=
     RDKit          3D

 28 29  0  0  0  0  0  0  0  0999 V2000
    3.5740   66.6760   64.6510 O   0  0  0  0  0  0  0  0  0  0  0  0
    3.1070   67.7760   64.9230 C   0  0  0  0  0  0  0  0  0  0  0  0
    1.6740   67.9430   65.2850 C   0  0  0  0  0  0  0  0  0  0  0  0
    0.7700   68.6350   64.4670 C   0  0  0  0  0  0  0  0  0  0  0  0
   -0.5690   68.7760   64.8560 C   0  0  0  0  0  0  0  0  0  0  0  0
   -1.0030   68.2240   66.0680 C   0  0  0  0  0  0  0  0  0  0  0  0
   -0.1080   67.5320   66.8930 C   0  0  0  0  0  0  0  0  0  0  0  0
    1.2270   67.3950   66.4980 C   0  0  0  0  0  0  0  0  0  0  0  0
   -2.4060   68.3730   66.4760 N   0  0  0  0  0  4  0  0  0  0  0  0
   -2.7400   67.8980   67.5710 O   0  0  0  0  0  0  0  0  0  0  0  0
   -3.1730   68.9600   65.6990 O   0  0  0  0  0  1  0  0  0  0  0  0
    4.0260   68.9750   64.9130 C   0  0  0  0  0  0  0  0  0  0  0  0
    4.3150   69.4720   63.8300 O   0  0  0  0  0  0  0  0  0  0  0  0
    4.5170   69.5470   66.1950 C   0  0  0  0  0  0  0  0  0  0  0  0
    3.6610   69.8130   67.2710 C   0  0  0  0  0  0  0  0  0  0  0  0
    4.1710   70.3690   68.4480 C   0  0  0  0  0  0  0  0  0  0  0  0
    5.5300   70.6610   68.5550 C   0  0  0  0  0  0  0  0  0  0  0  0
    6.3860   70.3990   67.4870 C   0  0  0  0  0  0  0  0  0  0  0  0
    5.8820   69.8430   66.3100 C   0  0  0  0  0  0  0  0  0  0  0  0
    1.1129   69.0690   63.5162 H   0  0  0  0  0  0  0  0  0  0  0  0
   -1.2767   69.3183   64.2117 H   0  0  0  0  0  0  0  0  0  0  0  0
   -0.4519   67.0995   67.8442 H   0  0  0  0  0  0  0  0  0  0  0  0
    1.9333   66.8528   67.1439 H   0  0  0  0  0  0  0  0  0  0  0  0
    2.5880   69.5846   67.1901 H   0  0  0  0  0  0  0  0  0  0  0  0
    3.4976   70.5768   69.2926 H   0  0  0  0  0  0  0  0  0  0  0  0
    5.9268   71.0985   69.4830 H   0  0  0  0  0  0  0  0  0  0  0  0
    7.4581   70.6302   67.5714 H   0  0  0  0  0  0  0  0  0  0  0  0
    6.5596   69.6361   65.4685 H   0  0  0  0  0  0  0  0  0  0  0  0
  2  1  2  0
  3  2  1  0
  4  3  2  0
  5  4  1  0
  6  5  2  0
  7  6  1  0
  8  7  2  0
  8  3  1  0
  9  6  1  0
 10  9  2  0
 11  9  1  0
 12  2  1  0
 13 12  2  0
 14 12  1  0
 15 14  2  0
 16 15  1  0
 17 16  2  0
 18 17  1  0
 19 18  2  0
 19 14  1  0
  4 20  1  0
  5 21  1  0
  7 22  1  0
  8 23  1  0
 15 24  1  0
 16 25  1  0
 17 26  1  0
 18 27  1  0
 19 28  1  0
M  CHG  2   9   1  11  -1
M  END
>  <score>  (5) 
-9.309

$$$$
=
     RDKit          3D

 28 29  0  0  0  0  0  0  0  0999 V2000
    5.5200   69.5250   63.0560 O   0  0  0  0  0  0  0  0  0  0  0  0
    4.7000   69.0390   63.8250 C   0  0  0  0  0  0  0  0  0  0  0  0
    4.6530   69.4260   65.2600 C   0  0  0  0  0  0  0  0  0  0  0  0
    3.4740   69.3630   66.0160 C   0  0  0  0  0  0  0  0  0  0  0  0
    3.4760   69.7490   67.3630 C   0  0  0  0  0  0  0  0  0  0  0  0
    4.6640   70.1990   67.9540 C   0  0  0  0  0  0  0  0  0  0  0  0
    5.8470   70.2660   67.2090 C   0  0  0  0  0  0  0  0  0  0  0  0
    5.8360   69.8800   65.8650 C   0  0  0  0  0  0  0  0  0  0  0  0
    4.6670   70.6040   69.3660 N   0  0  0  0  0  4  0  0  0  0  0  0
    5.7570   70.6310   69.9550 O   0  0  0  0  0  0  0  0  0  0  0  0
    3.5790   70.8910   69.8860 O   0  0  0  0  0  1  0  0  0  0  0  0
    3.7000   68.0430   63.2810 C   0  0  0  0  0  0  0  0  0  0  0  0
    2.9200   68.4230   62.4150 O   0  0  0  0  0  0  0  0  0  0  0  0
    3.7120   66.6380   63.7660 C   0  0  0  0  0  0  0  0  0  0  0  0
    2.6910   66.1160   64.5700 C   0  0  0  0  0  0  0  0  0  0  0  0
    2.7600   64.7920   65.0150 C   0  0  0  0  0  0  0  0  0  0  0  0
    3.8430   63.9890   64.6620 C   0  0  0  0  0  0  0  0  0  0  0  0
    4.8620   64.5030   63.8620 C   0  0  0  0  0  0  0  0  0  0  0  0
    4.7970   65.8230   63.4150 C   0  0  0  0  0  0  0  0  0  0  0  0
    2.5429   69.0088   65.5495 H   0  0  0  0  0  0  0  0  0  0  0  0
    2.5493   69.6990   67.9536 H   0  0  0  0  0  0  0  0  0  0  0  0
    6.7777   70.6194   67.6769 H   0  0  0  0  0  0  0  0  0  0  0  0
    6.7634   69.9326   65.2758 H   0  0  0  0  0  0  0  0  0  0  0  0
    1.8351   66.7471   64.8514 H   0  0  0  0  0  0  0  0  0  0  0  0
    1.9569   64.3831   65.6457 H   0  0  0  0  0  0  0  0  0  0  0  0
    3.8936   62.9485   65.0151 H   0  0  0  0  0  0  0  0  0  0  0  0
    5.7164   63.8687   63.5834 H   0  0  0  0  0  0  0  0  0  0  0  0
    5.6021   66.2266   62.7833 H   0  0  0  0  0  0  0  0  0  0  0  0
  2  1  2  0
  3  2  1  0
  4  3  2  0
  5  4  1  0
  6  5  2  0
  7  6  1  0
  8  7  2  0
  8  3  1  0
  9  6  1  0
 10  9  2  0
 11  9  1  0
 12  2  1  0
 13 12  2  0
 14 12  1  0
 15 14  2  0
 16 15  1  0
 17 16  2  0
 18 17  1  0
 19 18  2  0
 19 14  1  0
  4 20  1  0
  5 21  1  0
  7 22  1  0
  8 23  1  0
 15 24  1  0
 16 25  1  0
 17 26  1  0
 18 27  1  0
 19 28  1  0
M  CHG  2   9   1  11  -1
M  END
>  <score>  (6) 
-9.297

$$$$
=
     RDKit          3D

 28 29  0  0  0  0  0  0  0  0999 V2000
    0.5660   69.1460   66.7360 O   0  0  0  0  0  0  0  0  0  0  0  0
    1.6960   68.7470   66.4830 C   0  0  0  0  0  0  0  0  0  0  0  0
    2.8990   69.3940   67.0710 C   0  0  0  0  0  0  0  0  0  0  0  0
    2.9030   69.9370   68.3640 C   0  0  0  0  0  0  0  0  0  0  0  0
    4.0570   70.5460   68.8710 C   0  0  0  0  0  0  0  0  0  0  0  0
    5.2130   70.6120   68.0820 C   0  0  0  0  0  0  0  0  0  0  0  0
    5.2200   70.0740   66.7890 C   0  0  0  0  0  0  0  0  0  0  0  0
    4.0630   69.4670   66.2890 C   0  0  0  0  0  0  0  0  0  0  0  0
    6.4240   71.2520   68.6130 N   0  0  0  0  0  4  0  0  0  0  0  0
    6.6780   72.4040   68.2360 O   0  0  0  0  0  0  0  0  0  0  0  0
    7.1210   70.5990   69.4020 O   0  0  0  0  0  1  0  0  0  0  0  0
    1.8540   67.5520   65.5710 C   0  0  0  0  0  0  0  0  0  0  0  0
    1.4520   66.4650   65.9690 O   0  0  0  0  0  0  0  0  0  0  0  0
    2.4440   67.7230   64.2170 C   0  0  0  0  0  0  0  0  0  0  0  0
    3.5980   67.0410   63.8120 C   0  0  0  0  0  0  0  0  0  0  0  0
    4.1230   67.2530   62.5330 C   0  0  0  0  0  0  0  0  0  0  0  0
    3.5010   68.1420   61.6580 C   0  0  0  0  0  0  0  0  0  0  0  0
    2.3520   68.8230   62.0560 C   0  0  0  0  0  0  0  0  0  0  0  0
    1.8240   68.6150   63.3300 C   0  0  0  0  0  0  0  0  0  0  0  0
    1.9950   69.8841   68.9827 H   0  0  0  0  0  0  0  0  0  0  0  0
    4.0563   70.9713   69.8854 H   0  0  0  0  0  0  0  0  0  0  0  0
    6.1285   70.1283   66.1712 H   0  0  0  0  0  0  0  0  0  0  0  0
    4.0651   69.0430   65.2740 H   0  0  0  0  0  0  0  0  0  0  0  0
    4.0916   66.3386   64.4997 H   0  0  0  0  0  0  0  0  0  0  0  0
    5.0297   66.7164   62.2167 H   0  0  0  0  0  0  0  0  0  0  0  0
    3.9171   68.3061   60.6531 H   0  0  0  0  0  0  0  0  0  0  0  0
    1.8615   69.5246   61.3652 H   0  0  0  0  0  0  0  0  0  0  0  0
    0.9165   69.1534   63.6407 H   0  0  0  0  0  0  0  0  0  0  0  0
  2  1  2  0
  3  2  1  0
  4  3  2  0
  5  4  1  0
  6  5  2  0
  7  6  1  0
  8  7  2  0
  8  3  1  0
  9  6  1  0
 10  9  2  0
 11  9  1  0
 12  2  1  0
 13 12  2  0
 14 12  1  0
 15 14  2  0
 16 15  1  0
 17 16  2  0
 18 17  1  0
 19 18  2  0
 19 14  1  0
  4 20  1  0
  5 21  1  0
  7 22  1  0
  8 23  1  0
 15 24  1  0
 16 25  1  0
 17 26  1  0
 18 27  1  0
 19 28  1  0
M  CHG  2   9   1  11  -1
M  END
>  <score>  (7) 
-8.983

$$$$
=
     RDKit          3D

 28 29  0  0  0  0  0  0  0  0999 V2000
    0.8140   67.1970   67.2100 O   0  0  0  0  0  0  0  0  0  0  0  0
    1.4600   68.1260   66.7400 C   0  0  0  0  0  0  0  0  0  0  0  0
    1.9970   68.0760   65.3540 C   0  0  0  0  0  0  0  0  0  0  0  0
    3.1220   67.3110   65.0120 C   0  0  0  0  0  0  0  0  0  0  0  0
    3.5970   67.3040   63.6940 C   0  0  0  0  0  0  0  0  0  0  0  0
    2.9450   68.0650   62.7160 C   0  0  0  0  0  0  0  0  0  0  0  0
    1.8210   68.8330   63.0460 C   0  0  0  0  0  0  0  0  0  0  0  0
    1.3530   68.8350   64.3640 C   0  0  0  0  0  0  0  0  0  0  0  0
    3.4440   68.0590   61.3340 N   0  0  0  0  0  4  0  0  0  0  0  0
    3.1190   69.0040   60.6010 O   0  0  0  0  0  0  0  0  0  0  0  0
    4.1550   67.1070   60.9830 O   0  0  0  0  0  1  0  0  0  0  0  0
    1.6860   69.3540   67.5910 C   0  0  0  0  0  0  0  0  0  0  0  0
    0.7030   69.9380   68.0340 O   0  0  0  0  0  0  0  0  0  0  0  0
    3.0700   69.7980   67.9040 C   0  0  0  0  0  0  0  0  0  0  0  0
    4.0980   69.7700   66.9530 C   0  0  0  0  0  0  0  0  0  0  0  0
    5.3870   70.1810   67.3050 C   0  0  0  0  0  0  0  0  0  0  0  0
    5.6550   70.6170   68.6020 C   0  0  0  0  0  0  0  0  0  0  0  0
    4.6360   70.6460   69.5520 C   0  0  0  0  0  0  0  0  0  0  0  0
    3.3470   70.2390   69.2060 C   0  0  0  0  0  0  0  0  0  0  0  0
    3.6333   66.7142   65.7817 H   0  0  0  0  0  0  0  0  0  0  0  0
    4.4790   66.7028   63.4284 H   0  0  0  0  0  0  0  0  0  0  0  0
    1.3108   69.4294   62.2752 H   0  0  0  0  0  0  0  0  0  0  0  0
    0.4712   69.4375   64.6276 H   0  0  0  0  0  0  0  0  0  0  0  0
    3.8911   69.4247   65.9293 H   0  0  0  0  0  0  0  0  0  0  0  0
    6.1925   70.1604   66.5562 H   0  0  0  0  0  0  0  0  0  0  0  0
    6.6710   70.9381   68.8753 H   0  0  0  0  0  0  0  0  0  0  0  0
    4.8479   70.9899   70.5752 H   0  0  0  0  0  0  0  0  0  0  0  0
    2.5445   70.2642   69.9579 H   0  0  0  0  0  0  0  0  0  0  0  0
  2  1  2  0
  3  2  1  0
  4  3  2  0
  5  4  1  0
  6  5  2  0
  7  6  1  0
  8  7  2  0
  8  3  1  0
  9  6  1  0
 10  9  2  0
 11  9  1  0
 12  2  1  0
 13 12  2  0
 14 12  1  0
 15 14  2  0
 16 15  1  0
 17 16  2  0
 18 17  1  0
 19 18  2  0
 19 14  1  0
  4 20  1  0
  5 21  1  0
  7 22  1  0
  8 23  1  0
 15 24  1  0
 16 25  1  0
 17 26  1  0
 18 27  1  0
 19 28  1  0
M  CHG  2   9   1  11  -1
M  END
>  <score>  (8) 
-8.809

$$$$
=
     RDKit          3D

 28 29  0  0  0  0  0  0  0  0999 V2000
    1.5620   69.1230   64.0100 O   0  0  0  0  0  0  0  0  0  0  0  0
    2.1010   68.4000   64.8390 C   0  0  0  0  0  0  0  0  0  0  0  0
    2.8750   67.1950   64.4340 C   0  0  0  0  0  0  0  0  0  0  0  0
    3.8000   67.2170   63.3810 C   0  0  0  0  0  0  0  0  0  0  0  0
    4.4970   66.0540   63.0290 C   0  0  0  0  0  0  0  0  0  0  0  0
    4.2670   64.8660   63.7340 C   0  0  0  0  0  0  0  0  0  0  0  0
    3.3450   64.8320   64.7870 C   0  0  0  0  0  0  0  0  0  0  0  0
    2.6530   65.9980   65.1330 C   0  0  0  0  0  0  0  0  0  0  0  0
    4.9970   63.6450   63.3650 N   0  0  0  0  0  4  0  0  0  0  0  0
    4.3740   62.7640   62.7580 O   0  0  0  0  0  0  0  0  0  0  0  0
    6.1920   63.5690   63.6880 O   0  0  0  0  0  1  0  0  0  0  0  0
    1.9930   68.7680   66.3010 C   0  0  0  0  0  0  0  0  0  0  0  0
    0.9620   68.4740   66.8950 O   0  0  0  0  0  0  0  0  0  0  0  0
    3.1340   69.4270   66.9880 C   0  0  0  0  0  0  0  0  0  0  0  0
    4.3920   69.5650   66.3870 C   0  0  0  0  0  0  0  0  0  0  0  0
    5.4370   70.1770   67.0850 C   0  0  0  0  0  0  0  0  0  0  0  0
    5.2340   70.6500   68.3800 C   0  0  0  0  0  0  0  0  0  0  0  0
    3.9850   70.5160   68.9830 C   0  0  0  0  0  0  0  0  0  0  0  0
    2.9380   69.9070   68.2910 C   0  0  0  0  0  0  0  0  0  0  0  0
    3.9793   68.1513   62.8288 H   0  0  0  0  0  0  0  0  0  0  0  0
    5.2221   66.0738   62.2021 H   0  0  0  0  0  0  0  0  0  0  0  0
    3.1661   63.8967   65.3377 H   0  0  0  0  0  0  0  0  0  0  0  0
    1.9284   65.9764   65.9603 H   0  0  0  0  0  0  0  0  0  0  0  0
    4.5574   69.1916   65.3656 H   0  0  0  0  0  0  0  0  0  0  0  0
    6.4233   70.2857   66.6103 H   0  0  0  0  0  0  0  0  0  0  0  0
    6.0598   71.1292   68.9262 H   0  0  0  0  0  0  0  0  0  0  0  0
    3.8246   70.8905   70.0048 H   0  0  0  0  0  0  0  0  0  0  0  0
    1.9533   69.8027   68.7700 H   0  0  0  0  0  0  0  0  0  0  0  0
  2  1  2  0
  3  2  1  0
  4  3  2  0
  5  4  1  0
  6  5  2  0
  7  6  1  0
  8  7  2  0
  8  3  1  0
  9  6  1  0
 10  9  2  0
 11  9  1  0
 12  2  1  0
 13 12  2  0
 14 12  1  0
 15 14  2  0
 16 15  1  0
 17 16  2  0
 18 17  1  0
 19 18  2  0
 19 14  1  0
  4 20  1  0
  5 21  1  0
  7 22  1  0
  8 23  1  0
 15 24  1  0
 16 25  1  0
 17 26  1  0
 18 27  1  0
 19 28  1  0
M  CHG  2   9   1  11  -1
M  END
>  <score>  (9) 
-8.506

$$$$
