=
     RDKit          3D

 50 52  0  0  0  0  0  0  0  0999 V2000
    2.7880   69.0770   63.3420 N   0  0  0  0  0  4  0  0  0  0  0  0
    1.7080   68.0600   63.0870 C   0  0  0  0  0  0  0  0  0  0  0  0
    1.7170   66.9780   64.1730 C   0  0  0  0  0  0  0  0  0  0  0  0
    1.0410   67.3860   65.4760 C   0  0  0  0  0  0  0  0  0  0  0  0
   -0.3390   67.9060   65.1940 N   0  0  0  0  0  4  0  0  0  0  0  0
   -0.3400   69.0830   64.2570 C   0  0  0  0  0  0  0  0  0  0  0  0
    0.3260   68.7010   62.9410 C   0  0  0  0  0  0  0  0  0  0  0  0
   -1.0920   68.1990   66.5020 C   0  0  0  0  0  0  0  0  0  0  0  0
   -0.4070   67.6200   67.7070 C   0  0  0  0  0  0  0  0  0  0  0  0
    0.8330   68.1240   68.1330 C   0  0  0  0  0  0  0  0  0  0  0  0
    1.4830   67.5630   69.2320 C   0  0  0  0  0  0  0  0  0  0  0  0
    0.9030   66.4990   69.9180 C   0  0  0  0  0  0  0  0  0  0  0  0
   -0.3320   65.9990   69.5140 C   0  0  0  0  0  0  0  0  0  0  0  0
   -0.9870   66.5550   68.4140 C   0  0  0  0  0  0  0  0  0  0  0  0
    4.1390   68.5150   63.7330 C   0  0  0  0  0  0  0  0  0  0  0  0
    5.3580   70.2540   67.4980 C   0  0  0  0  0  0  0  0  0  0  0  0
    4.0350   69.8330   67.3020 C   0  0  0  0  0  0  0  0  0  0  0  0
    3.6440   69.2540   66.0910 C   0  0  0  0  0  0  0  0  0  0  0  0
    4.5700   69.0890   65.0500 C   0  0  0  0  0  0  0  0  0  0  0  0
    5.8920   69.5180   65.2420 C   0  0  0  0  0  0  0  0  0  0  0  0
    6.2800   70.0960   66.4530 C   0  0  0  0  0  0  0  0  0  0  0  0
    7.0400   70.5700   69.1760 F   0  0  0  0  0  0  0  0  0  0  0  0
    5.7770   70.9030   68.8030 C   0  0  0  0  0  0  0  0  0  0  0  0
    4.9660   70.5730   69.8420 F   0  0  0  0  0  0  0  0  0  0  0  0
    5.7510   72.2600   68.7110 F   0  0  0  0  0  0  0  0  0  0  0  0
    2.9119   69.6297   62.4817 H   0  0  0  0  0  0  0  0  0  0  0  0
    2.4687   69.6295   64.1505 H   0  0  0  0  0  0  0  0  0  0  0  0
    1.9296   67.5806   62.1221 H   0  0  0  0  0  0  0  0  0  0  0  0
    1.1980   66.0916   63.7794 H   0  0  0  0  0  0  0  0  0  0  0  0
    2.7727   66.7857   64.4148 H   0  0  0  0  0  0  0  0  0  0  0  0
    0.9729   66.5123   66.1408 H   0  0  0  0  0  0  0  0  0  0  0  0
    1.6340   68.1759   65.9601 H   0  0  0  0  0  0  0  0  0  0  0  0
   -0.8491   67.1604   64.6993 H   0  0  0  0  0  0  0  0  0  0  0  0
   -1.3773   69.3940   64.0637 H   0  0  0  0  0  0  0  0  0  0  0  0
    0.2180   69.9118   64.7172 H   0  0  0  0  0  0  0  0  0  0  0  0
   -0.3293   67.9878   62.4195 H   0  0  0  0  0  0  0  0  0  0  0  0
    0.4750   69.6380   62.3843 H   0  0  0  0  0  0  0  0  0  0  0  0
   -1.1659   69.2891   66.6290 H   0  0  0  0  0  0  0  0  0  0  0  0
   -2.0843   67.7303   66.4265 H   0  0  0  0  0  0  0  0  0  0  0  0
    1.2942   68.9663   67.5965 H   0  0  0  0  0  0  0  0  0  0  0  0
    2.4552   67.9616   69.5574 H   0  0  0  0  0  0  0  0  0  0  0  0
    1.4210   66.0531   70.7799 H   0  0  0  0  0  0  0  0  0  0  0  0
   -0.7924   65.1642   70.0628 H   0  0  0  0  0  0  0  0  0  0  0  0
   -1.9628   66.1565   68.0995 H   0  0  0  0  0  0  0  0  0  0  0  0
    4.0678   67.4206   63.8181 H   0  0  0  0  0  0  0  0  0  0  0  0
    4.8781   68.7813   62.9631 H   0  0  0  0  0  0  0  0  0  0  0  0
    3.2978   69.9595   68.1086 H   0  0  0  0  0  0  0  0  0  0  0  0
    2.6032   68.9256   65.9534 H   0  0  0  0  0  0  0  0  0  0  0  0
    6.6280   69.3983   64.4333 H   0  0  0  0  0  0  0  0  0  0  0  0
    7.3191   70.4306   66.5884 H   0  0  0  0  0  0  0  0  0  0  0  0
  2  1  1  0
  3  2  1  0
  4  3  1  0
  5  4  1  0
  6  5  1  0
  7  6  1  0
  7  2  1  0
  8  5  1  0
  9  8  1  0
 10  9  2  0
 11 10  1  0
 12 11  2  0
 13 12  1  0
 14 13  2  0
 14  9  1  0
 15  1  1  0
 17 16  2  0
 18 17  1  0
 19 15  1  0
 19 18  2  0
 20 19  1  0
 21 16  1  0
 21 20  2  0
 23 16  1  0
 23 22  1  0
 24 23  1  0
 25 23  1  0
  1 26  1  0
  1 27  1  0
  2 28  1  0
  3 29  1  0
  3 30  1  0
  4 31  1  0
  4 32  1  0
  5 33  1  0
  6 34  1  0
  6 35  1  0
  7 36  1  0
  7 37  1  0
  8 38  1  0
  8 39  1  0
 10 40  1  0
 11 41  1  0
 12 42  1  0
 13 43  1  0
 14 44  1  0
 15 45  1  0
 15 46  1  0
 17 47  1  0
 18 48  1  0
 20 49  1  0
 21 50  1  0
M  CHG  2   1   1   5   1
M  END
>  <score>  (1) 
-10.299

$$$$
=
     RDKit          3D

 50 52  0  0  0  0  0  0  0  0999 V2000
    0.2930   69.1590   67.1820 N   0  0  0  0  0  4  0  0  0  0  0  0
   -0.3260   68.1050   66.3030 C   0  0  0  0  0  0  0  0  0  0  0  0
   -1.0570   68.7500   65.1190 C   0  0  0  0  0  0  0  0  0  0  0  0
   -0.1480   69.1840   63.9770 C   0  0  0  0  0  0  0  0  0  0  0  0
    0.7280   68.0400   63.5570 N   0  0  0  0  0  4  0  0  0  0  0  0
    1.5780   67.5120   64.6800 C   0  0  0  0  0  0  0  0  0  0  0  0
    0.6930   67.0630   65.8360 C   0  0  0  0  0  0  0  0  0  0  0  0
    1.5600   68.4120   62.3190 C   0  0  0  0  0  0  0  0  0  0  0  0
    3.0370   68.4060   62.5900 C   0  0  0  0  0  0  0  0  0  0  0  0
    3.8690   67.4490   61.9840 C   0  0  0  0  0  0  0  0  0  0  0  0
    5.2350   67.4240   62.2640 C   0  0  0  0  0  0  0  0  0  0  0  0
    5.7850   68.3520   63.1440 C   0  0  0  0  0  0  0  0  0  0  0  0
    4.9730   69.3140   63.7420 C   0  0  0  0  0  0  0  0  0  0  0  0
    3.6060   69.3430   63.4670 C   0  0  0  0  0  0  0  0  0  0  0  0
    1.1930   68.6460   68.2860 C   0  0  0  0  0  0  0  0  0  0  0  0
    5.0410   70.6150   68.1840 C   0  0  0  0  0  0  0  0  0  0  0  0
    4.5510   69.9470   67.0520 C   0  0  0  0  0  0  0  0  0  0  0  0
    3.2990   69.3260   67.0790 C   0  0  0  0  0  0  0  0  0  0  0  0
    2.5140   69.3570   68.2410 C   0  0  0  0  0  0  0  0  0  0  0  0
    3.0070   70.0170   69.3760 C   0  0  0  0  0  0  0  0  0  0  0  0
    4.2580   70.6380   69.3470 C   0  0  0  0  0  0  0  0  0  0  0  0
    7.1440   70.9880   69.2700 F   0  0  0  0  0  0  0  0  0  0  0  0
    6.4080   71.2690   68.1630 C   0  0  0  0  0  0  0  0  0  0  0  0
    6.3460   72.6240   68.0730 F   0  0  0  0  0  0  0  0  0  0  0  0
    7.1430   70.8480   67.0980 F   0  0  0  0  0  0  0  0  0  0  0  0
    0.8515   69.7832   66.5826 H   0  0  0  0  0  0  0  0  0  0  0  0
   -0.4928   69.6278   67.6549 H   0  0  0  0  0  0  0  0  0  0  0  0
   -1.0656   67.5632   66.9108 H   0  0  0  0  0  0  0  0  0  0  0  0
   -1.7811   68.0220   64.7243 H   0  0  0  0  0  0  0  0  0  0  0  0
   -1.5329   69.6636   65.5049 H   0  0  0  0  0  0  0  0  0  0  0  0
   -0.7630   69.5047   63.1233 H   0  0  0  0  0  0  0  0  0  0  0  0
    0.4841   70.0185   64.3149 H   0  0  0  0  0  0  0  0  0  0  0  0
    0.1059   67.2625   63.2938 H   0  0  0  0  0  0  0  0  0  0  0  0
    2.1680   66.6566   64.3192 H   0  0  0  0  0  0  0  0  0  0  0  0
    2.2514   68.3088   65.0288 H   0  0  0  0  0  0  0  0  0  0  0  0
    0.1434   66.1647   65.5180 H   0  0  0  0  0  0  0  0  0  0  0  0
    1.3639   66.8806   66.6884 H   0  0  0  0  0  0  0  0  0  0  0  0
    1.3459   67.6867   61.5202 H   0  0  0  0  0  0  0  0  0  0  0  0
    1.2802   69.4346   62.0258 H   0  0  0  0  0  0  0  0  0  0  0  0
    3.4404   66.7157   61.2850 H   0  0  0  0  0  0  0  0  0  0  0  0
    5.8791   66.6696   61.7886 H   0  0  0  0  0  0  0  0  0  0  0  0
    6.8617   68.3259   63.3676 H   0  0  0  0  0  0  0  0  0  0  0  0
    5.4106   70.0510   64.4314 H   0  0  0  0  0  0  0  0  0  0  0  0
    2.9695   70.1051   63.9404 H   0  0  0  0  0  0  0  0  0  0  0  0
    0.7147   68.8267   69.2599 H   0  0  0  0  0  0  0  0  0  0  0  0
    1.3577   67.5674   68.1467 H   0  0  0  0  0  0  0  0  0  0  0  0
    5.1574   69.9116   66.1349 H   0  0  0  0  0  0  0  0  0  0  0  0
    2.9266   68.8091   66.1823 H   0  0  0  0  0  0  0  0  0  0  0  0
    2.4043   70.0459   70.2957 H   0  0  0  0  0  0  0  0  0  0  0  0
    4.6326   71.1502   70.2455 H   0  0  0  0  0  0  0  0  0  0  0  0
  2  1  1  0
  3  2  1  0
  4  3  1  0
  5  4  1  0
  6  5  1  0
  7  6  1  0
  7  2  1  0
  8  5  1  0
  9  8  1  0
 10  9  2  0
 11 10  1  0
 12 11  2  0
 13 12  1  0
 14 13  2  0
 14  9  1  0
 15  1  1  0
 17 16  2  0
 18 17  1  0
 19 15  1  0
 19 18  2  0
 20 19  1  0
 21 16  1  0
 21 20  2  0
 23 16  1  0
 23 22  1  0
 24 23  1  0
 25 23  1  0
  1 26  1  0
  1 27  1  0
  2 28  1  0
  3 29  1  0
  3 30  1  0
  4 31  1  0
  4 32  1  0
  5 33  1  0
  6 34  1  0
  6 35  1  0
  7 36  1  0
  7 37  1  0
  8 38  1  0
  8 39  1  0
 10 40  1  0
 11 41  1  0
 12 42  1  0
 13 43  1  0
 14 44  1  0
 15 45  1  0
 15 46  1  0
 17 47  1  0
 18 48  1  0
 20 49  1  0
 21 50  1  0
M  CHG  2   1   1   5   1
M  END
>  <score>  (2) 
-9.949

$$$$
=
     RDKit          3D

 50 52  0  0  0  0  0  0  0  0999 V2000
    0.0500   66.2570   68.7570 N   0  0  0  0  0  4  0  0  0  0  0  0
    0.7720   66.3960   70.0710 C   0  0  0  0  0  0  0  0  0  0  0  0
   -0.0770   65.8310   71.2160 C   0  0  0  0  0  0  0  0  0  0  0  0
   -0.0360   64.3140   71.3420 C   0  0  0  0  0  0  0  0  0  0  0  0
    1.3890   63.8430   71.3960 N   0  0  0  0  0  4  0  0  0  0  0  0
    2.1850   64.2520   70.1870 C   0  0  0  0  0  0  0  0  0  0  0  0
    2.1680   65.7680   70.0400 C   0  0  0  0  0  0  0  0  0  0  0  0
    1.4570   62.3300   71.6580 C   0  0  0  0  0  0  0  0  0  0  0  0
    2.8330   61.7660   71.4440 C   0  0  0  0  0  0  0  0  0  0  0  0
    3.1420   61.0690   70.2640 C   0  0  0  0  0  0  0  0  0  0  0  0
    4.4100   60.5170   70.0830 C   0  0  0  0  0  0  0  0  0  0  0  0
    5.3800   60.6570   71.0710 C   0  0  0  0  0  0  0  0  0  0  0  0
    5.0900   61.3570   72.2400 C   0  0  0  0  0  0  0  0  0  0  0  0
    3.8240   61.9110   72.4280 C   0  0  0  0  0  0  0  0  0  0  0  0
   -0.2500   67.5520   68.0330 C   0  0  0  0  0  0  0  0  0  0  0  0
    3.3500   68.9010   66.0540 C   0  0  0  0  0  0  0  0  0  0  0  0
    2.5940   67.8470   65.5210 C   0  0  0  0  0  0  0  0  0  0  0  0
    1.4210   67.4220   66.1500 C   0  0  0  0  0  0  0  0  0  0  0  0
    0.9820   68.0420   67.3290 C   0  0  0  0  0  0  0  0  0  0  0  0
    1.7410   69.0910   67.8680 C   0  0  0  0  0  0  0  0  0  0  0  0
    2.9140   69.5140   67.2370 C   0  0  0  0  0  0  0  0  0  0  0  0
    4.4290   69.8780   64.1510 F   0  0  0  0  0  0  0  0  0  0  0  0
    4.6350   69.3460   65.3840 C   0  0  0  0  0  0  0  0  0  0  0  0
    5.5270   68.3340   65.2260 F   0  0  0  0  0  0  0  0  0  0  0  0
    5.2670   70.3050   66.1130 F   0  0  0  0  0  0  0  0  0  0  0  0
    0.6308   65.6748   68.1368 H   0  0  0  0  0  0  0  0  0  0  0  0
   -0.8656   65.8425   68.9821 H   0  0  0  0  0  0  0  0  0  0  0  0
    0.9218   67.4707   70.2514 H   0  0  0  0  0  0  0  0  0  0  0  0
    0.2863   66.2643   72.1595 H   0  0  0  0  0  0  0  0  0  0  0  0
   -1.1205   66.0989   70.9940 H   0  0  0  0  0  0  0  0  0  0  0  0
   -0.5554   64.0105   72.2629 H   0  0  0  0  0  0  0  0  0  0  0  0
   -0.5326   63.8649   70.4692 H   0  0  0  0  0  0  0  0  0  0  0  0
    1.8361   64.3180   72.1931 H   0  0  0  0  0  0  0  0  0  0  0  0
    3.2238   63.9088   70.3017 H   0  0  0  0  0  0  0  0  0  0  0  0
    1.7386   63.7974   69.2903 H   0  0  0  0  0  0  0  0  0  0  0  0
    2.7565   66.1991   70.8633 H   0  0  0  0  0  0  0  0  0  0  0  0
    2.5874   65.9896   69.0475 H   0  0  0  0  0  0  0  0  0  0  0  0
    1.1564   62.1392   72.6988 H   0  0  0  0  0  0  0  0  0  0  0  0
    0.7813   61.8382   70.9428 H   0  0  0  0  0  0  0  0  0  0  0  0
    2.3798   60.9580   69.4786 H   0  0  0  0  0  0  0  0  0  0  0  0
    4.6437   59.9700   69.1577 H   0  0  0  0  0  0  0  0  0  0  0  0
    6.3769   60.2144   70.9287 H   0  0  0  0  0  0  0  0  0  0  0  0
    5.8609   61.4730   73.0161 H   0  0  0  0  0  0  0  0  0  0  0  0
    3.6007   62.4645   73.3520 H   0  0  0  0  0  0  0  0  0  0  0  0
   -1.0478   67.3809   67.2952 H   0  0  0  0  0  0  0  0  0  0  0  0
   -0.5742   68.3080   68.7633 H   0  0  0  0  0  0  0  0  0  0  0  0
    2.9279   67.3498   64.5983 H   0  0  0  0  0  0  0  0  0  0  0  0
    0.8379   66.5956   65.7176 H   0  0  0  0  0  0  0  0  0  0  0  0
    1.4107   69.5843   68.7940 H   0  0  0  0  0  0  0  0  0  0  0  0
    3.5009   70.3360   67.6728 H   0  0  0  0  0  0  0  0  0  0  0  0
  2  1  1  0
  3  2  1  0
  4  3  1  0
  5  4  1  0
  6  5  1  0
  7  6  1  0
  7  2  1  0
  8  5  1  0
  9  8  1  0
 10  9  2  0
 11 10  1  0
 12 11  2  0
 13 12  1  0
 14 13  2  0
 14  9  1  0
 15  1  1  0
 17 16  2  0
 18 17  1  0
 19 15  1  0
 19 18  2  0
 20 19  1  0
 21 16  1  0
 21 20  2  0
 23 16  1  0
 23 22  1  0
 24 23  1  0
 25 23  1  0
  1 26  1  0
  1 27  1  0
  2 28  1  0
  3 29  1  0
  3 30  1  0
  4 31  1  0
  4 32  1  0
  5 33  1  0
  6 34  1  0
  6 35  1  0
  7 36  1  0
  7 37  1  0
  8 38  1  0
  8 39  1  0
 10 40  1  0
 11 41  1  0
 12 42  1  0
 13 43  1  0
 14 44  1  0
 15 45  1  0
 15 46  1  0
 17 47  1  0
 18 48  1  0
 20 49  1  0
 21 50  1  0
M  CHG  2   1   1   5   1
M  END
>  <score>  (3) 
-9.596

$$$$
=
     RDKit          3D

 50 52  0  0  0  0  0  0  0  0999 V2000
    0.0670   65.3080   69.5040 N   0  0  0  0  0  4  0  0  0  0  0  0
   -0.1310   66.7960   69.3940 C   0  0  0  0  0  0  0  0  0  0  0  0
    1.2160   67.5090   69.2250 C   0  0  0  0  0  0  0  0  0  0  0  0
    1.7780   67.4680   67.8100 C   0  0  0  0  0  0  0  0  0  0  0  0
    0.7450   67.9530   66.8350 N   0  0  0  0  0  4  0  0  0  0  0  0
   -0.5230   67.1440   66.8770 C   0  0  0  0  0  0  0  0  0  0  0  0
   -1.1130   67.1730   68.2810 C   0  0  0  0  0  0  0  0  0  0  0  0
    1.3310   68.0480   65.4170 C   0  0  0  0  0  0  0  0  0  0  0  0
    2.6970   68.6720   65.3950 C   0  0  0  0  0  0  0  0  0  0  0  0
    3.4710   68.6520   64.2230 C   0  0  0  0  0  0  0  0  0  0  0  0
    4.7530   69.2020   64.2140 C   0  0  0  0  0  0  0  0  0  0  0  0
    5.2730   69.7790   65.3700 C   0  0  0  0  0  0  0  0  0  0  0  0
    4.5110   69.8160   66.5350 C   0  0  0  0  0  0  0  0  0  0  0  0
    3.2290   69.2670   66.5500 C   0  0  0  0  0  0  0  0  0  0  0  0
    0.3980   64.7910   70.8880 C   0  0  0  0  0  0  0  0  0  0  0  0
    3.4780   61.7750   70.5600 C   0  0  0  0  0  0  0  0  0  0  0  0
    3.6710   63.0550   70.0200 C   0  0  0  0  0  0  0  0  0  0  0  0
    2.6840   64.0360   70.1420 C   0  0  0  0  0  0  0  0  0  0  0  0
    1.4790   63.7540   70.8030 C   0  0  0  0  0  0  0  0  0  0  0  0
    1.2800   62.4720   71.3350 C   0  0  0  0  0  0  0  0  0  0  0  0
    2.2690   61.4930   71.2120 C   0  0  0  0  0  0  0  0  0  0  0  0
    4.1990   59.5360   71.0120 F   0  0  0  0  0  0  0  0  0  0  0  0
    4.5390   60.7040   70.4070 C   0  0  0  0  0  0  0  0  0  0  0  0
    5.7410   61.0720   70.9240 F   0  0  0  0  0  0  0  0  0  0  0  0
    4.7590   60.4060   69.0980 F   0  0  0  0  0  0  0  0  0  0  0  0
   -0.8016   64.8493   69.1940 H   0  0  0  0  0  0  0  0  0  0  0  0
    0.8861   65.0894   68.9190 H   0  0  0  0  0  0  0  0  0  0  0  0
   -0.5855   67.1380   70.3355 H   0  0  0  0  0  0  0  0  0  0  0  0
    1.0857   68.5627   69.5127 H   0  0  0  0  0  0  0  0  0  0  0  0
    1.9353   66.9751   69.8634 H   0  0  0  0  0  0  0  0  0  0  0  0
    2.6663   68.1142   67.7516 H   0  0  0  0  0  0  0  0  0  0  0  0
    2.0537   66.4329   67.5600 H   0  0  0  0  0  0  0  0  0  0  0  0
    0.4753   68.9034   67.1264 H   0  0  0  0  0  0  0  0  0  0  0  0
   -1.2492   67.5679   66.1678 H   0  0  0  0  0  0  0  0  0  0  0  0
   -0.2967   66.1033   66.6018 H   0  0  0  0  0  0  0  0  0  0  0  0
   -1.4800   68.1911   68.4778 H   0  0  0  0  0  0  0  0  0  0  0  0
   -1.9103   66.4154   68.2994 H   0  0  0  0  0  0  0  0  0  0  0  0
    1.4005   67.0340   64.9963 H   0  0  0  0  0  0  0  0  0  0  0  0
    0.6630   68.6897   64.8237 H   0  0  0  0  0  0  0  0  0  0  0  0
    3.0637   68.1999   63.3066 H   0  0  0  0  0  0  0  0  0  0  0  0
    5.3538   69.1799   63.2929 H   0  0  0  0  0  0  0  0  0  0  0  0
    6.2867   70.2060   65.3628 H   0  0  0  0  0  0  0  0  0  0  0  0
    4.9208   70.2789   67.4448 H   0  0  0  0  0  0  0  0  0  0  0  0
    2.6309   69.3004   67.4726 H   0  0  0  0  0  0  0  0  0  0  0  0
    0.7425   65.6258   71.5160 H   0  0  0  0  0  0  0  0  0  0  0  0
   -0.5023   64.3390   71.3297 H   0  0  0  0  0  0  0  0  0  0  0  0
    4.6090   63.2887   69.4951 H   0  0  0  0  0  0  0  0  0  0  0  0
    2.8527   65.0364   69.7169 H   0  0  0  0  0  0  0  0  0  0  0  0
    0.3387   62.2355   71.8527 H   0  0  0  0  0  0  0  0  0  0  0  0
    2.0975   60.4905   71.6310 H   0  0  0  0  0  0  0  0  0  0  0  0
  2  1  1  0
  3  2  1  0
  4  3  1  0
  5  4  1  0
  6  5  1  0
  7  6  1  0
  7  2  1  0
  8  5  1  0
  9  8  1  0
 10  9  2  0
 11 10  1  0
 12 11  2  0
 13 12  1  0
 14 13  2  0
 14  9  1  0
 15  1  1  0
 17 16  2  0
 18 17  1  0
 19 15  1  0
 19 18  2  0
 20 19  1  0
 21 16  1  0
 21 20  2  0
 23 16  1  0
 23 22  1  0
 24 23  1  0
 25 23  1  0
  1 26  1  0
  1 27  1  0
  2 28  1  0
  3 29  1  0
  3 30  1  0
  4 31  1  0
  4 32  1  0
  5 33  1  0
  6 34  1  0
  6 35  1  0
  7 36  1  0
  7 37  1  0
  8 38  1  0
  8 39  1  0
 10 40  1  0
 11 41  1  0
 12 42  1  0
 13 43  1  0
 14 44  1  0
 15 45  1  0
 15 46  1  0
 17 47  1  0
 18 48  1  0
 20 49  1  0
 21 50  1  0
M  CHG  2   1   1   5   1
M  END
>  <score>  (4) 
-9.53

$$$$
=
     RDKit          3D

 50 52  0  0  0  0  0  0  0  0999 V2000
    1.1650   67.2820   69.3770 N   0  0  0  0  0  4  0  0  0  0  0  0
    0.5770   68.0010   68.1920 C   0  0  0  0  0  0  0  0  0  0  0  0
    1.1570   69.4160   68.0770 C   0  0  0  0  0  0  0  0  0  0  0  0
    2.5400   69.4820   67.4440 C   0  0  0  0  0  0  0  0  0  0  0  0
    2.5380   68.7530   66.1320 N   0  0  0  0  0  4  0  0  0  0  0  0
    2.1330   67.3110   66.2650 C   0  0  0  0  0  0  0  0  0  0  0  0
    0.7460   67.2150   66.8900 C   0  0  0  0  0  0  0  0  0  0  0  0
    3.8850   68.9180   65.4100 C   0  0  0  0  0  0  0  0  0  0  0  0
    3.7450   68.9280   63.9150 C   0  0  0  0  0  0  0  0  0  0  0  0
    2.4880   68.7410   63.3160 C   0  0  0  0  0  0  0  0  0  0  0  0
    2.3650   68.7160   61.9270 C   0  0  0  0  0  0  0  0  0  0  0  0
    3.4900   68.8810   61.1230 C   0  0  0  0  0  0  0  0  0  0  0  0
    4.7400   69.0800   61.7050 C   0  0  0  0  0  0  0  0  0  0  0  0
    4.8700   69.1040   63.0940 C   0  0  0  0  0  0  0  0  0  0  0  0
    0.2150   66.3760   70.1320 C   0  0  0  0  0  0  0  0  0  0  0  0
    2.0810   62.5550   70.9080 C   0  0  0  0  0  0  0  0  0  0  0  0
    0.6900   62.7040   71.0100 C   0  0  0  0  0  0  0  0  0  0  0  0
    0.0840   63.9340   70.7420 C   0  0  0  0  0  0  0  0  0  0  0  0
    0.8600   65.0430   70.3690 C   0  0  0  0  0  0  0  0  0  0  0  0
    2.2510   64.8970   70.2750 C   0  0  0  0  0  0  0  0  0  0  0  0
    2.8550   63.6660   70.5440 C   0  0  0  0  0  0  0  0  0  0  0  0
    3.9140   61.3660   71.8920 F   0  0  0  0  0  0  0  0  0  0  0  0
    2.7400   61.2260   71.2210 C   0  0  0  0  0  0  0  0  0  0  0  0
    3.0150   60.4950   70.1090 F   0  0  0  0  0  0  0  0  0  0  0  0
    1.9430   60.4500   72.0040 F   0  0  0  0  0  0  0  0  0  0  0  0
    1.9506   66.7071   69.0406 H   0  0  0  0  0  0  0  0  0  0  0  0
    1.4413   68.0173   70.0432 H   0  0  0  0  0  0  0  0  0  0  0  0
   -0.5063   68.0854   68.3630 H   0  0  0  0  0  0  0  0  0  0  0  0
    0.4703   70.0202   67.4659 H   0  0  0  0  0  0  0  0  0  0  0  0
    1.2648   69.7943   69.1043 H   0  0  0  0  0  0  0  0  0  0  0  0
    2.8142   70.5340   67.2761 H   0  0  0  0  0  0  0  0  0  0  0  0
    3.2694   69.0101   68.1188 H   0  0  0  0  0  0  0  0  0  0  0  0
    1.8130   69.1891   65.5446 H   0  0  0  0  0  0  0  0  0  0  0  0
    2.1171   66.8437   65.2693 H   0  0  0  0  0  0  0  0  0  0  0  0
    2.8565   66.7905   66.9097 H   0  0  0  0  0  0  0  0  0  0  0  0
    0.0147   67.5961   66.1620 H   0  0  0  0  0  0  0  0  0  0  0  0
    0.5915   66.1558   67.1435 H   0  0  0  0  0  0  0  0  0  0  0  0
    4.3399   69.8680   65.7270 H   0  0  0  0  0  0  0  0  0  0  0  0
    4.5132   68.0559   65.6786 H   0  0  0  0  0  0  0  0  0  0  0  0
    1.5955   68.6135   63.9463 H   0  0  0  0  0  0  0  0  0  0  0  0
    1.3777   68.5657   61.4658 H   0  0  0  0  0  0  0  0  0  0  0  0
    3.3916   68.8542   60.0277 H   0  0  0  0  0  0  0  0  0  0  0  0
    5.6262   69.2185   61.0683 H   0  0  0  0  0  0  0  0  0  0  0  0
    5.8594   69.2617   63.5482 H   0  0  0  0  0  0  0  0  0  0  0  0
   -0.0368   66.8363   71.0988 H   0  0  0  0  0  0  0  0  0  0  0  0
   -0.6997   66.2349   69.5375 H   0  0  0  0  0  0  0  0  0  0  0  0
    0.0702   61.8440   71.3039 H   0  0  0  0  0  0  0  0  0  0  0  0
   -1.0084   64.0342   70.8238 H   0  0  0  0  0  0  0  0  0  0  0  0
    2.8719   65.7582   69.9872 H   0  0  0  0  0  0  0  0  0  0  0  0
    3.9481   63.5676   70.4695 H   0  0  0  0  0  0  0  0  0  0  0  0
  2  1  1  0
  3  2  1  0
  4  3  1  0
  5  4  1  0
  6  5  1  0
  7  6  1  0
  7  2  1  0
  8  5  1  0
  9  8  1  0
 10  9  2  0
 11 10  1  0
 12 11  2  0
 13 12  1  0
 14 13  2  0
 14  9  1  0
 15  1  1  0
 17 16  2  0
 18 17  1  0
 19 15  1  0
 19 18  2  0
 20 19  1  0
 21 16  1  0
 21 20  2  0
 23 16  1  0
 23 22  1  0
 24 23  1  0
 25 23  1  0
  1 26  1  0
  1 27  1  0
  2 28  1  0
  3 29  1  0
  3 30  1  0
  4 31  1  0
  4 32  1  0
  5 33  1  0
  6 34  1  0
  6 35  1  0
  7 36  1  0
  7 37  1  0
  8 38  1  0
  8 39  1  0
 10 40  1  0
 11 41  1  0
 12 42  1  0
 13 43  1  0
 14 44  1  0
 15 45  1  0
 15 46  1  0
 17 47  1  0
 18 48  1  0
 20 49  1  0
 21 50  1  0
M  CHG  2   1   1   5   1
M  END
>  <score>  (5) 
-9.517

$$$$
=
     RDKit          3D

 50 52  0  0  0  0  0  0  0  0999 V2000
    1.6490   60.0530   75.3100 N   0  0  0  0  0  4  0  0  0  0  0  0
    2.3030   58.7210   75.0540 C   0  0  0  0  0  0  0  0  0  0  0  0
    1.5680   57.9650   73.9400 C   0  0  0  0  0  0  0  0  0  0  0  0
    1.9190   58.4210   72.5300 C   0  0  0  0  0  0  0  0  0  0  0  0
    3.4080   58.4120   72.3450 N   0  0  0  0  0  4  0  0  0  0  0  0
    4.1250   59.2910   73.3320 C   0  0  0  0  0  0  0  0  0  0  0  0
    3.7980   58.8530   74.7540 C   0  0  0  0  0  0  0  0  0  0  0  0
    3.7820   58.7390   70.8900 C   0  0  0  0  0  0  0  0  0  0  0  0
    3.9270   60.2140   70.6470 C   0  0  0  0  0  0  0  0  0  0  0  0
    5.0330   60.9140   71.1560 C   0  0  0  0  0  0  0  0  0  0  0  0
    5.1490   62.2900   70.9580 C   0  0  0  0  0  0  0  0  0  0  0  0
    4.1680   62.9790   70.2490 C   0  0  0  0  0  0  0  0  0  0  0  0
    3.0730   62.2930   69.7280 C   0  0  0  0  0  0  0  0  0  0  0  0
    2.9510   60.9170   69.9240 C   0  0  0  0  0  0  0  0  0  0  0  0
    0.3130   60.2690   74.6320 C   0  0  0  0  0  0  0  0  0  0  0  0
    0.5300   63.6330   71.9240 C   0  0  0  0  0  0  0  0  0  0  0  0
    1.4760   63.4780   72.9470 C   0  0  0  0  0  0  0  0  0  0  0  0
    1.4180   62.3820   73.8120 C   0  0  0  0  0  0  0  0  0  0  0  0
    0.4070   61.4190   73.6720 C   0  0  0  0  0  0  0  0  0  0  0  0
   -0.5450   61.5770   72.6540 C   0  0  0  0  0  0  0  0  0  0  0  0
   -0.4840   62.6740   71.7910 C   0  0  0  0  0  0  0  0  0  0  0  0
   -0.0960   64.6350   69.8390 F   0  0  0  0  0  0  0  0  0  0  0  0
    0.5800   64.8340   71.0010 C   0  0  0  0  0  0  0  0  0  0  0  0
    1.8470   65.1850   70.6570 F   0  0  0  0  0  0  0  0  0  0  0  0
    0.0230   65.9300   71.5840 F   0  0  0  0  0  0  0  0  0  0  0  0
    1.5071   60.1459   76.3259 H   0  0  0  0  0  0  0  0  0  0  0  0
    2.2839   60.7590   74.9109 H   0  0  0  0  0  0  0  0  0  0  0  0
    2.2251   58.1326   75.9801 H   0  0  0  0  0  0  0  0  0  0  0  0
    1.8165   56.8970   74.0276 H   0  0  0  0  0  0  0  0  0  0  0  0
    0.4960   58.1696   74.0774 H   0  0  0  0  0  0  0  0  0  0  0  0
    1.4569   57.7393   71.8008 H   0  0  0  0  0  0  0  0  0  0  0  0
    1.5415   59.4426   72.3758 H   0  0  0  0  0  0  0  0  0  0  0  0
    3.7324   57.4548   72.5436 H   0  0  0  0  0  0  0  0  0  0  0  0
    5.2099   59.2138   73.1675 H   0  0  0  0  0  0  0  0  0  0  0  0
    3.7993   60.3322   73.1912 H   0  0  0  0  0  0  0  0  0  0  0  0
    4.2703   57.8750   74.9286 H   0  0  0  0  0  0  0  0  0  0  0  0
    4.1799   59.6424   75.4181 H   0  0  0  0  0  0  0  0  0  0  0  0
    4.7372   58.2476   70.6531 H   0  0  0  0  0  0  0  0  0  0  0  0
    2.9671   58.3746   70.2472 H   0  0  0  0  0  0  0  0  0  0  0  0
    5.8123   60.3742   71.7140 H   0  0  0  0  0  0  0  0  0  0  0  0
    6.0167   62.8317   71.3625 H   0  0  0  0  0  0  0  0  0  0  0  0
    4.2578   64.0652   70.1003 H   0  0  0  0  0  0  0  0  0  0  0  0
    2.3033   62.8372   69.1611 H   0  0  0  0  0  0  0  0  0  0  0  0
    2.0850   60.3802   69.5095 H   0  0  0  0  0  0  0  0  0  0  0  0
    0.0309   59.3582   74.0835 H   0  0  0  0  0  0  0  0  0  0  0  0
   -0.4474   60.4948   75.3941 H   0  0  0  0  0  0  0  0  0  0  0  0
    2.2722   64.2269   73.0701 H   0  0  0  0  0  0  0  0  0  0  0  0
    2.1697   62.2735   74.6077 H   0  0  0  0  0  0  0  0  0  0  0  0
   -1.3453   60.8319   72.5343 H   0  0  0  0  0  0  0  0  0  0  0  0
   -1.2392   62.7864   70.9992 H   0  0  0  0  0  0  0  0  0  0  0  0
  2  1  1  0
  3  2  1  0
  4  3  1  0
  5  4  1  0
  6  5  1  0
  7  6  1  0
  7  2  1  0
  8  5  1  0
  9  8  1  0
 10  9  2  0
 11 10  1  0
 12 11  2  0
 13 12  1  0
 14 13  2  0
 14  9  1  0
 15  1  1  0
 17 16  2  0
 18 17  1  0
 19 15  1  0
 19 18  2  0
 20 19  1  0
 21 16  1  0
 21 20  2  0
 23 16  1  0
 23 22  1  0
 24 23  1  0
 25 23  1  0
  1 26  1  0
  1 27  1  0
  2 28  1  0
  3 29  1  0
  3 30  1  0
  4 31  1  0
  4 32  1  0
  5 33  1  0
  6 34  1  0
  6 35  1  0
  7 36  1  0
  7 37  1  0
  8 38  1  0
  8 39  1  0
 10 40  1  0
 11 41  1  0
 12 42  1  0
 13 43  1  0
 14 44  1  0
 15 45  1  0
 15 46  1  0
 17 47  1  0
 18 48  1  0
 20 49  1  0
 21 50  1  0
M  CHG  2   1   1   5   1
M  END
>  <score>  (6) 
-9.146

$$$$
=
     RDKit          3D

 50 52  0  0  0  0  0  0  0  0999 V2000
    3.0040   57.8560   73.4350 N   0  0  0  0  0  4  0  0  0  0  0  0
    1.8880   57.2990   74.2780 C   0  0  0  0  0  0  0  0  0  0  0  0
    1.8460   57.9920   75.6440 C   0  0  0  0  0  0  0  0  0  0  0  0
    1.1750   59.3590   75.6390 C   0  0  0  0  0  0  0  0  0  0  0  0
   -0.1820   59.2600   75.0030 N   0  0  0  0  0  4  0  0  0  0  0  0
   -0.1290   58.7390   73.5930 C   0  0  0  0  0  0  0  0  0  0  0  0
    0.5330   57.3660   73.5690 C   0  0  0  0  0  0  0  0  0  0  0  0
   -0.9340   60.5960   75.1050 C   0  0  0  0  0  0  0  0  0  0  0  0
   -0.3980   61.6370   74.1630 C   0  0  0  0  0  0  0  0  0  0  0  0
    0.5010   62.6150   74.6190 C   0  0  0  0  0  0  0  0  0  0  0  0
    0.9710   63.6010   73.7510 C   0  0  0  0  0  0  0  0  0  0  0  0
    0.5530   63.6180   72.4230 C   0  0  0  0  0  0  0  0  0  0  0  0
   -0.3280   62.6460   71.9550 C   0  0  0  0  0  0  0  0  0  0  0  0
   -0.8030   61.6580   72.8190 C   0  0  0  0  0  0  0  0  0  0  0  0
    2.7500   57.8800   71.9420 C   0  0  0  0  0  0  0  0  0  0  0  0
    3.6710   61.8100   70.3920 C   0  0  0  0  0  0  0  0  0  0  0  0
    3.7530   60.6800   69.5660 C   0  0  0  0  0  0  0  0  0  0  0  0
    3.4380   59.4110   70.0620 C   0  0  0  0  0  0  0  0  0  0  0  0
    3.0380   59.2480   71.3960 C   0  0  0  0  0  0  0  0  0  0  0  0
    2.9630   60.3770   72.2260 C   0  0  0  0  0  0  0  0  0  0  0  0
    3.2790   61.6440   71.7280 C   0  0  0  0  0  0  0  0  0  0  0  0
    3.9260   63.2700   68.5100 F   0  0  0  0  0  0  0  0  0  0  0  0
    4.0350   63.1820   69.8610 C   0  0  0  0  0  0  0  0  0  0  0  0
    5.3050   63.5500   70.1730 F   0  0  0  0  0  0  0  0  0  0  0  0
    3.2200   64.1440   70.3730 F   0  0  0  0  0  0  0  0  0  0  0  0
    3.1798   58.8234   73.7417 H   0  0  0  0  0  0  0  0  0  0  0  0
    3.8039   57.2221   73.5736 H   0  0  0  0  0  0  0  0  0  0  0  0
    2.0991   56.2317   74.4403 H   0  0  0  0  0  0  0  0  0  0  0  0
    1.2971   57.3426   76.3418 H   0  0  0  0  0  0  0  0  0  0  0  0
    2.8916   58.1582   75.9424 H   0  0  0  0  0  0  0  0  0  0  0  0
    1.0676   59.7164   76.6738 H   0  0  0  0  0  0  0  0  0  0  0  0
    1.7937   60.0640   75.0644 H   0  0  0  0  0  0  0  0  0  0  0  0
   -0.7167   58.5590   75.5356 H   0  0  0  0  0  0  0  0  0  0  0  0
   -1.1517   58.6573   73.1962 H   0  0  0  0  0  0  0  0  0  0  0  0
    0.4573   59.4334   72.9733 H   0  0  0  0  0  0  0  0  0  0  0  0
   -0.1449   56.6498   74.0563 H   0  0  0  0  0  0  0  0  0  0  0  0
    0.7227   57.1300   72.5115 H   0  0  0  0  0  0  0  0  0  0  0  0
   -1.9944   60.4217   74.8703 H   0  0  0  0  0  0  0  0  0  0  0  0
   -0.8008   60.9747   76.1291 H   0  0  0  0  0  0  0  0  0  0  0  0
    0.8365   62.6035   75.6665 H   0  0  0  0  0  0  0  0  0  0  0  0
    1.6724   64.3656   74.1161 H   0  0  0  0  0  0  0  0  0  0  0  0
    0.9192   64.4005   71.7422 H   0  0  0  0  0  0  0  0  0  0  0  0
   -0.6498   62.6570   70.9032 H   0  0  0  0  0  0  0  0  0  0  0  0
   -1.4982   60.8920   72.4449 H   0  0  0  0  0  0  0  0  0  0  0  0
    3.4040   57.1456   71.4491 H   0  0  0  0  0  0  0  0  0  0  0  0
    1.6965   57.6282   71.7501 H   0  0  0  0  0  0  0  0  0  0  0  0
    4.0680   60.7927   68.5181 H   0  0  0  0  0  0  0  0  0  0  0  0
    3.5045   58.5344   69.4009 H   0  0  0  0  0  0  0  0  0  0  0  0
    2.6535   60.2640   73.2755 H   0  0  0  0  0  0  0  0  0  0  0  0
    3.2196   62.5199   72.3908 H   0  0  0  0  0  0  0  0  0  0  0  0
  2  1  1  0
  3  2  1  0
  4  3  1  0
  5  4  1  0
  6  5  1  0
  7  6  1  0
  7  2  1  0
  8  5  1  0
  9  8  1  0
 10  9  2  0
 11 10  1  0
 12 11  2  0
 13 12  1  0
 14 13  2  0
 14  9  1  0
 15  1  1  0
 17 16  2  0
 18 17  1  0
 19 15  1  0
 19 18  2  0
 20 19  1  0
 21 16  1  0
 21 20  2  0
 23 16  1  0
 23 22  1  0
 24 23  1  0
 25 23  1  0
  1 26  1  0
  1 27  1  0
  2 28  1  0
  3 29  1  0
  3 30  1  0
  4 31  1  0
  4 32  1  0
  5 33  1  0
  6 34  1  0
  6 35  1  0
  7 36  1  0
  7 37  1  0
  8 38  1  0
  8 39  1  0
 10 40  1  0
 11 41  1  0
 12 42  1  0
 13 43  1  0
 14 44  1  0
 15 45  1  0
 15 46  1  0
 17 47  1  0
 18 48  1  0
 20 49  1  0
 21 50  1  0
M  CHG  2   1   1   5   1
M  END
>  <score>  (7) 
-8.92

$$$$
=
     RDKit          3D

 50 52  0  0  0  0  0  0  0  0999 V2000
    1.1970   63.5710   70.2540 N   0  0  0  0  0  4  0  0  0  0  0  0
    2.5570   63.4860   69.6130 C   0  0  0  0  0  0  0  0  0  0  0  0
    3.6580   63.7390   70.6490 C   0  0  0  0  0  0  0  0  0  0  0  0
    3.9860   62.5400   71.5280 C   0  0  0  0  0  0  0  0  0  0  0  0
    4.2670   61.3390   70.6730 N   0  0  0  0  0  4  0  0  0  0  0  0
    3.1160   60.9810   69.7720 C   0  0  0  0  0  0  0  0  0  0  0  0
    2.7710   62.1620   68.8740 C   0  0  0  0  0  0  0  0  0  0  0  0
    4.7300   60.1510   71.5300 C   0  0  0  0  0  0  0  0  0  0  0  0
    3.5950   59.2580   71.9460 C   0  0  0  0  0  0  0  0  0  0  0  0
    2.7530   59.6240   73.0080 C   0  0  0  0  0  0  0  0  0  0  0  0
    1.7210   58.7780   73.4150 C   0  0  0  0  0  0  0  0  0  0  0  0
    1.5170   57.5640   72.7640 C   0  0  0  0  0  0  0  0  0  0  0  0
    2.3380   57.1950   71.7010 C   0  0  0  0  0  0  0  0  0  0  0  0
    3.3720   58.0370   71.2910 C   0  0  0  0  0  0  0  0  0  0  0  0
    0.8700   64.8880   70.9250 C   0  0  0  0  0  0  0  0  0  0  0  0
   -0.1010   67.7950   67.8770 C   0  0  0  0  0  0  0  0  0  0  0  0
   -1.0290   66.8110   68.2460 C   0  0  0  0  0  0  0  0  0  0  0  0
   -0.7230   65.8820   69.2440 C   0  0  0  0  0  0  0  0  0  0  0  0
    0.5210   65.9170   69.8910 C   0  0  0  0  0  0  0  0  0  0  0  0
    1.4540   66.8950   69.5160 C   0  0  0  0  0  0  0  0  0  0  0  0
    1.1450   67.8230   68.5170 C   0  0  0  0  0  0  0  0  0  0  0  0
    0.6490   69.0760   65.9950 F   0  0  0  0  0  0  0  0  0  0  0  0
   -0.4250   68.7880   66.7780 C   0  0  0  0  0  0  0  0  0  0  0  0
   -0.8850   69.9740   67.2540 F   0  0  0  0  0  0  0  0  0  0  0  0
   -1.3870   68.3090   65.9440 F   0  0  0  0  0  0  0  0  0  0  0  0
    0.4912   63.4044   69.5226 H   0  0  0  0  0  0  0  0  0  0  0  0
    1.1950   62.8651   71.0040 H   0  0  0  0  0  0  0  0  0  0  0  0
    2.6125   64.2776   68.8512 H   0  0  0  0  0  0  0  0  0  0  0  0
    4.5728   64.0327   70.1133 H   0  0  0  0  0  0  0  0  0  0  0  0
    3.2812   64.5249   71.3201 H   0  0  0  0  0  0  0  0  0  0  0  0
    4.8719   62.7676   72.1390 H   0  0  0  0  0  0  0  0  0  0  0  0
    3.1275   62.3254   72.1815 H   0  0  0  0  0  0  0  0  0  0  0  0
    5.0422   61.5903   70.0430 H   0  0  0  0  0  0  0  0  0  0  0  0
    3.3957   60.1189   69.1487 H   0  0  0  0  0  0  0  0  0  0  0  0
    2.2405   60.7275   70.3878 H   0  0  0  0  0  0  0  0  0  0  0  0
    3.5936   62.2989   68.1567 H   0  0  0  0  0  0  0  0  0  0  0  0
    1.8132   61.9167   68.3919 H   0  0  0  0  0  0  0  0  0  0  0  0
    5.4500   59.5569   70.9481 H   0  0  0  0  0  0  0  0  0  0  0  0
    5.1842   60.5588   72.4451 H   0  0  0  0  0  0  0  0  0  0  0  0
    2.9079   60.5839   73.5225 H   0  0  0  0  0  0  0  0  0  0  0  0
    1.0680   59.0701   74.2507 H   0  0  0  0  0  0  0  0  0  0  0  0
    0.7064   56.8955   73.0897 H   0  0  0  0  0  0  0  0  0  0  0  0
    2.1708   56.2385   71.1842 H   0  0  0  0  0  0  0  0  0  0  0  0
    4.0162   57.7422   70.4495 H   0  0  0  0  0  0  0  0  0  0  0  0
    0.0155   64.7489   71.6036 H   0  0  0  0  0  0  0  0  0  0  0  0
    1.7464   65.2308   71.4946 H   0  0  0  0  0  0  0  0  0  0  0  0
   -2.0074   66.7699   67.7451 H   0  0  0  0  0  0  0  0  0  0  0  0
   -1.4630   65.1178   69.5242 H   0  0  0  0  0  0  0  0  0  0  0  0
    2.4355   66.9321   70.0113 H   0  0  0  0  0  0  0  0  0  0  0  0
    1.8874   68.5825   68.2307 H   0  0  0  0  0  0  0  0  0  0  0  0
  2  1  1  0
  3  2  1  0
  4  3  1  0
  5  4  1  0
  6  5  1  0
  7  6  1  0
  7  2  1  0
  8  5  1  0
  9  8  1  0
 10  9  2  0
 11 10  1  0
 12 11  2  0
 13 12  1  0
 14 13  2  0
 14  9  1  0
 15  1  1  0
 17 16  2  0
 18 17  1  0
 19 15  1  0
 19 18  2  0
 20 19  1  0
 21 16  1  0
 21 20  2  0
 23 16  1  0
 23 22  1  0
 24 23  1  0
 25 23  1  0
  1 26  1  0
  1 27  1  0
  2 28  1  0
  3 29  1  0
  3 30  1  0
  4 31  1  0
  4 32  1  0
  5 33  1  0
  6 34  1  0
  6 35  1  0
  7 36  1  0
  7 37  1  0
  8 38  1  0
  8 39  1  0
 10 40  1  0
 11 41  1  0
 12 42  1  0
 13 43  1  0
 14 44  1  0
 15 45  1  0
 15 46  1  0
 17 47  1  0
 18 48  1  0
 20 49  1  0
 21 50  1  0
M  CHG  2   1   1   5   1
M  END
>  <score>  (8) 
-8.762

$$$$
=
     RDKit          3D

 50 52  0  0  0  0  0  0  0  0999 V2000
   -0.6800   62.5170   74.0850 N   0  0  0  0  0  4  0  0  0  0  0  0
   -1.3160   61.3820   74.8440 C   0  0  0  0  0  0  0  0  0  0  0  0
   -1.5000   60.1610   73.9360 C   0  0  0  0  0  0  0  0  0  0  0  0
   -0.2390   59.3320   73.7310 C   0  0  0  0  0  0  0  0  0  0  0  0
    0.3600   58.9750   75.0610 N   0  0  0  0  0  4  0  0  0  0  0  0
    0.7020   60.1810   75.8910 C   0  0  0  0  0  0  0  0  0  0  0  0
   -0.5450   61.0280   76.1180 C   0  0  0  0  0  0  0  0  0  0  0  0
    1.5570   58.0260   74.8860 C   0  0  0  0  0  0  0  0  0  0  0  0
    2.3760   58.3440   73.6680 C   0  0  0  0  0  0  0  0  0  0  0  0
    2.0790   57.7430   72.4340 C   0  0  0  0  0  0  0  0  0  0  0  0
    2.8610   58.0130   71.3110 C   0  0  0  0  0  0  0  0  0  0  0  0
    3.9420   58.8870   71.4070 C   0  0  0  0  0  0  0  0  0  0  0  0
    4.2380   59.4990   72.6220 C   0  0  0  0  0  0  0  0  0  0  0  0
    3.4600   59.2320   73.7480 C   0  0  0  0  0  0  0  0  0  0  0  0
   -0.7040   62.3910   72.5760 C   0  0  0  0  0  0  0  0  0  0  0  0
    3.2700   62.9280   70.9630 C   0  0  0  0  0  0  0  0  0  0  0  0
    2.1440   63.0200   70.1320 C   0  0  0  0  0  0  0  0  0  0  0  0
    0.8580   62.8650   70.6560 C   0  0  0  0  0  0  0  0  0  0  0  0
    0.6730   62.6090   72.0230 C   0  0  0  0  0  0  0  0  0  0  0  0
    1.7990   62.5080   72.8530 C   0  0  0  0  0  0  0  0  0  0  0  0
    3.0840   62.6640   72.3270 C   0  0  0  0  0  0  0  0  0  0  0  0
    4.6660   63.2860   69.0480 F   0  0  0  0  0  0  0  0  0  0  0  0
    4.6670   63.0740   70.3900 C   0  0  0  0  0  0  0  0  0  0  0  0
    5.4450   61.9810   70.6080 F   0  0  0  0  0  0  0  0  0  0  0  0
    5.3220   64.1290   70.9440 F   0  0  0  0  0  0  0  0  0  0  0  0
   -1.1749   63.3840   74.3383 H   0  0  0  0  0  0  0  0  0  0  0  0
    0.3148   62.5115   74.3520 H   0  0  0  0  0  0  0  0  0  0  0  0
   -2.3106   61.7206   75.1698 H   0  0  0  0  0  0  0  0  0  0  0  0
   -2.2685   59.5131   74.3827 H   0  0  0  0  0  0  0  0  0  0  0  0
   -1.7857   60.5468   72.9463 H   0  0  0  0  0  0  0  0  0  0  0  0
   -0.4928   58.4107   73.1862 H   0  0  0  0  0  0  0  0  0  0  0  0
    0.4894   59.9181   73.1514 H   0  0  0  0  0  0  0  0  0  0  0  0
   -0.3633   58.4714   75.5940 H   0  0  0  0  0  0  0  0  0  0  0  0
    1.1017   59.8535   76.8621 H   0  0  0  0  0  0  0  0  0  0  0  0
    1.4555   60.7823   75.3612 H   0  0  0  0  0  0  0  0  0  0  0  0
   -1.2207   60.4719   76.7845 H   0  0  0  0  0  0  0  0  0  0  0  0
   -0.2009   61.9799   76.5486 H   0  0  0  0  0  0  0  0  0  0  0  0
    2.2015   58.1052   75.7739 H   0  0  0  0  0  0  0  0  0  0  0  0
    1.1585   57.0083   74.7618 H   0  0  0  0  0  0  0  0  0  0  0  0
    1.2245   57.0551   72.3526 H   0  0  0  0  0  0  0  0  0  0  0  0
    2.6241   57.5356   70.3487 H   0  0  0  0  0  0  0  0  0  0  0  0
    4.5620   59.0936   70.5222 H   0  0  0  0  0  0  0  0  0  0  0  0
    5.0872   60.1945   72.6938 H   0  0  0  0  0  0  0  0  0  0  0  0
    3.6973   59.7203   74.7047 H   0  0  0  0  0  0  0  0  0  0  0  0
   -1.0529   61.3851   72.2996 H   0  0  0  0  0  0  0  0  0  0  0  0
   -1.3850   63.1483   72.1604 H   0  0  0  0  0  0  0  0  0  0  0  0
    2.2745   63.2160   69.0575 H   0  0  0  0  0  0  0  0  0  0  0  0
   -0.0155   62.9442   69.9921 H   0  0  0  0  0  0  0  0  0  0  0  0
    1.6695   62.3044   73.9262 H   0  0  0  0  0  0  0  0  0  0  0  0
    3.9579   62.5788   72.9896 H   0  0  0  0  0  0  0  0  0  0  0  0
  2  1  1  0
  3  2  1  0
  4  3  1  0
  5  4  1  0
  6  5  1  0
  7  6  1  0
  7  2  1  0
  8  5  1  0
  9  8  1  0
 10  9  2  0
 11 10  1  0
 12 11  2  0
 13 12  1  0
 14 13  2  0
 14  9  1  0
 15  1  1  0
 17 16  2  0
 18 17  1  0
 19 15  1  0
 19 18  2  0
 20 19  1  0
 21 16  1  0
 21 20  2  0
 23 16  1  0
 23 22  1  0
 24 23  1  0
 25 23  1  0
  1 26  1  0
  1 27  1  0
  2 28  1  0
  3 29  1  0
  3 30  1  0
  4 31  1  0
  4 32  1  0
  5 33  1  0
  6 34  1  0
  6 35  1  0
  7 36  1  0
  7 37  1  0
  8 38  1  0
  8 39  1  0
 10 40  1  0
 11 41  1  0
 12 42  1  0
 13 43  1  0
 14 44  1  0
 15 45  1  0
 15 46  1  0
 17 47  1  0
 18 48  1  0
 20 49  1  0
 21 50  1  0
M  CHG  2   1   1   5   1
M  END
>  <score>  (9) 
-8.27

$$$$
