=
     RDKit          3D

 59 62  0  0  0  0  0  0  0  0999 V2000
    0.0250   65.5420   69.5830 O   0  0  0  0  0  0  0  0  0  0  0  0
    1.4030   60.9550   72.3540 C   0  0  0  0  0  0  0  0  0  0  0  0
    0.7040   62.1430   72.5910 C   0  0  0  0  0  0  0  0  0  0  0  0
    1.0050   63.2320   71.7950 C   0  0  0  0  0  0  0  0  0  0  0  0
    1.9580   63.1980   70.7890 C   0  0  0  0  0  0  0  0  0  0  0  0
    2.6650   62.0300   70.5460 C   0  0  0  0  0  0  0  0  0  0  0  0
    2.3850   60.8970   71.3270 C   0  0  0  0  0  0  0  0  0  0  0  0
    2.1300   64.5280   70.1200 C   0  0  0  0  0  0  0  0  0  0  0  0
    0.9510   65.3840   70.6500 C   0  0  2  0  0  0  0  0  0  0  0  0
    0.4240   64.5670   71.8340 C   0  0  0  0  0  0  0  0  0  0  0  0
   -0.3580   64.9410   72.6920 O   0  0  0  0  0  0  0  0  0  0  0  0
   -0.0890   59.5370   73.5750 C   0  0  0  0  0  0  0  0  0  0  0  0
    1.2110   59.7940   73.0630 O   0  0  0  0  0  0  0  0  0  0  0  0
    3.0170   59.6860   71.1800 O   0  0  0  0  0  0  0  0  0  0  0  0
    3.5130   59.3460   69.8930 C   0  0  0  0  0  0  0  0  0  0  0  0
    0.0740   66.6550   68.7960 C   0  0  0  0  0  0  0  0  0  0  0  0
   -1.0930   66.8970   68.0700 C   0  0  0  0  0  0  0  0  0  0  0  0
   -1.2020   68.0180   67.2520 C   0  0  0  0  0  0  0  0  0  0  0  0
   -0.1410   68.9170   67.1600 C   0  0  0  0  0  0  0  0  0  0  0  0
    1.0460   68.7000   67.8820 C   0  0  0  0  0  0  0  0  0  0  0  0
    1.1450   67.5420   68.6770 C   0  0  0  0  0  0  0  0  0  0  0  0
    2.1740   69.7120   67.7670 C   0  0  1  0  0  0  0  0  0  0  0  0
    3.0890   69.8290   68.9900 C   0  0  0  0  0  0  0  0  0  0  0  0
    2.9770   69.4870   66.4860 N   0  0  0  0  0  4  0  0  0  0  0  0
    4.4400   69.8450   66.6350 C   0  0  0  0  0  0  0  0  0  0  0  0
    5.2720   69.2890   65.4810 C   0  0  0  0  0  0  0  0  0  0  0  0
    4.4740   69.1680   64.1920 C   0  0  0  0  0  0  0  0  0  0  0  0
    3.2630   68.2500   64.3680 C   0  0  0  0  0  0  0  0  0  0  0  0
    2.7700   68.1580   65.8110 C   0  0  0  0  0  0  0  0  0  0  0  0
   -0.0575   62.2082   73.3821 H   0  0  0  0  0  0  0  0  0  0  0  0
    3.4303   61.9918   69.7568 H   0  0  0  0  0  0  0  0  0  0  0  0
    3.0939   64.9804   70.3960 H   0  0  0  0  0  0  0  0  0  0  0  0
    2.1289   64.4478   69.0229 H   0  0  0  0  0  0  0  0  0  0  0  0
    1.1967   66.4028   70.9842 H   0  0  0  0  0  0  0  0  0  0  0  0
   -0.0579   59.5432   74.6745 H   0  0  0  0  0  0  0  0  0  0  0  0
   -0.7821   60.3155   73.2235 H   0  0  0  0  0  0  0  0  0  0  0  0
   -0.4337   58.5533   73.2235 H   0  0  0  0  0  0  0  0  0  0  0  0
    4.4160   58.7270   69.9998 H   0  0  0  0  0  0  0  0  0  0  0  0
    2.7457   58.7831   69.3413 H   0  0  0  0  0  0  0  0  0  0  0  0
    3.7613   60.2647   69.3413 H   0  0  0  0  0  0  0  0  0  0  0  0
   -1.9359   66.1942   68.1450 H   0  0  0  0  0  0  0  0  0  0  0  0
   -2.1243   68.1941   66.6790 H   0  0  0  0  0  0  0  0  0  0  0  0
   -0.2330   69.8045   66.5167 H   0  0  0  0  0  0  0  0  0  0  0  0
    2.0823   67.3329   69.2134 H   0  0  0  0  0  0  0  0  0  0  0  0
    1.6698   70.6885   67.7193 H   0  0  0  0  0  0  0  0  0  0  0  0
    2.4867   69.7520   69.9072 H   0  0  0  0  0  0  0  0  0  0  0  0
    3.8326   69.0186   68.9705 H   0  0  0  0  0  0  0  0  0  0  0  0
    3.6047   70.8004   68.9705 H   0  0  0  0  0  0  0  0  0  0  0  0
    2.5661   70.1625   65.8259 H   0  0  0  0  0  0  0  0  0  0  0  0
    4.5401   70.9403   66.6527 H   0  0  0  0  0  0  0  0  0  0  0  0
    4.8101   69.4031   67.5719 H   0  0  0  0  0  0  0  0  0  0  0  0
    6.1252   69.9608   65.3058 H   0  0  0  0  0  0  0  0  0  0  0  0
    5.6034   68.2792   65.7646 H   0  0  0  0  0  0  0  0  0  0  0  0
    4.1249   70.1672   63.8923 H   0  0  0  0  0  0  0  0  0  0  0  0
    5.1272   68.7345   63.4204 H   0  0  0  0  0  0  0  0  0  0  0  0
    2.4423   68.6334   63.7439 H   0  0  0  0  0  0  0  0  0  0  0  0
    3.5783   67.2392   64.0697 H   0  0  0  0  0  0  0  0  0  0  0  0
    1.7000   67.9029   65.8195 H   0  0  0  0  0  0  0  0  0  0  0  0
    3.3317   67.3782   66.3463 H   0  0  0  0  0  0  0  0  0  0  0  0
  3  2  2  0
  4  3  1  0
  5  4  2  0
  6  5  1  0
  7  6  2  0
  7  2  1  0
  8  5  1  0
  9  8  1  0
  9  1  1  0
 10  9  1  0
 10  4  1  0
 11 10  2  0
 13 12  1  0
 13  2  1  0
 14  7  1  0
 15 14  1  0
 16  1  1  0
 17 16  2  0
 18 17  1  0
 19 18  2  0
 20 19  1  0
 21 20  2  0
 21 16  1  0
 22 20  1  0
 23 22  1  0
 24 22  1  0
 25 24  1  0
 26 25  1  0
 27 26  1  0
 28 27  1  0
 29 28  1  0
 29 24  1  0
  3 30  1  0
  6 31  1  0
  8 32  1  0
  8 33  1  0
  9 34  1  1
 12 35  1  0
 12 36  1  0
 12 37  1  0
 15 38  1  0
 15 39  1  0
 15 40  1  0
 17 41  1  0
 18 42  1  0
 19 43  1  0
 21 44  1  0
 22 45  1  6
 23 46  1  0
 23 47  1  0
 23 48  1  0
 24 49  1  0
 25 50  1  0
 25 51  1  0
 26 52  1  0
 26 53  1  0
 27 54  1  0
 27 55  1  0
 28 56  1  0
 28 57  1  0
 29 58  1  0
 29 59  1  0
M  CHG  1  24   1
M  END
>  <score>  (1) 
-10.642

$$$$
=
     RDKit          3D

 59 62  0  0  0  0  0  0  0  0999 V2000
    0.2950   66.5180   69.0490 O   0  0  0  0  0  0  0  0  0  0  0  0
    0.6980   61.8950   72.0630 C   0  0  0  0  0  0  0  0  0  0  0  0
    0.0940   63.1520   72.1620 C   0  0  0  0  0  0  0  0  0  0  0  0
    0.6370   64.1840   71.4210 C   0  0  0  0  0  0  0  0  0  0  0  0
    1.7420   64.0290   70.5970 C   0  0  0  0  0  0  0  0  0  0  0  0
    2.3570   62.7910   70.4940 C   0  0  0  0  0  0  0  0  0  0  0  0
    1.8330   61.7130   71.2230 C   0  0  0  0  0  0  0  0  0  0  0  0
    2.1610   65.3170   69.9570 C   0  0  0  0  0  0  0  0  0  0  0  0
    1.0010   66.2990   70.2640 C   0  0  2  0  0  0  0  0  0  0  0  0
    0.1970   65.5700   71.3450 C   0  0  0  0  0  0  0  0  0  0  0  0
   -0.6810   66.0420   72.0490 O   0  0  0  0  0  0  0  0  0  0  0  0
   -1.0390   60.7980   73.2890 C   0  0  0  0  0  0  0  0  0  0  0  0
    0.2700   60.7780   72.7370 O   0  0  0  0  0  0  0  0  0  0  0  0
    2.3550   60.4420   71.2010 O   0  0  0  0  0  0  0  0  0  0  0  0
    3.3870   60.1630   70.2660 C   0  0  0  0  0  0  0  0  0  0  0  0
    0.8200   67.3380   68.0940 C   0  0  0  0  0  0  0  0  0  0  0  0
    1.6140   68.3700   68.5950 C   0  0  0  0  0  0  0  0  0  0  0  0
    2.2460   69.2640   67.7350 C   0  0  0  0  0  0  0  0  0  0  0  0
    2.0940   69.1270   66.3570 C   0  0  0  0  0  0  0  0  0  0  0  0
    1.3000   68.0950   65.8230 C   0  0  0  0  0  0  0  0  0  0  0  0
    0.6460   67.2230   66.7140 C   0  0  0  0  0  0  0  0  0  0  0  0
    1.1730   67.9710   64.3140 C   0  0  1  0  0  0  0  0  0  0  0  0
    0.2280   68.9740   63.6420 C   0  0  0  0  0  0  0  0  0  0  0  0
    2.5500   67.9690   63.6510 N   0  0  0  0  0  4  0  0  0  0  0  0
    3.2890   66.6600   63.8260 C   0  0  0  0  0  0  0  0  0  0  0  0
    4.4810   66.5590   62.8760 C   0  0  0  0  0  0  0  0  0  0  0  0
    5.0710   67.9190   62.5350 C   0  0  0  0  0  0  0  0  0  0  0  0
    4.0340   68.8290   61.8750 C   0  0  0  0  0  0  0  0  0  0  0  0
    2.5930   68.4750   62.2340 C   0  0  0  0  0  0  0  0  0  0  0  0
   -0.7824   63.3136   72.8069 H   0  0  0  0  0  0  0  0  0  0  0  0
    3.2401   62.6562   69.8521 H   0  0  0  0  0  0  0  0  0  0  0  0
    3.1032   65.6796   70.3938 H   0  0  0  0  0  0  0  0  0  0  0  0
    2.3419   65.2080   68.8775 H   0  0  0  0  0  0  0  0  0  0  0  0
    1.2866   67.2976   70.6263 H   0  0  0  0  0  0  0  0  0  0  0  0
   -0.9739   60.7970   74.3871 H   0  0  0  0  0  0  0  0  0  0  0  0
   -1.5645   61.7043   72.9537 H   0  0  0  0  0  0  0  0  0  0  0  0
   -1.5920   59.9082   72.9537 H   0  0  0  0  0  0  0  0  0  0  0  0
    4.3125   59.9128   70.8053 H   0  0  0  0  0  0  0  0  0  0  0  0
    3.0895   59.3130   69.6343 H   0  0  0  0  0  0  0  0  0  0  0  0
    3.5583   61.0471   69.6343 H   0  0  0  0  0  0  0  0  0  0  0  0
    1.7422   68.4786   69.6821 H   0  0  0  0  0  0  0  0  0  0  0  0
    2.8643   70.0772   68.1429 H   0  0  0  0  0  0  0  0  0  0  0  0
    2.5991   69.8318   65.6802 H   0  0  0  0  0  0  0  0  0  0  0  0
   -0.0133   66.4377   66.3158 H   0  0  0  0  0  0  0  0  0  0  0  0
    0.6853   66.9981   64.1537 H   0  0  0  0  0  0  0  0  0  0  0  0
   -0.3097   69.5447   64.4135 H   0  0  0  0  0  0  0  0  0  0  0  0
    0.8116   69.6644   63.0152 H   0  0  0  0  0  0  0  0  0  0  0  0
   -0.4958   68.4325   63.0152 H   0  0  0  0  0  0  0  0  0  0  0  0
    3.0698   68.6828   64.1813 H   0  0  0  0  0  0  0  0  0  0  0  0
    3.6509   66.5896   64.8624 H   0  0  0  0  0  0  0  0  0  0  0  0
    2.5945   65.8382   63.5971 H   0  0  0  0  0  0  0  0  0  0  0  0
    5.2603   65.9456   63.3518 H   0  0  0  0  0  0  0  0  0  0  0  0
    4.1246   66.1050   61.9396 H   0  0  0  0  0  0  0  0  0  0  0  0
    5.4284   68.3958   63.4596 H   0  0  0  0  0  0  0  0  0  0  0  0
    5.8994   67.7687   61.8271 H   0  0  0  0  0  0  0  0  0  0  0  0
    4.2273   69.8642   62.1929 H   0  0  0  0  0  0  0  0  0  0  0  0
    4.1366   68.6991   60.7875 H   0  0  0  0  0  0  0  0  0  0  0  0
    1.9599   69.3699   62.1428 H   0  0  0  0  0  0  0  0  0  0  0  0
    2.2205   67.6975   61.5508 H   0  0  0  0  0  0  0  0  0  0  0  0
  3  2  2  0
  4  3  1  0
  5  4  2  0
  6  5  1  0
  7  6  2  0
  7  2  1  0
  8  5  1  0
  9  8  1  0
  9  1  1  0
 10  9  1  0
 10  4  1  0
 11 10  2  0
 13 12  1  0
 13  2  1  0
 14  7  1  0
 15 14  1  0
 16  1  1  0
 17 16  2  0
 18 17  1  0
 19 18  2  0
 20 19  1  0
 21 20  2  0
 21 16  1  0
 22 20  1  0
 23 22  1  0
 24 22  1  0
 25 24  1  0
 26 25  1  0
 27 26  1  0
 28 27  1  0
 29 28  1  0
 29 24  1  0
  3 30  1  0
  6 31  1  0
  8 32  1  0
  8 33  1  0
  9 34  1  1
 12 35  1  0
 12 36  1  0
 12 37  1  0
 15 38  1  0
 15 39  1  0
 15 40  1  0
 17 41  1  0
 18 42  1  0
 19 43  1  0
 21 44  1  0
 22 45  1  1
 23 46  1  0
 23 47  1  0
 23 48  1  0
 24 49  1  0
 25 50  1  0
 25 51  1  0
 26 52  1  0
 26 53  1  0
 27 54  1  0
 27 55  1  0
 28 56  1  0
 28 57  1  0
 29 58  1  0
 29 59  1  0
M  CHG  1  24   1
M  END
>  <score>  (2) 
-9.977

$$$$
=
     RDKit          3D

 59 62  0  0  0  0  0  0  0  0999 V2000
    0.9550   65.7480   70.6290 O   0  0  0  0  0  0  0  0  0  0  0  0
    3.1820   61.3360   73.1180 C   0  0  0  0  0  0  0  0  0  0  0  0
    3.1320   61.8920   71.8360 C   0  0  0  0  0  0  0  0  0  0  0  0
    2.0730   62.7310   71.5430 C   0  0  0  0  0  0  0  0  0  0  0  0
    1.0720   63.0370   72.4520 C   0  0  0  0  0  0  0  0  0  0  0  0
    1.1030   62.4890   73.7240 C   0  0  0  0  0  0  0  0  0  0  0  0
    2.1650   61.6370   74.0670 C   0  0  0  0  0  0  0  0  0  0  0  0
    0.0140   63.9190   71.8610 C   0  0  0  0  0  0  0  0  0  0  0  0
    0.6050   64.3760   70.5020 C   0  0  2  0  0  0  0  0  0  0  0  0
    1.7940   63.4320   70.2980 C   0  0  0  0  0  0  0  0  0  0  0  0
    2.4320   63.2690   69.2700 O   0  0  0  0  0  0  0  0  0  0  0  0
    4.1650   59.1550   73.0620 C   0  0  0  0  0  0  0  0  0  0  0  0
    4.1720   60.4890   73.5520 O   0  0  0  0  0  0  0  0  0  0  0  0
    2.3050   61.0360   75.2950 O   0  0  0  0  0  0  0  0  0  0  0  0
    1.2860   61.2520   76.2610 C   0  0  0  0  0  0  0  0  0  0  0  0
    0.7610   66.6020   69.5830 C   0  0  0  0  0  0  0  0  0  0  0  0
   -0.4510   66.4250   68.9150 C   0  0  0  0  0  0  0  0  0  0  0  0
   -0.8030   67.2490   67.8480 C   0  0  0  0  0  0  0  0  0  0  0  0
    0.0580   68.2680   67.4460 C   0  0  0  0  0  0  0  0  0  0  0  0
    1.2850   68.4700   68.1020 C   0  0  0  0  0  0  0  0  0  0  0  0
    1.6330   67.6040   69.1560 C   0  0  0  0  0  0  0  0  0  0  0  0
    2.1880   69.6030   67.6420 C   0  0  1  0  0  0  0  0  0  0  0  0
    2.9850   70.3080   68.7460 C   0  0  0  0  0  0  0  0  0  0  0  0
    3.0970   69.1450   66.5020 N   0  0  0  0  0  4  0  0  0  0  0  0
    2.3620   68.9800   65.1890 C   0  0  0  0  0  0  0  0  0  0  0  0
    3.3330   68.8700   64.0140 C   0  0  0  0  0  0  0  0  0  0  0  0
    4.6650   68.2540   64.4150 C   0  0  0  0  0  0  0  0  0  0  0  0
    5.3560   69.0750   65.5060 C   0  0  0  0  0  0  0  0  0  0  0  0
    4.3900   69.9010   66.3540 C   0  0  0  0  0  0  0  0  0  0  0  0
    3.9071   61.6699   71.0878 H   0  0  0  0  0  0  0  0  0  0  0  0
    0.3103   62.7171   74.4517 H   0  0  0  0  0  0  0  0  0  0  0  0
   -0.9202   63.3582   71.7100 H   0  0  0  0  0  0  0  0  0  0  0  0
   -0.2369   64.7673   72.5148 H   0  0  0  0  0  0  0  0  0  0  0  0
   -0.0654   64.3194   69.6317 H   0  0  0  0  0  0  0  0  0  0  0  0
    4.1613   58.4533   73.9091 H   0  0  0  0  0  0  0  0  0  0  0  0
    3.2660   58.9943   72.4488 H   0  0  0  0  0  0  0  0  0  0  0  0
    5.0623   58.9849   72.4488 H   0  0  0  0  0  0  0  0  0  0  0  0
    1.7129   61.1615   77.2707 H   0  0  0  0  0  0  0  0  0  0  0  0
    0.8643   62.2595   76.1301 H   0  0  0  0  0  0  0  0  0  0  0  0
    0.4918   60.5022   76.1301 H   0  0  0  0  0  0  0  0  0  0  0  0
   -1.1363   65.6260   69.2343 H   0  0  0  0  0  0  0  0  0  0  0  0
   -1.7581   67.0954   67.3244 H   0  0  0  0  0  0  0  0  0  0  0  0
   -0.2250   68.9209   66.6071 H   0  0  0  0  0  0  0  0  0  0  0  0
    2.6085   67.7192   69.6511 H   0  0  0  0  0  0  0  0  0  0  0  0
    1.4987   70.3780   67.2756 H   0  0  0  0  0  0  0  0  0  0  0  0
    2.6163   69.9818   69.7297 H   0  0  0  0  0  0  0  0  0  0  0  0
    4.0503   70.0512   68.6502 H   0  0  0  0  0  0  0  0  0  0  0  0
    2.8602   71.3967   68.6502 H   0  0  0  0  0  0  0  0  0  0  0  0
    3.3969   68.2057   66.7999 H   0  0  0  0  0  0  0  0  0  0  0  0
    1.7503   68.0669   65.2340 H   0  0  0  0  0  0  0  0  0  0  0  0
    1.7303   69.8669   65.0331 H   0  0  0  0  0  0  0  0  0  0  0  0
    2.8746   68.2431   63.2350 H   0  0  0  0  0  0  0  0  0  0  0  0
    3.5321   69.8882   63.6483 H   0  0  0  0  0  0  0  0  0  0  0  0
    4.4891   67.2355   64.7914 H   0  0  0  0  0  0  0  0  0  0  0  0
    5.3180   68.2367   63.5299 H   0  0  0  0  0  0  0  0  0  0  0  0
    5.8985   68.3852   66.1693 H   0  0  0  0  0  0  0  0  0  0  0  0
    6.0279   69.7837   64.9997 H   0  0  0  0  0  0  0  0  0  0  0  0
    4.8295   70.0776   67.3468 H   0  0  0  0  0  0  0  0  0  0  0  0
    4.2007   70.8681   65.8653 H   0  0  0  0  0  0  0  0  0  0  0  0
  3  2  2  0
  4  3  1  0
  5  4  2  0
  6  5  1  0
  7  6  2  0
  7  2  1  0
  8  5  1  0
  9  8  1  0
  9  1  1  0
 10  9  1  0
 10  4  1  0
 11 10  2  0
 13 12  1  0
 13  2  1  0
 14  7  1  0
 15 14  1  0
 16  1  1  0
 17 16  2  0
 18 17  1  0
 19 18  2  0
 20 19  1  0
 21 20  2  0
 21 16  1  0
 22 20  1  0
 23 22  1  0
 24 22  1  0
 25 24  1  0
 26 25  1  0
 27 26  1  0
 28 27  1  0
 29 28  1  0
 29 24  1  0
  3 30  1  0
  6 31  1  0
  8 32  1  0
  8 33  1  0
  9 34  1  6
 12 35  1  0
 12 36  1  0
 12 37  1  0
 15 38  1  0
 15 39  1  0
 15 40  1  0
 17 41  1  0
 18 42  1  0
 19 43  1  0
 21 44  1  0
 22 45  1  6
 23 46  1  0
 23 47  1  0
 23 48  1  0
 24 49  1  0
 25 50  1  0
 25 51  1  0
 26 52  1  0
 26 53  1  0
 27 54  1  0
 27 55  1  0
 28 56  1  0
 28 57  1  0
 29 58  1  0
 29 59  1  0
M  CHG  1  24   1
M  END
>  <score>  (3) 
-9.835

$$$$
=
     RDKit          3D

 59 62  0  0  0  0  0  0  0  0999 V2000
   -0.3650   66.2310   69.2060 O   0  0  0  0  0  0  0  0  0  0  0  0
    0.7910   61.9820   72.5570 C   0  0  0  0  0  0  0  0  0  0  0  0
    0.1610   63.2280   72.6370 C   0  0  0  0  0  0  0  0  0  0  0  0
    0.5110   64.1830   71.7020 C   0  0  0  0  0  0  0  0  0  0  0  0
    1.4510   63.9640   70.7060 C   0  0  0  0  0  0  0  0  0  0  0  0
    2.0900   62.7380   70.6190 C   0  0  0  0  0  0  0  0  0  0  0  0
    1.7580   61.7350   71.5430 C   0  0  0  0  0  0  0  0  0  0  0  0
    1.6880   65.1820   69.8660 C   0  0  0  0  0  0  0  0  0  0  0  0
    0.5620   66.1650   70.2820 C   0  0  2  0  0  0  0  0  0  0  0  0
    0.0050   65.5420   71.5660 C   0  0  0  0  0  0  0  0  0  0  0  0
   -0.7480   66.0690   72.3690 O   0  0  0  0  0  0  0  0  0  0  0  0
    1.0910   61.0100   74.7240 C   0  0  0  0  0  0  0  0  0  0  0  0
    0.5440   60.9380   73.4140 O   0  0  0  0  0  0  0  0  0  0  0  0
    2.3220   60.4820   71.5560 O   0  0  0  0  0  0  0  0  0  0  0  0
    3.4160   60.2360   70.6840 C   0  0  0  0  0  0  0  0  0  0  0  0
   -0.0860   66.9940   68.1110 C   0  0  0  0  0  0  0  0  0  0  0  0
   -1.1970   67.6280   67.5540 C   0  0  0  0  0  0  0  0  0  0  0  0
   -1.0590   68.4700   66.4530 C   0  0  0  0  0  0  0  0  0  0  0  0
    0.2020   68.6910   65.9030 C   0  0  0  0  0  0  0  0  0  0  0  0
    1.3390   68.0660   66.4440 C   0  0  0  0  0  0  0  0  0  0  0  0
    1.1700   67.1950   67.5370 C   0  0  0  0  0  0  0  0  0  0  0  0
    2.6980   68.3470   65.8230 C   0  0  1  0  0  0  0  0  0  0  0  0
    2.6740   69.0320   64.4520 C   0  0  0  0  0  0  0  0  0  0  0  0
    3.6000   69.0930   66.8060 N   0  0  0  0  0  4  0  0  0  0  0  0
    4.8730   69.6060   66.1680 C   0  0  0  0  0  0  0  0  0  0  0  0
    5.5730   70.6300   67.0590 C   0  0  0  0  0  0  0  0  0  0  0  0
    5.3070   70.3940   68.5380 C   0  0  0  0  0  0  0  0  0  0  0  0
    3.8120   70.4550   68.8550 C   0  0  0  0  0  0  0  0  0  0  0  0
    2.9200   70.1300   67.6590 C   0  0  0  0  0  0  0  0  0  0  0  0
   -0.5861   63.4400   73.4161 H   0  0  0  0  0  0  0  0  0  0  0  0
    2.8441   62.5538   69.8397 H   0  0  0  0  0  0  0  0  0  0  0  0
    2.6779   65.6130   70.0764 H   0  0  0  0  0  0  0  0  0  0  0  0
    1.6711   64.9576   68.7893 H   0  0  0  0  0  0  0  0  0  0  0  0
    0.8651   67.2042   70.4773 H   0  0  0  0  0  0  0  0  0  0  0  0
    0.2845   60.9038   75.4645 H   0  0  0  0  0  0  0  0  0  0  0  0
    1.8231   60.2005   74.8607 H   0  0  0  0  0  0  0  0  0  0  0  0
    1.5887   61.9814   74.8607 H   0  0  0  0  0  0  0  0  0  0  0  0
    4.3195   60.0328   71.2776 H   0  0  0  0  0  0  0  0  0  0  0  0
    3.1908   59.3661   70.0496 H   0  0  0  0  0  0  0  0  0  0  0  0
    3.5849   61.1186   70.0496 H   0  0  0  0  0  0  0  0  0  0  0  0
   -2.1933   67.4610   67.9893 H   0  0  0  0  0  0  0  0  0  0  0  0
   -1.9434   68.9593   66.0188 H   0  0  0  0  0  0  0  0  0  0  0  0
    0.3088   69.3610   65.0371 H   0  0  0  0  0  0  0  0  0  0  0  0
    2.0425   66.6640   67.9454 H   0  0  0  0  0  0  0  0  0  0  0  0
    3.1212   67.3532   65.6149 H   0  0  0  0  0  0  0  0  0  0  0  0
    2.6358   70.1229   64.5878 H   0  0  0  0  0  0  0  0  0  0  0  0
    3.5821   68.7638   63.8922 H   0  0  0  0  0  0  0  0  0  0  0  0
    1.7869   68.7009   63.8922 H   0  0  0  0  0  0  0  0  0  0  0  0
    3.8717   68.3627   67.4796 H   0  0  0  0  0  0  0  0  0  0  0  0
    5.5528   68.7586   65.9953 H   0  0  0  0  0  0  0  0  0  0  0  0
    4.6098   70.0969   65.2194 H   0  0  0  0  0  0  0  0  0  0  0  0
    6.6569   70.5696   66.8815 H   0  0  0  0  0  0  0  0  0  0  0  0
    5.1758   71.6232   66.8024 H   0  0  0  0  0  0  0  0  0  0  0  0
    5.6913   69.4016   68.8165 H   0  0  0  0  0  0  0  0  0  0  0  0
    5.8139   71.1848   69.1105 H   0  0  0  0  0  0  0  0  0  0  0  0
    3.5966   69.7326   69.6560 H   0  0  0  0  0  0  0  0  0  0  0  0
    3.5874   71.4897   69.1534 H   0  0  0  0  0  0  0  0  0  0  0  0
    1.9549   69.7397   68.0143 H   0  0  0  0  0  0  0  0  0  0  0  0
    2.7461   71.0410   67.0675 H   0  0  0  0  0  0  0  0  0  0  0  0
  3  2  2  0
  4  3  1  0
  5  4  2  0
  6  5  1  0
  7  6  2  0
  7  2  1  0
  8  5  1  0
  9  8  1  0
  9  1  1  0
 10  9  1  0
 10  4  1  0
 11 10  2  0
 13 12  1  0
 13  2  1  0
 14  7  1  0
 15 14  1  0
 16  1  1  0
 17 16  2  0
 18 17  1  0
 19 18  2  0
 20 19  1  0
 21 20  2  0
 21 16  1  0
 22 20  1  0
 23 22  1  0
 24 22  1  0
 25 24  1  0
 26 25  1  0
 27 26  1  0
 28 27  1  0
 29 28  1  0
 29 24  1  0
  3 30  1  0
  6 31  1  0
  8 32  1  0
  8 33  1  0
  9 34  1  1
 12 35  1  0
 12 36  1  0
 12 37  1  0
 15 38  1  0
 15 39  1  0
 15 40  1  0
 17 41  1  0
 18 42  1  0
 19 43  1  0
 21 44  1  0
 22 45  1  6
 23 46  1  0
 23 47  1  0
 23 48  1  0
 24 49  1  0
 25 50  1  0
 25 51  1  0
 26 52  1  0
 26 53  1  0
 27 54  1  0
 27 55  1  0
 28 56  1  0
 28 57  1  0
 29 58  1  0
 29 59  1  0
M  CHG  1  24   1
M  END
>  <score>  (4) 
-9.781

$$$$
=
     RDKit          3D

 59 62  0  0  0  0  0  0  0  0999 V2000
   -0.2840   65.0560   69.3850 O   0  0  0  0  0  0  0  0  0  0  0  0
    2.0350   68.6060   65.8300 C   0  0  0  0  0  0  0  0  0  0  0  0
    2.1910   68.2200   67.1650 C   0  0  0  0  0  0  0  0  0  0  0  0
    1.1000   67.6560   67.7990 C   0  0  0  0  0  0  0  0  0  0  0  0
   -0.1240   67.4630   67.1780 C   0  0  0  0  0  0  0  0  0  0  0  0
   -0.2970   67.8460   65.8580 C   0  0  0  0  0  0  0  0  0  0  0  0
    0.7880   68.4160   65.1720 C   0  0  0  0  0  0  0  0  0  0  0  0
   -1.1510   66.8900   68.1070 C   0  0  0  0  0  0  0  0  0  0  0  0
   -0.3470   66.4770   69.3670 C   0  0  2  0  0  0  0  0  0  0  0  0
    1.0040   67.1710   69.1690 C   0  0  0  0  0  0  0  0  0  0  0  0
    1.8830   67.3140   70.0030 O   0  0  0  0  0  0  0  0  0  0  0  0
    4.2490   69.5090   65.7190 C   0  0  0  0  0  0  0  0  0  0  0  0
    3.0290   69.1770   65.0720 O   0  0  0  0  0  0  0  0  0  0  0  0
    0.7380   68.8340   63.8650 O   0  0  0  0  0  0  0  0  0  0  0  0
   -0.5390   69.0580   63.2860 C   0  0  0  0  0  0  0  0  0  0  0  0
    0.5240   64.4200   70.2820 C   0  0  0  0  0  0  0  0  0  0  0  0
    0.1090   64.5330   71.6090 C   0  0  0  0  0  0  0  0  0  0  0  0
    0.8160   63.9050   72.6310 C   0  0  0  0  0  0  0  0  0  0  0  0
    1.9450   63.1460   72.3300 C   0  0  0  0  0  0  0  0  0  0  0  0
    2.3860   63.0150   71.0010 C   0  0  0  0  0  0  0  0  0  0  0  0
    1.6730   63.6850   69.9890 C   0  0  0  0  0  0  0  0  0  0  0  0
    3.6140   62.1660   70.7130 C   0  0  1  0  0  0  0  0  0  0  0  0
    4.9600   62.7990   71.0810 C   0  0  0  0  0  0  0  0  0  0  0  0
    3.4660   60.7720   71.3230 N   0  0  0  0  0  4  0  0  0  0  0  0
    3.2710   59.6900   70.2840 C   0  0  0  0  0  0  0  0  0  0  0  0
    3.4780   58.2980   70.8800 C   0  0  0  0  0  0  0  0  0  0  0  0
    3.1250   58.2390   72.3580 C   0  0  0  0  0  0  0  0  0  0  0  0
    3.9700   59.2190   73.1750 C   0  0  0  0  0  0  0  0  0  0  0  0
    4.4890   60.4030   72.3630 C   0  0  0  0  0  0  0  0  0  0  0  0
    3.1468   68.3601   67.6912 H   0  0  0  0  0  0  0  0  0  0  0  0
   -1.2660   67.7063   65.3565 H   0  0  0  0  0  0  0  0  0  0  0  0
   -1.9103   67.6445   68.3603 H   0  0  0  0  0  0  0  0  0  0  0  0
   -1.6931   66.0434   67.6605 H   0  0  0  0  0  0  0  0  0  0  0  0
   -0.7732   66.7691   70.3381 H   0  0  0  0  0  0  0  0  0  0  0  0
    4.1081   69.4707   66.8093 H   0  0  0  0  0  0  0  0  0  0  0  0
    5.0277   68.7901   65.4244 H   0  0  0  0  0  0  0  0  0  0  0  0
    4.5561   70.5234   65.4244 H   0  0  0  0  0  0  0  0  0  0  0  0
   -1.2853   69.1889   64.0834 H   0  0  0  0  0  0  0  0  0  0  0  0
   -0.5053   69.9640   62.6630 H   0  0  0  0  0  0  0  0  0  0  0  0
   -0.8157   68.1947   62.6630 H   0  0  0  0  0  0  0  0  0  0  0  0
   -0.7864   65.1246   71.8506 H   0  0  0  0  0  0  0  0  0  0  0  0
    0.4837   64.0079   73.6745 H   0  0  0  0  0  0  0  0  0  0  0  0
    2.4964   62.6447   73.1391 H   0  0  0  0  0  0  0  0  0  0  0  0
    2.0279   63.6281   68.9494 H   0  0  0  0  0  0  0  0  0  0  0  0
    3.6485   62.0870   69.6164 H   0  0  0  0  0  0  0  0  0  0  0  0
    5.0567   62.8445   72.1758 H   0  0  0  0  0  0  0  0  0  0  0  0
    5.7770   62.1907   70.6657 H   0  0  0  0  0  0  0  0  0  0  0  0
    5.0126   63.8162   70.6657 H   0  0  0  0  0  0  0  0  0  0  0  0
    2.5882   60.8380   71.8579 H   0  0  0  0  0  0  0  0  0  0  0  0
    2.2489   59.7590   69.8834 H   0  0  0  0  0  0  0  0  0  0  0  0
    4.0145   59.8385   69.4870 H   0  0  0  0  0  0  0  0  0  0  0  0
    2.8422   57.5835   70.3367 H   0  0  0  0  0  0  0  0  0  0  0  0
    4.5444   58.0471   70.7808 H   0  0  0  0  0  0  0  0  0  0  0  0
    2.0621   58.4935   72.4822 H   0  0  0  0  0  0  0  0  0  0  0  0
    3.3285   57.2209   72.7215 H   0  0  0  0  0  0  0  0  0  0  0  0
    3.3534   59.6064   73.9995 H   0  0  0  0  0  0  0  0  0  0  0  0
    4.8492   58.6645   73.5348 H   0  0  0  0  0  0  0  0  0  0  0  0
    4.6617   61.2602   73.0304 H   0  0  0  0  0  0  0  0  0  0  0  0
    5.4350   60.1301   71.8724 H   0  0  0  0  0  0  0  0  0  0  0  0
  3  2  2  0
  4  3  1  0
  5  4  2  0
  6  5  1  0
  7  6  2  0
  7  2  1  0
  8  5  1  0
  9  8  1  0
  9  1  1  0
 10  9  1  0
 10  4  1  0
 11 10  2  0
 13 12  1  0
 13  2  1  0
 14  7  1  0
 15 14  1  0
 16  1  1  0
 17 16  2  0
 18 17  1  0
 19 18  2  0
 20 19  1  0
 21 20  2  0
 21 16  1  0
 22 20  1  0
 23 22  1  0
 24 22  1  0
 25 24  1  0
 26 25  1  0
 27 26  1  0
 28 27  1  0
 29 28  1  0
 29 24  1  0
  3 30  1  0
  6 31  1  0
  8 32  1  0
  8 33  1  0
  9 34  1  1
 12 35  1  0
 12 36  1  0
 12 37  1  0
 15 38  1  0
 15 39  1  0
 15 40  1  0
 17 41  1  0
 18 42  1  0
 19 43  1  0
 21 44  1  0
 22 45  1  6
 23 46  1  0
 23 47  1  0
 23 48  1  0
 24 49  1  0
 25 50  1  0
 25 51  1  0
 26 52  1  0
 26 53  1  0
 27 54  1  0
 27 55  1  0
 28 56  1  0
 28 57  1  0
 29 58  1  0
 29 59  1  0
M  CHG  1  24   1
M  END
>  <score>  (5) 
-9.759

$$$$
=
     RDKit          3D

 59 62  0  0  0  0  0  0  0  0999 V2000
    1.5100   67.4480   69.6340 O   0  0  0  0  0  0  0  0  0  0  0  0
    3.4290   68.6160   64.5770 C   0  0  0  0  0  0  0  0  0  0  0  0
    2.9230   69.3060   65.6820 C   0  0  0  0  0  0  0  0  0  0  0  0
    2.1080   68.6090   66.5540 C   0  0  0  0  0  0  0  0  0  0  0  0
    1.7740   67.2750   66.3800 C   0  0  0  0  0  0  0  0  0  0  0  0
    2.2610   66.5780   65.2860 C   0  0  0  0  0  0  0  0  0  0  0  0
    3.0990   67.2460   64.3780 C   0  0  0  0  0  0  0  0  0  0  0  0
    0.8290   66.7810   67.4340 C   0  0  0  0  0  0  0  0  0  0  0  0
    0.8010   67.9140   68.4920 C   0  0  2  0  0  0  0  0  0  0  0  0
    1.4650   69.0900   67.7690 C   0  0  0  0  0  0  0  0  0  0  0  0
    1.4730   70.2580   68.1240 O   0  0  0  0  0  0  0  0  0  0  0  0
    5.5580   69.5620   64.0280 C   0  0  0  0  0  0  0  0  0  0  0  0
    4.2500   69.1760   63.6290 O   0  0  0  0  0  0  0  0  0  0  0  0
    3.6430   66.6620   63.2600 O   0  0  0  0  0  0  0  0  0  0  0  0
    4.3960   65.4700   63.4310 C   0  0  0  0  0  0  0  0  0  0  0  0
    1.4670   66.1270   69.9700 C   0  0  0  0  0  0  0  0  0  0  0  0
    0.2180   65.6860   70.4090 C   0  0  0  0  0  0  0  0  0  0  0  0
    0.0150   64.3520   70.7530 C   0  0  0  0  0  0  0  0  0  0  0  0
    1.0640   63.4410   70.6500 C   0  0  0  0  0  0  0  0  0  0  0  0
    2.3330   63.8570   70.2090 C   0  0  0  0  0  0  0  0  0  0  0  0
    2.5230   65.2170   69.8990 C   0  0  0  0  0  0  0  0  0  0  0  0
    3.4470   62.8280   70.0970 C   0  0  1  0  0  0  0  0  0  0  0  0
    4.8530   63.3320   70.4420 C   0  0  0  0  0  0  0  0  0  0  0  0
    3.0980   61.5620   70.8790 N   0  0  0  0  0  4  0  0  0  0  0  0
    3.3120   60.2950   70.0790 C   0  0  0  0  0  0  0  0  0  0  0  0
    3.2980   59.0580   70.9750 C   0  0  0  0  0  0  0  0  0  0  0  0
    2.4250   59.2410   72.2070 C   0  0  0  0  0  0  0  0  0  0  0  0
    2.8990   60.4200   73.0590 C   0  0  0  0  0  0  0  0  0  0  0  0
    3.6700   61.4750   72.2680 C   0  0  0  0  0  0  0  0  0  0  0  0
    3.1646   70.3656   65.8516 H   0  0  0  0  0  0  0  0  0  0  0  0
    1.9964   65.5215   65.1315 H   0  0  0  0  0  0  0  0  0  0  0  0
   -0.1737   66.6183   67.0119 H   0  0  0  0  0  0  0  0  0  0  0  0
    1.1450   65.8177   67.8609 H   0  0  0  0  0  0  0  0  0  0  0  0
   -0.1906   68.2174   68.8591 H   0  0  0  0  0  0  0  0  0  0  0  0
    5.6162   69.5792   65.1263 H   0  0  0  0  0  0  0  0  0  0  0  0
    6.2894   68.8414   63.6333 H   0  0  0  0  0  0  0  0  0  0  0  0
    5.7810   70.5642   63.6333 H   0  0  0  0  0  0  0  0  0  0  0  0
    4.5237   65.2678   64.5047 H   0  0  0  0  0  0  0  0  0  0  0  0
    3.8644   64.6298   62.9604 H   0  0  0  0  0  0  0  0  0  0  0  0
    5.3831   65.5892   62.9604 H   0  0  0  0  0  0  0  0  0  0  0  0
   -0.6154   66.4000   70.4841 H   0  0  0  0  0  0  0  0  0  0  0  0
   -0.9720   64.0181   71.1055 H   0  0  0  0  0  0  0  0  0  0  0  0
    0.8982   62.3866   70.9161 H   0  0  0  0  0  0  0  0  0  0  0  0
    3.5203   65.5684   69.5958 H   0  0  0  0  0  0  0  0  0  0  0  0
    3.5049   62.5934   69.0239 H   0  0  0  0  0  0  0  0  0  0  0  0
    4.9696   63.3738   71.5350 H   0  0  0  0  0  0  0  0  0  0  0  0
    5.6022   62.6465   70.0193 H   0  0  0  0  0  0  0  0  0  0  0  0
    4.9961   64.3374   70.0193 H   0  0  0  0  0  0  0  0  0  0  0  0
    2.0842   61.6520   71.0372 H   0  0  0  0  0  0  0  0  0  0  0  0
    2.5098   60.2043   69.3319 H   0  0  0  0  0  0  0  0  0  0  0  0
    4.2961   60.3568   69.5914 H   0  0  0  0  0  0  0  0  0  0  0  0
    2.9145   58.2061   70.3943 H   0  0  0  0  0  0  0  0  0  0  0  0
    4.3282   58.8824   71.3184 H   0  0  0  0  0  0  0  0  0  0  0  0
    1.3888   59.4249   71.8869 H   0  0  0  0  0  0  0  0  0  0  0  0
    2.4901   58.3269   72.8154 H   0  0  0  0  0  0  0  0  0  0  0  0
    2.0179   60.8991   73.5107 H   0  0  0  0  0  0  0  0  0  0  0  0
    3.5886   60.0154   73.8145 H   0  0  0  0  0  0  0  0  0  0  0  0
    3.5768   62.4509   72.7669 H   0  0  0  0  0  0  0  0  0  0  0  0
    4.7328   61.1962   72.2151 H   0  0  0  0  0  0  0  0  0  0  0  0
  3  2  2  0
  4  3  1  0
  5  4  2  0
  6  5  1  0
  7  6  2  0
  7  2  1  0
  8  5  1  0
  9  8  1  0
  9  1  1  0
 10  9  1  0
 10  4  1  0
 11 10  2  0
 13 12  1  0
 13  2  1  0
 14  7  1  0
 15 14  1  0
 16  1  1  0
 17 16  2  0
 18 17  1  0
 19 18  2  0
 20 19  1  0
 21 20  2  0
 21 16  1  0
 22 20  1  0
 23 22  1  0
 24 22  1  0
 25 24  1  0
 26 25  1  0
 27 26  1  0
 28 27  1  0
 29 28  1  0
 29 24  1  0
  3 30  1  0
  6 31  1  0
  8 32  1  0
  8 33  1  0
  9 34  1  1
 12 35  1  0
 12 36  1  0
 12 37  1  0
 15 38  1  0
 15 39  1  0
 15 40  1  0
 17 41  1  0
 18 42  1  0
 19 43  1  0
 21 44  1  0
 22 45  1  6
 23 46  1  0
 23 47  1  0
 23 48  1  0
 24 49  1  0
 25 50  1  0
 25 51  1  0
 26 52  1  0
 26 53  1  0
 27 54  1  0
 27 55  1  0
 28 56  1  0
 28 57  1  0
 29 58  1  0
 29 59  1  0
M  CHG  1  24   1
M  END
>  <score>  (6) 
-9.58

$$$$
=
     RDKit          3D

 59 62  0  0  0  0  0  0  0  0999 V2000
    3.3590   68.9590   62.7760 O   0  0  0  0  0  0  0  0  0  0  0  0
   -0.1840   67.3590   66.7140 C   0  0  0  0  0  0  0  0  0  0  0  0
    0.9390   66.8480   66.0550 C   0  0  0  0  0  0  0  0  0  0  0  0
    1.2350   67.3590   64.8060 C   0  0  0  0  0  0  0  0  0  0  0  0
    0.4750   68.3390   64.1860 C   0  0  0  0  0  0  0  0  0  0  0  0
   -0.6450   68.8510   64.8220 C   0  0  0  0  0  0  0  0  0  0  0  0
   -0.9780   68.3660   66.0970 C   0  0  0  0  0  0  0  0  0  0  0  0
    0.9790   68.6700   62.8130 C   0  0  0  0  0  0  0  0  0  0  0  0
    2.3530   67.9560   62.7220 C   0  0  2  0  0  0  0  0  0  0  0  0
    2.3380   67.0050   63.9230 C   0  0  0  0  0  0  0  0  0  0  0  0
    3.1110   66.0860   64.1400 O   0  0  0  0  0  0  0  0  0  0  0  0
    0.3830   66.8220   68.9770 C   0  0  0  0  0  0  0  0  0  0  0  0
   -0.5990   66.9500   67.9580 O   0  0  0  0  0  0  0  0  0  0  0  0
   -2.0600   68.7950   66.8250 O   0  0  0  0  0  0  0  0  0  0  0  0
   -3.3420   68.7260   66.2170 C   0  0  0  0  0  0  0  0  0  0  0  0
    4.1510   69.0720   63.8810 C   0  0  0  0  0  0  0  0  0  0  0  0
    5.4560   68.6100   63.7010 C   0  0  0  0  0  0  0  0  0  0  0  0
    6.3890   68.6950   64.7310 C   0  0  0  0  0  0  0  0  0  0  0  0
    6.0240   69.2550   65.9540 C   0  0  0  0  0  0  0  0  0  0  0  0
    4.7170   69.7290   66.1630 C   0  0  0  0  0  0  0  0  0  0  0  0
    3.7830   69.6030   65.1170 C   0  0  0  0  0  0  0  0  0  0  0  0
    4.3640   70.3470   67.5060 C   0  0  1  0  0  0  0  0  0  0  0  0
    3.1880   69.6990   68.2470 C   0  0  0  0  0  0  0  0  0  0  0  0
    5.6000   70.4470   68.3990 N   0  0  0  0  0  4  0  0  0  0  0  0
    6.6430   71.4020   67.8600 C   0  0  0  0  0  0  0  0  0  0  0  0
    7.6860   71.7490   68.9210 C   0  0  0  0  0  0  0  0  0  0  0  0
    7.8880   70.6270   69.9290 C   0  0  0  0  0  0  0  0  0  0  0  0
    6.5860   70.2890   70.6580 C   0  0  0  0  0  0  0  0  0  0  0  0
    5.3310   70.6490   69.8660 C   0  0  0  0  0  0  0  0  0  0  0  0
    1.5637   66.0678   66.5144 H   0  0  0  0  0  0  0  0  0  0  0  0
   -1.2612   69.6225   64.3372 H   0  0  0  0  0  0  0  0  0  0  0  0
    0.2910   68.2891   62.0438 H   0  0  0  0  0  0  0  0  0  0  0  0
    1.0589   69.7544   62.6466 H   0  0  0  0  0  0  0  0  0  0  0  0
    2.5494   67.3863   61.8017 H   0  0  0  0  0  0  0  0  0  0  0  0
   -0.1011   66.8851   69.9627 H   0  0  0  0  0  0  0  0  0  0  0  0
    0.8891   65.8503   68.8786 H   0  0  0  0  0  0  0  0  0  0  0  0
    1.1212   67.6315   68.8786 H   0  0  0  0  0  0  0  0  0  0  0  0
   -4.1161   68.6843   66.9974 H   0  0  0  0  0  0  0  0  0  0  0  0
   -3.4996   69.6170   65.5914 H   0  0  0  0  0  0  0  0  0  0  0  0
   -3.4030   67.8233   65.5914 H   0  0  0  0  0  0  0  0  0  0  0  0
    5.7504   68.1741   62.7349 H   0  0  0  0  0  0  0  0  0  0  0  0
    7.4123   68.3209   64.5798 H   0  0  0  0  0  0  0  0  0  0  0  0
    6.7655   69.3268   66.7633 H   0  0  0  0  0  0  0  0  0  0  0  0
    2.7448   69.9291   65.2775 H   0  0  0  0  0  0  0  0  0  0  0  0
    4.0014   71.3566   67.2628 H   0  0  0  0  0  0  0  0  0  0  0  0
    3.3457   69.7859   69.3322 H   0  0  0  0  0  0  0  0  0  0  0  0
    2.2539   70.2098   67.9702 H   0  0  0  0  0  0  0  0  0  0  0  0
    3.1208   68.6365   67.9702 H   0  0  0  0  0  0  0  0  0  0  0  0
    6.0036   69.5005   68.3528 H   0  0  0  0  0  0  0  0  0  0  0  0
    7.1478   70.9331   67.0025 H   0  0  0  0  0  0  0  0  0  0  0  0
    6.1370   72.3305   67.5568 H   0  0  0  0  0  0  0  0  0  0  0  0
    8.6447   71.9504   68.4206 H   0  0  0  0  0  0  0  0  0  0  0  0
    7.3233   72.6303   69.4703 H   0  0  0  0  0  0  0  0  0  0  0  0
    8.2448   69.7309   69.4001 H   0  0  0  0  0  0  0  0  0  0  0  0
    8.6251   70.9604   70.6744 H   0  0  0  0  0  0  0  0  0  0  0  0
    6.5713   69.2079   70.8605 H   0  0  0  0  0  0  0  0  0  0  0  0
    6.5680   70.8876   71.5807 H   0  0  0  0  0  0  0  0  0  0  0  0
    4.4987   70.0021   70.1804 H   0  0  0  0  0  0  0  0  0  0  0  0
    5.0635   71.6995   70.0526 H   0  0  0  0  0  0  0  0  0  0  0  0
  3  2  2  0
  4  3  1  0
  5  4  2  0
  6  5  1  0
  7  6  2  0
  7  2  1  0
  8  5  1  0
  9  8  1  0
  9  1  1  0
 10  9  1  0
 10  4  1  0
 11 10  2  0
 13 12  1  0
 13  2  1  0
 14  7  1  0
 15 14  1  0
 16  1  1  0
 17 16  2  0
 18 17  1  0
 19 18  2  0
 20 19  1  0
 21 20  2  0
 21 16  1  0
 22 20  1  0
 23 22  1  0
 24 22  1  0
 25 24  1  0
 26 25  1  0
 27 26  1  0
 28 27  1  0
 29 28  1  0
 29 24  1  0
  3 30  1  0
  6 31  1  0
  8 32  1  0
  8 33  1  0
  9 34  1  6
 12 35  1  0
 12 36  1  0
 12 37  1  0
 15 38  1  0
 15 39  1  0
 15 40  1  0
 17 41  1  0
 18 42  1  0
 19 43  1  0
 21 44  1  0
 22 45  1  6
 23 46  1  0
 23 47  1  0
 23 48  1  0
 24 49  1  0
 25 50  1  0
 25 51  1  0
 26 52  1  0
 26 53  1  0
 27 54  1  0
 27 55  1  0
 28 56  1  0
 28 57  1  0
 29 58  1  0
 29 59  1  0
M  CHG  1  24   1
M  END
>  <score>  (7) 
-8.722

$$$$
=
     RDKit          3D

 59 62  0  0  0  0  0  0  0  0999 V2000
    3.1020   59.6200   69.7690 O   0  0  0  0  0  0  0  0  0  0  0  0
    2.1370   58.8950   75.1690 C   0  0  0  0  0  0  0  0  0  0  0  0
    3.1140   59.4780   74.3560 C   0  0  0  0  0  0  0  0  0  0  0  0
    3.2230   59.0190   73.0570 C   0  0  0  0  0  0  0  0  0  0  0  0
    2.4200   58.0170   72.5350 C   0  0  0  0  0  0  0  0  0  0  0  0
    1.4520   57.4240   73.3300 C   0  0  0  0  0  0  0  0  0  0  0  0
    1.3010   57.8660   74.6540 C   0  0  0  0  0  0  0  0  0  0  0  0
    2.7870   57.6670   71.1250 C   0  0  0  0  0  0  0  0  0  0  0  0
    3.7790   58.7790   70.6950 C   0  0  2  0  0  0  0  0  0  0  0  0
    4.1450   59.4580   72.0190 C   0  0  0  0  0  0  0  0  0  0  0  0
    5.0570   60.2460   72.2110 O   0  0  0  0  0  0  0  0  0  0  0  0
    2.3090   60.5490   76.8910 C   0  0  0  0  0  0  0  0  0  0  0  0
    1.9110   59.2490   76.4770 O   0  0  0  0  0  0  0  0  0  0  0  0
    0.3780   57.3560   75.5350 O   0  0  0  0  0  0  0  0  0  0  0  0
   -0.9640   57.2220   75.0900 C   0  0  0  0  0  0  0  0  0  0  0  0
    3.0490   60.9660   69.9810 C   0  0  0  0  0  0  0  0  0  0  0  0
    3.8970   61.7110   69.1610 C   0  0  0  0  0  0  0  0  0  0  0  0
    3.9240   63.1010   69.2400 C   0  0  0  0  0  0  0  0  0  0  0  0
    3.0900   63.7610   70.1400 C   0  0  0  0  0  0  0  0  0  0  0  0
    2.2240   63.0360   70.9780 C   0  0  0  0  0  0  0  0  0  0  0  0
    2.2390   61.6300   70.9030 C   0  0  0  0  0  0  0  0  0  0  0  0
    1.3200   63.7950   71.9360 C   0  0  1  0  0  0  0  0  0  0  0  0
    0.3430   64.7820   71.2850 C   0  0  0  0  0  0  0  0  0  0  0  0
    0.5980   62.8340   72.8790 N   0  0  0  0  0  4  0  0  0  0  0  0
    0.5470   63.3340   74.3070 C   0  0  0  0  0  0  0  0  0  0  0  0
   -0.4640   62.5460   75.1390 C   0  0  0  0  0  0  0  0  0  0  0  0
   -0.6330   61.1160   74.6510 C   0  0  0  0  0  0  0  0  0  0  0  0
   -1.1040   61.0730   73.1960 C   0  0  0  0  0  0  0  0  0  0  0  0
   -0.7310   62.3190   72.3950 C   0  0  0  0  0  0  0  0  0  0  0  0
    3.7720   60.2731   74.7366 H   0  0  0  0  0  0  0  0  0  0  0  0
    0.8138   56.6218   72.9310 H   0  0  0  0  0  0  0  0  0  0  0  0
    3.2682   56.6788   71.0823 H   0  0  0  0  0  0  0  0  0  0  0  0
    1.9085   57.6119   70.4653 H   0  0  0  0  0  0  0  0  0  0  0  0
    4.6945   58.4475   70.1831 H   0  0  0  0  0  0  0  0  0  0  0  0
    2.3232   60.5955   77.9899 H   0  0  0  0  0  0  0  0  0  0  0  0
    3.3147   60.7659   76.5018 H   0  0  0  0  0  0  0  0  0  0  0  0
    1.5971   61.2918   76.5018 H   0  0  0  0  0  0  0  0  0  0  0  0
   -1.6338   57.1551   75.9600 H   0  0  0  0  0  0  0  0  0  0  0  0
   -1.2380   58.0972   74.4827 H   0  0  0  0  0  0  0  0  0  0  0  0
   -1.0596   56.3098   74.4827 H   0  0  0  0  0  0  0  0  0  0  0  0
    4.5518   61.1944   68.4438 H   0  0  0  0  0  0  0  0  0  0  0  0
    4.6024   63.6767   68.5932 H   0  0  0  0  0  0  0  0  0  0  0  0
    3.1091   64.8594   70.1956 H   0  0  0  0  0  0  0  0  0  0  0  0
    1.6016   61.0453   71.5826 H   0  0  0  0  0  0  0  0  0  0  0  0
    2.0012   64.4363   72.5146 H   0  0  0  0  0  0  0  0  0  0  0  0
   -0.2002   65.3308   72.0684 H   0  0  0  0  0  0  0  0  0  0  0  0
    0.9026   65.4934   70.6599 H   0  0  0  0  0  0  0  0  0  0  0  0
   -0.3740   64.2297   70.6599 H   0  0  0  0  0  0  0  0  0  0  0  0
    1.1995   61.9979   72.8729 H   0  0  0  0  0  0  0  0  0  0  0  0
    1.5439   63.2265   74.7595 H   0  0  0  0  0  0  0  0  0  0  0  0
    0.2358   64.3890   74.2930 H   0  0  0  0  0  0  0  0  0  0  0  0
   -0.1198   62.5237   76.1835 H   0  0  0  0  0  0  0  0  0  0  0  0
   -1.4380   63.0483   75.0440 H   0  0  0  0  0  0  0  0  0  0  0  0
    0.3325   60.5948   74.7299 H   0  0  0  0  0  0  0  0  0  0  0  0
   -1.3944   60.6256   75.2753 H   0  0  0  0  0  0  0  0  0  0  0  0
   -0.6493   60.1977   72.7091 H   0  0  0  0  0  0  0  0  0  0  0  0
   -2.2025   61.0183   73.2142 H   0  0  0  0  0  0  0  0  0  0  0  0
   -0.6608   62.0636   71.3274 H   0  0  0  0  0  0  0  0  0  0  0  0
   -1.5011   63.0925   72.5316 H   0  0  0  0  0  0  0  0  0  0  0  0
  3  2  2  0
  4  3  1  0
  5  4  2  0
  6  5  1  0
  7  6  2  0
  7  2  1  0
  8  5  1  0
  9  8  1  0
  9  1  1  0
 10  9  1  0
 10  4  1  0
 11 10  2  0
 13 12  1  0
 13  2  1  0
 14  7  1  0
 15 14  1  0
 16  1  1  0
 17 16  2  0
 18 17  1  0
 19 18  2  0
 20 19  1  0
 21 20  2  0
 21 16  1  0
 22 20  1  0
 23 22  1  0
 24 22  1  0
 25 24  1  0
 26 25  1  0
 27 26  1  0
 28 27  1  0
 29 28  1  0
 29 24  1  0
  3 30  1  0
  6 31  1  0
  8 32  1  0
  8 33  1  0
  9 34  1  6
 12 35  1  0
 12 36  1  0
 12 37  1  0
 15 38  1  0
 15 39  1  0
 15 40  1  0
 17 41  1  0
 18 42  1  0
 19 43  1  0
 21 44  1  0
 22 45  1  1
 23 46  1  0
 23 47  1  0
 23 48  1  0
 24 49  1  0
 25 50  1  0
 25 51  1  0
 26 52  1  0
 26 53  1  0
 27 54  1  0
 27 55  1  0
 28 56  1  0
 28 57  1  0
 29 58  1  0
 29 59  1  0
M  CHG  1  24   1
M  END
>  <score>  (8) 
-8.678

$$$$
=
     RDKit          3D

 59 62  0  0  0  0  0  0  0  0999 V2000
   -0.3120   63.5240   73.5090 O   0  0  0  0  0  0  0  0  0  0  0  0
   -4.2330   60.9610   76.4540 C   0  0  0  0  0  0  0  0  0  0  0  0
   -2.9540   61.4850   76.6610 C   0  0  0  0  0  0  0  0  0  0  0  0
   -2.1250   61.6010   75.5610 C   0  0  0  0  0  0  0  0  0  0  0  0
   -2.5020   61.2220   74.2810 C   0  0  0  0  0  0  0  0  0  0  0  0
   -3.7640   60.6940   74.0620 C   0  0  0  0  0  0  0  0  0  0  0  0
   -4.6420   60.5650   75.1500 C   0  0  0  0  0  0  0  0  0  0  0  0
   -1.3960   61.3960   73.2850 C   0  0  0  0  0  0  0  0  0  0  0  0
   -0.3130   62.2060   74.0450 C   0  0  2  0  0  0  0  0  0  0  0  0
   -0.7630   62.1150   75.5060 C   0  0  0  0  0  0  0  0  0  0  0  0
   -0.1120   62.4160   76.4940 O   0  0  0  0  0  0  0  0  0  0  0  0
   -4.8650   59.8620   78.4850 C   0  0  0  0  0  0  0  0  0  0  0  0
   -5.1640   60.7880   77.4490 O   0  0  0  0  0  0  0  0  0  0  0  0
   -5.9150   60.0580   75.0560 O   0  0  0  0  0  0  0  0  0  0  0  0
   -6.7590   60.5640   74.0330 C   0  0  0  0  0  0  0  0  0  0  0  0
    0.4640   63.8190   72.4270 C   0  0  0  0  0  0  0  0  0  0  0  0
    0.1210   65.0080   71.7820 C   0  0  0  0  0  0  0  0  0  0  0  0
    0.8490   65.4560   70.6830 C   0  0  0  0  0  0  0  0  0  0  0  0
    1.9390   64.7190   70.2240 C   0  0  0  0  0  0  0  0  0  0  0  0
    2.3080   63.5180   70.8560 C   0  0  0  0  0  0  0  0  0  0  0  0
    1.5370   63.0690   71.9450 C   0  0  0  0  0  0  0  0  0  0  0  0
    3.5130   62.7520   70.3350 C   0  0  1  0  0  0  0  0  0  0  0  0
    4.8760   63.4060   70.5870 C   0  0  0  0  0  0  0  0  0  0  0  0
    3.4890   61.3040   70.8220 N   0  0  0  0  0  4  0  0  0  0  0  0
    3.3130   60.3050   69.6990 C   0  0  0  0  0  0  0  0  0  0  0  0
    3.6420   58.8850   70.1570 C   0  0  0  0  0  0  0  0  0  0  0  0
    3.3690   58.6720   71.6390 C   0  0  0  0  0  0  0  0  0  0  0  0
    4.1870   59.6340   72.5020 C   0  0  0  0  0  0  0  0  0  0  0  0
    4.5860   60.9180   71.7770 C   0  0  0  0  0  0  0  0  0  0  0  0
   -2.6194   61.7937   77.6624 H   0  0  0  0  0  0  0  0  0  0  0  0
   -4.0727   60.3814   73.0535 H   0  0  0  0  0  0  0  0  0  0  0  0
   -1.0006   60.4195   72.9685 H   0  0  0  0  0  0  0  0  0  0  0  0
   -1.7334   61.9045   72.3698 H   0  0  0  0  0  0  0  0  0  0  0  0
    0.7224   61.8459   73.9537 H   0  0  0  0  0  0  0  0  0  0  0  0
   -5.0201   60.3425   79.4623 H   0  0  0  0  0  0  0  0  0  0  0  0
   -5.5264   58.9875   78.3973 H   0  0  0  0  0  0  0  0  0  0  0  0
   -3.8170   59.5394   78.3973 H   0  0  0  0  0  0  0  0  0  0  0  0
   -7.6181   61.0790   74.4877 H   0  0  0  0  0  0  0  0  0  0  0  0
   -6.1947   61.2729   73.4093 H   0  0  0  0  0  0  0  0  0  0  0  0
   -7.1183   59.7322   73.4093 H   0  0  0  0  0  0  0  0  0  0  0  0
   -0.7335   65.5975   72.1457 H   0  0  0  0  0  0  0  0  0  0  0  0
    0.5641   66.3906   70.1776 H   0  0  0  0  0  0  0  0  0  0  0  0
    2.5159   65.0798   69.3597 H   0  0  0  0  0  0  0  0  0  0  0  0
    1.7849   62.1103   72.4241 H   0  0  0  0  0  0  0  0  0  0  0  0
    3.4059   62.7746   69.2405 H   0  0  0  0  0  0  0  0  0  0  0  0
    5.0483   63.4887   71.6703 H   0  0  0  0  0  0  0  0  0  0  0  0
    5.6675   62.7896   70.1358 H   0  0  0  0  0  0  0  0  0  0  0  0
    4.8904   64.4091   70.1358 H   0  0  0  0  0  0  0  0  0  0  0  0
    2.6373   61.2619   71.3996 H   0  0  0  0  0  0  0  0  0  0  0  0
    2.2693   60.3363   69.3529 H   0  0  0  0  0  0  0  0  0  0  0  0
    4.0031   60.5743   68.8858 H   0  0  0  0  0  0  0  0  0  0  0  0
    3.0284   58.1773   69.5801 H   0  0  0  0  0  0  0  0  0  0  0  0
    4.7164   58.7202   69.9883 H   0  0  0  0  0  0  0  0  0  0  0  0
    2.2992   58.8387   71.8332 H   0  0  0  0  0  0  0  0  0  0  0  0
    3.6578   57.6430   71.8994 H   0  0  0  0  0  0  0  0  0  0  0  0
    3.5882   59.9046   73.3842 H   0  0  0  0  0  0  0  0  0  0  0  0
    5.1178   59.1134   72.7715 H   0  0  0  0  0  0  0  0  0  0  0  0
    4.7366   61.7238   72.5105 H   0  0  0  0  0  0  0  0  0  0  0  0
    5.5214   60.7552   71.2215 H   0  0  0  0  0  0  0  0  0  0  0  0
  3  2  2  0
  4  3  1  0
  5  4  2  0
  6  5  1  0
  7  6  2  0
  7  2  1  0
  8  5  1  0
  9  8  1  0
  9  1  1  0
 10  9  1  0
 10  4  1  0
 11 10  2  0
 13 12  1  0
 13  2  1  0
 14  7  1  0
 15 14  1  0
 16  1  1  0
 17 16  2  0
 18 17  1  0
 19 18  2  0
 20 19  1  0
 21 20  2  0
 21 16  1  0
 22 20  1  0
 23 22  1  0
 24 22  1  0
 25 24  1  0
 26 25  1  0
 27 26  1  0
 28 27  1  0
 29 28  1  0
 29 24  1  0
  3 30  1  0
  6 31  1  0
  8 32  1  0
  8 33  1  0
  9 34  1  1
 12 35  1  0
 12 36  1  0
 12 37  1  0
 15 38  1  0
 15 39  1  0
 15 40  1  0
 17 41  1  0
 18 42  1  0
 19 43  1  0
 21 44  1  0
 22 45  1  6
 23 46  1  0
 23 47  1  0
 23 48  1  0
 24 49  1  0
 25 50  1  0
 25 51  1  0
 26 52  1  0
 26 53  1  0
 27 54  1  0
 27 55  1  0
 28 56  1  0
 28 57  1  0
 29 58  1  0
 29 59  1  0
M  CHG  1  24   1
M  END
>  <score>  (9) 
-8.419

$$$$
