=
     RDKit          3D

 15 15  0  0  0  0  0  0  0  0999 V2000
    4.8890   70.3260   68.0680 C   0  0  0  0  0  0  0  0  0  0  0  0
    5.4530   70.0420   66.8290 C   0  0  0  0  0  0  0  0  0  0  0  0
    4.6760   69.4830   65.8190 C   0  0  0  0  0  0  0  0  0  0  0  0
    3.3250   69.2090   66.0630 C   0  0  0  0  0  0  0  0  0  0  0  0
    2.7580   69.4950   67.3110 C   0  0  0  0  0  0  0  0  0  0  0  0
    3.5490   70.0520   68.3070 C   0  0  0  0  0  0  0  0  0  0  0  0
    5.6460   70.8750   69.0680 O   0  0  0  0  0  0  0  0  0  0  0  0
    6.7770   70.3310   66.6500 O   0  0  0  0  0  0  0  0  0  0  0  0
    2.9990   70.3310   69.5230 O   0  0  0  0  0  0  0  0  0  0  0  0
    5.1193   69.2584   64.8377 H   0  0  0  0  0  0  0  0  0  0  0  0
    2.7050   68.7663   65.2695 H   0  0  0  0  0  0  0  0  0  0  0  0
    1.6959   69.2804   67.5005 H   0  0  0  0  0  0  0  0  0  0  0  0
    5.2360   71.0738   69.9469 H   0  0  0  0  0  0  0  0  0  0  0  0
    7.2118   70.1422   65.7809 H   0  0  0  0  0  0  0  0  0  0  0  0
    3.5558   70.7282   70.2387 H   0  0  0  0  0  0  0  0  0  0  0  0
  2  1  2  0
  3  2  1  0
  4  3  2  0
  5  4  1  0
  6  5  2  0
  6  1  1  0
  7  1  1  0
  8  2  1  0
  9  6  1  0
  3 10  1  0
  4 11  1  0
  5 12  1  0
  7 13  1  0
  8 14  1  0
  9 15  1  0
M  END
>  <score>  (1) 
-5.694

$$$$
=
     RDKit          3D

 15 15  0  0  0  0  0  0  0  0999 V2000
    4.8550   70.3530   68.0700 C   0  0  0  0  0  0  0  0  0  0  0  0
    3.5180   70.0490   68.3030 C   0  0  0  0  0  0  0  0  0  0  0  0
    2.7510   69.4600   67.3030 C   0  0  0  0  0  0  0  0  0  0  0  0
    3.3370   69.1800   66.0630 C   0  0  0  0  0  0  0  0  0  0  0  0
    4.6820   69.4870   65.8280 C   0  0  0  0  0  0  0  0  0  0  0  0
    5.4330   70.0740   66.8390 C   0  0  0  0  0  0  0  0  0  0  0  0
    5.6190   70.9320   69.0490 O   0  0  0  0  0  0  0  0  0  0  0  0
    3.0020   70.3460   69.5340 O   0  0  0  0  0  0  0  0  0  0  0  0
    6.7440   70.3740   66.6130 O   0  0  0  0  0  0  0  0  0  0  0  0
    1.6938   69.2166   67.4850 H   0  0  0  0  0  0  0  0  0  0  0  0
    2.7360   68.7153   65.2675 H   0  0  0  0  0  0  0  0  0  0  0  0
    5.1401   69.2658   64.8527 H   0  0  0  0  0  0  0  0  0  0  0  0
    6.5699   71.1448   68.8739 H   0  0  0  0  0  0  0  0  0  0  0  0
    2.0541   70.1436   69.7353 H   0  0  0  0  0  0  0  0  0  0  0  0
    7.2864   70.7923   67.3278 H   0  0  0  0  0  0  0  0  0  0  0  0
  2  1  2  0
  3  2  1  0
  4  3  2  0
  5  4  1  0
  6  5  2  0
  6  1  1  0
  7  1  1  0
  8  2  1  0
  9  6  1  0
  3 10  1  0
  4 11  1  0
  5 12  1  0
  7 13  1  0
  8 14  1  0
  9 15  1  0
M  END
>  <score>  (2) 
-5.689

$$$$
=
     RDKit          3D

 15 15  0  0  0  0  0  0  0  0999 V2000
    3.1840   69.8910   67.8440 C   0  0  0  0  0  0  0  0  0  0  0  0
    3.5500   69.4590   66.5740 C   0  0  0  0  0  0  0  0  0  0  0  0
    4.8640   69.6010   66.1390 C   0  0  0  0  0  0  0  0  0  0  0  0
    5.8100   70.1850   66.9910 C   0  0  0  0  0  0  0  0  0  0  0  0
    5.4410   70.6210   68.2680 C   0  0  0  0  0  0  0  0  0  0  0  0
    4.1250   70.4700   68.6850 C   0  0  0  0  0  0  0  0  0  0  0  0
    1.8930   69.7560   68.2810 O   0  0  0  0  0  0  0  0  0  0  0  0
    2.5820   68.8970   65.7890 O   0  0  0  0  0  0  0  0  0  0  0  0
    3.7630   70.8950   69.9300 O   0  0  0  0  0  0  0  0  0  0  0  0
    5.1570   69.2580   65.1358 H   0  0  0  0  0  0  0  0  0  0  0  0
    6.8505   70.3016   66.6536 H   0  0  0  0  0  0  0  0  0  0  0  0
    6.1860   71.0790   68.9353 H   0  0  0  0  0  0  0  0  0  0  0  0
    1.6420   70.0666   69.1869 H   0  0  0  0  0  0  0  0  0  0  0  0
    2.8061   68.5780   64.8790 H   0  0  0  0  0  0  0  0  0  0  0  0
    2.8271   70.7914   70.2357 H   0  0  0  0  0  0  0  0  0  0  0  0
  2  1  2  0
  3  2  1  0
  4  3  2  0
  5  4  1  0
  6  5  2  0
  6  1  1  0
  7  1  1  0
  8  2  1  0
  9  6  1  0
  3 10  1  0
  4 11  1  0
  5 12  1  0
  7 13  1  0
  8 14  1  0
  9 15  1  0
M  END
>  <score>  (3) 
-5.577

$$$$
=
     RDKit          3D

 15 15  0  0  0  0  0  0  0  0999 V2000
    3.8160   69.8760   67.4010 C   0  0  0  0  0  0  0  0  0  0  0  0
    4.0250   70.3420   68.6940 C   0  0  0  0  0  0  0  0  0  0  0  0
    5.2970   70.7340   69.0990 C   0  0  0  0  0  0  0  0  0  0  0  0
    6.3620   70.6540   68.1930 C   0  0  0  0  0  0  0  0  0  0  0  0
    6.1510   70.1840   66.8910 C   0  0  0  0  0  0  0  0  0  0  0  0
    4.8740   69.7970   66.5050 C   0  0  0  0  0  0  0  0  0  0  0  0
    2.5670   69.4880   66.9940 O   0  0  0  0  0  0  0  0  0  0  0  0
    2.9470   70.3980   69.5340 O   0  0  0  0  0  0  0  0  0  0  0  0
    4.6660   69.3390   65.2380 O   0  0  0  0  0  0  0  0  0  0  0  0
    5.4647   71.1034   70.1215 H   0  0  0  0  0  0  0  0  0  0  0  0
    7.3704   70.9623   68.5062 H   0  0  0  0  0  0  0  0  0  0  0  0
    6.9885   70.1218   66.1806 H   0  0  0  0  0  0  0  0  0  0  0  0
    2.4275   69.1574   66.0713 H   0  0  0  0  0  0  0  0  0  0  0  0
    3.0589   70.7247   70.4618 H   0  0  0  0  0  0  0  0  0  0  0  0
    3.7590   69.0611   64.9548 H   0  0  0  0  0  0  0  0  0  0  0  0
  2  1  2  0
  3  2  1  0
  4  3  2  0
  5  4  1  0
  6  5  2  0
  6  1  1  0
  7  1  1  0
  8  2  1  0
  9  6  1  0
  3 10  1  0
  4 11  1  0
  5 12  1  0
  7 13  1  0
  8 14  1  0
  9 15  1  0
M  END
>  <score>  (4) 
-5.573

$$$$
=
     RDKit          3D

 15 15  0  0  0  0  0  0  0  0999 V2000
    4.3320   69.8430   67.1110 C   0  0  0  0  0  0  0  0  0  0  0  0
    5.6400   69.9560   66.6530 C   0  0  0  0  0  0  0  0  0  0  0  0
    6.6320   70.4630   67.4870 C   0  0  0  0  0  0  0  0  0  0  0  0
    6.2980   70.8580   68.7890 C   0  0  0  0  0  0  0  0  0  0  0  0
    4.9820   70.7440   69.2490 C   0  0  0  0  0  0  0  0  0  0  0  0
    4.0060   70.2360   68.4020 C   0  0  0  0  0  0  0  0  0  0  0  0
    3.3500   69.3450   66.2970 O   0  0  0  0  0  0  0  0  0  0  0  0
    5.9050   69.5540   65.3730 O   0  0  0  0  0  0  0  0  0  0  0  0
    2.7220   70.1240   68.8480 O   0  0  0  0  0  0  0  0  0  0  0  0
    7.6678   70.5527   67.1276 H   0  0  0  0  0  0  0  0  0  0  0  0
    7.0761   71.2606   69.4542 H   0  0  0  0  0  0  0  0  0  0  0  0
    4.7227   71.0539   70.2721 H   0  0  0  0  0  0  0  0  0  0  0  0
    2.4214   69.2681   66.6316 H   0  0  0  0  0  0  0  0  0  0  0  0
    6.8252   69.6203   65.0138 H   0  0  0  0  0  0  0  0  0  0  0  0
    2.0202   69.7628   68.2505 H   0  0  0  0  0  0  0  0  0  0  0  0
  2  1  2  0
  3  2  1  0
  4  3  2  0
  5  4  1  0
  6  5  2  0
  6  1  1  0
  7  1  1  0
  8  2  1  0
  9  6  1  0
  3 10  1  0
  4 11  1  0
  5 12  1  0
  7 13  1  0
  8 14  1  0
  9 15  1  0
M  END
>  <score>  (5) 
-5.558

$$$$
=
     RDKit          3D

 15 15  0  0  0  0  0  0  0  0999 V2000
    3.3410   68.7810   61.7590 C   0  0  0  0  0  0  0  0  0  0  0  0
    4.4640   68.8230   62.5780 C   0  0  0  0  0  0  0  0  0  0  0  0
    4.3190   68.8760   63.9610 C   0  0  0  0  0  0  0  0  0  0  0  0
    3.0340   68.8870   64.5170 C   0  0  0  0  0  0  0  0  0  0  0  0
    1.9040   68.8450   63.6920 C   0  0  0  0  0  0  0  0  0  0  0  0
    2.0680   68.7930   62.3140 C   0  0  0  0  0  0  0  0  0  0  0  0
    3.4740   68.7300   60.3970 O   0  0  0  0  0  0  0  0  0  0  0  0
    5.6920   68.8100   61.9770 O   0  0  0  0  0  0  0  0  0  0  0  0
    0.9690   68.7530   61.5080 O   0  0  0  0  0  0  0  0  0  0  0  0
    5.2056   68.9089   64.6113 H   0  0  0  0  0  0  0  0  0  0  0  0
    2.9117   68.9289   65.6094 H   0  0  0  0  0  0  0  0  0  0  0  0
    0.8955   68.8531   64.1311 H   0  0  0  0  0  0  0  0  0  0  0  0
    2.6688   68.7003   59.8218 H   0  0  0  0  0  0  0  0  0  0  0  0
    6.5135   68.8389   62.5288 H   0  0  0  0  0  0  0  0  0  0  0  0
    1.0774   68.7158   60.5247 H   0  0  0  0  0  0  0  0  0  0  0  0
  2  1  2  0
  3  2  1  0
  4  3  2  0
  5  4  1  0
  6  5  2  0
  6  1  1  0
  7  1  1  0
  8  2  1  0
  9  6  1  0
  3 10  1  0
  4 11  1  0
  5 12  1  0
  7 13  1  0
  8 14  1  0
  9 15  1  0
M  END
>  <score>  (6) 
-5.4

$$$$
=
     RDKit          3D

 15 15  0  0  0  0  0  0  0  0999 V2000
    5.6510   70.2200   67.3330 C   0  0  0  0  0  0  0  0  0  0  0  0
    4.4370   69.7820   66.8170 C   0  0  0  0  0  0  0  0  0  0  0  0
    3.2950   69.7890   67.6130 C   0  0  0  0  0  0  0  0  0  0  0  0
    3.3830   70.2410   68.9360 C   0  0  0  0  0  0  0  0  0  0  0  0
    4.6060   70.6810   69.4550 C   0  0  0  0  0  0  0  0  0  0  0  0
    5.7340   70.6660   68.6460 C   0  0  0  0  0  0  0  0  0  0  0  0
    6.7800   70.2160   66.5570 O   0  0  0  0  0  0  0  0  0  0  0  0
    4.4130   69.3530   65.5190 O   0  0  0  0  0  0  0  0  0  0  0  0
    6.9270   71.0950   69.1490 O   0  0  0  0  0  0  0  0  0  0  0  0
    2.3329   69.4430   67.2071 H   0  0  0  0  0  0  0  0  0  0  0  0
    2.4849   70.2502   69.5711 H   0  0  0  0  0  0  0  0  0  0  0  0
    4.6728   71.0354   70.4942 H   0  0  0  0  0  0  0  0  0  0  0  0
    7.6403   70.5298   66.9331 H   0  0  0  0  0  0  0  0  0  0  0  0
    3.5656   69.0341   65.1186 H   0  0  0  0  0  0  0  0  0  0  0  0
    7.7361   71.0875   68.5786 H   0  0  0  0  0  0  0  0  0  0  0  0
  2  1  2  0
  3  2  1  0
  4  3  2  0
  5  4  1  0
  6  5  2  0
  6  1  1  0
  7  1  1  0
  8  2  1  0
  9  6  1  0
  3 10  1  0
  4 11  1  0
  5 12  1  0
  7 13  1  0
  8 14  1  0
  9 15  1  0
M  END
>  <score>  (7) 
-5.304

$$$$
=
     RDKit          3D

 15 15  0  0  0  0  0  0  0  0999 V2000
    4.7920   68.8400   62.7690 C   0  0  0  0  0  0  0  0  0  0  0  0
    3.6130   68.3920   62.1840 C   0  0  0  0  0  0  0  0  0  0  0  0
    2.4300   68.3790   62.9160 C   0  0  0  0  0  0  0  0  0  0  0  0
    2.4400   68.8200   64.2450 C   0  0  0  0  0  0  0  0  0  0  0  0
    3.6270   69.2710   64.8340 C   0  0  0  0  0  0  0  0  0  0  0  0
    4.7980   69.2760   64.0880 C   0  0  0  0  0  0  0  0  0  0  0  0
    5.9620   68.8560   62.0560 O   0  0  0  0  0  0  0  0  0  0  0  0
    3.6660   67.9740   60.8830 O   0  0  0  0  0  0  0  0  0  0  0  0
    5.9560   69.7150   64.6590 O   0  0  0  0  0  0  0  0  0  0  0  0
    1.4957   68.0257   62.4552 H   0  0  0  0  0  0  0  0  0  0  0  0
    1.5086   68.8120   64.8302 H   0  0  0  0  0  0  0  0  0  0  0  0
    3.6320   69.6181   65.8778 H   0  0  0  0  0  0  0  0  0  0  0  0
    6.7965   69.1768   62.4813 H   0  0  0  0  0  0  0  0  0  0  0  0
    2.8460   67.6485   60.4339 H   0  0  0  0  0  0  0  0  0  0  0  0
    6.7953   69.7218   64.1339 H   0  0  0  0  0  0  0  0  0  0  0  0
  2  1  2  0
  3  2  1  0
  4  3  2  0
  5  4  1  0
  6  5  2  0
  6  1  1  0
  7  1  1  0
  8  2  1  0
  9  6  1  0
  3 10  1  0
  4 11  1  0
  5 12  1  0
  7 13  1  0
  8 14  1  0
  9 15  1  0
M  END
>  <score>  (8) 
-5.224

$$$$
=
     RDKit          3D

 15 15  0  0  0  0  0  0  0  0999 V2000
    3.7950   69.1280   64.6110 C   0  0  0  0  0  0  0  0  0  0  0  0
    5.1010   69.5710   64.7850 C   0  0  0  0  0  0  0  0  0  0  0  0
    5.5490   69.9510   66.0460 C   0  0  0  0  0  0  0  0  0  0  0  0
    4.6710   69.8840   67.1350 C   0  0  0  0  0  0  0  0  0  0  0  0
    3.3560   69.4390   66.9600 C   0  0  0  0  0  0  0  0  0  0  0  0
    2.9270   69.0640   65.6940 C   0  0  0  0  0  0  0  0  0  0  0  0
    3.3450   68.7520   63.3730 O   0  0  0  0  0  0  0  0  0  0  0  0
    5.9110   69.6140   63.6840 O   0  0  0  0  0  0  0  0  0  0  0  0
    1.6460   68.6300   65.5200 O   0  0  0  0  0  0  0  0  0  0  0  0
    6.5825   70.3006   66.1863 H   0  0  0  0  0  0  0  0  0  0  0  0
    5.0176   70.1834   68.1351 H   0  0  0  0  0  0  0  0  0  0  0  0
    2.6687   69.3868   67.8173 H   0  0  0  0  0  0  0  0  0  0  0  0
    2.4130   68.4379   63.2594 H   0  0  0  0  0  0  0  0  0  0  0  0
    6.8472   69.9242   63.7701 H   0  0  0  0  0  0  0  0  0  0  0  0
    1.3325   68.3608   64.6204 H   0  0  0  0  0  0  0  0  0  0  0  0
  2  1  2  0
  3  2  1  0
  4  3  2  0
  5  4  1  0
  6  5  2  0
  6  1  1  0
  7  1  1  0
  8  2  1  0
  9  6  1  0
  3 10  1  0
  4 11  1  0
  5 12  1  0
  7 13  1  0
  8 14  1  0
  9 15  1  0
M  END
>  <score>  (9) 
-5.183

$$$$
