=
     RDKit          3D

 54 57  0  0  0  0  0  0  0  0999 V2000
    2.1230   63.9550   71.7680 C   0  0  1  0  0  0  0  0  0  0  0  0
    2.2360   65.0150   70.6710 C   0  0  0  0  0  0  0  0  0  0  0  0
    0.7830   65.3190   70.4330 C   0  0  0  0  0  0  0  0  0  0  0  0
   -0.0380   64.7920   71.2900 N   0  0  0  0  0  0  0  0  0  0  0  0
    0.7070   64.0380   72.1500 N   0  0  0  0  0  0  0  0  0  0  0  0
    0.3390   66.1890   69.3190 C   0  0  0  0  0  0  0  0  0  0  0  0
    1.2040   67.1130   68.7210 C   0  0  0  0  0  0  0  0  0  0  0  0
    0.7530   67.9190   67.6710 C   0  0  0  0  0  0  0  0  0  0  0  0
   -0.5620   67.8000   67.2200 C   0  0  0  0  0  0  0  0  0  0  0  0
   -1.4320   66.8850   67.8090 C   0  0  0  0  0  0  0  0  0  0  0  0
   -0.9800   66.0800   68.8590 C   0  0  0  0  0  0  0  0  0  0  0  0
   -1.1690   68.8910   65.8010 Br  0  0  0  0  0  0  0  0  0  0  0  0
    3.3600   60.0620   70.2820 C   0  0  0  0  0  0  0  0  0  0  0  0
    2.9060   61.0380   69.3980 C   0  0  0  0  0  0  0  0  0  0  0  0
    2.5030   62.2880   69.8670 C   0  0  0  0  0  0  0  0  0  0  0  0
    2.5390   62.5860   71.2400 C   0  0  0  0  0  0  0  0  0  0  0  0
    3.0150   61.6020   72.1310 C   0  0  0  0  0  0  0  0  0  0  0  0
    3.4180   60.3480   71.6480 C   0  0  0  0  0  0  0  0  0  0  0  0
    3.5030   57.6890   70.4260 C   0  0  0  0  0  0  0  0  0  0  0  0
    3.7230   58.8840   69.6890 O   0  0  0  0  0  0  0  0  0  0  0  0
    3.0620   61.9760   73.4520 O   0  0  0  0  0  0  0  0  0  0  0  0
    2.7340   60.9940   74.4280 C   0  0  0  0  0  0  0  0  0  0  0  0
    0.1480   63.5220   73.3190 C   0  0  0  0  0  0  0  0  0  0  0  0
    0.2720   64.1670   74.5620 C   0  0  0  0  0  0  0  0  0  0  0  0
   -0.2920   63.6350   75.7280 C   0  0  0  0  0  0  0  0  0  0  0  0
   -1.0030   62.4380   75.6650 C   0  0  0  0  0  0  0  0  0  0  0  0
   -1.1330   61.7610   74.4550 C   0  0  0  0  0  0  0  0  0  0  0  0
   -0.5630   62.3070   73.3000 C   0  0  0  0  0  0  0  0  0  0  0  0
   -1.6930   61.7430   77.1360 S   0  0  0  0  0  6  0  0  0  0  0  0
   -2.3750   62.7760   77.8800 O   0  0  0  0  0  0  0  0  0  0  0  0
   -0.7290   60.8570   77.7450 O   0  0  0  0  0  0  0  0  0  0  0  0
   -2.9020   60.7530   76.5190 N   0  0  0  0  0  0  0  0  0  0  0  0
    2.7862   64.1142   72.6310 H   0  0  0  0  0  0  0  0  0  0  0  0
    2.7849   65.9025   71.0189 H   0  0  0  0  0  0  0  0  0  0  0  0
    2.7892   64.6920   69.7768 H   0  0  0  0  0  0  0  0  0  0  0  0
    2.2405   67.2052   69.0777 H   0  0  0  0  0  0  0  0  0  0  0  0
    1.4333   68.6450   67.2018 H   0  0  0  0  0  0  0  0  0  0  0  0
   -2.4681   66.7965   67.4502 H   0  0  0  0  0  0  0  0  0  0  0  0
   -1.6641   65.3567   69.3268 H   0  0  0  0  0  0  0  0  0  0  0  0
    2.8650   60.8209   68.3204 H   0  0  0  0  0  0  0  0  0  0  0  0
    2.1530   63.0493   69.1543 H   0  0  0  0  0  0  0  0  0  0  0  0
    3.7825   59.5840   72.3505 H   0  0  0  0  0  0  0  0  0  0  0  0
    3.5436   57.9096   71.5029 H   0  0  0  0  0  0  0  0  0  0  0  0
    2.5142   57.2788   70.1728 H   0  0  0  0  0  0  0  0  0  0  0  0
    4.2808   56.9536   70.1728 H   0  0  0  0  0  0  0  0  0  0  0  0
    2.8748   61.4157   75.4342 H   0  0  0  0  0  0  0  0  0  0  0  0
    1.6849   60.6881   74.3022 H   0  0  0  0  0  0  0  0  0  0  0  0
    3.3887   60.1190   74.3022 H   0  0  0  0  0  0  0  0  0  0  0  0
    0.8269   65.1150   74.6201 H   0  0  0  0  0  0  0  0  0  0  0  0
   -0.1746   64.1588   76.6881 H   0  0  0  0  0  0  0  0  0  0  0  0
   -1.6782   60.8068   74.4079 H   0  0  0  0  0  0  0  0  0  0  0  0
   -0.6739   61.7699   72.3465 H   0  0  0  0  0  0  0  0  0  0  0  0
   -3.4250   60.3247   77.2961 H   0  0  0  0  0  0  0  0  0  0  0  0
   -3.5439   61.3143   75.9413 H   0  0  0  0  0  0  0  0  0  0  0  0
  2  1  1  0
  3  2  1  0
  4  3  2  0
  5  4  1  0
  5  1  1  0
  6  3  1  0
  7  6  2  0
  8  7  1  0
  9  8  2  0
 10  9  1  0
 11 10  2  0
 11  6  1  0
 12  9  1  0
 14 13  2  0
 15 14  1  0
 16 15  2  0
 16  1  1  0
 17 16  1  0
 18 13  1  0
 18 17  2  0
 20 19  1  0
 20 13  1  0
 21 17  1  0
 22 21  1  0
 23  5  1  0
 24 23  2  0
 25 24  1  0
 26 25  2  0
 27 26  1  0
 28 27  2  0
 28 23  1  0
 29 26  1  0
 30 29  2  0
 31 29  2  0
 32 29  1  0
  1 33  1  1
  2 34  1  0
  2 35  1  0
  7 36  1  0
  8 37  1  0
 10 38  1  0
 11 39  1  0
 14 40  1  0
 15 41  1  0
 18 42  1  0
 19 43  1  0
 19 44  1  0
 19 45  1  0
 22 46  1  0
 22 47  1  0
 22 48  1  0
 24 49  1  0
 25 50  1  0
 27 51  1  0
 28 52  1  0
 32 53  1  0
 32 54  1  0
M  END
>  <score>  (1) 
-8.072

$$$$
=
     RDKit          3D

 54 57  0  0  0  0  0  0  0  0999 V2000
    1.2370   61.3190   74.6490 C   0  0  1  0  0  0  0  0  0  0  0  0
    0.5430   62.5130   75.3060 C   0  0  0  0  0  0  0  0  0  0  0  0
   -0.8380   61.9500   75.5030 C   0  0  0  0  0  0  0  0  0  0  0  0
   -0.9550   60.6790   75.2660 N   0  0  0  0  0  0  0  0  0  0  0  0
    0.2620   60.2370   74.8330 N   0  0  0  0  0  0  0  0  0  0  0  0
   -1.9650   62.7920   75.9690 C   0  0  0  0  0  0  0  0  0  0  0  0
   -1.7590   64.0860   76.4620 C   0  0  0  0  0  0  0  0  0  0  0  0
   -2.8450   64.8540   76.8930 C   0  0  0  0  0  0  0  0  0  0  0  0
   -4.1350   64.3280   76.8310 C   0  0  0  0  0  0  0  0  0  0  0  0
   -4.3520   63.0420   76.3430 C   0  0  0  0  0  0  0  0  0  0  0  0
   -3.2660   62.2740   75.9120 C   0  0  0  0  0  0  0  0  0  0  0  0
   -5.6010   65.3690   77.4150 Br  0  0  0  0  0  0  0  0  0  0  0  0
    2.1920   62.1990   70.5000 C   0  0  0  0  0  0  0  0  0  0  0  0
    1.0170   62.6860   71.0680 C   0  0  0  0  0  0  0  0  0  0  0  0
    0.7010   62.4050   72.3970 C   0  0  0  0  0  0  0  0  0  0  0  0
    1.5560   61.6190   73.1880 C   0  0  0  0  0  0  0  0  0  0  0  0
    2.7540   61.1410   72.6160 C   0  0  0  0  0  0  0  0  0  0  0  0
    3.0620   61.4310   71.2780 C   0  0  0  0  0  0  0  0  0  0  0  0
    3.7170   62.7080   68.7430 C   0  0  0  0  0  0  0  0  0  0  0  0
    2.3780   62.5500   69.1920 O   0  0  0  0  0  0  0  0  0  0  0  0
    3.5610   60.4150   73.4580 O   0  0  0  0  0  0  0  0  0  0  0  0
    4.0030   59.1390   73.0110 C   0  0  0  0  0  0  0  0  0  0  0  0
    0.5250   58.8730   74.7090 C   0  0  0  0  0  0  0  0  0  0  0  0
   -0.1440   58.0570   73.7800 C   0  0  0  0  0  0  0  0  0  0  0  0
    0.1280   56.6890   73.6690 C   0  0  0  0  0  0  0  0  0  0  0  0
    1.0930   56.1090   74.4920 C   0  0  0  0  0  0  0  0  0  0  0  0
    1.7650   56.8810   75.4370 C   0  0  0  0  0  0  0  0  0  0  0  0
    1.4800   58.2480   75.5330 C   0  0  0  0  0  0  0  0  0  0  0  0
    1.4230   54.3780   74.3820 S   0  0  0  0  0  6  0  0  0  0  0  0
    0.3040   53.7150   73.7530 O   0  0  0  0  0  0  0  0  0  0  0  0
    1.9950   53.9180   75.6250 O   0  0  0  0  0  0  0  0  0  0  0  0
    2.6690   54.3320   73.2560 N   0  0  0  0  0  0  0  0  0  0  0  0
    2.2144   61.0605   75.0824 H   0  0  0  0  0  0  0  0  0  0  0  0
    1.0135   62.7801   76.2637 H   0  0  0  0  0  0  0  0  0  0  0  0
    0.5803   63.4444   74.7219 H   0  0  0  0  0  0  0  0  0  0  0  0
   -0.7408   64.4993   76.5104 H   0  0  0  0  0  0  0  0  0  0  0  0
   -2.6822   65.8707   77.2801 H   0  0  0  0  0  0  0  0  0  0  0  0
   -5.3720   62.6327   76.2968 H   0  0  0  0  0  0  0  0  0  0  0  0
   -3.4337   61.2577   75.5261 H   0  0  0  0  0  0  0  0  0  0  0  0
    0.3320   63.2979   70.4627 H   0  0  0  0  0  0  0  0  0  0  0  0
   -0.2281   62.8032   72.8309 H   0  0  0  0  0  0  0  0  0  0  0  0
    3.9958   61.0507   70.8382 H   0  0  0  0  0  0  0  0  0  0  0  0
    4.3879   62.7872   69.6111 H   0  0  0  0  0  0  0  0  0  0  0  0
    4.0050   61.8376   68.1352 H   0  0  0  0  0  0  0  0  0  0  0  0
    3.7945   63.6215   68.1352 H   0  0  0  0  0  0  0  0  0  0  0  0
    4.2236   58.5021   73.8803 H   0  0  0  0  0  0  0  0  0  0  0  0
    3.2149   58.6701   72.4035 H   0  0  0  0  0  0  0  0  0  0  0  0
    4.9123   59.2580   72.4035 H   0  0  0  0  0  0  0  0  0  0  0  0
   -0.9024   58.5065   73.1221 H   0  0  0  0  0  0  0  0  0  0  0  0
   -0.4162   56.0745   72.9367 H   0  0  0  0  0  0  0  0  0  0  0  0
    2.5118   56.4211   76.1009 H   0  0  0  0  0  0  0  0  0  0  0  0
    2.0196   58.8534   76.2762 H   0  0  0  0  0  0  0  0  0  0  0  0
    3.5740   54.2986   73.7466 H   0  0  0  0  0  0  0  0  0  0  0  0
    2.5674   53.4942   72.6655 H   0  0  0  0  0  0  0  0  0  0  0  0
  2  1  1  0
  3  2  1  0
  4  3  2  0
  5  4  1  0
  5  1  1  0
  6  3  1  0
  7  6  2  0
  8  7  1  0
  9  8  2  0
 10  9  1  0
 11 10  2  0
 11  6  1  0
 12  9  1  0
 14 13  2  0
 15 14  1  0
 16 15  2  0
 16  1  1  0
 17 16  1  0
 18 13  1  0
 18 17  2  0
 20 19  1  0
 20 13  1  0
 21 17  1  0
 22 21  1  0
 23  5  1  0
 24 23  2  0
 25 24  1  0
 26 25  2  0
 27 26  1  0
 28 27  2  0
 28 23  1  0
 29 26  1  0
 30 29  2  0
 31 29  2  0
 32 29  1  0
  1 33  1  1
  2 34  1  0
  2 35  1  0
  7 36  1  0
  8 37  1  0
 10 38  1  0
 11 39  1  0
 14 40  1  0
 15 41  1  0
 18 42  1  0
 19 43  1  0
 19 44  1  0
 19 45  1  0
 22 46  1  0
 22 47  1  0
 22 48  1  0
 24 49  1  0
 25 50  1  0
 27 51  1  0
 28 52  1  0
 32 53  1  0
 32 54  1  0
M  END
>  <score>  (2) 
-7.451

$$$$
=
     RDKit          3D

 54 57  0  0  0  0  0  0  0  0999 V2000
   -0.6680   61.0660   74.9510 C   0  0  1  0  0  0  0  0  0  0  0  0
   -1.9570   61.8380   75.2410 C   0  0  0  0  0  0  0  0  0  0  0  0
   -2.9840   60.8110   74.8490 C   0  0  0  0  0  0  0  0  0  0  0  0
   -2.5130   59.6260   74.6030 N   0  0  0  0  0  0  0  0  0  0  0  0
   -1.1550   59.6990   74.7250 N   0  0  0  0  0  0  0  0  0  0  0  0
   -4.4280   61.1340   74.7890 C   0  0  0  0  0  0  0  0  0  0  0  0
   -4.9500   62.2780   75.4060 C   0  0  0  0  0  0  0  0  0  0  0  0
   -6.3190   62.5540   75.3290 C   0  0  0  0  0  0  0  0  0  0  0  0
   -7.1640   61.6870   74.6360 C   0  0  0  0  0  0  0  0  0  0  0  0
   -6.6560   60.5460   74.0200 C   0  0  0  0  0  0  0  0  0  0  0  0
   -5.2880   60.2700   74.0970 C   0  0  0  0  0  0  0  0  0  0  0  0
   -9.0140   62.0630   74.5350 Br  0  0  0  0  0  0  0  0  0  0  0  0
    1.4320   62.8160   71.5710 C   0  0  0  0  0  0  0  0  0  0  0  0
    0.0410   62.7360   71.5680 C   0  0  0  0  0  0  0  0  0  0  0  0
   -0.6400   62.1720   72.6470 C   0  0  0  0  0  0  0  0  0  0  0  0
    0.0610   61.6670   73.7550 C   0  0  0  0  0  0  0  0  0  0  0  0
    1.4680   61.7640   73.7640 C   0  0  0  0  0  0  0  0  0  0  0  0
    2.1430   62.3340   72.6730 C   0  0  0  0  0  0  0  0  0  0  0  0
    1.9820   64.8110   70.3930 C   0  0  0  0  0  0  0  0  0  0  0  0
    1.9700   63.3910   70.4530 O   0  0  0  0  0  0  0  0  0  0  0  0
    2.0850   61.2880   74.8950 O   0  0  0  0  0  0  0  0  0  0  0  0
    2.9840   60.1950   74.7460 C   0  0  0  0  0  0  0  0  0  0  0  0
   -0.3740   58.5440   74.7420 C   0  0  0  0  0  0  0  0  0  0  0  0
    0.1270   57.9560   73.5670 C   0  0  0  0  0  0  0  0  0  0  0  0
    0.9070   56.7940   73.5990 C   0  0  0  0  0  0  0  0  0  0  0  0
    1.2070   56.1990   74.8230 C   0  0  0  0  0  0  0  0  0  0  0  0
    0.7140   56.7420   76.0070 C   0  0  0  0  0  0  0  0  0  0  0  0
   -0.0640   57.9040   75.9560 C   0  0  0  0  0  0  0  0  0  0  0  0
    2.1640   54.7150   74.8720 S   0  0  0  0  0  6  0  0  0  0  0  0
    2.3900   54.2450   73.5250 O   0  0  0  0  0  0  0  0  0  0  0  0
    1.6630   53.8550   75.9190 O   0  0  0  0  0  0  0  0  0  0  0  0
    3.6520   55.2790   75.4120 N   0  0  0  0  0  0  0  0  0  0  0  0
    0.0802   61.1004   75.7566 H   0  0  0  0  0  0  0  0  0  0  0  0
   -2.0382   62.1086   76.3041 H   0  0  0  0  0  0  0  0  0  0  0  0
   -2.0447   62.7993   74.7136 H   0  0  0  0  0  0  0  0  0  0  0  0
   -4.2821   62.9605   75.9520 H   0  0  0  0  0  0  0  0  0  0  0  0
   -6.7284   63.4526   75.8137 H   0  0  0  0  0  0  0  0  0  0  0  0
   -7.3277   59.8657   73.4758 H   0  0  0  0  0  0  0  0  0  0  0  0
   -4.8838   59.3694   73.6117 H   0  0  0  0  0  0  0  0  0  0  0  0
   -0.5253   63.1210   70.7071 H   0  0  0  0  0  0  0  0  0  0  0  0
   -1.7387   62.1221   72.6302 H   0  0  0  0  0  0  0  0  0  0  0  0
    3.2408   62.4017   72.6858 H   0  0  0  0  0  0  0  0  0  0  0  0
    1.9855   65.2211   71.4137 H   0  0  0  0  0  0  0  0  0  0  0  0
    2.8830   65.1478   69.8594 H   0  0  0  0  0  0  0  0  0  0  0  0
    1.0868   65.1630   69.8594 H   0  0  0  0  0  0  0  0  0  0  0  0
    3.2846   59.8295   75.7390 H   0  0  0  0  0  0  0  0  0  0  0  0
    2.4875   59.3848   74.1919 H   0  0  0  0  0  0  0  0  0  0  0  0
    3.8748   60.5258   74.1919 H   0  0  0  0  0  0  0  0  0  0  0  0
   -0.1001   58.4216   72.5966 H   0  0  0  0  0  0  0  0  0  0  0  0
    1.2810   56.3530   72.6632 H   0  0  0  0  0  0  0  0  0  0  0  0
    0.9339   56.2624   76.9722 H   0  0  0  0  0  0  0  0  0  0  0  0
   -0.4455   58.3308   76.8953 H   0  0  0  0  0  0  0  0  0  0  0  0
    3.6642   55.2836   76.4419 H   0  0  0  0  0  0  0  0  0  0  0  0
    4.4000   54.6631   75.0625 H   0  0  0  0  0  0  0  0  0  0  0  0
  2  1  1  0
  3  2  1  0
  4  3  2  0
  5  4  1  0
  5  1  1  0
  6  3  1  0
  7  6  2  0
  8  7  1  0
  9  8  2  0
 10  9  1  0
 11 10  2  0
 11  6  1  0
 12  9  1  0
 14 13  2  0
 15 14  1  0
 16 15  2  0
 16  1  1  0
 17 16  1  0
 18 13  1  0
 18 17  2  0
 20 19  1  0
 20 13  1  0
 21 17  1  0
 22 21  1  0
 23  5  1  0
 24 23  2  0
 25 24  1  0
 26 25  2  0
 27 26  1  0
 28 27  2  0
 28 23  1  0
 29 26  1  0
 30 29  2  0
 31 29  2  0
 32 29  1  0
  1 33  1  1
  2 34  1  0
  2 35  1  0
  7 36  1  0
  8 37  1  0
 10 38  1  0
 11 39  1  0
 14 40  1  0
 15 41  1  0
 18 42  1  0
 19 43  1  0
 19 44  1  0
 19 45  1  0
 22 46  1  0
 22 47  1  0
 22 48  1  0
 24 49  1  0
 25 50  1  0
 27 51  1  0
 28 52  1  0
 32 53  1  0
 32 54  1  0
M  END
>  <score>  (3) 
-7.413

$$$$
=
     RDKit          3D

 54 57  0  0  0  0  0  0  0  0999 V2000
    0.0830   58.8210   75.0980 C   0  0  1  0  0  0  0  0  0  0  0  0
    1.2530   59.5570   74.4410 C   0  0  0  0  0  0  0  0  0  0  0  0
    0.5600   60.1620   73.2520 C   0  0  0  0  0  0  0  0  0  0  0  0
   -0.7340   60.0570   73.2530 N   0  0  0  0  0  0  0  0  0  0  0  0
   -1.0770   59.3400   74.3640 N   0  0  0  0  0  0  0  0  0  0  0  0
    1.3120   60.8570   72.1810 C   0  0  0  0  0  0  0  0  0  0  0  0
    0.9430   62.1310   71.7330 C   0  0  0  0  0  0  0  0  0  0  0  0
    1.6760   62.7590   70.7210 C   0  0  0  0  0  0  0  0  0  0  0  0
    2.7750   62.1120   70.1570 C   0  0  0  0  0  0  0  0  0  0  0  0
    3.1510   60.8440   70.5930 C   0  0  0  0  0  0  0  0  0  0  0  0
    2.4180   60.2170   71.6050 C   0  0  0  0  0  0  0  0  0  0  0  0
    3.7630   62.9640   68.7880 Br  0  0  0  0  0  0  0  0  0  0  0  0
    0.6470   54.5230   74.7650 C   0  0  0  0  0  0  0  0  0  0  0  0
    0.0780   55.2400   73.7150 C   0  0  0  0  0  0  0  0  0  0  0  0
   -0.1100   56.6170   73.8150 C   0  0  0  0  0  0  0  0  0  0  0  0
    0.2630   57.3110   74.9790 C   0  0  0  0  0  0  0  0  0  0  0  0
    0.8540   56.5870   76.0350 C   0  0  0  0  0  0  0  0  0  0  0  0
    1.0390   55.2000   75.9230 C   0  0  0  0  0  0  0  0  0  0  0  0
   -0.3790   52.4870   74.0780 C   0  0  0  0  0  0  0  0  0  0  0  0
    0.7740   53.1810   74.5350 O   0  0  0  0  0  0  0  0  0  0  0  0
    1.2310   57.3340   77.1240 O   0  0  0  0  0  0  0  0  0  0  0  0
    2.6080   57.3310   77.4820 C   0  0  0  0  0  0  0  0  0  0  0  0
   -2.4070   59.2460   74.7720 C   0  0  0  0  0  0  0  0  0  0  0  0
   -3.3640   60.2270   74.4560 C   0  0  0  0  0  0  0  0  0  0  0  0
   -4.6950   60.1200   74.8760 C   0  0  0  0  0  0  0  0  0  0  0  0
   -5.0970   59.0130   75.6210 C   0  0  0  0  0  0  0  0  0  0  0  0
   -4.1740   58.0290   75.9680 C   0  0  0  0  0  0  0  0  0  0  0  0
   -2.8480   58.1510   75.5390 C   0  0  0  0  0  0  0  0  0  0  0  0
   -6.7670   58.8830   76.1810 S   0  0  0  0  0  6  0  0  0  0  0  0
   -7.5550   59.9370   75.5850 O   0  0  0  0  0  0  0  0  0  0  0  0
   -6.7780   58.6160   77.6000 O   0  0  0  0  0  0  0  0  0  0  0  0
   -7.2730   57.4630   75.4410 N   0  0  0  0  0  0  0  0  0  0  0  0
   -0.0159   58.9880   76.1807 H   0  0  0  0  0  0  0  0  0  0  0  0
    1.6714   60.3288   75.1038 H   0  0  0  0  0  0  0  0  0  0  0  0
    2.1159   58.9207   74.1950 H   0  0  0  0  0  0  0  0  0  0  0  0
    0.0747   62.6391   72.1779 H   0  0  0  0  0  0  0  0  0  0  0  0
    1.3864   63.7607   70.3708 H   0  0  0  0  0  0  0  0  0  0  0  0
    4.0190   60.3390   70.1441 H   0  0  0  0  0  0  0  0  0  0  0  0
    2.7111   59.2150   71.9514 H   0  0  0  0  0  0  0  0  0  0  0  0
   -0.2259   54.7140   72.7979 H   0  0  0  0  0  0  0  0  0  0  0  0
   -0.5555   57.1674   72.9732 H   0  0  0  0  0  0  0  0  0  0  0  0
    1.4961   54.6416   76.7532 H   0  0  0  0  0  0  0  0  0  0  0  0
   -0.9622   52.1360   74.9421 H   0  0  0  0  0  0  0  0  0  0  0  0
   -0.9968   53.1634   73.4691 H   0  0  0  0  0  0  0  0  0  0  0  0
   -0.0704   51.6244   73.4691 H   0  0  0  0  0  0  0  0  0  0  0  0
    2.7019   57.3308   78.5780 H   0  0  0  0  0  0  0  0  0  0  0  0
    3.0914   56.4318   77.0724 H   0  0  0  0  0  0  0  0  0  0  0  0
    3.0953   58.2281   77.0724 H   0  0  0  0  0  0  0  0  0  0  0  0
   -3.0584   61.1016   73.8630 H   0  0  0  0  0  0  0  0  0  0  0  0
   -5.4203   60.9061   74.6192 H   0  0  0  0  0  0  0  0  0  0  0  0
   -4.4847   57.1647   76.5733 H   0  0  0  0  0  0  0  0  0  0  0  0
   -2.1267   57.3659   75.8098 H   0  0  0  0  0  0  0  0  0  0  0  0
   -7.5201   56.7696   76.1614 H   0  0  0  0  0  0  0  0  0  0  0  0
   -8.0968   57.6565   74.8538 H   0  0  0  0  0  0  0  0  0  0  0  0
  2  1  1  0
  3  2  1  0
  4  3  2  0
  5  4  1  0
  5  1  1  0
  6  3  1  0
  7  6  2  0
  8  7  1  0
  9  8  2  0
 10  9  1  0
 11 10  2  0
 11  6  1  0
 12  9  1  0
 14 13  2  0
 15 14  1  0
 16 15  2  0
 16  1  1  0
 17 16  1  0
 18 13  1  0
 18 17  2  0
 20 19  1  0
 20 13  1  0
 21 17  1  0
 22 21  1  0
 23  5  1  0
 24 23  2  0
 25 24  1  0
 26 25  2  0
 27 26  1  0
 28 27  2  0
 28 23  1  0
 29 26  1  0
 30 29  2  0
 31 29  2  0
 32 29  1  0
  1 33  1  1
  2 34  1  0
  2 35  1  0
  7 36  1  0
  8 37  1  0
 10 38  1  0
 11 39  1  0
 14 40  1  0
 15 41  1  0
 18 42  1  0
 19 43  1  0
 19 44  1  0
 19 45  1  0
 22 46  1  0
 22 47  1  0
 22 48  1  0
 24 49  1  0
 25 50  1  0
 27 51  1  0
 28 52  1  0
 32 53  1  0
 32 54  1  0
M  END
>  <score>  (4) 
-7.239

$$$$
=
     RDKit          3D

 54 57  0  0  0  0  0  0  0  0999 V2000
    0.9380   59.6330   73.6730 C   0  0  1  0  0  0  0  0  0  0  0  0
    0.8650   60.4690   72.3930 C   0  0  0  0  0  0  0  0  0  0  0  0
    1.4050   61.7810   72.8940 C   0  0  0  0  0  0  0  0  0  0  0  0
    1.9120   61.7490   74.0880 N   0  0  0  0  0  0  0  0  0  0  0  0
    1.7340   60.4830   74.5680 N   0  0  0  0  0  0  0  0  0  0  0  0
    1.3870   63.0030   72.0570 C   0  0  0  0  0  0  0  0  0  0  0  0
    2.4390   63.3130   71.1870 C   0  0  0  0  0  0  0  0  0  0  0  0
    2.3890   64.4750   70.4110 C   0  0  0  0  0  0  0  0  0  0  0  0
    1.2880   65.3260   70.5040 C   0  0  0  0  0  0  0  0  0  0  0  0
    0.2360   65.0280   71.3670 C   0  0  0  0  0  0  0  0  0  0  0  0
    0.2860   63.8660   72.1430 C   0  0  0  0  0  0  0  0  0  0  0  0
    1.2240   66.8960   69.4530 Br  0  0  0  0  0  0  0  0  0  0  0  0
   -3.0530   58.7170   75.1310 C   0  0  0  0  0  0  0  0  0  0  0  0
   -2.7880   59.9510   74.5410 C   0  0  0  0  0  0  0  0  0  0  0  0
   -1.5090   60.2540   74.0740 C   0  0  0  0  0  0  0  0  0  0  0  0
   -0.4610   59.3260   74.1960 C   0  0  0  0  0  0  0  0  0  0  0  0
   -0.7350   58.0710   74.7780 C   0  0  0  0  0  0  0  0  0  0  0  0
   -2.0260   57.7770   75.2440 C   0  0  0  0  0  0  0  0  0  0  0  0
   -5.1500   59.7190   75.6540 C   0  0  0  0  0  0  0  0  0  0  0  0
   -4.3470   58.5510   75.5430 O   0  0  0  0  0  0  0  0  0  0  0  0
    0.3250   57.2000   74.8270 O   0  0  0  0  0  0  0  0  0  0  0  0
    0.2050   55.9740   74.1150 C   0  0  0  0  0  0  0  0  0  0  0  0
    2.3660   60.0640   75.7380 C   0  0  0  0  0  0  0  0  0  0  0  0
    2.2480   60.7660   76.9510 C   0  0  0  0  0  0  0  0  0  0  0  0
    2.8930   60.3360   78.1170 C   0  0  0  0  0  0  0  0  0  0  0  0
    3.6680   59.1780   78.0890 C   0  0  0  0  0  0  0  0  0  0  0  0
    3.8230   58.4660   76.9020 C   0  0  0  0  0  0  0  0  0  0  0  0
    3.1710   58.9100   75.7460 C   0  0  0  0  0  0  0  0  0  0  0  0
    4.5090   58.6440   79.5470 S   0  0  0  0  0  6  0  0  0  0  0  0
    3.6080   57.8610   80.3610 O   0  0  0  0  0  0  0  0  0  0  0  0
    5.2840   59.7380   80.0830 O   0  0  0  0  0  0  0  0  0  0  0  0
    5.6240   57.5510   78.9250 N   0  0  0  0  0  0  0  0  0  0  0  0
    1.3933   58.6395   73.5481 H   0  0  0  0  0  0  0  0  0  0  0  0
    1.4953   60.0478   71.5959 H   0  0  0  0  0  0  0  0  0  0  0  0
   -0.1352   60.5273   71.9390 H   0  0  0  0  0  0  0  0  0  0  0  0
    3.3068   62.6410   71.1137 H   0  0  0  0  0  0  0  0  0  0  0  0
    3.2167   64.7176   69.7283 H   0  0  0  0  0  0  0  0  0  0  0  0
   -0.6295   65.7032   71.4376 H   0  0  0  0  0  0  0  0  0  0  0  0
   -0.5436   63.6278   72.8249 H   0  0  0  0  0  0  0  0  0  0  0  0
   -3.5943   60.6927   74.4426 H   0  0  0  0  0  0  0  0  0  0  0  0
   -1.3186   61.2306   73.6049 H   0  0  0  0  0  0  0  0  0  0  0  0
   -2.2307   56.7981   75.7020 H   0  0  0  0  0  0  0  0  0  0  0  0
   -5.3112   59.9535   76.7166 H   0  0  0  0  0  0  0  0  0  0  0  0
   -4.6399   60.5624   75.1657 H   0  0  0  0  0  0  0  0  0  0  0  0
   -6.1201   59.5448   75.1657 H   0  0  0  0  0  0  0  0  0  0  0  0
    0.1235   55.1416   74.8294 H   0  0  0  0  0  0  0  0  0  0  0  0
   -0.6945   56.0038   73.4826 H   0  0  0  0  0  0  0  0  0  0  0  0
    1.0932   55.8288   73.4826 H   0  0  0  0  0  0  0  0  0  0  0  0
    1.6326   61.6771   76.9846 H   0  0  0  0  0  0  0  0  0  0  0  0
    2.7886   60.9091   79.0501 H   0  0  0  0  0  0  0  0  0  0  0  0
    4.4516   57.5637   76.8734 H   0  0  0  0  0  0  0  0  0  0  0  0
    3.2917   58.3386   74.8139 H   0  0  0  0  0  0  0  0  0  0  0  0
    6.1084   57.0761   79.7001 H   0  0  0  0  0  0  0  0  0  0  0  0
    5.1347   56.8529   78.3469 H   0  0  0  0  0  0  0  0  0  0  0  0
  2  1  1  0
  3  2  1  0
  4  3  2  0
  5  4  1  0
  5  1  1  0
  6  3  1  0
  7  6  2  0
  8  7  1  0
  9  8  2  0
 10  9  1  0
 11 10  2  0
 11  6  1  0
 12  9  1  0
 14 13  2  0
 15 14  1  0
 16 15  2  0
 16  1  1  0
 17 16  1  0
 18 13  1  0
 18 17  2  0
 20 19  1  0
 20 13  1  0
 21 17  1  0
 22 21  1  0
 23  5  1  0
 24 23  2  0
 25 24  1  0
 26 25  2  0
 27 26  1  0
 28 27  2  0
 28 23  1  0
 29 26  1  0
 30 29  2  0
 31 29  2  0
 32 29  1  0
  1 33  1  6
  2 34  1  0
  2 35  1  0
  7 36  1  0
  8 37  1  0
 10 38  1  0
 11 39  1  0
 14 40  1  0
 15 41  1  0
 18 42  1  0
 19 43  1  0
 19 44  1  0
 19 45  1  0
 22 46  1  0
 22 47  1  0
 22 48  1  0
 24 49  1  0
 25 50  1  0
 27 51  1  0
 28 52  1  0
 32 53  1  0
 32 54  1  0
M  END
>  <score>  (5) 
-7.208

$$$$
=
     RDKit          3D

 54 57  0  0  0  0  0  0  0  0999 V2000
    0.4140   58.3920   74.1080 C   0  0  1  0  0  0  0  0  0  0  0  0
   -0.8980   57.7860   74.6110 C   0  0  0  0  0  0  0  0  0  0  0  0
   -1.8100   58.9760   74.4920 C   0  0  0  0  0  0  0  0  0  0  0  0
   -1.3080   59.9970   73.8680 N   0  0  0  0  0  0  0  0  0  0  0  0
   -0.0190   59.6780   73.5480 N   0  0  0  0  0  0  0  0  0  0  0  0
   -3.1940   58.9540   75.0230 C   0  0  0  0  0  0  0  0  0  0  0  0
   -4.1100   59.9700   74.7260 C   0  0  0  0  0  0  0  0  0  0  0  0
   -5.4080   59.9180   75.2430 C   0  0  0  0  0  0  0  0  0  0  0  0
   -5.7890   58.8520   76.0580 C   0  0  0  0  0  0  0  0  0  0  0  0
   -4.8850   57.8360   76.3620 C   0  0  0  0  0  0  0  0  0  0  0  0
   -3.5870   57.8890   75.8440 C   0  0  0  0  0  0  0  0  0  0  0  0
   -7.5440   58.7860   76.7560 Br  0  0  0  0  0  0  0  0  0  0  0  0
    3.2590   58.7200   77.3780 C   0  0  0  0  0  0  0  0  0  0  0  0
    2.3000   59.7110   77.1800 C   0  0  0  0  0  0  0  0  0  0  0  0
    1.3870   59.6150   76.1310 C   0  0  0  0  0  0  0  0  0  0  0  0
    1.4180   58.5230   75.2480 C   0  0  0  0  0  0  0  0  0  0  0  0
    2.3790   57.5130   75.4600 C   0  0  0  0  0  0  0  0  0  0  0  0
    3.2940   57.6190   76.5190 C   0  0  0  0  0  0  0  0  0  0  0  0
    3.9940   60.1960   79.0970 C   0  0  0  0  0  0  0  0  0  0  0  0
    4.0910   58.9390   78.4420 O   0  0  0  0  0  0  0  0  0  0  0  0
    2.3260   56.4560   74.5840 O   0  0  0  0  0  0  0  0  0  0  0  0
    2.3050   55.1440   75.1340 C   0  0  0  0  0  0  0  0  0  0  0  0
    0.7200   60.4780   72.6770 C   0  0  0  0  0  0  0  0  0  0  0  0
    1.9610   60.0730   72.1530 C   0  0  0  0  0  0  0  0  0  0  0  0
    2.6950   60.8880   71.2830 C   0  0  0  0  0  0  0  0  0  0  0  0
    2.1880   62.1330   70.9120 C   0  0  0  0  0  0  0  0  0  0  0  0
    0.9710   62.5750   71.4240 C   0  0  0  0  0  0  0  0  0  0  0  0
    0.2510   61.7470   72.2930 C   0  0  0  0  0  0  0  0  0  0  0  0
    3.1190   63.1810   69.8390 S   0  0  0  0  0  6  0  0  0  0  0  0
    3.0750   62.6530   68.4950 O   0  0  0  0  0  0  0  0  0  0  0  0
    4.3570   63.5510   70.4840 O   0  0  0  0  0  0  0  0  0  0  0  0
    2.1800   64.5740   69.8110 N   0  0  0  0  0  0  0  0  0  0  0  0
    0.9449   57.7836   73.3610 H   0  0  0  0  0  0  0  0  0  0  0  0
   -1.2314   56.9531   73.9746 H   0  0  0  0  0  0  0  0  0  0  0  0
   -0.8448   57.3469   75.6182 H   0  0  0  0  0  0  0  0  0  0  0  0
   -3.8080   60.8110   74.0845 H   0  0  0  0  0  0  0  0  0  0  0  0
   -6.1274   60.7162   75.0075 H   0  0  0  0  0  0  0  0  0  0  0  0
   -5.1904   56.9976   77.0053 H   0  0  0  0  0  0  0  0  0  0  0  0
   -2.8702   57.0895   76.0827 H   0  0  0  0  0  0  0  0  0  0  0  0
    2.2629   60.5769   77.8574 H   0  0  0  0  0  0  0  0  0  0  0  0
    0.6331   60.4040   75.9930 H   0  0  0  0  0  0  0  0  0  0  0  0
    4.0441   56.8294   76.6737 H   0  0  0  0  0  0  0  0  0  0  0  0
    4.0058   60.0437   80.1863 H   0  0  0  0  0  0  0  0  0  0  0  0
    4.8461   60.8279   78.8059 H   0  0  0  0  0  0  0  0  0  0  0  0
    3.0551   60.6897   78.8059 H   0  0  0  0  0  0  0  0  0  0  0  0
    2.3060   55.2067   76.2322 H   0  0  0  0  0  0  0  0  0  0  0  0
    1.3983   54.6198   74.7975 H   0  0  0  0  0  0  0  0  0  0  0  0
    3.1944   54.5911   74.7975 H   0  0  0  0  0  0  0  0  0  0  0  0
    2.3656   59.0896   72.4344 H   0  0  0  0  0  0  0  0  0  0  0  0
    3.6663   60.5482   70.8942 H   0  0  0  0  0  0  0  0  0  0  0  0
    0.5792   63.5652   71.1483 H   0  0  0  0  0  0  0  0  0  0  0  0
   -0.7128   62.1003   72.6883 H   0  0  0  0  0  0  0  0  0  0  0  0
    1.9791   64.8721   70.7762 H   0  0  0  0  0  0  0  0  0  0  0  0
    2.6900   65.3220   69.3198 H   0  0  0  0  0  0  0  0  0  0  0  0
  2  1  1  0
  3  2  1  0
  4  3  2  0
  5  4  1  0
  5  1  1  0
  6  3  1  0
  7  6  2  0
  8  7  1  0
  9  8  2  0
 10  9  1  0
 11 10  2  0
 11  6  1  0
 12  9  1  0
 14 13  2  0
 15 14  1  0
 16 15  2  0
 16  1  1  0
 17 16  1  0
 18 13  1  0
 18 17  2  0
 20 19  1  0
 20 13  1  0
 21 17  1  0
 22 21  1  0
 23  5  1  0
 24 23  2  0
 25 24  1  0
 26 25  2  0
 27 26  1  0
 28 27  2  0
 28 23  1  0
 29 26  1  0
 30 29  2  0
 31 29  2  0
 32 29  1  0
  1 33  1  6
  2 34  1  0
  2 35  1  0
  7 36  1  0
  8 37  1  0
 10 38  1  0
 11 39  1  0
 14 40  1  0
 15 41  1  0
 18 42  1  0
 19 43  1  0
 19 44  1  0
 19 45  1  0
 22 46  1  0
 22 47  1  0
 22 48  1  0
 24 49  1  0
 25 50  1  0
 27 51  1  0
 28 52  1  0
 32 53  1  0
 32 54  1  0
M  END
>  <score>  (6) 
-7.188

$$$$
=
     RDKit          3D

 54 57  0  0  0  0  0  0  0  0999 V2000
    1.8250   57.6240   73.9100 C   0  0  1  0  0  0  0  0  0  0  0  0
    1.9480   58.0350   72.4410 C   0  0  0  0  0  0  0  0  0  0  0  0
    2.6800   59.3410   72.5840 C   0  0  0  0  0  0  0  0  0  0  0  0
    3.1230   59.5980   73.7760 N   0  0  0  0  0  0  0  0  0  0  0  0
    2.7150   58.5770   74.5860 N   0  0  0  0  0  0  0  0  0  0  0  0
    2.9030   60.2410   71.4280 C   0  0  0  0  0  0  0  0  0  0  0  0
    2.1800   61.4300   71.2740 C   0  0  0  0  0  0  0  0  0  0  0  0
    2.4160   62.2570   70.1710 C   0  0  0  0  0  0  0  0  0  0  0  0
    3.3730   61.8940   69.2240 C   0  0  0  0  0  0  0  0  0  0  0  0
    4.0970   60.7130   69.3660 C   0  0  0  0  0  0  0  0  0  0  0  0
    3.8610   59.8870   70.4690 C   0  0  0  0  0  0  0  0  0  0  0  0
    3.6880   63.0140   67.7340 Br  0  0  0  0  0  0  0  0  0  0  0  0
   -2.3250   57.8060   75.1890 C   0  0  0  0  0  0  0  0  0  0  0  0
   -1.7020   58.9360   74.6660 C   0  0  0  0  0  0  0  0  0  0  0  0
   -0.3700   58.8870   74.2570 C   0  0  0  0  0  0  0  0  0  0  0  0
    0.3740   57.7010   74.3710 C   0  0  0  0  0  0  0  0  0  0  0  0
   -0.2630   56.5530   74.8860 C   0  0  0  0  0  0  0  0  0  0  0  0
   -1.6050   56.6130   75.2940 C   0  0  0  0  0  0  0  0  0  0  0  0
   -4.2140   59.2550   75.2550 C   0  0  0  0  0  0  0  0  0  0  0  0
   -3.6310   57.9920   75.5490 O   0  0  0  0  0  0  0  0  0  0  0  0
    0.5110   55.4190   74.9310 O   0  0  0  0  0  0  0  0  0  0  0  0
    0.0740   54.3540   75.7670 C   0  0  0  0  0  0  0  0  0  0  0  0
    3.2180   58.4440   75.8800 C   0  0  0  0  0  0  0  0  0  0  0  0
    2.9210   59.3620   76.9030 C   0  0  0  0  0  0  0  0  0  0  0  0
    3.4370   59.2170   78.1960 C   0  0  0  0  0  0  0  0  0  0  0  0
    4.2620   58.1340   78.4920 C   0  0  0  0  0  0  0  0  0  0  0  0
    4.5930   57.2130   77.5010 C   0  0  0  0  0  0  0  0  0  0  0  0
    4.0680   57.3730   76.2130 C   0  0  0  0  0  0  0  0  0  0  0  0
    4.9420   57.9580   80.1120 S   0  0  0  0  0  6  0  0  0  0  0  0
    4.3290   56.8280   80.7700 O   0  0  0  0  0  0  0  0  0  0  0  0
    5.0390   59.2580   80.7350 O   0  0  0  0  0  0  0  0  0  0  0  0
    6.5200   57.4890   79.7780 N   0  0  0  0  0  0  0  0  0  0  0  0
    2.1105   56.5831   74.1221 H   0  0  0  0  0  0  0  0  0  0  0  0
    2.5309   57.3037   71.8618 H   0  0  0  0  0  0  0  0  0  0  0  0
    0.9918   58.1014   71.9013 H   0  0  0  0  0  0  0  0  0  0  0  0
    1.4250   61.7143   72.0218 H   0  0  0  0  0  0  0  0  0  0  0  0
    1.8481   63.1914   70.0509 H   0  0  0  0  0  0  0  0  0  0  0  0
    4.8499   60.4317   68.6150 H   0  0  0  0  0  0  0  0  0  0  0  0
    4.4310   58.9534   70.5846 H   0  0  0  0  0  0  0  0  0  0  0  0
   -2.2659   59.8761   74.5747 H   0  0  0  0  0  0  0  0  0  0  0  0
    0.1039   59.7879   73.8401 H   0  0  0  0  0  0  0  0  0  0  0  0
   -2.0932   55.7144   75.6992 H   0  0  0  0  0  0  0  0  0  0  0  0
   -4.4542   59.7754   76.1939 H   0  0  0  0  0  0  0  0  0  0  0  0
   -3.5040   59.8598   74.6718 H   0  0  0  0  0  0  0  0  0  0  0  0
   -5.1349   59.1069   74.6718 H   0  0  0  0  0  0  0  0  0  0  0  0
    0.1927   54.6433   76.8216 H   0  0  0  0  0  0  0  0  0  0  0  0
   -0.9852   54.1386   75.5629 H   0  0  0  0  0  0  0  0  0  0  0  0
    0.6766   53.4567   75.5629 H   0  0  0  0  0  0  0  0  0  0  0  0
    2.2655   60.2171   76.6811 H   0  0  0  0  0  0  0  0  0  0  0  0
    3.1924   59.9545   78.9746 H   0  0  0  0  0  0  0  0  0  0  0  0
    5.2602   56.3684   77.7280 H   0  0  0  0  0  0  0  0  0  0  0  0
    4.3282   56.6383   75.4368 H   0  0  0  0  0  0  0  0  0  0  0  0
    7.0276   57.3381   80.6614 H   0  0  0  0  0  0  0  0  0  0  0  0
    6.5104   56.6145   79.2339 H   0  0  0  0  0  0  0  0  0  0  0  0
  2  1  1  0
  3  2  1  0
  4  3  2  0
  5  4  1  0
  5  1  1  0
  6  3  1  0
  7  6  2  0
  8  7  1  0
  9  8  2  0
 10  9  1  0
 11 10  2  0
 11  6  1  0
 12  9  1  0
 14 13  2  0
 15 14  1  0
 16 15  2  0
 16  1  1  0
 17 16  1  0
 18 13  1  0
 18 17  2  0
 20 19  1  0
 20 13  1  0
 21 17  1  0
 22 21  1  0
 23  5  1  0
 24 23  2  0
 25 24  1  0
 26 25  2  0
 27 26  1  0
 28 27  2  0
 28 23  1  0
 29 26  1  0
 30 29  2  0
 31 29  2  0
 32 29  1  0
  1 33  1  6
  2 34  1  0
  2 35  1  0
  7 36  1  0
  8 37  1  0
 10 38  1  0
 11 39  1  0
 14 40  1  0
 15 41  1  0
 18 42  1  0
 19 43  1  0
 19 44  1  0
 19 45  1  0
 22 46  1  0
 22 47  1  0
 22 48  1  0
 24 49  1  0
 25 50  1  0
 27 51  1  0
 28 52  1  0
 32 53  1  0
 32 54  1  0
M  END
>  <score>  (7) 
-6.971

$$$$
=
     RDKit          3D

 54 57  0  0  0  0  0  0  0  0999 V2000
    0.1880   57.5300   74.5920 C   0  0  1  0  0  0  0  0  0  0  0  0
   -1.2680   57.2880   74.9970 C   0  0  0  0  0  0  0  0  0  0  0  0
   -1.8700   58.6240   74.6610 C   0  0  0  0  0  0  0  0  0  0  0  0
   -1.0940   59.4300   74.0030 N   0  0  0  0  0  0  0  0  0  0  0  0
    0.1120   58.8030   73.8650 N   0  0  0  0  0  0  0  0  0  0  0  0
   -3.2640   58.9670   75.0290 C   0  0  0  0  0  0  0  0  0  0  0  0
   -4.0720   58.0790   75.7490 C   0  0  0  0  0  0  0  0  0  0  0  0
   -5.3830   58.4350   76.0810 C   0  0  0  0  0  0  0  0  0  0  0  0
   -5.8850   59.6770   75.6920 C   0  0  0  0  0  0  0  0  0  0  0  0
   -5.0900   60.5680   74.9740 C   0  0  0  0  0  0  0  0  0  0  0  0
   -3.7790   60.2110   74.6430 C   0  0  0  0  0  0  0  0  0  0  0  0
   -7.6580   60.1540   76.1420 Br  0  0  0  0  0  0  0  0  0  0  0  0
    2.7430   57.6060   78.1080 C   0  0  0  0  0  0  0  0  0  0  0  0
    1.6610   58.4780   78.0080 C   0  0  0  0  0  0  0  0  0  0  0  0
    0.8390   58.4620   76.8820 C   0  0  0  0  0  0  0  0  0  0  0  0
    1.0890   57.5750   75.8220 C   0  0  0  0  0  0  0  0  0  0  0  0
    2.1750   56.6820   75.9320 C   0  0  0  0  0  0  0  0  0  0  0  0
    2.9950   56.7060   77.0700 C   0  0  0  0  0  0  0  0  0  0  0  0
    3.9610   59.0180   79.5900 C   0  0  0  0  0  0  0  0  0  0  0  0
    3.4650   57.7270   79.2630 O   0  0  0  0  0  0  0  0  0  0  0  0
    2.3350   55.8150   74.8780 O   0  0  0  0  0  0  0  0  0  0  0  0
    2.0800   54.4350   75.1140 C   0  0  0  0  0  0  0  0  0  0  0  0
    1.0910   59.3130   73.0120 C   0  0  0  0  0  0  0  0  0  0  0  0
    1.1040   60.6570   72.5980 C   0  0  0  0  0  0  0  0  0  0  0  0
    2.0910   61.1540   71.7380 C   0  0  0  0  0  0  0  0  0  0  0  0
    3.0970   60.3050   71.2800 C   0  0  0  0  0  0  0  0  0  0  0  0
    3.1080   58.9630   71.6550 C   0  0  0  0  0  0  0  0  0  0  0  0
    2.1130   58.4840   72.5150 C   0  0  0  0  0  0  0  0  0  0  0  0
    4.3290   60.9140   70.1720 S   0  0  0  0  0  6  0  0  0  0  0  0
    4.1580   62.3380   70.0000 O   0  0  0  0  0  0  0  0  0  0  0  0
    4.4580   60.0090   69.0530 O   0  0  0  0  0  0  0  0  0  0  0  0
    5.7330   60.7310   71.0760 N   0  0  0  0  0  0  0  0  0  0  0  0
    0.6313   56.7360   73.9731 H   0  0  0  0  0  0  0  0  0  0  0  0
   -1.7239   56.4775   74.4094 H   0  0  0  0  0  0  0  0  0  0  0  0
   -1.4074   56.9714   76.0412 H   0  0  0  0  0  0  0  0  0  0  0  0
   -3.6750   57.0996   76.0541 H   0  0  0  0  0  0  0  0  0  0  0  0
   -6.0170   57.7372   76.6477 H   0  0  0  0  0  0  0  0  0  0  0  0
   -5.4910   61.5460   74.6695 H   0  0  0  0  0  0  0  0  0  0  0  0
   -3.1483   60.9115   74.0760 H   0  0  0  0  0  0  0  0  0  0  0  0
    1.4535   59.1852   78.8245 H   0  0  0  0  0  0  0  0  0  0  0  0
   -0.0155   59.1522   76.8230 H   0  0  0  0  0  0  0  0  0  0  0  0
    3.8436   56.0102   77.1455 H   0  0  0  0  0  0  0  0  0  0  0  0
    4.0034   59.1283   80.6836 H   0  0  0  0  0  0  0  0  0  0  0  0
    4.9702   59.1404   79.1697 H   0  0  0  0  0  0  0  0  0  0  0  0
    3.2934   59.7846   79.1697 H   0  0  0  0  0  0  0  0  0  0  0  0
    2.0455   54.2486   76.1975 H   0  0  0  0  0  0  0  0  0  0  0  0
    1.1155   54.1581   74.6634 H   0  0  0  0  0  0  0  0  0  0  0  0
    2.8819   53.8317   74.6634 H   0  0  0  0  0  0  0  0  0  0  0  0
    0.3177   61.3360   72.9595 H   0  0  0  0  0  0  0  0  0  0  0  0
    2.0725   62.2086   71.4256 H   0  0  0  0  0  0  0  0  0  0  0  0
    3.8904   58.2872   71.2791 H   0  0  0  0  0  0  0  0  0  0  0  0
    2.1308   57.4250   72.8118 H   0  0  0  0  0  0  0  0  0  0  0  0
    5.5017   60.7611   72.0793 H   0  0  0  0  0  0  0  0  0  0  0  0
    6.1704   59.8259   70.8515 H   0  0  0  0  0  0  0  0  0  0  0  0
  2  1  1  0
  3  2  1  0
  4  3  2  0
  5  4  1  0
  5  1  1  0
  6  3  1  0
  7  6  2  0
  8  7  1  0
  9  8  2  0
 10  9  1  0
 11 10  2  0
 11  6  1  0
 12  9  1  0
 14 13  2  0
 15 14  1  0
 16 15  2  0
 16  1  1  0
 17 16  1  0
 18 13  1  0
 18 17  2  0
 20 19  1  0
 20 13  1  0
 21 17  1  0
 22 21  1  0
 23  5  1  0
 24 23  2  0
 25 24  1  0
 26 25  2  0
 27 26  1  0
 28 27  2  0
 28 23  1  0
 29 26  1  0
 30 29  2  0
 31 29  2  0
 32 29  1  0
  1 33  1  6
  2 34  1  0
  2 35  1  0
  7 36  1  0
  8 37  1  0
 10 38  1  0
 11 39  1  0
 14 40  1  0
 15 41  1  0
 18 42  1  0
 19 43  1  0
 19 44  1  0
 19 45  1  0
 22 46  1  0
 22 47  1  0
 22 48  1  0
 24 49  1  0
 25 50  1  0
 27 51  1  0
 28 52  1  0
 32 53  1  0
 32 54  1  0
M  END
>  <score>  (8) 
-6.97

$$$$
=
     RDKit          3D

 54 57  0  0  0  0  0  0  0  0999 V2000
    1.8810   63.0250   72.3450 C   0  0  1  0  0  0  0  0  0  0  0  0
    2.1710   64.2460   71.4700 C   0  0  0  0  0  0  0  0  0  0  0  0
    0.7800   64.5930   71.0170 C   0  0  0  0  0  0  0  0  0  0  0  0
   -0.1730   63.9420   71.6100 N   0  0  0  0  0  0  0  0  0  0  0  0
    0.4170   63.0550   72.4650 N   0  0  0  0  0  0  0  0  0  0  0  0
    0.5300   65.6330   69.9910 C   0  0  0  0  0  0  0  0  0  0  0  0
    1.5010   66.5840   69.6590 C   0  0  0  0  0  0  0  0  0  0  0  0
    1.2320   67.5510   68.6850 C   0  0  0  0  0  0  0  0  0  0  0  0
   -0.0070   67.5670   68.0450 C   0  0  0  0  0  0  0  0  0  0  0  0
   -0.9810   66.6250   68.3690 C   0  0  0  0  0  0  0  0  0  0  0  0
   -0.7120   65.6590   69.3420 C   0  0  0  0  0  0  0  0  0  0  0  0
   -0.3660   68.8760   66.7300 Br  0  0  0  0  0  0  0  0  0  0  0  0
    3.3870   59.4150   70.4490 C   0  0  0  0  0  0  0  0  0  0  0  0
    2.7200   59.3410   71.6690 C   0  0  0  0  0  0  0  0  0  0  0  0
    2.2370   60.4940   72.2860 C   0  0  0  0  0  0  0  0  0  0  0  0
    2.4200   61.7560   71.6950 C   0  0  0  0  0  0  0  0  0  0  0  0
    3.0810   61.8280   70.4510 C   0  0  0  0  0  0  0  0  0  0  0  0
    3.5620   60.6600   69.8390 C   0  0  0  0  0  0  0  0  0  0  0  0
    3.4520   57.0470   70.6910 C   0  0  0  0  0  0  0  0  0  0  0  0
    3.8060   58.2110   69.9560 O   0  0  0  0  0  0  0  0  0  0  0  0
    3.1880   63.0870   69.9130 O   0  0  0  0  0  0  0  0  0  0  0  0
    3.7330   63.2000   68.6030 C   0  0  0  0  0  0  0  0  0  0  0  0
   -0.3360   62.3630   73.4120 C   0  0  0  0  0  0  0  0  0  0  0  0
   -0.0830   62.4580   74.7920 C   0  0  0  0  0  0  0  0  0  0  0  0
   -0.8460   61.7540   75.7320 C   0  0  0  0  0  0  0  0  0  0  0  0
   -1.8920   60.9400   75.3000 C   0  0  0  0  0  0  0  0  0  0  0  0
   -2.1620   60.8070   73.9400 C   0  0  0  0  0  0  0  0  0  0  0  0
   -1.3900   61.5180   73.0150 C   0  0  0  0  0  0  0  0  0  0  0  0
   -2.8410   60.0250   76.4750 S   0  0  0  0  0  6  0  0  0  0  0  0
   -4.2460   60.1550   76.1630 O   0  0  0  0  0  0  0  0  0  0  0  0
   -2.3180   60.2570   77.8000 O   0  0  0  0  0  0  0  0  0  0  0  0
   -2.4360   58.4400   76.0910 N   0  0  0  0  0  0  0  0  0  0  0  0
    2.3685   63.0401   73.3309 H   0  0  0  0  0  0  0  0  0  0  0  0
    2.6251   65.0629   72.0500 H   0  0  0  0  0  0  0  0  0  0  0  0
    2.8878   64.0669   70.6551 H   0  0  0  0  0  0  0  0  0  0  0  0
    2.4777   66.5711   70.1649 H   0  0  0  0  0  0  0  0  0  0  0  0
    1.9965   68.2977   68.4242 H   0  0  0  0  0  0  0  0  0  0  0  0
   -1.9567   66.6417   67.8614 H   0  0  0  0  0  0  0  0  0  0  0  0
   -1.4795   64.9145   69.6002 H   0  0  0  0  0  0  0  0  0  0  0  0
    2.5727   58.3631   72.1507 H   0  0  0  0  0  0  0  0  0  0  0  0
    1.7066   60.4152   73.2464 H   0  0  0  0  0  0  0  0  0  0  0  0
    4.0809   60.7252   68.8713 H   0  0  0  0  0  0  0  0  0  0  0  0
    3.5167   57.2598   71.7683 H   0  0  0  0  0  0  0  0  0  0  0  0
    2.4234   56.7515   70.4368 H   0  0  0  0  0  0  0  0  0  0  0  0
    4.1420   56.2289   70.4368 H   0  0  0  0  0  0  0  0  0  0  0  0
    4.8080   63.4229   68.6711 H   0  0  0  0  0  0  0  0  0  0  0  0
    3.5884   62.2528   68.0628 H   0  0  0  0  0  0  0  0  0  0  0  0
    3.2237   64.0117   68.0628 H   0  0  0  0  0  0  0  0  0  0  0  0
    0.7364   63.1027   75.1427 H   0  0  0  0  0  0  0  0  0  0  0  0
   -0.6212   61.8429   76.8051 H   0  0  0  0  0  0  0  0  0  0  0  0
   -2.9742   60.1494   73.5967 H   0  0  0  0  0  0  0  0  0  0  0  0
   -1.6136   61.4135   71.9430 H   0  0  0  0  0  0  0  0  0  0  0  0
   -2.2983   57.9012   76.9579 H   0  0  0  0  0  0  0  0  0  0  0  0
   -3.1955   58.0155   75.5398 H   0  0  0  0  0  0  0  0  0  0  0  0
  2  1  1  0
  3  2  1  0
  4  3  2  0
  5  4  1  0
  5  1  1  0
  6  3  1  0
  7  6  2  0
  8  7  1  0
  9  8  2  0
 10  9  1  0
 11 10  2  0
 11  6  1  0
 12  9  1  0
 14 13  2  0
 15 14  1  0
 16 15  2  0
 16  1  1  0
 17 16  1  0
 18 13  1  0
 18 17  2  0
 20 19  1  0
 20 13  1  0
 21 17  1  0
 22 21  1  0
 23  5  1  0
 24 23  2  0
 25 24  1  0
 26 25  2  0
 27 26  1  0
 28 27  2  0
 28 23  1  0
 29 26  1  0
 30 29  2  0
 31 29  2  0
 32 29  1  0
  1 33  1  1
  2 34  1  0
  2 35  1  0
  7 36  1  0
  8 37  1  0
 10 38  1  0
 11 39  1  0
 14 40  1  0
 15 41  1  0
 18 42  1  0
 19 43  1  0
 19 44  1  0
 19 45  1  0
 22 46  1  0
 22 47  1  0
 22 48  1  0
 24 49  1  0
 25 50  1  0
 27 51  1  0
 28 52  1  0
 32 53  1  0
 32 54  1  0
M  END
>  <score>  (9) 
-6.665

$$$$
