=
     RDKit          3D

112118  0  0  0  0  0  0  0  0999 V2000
    0.9240   57.8860   74.7450 C   0  0  2  0  0  0  0  0  0  0  0  0
   -0.5030   58.4250   74.7770 C   0  0  0  0  0  0  0  0  0  0  0  0
   -1.5350   57.6600   75.3410 C   0  0  0  0  0  0  0  0  0  0  0  0
   -2.8480   58.1500   75.3690 C   0  0  0  0  0  0  0  0  0  0  0  0
   -3.1440   59.4100   74.8570 C   0  0  0  0  0  0  0  0  0  0  0  0
   -2.0990   60.1960   74.3460 C   0  0  0  0  0  0  0  0  0  0  0  0
   -0.7870   59.6970   74.2390 C   0  0  0  0  0  0  0  0  0  0  0  0
    0.3380   60.3870   73.4830 C   0  0  2  0  0  0  0  0  0  0  0  0
    1.6220   60.3820   74.3180 C   0  0  0  0  0  0  0  0  0  0  0  0
    1.9580   59.0260   75.0000 C   0  0  1  0  0  0  0  0  0  0  0  0
   -4.5620   59.8540   74.8150 C   0  0  0  0  0  0  0  0  0  0  0  0
   -4.9160   60.6870   73.9900 O   0  0  0  0  0  0  0  0  0  0  0  0
   -5.5420   59.1870   75.7090 C   0  0  0  0  0  0  0  0  0  0  0  0
   -5.2270   57.9310   76.2320 C   0  0  0  0  0  0  0  0  0  0  0  0
   -3.9080   57.3250   75.9740 C   0  0  0  0  0  0  0  0  0  0  0  0
   -3.6800   56.1630   76.2870 O   0  0  0  0  0  0  0  0  0  0  0  0
   -6.1520   57.2320   77.0220 C   0  0  0  0  0  0  0  0  0  0  0  0
   -7.3930   57.7970   77.3040 C   0  0  0  0  0  0  0  0  0  0  0  0
   -7.7110   59.0600   76.8060 C   0  0  0  0  0  0  0  0  0  0  0  0
   -6.7900   59.7510   76.0130 C   0  0  0  0  0  0  0  0  0  0  0  0
    1.1790   57.1160   73.4540 C   0  0  0  0  0  0  0  0  0  0  0  0
    1.5180   57.6260   72.3940 O   0  0  0  0  0  0  0  0  0  0  0  0
    1.9300   55.1140   74.4210 C   0  0  0  0  0  0  0  0  0  0  0  0
    0.9420   55.7880   73.6400 O   0  0  0  0  0  0  0  0  0  0  0  0
    1.9580   59.2920   76.4270 O   0  0  0  0  0  0  0  0  0  0  0  0
    3.4250   58.6360   74.6840 C   0  0  0  0  0  0  0  0  0  0  0  0
    4.1170   59.5250   73.6550 C   0  0  0  0  0  0  0  0  0  0  0  0
   -2.3510   61.4960   74.0050 O   0  0  0  0  0  0  0  0  0  0  0  0
   -7.1190   61.0020   75.5710 O   0  0  0  0  0  0  0  0  0  0  0  0
    0.0300   61.7540   73.1520 O   0  0  0  0  0  0  0  0  0  0  0  0
    1.1360   62.4120   72.5180 C   0  0  2  0  0  0  0  0  0  0  0  0
    1.0560   63.8260   72.6600 O   0  0  0  0  0  0  0  0  0  0  0  0
    0.1380   64.4360   71.7520 C   0  0  1  0  0  0  0  0  0  0  0  0
   -0.1310   65.8530   72.2380 C   0  0  0  0  0  0  0  0  0  0  0  0
    0.6920   64.3710   70.3040 C   0  0  2  0  0  0  0  0  0  0  0  0
    1.5850   63.1070   70.1080 C   0  0  2  0  0  0  0  0  0  0  0  0
    1.1800   61.9840   71.0520 C   0  0  0  0  0  0  0  0  0  0  0  0
    3.0890   63.4070   70.1080 N   0  0  0  0  0  4  0  0  0  0  0  0
    3.9180   62.9060   71.2530 C   0  0  0  0  0  0  0  0  0  0  0  0
    3.7570   63.1620   68.7840 C   0  0  0  0  0  0  0  0  0  0  0  0
    1.3650   65.5870   69.9310 O   0  0  0  0  0  0  0  0  0  0  0  0
    0.9430   66.1220   68.6750 C   0  0  1  0  0  0  0  0  0  0  0  0
   -0.5270   66.5330   68.7780 C   0  0  0  0  0  0  0  0  0  0  0  0
   -0.8530   67.4740   67.6320 C   0  0  1  0  0  0  0  0  0  0  0  0
    0.0020   68.7590   67.7410 C   0  0  1  0  0  0  0  0  0  0  0  0
    1.2860   68.4960   68.5800 C   0  0  1  0  0  0  0  0  0  0  0  0
    1.8410   67.1910   68.3400 O   0  0  0  0  0  0  0  0  0  0  0  0
    2.3880   69.5180   68.3210 C   0  0  0  0  0  0  0  0  0  0  0  0
   -0.6010   66.7560   66.4230 O   0  0  0  0  0  0  0  0  0  0  0  0
    0.3430   69.3130   66.4620 O   0  0  0  0  0  0  0  0  0  0  0  0
    0.4430   68.3570   65.4100 C   0  0  1  0  0  0  0  0  0  0  0  0
   -0.1920   68.9630   64.1520 C   0  0  0  0  0  0  0  0  0  0  0  0
    0.3800   68.3440   62.8900 C   0  0  0  0  0  0  0  0  0  0  0  0
    1.8720   68.5850   62.8830 C   0  0  0  0  0  0  0  0  0  0  0  0
    2.5060   68.6370   61.8330 O   0  0  0  0  0  0  0  0  0  0  0  0
    2.5130   68.7600   64.2640 C   0  0  1  0  0  0  0  0  0  0  0  0
    1.8110   67.9800   65.2380 O   0  0  0  0  0  0  0  0  0  0  0  0
    3.9610   68.2950   64.2560 C   0  0  0  0  0  0  0  0  0  0  0  0
    1.0547   57.1672   75.5673 H   0  0  0  0  0  0  0  0  0  0  0  0
   -1.3123   56.6693   75.7640 H   0  0  0  0  0  0  0  0  0  0  0  0
    0.4705   59.8209   72.5492 H   0  0  0  0  0  0  0  0  0  0  0  0
    2.4599   60.6481   73.6568 H   0  0  0  0  0  0  0  0  0  0  0  0
    1.4614   61.1038   75.1324 H   0  0  0  0  0  0  0  0  0  0  0  0
   -5.8970   56.2381   77.4184 H   0  0  0  0  0  0  0  0  0  0  0  0
   -8.1214   57.2478   77.9187 H   0  0  0  0  0  0  0  0  0  0  0  0
   -8.6865   59.5127   77.0371 H   0  0  0  0  0  0  0  0  0  0  0  0
    1.7152   55.2605   75.4898 H   0  0  0  0  0  0  0  0  0  0  0  0
    1.9117   54.0393   74.1873 H   0  0  0  0  0  0  0  0  0  0  0  0
    2.9240   55.5232   74.1873 H   0  0  0  0  0  0  0  0  0  0  0  0
    2.8914   59.3525   76.7514 H   0  0  0  0  0  0  0  0  0  0  0  0
    4.0009   58.6841   75.6200 H   0  0  0  0  0  0  0  0  0  0  0  0
    3.3895   57.6272   74.2470 H   0  0  0  0  0  0  0  0  0  0  0  0
    4.7129   60.2906   74.1735 H   0  0  0  0  0  0  0  0  0  0  0  0
    4.7772   58.9110   73.0248 H   0  0  0  0  0  0  0  0  0  0  0  0
    3.3598   60.0144   73.0248 H   0  0  0  0  0  0  0  0  0  0  0  0
   -1.6242   62.0627   73.6434 H   0  0  0  0  0  0  0  0  0  0  0  0
   -8.0031   61.3886   75.7925 H   0  0  0  0  0  0  0  0  0  0  0  0
    2.0739   62.1129   73.0089 H   0  0  0  0  0  0  0  0  0  0  0  0
   -0.8210   63.8978   71.7264 H   0  0  0  0  0  0  0  0  0  0  0  0
   -0.1340   65.8690   73.3379 H   0  0  0  0  0  0  0  0  0  0  0  0
    0.6557   66.5246   71.8637 H   0  0  0  0  0  0  0  0  0  0  0  0
   -1.1091   66.1895   71.8637 H   0  0  0  0  0  0  0  0  0  0  0  0
   -0.1626   64.2751   69.6181 H   0  0  0  0  0  0  0  0  0  0  0  0
    1.3908   62.7409   69.0890 H   0  0  0  0  0  0  0  0  0  0  0  0
    0.1804   61.6280   70.7622 H   0  0  0  0  0  0  0  0  0  0  0  0
    1.9423   61.1957   70.9659 H   0  0  0  0  0  0  0  0  0  0  0  0
    3.0648   64.4222   70.2801 H   0  0  0  0  0  0  0  0  0  0  0  0
    3.4430   63.1930   72.2027 H   0  0  0  0  0  0  0  0  0  0  0  0
    3.9950   61.8101   71.1980 H   0  0  0  0  0  0  0  0  0  0  0  0
    4.9240   63.3474   71.1980 H   0  0  0  0  0  0  0  0  0  0  0  0
    4.7776   62.7877   68.9520 H   0  0  0  0  0  0  0  0  0  0  0  0
    3.1819   62.4163   68.2156 H   0  0  0  0  0  0  0  0  0  0  0  0
    3.8004   64.1027   68.2156 H   0  0  0  0  0  0  0  0  0  0  0  0
    0.9890   65.3886   67.8565 H   0  0  0  0  0  0  0  0  0  0  0  0
   -1.1659   65.6397   68.7161 H   0  0  0  0  0  0  0  0  0  0  0  0
   -0.7078   67.0372   69.7388 H   0  0  0  0  0  0  0  0  0  0  0  0
   -1.9036   67.7990   67.6554 H   0  0  0  0  0  0  0  0  0  0  0  0
   -0.6196   69.5063   68.2559 H   0  0  0  0  0  0  0  0  0  0  0  0
    0.9483   68.5773   69.6237 H   0  0  0  0  0  0  0  0  0  0  0  0
    2.7821   69.8835   69.2808 H   0  0  0  0  0  0  0  0  0  0  0  0
    3.1991   69.0453   67.7477 H   0  0  0  0  0  0  0  0  0  0  0  0
    1.9776   70.3624   67.7477 H   0  0  0  0  0  0  0  0  0  0  0  0
   -0.2812   65.8448   66.6409 H   0  0  0  0  0  0  0  0  0  0  0  0
   -0.1029   67.4310   65.6434 H   0  0  0  0  0  0  0  0  0  0  0  0
   -1.2772   68.7852   64.1777 H   0  0  0  0  0  0  0  0  0  0  0  0
    0.0267   70.0410   64.1387 H   0  0  0  0  0  0  0  0  0  0  0  0
    0.1770   67.2629   62.8799 H   0  0  0  0  0  0  0  0  0  0  0  0
   -0.0830   68.7959   62.0004 H   0  0  0  0  0  0  0  0  0  0  0  0
    2.4647   69.8300   64.5147 H   0  0  0  0  0  0  0  0  0  0  0  0
    4.3153   68.1812   65.2911 H   0  0  0  0  0  0  0  0  0  0  0  0
    4.0329   67.3286   63.7355 H   0  0  0  0  0  0  0  0  0  0  0  0
    4.5821   69.0389   63.7355 H   0  0  0  0  0  0  0  0  0  0  0  0
  2  1  1  0
  3  2  1  0
  4  3  2  0
  5  4  1  0
  6  5  2  0
  7  2  2  0
  7  6  1  0
  8  7  1  0
  9  8  1  0
 10  1  1  0
 10  9  1  0
 11  5  1  0
 12 11  2  0
 13 11  1  0
 14 13  2  0
 15 14  1  0
 15  4  1  0
 16 15  2  0
 17 14  1  0
 18 17  2  0
 19 18  1  0
 20 13  1  0
 20 19  2  0
 21  1  1  0
 22 21  2  0
 24 23  1  0
 24 21  1  0
 10 25  1  1
 26 10  1  0
 27 26  1  0
 28  6  1  0
 29 20  1  0
 30  8  1  0
 31 30  1  0
 32 31  1  0
 33 32  1  0
 34 33  1  0
 35 33  1  0
 36 35  1  0
 37 36  1  0
 37 31  1  0
 38 36  1  0
 39 38  1  0
 40 38  1  0
 41 35  1  0
 42 41  1  0
 43 42  1  0
 44 43  1  0
 45 44  1  0
 46 45  1  0
 47 46  1  0
 47 42  1  0
 48 46  1  0
 49 44  1  0
 50 45  1  0
 51 50  1  0
 52 51  1  0
 53 52  1  0
 54 53  1  0
 55 54  2  0
 56 54  1  0
 57 56  1  0
 57 51  1  0
 58 56  1  0
  1 59  1  1
  3 60  1  0
  8 61  1  6
  9 62  1  0
  9 63  1  0
 17 64  1  0
 18 65  1  0
 19 66  1  0
 23 67  1  0
 23 68  1  0
 23 69  1  0
 25 70  1  0
 26 71  1  0
 26 72  1  0
 27 73  1  0
 27 74  1  0
 27 75  1  0
 28 76  1  0
 29 77  1  0
 31 78  1  1
 33 79  1  6
 34 80  1  0
 34 81  1  0
 34 82  1  0
 35 83  1  6
 36 84  1  6
 37 85  1  0
 37 86  1  0
 38 87  1  0
 39 88  1  0
 39 89  1  0
 39 90  1  0
 40 91  1  0
 40 92  1  0
 40 93  1  0
 42 94  1  6
 43 95  1  0
 43 96  1  0
 44 97  1  6
 45 98  1  1
 46 99  1  1
 48100  1  0
 48101  1  0
 48102  1  0
 49103  1  0
 51104  1  1
 52105  1  0
 52106  1  0
 53107  1  0
 53108  1  0
 56109  1  1
 58110  1  0
 58111  1  0
 58112  1  0
M  CHG  1  38   1
M  END
>  <score>  (1) 
-9.859

$$$$
=
     RDKit          3D

112118  0  0  0  0  0  0  0  0999 V2000
    1.0590   56.1690   74.4890 C   0  0  2  0  0  0  0  0  0  0  0  0
    1.0640   57.5510   73.8410 C   0  0  0  0  0  0  0  0  0  0  0  0
    2.1170   57.9300   72.9960 C   0  0  0  0  0  0  0  0  0  0  0  0
    2.1290   59.2000   72.4020 C   0  0  0  0  0  0  0  0  0  0  0  0
    1.0860   60.0950   72.6250 C   0  0  0  0  0  0  0  0  0  0  0  0
    0.0060   59.6900   73.4260 C   0  0  0  0  0  0  0  0  0  0  0  0
    0.0080   58.4500   74.0920 C   0  0  0  0  0  0  0  0  0  0  0  0
   -0.9990   58.0430   75.1570 C   0  0  2  0  0  0  0  0  0  0  0  0
   -1.4960   56.6170   74.9030 C   0  0  0  0  0  0  0  0  0  0  0  0
   -0.3870   55.5870   74.5490 C   0  0  1  0  0  0  0  0  0  0  0  0
    1.1820   61.4650   72.0590 C   0  0  0  0  0  0  0  0  0  0  0  0
    0.5740   62.3880   72.5880 O   0  0  0  0  0  0  0  0  0  0  0  0
    2.1070   61.7020   70.9220 C   0  0  0  0  0  0  0  0  0  0  0  0
    3.1380   60.7880   70.6950 C   0  0  0  0  0  0  0  0  0  0  0  0
    3.2460   59.5660   71.5130 C   0  0  0  0  0  0  0  0  0  0  0  0
    4.2320   58.8440   71.4350 O   0  0  0  0  0  0  0  0  0  0  0  0
    4.0800   61.0090   69.6790 C   0  0  0  0  0  0  0  0  0  0  0  0
    3.9820   62.1410   68.8740 C   0  0  0  0  0  0  0  0  0  0  0  0
    2.9440   63.0490   69.0770 C   0  0  0  0  0  0  0  0  0  0  0  0
    2.0110   62.8310   70.0940 C   0  0  0  0  0  0  0  0  0  0  0  0
    1.7520   56.2080   75.8460 C   0  0  0  0  0  0  0  0  0  0  0  0
    1.2020   56.4930   76.9020 O   0  0  0  0  0  0  0  0  0  0  0  0
    3.9580   56.9060   76.2430 C   0  0  0  0  0  0  0  0  0  0  0  0
    3.0760   55.9170   75.7100 O   0  0  0  0  0  0  0  0  0  0  0  0
   -0.7090   55.1020   73.2190 O   0  0  0  0  0  0  0  0  0  0  0  0
   -0.5320   54.3380   75.4560 C   0  0  0  0  0  0  0  0  0  0  0  0
   -0.2500   53.0060   74.7650 C   0  0  0  0  0  0  0  0  0  0  0  0
   -1.0990   60.4920   73.5060 O   0  0  0  0  0  0  0  0  0  0  0  0
    0.9860   63.7220   70.2420 O   0  0  0  0  0  0  0  0  0  0  0  0
   -2.1460   58.9120   75.2000 O   0  0  0  0  0  0  0  0  0  0  0  0
   -2.3440   59.4700   76.5060 C   0  0  2  0  0  0  0  0  0  0  0  0
   -3.7090   59.4060   76.9020 O   0  0  0  0  0  0  0  0  0  0  0  0
   -4.5180   60.4270   76.3140 C   0  0  1  0  0  0  0  0  0  0  0  0
   -5.9770   60.0390   76.5090 C   0  0  0  0  0  0  0  0  0  0  0  0
   -4.1580   61.8100   76.9170 C   0  0  2  0  0  0  0  0  0  0  0  0
   -2.6570   61.8580   77.3380 C   0  0  2  0  0  0  0  0  0  0  0  0
   -1.8120   60.9030   76.5080 C   0  0  0  0  0  0  0  0  0  0  0  0
   -2.4360   61.7310   78.8500 N   0  0  0  0  0  4  0  0  0  0  0  0
   -1.4140   60.7490   79.3430 C   0  0  0  0  0  0  0  0  0  0  0  0
   -2.3310   63.0510   79.5620 C   0  0  0  0  0  0  0  0  0  0  0  0
   -5.0450   62.1780   77.9880 O   0  0  0  0  0  0  0  0  0  0  0  0
   -5.8200   63.3490   77.7240 C   0  0  1  0  0  0  0  0  0  0  0  0
   -5.3740   63.9510   76.3900 C   0  0  0  0  0  0  0  0  0  0  0  0
   -6.4480   64.9070   75.9020 C   0  0  1  0  0  0  0  0  0  0  0  0
   -7.7670   64.1390   75.6510 C   0  0  1  0  0  0  0  0  0  0  0  0
   -7.8020   62.8190   76.4760 C   0  0  1  0  0  0  0  0  0  0  0  0
   -7.2040   62.9680   77.7760 O   0  0  0  0  0  0  0  0  0  0  0  0
   -9.2130   62.2790   76.6790 C   0  0  0  0  0  0  0  0  0  0  0  0
   -6.5890   65.9160   76.9030 O   0  0  0  0  0  0  0  0  0  0  0  0
   -8.9340   64.9290   75.9220 O   0  0  0  0  0  0  0  0  0  0  0  0
   -9.7310   65.2190   74.7760 C   0  0  1  0  0  0  0  0  0  0  0  0
   -9.1320   66.4450   74.0750 C   0  0  0  0  0  0  0  0  0  0  0  0
   -9.4830   66.4650   72.5990 C   0  0  0  0  0  0  0  0  0  0  0  0
   -8.9500   65.1980   71.9710 C   0  0  0  0  0  0  0  0  0  0  0  0
   -8.6590   65.1500   70.7790 O   0  0  0  0  0  0  0  0  0  0  0  0
   -8.8010   64.0080   72.9240 C   0  0  1  0  0  0  0  0  0  0  0  0
   -9.8070   64.0610   73.9420 O   0  0  0  0  0  0  0  0  0  0  0  0
   -8.9640   62.6910   72.1820 C   0  0  0  0  0  0  0  0  0  0  0  0
    1.6412   55.4766   73.8632 H   0  0  0  0  0  0  0  0  0  0  0  0
    2.9390   57.2263   72.7979 H   0  0  0  0  0  0  0  0  0  0  0  0
   -0.4705   58.1121   76.1192 H   0  0  0  0  0  0  0  0  0  0  0  0
   -2.0085   56.2676   75.8114 H   0  0  0  0  0  0  0  0  0  0  0  0
   -2.1545   56.6735   74.0237 H   0  0  0  0  0  0  0  0  0  0  0  0
    4.8955   60.2885   69.5184 H   0  0  0  0  0  0  0  0  0  0  0  0
    4.7220   62.3183   68.0797 H   0  0  0  0  0  0  0  0  0  0  0  0
    2.8593   63.9386   68.4355 H   0  0  0  0  0  0  0  0  0  0  0  0
    3.9268   56.8711   77.3420 H   0  0  0  0  0  0  0  0  0  0  0  0
    4.9835   56.7065   75.8987 H   0  0  0  0  0  0  0  0  0  0  0  0
    3.6429   57.9021   75.8987 H   0  0  0  0  0  0  0  0  0  0  0  0
   -1.2551   54.2794   73.2910 H   0  0  0  0  0  0  0  0  0  0  0  0
    0.1701   54.4425   76.2963 H   0  0  0  0  0  0  0  0  0  0  0  0
   -1.5856   54.3056   75.7706 H   0  0  0  0  0  0  0  0  0  0  0  0
   -0.0851   52.2269   75.5239 H   0  0  0  0  0  0  0  0  0  0  0  0
   -1.1096   52.7297   74.1367 H   0  0  0  0  0  0  0  0  0  0  0  0
    0.6478   53.1017   74.1367 H   0  0  0  0  0  0  0  0  0  0  0  0
   -1.8684   60.2201   74.0665 H   0  0  0  0  0  0  0  0  0  0  0  0
    0.9298   64.5145   69.6513 H   0  0  0  0  0  0  0  0  0  0  0  0
   -1.7876   58.8783   77.2479 H   0  0  0  0  0  0  0  0  0  0  0  0
   -4.3314   60.5173   75.2337 H   0  0  0  0  0  0  0  0  0  0  0  0
   -6.2000   59.9797   77.5845 H   0  0  0  0  0  0  0  0  0  0  0  0
   -6.6235   60.7964   76.0417 H   0  0  0  0  0  0  0  0  0  0  0  0
   -6.1618   59.0605   76.0417 H   0  0  0  0  0  0  0  0  0  0  0  0
   -4.3005   62.5682   76.1329 H   0  0  0  0  0  0  0  0  0  0  0  0
   -2.2977   62.8712   77.1048 H   0  0  0  0  0  0  0  0  0  0  0  0
   -1.7894   61.2684   75.4707 H   0  0  0  0  0  0  0  0  0  0  0  0
   -0.8098   60.8776   76.9607 H   0  0  0  0  0  0  0  0  0  0  0  0
   -3.3235   61.2828   79.1191 H   0  0  0  0  0  0  0  0  0  0  0  0
   -1.4100   60.7451   80.4430 H   0  0  0  0  0  0  0  0  0  0  0  0
   -1.6637   59.7434   78.9737 H   0  0  0  0  0  0  0  0  0  0  0  0
   -0.4192   61.0387   78.9737 H   0  0  0  0  0  0  0  0  0  0  0  0
   -2.3443   62.8833   80.6491 H   0  0  0  0  0  0  0  0  0  0  0  0
   -1.3906   63.5465   79.2789 H   0  0  0  0  0  0  0  0  0  0  0  0
   -3.1812   63.6889   79.2789 H   0  0  0  0  0  0  0  0  0  0  0  0
   -5.6712   64.1425   78.4711 H   0  0  0  0  0  0  0  0  0  0  0  0
   -4.4286   64.4961   76.5279 H   0  0  0  0  0  0  0  0  0  0  0  0
   -5.2216   63.1508   75.6508 H   0  0  0  0  0  0  0  0  0  0  0  0
   -6.1761   65.3745   74.9441 H   0  0  0  0  0  0  0  0  0  0  0  0
   -7.7878   63.8964   74.5783 H   0  0  0  0  0  0  0  0  0  0  0  0
   -7.2208   62.1071   75.8716 H   0  0  0  0  0  0  0  0  0  0  0  0
   -9.4234   62.1985   77.7557 H   0  0  0  0  0  0  0  0  0  0  0  0
   -9.9379   62.9632   76.2139 H   0  0  0  0  0  0  0  0  0  0  0  0
   -9.2959   61.2856   76.2139 H   0  0  0  0  0  0  0  0  0  0  0  0
   -6.5310   65.5013   77.8001 H   0  0  0  0  0  0  0  0  0  0  0  0
  -10.7672   65.4670   75.0497 H   0  0  0  0  0  0  0  0  0  0  0  0
   -9.5258   67.3562   74.5489 H   0  0  0  0  0  0  0  0  0  0  0  0
   -8.0371   66.3976   74.1700 H   0  0  0  0  0  0  0  0  0  0  0  0
  -10.5752   66.5108   72.4763 H   0  0  0  0  0  0  0  0  0  0  0  0
   -9.0381   67.3464   72.1140 H   0  0  0  0  0  0  0  0  0  0  0  0
   -7.7957   64.0660   73.3667 H   0  0  0  0  0  0  0  0  0  0  0  0
   -9.0655   61.8711   72.9083 H   0  0  0  0  0  0  0  0  0  0  0  0
   -9.8636   62.7349   71.5505 H   0  0  0  0  0  0  0  0  0  0  0  0
   -8.0809   62.5142   71.5505 H   0  0  0  0  0  0  0  0  0  0  0  0
  2  1  1  0
  3  2  1  0
  4  3  2  0
  5  4  1  0
  6  5  2  0
  7  2  2  0
  7  6  1  0
  8  7  1  0
  9  8  1  0
 10  1  1  0
 10  9  1  0
 11  5  1  0
 12 11  2  0
 13 11  1  0
 14 13  2  0
 15 14  1  0
 15  4  1  0
 16 15  2  0
 17 14  1  0
 18 17  2  0
 19 18  1  0
 20 13  1  0
 20 19  2  0
 21  1  1  0
 22 21  2  0
 24 23  1  0
 24 21  1  0
 10 25  1  6
 26 10  1  0
 27 26  1  0
 28  6  1  0
 29 20  1  0
 30  8  1  0
 31 30  1  0
 32 31  1  0
 33 32  1  0
 34 33  1  0
 35 33  1  0
 36 35  1  0
 37 36  1  0
 37 31  1  0
 38 36  1  0
 39 38  1  0
 40 38  1  0
 41 35  1  0
 42 41  1  0
 43 42  1  0
 44 43  1  0
 45 44  1  0
 46 45  1  0
 47 46  1  0
 47 42  1  0
 48 46  1  0
 49 44  1  0
 50 45  1  0
 51 50  1  0
 52 51  1  0
 53 52  1  0
 54 53  1  0
 55 54  2  0
 56 54  1  0
 57 56  1  0
 57 51  1  0
 58 56  1  0
  1 59  1  6
  3 60  1  0
  8 61  1  1
  9 62  1  0
  9 63  1  0
 17 64  1  0
 18 65  1  0
 19 66  1  0
 23 67  1  0
 23 68  1  0
 23 69  1  0
 25 70  1  0
 26 71  1  0
 26 72  1  0
 27 73  1  0
 27 74  1  0
 27 75  1  0
 28 76  1  0
 29 77  1  0
 31 78  1  1
 33 79  1  6
 34 80  1  0
 34 81  1  0
 34 82  1  0
 35 83  1  6
 36 84  1  6
 37 85  1  0
 37 86  1  0
 38 87  1  0
 39 88  1  0
 39 89  1  0
 39 90  1  0
 40 91  1  0
 40 92  1  0
 40 93  1  0
 42 94  1  1
 43 95  1  0
 43 96  1  0
 44 97  1  6
 45 98  1  6
 46 99  1  6
 48100  1  0
 48101  1  0
 48102  1  0
 49103  1  0
 51104  1  1
 52105  1  0
 52106  1  0
 53107  1  0
 53108  1  0
 56109  1  1
 58110  1  0
 58111  1  0
 58112  1  0
M  CHG  1  38   1
M  END
>  <score>  (2) 
-9.547

$$$$
=
     RDKit          3D

112118  0  0  0  0  0  0  0  0999 V2000
    1.1210   55.9720   74.5740 C   0  0  2  0  0  0  0  0  0  0  0  0
    1.0400   57.3700   73.9670 C   0  0  0  0  0  0  0  0  0  0  0  0
    2.0820   57.8520   73.1620 C   0  0  0  0  0  0  0  0  0  0  0  0
    2.0140   59.1370   72.6060 C   0  0  0  0  0  0  0  0  0  0  0  0
    0.9030   59.9450   72.8280 C   0  0  0  0  0  0  0  0  0  0  0  0
   -0.1630   59.4380   73.5870 C   0  0  0  0  0  0  0  0  0  0  0  0
   -0.0860   58.1800   74.2170 C   0  0  0  0  0  0  0  0  0  0  0  0
   -1.0850   57.6680   75.2420 C   0  0  2  0  0  0  0  0  0  0  0  0
   -1.4690   56.2190   74.9330 C   0  0  0  0  0  0  0  0  0  0  0  0
   -0.2790   55.2830   74.5780 C   0  0  1  0  0  0  0  0  0  0  0  0
    0.9100   61.3360   72.3050 C   0  0  0  0  0  0  0  0  0  0  0  0
    0.2230   62.1950   72.8440 O   0  0  0  0  0  0  0  0  0  0  0  0
    1.8430   61.6760   71.2000 C   0  0  0  0  0  0  0  0  0  0  0  0
    2.9440   60.8470   70.9740 C   0  0  0  0  0  0  0  0  0  0  0  0
    3.1220   59.6120   71.7580 C   0  0  0  0  0  0  0  0  0  0  0  0
    4.1600   58.9660   71.6850 O   0  0  0  0  0  0  0  0  0  0  0  0
    3.8910   61.1680   69.9900 C   0  0  0  0  0  0  0  0  0  0  0  0
    3.7300   62.3150   69.2160 C   0  0  0  0  0  0  0  0  0  0  0  0
    2.6230   63.1380   69.4180 C   0  0  0  0  0  0  0  0  0  0  0  0
    1.6840   62.8200   70.4040 C   0  0  0  0  0  0  0  0  0  0  0  0
    1.7760   56.0190   75.9490 C   0  0  0  0  0  0  0  0  0  0  0  0
    1.1820   56.2300   76.9980 O   0  0  0  0  0  0  0  0  0  0  0  0
    3.9140   56.9100   76.3350 C   0  0  0  0  0  0  0  0  0  0  0  0
    3.1210   55.8300   75.8400 O   0  0  0  0  0  0  0  0  0  0  0  0
   -0.5320   54.8180   73.2270 O   0  0  0  0  0  0  0  0  0  0  0  0
   -0.3520   54.0000   75.4450 C   0  0  0  0  0  0  0  0  0  0  0  0
    0.3660   52.7880   74.8580 C   0  0  0  0  0  0  0  0  0  0  0  0
   -1.3260   60.1540   73.6620 O   0  0  0  0  0  0  0  0  0  0  0  0
    0.5920   63.6280   70.5500 O   0  0  0  0  0  0  0  0  0  0  0  0
   -2.2940   58.4490   75.2800 O   0  0  0  0  0  0  0  0  0  0  0  0
   -3.2900   57.8490   76.1200 C   0  0  2  0  0  0  0  0  0  0  0  0
   -4.4800   57.5560   75.3960 O   0  0  0  0  0  0  0  0  0  0  0  0
   -5.3100   58.7000   75.1830 C   0  0  1  0  0  0  0  0  0  0  0  0
   -6.3300   58.3450   74.1100 C   0  0  0  0  0  0  0  0  0  0  0  0
   -5.9500   59.1550   76.5210 C   0  0  2  0  0  0  0  0  0  0  0  0
   -5.0140   58.8230   77.7240 C   0  0  2  0  0  0  0  0  0  0  0  0
   -3.5530   58.7810   77.3030 C   0  0  0  0  0  0  0  0  0  0  0  0
   -5.4630   57.6010   78.5350 N   0  0  0  0  0  4  0  0  0  0  0  0
   -4.4840   56.4840   78.7470 C   0  0  0  0  0  0  0  0  0  0  0  0
   -6.1980   57.9470   79.8000 C   0  0  0  0  0  0  0  0  0  0  0  0
   -7.2770   58.6290   76.6900 O   0  0  0  0  0  0  0  0  0  0  0  0
   -8.2780   59.6290   76.8870 C   0  0  1  0  0  0  0  0  0  0  0  0
   -7.7130   60.7270   77.7890 C   0  0  0  0  0  0  0  0  0  0  0  0
   -8.5810   61.9660   77.6530 C   0  0  1  0  0  0  0  0  0  0  0  0
   -8.5360   62.4870   76.1970 C   0  0  1  0  0  0  0  0  0  0  0  0
   -8.1330   61.3480   75.2170 C   0  0  1  0  0  0  0  0  0  0  0  0
   -8.6970   60.0780   75.5880 O   0  0  0  0  0  0  0  0  0  0  0  0
   -8.5440   61.6280   73.7750 C   0  0  0  0  0  0  0  0  0  0  0  0
   -9.9000   61.5940   78.0560 O   0  0  0  0  0  0  0  0  0  0  0  0
   -9.7690   63.0930   75.7830 O   0  0  0  0  0  0  0  0  0  0  0  0
   -9.7170   64.5120   75.6560 C   0  0  1  0  0  0  0  0  0  0  0  0
   -8.6060   65.0340   76.5760 C   0  0  0  0  0  0  0  0  0  0  0  0
   -8.0630   66.3640   76.0870 C   0  0  0  0  0  0  0  0  0  0  0  0
   -7.5260   66.1680   74.6880 C   0  0  0  0  0  0  0  0  0  0  0  0
   -6.6360   66.8840   74.2390 O   0  0  0  0  0  0  0  0  0  0  0  0
   -8.1670   65.0240   73.8960 C   0  0  1  0  0  0  0  0  0  0  0  0
   -9.5370   64.8620   74.2820 O   0  0  0  0  0  0  0  0  0  0  0  0
   -8.1390   65.3110   72.4030 C   0  0  0  0  0  0  0  0  0  0  0  0
    1.7678   55.3441   73.9436 H   0  0  0  0  0  0  0  0  0  0  0  0
    2.9588   57.2174   72.9655 H   0  0  0  0  0  0  0  0  0  0  0  0
   -0.5865   57.7456   76.2195 H   0  0  0  0  0  0  0  0  0  0  0  0
   -1.9764   55.8050   75.8168 H   0  0  0  0  0  0  0  0  0  0  0  0
   -2.1079   56.2553   74.0383 H   0  0  0  0  0  0  0  0  0  0  0  0
    4.7607   60.5139   69.8296 H   0  0  0  0  0  0  0  0  0  0  0  0
    4.4743   62.5707   68.4475 H   0  0  0  0  0  0  0  0  0  0  0  0
    2.4881   64.0386   68.8010 H   0  0  0  0  0  0  0  0  0  0  0  0
    3.9049   56.8975   77.4349 H   0  0  0  0  0  0  0  0  0  0  0  0
    4.9479   56.8005   75.9757 H   0  0  0  0  0  0  0  0  0  0  0  0
    3.5000   57.8637   75.9757 H   0  0  0  0  0  0  0  0  0  0  0  0
   -1.0049   53.9489   73.2603 H   0  0  0  0  0  0  0  0  0  0  0  0
    0.0974   54.2228   76.4240 H   0  0  0  0  0  0  0  0  0  0  0  0
   -1.4163   53.7288   75.5070 H   0  0  0  0  0  0  0  0  0  0  0  0
    0.7418   52.1536   75.6743 H   0  0  0  0  0  0  0  0  0  0  0  0
   -0.3359   52.2106   74.2383 H   0  0  0  0  0  0  0  0  0  0  0  0
    1.2096   53.1262   74.2383 H   0  0  0  0  0  0  0  0  0  0  0  0
   -2.0864   59.8088   74.1937 H   0  0  0  0  0  0  0  0  0  0  0  0
    0.4920   64.4325   69.9817 H   0  0  0  0  0  0  0  0  0  0  0  0
   -2.9215   56.8833   76.4964 H   0  0  0  0  0  0  0  0  0  0  0  0
   -4.7261   59.5613   74.8262 H   0  0  0  0  0  0  0  0  0  0  0  0
   -7.2660   58.0192   74.5873 H   0  0  0  0  0  0  0  0  0  0  0  0
   -6.5257   59.2279   73.4837 H   0  0  0  0  0  0  0  0  0  0  0  0
   -5.9353   57.5314   73.4837 H   0  0  0  0  0  0  0  0  0  0  0  0
   -6.0621   60.2488   76.4880 H   0  0  0  0  0  0  0  0  0  0  0  0
   -5.1066   59.6585   78.4334 H   0  0  0  0  0  0  0  0  0  0  0  0
   -3.2414   59.7979   77.0221 H   0  0  0  0  0  0  0  0  0  0  0  0
   -2.9793   58.3922   78.1573 H   0  0  0  0  0  0  0  0  0  0  0  0
   -6.1317   57.1872   77.8698 H   0  0  0  0  0  0  0  0  0  0  0  0
   -4.3413   56.3212   79.8255 H   0  0  0  0  0  0  0  0  0  0  0  0
   -4.8719   55.5639   78.2855 H   0  0  0  0  0  0  0  0  0  0  0  0
   -3.5210   56.7479   78.2855 H   0  0  0  0  0  0  0  0  0  0  0  0
   -5.5877   57.6597   80.6689 H   0  0  0  0  0  0  0  0  0  0  0  0
   -6.3895   59.0298   79.8283 H   0  0  0  0  0  0  0  0  0  0  0  0
   -7.1546   57.4046   79.8283 H   0  0  0  0  0  0  0  0  0  0  0  0
   -9.1710   59.2499   77.4055 H   0  0  0  0  0  0  0  0  0  0  0  0
   -7.7173   60.3854   78.8346 H   0  0  0  0  0  0  0  0  0  0  0  0
   -6.6796   60.9598   77.4925 H   0  0  0  0  0  0  0  0  0  0  0  0
   -8.2214   62.7896   78.2873 H   0  0  0  0  0  0  0  0  0  0  0  0
   -7.7690   63.2750   76.1694 H   0  0  0  0  0  0  0  0  0  0  0  0
   -7.0358   61.3090   75.2855 H   0  0  0  0  0  0  0  0  0  0  0  0
   -9.4531   62.2473   73.7665 H   0  0  0  0  0  0  0  0  0  0  0  0
   -7.7320   62.1616   73.2593 H   0  0  0  0  0  0  0  0  0  0  0  0
   -8.7433   60.6770   73.2593 H   0  0  0  0  0  0  0  0  0  0  0  0
   -9.9513   61.5795   79.0446 H   0  0  0  0  0  0  0  0  0  0  0  0
  -10.6581   64.9864   75.9712 H   0  0  0  0  0  0  0  0  0  0  0  0
   -9.0123   65.1641   77.5899 H   0  0  0  0  0  0  0  0  0  0  0  0
   -7.7841   64.3030   76.5763 H   0  0  0  0  0  0  0  0  0  0  0  0
   -8.8681   67.1135   76.0754 H   0  0  0  0  0  0  0  0  0  0  0  0
   -7.2638   66.7174   76.7552 H   0  0  0  0  0  0  0  0  0  0  0  0
   -7.5910   64.1122   74.1126 H   0  0  0  0  0  0  0  0  0  0  0  0
   -8.0334   66.3937   72.2397 H   0  0  0  0  0  0  0  0  0  0  0  0
   -7.2878   64.7863   71.9446 H   0  0  0  0  0  0  0  0  0  0  0  0
   -9.0756   64.9607   71.9446 H   0  0  0  0  0  0  0  0  0  0  0  0
  2  1  1  0
  3  2  1  0
  4  3  2  0
  5  4  1  0
  6  5  2  0
  7  2  2  0
  7  6  1  0
  8  7  1  0
  9  8  1  0
 10  1  1  0
 10  9  1  0
 11  5  1  0
 12 11  2  0
 13 11  1  0
 14 13  2  0
 15 14  1  0
 15  4  1  0
 16 15  2  0
 17 14  1  0
 18 17  2  0
 19 18  1  0
 20 13  1  0
 20 19  2  0
 21  1  1  0
 22 21  2  0
 24 23  1  0
 24 21  1  0
 10 25  1  6
 26 10  1  0
 27 26  1  0
 28  6  1  0
 29 20  1  0
 30  8  1  0
 31 30  1  0
 32 31  1  0
 33 32  1  0
 34 33  1  0
 35 33  1  0
 36 35  1  0
 37 36  1  0
 37 31  1  0
 38 36  1  0
 39 38  1  0
 40 38  1  0
 41 35  1  0
 42 41  1  0
 43 42  1  0
 44 43  1  0
 45 44  1  0
 46 45  1  0
 47 46  1  0
 47 42  1  0
 48 46  1  0
 49 44  1  0
 50 45  1  0
 51 50  1  0
 52 51  1  0
 53 52  1  0
 54 53  1  0
 55 54  2  0
 56 54  1  0
 57 56  1  0
 57 51  1  0
 58 56  1  0
  1 59  1  6
  3 60  1  0
  8 61  1  1
  9 62  1  0
  9 63  1  0
 17 64  1  0
 18 65  1  0
 19 66  1  0
 23 67  1  0
 23 68  1  0
 23 69  1  0
 25 70  1  0
 26 71  1  0
 26 72  1  0
 27 73  1  0
 27 74  1  0
 27 75  1  0
 28 76  1  0
 29 77  1  0
 31 78  1  1
 33 79  1  6
 34 80  1  0
 34 81  1  0
 34 82  1  0
 35 83  1  6
 36 84  1  1
 37 85  1  0
 37 86  1  0
 38 87  1  0
 39 88  1  0
 39 89  1  0
 39 90  1  0
 40 91  1  0
 40 92  1  0
 40 93  1  0
 42 94  1  1
 43 95  1  0
 43 96  1  0
 44 97  1  1
 45 98  1  1
 46 99  1  6
 48100  1  0
 48101  1  0
 48102  1  0
 49103  1  0
 51104  1  1
 52105  1  0
 52106  1  0
 53107  1  0
 53108  1  0
 56109  1  6
 58110  1  0
 58111  1  0
 58112  1  0
M  CHG  1  38   1
M  END
>  <score>  (3) 
-9.527

$$$$
=
     RDKit          3D

112118  0  0  0  0  0  0  0  0999 V2000
   -7.4260   59.0350   76.8840 C   0  0  2  0  0  0  0  0  0  0  0  0
   -7.2550   60.4540   76.3490 C   0  0  0  0  0  0  0  0  0  0  0  0
   -7.8960   60.8440   75.1640 C   0  0  0  0  0  0  0  0  0  0  0  0
   -7.7380   62.1460   74.6670 C   0  0  0  0  0  0  0  0  0  0  0  0
   -6.9600   63.0750   75.3520 C   0  0  0  0  0  0  0  0  0  0  0  0
   -6.3680   62.6970   76.5680 C   0  0  0  0  0  0  0  0  0  0  0  0
   -6.4500   61.3760   77.0490 C   0  0  0  0  0  0  0  0  0  0  0  0
   -5.6440   60.8330   78.2180 C   0  0  2  0  0  0  0  0  0  0  0  0
   -6.5430   60.0200   79.1530 C   0  0  0  0  0  0  0  0  0  0  0  0
   -7.5090   59.0320   78.4420 C   0  0  1  0  0  0  0  0  0  0  0  0
   -6.7360   64.4120   74.7440 C   0  0  0  0  0  0  0  0  0  0  0  0
   -5.7370   65.0570   75.0380 O   0  0  0  0  0  0  0  0  0  0  0  0
   -7.6830   64.8880   73.7030 C   0  0  0  0  0  0  0  0  0  0  0  0
   -8.4720   63.9490   73.0350 C   0  0  0  0  0  0  0  0  0  0  0  0
   -8.4290   62.5270   73.4230 C   0  0  0  0  0  0  0  0  0  0  0  0
   -8.9880   61.6740   72.7440 O   0  0  0  0  0  0  0  0  0  0  0  0
   -9.3260   64.3420   71.9950 C   0  0  0  0  0  0  0  0  0  0  0  0
   -9.4060   65.6840   71.6290 C   0  0  0  0  0  0  0  0  0  0  0  0
   -8.6400   66.6330   72.3040 C   0  0  0  0  0  0  0  0  0  0  0  0
   -7.7840   66.2380   73.3350 C   0  0  0  0  0  0  0  0  0  0  0  0
   -6.3400   58.1180   76.3340 C   0  0  0  0  0  0  0  0  0  0  0  0
   -5.1810   58.0950   76.7290 O   0  0  0  0  0  0  0  0  0  0  0  0
   -6.3530   57.7130   74.0220 C   0  0  0  0  0  0  0  0  0  0  0  0
   -6.8330   57.3550   75.3190 O   0  0  0  0  0  0  0  0  0  0  0  0
   -8.8480   59.4620   78.8000 O   0  0  0  0  0  0  0  0  0  0  0  0
   -7.3750   57.6260   79.0820 C   0  0  0  0  0  0  0  0  0  0  0  0
   -6.2510   57.4910   80.1050 C   0  0  0  0  0  0  0  0  0  0  0  0
   -5.7520   63.6510   77.3310 O   0  0  0  0  0  0  0  0  0  0  0  0
   -7.0750   67.1980   74.0000 O   0  0  0  0  0  0  0  0  0  0  0  0
   -5.0210   61.8730   78.9950 O   0  0  0  0  0  0  0  0  0  0  0  0
   -3.5910   61.7570   78.9910 C   0  0  2  0  0  0  0  0  0  0  0  0
   -2.9690   62.9540   78.5370 O   0  0  0  0  0  0  0  0  0  0  0  0
   -2.9880   63.1000   77.1160 C   0  0  1  0  0  0  0  0  0  0  0  0
   -2.6430   64.5450   76.7880 C   0  0  0  0  0  0  0  0  0  0  0  0
   -2.0320   62.0690   76.4590 C   0  0  2  0  0  0  0  0  0  0  0  0
   -1.9390   60.7710   77.3190 C   0  0  2  0  0  0  0  0  0  0  0  0
   -3.2030   60.5500   78.1370 C   0  0  0  0  0  0  0  0  0  0  0  0
   -0.6440   60.6620   78.1340 N   0  0  0  0  0  4  0  0  0  0  0  0
   -0.7330   60.2040   79.5600 C   0  0  0  0  0  0  0  0  0  0  0  0
    0.4810   59.9890   77.3990 C   0  0  0  0  0  0  0  0  0  0  0  0
   -0.7420   62.6380   76.1740 O   0  0  0  0  0  0  0  0  0  0  0  0
   -0.5760   63.0520   74.8160 C   0  0  1  0  0  0  0  0  0  0  0  0
    0.6730   63.9290   74.7120 C   0  0  0  0  0  0  0  0  0  0  0  0
    1.0930   64.0100   73.2560 C   0  0  1  0  0  0  0  0  0  0  0  0
    1.4650   62.6020   72.7320 C   0  0  1  0  0  0  0  0  0  0  0  0
    0.7830   61.4980   73.5910 C   0  0  1  0  0  0  0  0  0  0  0  0
   -0.5430   61.8650   74.0070 O   0  0  0  0  0  0  0  0  0  0  0  0
    0.6840   60.1580   72.8700 C   0  0  0  0  0  0  0  0  0  0  0  0
   -0.0030   64.5840   72.5400 O   0  0  0  0  0  0  0  0  0  0  0  0
    1.1510   62.4220   71.3430 O   0  0  0  0  0  0  0  0  0  0  0  0
    2.2800   62.4520   70.4730 C   0  0  1  0  0  0  0  0  0  0  0  0
    3.4370   63.1330   71.2150 C   0  0  0  0  0  0  0  0  0  0  0  0
    4.7820   62.6860   70.6720 C   0  0  0  0  0  0  0  0  0  0  0  0
    4.8780   61.1860   70.8300 C   0  0  0  0  0  0  0  0  0  0  0  0
    5.9640   60.6230   70.9340 O   0  0  0  0  0  0  0  0  0  0  0  0
    3.5380   60.4440   70.8550 C   0  0  1  0  0  0  0  0  0  0  0  0
    2.5800   61.1250   70.0360 O   0  0  0  0  0  0  0  0  0  0  0  0
    3.6870   59.0300   70.3130 C   0  0  0  0  0  0  0  0  0  0  0  0
   -8.3844   58.6297   76.5273 H   0  0  0  0  0  0  0  0  0  0  0  0
   -8.5264   60.1244   74.6211 H   0  0  0  0  0  0  0  0  0  0  0  0
   -4.8566   60.2025   77.7794 H   0  0  0  0  0  0  0  0  0  0  0  0
   -5.8968   59.4392   79.8276 H   0  0  0  0  0  0  0  0  0  0  0  0
   -7.1796   60.7483   79.6768 H   0  0  0  0  0  0  0  0  0  0  0  0
   -9.9328   63.5910   71.4680 H   0  0  0  0  0  0  0  0  0  0  0  0
  -10.0716   65.9937   70.8098 H   0  0  0  0  0  0  0  0  0  0  0  0
   -8.7096   67.6946   72.0244 H   0  0  0  0  0  0  0  0  0  0  0  0
   -5.4750   58.3678   74.1238 H   0  0  0  0  0  0  0  0  0  0  0  0
   -6.0702   56.8035   73.4717 H   0  0  0  0  0  0  0  0  0  0  0  0
   -7.1442   58.2434   73.4717 H   0  0  0  0  0  0  0  0  0  0  0  0
   -8.9333   59.4894   79.7859 H   0  0  0  0  0  0  0  0  0  0  0  0
   -8.3243   57.3869   79.5836 H   0  0  0  0  0  0  0  0  0  0  0  0
   -7.1304   56.9353   78.2616 H   0  0  0  0  0  0  0  0  0  0  0  0
   -6.6713   57.5415   81.1203 H   0  0  0  0  0  0  0  0  0  0  0  0
   -5.7428   56.5254   79.9661 H   0  0  0  0  0  0  0  0  0  0  0  0
   -5.5286   58.3088   79.9661 H   0  0  0  0  0  0  0  0  0  0  0  0
   -5.3299   63.4007   78.1908 H   0  0  0  0  0  0  0  0  0  0  0  0
   -7.1545   68.1475   73.7311 H   0  0  0  0  0  0  0  0  0  0  0  0
   -3.2316   61.6016   80.0189 H   0  0  0  0  0  0  0  0  0  0  0  0
   -3.9845   62.8867   76.7019 H   0  0  0  0  0  0  0  0  0  0  0  0
   -2.5079   65.1107   77.7217 H   0  0  0  0  0  0  0  0  0  0  0  0
   -1.7122   64.5759   76.2026 H   0  0  0  0  0  0  0  0  0  0  0  0
   -3.4594   64.9931   76.2026 H   0  0  0  0  0  0  0  0  0  0  0  0
   -2.4585   61.7836   75.4860 H   0  0  0  0  0  0  0  0  0  0  0  0
   -1.8761   59.9302   76.6125 H   0  0  0  0  0  0  0  0  0  0  0  0
   -4.0310   60.3301   77.4471 H   0  0  0  0  0  0  0  0  0  0  0  0
   -3.0032   59.7155   78.8252 H   0  0  0  0  0  0  0  0  0  0  0  0
   -0.4169   61.6614   78.2365 H   0  0  0  0  0  0  0  0  0  0  0  0
   -0.5667   61.0596   80.2310 H   0  0  0  0  0  0  0  0  0  0  0  0
   -1.7304   59.7796   79.7472 H   0  0  0  0  0  0  0  0  0  0  0  0
    0.0329   59.4370   79.7472 H   0  0  0  0  0  0  0  0  0  0  0  0
    1.1907   59.5644   78.1243 H   0  0  0  0  0  0  0  0  0  0  0  0
    0.0768   59.1842   76.7674 H   0  0  0  0  0  0  0  0  0  0  0  0
    0.9989   60.7258   76.7674 H   0  0  0  0  0  0  0  0  0  0  0  0
   -1.4059   63.6743   74.4500 H   0  0  0  0  0  0  0  0  0  0  0  0
    0.4490   64.9378   75.0889 H   0  0  0  0  0  0  0  0  0  0  0  0
    1.4861   63.4946   75.3122 H   0  0  0  0  0  0  0  0  0  0  0  0
    1.9878   64.6357   73.1223 H   0  0  0  0  0  0  0  0  0  0  0  0
    2.5572   62.5108   72.8259 H   0  0  0  0  0  0  0  0  0  0  0  0
    1.4383   61.3954   74.4685 H   0  0  0  0  0  0  0  0  0  0  0  0
    0.6241   59.3468   73.6105 H   0  0  0  0  0  0  0  0  0  0  0  0
   -0.2174   60.1465   72.2397 H   0  0  0  0  0  0  0  0  0  0  0  0
    1.5740   60.0141   72.2397 H   0  0  0  0  0  0  0  0  0  0  0  0
   -0.6702   64.9334   73.1826 H   0  0  0  0  0  0  0  0  0  0  0  0
    2.0810   63.0363   69.5625 H   0  0  0  0  0  0  0  0  0  0  0  0
    3.3469   64.2228   71.0953 H   0  0  0  0  0  0  0  0  0  0  0  0
    3.3811   62.8512   72.2768 H   0  0  0  0  0  0  0  0  0  0  0  0
    4.8625   62.9546   69.6083 H   0  0  0  0  0  0  0  0  0  0  0  0
    5.5974   63.1797   71.2210 H   0  0  0  0  0  0  0  0  0  0  0  0
    3.2011   60.4102   71.9016 H   0  0  0  0  0  0  0  0  0  0  0  0
    3.7616   58.3219   71.1515 H   0  0  0  0  0  0  0  0  0  0  0  0
    2.8103   58.7788   69.6979 H   0  0  0  0  0  0  0  0  0  0  0  0
    4.5967   58.9671   69.6979 H   0  0  0  0  0  0  0  0  0  0  0  0
  2  1  1  0
  3  2  1  0
  4  3  2  0
  5  4  1  0
  6  5  2  0
  7  2  2  0
  7  6  1  0
  8  7  1  0
  9  8  1  0
 10  1  1  0
 10  9  1  0
 11  5  1  0
 12 11  2  0
 13 11  1  0
 14 13  2  0
 15 14  1  0
 15  4  1  0
 16 15  2  0
 17 14  1  0
 18 17  2  0
 19 18  1  0
 20 13  1  0
 20 19  2  0
 21  1  1  0
 22 21  2  0
 24 23  1  0
 24 21  1  0
 10 25  1  6
 26 10  1  0
 27 26  1  0
 28  6  1  0
 29 20  1  0
 30  8  1  0
 31 30  1  0
 32 31  1  0
 33 32  1  0
 34 33  1  0
 35 33  1  0
 36 35  1  0
 37 36  1  0
 37 31  1  0
 38 36  1  0
 39 38  1  0
 40 38  1  0
 41 35  1  0
 42 41  1  0
 43 42  1  0
 44 43  1  0
 45 44  1  0
 46 45  1  0
 47 46  1  0
 47 42  1  0
 48 46  1  0
 49 44  1  0
 50 45  1  0
 51 50  1  0
 52 51  1  0
 53 52  1  0
 54 53  1  0
 55 54  2  0
 56 54  1  0
 57 56  1  0
 57 51  1  0
 58 56  1  0
  1 59  1  6
  3 60  1  0
  8 61  1  6
  9 62  1  0
  9 63  1  0
 17 64  1  0
 18 65  1  0
 19 66  1  0
 23 67  1  0
 23 68  1  0
 23 69  1  0
 25 70  1  0
 26 71  1  0
 26 72  1  0
 27 73  1  0
 27 74  1  0
 27 75  1  0
 28 76  1  0
 29 77  1  0
 31 78  1  1
 33 79  1  6
 34 80  1  0
 34 81  1  0
 34 82  1  0
 35 83  1  6
 36 84  1  6
 37 85  1  0
 37 86  1  0
 38 87  1  0
 39 88  1  0
 39 89  1  0
 39 90  1  0
 40 91  1  0
 40 92  1  0
 40 93  1  0
 42 94  1  6
 43 95  1  0
 43 96  1  0
 44 97  1  1
 45 98  1  6
 46 99  1  1
 48100  1  0
 48101  1  0
 48102  1  0
 49103  1  0
 51104  1  6
 52105  1  0
 52106  1  0
 53107  1  0
 53108  1  0
 56109  1  1
 58110  1  0
 58111  1  0
 58112  1  0
M  CHG  1  38   1
M  END
>  <score>  (4) 
-9.058

$$$$
=
     RDKit          3D

112118  0  0  0  0  0  0  0  0999 V2000
   -1.2380   54.4820   76.8640 C   0  0  2  0  0  0  0  0  0  0  0  0
   -2.3270   55.5350   76.6800 C   0  0  0  0  0  0  0  0  0  0  0  0
   -3.4720   55.5160   77.4890 C   0  0  0  0  0  0  0  0  0  0  0  0
   -4.4760   56.4790   77.3220 C   0  0  0  0  0  0  0  0  0  0  0  0
   -4.3430   57.4810   76.3640 C   0  0  0  0  0  0  0  0  0  0  0  0
   -3.1690   57.5310   75.5960 C   0  0  0  0  0  0  0  0  0  0  0  0
   -2.1810   56.5320   75.6940 C   0  0  0  0  0  0  0  0  0  0  0  0
   -1.0090   56.3830   74.7370 C   0  0  2  0  0  0  0  0  0  0  0  0
    0.2870   56.1420   75.5160 C   0  0  0  0  0  0  0  0  0  0  0  0
    0.1800   55.1040   76.6670 C   0  0  1  0  0  0  0  0  0  0  0  0
   -5.4710   58.4240   76.1480 C   0  0  0  0  0  0  0  0  0  0  0  0
   -5.6020   58.9810   75.0650 O   0  0  0  0  0  0  0  0  0  0  0  0
   -6.4820   58.5820   77.2250 C   0  0  0  0  0  0  0  0  0  0  0  0
   -6.5940   57.5800   78.1920 C   0  0  0  0  0  0  0  0  0  0  0  0
   -5.6650   56.4360   78.1920 C   0  0  0  0  0  0  0  0  0  0  0  0
   -5.8530   55.4750   78.9270 O   0  0  0  0  0  0  0  0  0  0  0  0
   -7.5820   57.6510   79.1850 C   0  0  0  0  0  0  0  0  0  0  0  0
   -8.4530   58.7380   79.2230 C   0  0  0  0  0  0  0  0  0  0  0  0
   -8.3360   59.7550   78.2770 C   0  0  0  0  0  0  0  0  0  0  0  0
   -7.3550   59.6780   77.2840 C   0  0  0  0  0  0  0  0  0  0  0  0
   -1.4990   53.2770   75.9680 C   0  0  0  0  0  0  0  0  0  0  0  0
   -1.2640   53.2360   74.7670 O   0  0  0  0  0  0  0  0  0  0  0  0
   -3.3850   51.9130   76.2740 C   0  0  0  0  0  0  0  0  0  0  0  0
   -2.0630   52.2660   76.6860 O   0  0  0  0  0  0  0  0  0  0  0  0
    0.5010   55.8280   77.8830 O   0  0  0  0  0  0  0  0  0  0  0  0
    1.3180   54.0600   76.5320 C   0  0  0  0  0  0  0  0  0  0  0  0
    2.0890   54.1190   75.2160 C   0  0  0  0  0  0  0  0  0  0  0  0
   -2.9540   58.6090   74.7810 O   0  0  0  0  0  0  0  0  0  0  0  0
   -7.2450   60.7090   76.3950 O   0  0  0  0  0  0  0  0  0  0  0  0
   -0.8180   57.5430   73.9060 O   0  0  0  0  0  0  0  0  0  0  0  0
    0.3810   58.2520   74.2470 C   0  0  2  0  0  0  0  0  0  0  0  0
    0.1010   59.5790   74.6770 O   0  0  0  0  0  0  0  0  0  0  0  0
   -0.1580   60.4820   73.6000 C   0  0  1  0  0  0  0  0  0  0  0  0
   -0.7920   61.7370   74.1820 C   0  0  0  0  0  0  0  0  0  0  0  0
    1.1470   60.7580   72.8070 C   0  0  2  0  0  0  0  0  0  0  0  0
    2.0970   59.5210   72.8540 C   0  0  2  0  0  0  0  0  0  0  0  0
    1.3210   58.2260   73.0420 C   0  0  0  0  0  0  0  0  0  0  0  0
    3.2760   59.6860   73.8210 N   0  0  0  0  0  4  0  0  0  0  0  0
    3.5630   58.5810   74.7940 C   0  0  0  0  0  0  0  0  0  0  0  0
    4.5300   60.1960   73.1690 C   0  0  0  0  0  0  0  0  0  0  0  0
    1.7930   61.9690   73.2360 O   0  0  0  0  0  0  0  0  0  0  0  0
    2.0670   62.8880   72.1770 C   0  0  1  0  0  0  0  0  0  0  0  0
    1.5440   62.3040   70.8630 C   0  0  0  0  0  0  0  0  0  0  0  0
    1.4370   63.4200   69.8400 C   0  0  1  0  0  0  0  0  0  0  0  0
    0.4170   64.4810   70.3180 C   0  0  1  0  0  0  0  0  0  0  0  0
    0.2480   64.4240   71.8640 C   0  0  1  0  0  0  0  0  0  0  0  0
    1.4860   64.1500   72.5430 O   0  0  0  0  0  0  0  0  0  0  0  0
   -0.3210   65.7120   72.4500 C   0  0  0  0  0  0  0  0  0  0  0  0
    2.7490   63.9620   69.6790 O   0  0  0  0  0  0  0  0  0  0  0  0
    0.7580   65.8110   69.9000 O   0  0  0  0  0  0  0  0  0  0  0  0
    0.3890   66.1220   68.5580 C   0  0  1  0  0  0  0  0  0  0  0  0
   -1.0770   66.5740   68.5590 C   0  0  0  0  0  0  0  0  0  0  0  0
   -1.3780   67.4770   67.3770 C   0  0  0  0  0  0  0  0  0  0  0  0
   -0.4660   68.6790   67.4600 C   0  0  0  0  0  0  0  0  0  0  0  0
   -0.7830   69.7570   66.9620 O   0  0  0  0  0  0  0  0  0  0  0  0
    0.8530   68.4500   68.2030 C   0  0  1  0  0  0  0  0  0  0  0  0
    1.2900   67.0970   68.0300 O   0  0  0  0  0  0  0  0  0  0  0  0
    1.9480   69.3610   67.6680 C   0  0  0  0  0  0  0  0  0  0  0  0
   -1.2672   54.1123   77.8996 H   0  0  0  0  0  0  0  0  0  0  0  0
   -3.5829   54.7396   78.2603 H   0  0  0  0  0  0  0  0  0  0  0  0
   -1.2484   55.5248   74.0919 H   0  0  0  0  0  0  0  0  0  0  0  0
    1.0499   55.7876   74.8072 H   0  0  0  0  0  0  0  0  0  0  0  0
    0.5423   57.1009   75.9906 H   0  0  0  0  0  0  0  0  0  0  0  0
   -7.6692   56.8493   79.9331 H   0  0  0  0  0  0  0  0  0  0  0  0
   -9.2315   58.7934   79.9981 H   0  0  0  0  0  0  0  0  0  0  0  0
   -9.0161   60.6189   78.3118 H   0  0  0  0  0  0  0  0  0  0  0  0
   -4.0131   51.7453   77.1613 H   0  0  0  0  0  0  0  0  0  0  0  0
   -3.8115   52.7287   75.6718 H   0  0  0  0  0  0  0  0  0  0  0  0
   -3.3481   50.9932   75.6718 H   0  0  0  0  0  0  0  0  0  0  0  0
    0.2570   55.2776   78.6689 H   0  0  0  0  0  0  0  0  0  0  0  0
    2.0309   54.2229   77.3537 H   0  0  0  0  0  0  0  0  0  0  0  0
    0.8364   53.0716   76.5643 H   0  0  0  0  0  0  0  0  0  0  0  0
    3.1658   54.2014   75.4253 H   0  0  0  0  0  0  0  0  0  0  0  0
    1.8970   53.2035   74.6372 H   0  0  0  0  0  0  0  0  0  0  0  0
    1.7599   54.9946   74.6372 H   0  0  0  0  0  0  0  0  0  0  0  0
   -2.1309   58.6590   74.2331 H   0  0  0  0  0  0  0  0  0  0  0  0
   -7.8678   61.4767   76.4478 H   0  0  0  0  0  0  0  0  0  0  0  0
    0.8721   57.7569   75.0977 H   0  0  0  0  0  0  0  0  0  0  0  0
   -0.8622   60.0509   72.8732 H   0  0  0  0  0  0  0  0  0  0  0  0
   -0.7659   61.6854   75.2805 H   0  0  0  0  0  0  0  0  0  0  0  0
   -0.2325   62.6214   73.8431 H   0  0  0  0  0  0  0  0  0  0  0  0
   -1.8358   61.8114   73.8431 H   0  0  0  0  0  0  0  0  0  0  0  0
    0.8746   60.9192   71.7535 H   0  0  0  0  0  0  0  0  0  0  0  0
    2.5751   59.4539   71.8656 H   0  0  0  0  0  0  0  0  0  0  0  0
    0.7230   58.0431   72.1370 H   0  0  0  0  0  0  0  0  0  0  0  0
    2.0575   57.4288   73.2213 H   0  0  0  0  0  0  0  0  0  0  0  0
    2.8990   60.4259   74.4304 H   0  0  0  0  0  0  0  0  0  0  0  0
    3.4640   58.9620   75.8212 H   0  0  0  0  0  0  0  0  0  0  0  0
    2.8484   57.7596   74.6372 H   0  0  0  0  0  0  0  0  0  0  0  0
    4.5870   58.2111   74.6372 H   0  0  0  0  0  0  0  0  0  0  0  0
    5.2529   60.4900   73.9443 H   0  0  0  0  0  0  0  0  0  0  0  0
    4.9659   59.4037   72.5427 H   0  0  0  0  0  0  0  0  0  0  0  0
    4.2892   61.0677   72.5427 H   0  0  0  0  0  0  0  0  0  0  0  0
    3.1426   63.0560   72.0196 H   0  0  0  0  0  0  0  0  0  0  0  0
    2.2392   61.5335   70.4982 H   0  0  0  0  0  0  0  0  0  0  0  0
    0.5558   61.8483   71.0237 H   0  0  0  0  0  0  0  0  0  0  0  0
    1.0697   63.0527   68.8704 H   0  0  0  0  0  0  0  0  0  0  0  0
   -0.5418   64.2323   69.8396 H   0  0  0  0  0  0  0  0  0  0  0  0
   -0.4629   63.6006   72.0275 H   0  0  0  0  0  0  0  0  0  0  0  0
   -0.2968   65.6572   73.5484 H   0  0  0  0  0  0  0  0  0  0  0  0
    0.2832   66.5668   72.1121 H   0  0  0  0  0  0  0  0  0  0  0  0
   -1.3599   65.8410   72.1121 H   0  0  0  0  0  0  0  0  0  0  0  0
    3.1493   64.1274   70.5692 H   0  0  0  0  0  0  0  0  0  0  0  0
    0.4655   65.2457   67.8975 H   0  0  0  0  0  0  0  0  0  0  0  0
   -1.7252   65.6869   68.5060 H   0  0  0  0  0  0  0  0  0  0  0  0
   -1.2647   67.1394   69.4837 H   0  0  0  0  0  0  0  0  0  0  0  0
   -1.1955   66.9347   66.4375 H   0  0  0  0  0  0  0  0  0  0  0  0
   -2.4307   67.7953   67.3990 H   0  0  0  0  0  0  0  0  0  0  0  0
    0.6718   68.6679   69.2659 H   0  0  0  0  0  0  0  0  0  0  0  0
    2.4922   69.8137   68.5099 H   0  0  0  0  0  0  0  0  0  0  0  0
    2.6461   68.7735   67.0536 H   0  0  0  0  0  0  0  0  0  0  0  0
    1.4973   70.1544   67.0536 H   0  0  0  0  0  0  0  0  0  0  0  0
  2  1  1  0
  3  2  1  0
  4  3  2  0
  5  4  1  0
  6  5  2  0
  7  2  2  0
  7  6  1  0
  8  7  1  0
  9  8  1  0
 10  1  1  0
 10  9  1  0
 11  5  1  0
 12 11  2  0
 13 11  1  0
 14 13  2  0
 15 14  1  0
 15  4  1  0
 16 15  2  0
 17 14  1  0
 18 17  2  0
 19 18  1  0
 20 13  1  0
 20 19  2  0
 21  1  1  0
 22 21  2  0
 24 23  1  0
 24 21  1  0
 10 25  1  1
 26 10  1  0
 27 26  1  0
 28  6  1  0
 29 20  1  0
 30  8  1  0
 31 30  1  0
 32 31  1  0
 33 32  1  0
 34 33  1  0
 35 33  1  0
 36 35  1  0
 37 36  1  0
 37 31  1  0
 38 36  1  0
 39 38  1  0
 40 38  1  0
 41 35  1  0
 42 41  1  0
 43 42  1  0
 44 43  1  0
 45 44  1  0
 46 45  1  0
 47 46  1  0
 47 42  1  0
 48 46  1  0
 49 44  1  0
 50 45  1  0
 51 50  1  0
 52 51  1  0
 53 52  1  0
 54 53  1  0
 55 54  2  0
 56 54  1  0
 57 56  1  0
 57 51  1  0
 58 56  1  0
  1 59  1  1
  3 60  1  0
  8 61  1  6
  9 62  1  0
  9 63  1  0
 17 64  1  0
 18 65  1  0
 19 66  1  0
 23 67  1  0
 23 68  1  0
 23 69  1  0
 25 70  1  0
 26 71  1  0
 26 72  1  0
 27 73  1  0
 27 74  1  0
 27 75  1  0
 28 76  1  0
 29 77  1  0
 31 78  1  1
 33 79  1  6
 34 80  1  0
 34 81  1  0
 34 82  1  0
 35 83  1  6
 36 84  1  6
 37 85  1  0
 37 86  1  0
 38 87  1  0
 39 88  1  0
 39 89  1  0
 39 90  1  0
 40 91  1  0
 40 92  1  0
 40 93  1  0
 42 94  1  6
 43 95  1  0
 43 96  1  0
 44 97  1  6
 45 98  1  6
 46 99  1  6
 48100  1  0
 48101  1  0
 48102  1  0
 49103  1  0
 51104  1  6
 52105  1  0
 52106  1  0
 53107  1  0
 53108  1  0
 56109  1  1
 58110  1  0
 58111  1  0
 58112  1  0
M  CHG  1  38   1
M  END
>  <score>  (5) 
-8.857

$$$$
=
     RDKit          3D

112118  0  0  0  0  0  0  0  0999 V2000
   -1.5890   55.0920   76.2670 C   0  0  2  0  0  0  0  0  0  0  0  0
   -2.0390   56.5300   76.0230 C   0  0  0  0  0  0  0  0  0  0  0  0
   -3.3860   56.8120   75.7530 C   0  0  0  0  0  0  0  0  0  0  0  0
   -3.8030   58.1310   75.5240 C   0  0  0  0  0  0  0  0  0  0  0  0
   -2.8910   59.1810   75.5820 C   0  0  0  0  0  0  0  0  0  0  0  0
   -1.5550   58.9010   75.9100 C   0  0  0  0  0  0  0  0  0  0  0  0
   -1.0980   57.5780   76.0700 C   0  0  0  0  0  0  0  0  0  0  0  0
    0.3650   57.1810   76.1850 C   0  0  2  0  0  0  0  0  0  0  0  0
    0.5560   56.1770   77.3250 C   0  0  0  0  0  0  0  0  0  0  0  0
   -0.4920   55.0310   77.3750 C   0  0  1  0  0  0  0  0  0  0  0  0
   -3.3510   60.5520   75.2370 C   0  0  0  0  0  0  0  0  0  0  0  0
   -2.5470   61.3790   74.8250 O   0  0  0  0  0  0  0  0  0  0  0  0
   -4.8040   60.8510   75.2980 C   0  0  0  0  0  0  0  0  0  0  0  0
   -5.7090   59.7880   75.2580 C   0  0  0  0  0  0  0  0  0  0  0  0
   -5.2260   58.3960   75.2480 C   0  0  0  0  0  0  0  0  0  0  0  0
   -5.9970   57.4650   75.0490 O   0  0  0  0  0  0  0  0  0  0  0  0
   -7.0920   60.0260   75.2390 C   0  0  0  0  0  0  0  0  0  0  0  0
   -7.5740   61.3330   75.2770 C   0  0  0  0  0  0  0  0  0  0  0  0
   -6.6800   62.4000   75.3400 C   0  0  0  0  0  0  0  0  0  0  0  0
   -5.3020   62.1610   75.3510 C   0  0  0  0  0  0  0  0  0  0  0  0
   -1.1660   54.4320   74.9600 C   0  0  0  0  0  0  0  0  0  0  0  0
   -0.5320   54.9860   74.0720 O   0  0  0  0  0  0  0  0  0  0  0  0
   -2.8750   52.9400   75.5640 C   0  0  0  0  0  0  0  0  0  0  0  0
   -1.6240   53.1500   74.9070 O   0  0  0  0  0  0  0  0  0  0  0  0
   -1.1670   55.1680   78.6530 O   0  0  0  0  0  0  0  0  0  0  0  0
    0.2360   53.6650   77.4730 C   0  0  0  0  0  0  0  0  0  0  0  0
   -0.4300   52.6470   78.3930 C   0  0  0  0  0  0  0  0  0  0  0  0
   -0.6960   59.9390   76.1420 O   0  0  0  0  0  0  0  0  0  0  0  0
   -4.4550   63.2280   75.4500 O   0  0  0  0  0  0  0  0  0  0  0  0
    1.2290   58.3050   76.4350 O   0  0  0  0  0  0  0  0  0  0  0  0
    2.1480   58.5220   75.3550 C   0  0  2  0  0  0  0  0  0  0  0  0
    2.5100   59.8940   75.2420 O   0  0  0  0  0  0  0  0  0  0  0  0
    1.5170   60.6910   74.5940 C   0  0  1  0  0  0  0  0  0  0  0  0
    1.8430   62.1540   74.8620 C   0  0  0  0  0  0  0  0  0  0  0  0
    1.4460   60.3380   73.0850 C   0  0  2  0  0  0  0  0  0  0  0  0
    1.8240   58.8430   72.8470 C   0  0  2  0  0  0  0  0  0  0  0  0
    1.5190   57.9870   74.0680 C   0  0  0  0  0  0  0  0  0  0  0  0
    3.2380   58.6460   72.2870 N   0  0  0  0  0  4  0  0  0  0  0  0
    3.3880   58.2340   70.8520 C   0  0  0  0  0  0  0  0  0  0  0  0
    4.1970   59.7440   72.6560 C   0  0  0  0  0  0  0  0  0  0  0  0
    2.2280   61.2410   72.2830 O   0  0  0  0  0  0  0  0  0  0  0  0
    1.4490   62.1770   71.5360 C   0  0  1  0  0  0  0  0  0  0  0  0
    1.1880   63.4110   72.4020 C   0  0  0  0  0  0  0  0  0  0  0  0
    0.7540   64.5550   71.5040 C   0  0  1  0  0  0  0  0  0  0  0  0
    1.8890   64.9100   70.5130 C   0  0  1  0  0  0  0  0  0  0  0  0
    2.8500   63.7020   70.3210 C   0  0  1  0  0  0  0  0  0  0  0  0
    2.1550   62.4430   70.3140 O   0  0  0  0  0  0  0  0  0  0  0  0
    3.6630   63.7850   69.0330 C   0  0  0  0  0  0  0  0  0  0  0  0
   -0.4350   64.1300   70.8370 O   0  0  0  0  0  0  0  0  0  0  0  0
    1.3990   65.3690   69.2450 O   0  0  0  0  0  0  0  0  0  0  0  0
    0.9850   66.7330   69.2280 C   0  0  1  0  0  0  0  0  0  0  0  0
    1.7860   67.4610   68.1410 C   0  0  0  0  0  0  0  0  0  0  0  0
    1.0400   68.6780   67.6250 C   0  0  0  0  0  0  0  0  0  0  0  0
   -0.2860   68.2150   67.0680 C   0  0  0  0  0  0  0  0  0  0  0  0
   -0.8660   68.8490   66.1900 O   0  0  0  0  0  0  0  0  0  0  0  0
   -0.8320   66.9170   67.6710 C   0  0  1  0  0  0  0  0  0  0  0  0
   -0.4300   66.8000   69.0400 O   0  0  0  0  0  0  0  0  0  0  0  0
   -2.3520   66.8940   67.6320 C   0  0  0  0  0  0  0  0  0  0  0  0
   -2.4401   54.5088   76.6484 H   0  0  0  0  0  0  0  0  0  0  0  0
   -4.1200   55.9933   75.7207 H   0  0  0  0  0  0  0  0  0  0  0  0
    0.6379   56.7370   75.2163 H   0  0  0  0  0  0  0  0  0  0  0  0
    1.5523   55.7235   77.2166 H   0  0  0  0  0  0  0  0  0  0  0  0
    0.4335   56.7458   78.2585 H   0  0  0  0  0  0  0  0  0  0  0  0
   -7.7952   59.1813   75.1941 H   0  0  0  0  0  0  0  0  0  0  0  0
   -8.6575   61.5219   75.2573 H   0  0  0  0  0  0  0  0  0  0  0  0
   -7.0587   63.4319   75.3811 H   0  0  0  0  0  0  0  0  0  0  0  0
   -2.7257   52.9651   76.6535 H   0  0  0  0  0  0  0  0  0  0  0  0
   -3.5800   53.7324   75.2722 H   0  0  0  0  0  0  0  0  0  0  0  0
   -3.2826   51.9609   75.2722 H   0  0  0  0  0  0  0  0  0  0  0  0
   -0.5152   55.0357   79.3863 H   0  0  0  0  0  0  0  0  0  0  0  0
    0.2864   53.2315   76.4633 H   0  0  0  0  0  0  0  0  0  0  0  0
    1.2249   53.8729   77.9075 H   0  0  0  0  0  0  0  0  0  0  0  0
   -0.2476   52.9258   79.4413 H   0  0  0  0  0  0  0  0  0  0  0  0
   -1.5129   52.6322   78.2006 H   0  0  0  0  0  0  0  0  0  0  0  0
   -0.0098   51.6488   78.2006 H   0  0  0  0  0  0  0  0  0  0  0  0
    0.2490   59.7570   76.3743 H   0  0  0  0  0  0  0  0  0  0  0  0
   -4.8196   64.1477   75.4865 H   0  0  0  0  0  0  0  0  0  0  0  0
    3.0840   57.9790   75.5524 H   0  0  0  0  0  0  0  0  0  0  0  0
    0.5125   60.4869   74.9932 H   0  0  0  0  0  0  0  0  0  0  0  0
    1.8818   62.3281   75.9474 H   0  0  0  0  0  0  0  0  0  0  0  0
    2.8180   62.4000   74.4161 H   0  0  0  0  0  0  0  0  0  0  0  0
    1.0647   62.7907   74.4161 H   0  0  0  0  0  0  0  0  0  0  0  0
    0.4044   60.4670   72.7559 H   0  0  0  0  0  0  0  0  0  0  0  0
    1.1694   58.4780   72.0419 H   0  0  0  0  0  0  0  0  0  0  0  0
    0.4280   57.9476   74.2029 H   0  0  0  0  0  0  0  0  0  0  0  0
    1.9505   56.9920   73.8840 H   0  0  0  0  0  0  0  0  0  0  0  0
    3.5080   57.7907   72.7934 H   0  0  0  0  0  0  0  0  0  0  0  0
    3.7640   57.2013   70.8044 H   0  0  0  0  0  0  0  0  0  0  0  0
    2.4110   58.2920   70.3498 H   0  0  0  0  0  0  0  0  0  0  0  0
    4.0989   58.9066   70.3498 H   0  0  0  0  0  0  0  0  0  0  0  0
    4.2634   59.8201   73.7514 H   0  0  0  0  0  0  0  0  0  0  0  0
    5.1910   59.5167   72.2433 H   0  0  0  0  0  0  0  0  0  0  0  0
    3.8381   60.6984   72.2433 H   0  0  0  0  0  0  0  0  0  0  0  0
    0.4557   61.7911   71.2631 H   0  0  0  0  0  0  0  0  0  0  0  0
    0.3935   63.1905   73.1301 H   0  0  0  0  0  0  0  0  0  0  0  0
    2.1041   63.6880   72.9442 H   0  0  0  0  0  0  0  0  0  0  0  0
    0.5463   65.4701   72.0780 H   0  0  0  0  0  0  0  0  0  0  0  0
    2.4461   65.7464   70.9604 H   0  0  0  0  0  0  0  0  0  0  0  0
    3.5272   63.7550   71.1862 H   0  0  0  0  0  0  0  0  0  0  0  0
    4.7296   63.8939   69.2790 H   0  0  0  0  0  0  0  0  0  0  0  0
    3.5141   62.8670   68.4456 H   0  0  0  0  0  0  0  0  0  0  0  0
    3.3316   64.6540   68.4456 H   0  0  0  0  0  0  0  0  0  0  0  0
   -1.1203   63.8850   71.5082 H   0  0  0  0  0  0  0  0  0  0  0  0
    1.1901   67.2358   70.1846 H   0  0  0  0  0  0  0  0  0  0  0  0
    2.7496   67.7838   68.5621 H   0  0  0  0  0  0  0  0  0  0  0  0
    1.9399   66.7674   67.3012 H   0  0  0  0  0  0  0  0  0  0  0  0
    0.8711   69.3883   68.4478 H   0  0  0  0  0  0  0  0  0  0  0  0
    1.6270   69.1811   66.8425 H   0  0  0  0  0  0  0  0  0  0  0  0
   -0.4300   66.0843   67.0752 H   0  0  0  0  0  0  0  0  0  0  0  0
   -2.7451   66.8881   68.6593 H   0  0  0  0  0  0  0  0  0  0  0  0
   -2.7188   67.7867   67.1042 H   0  0  0  0  0  0  0  0  0  0  0  0
   -2.6916   65.9906   67.1042 H   0  0  0  0  0  0  0  0  0  0  0  0
  2  1  1  0
  3  2  1  0
  4  3  2  0
  5  4  1  0
  6  5  2  0
  7  2  2  0
  7  6  1  0
  8  7  1  0
  9  8  1  0
 10  1  1  0
 10  9  1  0
 11  5  1  0
 12 11  2  0
 13 11  1  0
 14 13  2  0
 15 14  1  0
 15  4  1  0
 16 15  2  0
 17 14  1  0
 18 17  2  0
 19 18  1  0
 20 13  1  0
 20 19  2  0
 21  1  1  0
 22 21  2  0
 24 23  1  0
 24 21  1  0
 10 25  1  1
 26 10  1  0
 27 26  1  0
 28  6  1  0
 29 20  1  0
 30  8  1  0
 31 30  1  0
 32 31  1  0
 33 32  1  0
 34 33  1  0
 35 33  1  0
 36 35  1  0
 37 36  1  0
 37 31  1  0
 38 36  1  0
 39 38  1  0
 40 38  1  0
 41 35  1  0
 42 41  1  0
 43 42  1  0
 44 43  1  0
 45 44  1  0
 46 45  1  0
 47 46  1  0
 47 42  1  0
 48 46  1  0
 49 44  1  0
 50 45  1  0
 51 50  1  0
 52 51  1  0
 53 52  1  0
 54 53  1  0
 55 54  2  0
 56 54  1  0
 57 56  1  0
 57 51  1  0
 58 56  1  0
  1 59  1  1
  3 60  1  0
  8 61  1  6
  9 62  1  0
  9 63  1  0
 17 64  1  0
 18 65  1  0
 19 66  1  0
 23 67  1  0
 23 68  1  0
 23 69  1  0
 25 70  1  0
 26 71  1  0
 26 72  1  0
 27 73  1  0
 27 74  1  0
 27 75  1  0
 28 76  1  0
 29 77  1  0
 31 78  1  1
 33 79  1  1
 34 80  1  0
 34 81  1  0
 34 82  1  0
 35 83  1  6
 36 84  1  6
 37 85  1  0
 37 86  1  0
 38 87  1  0
 39 88  1  0
 39 89  1  0
 39 90  1  0
 40 91  1  0
 40 92  1  0
 40 93  1  0
 42 94  1  6
 43 95  1  0
 43 96  1  0
 44 97  1  1
 45 98  1  1
 46 99  1  1
 48100  1  0
 48101  1  0
 48102  1  0
 49103  1  0
 51104  1  1
 52105  1  0
 52106  1  0
 53107  1  0
 53108  1  0
 56109  1  6
 58110  1  0
 58111  1  0
 58112  1  0
M  CHG  1  38   1
M  END
>  <score>  (6) 
-8.723

$$$$
=
     RDKit          3D

112118  0  0  0  0  0  0  0  0999 V2000
   -0.3100   55.6020   77.7790 C   0  0  2  0  0  0  0  0  0  0  0  0
   -1.6250   56.2060   77.2920 C   0  0  0  0  0  0  0  0  0  0  0  0
   -2.7910   56.0700   78.0600 C   0  0  0  0  0  0  0  0  0  0  0  0
   -4.0020   56.6190   77.6150 C   0  0  0  0  0  0  0  0  0  0  0  0
   -4.0610   57.3250   76.4170 C   0  0  0  0  0  0  0  0  0  0  0  0
   -2.8790   57.5080   75.6800 C   0  0  0  0  0  0  0  0  0  0  0  0
   -1.6680   56.9030   76.0680 C   0  0  0  0  0  0  0  0  0  0  0  0
   -0.4160   56.8530   75.2070 C   0  0  2  0  0  0  0  0  0  0  0  0
    0.8170   57.2140   76.0390 C   0  0  0  0  0  0  0  0  0  0  0  0
    0.8930   56.5330   77.4340 C   0  0  1  0  0  0  0  0  0  0  0  0
   -5.3790   57.8070   75.9300 C   0  0  0  0  0  0  0  0  0  0  0  0
   -5.5570   57.9940   74.7320 O   0  0  0  0  0  0  0  0  0  0  0  0
   -6.4900   57.9450   76.9050 C   0  0  0  0  0  0  0  0  0  0  0  0
   -6.4130   57.2470   78.1130 C   0  0  0  0  0  0  0  0  0  0  0  0
   -5.2090   56.4650   78.4470 C   0  0  0  0  0  0  0  0  0  0  0  0
   -5.1930   55.7210   79.4200 O   0  0  0  0  0  0  0  0  0  0  0  0
   -7.4710   57.2890   79.0330 C   0  0  0  0  0  0  0  0  0  0  0  0
   -8.6070   58.0450   78.7530 C   0  0  0  0  0  0  0  0  0  0  0  0
   -8.6860   58.7630   77.5610 C   0  0  0  0  0  0  0  0  0  0  0  0
   -7.6340   58.7140   76.6430 C   0  0  0  0  0  0  0  0  0  0  0  0
   -0.1450   54.1810   77.2540 C   0  0  0  0  0  0  0  0  0  0  0  0
    0.1130   53.2060   77.9490 O   0  0  0  0  0  0  0  0  0  0  0  0
    0.6510   53.3250   75.2180 C   0  0  0  0  0  0  0  0  0  0  0  0
   -0.2910   54.1560   75.9000 O   0  0  0  0  0  0  0  0  0  0  0  0
    0.8870   57.6150   78.4020 O   0  0  0  0  0  0  0  0  0  0  0  0
    2.2820   55.8680   77.6120 C   0  0  0  0  0  0  0  0  0  0  0  0
    3.0070   56.2330   78.9040 C   0  0  0  0  0  0  0  0  0  0  0  0
   -2.8940   58.3450   74.5990 O   0  0  0  0  0  0  0  0  0  0  0  0
   -7.7280   59.4590   75.5010 O   0  0  0  0  0  0  0  0  0  0  0  0
   -0.4750   57.7540   74.0860 O   0  0  0  0  0  0  0  0  0  0  0  0
    0.4650   58.8300   74.2170 C   0  0  2  0  0  0  0  0  0  0  0  0
   -0.1790   60.0470   74.5800 O   0  0  0  0  0  0  0  0  0  0  0  0
   -0.8150   60.7010   73.4810 C   0  0  1  0  0  0  0  0  0  0  0  0
   -1.7560   61.7570   74.0440 C   0  0  0  0  0  0  0  0  0  0  0  0
    0.2490   61.2740   72.5080 C   0  0  2  0  0  0  0  0  0  0  0  0
    1.5430   60.4020   72.5260 C   0  0  2  0  0  0  0  0  0  0  0  0
    1.2410   58.9600   72.9070 C   0  0  0  0  0  0  0  0  0  0  0  0
    2.6970   61.0270   73.3190 N   0  0  0  0  0  4  0  0  0  0  0  0
    3.2360   60.2820   74.5050 C   0  0  0  0  0  0  0  0  0  0  0  0
    3.7990   61.5780   72.4570 C   0  0  0  0  0  0  0  0  0  0  0  0
    0.5160   62.6650   72.7600 O   0  0  0  0  0  0  0  0  0  0  0  0
    0.1770   63.5270   71.6720 C   0  0  1  0  0  0  0  0  0  0  0  0
    0.1410   64.9710   72.1750 C   0  0  0  0  0  0  0  0  0  0  0  0
    0.2130   65.9060   70.9820 C   0  0  1  0  0  0  0  0  0  0  0  0
    1.5520   65.7060   70.2320 C   0  0  1  0  0  0  0  0  0  0  0  0
    2.1420   64.2960   70.5270 C   0  0  1  0  0  0  0  0  0  0  0  0
    1.1250   63.2840   70.6210 O   0  0  0  0  0  0  0  0  0  0  0  0
    3.1490   63.8390   69.4770 C   0  0  0  0  0  0  0  0  0  0  0  0
   -0.9180   65.6170   70.1590 O   0  0  0  0  0  0  0  0  0  0  0  0
    1.4370   65.9150   68.8170 O   0  0  0  0  0  0  0  0  0  0  0  0
    1.1740   67.2640   68.4380 C   0  0  1  0  0  0  0  0  0  0  0  0
    1.9240   67.5470   67.1300 C   0  0  0  0  0  0  0  0  0  0  0  0
    1.2610   68.6620   66.3420 C   0  0  0  0  0  0  0  0  0  0  0  0
   -0.1610   68.2460   66.0440 C   0  0  0  0  0  0  0  0  0  0  0  0
   -0.7630   68.6840   65.0660 O   0  0  0  0  0  0  0  0  0  0  0  0
   -0.7740   67.2520   67.0350 C   0  0  1  0  0  0  0  0  0  0  0  0
   -0.2380   67.4670   68.3450 O   0  0  0  0  0  0  0  0  0  0  0  0
   -2.2830   67.4250   67.1190 C   0  0  0  0  0  0  0  0  0  0  0  0
   -0.3327   55.5276   78.8763 H   0  0  0  0  0  0  0  0  0  0  0  0
   -2.7550   55.5293   79.0173 H   0  0  0  0  0  0  0  0  0  0  0  0
   -0.3481   55.8233   74.8259 H   0  0  0  0  0  0  0  0  0  0  0  0
    1.7108   56.9221   75.4681 H   0  0  0  0  0  0  0  0  0  0  0  0
    0.7526   58.2956   76.2290 H   0  0  0  0  0  0  0  0  0  0  0  0
   -7.4037   56.7252   79.9751 H   0  0  0  0  0  0  0  0  0  0  0  0
   -9.4398   58.0753   79.4710 H   0  0  0  0  0  0  0  0  0  0  0  0
   -9.5777   59.3690   77.3428 H   0  0  0  0  0  0  0  0  0  0  0  0
    1.2637   52.7845   75.9545 H   0  0  0  0  0  0  0  0  0  0  0  0
    0.1129   52.6020   74.5873 H   0  0  0  0  0  0  0  0  0  0  0  0
    1.3013   53.9490   74.5873 H   0  0  0  0  0  0  0  0  0  0  0  0
    0.8891   57.2386   79.3177 H   0  0  0  0  0  0  0  0  0  0  0  0
    2.1435   54.7769   77.5942 H   0  0  0  0  0  0  0  0  0  0  0  0
    2.9104   56.2401   76.7894 H   0  0  0  0  0  0  0  0  0  0  0  0
    2.3968   55.9258   79.7662 H   0  0  0  0  0  0  0  0  0  0  0  0
    3.9773   55.7159   78.9386 H   0  0  0  0  0  0  0  0  0  0  0  0
    3.1695   57.3204   78.9386 H   0  0  0  0  0  0  0  0  0  0  0  0
   -2.0692   58.4845   74.0695 H   0  0  0  0  0  0  0  0  0  0  0  0
   -8.5401   59.9977   75.3269 H   0  0  0  0  0  0  0  0  0  0  0  0
    1.1694   58.6070   75.0319 H   0  0  0  0  0  0  0  0  0  0  0  0
   -1.4126   59.9961   72.8844 H   0  0  0  0  0  0  0  0  0  0  0  0
   -1.7275   61.7250   75.1432 H   0  0  0  0  0  0  0  0  0  0  0  0
   -1.4397   62.7520   73.6978 H   0  0  0  0  0  0  0  0  0  0  0  0
   -2.7808   61.5570   73.6978 H   0  0  0  0  0  0  0  0  0  0  0  0
   -0.1629   61.2255   71.4892 H   0  0  0  0  0  0  0  0  0  0  0  0
    1.9190   60.3763   71.4926 H   0  0  0  0  0  0  0  0  0  0  0  0
    0.6460   58.5036   72.1022 H   0  0  0  0  0  0  0  0  0  0  0  0
    2.2062   58.4518   73.0487 H   0  0  0  0  0  0  0  0  0  0  0  0
    2.1997   61.8146   73.7587 H   0  0  0  0  0  0  0  0  0  0  0  0
    2.8873   60.7640   75.4302 H   0  0  0  0  0  0  0  0  0  0  0  0
    2.8802   59.2415   74.4770 H   0  0  0  0  0  0  0  0  0  0  0  0
    4.3356   60.2944   74.4770 H   0  0  0  0  0  0  0  0  0  0  0  0
    4.5995   61.9782   73.0966 H   0  0  0  0  0  0  0  0  0  0  0  0
    4.2035   60.7761   71.8219 H   0  0  0  0  0  0  0  0  0  0  0  0
    3.4002   62.3827   71.8219 H   0  0  0  0  0  0  0  0  0  0  0  0
   -0.8243   63.3304   71.2613 H   0  0  0  0  0  0  0  0  0  0  0  0
   -0.7941   65.1471   72.7269 H   0  0  0  0  0  0  0  0  0  0  0  0
    0.9932   65.1546   72.8459 H   0  0  0  0  0  0  0  0  0  0  0  0
    0.1842   66.9622   71.2880 H   0  0  0  0  0  0  0  0  0  0  0  0
    2.2415   66.4742   70.6119 H   0  0  0  0  0  0  0  0  0  0  0  0
    2.6498   64.4125   71.4958 H   0  0  0  0  0  0  0  0  0  0  0  0
    4.0414   63.4340   69.9766 H   0  0  0  0  0  0  0  0  0  0  0  0
    2.6948   63.0588   68.8485 H   0  0  0  0  0  0  0  0  0  0  0  0
    3.4372   64.6945   68.8485 H   0  0  0  0  0  0  0  0  0  0  0  0
   -1.7004   65.4171   70.7317 H   0  0  0  0  0  0  0  0  0  0  0  0
    1.5369   67.9795   69.1906 H   0  0  0  0  0  0  0  0  0  0  0  0
    2.9573   67.8411   67.3663 H   0  0  0  0  0  0  0  0  0  0  0  0
    1.9088   66.6335   66.5174 H   0  0  0  0  0  0  0  0  0  0  0  0
    1.2618   69.5887   66.9347 H   0  0  0  0  0  0  0  0  0  0  0  0
    1.8086   68.8442   65.4056 H   0  0  0  0  0  0  0  0  0  0  0  0
   -0.5331   66.2402   66.6768 H   0  0  0  0  0  0  0  0  0  0  0  0
   -2.5898   67.4602   68.1748 H   0  0  0  0  0  0  0  0  0  0  0  0
   -2.5729   68.3623   66.6215 H   0  0  0  0  0  0  0  0  0  0  0  0
   -2.7775   66.5777   66.6215 H   0  0  0  0  0  0  0  0  0  0  0  0
  2  1  1  0
  3  2  1  0
  4  3  2  0
  5  4  1  0
  6  5  2  0
  7  2  2  0
  7  6  1  0
  8  7  1  0
  9  8  1  0
 10  1  1  0
 10  9  1  0
 11  5  1  0
 12 11  2  0
 13 11  1  0
 14 13  2  0
 15 14  1  0
 15  4  1  0
 16 15  2  0
 17 14  1  0
 18 17  2  0
 19 18  1  0
 20 13  1  0
 20 19  2  0
 21  1  1  0
 22 21  2  0
 24 23  1  0
 24 21  1  0
 10 25  1  1
 26 10  1  0
 27 26  1  0
 28  6  1  0
 29 20  1  0
 30  8  1  0
 31 30  1  0
 32 31  1  0
 33 32  1  0
 34 33  1  0
 35 33  1  0
 36 35  1  0
 37 36  1  0
 37 31  1  0
 38 36  1  0
 39 38  1  0
 40 38  1  0
 41 35  1  0
 42 41  1  0
 43 42  1  0
 44 43  1  0
 45 44  1  0
 46 45  1  0
 47 46  1  0
 47 42  1  0
 48 46  1  0
 49 44  1  0
 50 45  1  0
 51 50  1  0
 52 51  1  0
 53 52  1  0
 54 53  1  0
 55 54  2  0
 56 54  1  0
 57 56  1  0
 57 51  1  0
 58 56  1  0
  1 59  1  1
  3 60  1  0
  8 61  1  6
  9 62  1  0
  9 63  1  0
 17 64  1  0
 18 65  1  0
 19 66  1  0
 23 67  1  0
 23 68  1  0
 23 69  1  0
 25 70  1  0
 26 71  1  0
 26 72  1  0
 27 73  1  0
 27 74  1  0
 27 75  1  0
 28 76  1  0
 29 77  1  0
 31 78  1  1
 33 79  1  6
 34 80  1  0
 34 81  1  0
 34 82  1  0
 35 83  1  6
 36 84  1  6
 37 85  1  0
 37 86  1  0
 38 87  1  0
 39 88  1  0
 39 89  1  0
 39 90  1  0
 40 91  1  0
 40 92  1  0
 40 93  1  0
 42 94  1  6
 43 95  1  0
 43 96  1  0
 44 97  1  1
 45 98  1  1
 46 99  1  1
 48100  1  0
 48101  1  0
 48102  1  0
 49103  1  0
 51104  1  1
 52105  1  0
 52106  1  0
 53107  1  0
 53108  1  0
 56109  1  6
 58110  1  0
 58111  1  0
 58112  1  0
M  CHG  1  38   1
M  END
>  <score>  (7) 
-8.452

$$$$
=
     RDKit          3D

112118  0  0  0  0  0  0  0  0999 V2000
    2.4600   58.3370   73.5090 C   0  0  2  0  0  0  0  0  0  0  0  0
    1.3700   57.7300   74.3880 C   0  0  0  0  0  0  0  0  0  0  0  0
    0.8460   56.4640   74.0900 C   0  0  0  0  0  0  0  0  0  0  0  0
   -0.1580   55.9040   74.8930 C   0  0  0  0  0  0  0  0  0  0  0  0
   -0.6350   56.5860   76.0080 C   0  0  0  0  0  0  0  0  0  0  0  0
   -0.0660   57.8270   76.3370 C   0  0  0  0  0  0  0  0  0  0  0  0
    0.8890   58.4430   75.5050 C   0  0  0  0  0  0  0  0  0  0  0  0
    1.3690   59.8780   75.6600 C   0  0  2  0  0  0  0  0  0  0  0  0
    2.8930   59.9450   75.5400 C   0  0  0  0  0  0  0  0  0  0  0  0
    3.4990   59.1210   74.3690 C   0  0  1  0  0  0  0  0  0  0  0  0
   -1.7660   56.0060   76.7770 C   0  0  0  0  0  0  0  0  0  0  0  0
   -2.5000   56.7380   77.4300 O   0  0  0  0  0  0  0  0  0  0  0  0
   -2.0470   54.5540   76.6430 C   0  0  0  0  0  0  0  0  0  0  0  0
   -1.5480   53.8740   75.5290 C   0  0  0  0  0  0  0  0  0  0  0  0
   -0.6840   54.5690   74.5560 C   0  0  0  0  0  0  0  0  0  0  0  0
   -0.3770   54.0360   73.4980 O   0  0  0  0  0  0  0  0  0  0  0  0
   -1.8480   52.5200   75.3230 C   0  0  0  0  0  0  0  0  0  0  0  0
   -2.6380   51.8340   76.2430 C   0  0  0  0  0  0  0  0  0  0  0  0
   -3.1230   52.4960   77.3700 C   0  0  0  0  0  0  0  0  0  0  0  0
   -2.8280   53.8480   77.5700 C   0  0  0  0  0  0  0  0  0  0  0  0
    1.8450   59.1720   72.3920 C   0  0  0  0  0  0  0  0  0  0  0  0
    0.9340   59.9760   72.5420 O   0  0  0  0  0  0  0  0  0  0  0  0
    3.0330   57.5770   71.1440 C   0  0  0  0  0  0  0  0  0  0  0  0
    2.4310   58.8720   71.2000 O   0  0  0  0  0  0  0  0  0  0  0  0
    4.3700   58.1390   74.9870 O   0  0  0  0  0  0  0  0  0  0  0  0
    4.4570   60.0180   73.5450 C   0  0  0  0  0  0  0  0  0  0  0  0
    3.9460   61.4330   73.2830 C   0  0  0  0  0  0  0  0  0  0  0  0
   -0.4030   58.4190   77.5230 O   0  0  0  0  0  0  0  0  0  0  0  0
   -3.2890   54.4560   78.7030 O   0  0  0  0  0  0  0  0  0  0  0  0
    0.9970   60.4550   76.9260 O   0  0  0  0  0  0  0  0  0  0  0  0
    0.8680   61.8810   76.8440 C   0  0  2  0  0  0  0  0  0  0  0  0
    0.3890   62.4360   78.0640 O   0  0  0  0  0  0  0  0  0  0  0  0
   -1.0220   62.2910   78.2360 C   0  0  1  0  0  0  0  0  0  0  0  0
   -1.3480   62.5750   79.6960 C   0  0  0  0  0  0  0  0  0  0  0  0
   -1.7810   63.2090   77.2420 C   0  0  2  0  0  0  0  0  0  0  0  0
   -0.9600   63.4040   75.9300 C   0  0  2  0  0  0  0  0  0  0  0  0
   -0.0410   62.2200   75.6630 C   0  0  0  0  0  0  0  0  0  0  0  0
   -0.2620   64.7660   75.8350 N   0  0  0  0  0  4  0  0  0  0  0  0
    1.2290   64.7960   75.6680 C   0  0  0  0  0  0  0  0  0  0  0  0
   -0.9470   65.7380   74.9150 C   0  0  0  0  0  0  0  0  0  0  0  0
   -2.1630   64.4570   77.8460 O   0  0  0  0  0  0  0  0  0  0  0  0
   -3.5760   64.6460   77.9440 C   0  0  1  0  0  0  0  0  0  0  0  0
   -3.9330   66.0260   77.3880 C   0  0  0  0  0  0  0  0  0  0  0  0
   -5.4210   66.0630   77.0900 C   0  0  1  0  0  0  0  0  0  0  0  0
   -5.7710   65.0160   76.0060 C   0  0  1  0  0  0  0  0  0  0  0  0
   -4.6960   63.8920   75.9580 C   0  0  1  0  0  0  0  0  0  0  0  0
   -4.2040   63.5470   77.2650 O   0  0  0  0  0  0  0  0  0  0  0  0
   -5.2010   62.6100   75.3050 C   0  0  0  0  0  0  0  0  0  0  0  0
   -6.0970   65.8120   78.3240 O   0  0  0  0  0  0  0  0  0  0  0  0
   -7.0800   64.4520   76.1750 O   0  0  0  0  0  0  0  0  0  0  0  0
   -8.0880   65.0400   75.3570 C   0  0  1  0  0  0  0  0  0  0  0  0
   -7.4260   66.1090   74.4770 C   0  0  0  0  0  0  0  0  0  0  0  0
   -8.2170   66.3440   73.2030 C   0  0  0  0  0  0  0  0  0  0  0  0
   -8.3000   65.0340   72.4530 C   0  0  0  0  0  0  0  0  0  0  0  0
   -8.4380   65.0050   71.2330 O   0  0  0  0  0  0  0  0  0  0  0  0
   -8.1950   63.7760   73.3200 C   0  0  1  0  0  0  0  0  0  0  0  0
   -8.7570   64.0190   74.6150 O   0  0  0  0  0  0  0  0  0  0  0  0
   -8.9580   62.6170   72.6960 C   0  0  0  0  0  0  0  0  0  0  0  0
    3.0206   57.5270   73.0195 H   0  0  0  0  0  0  0  0  0  0  0  0
    1.2249   55.9065   73.2207 H   0  0  0  0  0  0  0  0  0  0  0  0
    0.8837   60.4517   74.8566 H   0  0  0  0  0  0  0  0  0  0  0  0
    3.1778   60.9981   75.3989 H   0  0  0  0  0  0  0  0  0  0  0  0
    3.2929   59.5033   76.4646 H   0  0  0  0  0  0  0  0  0  0  0  0
   -1.4597   51.9994   74.4352 H   0  0  0  0  0  0  0  0  0  0  0  0
   -2.8784   50.7729   76.0806 H   0  0  0  0  0  0  0  0  0  0  0  0
   -3.7386   51.9539   78.1029 H   0  0  0  0  0  0  0  0  0  0  0  0
    3.2046   57.2079   72.1659 H   0  0  0  0  0  0  0  0  0  0  0  0
    2.3644   56.8846   70.6115 H   0  0  0  0  0  0  0  0  0  0  0  0
    3.9933   57.6418   70.6115 H   0  0  0  0  0  0  0  0  0  0  0  0
    4.3043   58.2131   75.9720 H   0  0  0  0  0  0  0  0  0  0  0  0
    5.4087   60.0940   74.0914 H   0  0  0  0  0  0  0  0  0  0  0  0
    4.5578   59.5388   72.5600 H   0  0  0  0  0  0  0  0  0  0  0  0
    3.7629   61.9401   74.2418 H   0  0  0  0  0  0  0  0  0  0  0  0
    4.6983   61.9941   72.7092 H   0  0  0  0  0  0  0  0  0  0  0  0
    3.0088   61.3840   72.7092 H   0  0  0  0  0  0  0  0  0  0  0  0
   -0.0101   59.2938   77.7688 H   0  0  0  0  0  0  0  0  0  0  0  0
   -3.8393   53.9465   79.3493 H   0  0  0  0  0  0  0  0  0  0  0  0
    1.8578   62.3311   76.6774 H   0  0  0  0  0  0  0  0  0  0  0  0
   -1.3527   61.2674   78.0059 H   0  0  0  0  0  0  0  0  0  0  0  0
   -0.6767   61.9902   80.3420 H   0  0  0  0  0  0  0  0  0  0  0  0
   -1.2114   63.6472   79.9003 H   0  0  0  0  0  0  0  0  0  0  0  0
   -2.3914   62.2928   79.9003 H   0  0  0  0  0  0  0  0  0  0  0  0
   -2.7202   62.7067   76.9669 H   0  0  0  0  0  0  0  0  0  0  0  0
   -1.6876   63.4238   75.1052 H   0  0  0  0  0  0  0  0  0  0  0  0
   -0.6617   61.3405   75.4366 H   0  0  0  0  0  0  0  0  0  0  0  0
    0.6097   62.4966   74.8203 H   0  0  0  0  0  0  0  0  0  0  0  0
   -0.3834   65.0912   76.8048 H   0  0  0  0  0  0  0  0  0  0  0  0
    1.7087   64.8057   76.6578 H   0  0  0  0  0  0  0  0  0  0  0  0
    1.5537   63.9042   75.1119 H   0  0  0  0  0  0  0  0  0  0  0  0
    1.5176   65.7001   75.1119 H   0  0  0  0  0  0  0  0  0  0  0  0
   -1.4796   66.4938   75.5109 H   0  0  0  0  0  0  0  0  0  0  0  0
   -0.1971   66.2331   74.2805 H   0  0  0  0  0  0  0  0  0  0  0  0
   -1.6654   65.1983   74.2805 H   0  0  0  0  0  0  0  0  0  0  0  0
   -3.9411   64.6408   78.9816 H   0  0  0  0  0  0  0  0  0  0  0  0
   -3.6852   66.7991   78.1302 H   0  0  0  0  0  0  0  0  0  0  0  0
   -3.3624   66.2171   76.4672 H   0  0  0  0  0  0  0  0  0  0  0  0
   -5.7338   67.0389   76.6903 H   0  0  0  0  0  0  0  0  0  0  0  0
   -5.7772   65.5512   75.0450 H   0  0  0  0  0  0  0  0  0  0  0  0
   -3.8856   64.3189   75.3489 H   0  0  0  0  0  0  0  0  0  0  0  0
   -5.4852   61.8885   76.0851 H   0  0  0  0  0  0  0  0  0  0  0  0
   -6.0767   62.8375   74.6794 H   0  0  0  0  0  0  0  0  0  0  0  0
   -4.4054   62.1792   74.6794 H   0  0  0  0  0  0  0  0  0  0  0  0
   -5.4976   66.0346   79.0798 H   0  0  0  0  0  0  0  0  0  0  0  0
   -8.8635   65.5384   75.9572 H   0  0  0  0  0  0  0  0  0  0  0  0
   -7.3677   67.0515   75.0413 H   0  0  0  0  0  0  0  0  0  0  0  0
   -6.4210   65.7570   74.2010 H   0  0  0  0  0  0  0  0  0  0  0  0
   -9.2290   66.6957   73.4521 H   0  0  0  0  0  0  0  0  0  0  0  0
   -7.7234   67.1071   72.5834 H   0  0  0  0  0  0  0  0  0  0  0  0
   -7.1278   63.5217   73.4001 H   0  0  0  0  0  0  0  0  0  0  0  0
   -9.3758   61.9824   73.4915 H   0  0  0  0  0  0  0  0  0  0  0  0
   -9.7751   63.0092   72.0727 H   0  0  0  0  0  0  0  0  0  0  0  0
   -8.2748   62.0215   72.0727 H   0  0  0  0  0  0  0  0  0  0  0  0
  2  1  1  0
  3  2  1  0
  4  3  2  0
  5  4  1  0
  6  5  2  0
  7  2  2  0
  7  6  1  0
  8  7  1  0
  9  8  1  0
 10  1  1  0
 10  9  1  0
 11  5  1  0
 12 11  2  0
 13 11  1  0
 14 13  2  0
 15 14  1  0
 15  4  1  0
 16 15  2  0
 17 14  1  0
 18 17  2  0
 19 18  1  0
 20 13  1  0
 20 19  2  0
 21  1  1  0
 22 21  2  0
 24 23  1  0
 24 21  1  0
 10 25  1  1
 26 10  1  0
 27 26  1  0
 28  6  1  0
 29 20  1  0
 30  8  1  0
 31 30  1  0
 32 31  1  0
 33 32  1  0
 34 33  1  0
 35 33  1  0
 36 35  1  0
 37 36  1  0
 37 31  1  0
 38 36  1  0
 39 38  1  0
 40 38  1  0
 41 35  1  0
 42 41  1  0
 43 42  1  0
 44 43  1  0
 45 44  1  0
 46 45  1  0
 47 46  1  0
 47 42  1  0
 48 46  1  0
 49 44  1  0
 50 45  1  0
 51 50  1  0
 52 51  1  0
 53 52  1  0
 54 53  1  0
 55 54  2  0
 56 54  1  0
 57 56  1  0
 57 51  1  0
 58 56  1  0
  1 59  1  6
  3 60  1  0
  8 61  1  6
  9 62  1  0
  9 63  1  0
 17 64  1  0
 18 65  1  0
 19 66  1  0
 23 67  1  0
 23 68  1  0
 23 69  1  0
 25 70  1  0
 26 71  1  0
 26 72  1  0
 27 73  1  0
 27 74  1  0
 27 75  1  0
 28 76  1  0
 29 77  1  0
 31 78  1  6
 33 79  1  6
 34 80  1  0
 34 81  1  0
 34 82  1  0
 35 83  1  6
 36 84  1  6
 37 85  1  0
 37 86  1  0
 38 87  1  0
 39 88  1  0
 39 89  1  0
 39 90  1  0
 40 91  1  0
 40 92  1  0
 40 93  1  0
 42 94  1  1
 43 95  1  0
 43 96  1  0
 44 97  1  6
 45 98  1  6
 46 99  1  6
 48100  1  0
 48101  1  0
 48102  1  0
 49103  1  0
 51104  1  1
 52105  1  0
 52106  1  0
 53107  1  0
 53108  1  0
 56109  1  1
 58110  1  0
 58111  1  0
 58112  1  0
M  CHG  1  38   1
M  END
>  <score>  (8) 
-8.266

$$$$
=
     RDKit          3D

112118  0  0  0  0  0  0  0  0999 V2000
    0.9650   55.8430   74.5400 C   0  0  2  0  0  0  0  0  0  0  0  0
    1.3190   57.2580   74.0910 C   0  0  0  0  0  0  0  0  0  0  0  0
    2.0150   57.4650   72.8910 C   0  0  0  0  0  0  0  0  0  0  0  0
    2.3460   58.7630   72.4770 C   0  0  0  0  0  0  0  0  0  0  0  0
    1.9700   59.8660   73.2380 C   0  0  0  0  0  0  0  0  0  0  0  0
    1.2220   59.6580   74.4080 C   0  0  0  0  0  0  0  0  0  0  0  0
    0.9430   58.3620   74.8830 C   0  0  0  0  0  0  0  0  0  0  0  0
    0.3560   58.0540   76.2520 C   0  0  2  0  0  0  0  0  0  0  0  0
   -0.7640   57.0180   76.1300 C   0  0  0  0  0  0  0  0  0  0  0  0
   -0.4430   55.8060   75.2120 C   0  0  1  0  0  0  0  0  0  0  0  0
    2.4230   61.2170   72.8180 C   0  0  0  0  0  0  0  0  0  0  0  0
    2.5310   62.1110   73.6490 O   0  0  0  0  0  0  0  0  0  0  0  0
    2.8420   61.4200   71.4080 C   0  0  0  0  0  0  0  0  0  0  0  0
    3.2000   60.3040   70.6470 C   0  0  0  0  0  0  0  0  0  0  0  0
    3.0730   58.9470   71.2080 C   0  0  0  0  0  0  0  0  0  0  0  0
    3.5340   57.9780   70.6170 O   0  0  0  0  0  0  0  0  0  0  0  0
    3.6720   60.4540   69.3350 C   0  0  0  0  0  0  0  0  0  0  0  0
    3.7720   61.7240   68.7720 C   0  0  0  0  0  0  0  0  0  0  0  0
    3.3980   62.8430   69.5140 C   0  0  0  0  0  0  0  0  0  0  0  0
    2.9340   62.6920   70.8240 C   0  0  0  0  0  0  0  0  0  0  0  0
    2.0690   55.2660   75.4180 C   0  0  0  0  0  0  0  0  0  0  0  0
    2.4080   55.7210   76.5030 O   0  0  0  0  0  0  0  0  0  0  0  0
    1.9490   53.7200   73.6550 C   0  0  0  0  0  0  0  0  0  0  0  0
    2.6480   54.1950   74.8070 O   0  0  0  0  0  0  0  0  0  0  0  0
   -1.4270   55.8470   74.1460 O   0  0  0  0  0  0  0  0  0  0  0  0
   -0.7520   54.4870   75.9660 C   0  0  0  0  0  0  0  0  0  0  0  0
   -1.4490   53.4180   75.1300 C   0  0  0  0  0  0  0  0  0  0  0  0
    0.7000   60.7390   75.0630 O   0  0  0  0  0  0  0  0  0  0  0  0
    2.5410   63.8070   71.5100 O   0  0  0  0  0  0  0  0  0  0  0  0
   -0.1860   59.2200   76.9000 O   0  0  0  0  0  0  0  0  0  0  0  0
   -1.6200   59.2280   76.8700 C   0  0  2  0  0  0  0  0  0  0  0  0
   -2.1180   60.0410   75.8130 O   0  0  0  0  0  0  0  0  0  0  0  0
   -2.0900   61.4380   76.1110 C   0  0  1  0  0  0  0  0  0  0  0  0
   -2.2870   62.1990   74.8070 C   0  0  0  0  0  0  0  0  0  0  0  0
   -3.1490   61.7770   77.1930 C   0  0  2  0  0  0  0  0  0  0  0  0
   -3.3700   60.5660   78.1510 C   0  0  2  0  0  0  0  0  0  0  0  0
   -2.1320   59.6860   78.2360 C   0  0  0  0  0  0  0  0  0  0  0  0
   -4.6660   59.7930   77.8790 N   0  0  0  0  0  4  0  0  0  0  0  0
   -4.5700   58.3390   77.5240 C   0  0  0  0  0  0  0  0  0  0  0  0
   -5.7510   60.0520   78.8870 C   0  0  0  0  0  0  0  0  0  0  0  0
   -4.3750   62.2570   76.6150 O   0  0  0  0  0  0  0  0  0  0  0  0
   -4.6850   63.6110   76.9500 C   0  0  1  0  0  0  0  0  0  0  0  0
   -5.8800   64.0700   76.1130 C   0  0  0  0  0  0  0  0  0  0  0  0
   -6.4750   65.3120   76.7500 C   0  0  1  0  0  0  0  0  0  0  0  0
   -6.9980   64.9810   78.1690 C   0  0  1  0  0  0  0  0  0  0  0  0
   -6.2830   63.7210   78.7380 C   0  0  1  0  0  0  0  0  0  0  0  0
   -4.8940   63.6640   78.3700 O   0  0  0  0  0  0  0  0  0  0  0  0
   -6.3590   63.6280   80.2590 C   0  0  0  0  0  0  0  0  0  0  0  0
   -5.4460   66.3020   76.7680 O   0  0  0  0  0  0  0  0  0  0  0  0
   -6.8740   66.0830   79.0800 O   0  0  0  0  0  0  0  0  0  0  0  0
   -7.6230   67.2400   78.7150 C   0  0  1  0  0  0  0  0  0  0  0  0
   -8.7260   67.4440   79.7610 C   0  0  0  0  0  0  0  0  0  0  0  0
   -9.1570   68.8980   79.8350 C   0  0  0  0  0  0  0  0  0  0  0  0
   -7.9460   69.7290   80.1900 C   0  0  0  0  0  0  0  0  0  0  0  0
   -8.0600   70.8060   80.7690 O   0  0  0  0  0  0  0  0  0  0  0  0
   -6.5970   69.1290   79.7820 C   0  0  1  0  0  0  0  0  0  0  0  0
   -6.7410   68.3570   78.5850 O   0  0  0  0  0  0  0  0  0  0  0  0
   -5.5750   70.2210   79.5080 C   0  0  0  0  0  0  0  0  0  0  0  0
    0.8978   55.1918   73.6560 H   0  0  0  0  0  0  0  0  0  0  0  0
    2.3030   56.6034   72.2707 H   0  0  0  0  0  0  0  0  0  0  0  0
    1.1867   57.6682   76.8612 H   0  0  0  0  0  0  0  0  0  0  0  0
   -0.9843   56.6340   77.1370 H   0  0  0  0  0  0  0  0  0  0  0  0
   -1.6138   57.5386   75.6644 H   0  0  0  0  0  0  0  0  0  0  0  0
    3.9632   59.5687   68.7506 H   0  0  0  0  0  0  0  0  0  0  0  0
    4.1453   61.8436   67.7442 H   0  0  0  0  0  0  0  0  0  0  0  0
    3.4680   63.8462   69.0682 H   0  0  0  0  0  0  0  0  0  0  0  0
    1.0780   53.1281   73.9728 H   0  0  0  0  0  0  0  0  0  0  0  0
    1.6106   54.5760   73.0526 H   0  0  0  0  0  0  0  0  0  0  0  0
    2.6202   53.0902   73.0526 H   0  0  0  0  0  0  0  0  0  0  0  0
   -2.3357   55.8849   74.5370 H   0  0  0  0  0  0  0  0  0  0  0  0
    0.1989   54.0704   76.3297 H   0  0  0  0  0  0  0  0  0  0  0  0
   -1.4496   54.7499   76.7749 H   0  0  0  0  0  0  0  0  0  0  0  0
   -1.9269   52.6850   75.7966 H   0  0  0  0  0  0  0  0  0  0  0  0
   -2.2137   53.8896   74.4953 H   0  0  0  0  0  0  0  0  0  0  0  0
   -0.7090   52.9086   74.4953 H   0  0  0  0  0  0  0  0  0  0  0  0
    0.1704   60.6088   75.8892 H   0  0  0  0  0  0  0  0  0  0  0  0
    2.6110   64.6991   71.0865 H   0  0  0  0  0  0  0  0  0  0  0  0
   -1.9900   58.2119   76.6683 H   0  0  0  0  0  0  0  0  0  0  0  0
   -1.1226   61.7399   76.5387 H   0  0  0  0  0  0  0  0  0  0  0  0
   -2.5570   63.2421   75.0284 H   0  0  0  0  0  0  0  0  0  0  0  0
   -1.3537   62.1774   74.2253 H   0  0  0  0  0  0  0  0  0  0  0  0
   -3.0926   61.7273   74.2253 H   0  0  0  0  0  0  0  0  0  0  0  0
   -2.7581   62.6059   77.8014 H   0  0  0  0  0  0  0  0  0  0  0  0
   -3.5208   60.9847   79.1569 H   0  0  0  0  0  0  0  0  0  0  0  0
   -1.3335   60.2542   78.7355 H   0  0  0  0  0  0  0  0  0  0  0  0
   -2.4124   58.7830   78.7981 H   0  0  0  0  0  0  0  0  0  0  0  0
   -4.9407   60.2222   76.9839 H   0  0  0  0  0  0  0  0  0  0  0  0
   -4.5304   57.7386   78.4448 H   0  0  0  0  0  0  0  0  0  0  0  0
   -5.4508   58.0468   76.9334 H   0  0  0  0  0  0  0  0  0  0  0  0
   -3.6584   58.1652   76.9334 H   0  0  0  0  0  0  0  0  0  0  0  0
   -5.3393   59.9537   79.9023 H   0  0  0  0  0  0  0  0  0  0  0  0
   -6.1452   61.0695   78.7481 H   0  0  0  0  0  0  0  0  0  0  0  0
   -6.5623   59.3223   78.7481 H   0  0  0  0  0  0  0  0  0  0  0  0
   -3.8707   64.3114   76.7126 H   0  0  0  0  0  0  0  0  0  0  0  0
   -5.5478   64.3020   75.0904 H   0  0  0  0  0  0  0  0  0  0  0  0
   -6.6361   63.2721   76.0721 H   0  0  0  0  0  0  0  0  0  0  0  0
   -7.3383   65.6898   76.1825 H   0  0  0  0  0  0  0  0  0  0  0  0
   -8.0731   64.7716   78.0671 H   0  0  0  0  0  0  0  0  0  0  0  0
   -6.8272   62.8762   78.2906 H   0  0  0  0  0  0  0  0  0  0  0  0
   -5.7230   64.4062   80.7062 H   0  0  0  0  0  0  0  0  0  0  0  0
   -7.3998   63.7737   80.5837 H   0  0  0  0  0  0  0  0  0  0  0  0
   -6.0089   62.6370   80.5837 H   0  0  0  0  0  0  0  0  0  0  0  0
   -5.2167   66.5226   77.7055 H   0  0  0  0  0  0  0  0  0  0  0  0
   -8.1119   67.1209   77.7368 H   0  0  0  0  0  0  0  0  0  0  0  0
   -9.5950   66.8264   79.4899 H   0  0  0  0  0  0  0  0  0  0  0  0
   -8.3296   67.1499   80.7440 H   0  0  0  0  0  0  0  0  0  0  0  0
   -9.5567   69.2184   78.8616 H   0  0  0  0  0  0  0  0  0  0  0  0
   -9.9422   69.0246   80.5949 H   0  0  0  0  0  0  0  0  0  0  0  0
   -6.2541   68.4961   80.6138 H   0  0  0  0  0  0  0  0  0  0  0  0
   -5.2009   70.6208   80.4620 H   0  0  0  0  0  0  0  0  0  0  0  0
   -4.7366   69.8024   78.9319 H   0  0  0  0  0  0  0  0  0  0  0  0
   -6.0482   71.0298   78.9319 H   0  0  0  0  0  0  0  0  0  0  0  0
  2  1  1  0
  3  2  1  0
  4  3  2  0
  5  4  1  0
  6  5  2  0
  7  2  2  0
  7  6  1  0
  8  7  1  0
  9  8  1  0
 10  1  1  0
 10  9  1  0
 11  5  1  0
 12 11  2  0
 13 11  1  0
 14 13  2  0
 15 14  1  0
 15  4  1  0
 16 15  2  0
 17 14  1  0
 18 17  2  0
 19 18  1  0
 20 13  1  0
 20 19  2  0
 21  1  1  0
 22 21  2  0
 24 23  1  0
 24 21  1  0
 10 25  1  6
 26 10  1  0
 27 26  1  0
 28  6  1  0
 29 20  1  0
 30  8  1  0
 31 30  1  0
 32 31  1  0
 33 32  1  0
 34 33  1  0
 35 33  1  0
 36 35  1  0
 37 36  1  0
 37 31  1  0
 38 36  1  0
 39 38  1  0
 40 38  1  0
 41 35  1  0
 42 41  1  0
 43 42  1  0
 44 43  1  0
 45 44  1  0
 46 45  1  0
 47 46  1  0
 47 42  1  0
 48 46  1  0
 49 44  1  0
 50 45  1  0
 51 50  1  0
 52 51  1  0
 53 52  1  0
 54 53  1  0
 55 54  2  0
 56 54  1  0
 57 56  1  0
 57 51  1  0
 58 56  1  0
  1 59  1  6
  3 60  1  0
  8 61  1  1
  9 62  1  0
  9 63  1  0
 17 64  1  0
 18 65  1  0
 19 66  1  0
 23 67  1  0
 23 68  1  0
 23 69  1  0
 25 70  1  0
 26 71  1  0
 26 72  1  0
 27 73  1  0
 27 74  1  0
 27 75  1  0
 28 76  1  0
 29 77  1  0
 31 78  1  6
 33 79  1  1
 34 80  1  0
 34 81  1  0
 34 82  1  0
 35 83  1  1
 36 84  1  1
 37 85  1  0
 37 86  1  0
 38 87  1  0
 39 88  1  0
 39 89  1  0
 39 90  1  0
 40 91  1  0
 40 92  1  0
 40 93  1  0
 42 94  1  1
 43 95  1  0
 43 96  1  0
 44 97  1  6
 45 98  1  6
 46 99  1  6
 48100  1  0
 48101  1  0
 48102  1  0
 49103  1  0
 51104  1  6
 52105  1  0
 52106  1  0
 53107  1  0
 53108  1  0
 56109  1  1
 58110  1  0
 58111  1  0
 58112  1  0
M  CHG  1  38   1
M  END
>  <score>  (9) 
-8.041

$$$$
