=
     RDKit          3D

 57 59  0  0  0  0  0  0  0  0999 V2000
    1.4840   67.9240   67.6710 C   0  0  2  0  0  0  0  0  0  0  0  0
    1.7170   69.3440   67.6310 O   0  0  0  0  0  0  0  0  0  0  0  0
    2.7680   70.0220   69.5350 O   0  0  0  0  0  0  0  0  0  0  0  0
    2.8020   69.7550   68.3440 C   0  0  0  0  0  0  0  0  0  0  0  0
    4.0110   69.8620   67.4870 C   0  0  0  0  0  0  0  0  0  0  0  0
    4.0170   69.4610   66.1440 C   0  0  0  0  0  0  0  0  0  0  0  0
    5.1820   69.5860   65.3830 C   0  0  0  0  0  0  0  0  0  0  0  0
    6.3400   70.1120   65.9570 C   0  0  0  0  0  0  0  0  0  0  0  0
    6.3400   70.5110   67.2920 C   0  0  0  0  0  0  0  0  0  0  0  0
    5.1790   70.3870   68.0570 C   0  0  0  0  0  0  0  0  0  0  0  0
    0.3080   67.6040   66.7390 C   0  0  0  0  0  0  0  0  0  0  0  0
    0.7750   66.6740   65.7600 O   0  0  0  0  0  0  0  0  0  0  0  0
    1.5530   67.1580   64.7430 C   0  0  0  0  0  0  0  0  0  0  0  0
    1.3600   68.3880   64.0940 C   0  0  0  0  0  0  0  0  0  0  0  0
    2.1790   68.7790   63.0330 C   0  0  0  0  0  0  0  0  0  0  0  0
    3.2180   67.9650   62.5810 C   0  0  0  0  0  0  0  0  0  0  0  0
    3.4130   66.7490   63.2410 C   0  0  0  0  0  0  0  0  0  0  0  0
    2.6170   66.3320   64.3080 C   0  0  0  0  0  0  0  0  0  0  0  0
    3.1350   65.0740   64.7350 C   0  0  0  0  0  0  0  0  0  0  0  0
    4.1980   64.7440   63.9230 C   0  0  0  0  0  0  0  0  0  0  0  0
    4.3550   65.7680   63.0220 N   0  0  0  0  0  0  0  0  0  0  0  0
    5.1000   63.5650   63.9230 C   0  0  0  0  0  0  0  0  0  0  0  0
    1.1800   67.4490   69.1140 C   0  0  0  0  0  0  0  0  0  0  0  0
    0.5590   66.0770   69.1180 N   0  0  0  0  0  4  0  0  0  0  0  0
    0.6930   65.2180   70.3560 C   0  0  0  0  0  0  0  0  0  0  0  0
   -0.0180   63.8940   70.0470 C   0  0  0  0  0  0  0  0  0  0  0  0
    0.0010   65.9130   71.5320 C   0  0  0  0  0  0  0  0  0  0  0  0
    2.1720   64.9550   70.6470 C   0  0  0  0  0  0  0  0  0  0  0  0
    2.3873   67.3925   67.3370 H   0  0  0  0  0  0  0  0  0  0  0  0
    3.1046   69.0479   65.6892 H   0  0  0  0  0  0  0  0  0  0  0  0
    5.1864   69.2692   64.3296 H   0  0  0  0  0  0  0  0  0  0  0  0
    7.2548   70.2119   65.3543 H   0  0  0  0  0  0  0  0  0  0  0  0
    7.2546   70.9236   67.7429 H   0  0  0  0  0  0  0  0  0  0  0  0
    5.1807   70.7024   69.1108 H   0  0  0  0  0  0  0  0  0  0  0  0
   -0.5173   67.1599   67.3149 H   0  0  0  0  0  0  0  0  0  0  0  0
   -0.0634   68.5200   66.2563 H   0  0  0  0  0  0  0  0  0  0  0  0
    0.5505   69.0543   64.4268 H   0  0  0  0  0  0  0  0  0  0  0  0
    2.0015   69.7481   62.5438 H   0  0  0  0  0  0  0  0  0  0  0  0
    3.8578   68.2682   61.7391 H   0  0  0  0  0  0  0  0  0  0  0  0
    2.7513   64.4699   65.5704 H   0  0  0  0  0  0  0  0  0  0  0  0
    5.0753   65.7984   62.2863 H   0  0  0  0  0  0  0  0  0  0  0  0
    5.3228   63.2738   64.9601 H   0  0  0  0  0  0  0  0  0  0  0  0
    4.6095   62.7280   63.4045 H   0  0  0  0  0  0  0  0  0  0  0  0
    6.0361   63.8195   63.4045 H   0  0  0  0  0  0  0  0  0  0  0  0
    2.1186   67.4194   69.6869 H   0  0  0  0  0  0  0  0  0  0  0  0
    0.4688   68.1538   69.5694 H   0  0  0  0  0  0  0  0  0  0  0  0
   -0.4485   66.2006   68.9434 H   0  0  0  0  0  0  0  0  0  0  0  0
    1.0891   65.5625   68.4003 H   0  0  0  0  0  0  0  0  0  0  0  0
   -0.2867   63.3936   70.9890 H   0  0  0  0  0  0  0  0  0  0  0  0
   -0.9298   64.0945   69.4652 H   0  0  0  0  0  0  0  0  0  0  0  0
    0.6528   63.2447   69.4652 H   0  0  0  0  0  0  0  0  0  0  0  0
    0.3973   65.5150   72.4778 H   0  0  0  0  0  0  0  0  0  0  0  0
    0.1908   66.9953   71.4815 H   0  0  0  0  0  0  0  0  0  0  0  0
   -1.0821   65.7279   71.4815 H   0  0  0  0  0  0  0  0  0  0  0  0
    2.3322   64.9265   71.7349 H   0  0  0  0  0  0  0  0  0  0  0  0
    2.4663   63.9904   70.2077 H   0  0  0  0  0  0  0  0  0  0  0  0
    2.7808   65.7590   70.2077 H   0  0  0  0  0  0  0  0  0  0  0  0
  2  1  1  0
  4  3  2  0
  4  2  1  0
  5  4  1  0
  6  5  2  0
  7  6  1  0
  8  7  2  0
  9  8  1  0
 10  5  1  0
 10  9  2  0
 11  1  1  0
 12 11  1  0
 13 12  1  0
 14 13  2  0
 15 14  1  0
 16 15  2  0
 17 16  1  0
 18 17  2  0
 18 13  1  0
 19 18  1  0
 20 19  2  0
 21 20  1  0
 21 17  1  0
 22 20  1  0
 23  1  1  0
 24 23  1  0
 25 24  1  0
 26 25  1  0
 27 25  1  0
 28 25  1  0
  1 29  1  6
  6 30  1  0
  7 31  1  0
  8 32  1  0
  9 33  1  0
 10 34  1  0
 11 35  1  0
 11 36  1  0
 14 37  1  0
 15 38  1  0
 16 39  1  0
 19 40  1  0
 21 41  1  0
 22 42  1  0
 22 43  1  0
 22 44  1  0
 23 45  1  0
 23 46  1  0
 24 47  1  0
 24 48  1  0
 26 49  1  0
 26 50  1  0
 26 51  1  0
 27 52  1  0
 27 53  1  0
 27 54  1  0
 28 55  1  0
 28 56  1  0
 28 57  1  0
M  CHG  1  24   1
M  END
>  <score>  (1) 
-10.247

$$$$
=
     RDKit          3D

 57 59  0  0  0  0  0  0  0  0999 V2000
    0.9590   67.7950   67.1290 C   0  0  2  0  0  0  0  0  0  0  0  0
    1.7750   66.7400   66.5840 O   0  0  0  0  0  0  0  0  0  0  0  0
    1.1190   67.3930   64.5030 O   0  0  0  0  0  0  0  0  0  0  0  0
    1.8540   66.7380   65.2250 C   0  0  0  0  0  0  0  0  0  0  0  0
    2.9180   65.8210   64.7420 C   0  0  0  0  0  0  0  0  0  0  0  0
    3.6940   66.1030   63.6100 C   0  0  0  0  0  0  0  0  0  0  0  0
    4.6840   65.2050   63.2000 C   0  0  0  0  0  0  0  0  0  0  0  0
    4.9020   64.0290   63.9170 C   0  0  0  0  0  0  0  0  0  0  0  0
    4.1310   63.7420   65.0430 C   0  0  0  0  0  0  0  0  0  0  0  0
    3.1410   64.6360   65.4560 C   0  0  0  0  0  0  0  0  0  0  0  0
    1.7100   68.4190   68.3130 C   0  0  0  0  0  0  0  0  0  0  0  0
    2.1600   69.7130   67.9040 O   0  0  0  0  0  0  0  0  0  0  0  0
    3.4920   69.9930   68.0370 C   0  0  0  0  0  0  0  0  0  0  0  0
    4.1180   70.4040   69.2240 C   0  0  0  0  0  0  0  0  0  0  0  0
    5.4800   70.7120   69.2530 C   0  0  0  0  0  0  0  0  0  0  0  0
    6.2670   70.6210   68.1050 C   0  0  0  0  0  0  0  0  0  0  0  0
    5.6410   70.1970   66.9290 C   0  0  0  0  0  0  0  0  0  0  0  0
    4.2850   69.8770   66.8700 C   0  0  0  0  0  0  0  0  0  0  0  0
    4.0240   69.4610   65.5310 C   0  0  0  0  0  0  0  0  0  0  0  0
    5.1950   69.5590   64.8100 C   0  0  0  0  0  0  0  0  0  0  0  0
    6.1670   70.0060   65.6710 N   0  0  0  0  0  0  0  0  0  0  0  0
    5.4980   69.2500   63.3900 C   0  0  0  0  0  0  0  0  0  0  0  0
   -0.4210   67.2570   67.5810 C   0  0  0  0  0  0  0  0  0  0  0  0
   -1.4270   67.3260   66.4620 N   0  0  0  0  0  4  0  0  0  0  0  0
   -1.9240   68.6810   66.0100 C   0  0  0  0  0  0  0  0  0  0  0  0
   -3.4570   68.6050   66.0070 C   0  0  0  0  0  0  0  0  0  0  0  0
   -1.4200   68.9590   64.5910 C   0  0  0  0  0  0  0  0  0  0  0  0
   -1.4630   69.7580   66.9940 C   0  0  0  0  0  0  0  0  0  0  0  0
    0.7732   68.5548   66.3556 H   0  0  0  0  0  0  0  0  0  0  0  0
    3.5243   67.0308   63.0440 H   0  0  0  0  0  0  0  0  0  0  0  0
    5.2919   65.4265   62.3104 H   0  0  0  0  0  0  0  0  0  0  0  0
    5.6839   63.3261   63.5937 H   0  0  0  0  0  0  0  0  0  0  0  0
    4.3025   62.8123   65.6053 H   0  0  0  0  0  0  0  0  0  0  0  0
    2.5340   64.4093   66.3449 H   0  0  0  0  0  0  0  0  0  0  0  0
    1.0366   68.5118   69.1778 H   0  0  0  0  0  0  0  0  0  0  0  0
    2.5618   67.7881   68.6068 H   0  0  0  0  0  0  0  0  0  0  0  0
    3.5257   70.4849   70.1474 H   0  0  0  0  0  0  0  0  0  0  0  0
    5.9407   71.0324   70.1991 H   0  0  0  0  0  0  0  0  0  0  0  0
    7.3376   70.8728   68.1242 H   0  0  0  0  0  0  0  0  0  0  0  0
    3.0539   69.1201   65.1402 H   0  0  0  0  0  0  0  0  0  0  0  0
    7.1497   70.1744   65.4125 H   0  0  0  0  0  0  0  0  0  0  0  0
    6.2674   68.4654   63.3416 H   0  0  0  0  0  0  0  0  0  0  0  0
    4.5843   68.8990   62.8881 H   0  0  0  0  0  0  0  0  0  0  0  0
    5.8668   70.1567   62.8881 H   0  0  0  0  0  0  0  0  0  0  0  0
   -0.3107   66.2101   67.9000 H   0  0  0  0  0  0  0  0  0  0  0  0
   -0.7821   67.8804   68.4122 H   0  0  0  0  0  0  0  0  0  0  0  0
   -0.9994   66.8718   65.6424 H   0  0  0  0  0  0  0  0  0  0  0  0
   -2.2648   66.8716   66.8526 H   0  0  0  0  0  0  0  0  0  0  0  0
   -3.8252   68.5867   67.0434 H   0  0  0  0  0  0  0  0  0  0  0  0
   -3.8667   69.4839   65.4877 H   0  0  0  0  0  0  0  0  0  0  0  0
   -3.7777   67.6899   65.4877 H   0  0  0  0  0  0  0  0  0  0  0  0
   -0.4578   69.4897   64.6411 H   0  0  0  0  0  0  0  0  0  0  0  0
   -1.2863   68.0070   64.0563 H   0  0  0  0  0  0  0  0  0  0  0  0
   -2.1539   69.5799   64.0563 H   0  0  0  0  0  0  0  0  0  0  0  0
   -1.6150   69.4029   68.0240 H   0  0  0  0  0  0  0  0  0  0  0  0
   -0.3956   69.9693   66.8328 H   0  0  0  0  0  0  0  0  0  0  0  0
   -2.0470   70.6761   66.8328 H   0  0  0  0  0  0  0  0  0  0  0  0
  2  1  1  0
  4  3  2  0
  4  2  1  0
  5  4  1  0
  6  5  2  0
  7  6  1  0
  8  7  2  0
  9  8  1  0
 10  5  1  0
 10  9  2  0
 11  1  1  0
 12 11  1  0
 13 12  1  0
 14 13  2  0
 15 14  1  0
 16 15  2  0
 17 16  1  0
 18 17  2  0
 18 13  1  0
 19 18  1  0
 20 19  2  0
 21 20  1  0
 21 17  1  0
 22 20  1  0
 23  1  1  0
 24 23  1  0
 25 24  1  0
 26 25  1  0
 27 25  1  0
 28 25  1  0
  1 29  1  6
  6 30  1  0
  7 31  1  0
  8 32  1  0
  9 33  1  0
 10 34  1  0
 11 35  1  0
 11 36  1  0
 14 37  1  0
 15 38  1  0
 16 39  1  0
 19 40  1  0
 21 41  1  0
 22 42  1  0
 22 43  1  0
 22 44  1  0
 23 45  1  0
 23 46  1  0
 24 47  1  0
 24 48  1  0
 26 49  1  0
 26 50  1  0
 26 51  1  0
 27 52  1  0
 27 53  1  0
 27 54  1  0
 28 55  1  0
 28 56  1  0
 28 57  1  0
M  CHG  1  24   1
M  END
>  <score>  (2) 
-9.964

$$$$
=
     RDKit          3D

 57 59  0  0  0  0  0  0  0  0999 V2000
    0.3250   67.8180   68.0300 C   0  0  2  0  0  0  0  0  0  0  0  0
    0.2750   67.4650   66.6340 O   0  0  0  0  0  0  0  0  0  0  0  0
   -1.3840   68.9630   66.1950 O   0  0  0  0  0  0  0  0  0  0  0  0
   -0.3740   68.3690   65.8500 C   0  0  0  0  0  0  0  0  0  0  0  0
    0.2840   68.5150   64.5260 C   0  0  0  0  0  0  0  0  0  0  0  0
    1.5090   67.9060   64.2250 C   0  0  0  0  0  0  0  0  0  0  0  0
    2.0820   68.0760   62.9620 C   0  0  0  0  0  0  0  0  0  0  0  0
    1.4340   68.8480   61.9980 C   0  0  0  0  0  0  0  0  0  0  0  0
    0.2160   69.4580   62.2920 C   0  0  0  0  0  0  0  0  0  0  0  0
   -0.3590   69.2930   63.5530 C   0  0  0  0  0  0  0  0  0  0  0  0
    1.7860   68.1070   68.3980 C   0  0  0  0  0  0  0  0  0  0  0  0
    2.0970   69.4210   67.9270 O   0  0  0  0  0  0  0  0  0  0  0  0
    3.3830   69.8630   68.0810 C   0  0  0  0  0  0  0  0  0  0  0  0
    3.9250   70.3760   69.2690 C   0  0  0  0  0  0  0  0  0  0  0  0
    5.2390   70.8470   69.3180 C   0  0  0  0  0  0  0  0  0  0  0  0
    6.0600   70.8210   68.1900 C   0  0  0  0  0  0  0  0  0  0  0  0
    5.5190   70.2950   67.0150 C   0  0  0  0  0  0  0  0  0  0  0  0
    4.2130   69.8120   66.9350 C   0  0  0  0  0  0  0  0  0  0  0  0
    4.0370   69.3340   65.6030 C   0  0  0  0  0  0  0  0  0  0  0  0
    5.2050   69.5520   64.9050 C   0  0  0  0  0  0  0  0  0  0  0  0
    6.0950   70.1360   65.7740 N   0  0  0  0  0  0  0  0  0  0  0  0
    5.5790   69.2460   63.5020 C   0  0  0  0  0  0  0  0  0  0  0  0
   -0.2460   66.6820   68.9140 C   0  0  0  0  0  0  0  0  0  0  0  0
    0.8150   65.6660   69.2480 N   0  0  0  0  0  4  0  0  0  0  0  0
    0.6960   64.8840   70.5380 C   0  0  0  0  0  0  0  0  0  0  0  0
    2.1280   64.5450   70.9750 C   0  0  0  0  0  0  0  0  0  0  0  0
   -0.0830   63.5920   70.2780 C   0  0  0  0  0  0  0  0  0  0  0  0
    0.0210   65.7460   71.6070 C   0  0  0  0  0  0  0  0  0  0  0  0
   -0.2942   68.7095   68.2084 H   0  0  0  0  0  0  0  0  0  0  0  0
    2.0199   67.2939   64.9829 H   0  0  0  0  0  0  0  0  0  0  0  0
    3.0457   67.6002   62.7277 H   0  0  0  0  0  0  0  0  0  0  0  0
    1.8855   68.9757   61.0031 H   0  0  0  0  0  0  0  0  0  0  0  0
   -0.2917   70.0689   61.5310 H   0  0  0  0  0  0  0  0  0  0  0  0
   -1.3203   69.7752   63.7843 H   0  0  0  0  0  0  0  0  0  0  0  0
    1.9147   68.0592   69.4894 H   0  0  0  0  0  0  0  0  0  0  0  0
    2.4548   67.3633   67.9401 H   0  0  0  0  0  0  0  0  0  0  0  0
    3.3048   70.4078   70.1769 H   0  0  0  0  0  0  0  0  0  0  0  0
    5.6342   71.2460   70.2638 H   0  0  0  0  0  0  0  0  0  0  0  0
    7.0922   71.1997   68.2250 H   0  0  0  0  0  0  0  0  0  0  0  0
    3.1241   68.8702   65.2011 H   0  0  0  0  0  0  0  0  0  0  0  0
    7.0564   70.4152   65.5317 H   0  0  0  0  0  0  0  0  0  0  0  0
    6.4303   68.5495   63.4931 H   0  0  0  0  0  0  0  0  0  0  0  0
    4.7232   68.7857   62.9865 H   0  0  0  0  0  0  0  0  0  0  0  0
    5.8607   70.1760   62.9865 H   0  0  0  0  0  0  0  0  0  0  0  0
   -0.6349   67.1148   69.8475 H   0  0  0  0  0  0  0  0  0  0  0  0
   -1.0487   66.1770   68.3567 H   0  0  0  0  0  0  0  0  0  0  0  0
    0.8306   64.9808   68.4791 H   0  0  0  0  0  0  0  0  0  0  0  0
    1.6675   66.2296   69.3765 H   0  0  0  0  0  0  0  0  0  0  0  0
    2.1827   64.5320   72.0736 H   0  0  0  0  0  0  0  0  0  0  0  0
    2.4068   63.5560   70.5823 H   0  0  0  0  0  0  0  0  0  0  0  0
    2.8206   65.3040   70.5823 H   0  0  0  0  0  0  0  0  0  0  0  0
   -0.3605   63.1317   71.2378 H   0  0  0  0  0  0  0  0  0  0  0  0
   -0.9933   63.8217   69.7047 H   0  0  0  0  0  0  0  0  0  0  0  0
    0.5450   62.8942   69.7047 H   0  0  0  0  0  0  0  0  0  0  0  0
    0.3059   65.3821   72.6052 H   0  0  0  0  0  0  0  0  0  0  0  0
    0.3430   66.7915   71.4921 H   0  0  0  0  0  0  0  0  0  0  0  0
   -1.0712   65.6840   71.4921 H   0  0  0  0  0  0  0  0  0  0  0  0
  2  1  1  0
  4  3  2  0
  4  2  1  0
  5  4  1  0
  6  5  2  0
  7  6  1  0
  8  7  2  0
  9  8  1  0
 10  5  1  0
 10  9  2  0
 11  1  1  0
 12 11  1  0
 13 12  1  0
 14 13  2  0
 15 14  1  0
 16 15  2  0
 17 16  1  0
 18 17  2  0
 18 13  1  0
 19 18  1  0
 20 19  2  0
 21 20  1  0
 21 17  1  0
 22 20  1  0
 23  1  1  0
 24 23  1  0
 25 24  1  0
 26 25  1  0
 27 25  1  0
 28 25  1  0
  1 29  1  6
  6 30  1  0
  7 31  1  0
  8 32  1  0
  9 33  1  0
 10 34  1  0
 11 35  1  0
 11 36  1  0
 14 37  1  0
 15 38  1  0
 16 39  1  0
 19 40  1  0
 21 41  1  0
 22 42  1  0
 22 43  1  0
 22 44  1  0
 23 45  1  0
 23 46  1  0
 24 47  1  0
 24 48  1  0
 26 49  1  0
 26 50  1  0
 26 51  1  0
 27 52  1  0
 27 53  1  0
 27 54  1  0
 28 55  1  0
 28 56  1  0
 28 57  1  0
M  CHG  1  24   1
M  END
>  <score>  (3) 
-9.768

$$$$
=
     RDKit          3D

 57 59  0  0  0  0  0  0  0  0999 V2000
    1.4810   68.0240   67.6540 C   0  0  2  0  0  0  0  0  0  0  0  0
    1.7450   69.4380   67.7000 O   0  0  0  0  0  0  0  0  0  0  0  0
    2.9630   69.9930   69.5440 O   0  0  0  0  0  0  0  0  0  0  0  0
    2.8970   69.7730   68.3440 C   0  0  0  0  0  0  0  0  0  0  0  0
    4.0430   69.8620   67.4030 C   0  0  0  0  0  0  0  0  0  0  0  0
    3.9390   69.4890   66.0560 C   0  0  0  0  0  0  0  0  0  0  0  0
    5.0500   69.5960   65.2150 C   0  0  0  0  0  0  0  0  0  0  0  0
    6.2610   70.0760   65.7120 C   0  0  0  0  0  0  0  0  0  0  0  0
    6.3710   70.4460   67.0510 C   0  0  0  0  0  0  0  0  0  0  0  0
    5.2640   70.3410   67.8960 C   0  0  0  0  0  0  0  0  0  0  0  0
    0.4500   67.7650   66.5460 C   0  0  0  0  0  0  0  0  0  0  0  0
    0.8530   66.5810   65.8520 O   0  0  0  0  0  0  0  0  0  0  0  0
    1.8200   66.7060   64.8930 C   0  0  0  0  0  0  0  0  0  0  0  0
    3.0560   66.0410   64.9000 C   0  0  0  0  0  0  0  0  0  0  0  0
    4.0020   66.2670   63.8970 C   0  0  0  0  0  0  0  0  0  0  0  0
    3.7530   67.1590   62.8540 C   0  0  0  0  0  0  0  0  0  0  0  0
    2.5140   67.8060   62.8450 C   0  0  0  0  0  0  0  0  0  0  0  0
    1.5460   67.5970   63.8270 C   0  0  0  0  0  0  0  0  0  0  0  0
    0.4220   68.3960   63.4660 C   0  0  0  0  0  0  0  0  0  0  0  0
    0.7280   69.0800   62.3090 C   0  0  0  0  0  0  0  0  0  0  0  0
    2.0000   68.7120   61.9440 N   0  0  0  0  0  0  0  0  0  0  0  0
   -0.0680   70.0320   61.4960 C   0  0  0  0  0  0  0  0  0  0  0  0
    0.9560   67.5090   69.0170 C   0  0  0  0  0  0  0  0  0  0  0  0
    0.6740   66.0300   68.9710 N   0  0  0  0  0  4  0  0  0  0  0  0
    0.6950   65.2420   70.2620 C   0  0  0  0  0  0  0  0  0  0  0  0
    2.1720   64.9780   70.5870 C   0  0  0  0  0  0  0  0  0  0  0  0
   -0.0330   63.9110   70.0550 C   0  0  0  0  0  0  0  0  0  0  0  0
    0.0590   66.0650   71.3840 C   0  0  0  0  0  0  0  0  0  0  0  0
    2.4134   67.4813   67.4393 H   0  0  0  0  0  0  0  0  0  0  0  0
    2.9839   69.1124   65.6612 H   0  0  0  0  0  0  0  0  0  0  0  0
    4.9689   69.3008   64.1585 H   0  0  0  0  0  0  0  0  0  0  0  0
    7.1318   70.1629   65.0455 H   0  0  0  0  0  0  0  0  0  0  0  0
    7.3286   70.8203   67.4420 H   0  0  0  0  0  0  0  0  0  0  0  0
    5.3509   70.6354   68.9523 H   0  0  0  0  0  0  0  0  0  0  0  0
   -0.5472   67.6207   66.9872 H   0  0  0  0  0  0  0  0  0  0  0  0
    0.3996   68.6203   65.8561 H   0  0  0  0  0  0  0  0  0  0  0  0
    3.2836   65.3304   65.7082 H   0  0  0  0  0  0  0  0  0  0  0  0
    4.9620   65.7310   63.9305 H   0  0  0  0  0  0  0  0  0  0  0  0
    4.5016   67.3458   62.0700 H   0  0  0  0  0  0  0  0  0  0  0  0
   -0.5281   68.4564   64.0171 H   0  0  0  0  0  0  0  0  0  0  0  0
    2.4987   69.0637   61.1142 H   0  0  0  0  0  0  0  0  0  0  0  0
   -0.6293   70.7033   62.1626 H   0  0  0  0  0  0  0  0  0  0  0  0
    0.6066   70.6254   60.8613 H   0  0  0  0  0  0  0  0  0  0  0  0
   -0.7715   69.4732   60.8613 H   0  0  0  0  0  0  0  0  0  0  0  0
    1.7133   67.7056   69.7902 H   0  0  0  0  0  0  0  0  0  0  0  0
    0.0179   68.0345   69.2489 H   0  0  0  0  0  0  0  0  0  0  0  0
   -0.2636   65.9135   68.5609 H   0  0  0  0  0  0  0  0  0  0  0  0
    1.4617   65.6437   68.4314 H   0  0  0  0  0  0  0  0  0  0  0  0
    2.3086   64.9536   71.6782 H   0  0  0  0  0  0  0  0  0  0  0  0
    2.4748   64.0115   70.1578 H   0  0  0  0  0  0  0  0  0  0  0  0
    2.7909   65.7798   70.1578 H   0  0  0  0  0  0  0  0  0  0  0  0
   -0.2746   63.4693   71.0330 H   0  0  0  0  0  0  0  0  0  0  0  0
   -0.9617   64.0848   69.4916 H   0  0  0  0  0  0  0  0  0  0  0  0
    0.6143   63.2228   69.4916 H   0  0  0  0  0  0  0  0  0  0  0  0
    0.3716   65.6604   72.3580 H   0  0  0  0  0  0  0  0  0  0  0  0
    0.3847   67.1123   71.3004 H   0  0  0  0  0  0  0  0  0  0  0  0
   -1.0366   66.0140   71.3004 H   0  0  0  0  0  0  0  0  0  0  0  0
  2  1  1  0
  4  3  2  0
  4  2  1  0
  5  4  1  0
  6  5  2  0
  7  6  1  0
  8  7  2  0
  9  8  1  0
 10  5  1  0
 10  9  2  0
 11  1  1  0
 12 11  1  0
 13 12  1  0
 14 13  2  0
 15 14  1  0
 16 15  2  0
 17 16  1  0
 18 17  2  0
 18 13  1  0
 19 18  1  0
 20 19  2  0
 21 20  1  0
 21 17  1  0
 22 20  1  0
 23  1  1  0
 24 23  1  0
 25 24  1  0
 26 25  1  0
 27 25  1  0
 28 25  1  0
  1 29  1  6
  6 30  1  0
  7 31  1  0
  8 32  1  0
  9 33  1  0
 10 34  1  0
 11 35  1  0
 11 36  1  0
 14 37  1  0
 15 38  1  0
 16 39  1  0
 19 40  1  0
 21 41  1  0
 22 42  1  0
 22 43  1  0
 22 44  1  0
 23 45  1  0
 23 46  1  0
 24 47  1  0
 24 48  1  0
 26 49  1  0
 26 50  1  0
 26 51  1  0
 27 52  1  0
 27 53  1  0
 27 54  1  0
 28 55  1  0
 28 56  1  0
 28 57  1  0
M  CHG  1  24   1
M  END
>  <score>  (4) 
-9.568

$$$$
=
     RDKit          3D

 57 59  0  0  0  0  0  0  0  0999 V2000
    1.5650   67.5400   67.2770 C   0  0  2  0  0  0  0  0  0  0  0  0
    1.7510   68.8660   66.7470 O   0  0  0  0  0  0  0  0  0  0  0  0
    1.6960   70.3390   68.4840 O   0  0  0  0  0  0  0  0  0  0  0  0
    2.3200   69.7440   67.6180 C   0  0  0  0  0  0  0  0  0  0  0  0
    3.7740   69.9030   67.3620 C   0  0  0  0  0  0  0  0  0  0  0  0
    4.3680   69.5330   66.1480 C   0  0  0  0  0  0  0  0  0  0  0  0
    5.7420   69.7070   65.9610 C   0  0  0  0  0  0  0  0  0  0  0  0
    6.5240   70.2500   66.9800 C   0  0  0  0  0  0  0  0  0  0  0  0
    5.9390   70.6180   68.1910 C   0  0  0  0  0  0  0  0  0  0  0  0
    4.5670   70.4450   68.3830 C   0  0  0  0  0  0  0  0  0  0  0  0
    2.2920   66.5510   66.3570 C   0  0  0  0  0  0  0  0  0  0  0  0
    1.6820   66.6340   65.0670 O   0  0  0  0  0  0  0  0  0  0  0  0
    2.4790   66.9820   64.0090 C   0  0  0  0  0  0  0  0  0  0  0  0
    3.7900   66.5280   63.8020 C   0  0  0  0  0  0  0  0  0  0  0  0
    4.5440   66.9760   62.7140 C   0  0  0  0  0  0  0  0  0  0  0  0
    4.0210   67.8860   61.7960 C   0  0  0  0  0  0  0  0  0  0  0  0
    2.7100   68.3220   62.0000 C   0  0  0  0  0  0  0  0  0  0  0  0
    1.9290   67.8900   63.0730 C   0  0  0  0  0  0  0  0  0  0  0  0
    0.6580   68.5190   62.9280 C   0  0  0  0  0  0  0  0  0  0  0  0
    0.6950   69.3240   61.8100 C   0  0  0  0  0  0  0  0  0  0  0  0
    1.9450   69.1940   61.2580 N   0  0  0  0  0  0  0  0  0  0  0  0
   -0.3400   70.1900   61.1930 C   0  0  0  0  0  0  0  0  0  0  0  0
    0.0610   67.1860   67.3780 C   0  0  0  0  0  0  0  0  0  0  0  0
   -0.6920   67.6470   66.1580 N   0  0  0  0  0  4  0  0  0  0  0  0
   -1.9430   68.4780   66.3420 C   0  0  0  0  0  0  0  0  0  0  0  0
   -1.5010   69.7910   67.0020 C   0  0  0  0  0  0  0  0  0  0  0  0
   -2.9120   67.7360   67.2670 C   0  0  0  0  0  0  0  0  0  0  0  0
   -2.5760   68.7710   64.9810 C   0  0  0  0  0  0  0  0  0  0  0  0
    1.9800   67.4865   68.2943 H   0  0  0  0  0  0  0  0  0  0  0  0
    3.7529   69.1057   65.3423 H   0  0  0  0  0  0  0  0  0  0  0  0
    6.2076   69.4151   65.0081 H   0  0  0  0  0  0  0  0  0  0  0  0
    7.6046   70.3883   66.8281 H   0  0  0  0  0  0  0  0  0  0  0  0
    6.5579   71.0442   68.9943 H   0  0  0  0  0  0  0  0  0  0  0  0
    4.1066   70.7351   69.3390 H   0  0  0  0  0  0  0  0  0  0  0  0
    3.3569   66.8174   66.2864 H   0  0  0  0  0  0  0  0  0  0  0  0
    2.2190   65.5278   66.7543 H   0  0  0  0  0  0  0  0  0  0  0  0
    4.2314   65.8082   64.5070 H   0  0  0  0  0  0  0  0  0  0  0  0
    5.5702   66.6035   62.5791 H   0  0  0  0  0  0  0  0  0  0  0  0
    4.6174   68.2462   60.9448 H   0  0  0  0  0  0  0  0  0  0  0  0
   -0.2060   68.3846   63.5954 H   0  0  0  0  0  0  0  0  0  0  0  0
    2.2656   69.6802   60.4085 H   0  0  0  0  0  0  0  0  0  0  0  0
   -0.9265   70.6807   61.9837 H   0  0  0  0  0  0  0  0  0  0  0  0
    0.1460   70.9545   60.5689 H   0  0  0  0  0  0  0  0  0  0  0  0
   -1.0067   69.5768   60.5689 H   0  0  0  0  0  0  0  0  0  0  0  0
   -0.0449   66.0953   67.4737 H   0  0  0  0  0  0  0  0  0  0  0  0
   -0.3577   67.6960   68.2581 H   0  0  0  0  0  0  0  0  0  0  0  0
   -0.0378   68.2065   65.5924 H   0  0  0  0  0  0  0  0  0  0  0  0
   -1.0345   66.7735   65.7330 H   0  0  0  0  0  0  0  0  0  0  0  0
   -1.5377   69.6820   68.0960 H   0  0  0  0  0  0  0  0  0  0  0  0
   -0.4730   70.0295   66.6916 H   0  0  0  0  0  0  0  0  0  0  0  0
   -2.1754   70.6026   66.6916 H   0  0  0  0  0  0  0  0  0  0  0  0
   -2.6466   67.9392   68.3150 H   0  0  0  0  0  0  0  0  0  0  0  0
   -3.9387   68.0810   67.0752 H   0  0  0  0  0  0  0  0  0  0  0  0
   -2.8467   66.6548   67.0752 H   0  0  0  0  0  0  0  0  0  0  0  0
   -3.5653   69.2289   65.1277 H   0  0  0  0  0  0  0  0  0  0  0  0
   -1.9317   69.4625   64.4182 H   0  0  0  0  0  0  0  0  0  0  0  0
   -2.6863   67.8323   64.4182 H   0  0  0  0  0  0  0  0  0  0  0  0
  2  1  1  0
  4  3  2  0
  4  2  1  0
  5  4  1  0
  6  5  2  0
  7  6  1  0
  8  7  2  0
  9  8  1  0
 10  5  1  0
 10  9  2  0
 11  1  1  0
 12 11  1  0
 13 12  1  0
 14 13  2  0
 15 14  1  0
 16 15  2  0
 17 16  1  0
 18 17  2  0
 18 13  1  0
 19 18  1  0
 20 19  2  0
 21 20  1  0
 21 17  1  0
 22 20  1  0
 23  1  1  0
 24 23  1  0
 25 24  1  0
 26 25  1  0
 27 25  1  0
 28 25  1  0
  1 29  1  1
  6 30  1  0
  7 31  1  0
  8 32  1  0
  9 33  1  0
 10 34  1  0
 11 35  1  0
 11 36  1  0
 14 37  1  0
 15 38  1  0
 16 39  1  0
 19 40  1  0
 21 41  1  0
 22 42  1  0
 22 43  1  0
 22 44  1  0
 23 45  1  0
 23 46  1  0
 24 47  1  0
 24 48  1  0
 26 49  1  0
 26 50  1  0
 26 51  1  0
 27 52  1  0
 27 53  1  0
 27 54  1  0
 28 55  1  0
 28 56  1  0
 28 57  1  0
M  CHG  1  24   1
M  END
>  <score>  (5) 
-9.524

$$$$
=
     RDKit          3D

 57 59  0  0  0  0  0  0  0  0999 V2000
    1.2430   68.1500   67.8700 C   0  0  2  0  0  0  0  0  0  0  0  0
    2.2800   68.7010   68.7030 O   0  0  0  0  0  0  0  0  0  0  0  0
    1.7400   70.8930   68.3960 O   0  0  0  0  0  0  0  0  0  0  0  0
    2.5760   70.0040   68.4400 C   0  0  0  0  0  0  0  0  0  0  0  0
    4.0280   70.1950   68.1890 C   0  0  0  0  0  0  0  0  0  0  0  0
    4.6330   69.8390   66.9760 C   0  0  0  0  0  0  0  0  0  0  0  0
    6.0030   70.0420   66.7930 C   0  0  0  0  0  0  0  0  0  0  0  0
    6.7710   70.6010   67.8150 C   0  0  0  0  0  0  0  0  0  0  0  0
    6.1750   70.9550   69.0240 C   0  0  0  0  0  0  0  0  0  0  0  0
    4.8060   70.7540   69.2120 C   0  0  0  0  0  0  0  0  0  0  0  0
    0.5150   67.0610   68.6690 C   0  0  0  0  0  0  0  0  0  0  0  0
    1.5010   66.1350   69.1320 O   0  0  0  0  0  0  0  0  0  0  0  0
    1.2120   65.4090   70.2550 C   0  0  0  0  0  0  0  0  0  0  0  0
    0.2070   65.7220   71.1840 C   0  0  0  0  0  0  0  0  0  0  0  0
    0.0150   64.9440   72.3280 C   0  0  0  0  0  0  0  0  0  0  0  0
    0.8130   63.8290   72.5880 C   0  0  0  0  0  0  0  0  0  0  0  0
    1.8010   63.5150   71.6520 C   0  0  0  0  0  0  0  0  0  0  0  0
    2.0140   64.2680   70.4970 C   0  0  0  0  0  0  0  0  0  0  0  0
    3.0700   63.6280   69.7840 C   0  0  0  0  0  0  0  0  0  0  0  0
    3.4880   62.5370   70.5140 C   0  0  0  0  0  0  0  0  0  0  0  0
    2.7100   62.4800   71.6440 N   0  0  0  0  0  0  0  0  0  0  0  0
    4.5370   61.5220   70.2430 C   0  0  0  0  0  0  0  0  0  0  0  0
    1.8300   67.5650   66.5610 C   0  0  0  0  0  0  0  0  0  0  0  0
    1.7080   68.5430   65.4230 N   0  0  0  0  0  4  0  0  0  0  0  0
    2.2430   68.1510   64.0630 C   0  0  0  0  0  0  0  0  0  0  0  0
    2.6280   66.6680   64.1560 C   0  0  0  0  0  0  0  0  0  0  0  0
    3.4860   68.9880   63.7480 C   0  0  0  0  0  0  0  0  0  0  0  0
    1.1550   68.3360   63.0040 C   0  0  0  0  0  0  0  0  0  0  0  0
    0.5385   68.9446   67.5831 H   0  0  0  0  0  0  0  0  0  0  0  0
    4.0292   69.3998   66.1682 H   0  0  0  0  0  0  0  0  0  0  0  0
    6.4772   69.7606   65.8412 H   0  0  0  0  0  0  0  0  0  0  0  0
    7.8488   70.7626   67.6662 H   0  0  0  0  0  0  0  0  0  0  0  0
    6.7827   71.3925   69.8298 H   0  0  0  0  0  0  0  0  0  0  0  0
    4.3366   71.0353   70.1662 H   0  0  0  0  0  0  0  0  0  0  0  0
   -0.0091   67.5106   69.5252 H   0  0  0  0  0  0  0  0  0  0  0  0
   -0.2293   66.5514   68.0395 H   0  0  0  0  0  0  0  0  0  0  0  0
   -0.4398   66.5942   71.0081 H   0  0  0  0  0  0  0  0  0  0  0  0
   -0.7805   65.2153   73.0376 H   0  0  0  0  0  0  0  0  0  0  0  0
    0.6696   63.2217   73.4939 H   0  0  0  0  0  0  0  0  0  0  0  0
    3.4809   63.9505   68.8159 H   0  0  0  0  0  0  0  0  0  0  0  0
    2.7941   61.7651   72.3808 H   0  0  0  0  0  0  0  0  0  0  0  0
    4.9321   61.1397   71.1957 H   0  0  0  0  0  0  0  0  0  0  0  0
    4.1035   60.6917   69.6662 H   0  0  0  0  0  0  0  0  0  0  0  0
    5.3526   61.9826   69.6662 H   0  0  0  0  0  0  0  0  0  0  0  0
    2.8928   67.3292   66.7187 H   0  0  0  0  0  0  0  0  0  0  0  0
    1.2649   66.6576   66.3017 H   0  0  0  0  0  0  0  0  0  0  0  0
    0.7053   68.7476   65.3061 H   0  0  0  0  0  0  0  0  0  0  0  0
    2.3064   69.3315   65.7077 H   0  0  0  0  0  0  0  0  0  0  0  0
    2.7042   66.3746   65.2134 H   0  0  0  0  0  0  0  0  0  0  0  0
    1.8585   66.0577   63.6606 H   0  0  0  0  0  0  0  0  0  0  0  0
    3.5972   66.5090   63.6606 H   0  0  0  0  0  0  0  0  0  0  0  0
    3.9606   69.3076   64.6875 H   0  0  0  0  0  0  0  0  0  0  0  0
    4.1968   68.3839   63.1651 H   0  0  0  0  0  0  0  0  0  0  0  0
    3.1935   69.8738   63.1651 H   0  0  0  0  0  0  0  0  0  0  0  0
    0.1863   68.5007   63.4984 H   0  0  0  0  0  0  0  0  0  0  0  0
    1.3987   69.2056   62.3760 H   0  0  0  0  0  0  0  0  0  0  0  0
    1.0976   67.4347   62.3760 H   0  0  0  0  0  0  0  0  0  0  0  0
  2  1  1  0
  4  3  2  0
  4  2  1  0
  5  4  1  0
  6  5  2  0
  7  6  1  0
  8  7  2  0
  9  8  1  0
 10  5  1  0
 10  9  2  0
 11  1  1  0
 12 11  1  0
 13 12  1  0
 14 13  2  0
 15 14  1  0
 16 15  2  0
 17 16  1  0
 18 17  2  0
 18 13  1  0
 19 18  1  0
 20 19  2  0
 21 20  1  0
 21 17  1  0
 22 20  1  0
 23  1  1  0
 24 23  1  0
 25 24  1  0
 26 25  1  0
 27 25  1  0
 28 25  1  0
  1 29  1  6
  6 30  1  0
  7 31  1  0
  8 32  1  0
  9 33  1  0
 10 34  1  0
 11 35  1  0
 11 36  1  0
 14 37  1  0
 15 38  1  0
 16 39  1  0
 19 40  1  0
 21 41  1  0
 22 42  1  0
 22 43  1  0
 22 44  1  0
 23 45  1  0
 23 46  1  0
 24 47  1  0
 24 48  1  0
 26 49  1  0
 26 50  1  0
 26 51  1  0
 27 52  1  0
 27 53  1  0
 27 54  1  0
 28 55  1  0
 28 56  1  0
 28 57  1  0
M  CHG  1  24   1
M  END
>  <score>  (6) 
-9.341

$$$$
=
     RDKit          3D

 57 59  0  0  0  0  0  0  0  0999 V2000
    4.0700   69.2390   66.1340 C   0  0  2  0  0  0  0  0  0  0  0  0
    3.4380   69.4140   64.8520 O   0  0  0  0  0  0  0  0  0  0  0  0
    4.5410   69.1560   62.8760 O   0  0  0  0  0  0  0  0  0  0  0  0
    3.9860   68.6730   63.8510 C   0  0  0  0  0  0  0  0  0  0  0  0
    3.7960   67.2180   64.0810 C   0  0  0  0  0  0  0  0  0  0  0  0
    2.5960   66.6850   64.5710 C   0  0  0  0  0  0  0  0  0  0  0  0
    2.4710   65.3080   64.7670 C   0  0  0  0  0  0  0  0  0  0  0  0
    3.5400   64.4600   64.4750 C   0  0  0  0  0  0  0  0  0  0  0  0
    4.7370   64.9830   63.9900 C   0  0  0  0  0  0  0  0  0  0  0  0
    4.8660   66.3600   63.7930 C   0  0  0  0  0  0  0  0  0  0  0  0
    3.0240   69.5050   67.2250 C   0  0  0  0  0  0  0  0  0  0  0  0
    1.7440   69.1690   66.6840 O   0  0  0  0  0  0  0  0  0  0  0  0
    0.9410   68.3410   67.4200 C   0  0  0  0  0  0  0  0  0  0  0  0
    1.3750   67.5230   68.4750 C   0  0  0  0  0  0  0  0  0  0  0  0
    0.4880   66.6740   69.1410 C   0  0  0  0  0  0  0  0  0  0  0  0
   -0.8590   66.6090   68.7830 C   0  0  0  0  0  0  0  0  0  0  0  0
   -1.2870   67.4360   67.7420 C   0  0  0  0  0  0  0  0  0  0  0  0
   -0.4280   68.3000   67.0620 C   0  0  0  0  0  0  0  0  0  0  0  0
   -1.2240   68.9930   66.1040 C   0  0  0  0  0  0  0  0  0  0  0  0
   -2.5190   68.5320   66.1990 C   0  0  0  0  0  0  0  0  0  0  0  0
   -2.5420   67.5880   67.1970 N   0  0  0  0  0  0  0  0  0  0  0  0
   -3.7480   68.9070   65.4570 C   0  0  0  0  0  0  0  0  0  0  0  0
    5.2800   70.1920   66.2950 C   0  0  0  0  0  0  0  0  0  0  0  0
    6.0690   69.8680   67.5360 N   0  0  0  0  0  4  0  0  0  0  0  0
    6.1120   70.8810   68.6590 C   0  0  0  0  0  0  0  0  0  0  0  0
    5.9210   72.2590   68.0120 C   0  0  0  0  0  0  0  0  0  0  0  0
    7.4790   70.8190   69.3450 C   0  0  0  0  0  0  0  0  0  0  0  0
    4.9730   70.6110   69.6450 C   0  0  0  0  0  0  0  0  0  0  0  0
    4.4529   68.2113   66.2191 H   0  0  0  0  0  0  0  0  0  0  0  0
    1.7520   67.3518   64.8014 H   0  0  0  0  0  0  0  0  0  0  0  0
    1.5286   64.8913   65.1521 H   0  0  0  0  0  0  0  0  0  0  0  0
    3.4375   63.3755   64.6281 H   0  0  0  0  0  0  0  0  0  0  0  0
    5.5790   64.3127   63.7626 H   0  0  0  0  0  0  0  0  0  0  0  0
    5.8112   66.7725   63.4103 H   0  0  0  0  0  0  0  0  0  0  0  0
    3.2343   68.8820   68.1069 H   0  0  0  0  0  0  0  0  0  0  0  0
    3.0484   70.5598   67.5363 H   0  0  0  0  0  0  0  0  0  0  0  0
    2.4308   67.5510   68.7823 H   0  0  0  0  0  0  0  0  0  0  0  0
    0.8585   66.0446   69.9635 H   0  0  0  0  0  0  0  0  0  0  0  0
   -1.5562   65.9333   69.3001 H   0  0  0  0  0  0  0  0  0  0  0  0
   -0.8654   69.7648   65.4071 H   0  0  0  0  0  0  0  0  0  0  0  0
   -3.3795   67.0678   67.4951 H   0  0  0  0  0  0  0  0  0  0  0  0
   -4.5477   69.1510   66.1717 H   0  0  0  0  0  0  0  0  0  0  0  0
   -3.5416   69.7830   64.8246 H   0  0  0  0  0  0  0  0  0  0  0  0
   -4.0658   68.0649   64.8246 H   0  0  0  0  0  0  0  0  0  0  0  0
    5.9351   70.0911   65.4171 H   0  0  0  0  0  0  0  0  0  0  0  0
    4.9025   71.2215   66.3820 H   0  0  0  0  0  0  0  0  0  0  0  0
    5.6755   68.9999   67.9266 H   0  0  0  0  0  0  0  0  0  0  0  0
    7.0435   69.8215   67.2058 H   0  0  0  0  0  0  0  0  0  0  0  0
    5.8153   73.0215   68.7977 H   0  0  0  0  0  0  0  0  0  0  0  0
    6.7950   72.4950   67.3872 H   0  0  0  0  0  0  0  0  0  0  0  0
    5.0157   72.2484   67.3872 H   0  0  0  0  0  0  0  0  0  0  0  0
    7.3421   70.8252   70.4364 H   0  0  0  0  0  0  0  0  0  0  0  0
    7.9979   69.8964   69.0458 H   0  0  0  0  0  0  0  0  0  0  0  0
    8.0793   71.6908   69.0458 H   0  0  0  0  0  0  0  0  0  0  0  0
    5.3502   70.7004   70.6744 H   0  0  0  0  0  0  0  0  0  0  0  0
    4.1679   71.3432   69.4846 H   0  0  0  0  0  0  0  0  0  0  0  0
    4.5822   69.5953   69.4846 H   0  0  0  0  0  0  0  0  0  0  0  0
  2  1  1  0
  4  3  2  0
  4  2  1  0
  5  4  1  0
  6  5  2  0
  7  6  1  0
  8  7  2  0
  9  8  1  0
 10  5  1  0
 10  9  2  0
 11  1  1  0
 12 11  1  0
 13 12  1  0
 14 13  2  0
 15 14  1  0
 16 15  2  0
 17 16  1  0
 18 17  2  0
 18 13  1  0
 19 18  1  0
 20 19  2  0
 21 20  1  0
 21 17  1  0
 22 20  1  0
 23  1  1  0
 24 23  1  0
 25 24  1  0
 26 25  1  0
 27 25  1  0
 28 25  1  0
  1 29  1  6
  6 30  1  0
  7 31  1  0
  8 32  1  0
  9 33  1  0
 10 34  1  0
 11 35  1  0
 11 36  1  0
 14 37  1  0
 15 38  1  0
 16 39  1  0
 19 40  1  0
 21 41  1  0
 22 42  1  0
 22 43  1  0
 22 44  1  0
 23 45  1  0
 23 46  1  0
 24 47  1  0
 24 48  1  0
 26 49  1  0
 26 50  1  0
 26 51  1  0
 27 52  1  0
 27 53  1  0
 27 54  1  0
 28 55  1  0
 28 56  1  0
 28 57  1  0
M  CHG  1  24   1
M  END
>  <score>  (7) 
-9.238

$$$$
=
     RDKit          3D

 57 59  0  0  0  0  0  0  0  0999 V2000
    1.4690   67.7130   67.9480 C   0  0  2  0  0  0  0  0  0  0  0  0
    1.8600   68.8670   67.1800 O   0  0  0  0  0  0  0  0  0  0  0  0
    1.8180   70.5530   68.7120 O   0  0  0  0  0  0  0  0  0  0  0  0
    2.4320   69.8610   67.9140 C   0  0  0  0  0  0  0  0  0  0  0  0
    3.8750   70.0110   67.5990 C   0  0  0  0  0  0  0  0  0  0  0  0
    4.7870   70.5730   68.5040 C   0  0  0  0  0  0  0  0  0  0  0  0
    6.1350   70.6890   68.1560 C   0  0  0  0  0  0  0  0  0  0  0  0
    6.5770   70.2440   66.9090 C   0  0  0  0  0  0  0  0  0  0  0  0
    5.6750   69.6870   66.0050 C   0  0  0  0  0  0  0  0  0  0  0  0
    4.3270   69.5700   66.3480 C   0  0  0  0  0  0  0  0  0  0  0  0
    1.8330   66.4580   67.1430 C   0  0  0  0  0  0  0  0  0  0  0  0
    1.9920   66.8520   65.7780 O   0  0  0  0  0  0  0  0  0  0  0  0
    2.8280   66.1040   64.9950 C   0  0  0  0  0  0  0  0  0  0  0  0
    3.2670   64.8050   65.2920 C   0  0  0  0  0  0  0  0  0  0  0  0
    4.1590   64.1350   64.4520 C   0  0  0  0  0  0  0  0  0  0  0  0
    4.6430   64.7310   63.2870 C   0  0  0  0  0  0  0  0  0  0  0  0
    4.1900   66.0180   62.9890 C   0  0  0  0  0  0  0  0  0  0  0  0
    3.2960   66.7120   63.8050 C   0  0  0  0  0  0  0  0  0  0  0  0
    3.0480   67.9610   63.1650 C   0  0  0  0  0  0  0  0  0  0  0  0
    3.7980   68.0150   62.0100 C   0  0  0  0  0  0  0  0  0  0  0  0
    4.4860   66.8300   61.9160 N   0  0  0  0  0  0  0  0  0  0  0  0
    3.9170   69.0660   60.9680 C   0  0  0  0  0  0  0  0  0  0  0  0
   -0.0470   67.7390   68.2610 C   0  0  0  0  0  0  0  0  0  0  0  0
   -0.8650   67.4610   67.0270 N   0  0  0  0  0  4  0  0  0  0  0  0
   -1.4600   68.6260   66.2670 C   0  0  0  0  0  0  0  0  0  0  0  0
   -2.9490   68.3070   66.0760 C   0  0  0  0  0  0  0  0  0  0  0  0
   -0.7770   68.7420   64.9020 C   0  0  0  0  0  0  0  0  0  0  0  0
   -1.3080   69.9100   67.0850 C   0  0  0  0  0  0  0  0  0  0  0  0
    1.9991   67.7126   68.9118 H   0  0  0  0  0  0  0  0  0  0  0  0
    4.4410   70.9225   69.4879 H   0  0  0  0  0  0  0  0  0  0  0  0
    6.8492   71.1317   68.8658 H   0  0  0  0  0  0  0  0  0  0  0  0
    7.6397   70.3333   66.6395 H   0  0  0  0  0  0  0  0  0  0  0  0
    6.0249   69.3397   65.0217 H   0  0  0  0  0  0  0  0  0  0  0  0
    3.6163   69.1297   65.6331 H   0  0  0  0  0  0  0  0  0  0  0  0
    2.7724   66.0288   67.5215 H   0  0  0  0  0  0  0  0  0  0  0  0
    1.0446   65.6966   67.2363 H   0  0  0  0  0  0  0  0  0  0  0  0
    2.9024   64.3058   66.2019 H   0  0  0  0  0  0  0  0  0  0  0  0
    4.4863   63.1180   64.7138 H   0  0  0  0  0  0  0  0  0  0  0  0
    5.3531   64.2080   62.6295 H   0  0  0  0  0  0  0  0  0  0  0  0
    2.3726   68.7484   63.5308 H   0  0  0  0  0  0  0  0  0  0  0  0
    5.1314   66.5835   61.1521 H   0  0  0  0  0  0  0  0  0  0  0  0
    4.0283   70.0487   61.4495 H   0  0  0  0  0  0  0  0  0  0  0  0
    4.7979   68.8629   60.3413 H   0  0  0  0  0  0  0  0  0  0  0  0
    3.0130   69.0650   60.3413 H   0  0  0  0  0  0  0  0  0  0  0  0
   -0.2697   66.9733   69.0187 H   0  0  0  0  0  0  0  0  0  0  0  0
   -0.3079   68.7410   68.6323 H   0  0  0  0  0  0  0  0  0  0  0  0
   -0.2577   66.9502   66.3704 H   0  0  0  0  0  0  0  0  0  0  0  0
   -1.6863   66.9515   67.3832 H   0  0  0  0  0  0  0  0  0  0  0  0
   -3.4309   68.2037   67.0594 H   0  0  0  0  0  0  0  0  0  0  0  0
   -3.4298   69.1225   65.5159 H   0  0  0  0  0  0  0  0  0  0  0  0
   -3.0535   67.3661   65.5159 H   0  0  0  0  0  0  0  0  0  0  0  0
    0.2983   68.9246   65.0444 H   0  0  0  0  0  0  0  0  0  0  0  0
   -0.9189   67.8069   64.3403 H   0  0  0  0  0  0  0  0  0  0  0  0
   -1.2197   69.5778   64.3403 H   0  0  0  0  0  0  0  0  0  0  0  0
   -1.3368   69.6671   68.1575 H   0  0  0  0  0  0  0  0  0  0  0  0
   -0.3471   70.3874   66.8428 H   0  0  0  0  0  0  0  0  0  0  0  0
   -2.1309   70.5986   66.8428 H   0  0  0  0  0  0  0  0  0  0  0  0
  2  1  1  0
  4  3  2  0
  4  2  1  0
  5  4  1  0
  6  5  2  0
  7  6  1  0
  8  7  2  0
  9  8  1  0
 10  5  1  0
 10  9  2  0
 11  1  1  0
 12 11  1  0
 13 12  1  0
 14 13  2  0
 15 14  1  0
 16 15  2  0
 17 16  1  0
 18 17  2  0
 18 13  1  0
 19 18  1  0
 20 19  2  0
 21 20  1  0
 21 17  1  0
 22 20  1  0
 23  1  1  0
 24 23  1  0
 25 24  1  0
 26 25  1  0
 27 25  1  0
 28 25  1  0
  1 29  1  1
  6 30  1  0
  7 31  1  0
  8 32  1  0
  9 33  1  0
 10 34  1  0
 11 35  1  0
 11 36  1  0
 14 37  1  0
 15 38  1  0
 16 39  1  0
 19 40  1  0
 21 41  1  0
 22 42  1  0
 22 43  1  0
 22 44  1  0
 23 45  1  0
 23 46  1  0
 24 47  1  0
 24 48  1  0
 26 49  1  0
 26 50  1  0
 26 51  1  0
 27 52  1  0
 27 53  1  0
 27 54  1  0
 28 55  1  0
 28 56  1  0
 28 57  1  0
M  CHG  1  24   1
M  END
>  <score>  (8) 
-9.069

$$$$
=
     RDKit          3D

 57 59  0  0  0  0  0  0  0  0999 V2000
    1.2290   64.3600   70.2370 C   0  0  2  0  0  0  0  0  0  0  0  0
    2.6520   64.2110   70.3960 O   0  0  0  0  0  0  0  0  0  0  0  0
    3.2360   63.4290   68.3370 O   0  0  0  0  0  0  0  0  0  0  0  0
    3.2180   63.3040   69.5520 C   0  0  0  0  0  0  0  0  0  0  0  0
    3.7780   62.1440   70.2920 C   0  0  0  0  0  0  0  0  0  0  0  0
    4.9400   62.2390   71.0700 C   0  0  0  0  0  0  0  0  0  0  0  0
    5.4210   61.1160   71.7470 C   0  0  0  0  0  0  0  0  0  0  0  0
    4.7460   59.8990   71.6520 C   0  0  0  0  0  0  0  0  0  0  0  0
    3.5910   59.7980   70.8780 C   0  0  0  0  0  0  0  0  0  0  0  0
    3.1060   60.9170   70.2000 C   0  0  0  0  0  0  0  0  0  0  0  0
    0.8990   65.8580   70.2470 C   0  0  0  0  0  0  0  0  0  0  0  0
    1.2110   66.3760   68.9520 O   0  0  0  0  0  0  0  0  0  0  0  0
    0.1810   66.8800   68.2050 C   0  0  0  0  0  0  0  0  0  0  0  0
   -1.1760   66.8200   68.5560 C   0  0  0  0  0  0  0  0  0  0  0  0
   -2.1640   67.3230   67.7060 C   0  0  0  0  0  0  0  0  0  0  0  0
   -1.8380   67.9040   66.4800 C   0  0  0  0  0  0  0  0  0  0  0  0
   -0.4830   67.9730   66.1440 C   0  0  0  0  0  0  0  0  0  0  0  0
    0.5270   67.4860   66.9730 C   0  0  0  0  0  0  0  0  0  0  0  0
    1.7610   67.7610   66.3150 C   0  0  0  0  0  0  0  0  0  0  0  0
    1.4850   68.3750   65.1130 C   0  0  0  0  0  0  0  0  0  0  0  0
    0.1200   68.4980   65.0220 N   0  0  0  0  0  0  0  0  0  0  0  0
    2.3820   68.8820   64.0440 C   0  0  0  0  0  0  0  0  0  0  0  0
    0.4630   63.6260   71.3660 C   0  0  0  0  0  0  0  0  0  0  0  0
    1.3420   63.4050   72.5680 N   0  0  0  0  0  4  0  0  0  0  0  0
    1.1030   62.1880   73.4350 C   0  0  0  0  0  0  0  0  0  0  0  0
    0.2360   62.6540   74.6120 C   0  0  0  0  0  0  0  0  0  0  0  0
    2.4440   61.6650   73.9570 C   0  0  0  0  0  0  0  0  0  0  0  0
    0.3540   61.1200   72.6340 C   0  0  0  0  0  0  0  0  0  0  0  0
    0.9146   63.9100   69.2838 H   0  0  0  0  0  0  0  0  0  0  0  0
    5.4732   63.1980   71.1474 H   0  0  0  0  0  0  0  0  0  0  0  0
    6.3338   61.1914   72.3562 H   0  0  0  0  0  0  0  0  0  0  0  0
    5.1258   59.0173   72.1889 H   0  0  0  0  0  0  0  0  0  0  0  0
    3.0621   58.8365   70.8018 H   0  0  0  0  0  0  0  0  0  0  0  0
    2.1933   60.8362   69.5913 H   0  0  0  0  0  0  0  0  0  0  0  0
   -0.1694   66.0056   70.4630 H   0  0  0  0  0  0  0  0  0  0  0  0
    1.4812   66.3775   71.0223 H   0  0  0  0  0  0  0  0  0  0  0  0
   -1.4669   66.3694   69.5164 H   0  0  0  0  0  0  0  0  0  0  0  0
   -3.2195   67.2598   68.0091 H   0  0  0  0  0  0  0  0  0  0  0  0
   -2.6156   68.2919   65.8055 H   0  0  0  0  0  0  0  0  0  0  0  0
    2.7632   67.5234   66.7012 H   0  0  0  0  0  0  0  0  0  0  0  0
   -0.3812   68.9221   64.2284 H   0  0  0  0  0  0  0  0  0  0  0  0
    3.2536   69.3746   64.4997 H   0  0  0  0  0  0  0  0  0  0  0  0
    2.7204   68.0416   63.4201 H   0  0  0  0  0  0  0  0  0  0  0  0
    1.8366   69.6054   63.4201 H   0  0  0  0  0  0  0  0  0  0  0  0
   -0.4051   64.2326   71.6634 H   0  0  0  0  0  0  0  0  0  0  0  0
    0.1402   62.6453   70.9864 H   0  0  0  0  0  0  0  0  0  0  0  0
    2.3120   63.3471   72.2265 H   0  0  0  0  0  0  0  0  0  0  0  0
    1.1199   64.1979   73.1868 H   0  0  0  0  0  0  0  0  0  0  0  0
    0.7296   62.3887   75.5586 H   0  0  0  0  0  0  0  0  0  0  0  0
    0.1036   63.7448   74.5606 H   0  0  0  0  0  0  0  0  0  0  0  0
   -0.7468   62.1626   74.5606 H   0  0  0  0  0  0  0  0  0  0  0  0
    2.4357   61.6682   75.0570 H   0  0  0  0  0  0  0  0  0  0  0  0
    2.6035   60.6388   73.5945 H   0  0  0  0  0  0  0  0  0  0  0  0
    3.2562   62.3123   73.5945 H   0  0  0  0  0  0  0  0  0  0  0  0
   -0.1370   60.4199   73.3259 H   0  0  0  0  0  0  0  0  0  0  0  0
   -0.4049   61.6020   72.0002 H   0  0  0  0  0  0  0  0  0  0  0  0
    1.0657   60.5706   72.0002 H   0  0  0  0  0  0  0  0  0  0  0  0
  2  1  1  0
  4  3  2  0
  4  2  1  0
  5  4  1  0
  6  5  2  0
  7  6  1  0
  8  7  2  0
  9  8  1  0
 10  5  1  0
 10  9  2  0
 11  1  1  0
 12 11  1  0
 13 12  1  0
 14 13  2  0
 15 14  1  0
 16 15  2  0
 17 16  1  0
 18 17  2  0
 18 13  1  0
 19 18  1  0
 20 19  2  0
 21 20  1  0
 21 17  1  0
 22 20  1  0
 23  1  1  0
 24 23  1  0
 25 24  1  0
 26 25  1  0
 27 25  1  0
 28 25  1  0
  1 29  1  6
  6 30  1  0
  7 31  1  0
  8 32  1  0
  9 33  1  0
 10 34  1  0
 11 35  1  0
 11 36  1  0
 14 37  1  0
 15 38  1  0
 16 39  1  0
 19 40  1  0
 21 41  1  0
 22 42  1  0
 22 43  1  0
 22 44  1  0
 23 45  1  0
 23 46  1  0
 24 47  1  0
 24 48  1  0
 26 49  1  0
 26 50  1  0
 26 51  1  0
 27 52  1  0
 27 53  1  0
 27 54  1  0
 28 55  1  0
 28 56  1  0
 28 57  1  0
M  CHG  1  24   1
M  END
>  <score>  (9) 
-8.831

$$$$
