=
     RDKit          3D

 56 60  0  0  0  0  0  0  0  0999 V2000
    1.2690   65.2410   70.6340 C   0  0  0  0  0  0  0  0  0  0  0  0
    2.3390   64.4840   70.1770 C   0  0  0  0  0  0  0  0  0  0  0  0
    2.4270   63.1370   70.5340 C   0  0  0  0  0  0  0  0  0  0  0  0
    1.4520   62.5310   71.3490 C   0  0  0  0  0  0  0  0  0  0  0  0
    0.3440   63.3070   71.7630 C   0  0  0  0  0  0  0  0  0  0  0  0
    0.2650   64.6630   71.4040 C   0  0  0  0  0  0  0  0  0  0  0  0
   -0.7530   62.7480   72.6370 C   0  0  0  0  0  0  0  0  0  0  0  0
   -0.7540   61.2260   72.7350 C   0  0  0  0  0  0  0  0  0  0  0  0
    0.6710   60.7190   72.9610 C   0  0  2  0  0  0  0  0  0  0  0  0
    1.5310   61.0480   71.7030 C   0  0  2  0  0  0  0  0  0  0  0  0
    2.9700   60.4790   71.8420 C   0  0  0  0  0  0  0  0  0  0  0  0
    3.0110   58.9940   72.2470 C   0  0  0  0  0  0  0  0  0  0  0  0
    2.1590   58.7180   73.4920 C   0  0  1  0  0  0  0  0  0  0  0  0
    0.7250   59.2120   73.2110 C   0  0  1  0  0  0  0  0  0  0  0  0
   -0.0870   58.6150   74.3570 C   0  0  0  0  0  0  0  0  0  0  0  0
    0.5840   57.2550   74.6210 C   0  0  0  0  0  0  0  0  0  0  0  0
    1.8620   57.2310   73.7590 C   0  0  2  0  0  0  0  0  0  0  0  0
    2.8370   59.3630   74.7280 C   0  0  0  0  0  0  0  0  0  0  0  0
    2.9250   56.5630   74.4110 O   0  0  0  0  0  0  0  0  0  0  0  0
    1.1840   66.5730   70.2120 O   0  0  0  0  0  0  0  0  0  0  0  0
   -0.5200   66.3090   68.6360 O   0  0  0  0  0  0  0  0  0  0  0  0
    0.5520   66.7710   68.9980 C   0  0  0  0  0  0  0  0  0  0  0  0
    1.3780   67.6710   68.1450 C   0  0  0  0  0  0  0  0  0  0  0  0
    2.0230   68.8110   68.6460 C   0  0  0  0  0  0  0  0  0  0  0  0
    2.7860   69.6160   67.7970 C   0  0  0  0  0  0  0  0  0  0  0  0
    2.9110   69.2890   66.4470 C   0  0  0  0  0  0  0  0  0  0  0  0
    2.2730   68.1580   65.9410 C   0  0  0  0  0  0  0  0  0  0  0  0
    1.5100   67.3510   66.7860 C   0  0  0  0  0  0  0  0  0  0  0  0
    3.1103   64.9410   69.5396 H   0  0  0  0  0  0  0  0  0  0  0  0
    3.2749   62.5374   70.1713 H   0  0  0  0  0  0  0  0  0  0  0  0
   -0.5924   65.2688   71.7324 H   0  0  0  0  0  0  0  0  0  0  0  0
   -0.6317   63.1596   73.6498 H   0  0  0  0  0  0  0  0  0  0  0  0
   -1.7076   63.0374   72.1733 H   0  0  0  0  0  0  0  0  0  0  0  0
   -1.3898   60.9150   73.5770 H   0  0  0  0  0  0  0  0  0  0  0  0
   -1.1451   60.8026   71.7981 H   0  0  0  0  0  0  0  0  0  0  0  0
    1.0619   61.2216   73.8580 H   0  0  0  0  0  0  0  0  0  0  0  0
    1.1069   60.5303   70.8300 H   0  0  0  0  0  0  0  0  0  0  0  0
    3.4823   60.5896   70.8749 H   0  0  0  0  0  0  0  0  0  0  0  0
    3.4639   61.0454   72.6453 H   0  0  0  0  0  0  0  0  0  0  0  0
    2.6292   58.3870   71.4129 H   0  0  0  0  0  0  0  0  0  0  0  0
    4.0534   58.7330   72.4821 H   0  0  0  0  0  0  0  0  0  0  0  0
    0.2791   58.8742   72.2639 H   0  0  0  0  0  0  0  0  0  0  0  0
   -0.0344   59.2565   75.2490 H   0  0  0  0  0  0  0  0  0  0  0  0
   -1.1554   58.5194   74.1135 H   0  0  0  0  0  0  0  0  0  0  0  0
    0.8406   57.1568   75.6861 H   0  0  0  0  0  0  0  0  0  0  0  0
   -0.0867   56.4211   74.3665 H   0  0  0  0  0  0  0  0  0  0  0  0
    1.7344   56.6679   72.8227 H   0  0  0  0  0  0  0  0  0  0  0  0
    2.3983   58.9456   75.6463 H   0  0  0  0  0  0  0  0  0  0  0  0
    3.9159   59.1498   74.7073 H   0  0  0  0  0  0  0  0  0  0  0  0
    2.6778   60.4512   74.7073 H   0  0  0  0  0  0  0  0  0  0  0  0
    2.8087   56.6361   75.3914 H   0  0  0  0  0  0  0  0  0  0  0  0
    1.9278   69.0719   69.7104 H   0  0  0  0  0  0  0  0  0  0  0  0
    3.2894   70.5098   68.1940 H   0  0  0  0  0  0  0  0  0  0  0  0
    3.5136   69.9242   65.7811 H   0  0  0  0  0  0  0  0  0  0  0  0
    2.3708   67.9015   64.8758 H   0  0  0  0  0  0  0  0  0  0  0  0
    1.0089   66.4583   66.3836 H   0  0  0  0  0  0  0  0  0  0  0  0
  2  1  2  0
  3  2  1  0
  4  3  2  0
  5  4  1  0
  6  1  1  0
  6  5  2  0
  7  5  1  0
  8  7  1  0
  9  8  1  0
 10  9  1  0
 10  4  1  0
 11 10  1  0
 12 11  1  0
 13 12  1  0
 14 13  1  0
 14  9  1  0
 15 14  1  0
 16 15  1  0
 17 16  1  0
 17 13  1  0
 13 18  1  1
 19 17  1  0
 20  1  1  0
 22 21  2  0
 22 20  1  0
 23 22  1  0
 24 23  2  0
 25 24  1  0
 26 25  2  0
 27 26  1  0
 28 27  2  0
 28 23  1  0
  2 29  1  0
  3 30  1  0
  6 31  1  0
  7 32  1  0
  7 33  1  0
  8 34  1  0
  8 35  1  0
  9 36  1  1
 10 37  1  6
 11 38  1  0
 11 39  1  0
 12 40  1  0
 12 41  1  0
 14 42  1  6
 15 43  1  0
 15 44  1  0
 16 45  1  0
 16 46  1  0
 17 47  1  6
 18 48  1  0
 18 49  1  0
 18 50  1  0
 19 51  1  0
 24 52  1  0
 25 53  1  0
 26 54  1  0
 27 55  1  0
 28 56  1  0
M  END
>  <score>  (1) 
-10.383

$$$$
=
     RDKit          3D

 56 60  0  0  0  0  0  0  0  0999 V2000
    0.4340   66.3480   69.7380 C   0  0  0  0  0  0  0  0  0  0  0  0
   -0.2570   66.1180   70.9190 C   0  0  0  0  0  0  0  0  0  0  0  0
    0.1860   65.1210   71.7900 C   0  0  0  0  0  0  0  0  0  0  0  0
    1.3230   64.3440   71.4940 C   0  0  0  0  0  0  0  0  0  0  0  0
    2.0420   64.6290   70.3090 C   0  0  0  0  0  0  0  0  0  0  0  0
    1.5860   65.6290   69.4350 C   0  0  0  0  0  0  0  0  0  0  0  0
    3.2730   63.8520   69.9050 C   0  0  0  0  0  0  0  0  0  0  0  0
    3.8670   63.0040   71.0240 C   0  0  0  0  0  0  0  0  0  0  0  0
    2.7520   62.2510   71.7530 C   0  0  2  0  0  0  0  0  0  0  0  0
    1.8290   63.2830   72.4690 C   0  0  2  0  0  0  0  0  0  0  0  0
    0.7260   62.5700   73.2970 C   0  0  0  0  0  0  0  0  0  0  0  0
    1.2680   61.4740   74.2330 C   0  0  0  0  0  0  0  0  0  0  0  0
    2.1630   60.4770   73.4870 C   0  0  1  0  0  0  0  0  0  0  0  0
    3.2900   61.2710   72.7950 C   0  0  1  0  0  0  0  0  0  0  0  0
    4.2750   60.1860   72.3630 C   0  0  0  0  0  0  0  0  0  0  0  0
    4.1860   59.1350   73.4850 C   0  0  0  0  0  0  0  0  0  0  0  0
    3.0160   59.5680   74.3900 C   0  0  2  0  0  0  0  0  0  0  0  0
    1.2910   59.6220   72.5310 C   0  0  0  0  0  0  0  0  0  0  0  0
    2.2990   58.4560   74.8920 O   0  0  0  0  0  0  0  0  0  0  0  0
   -0.0080   67.3900   68.9160 O   0  0  0  0  0  0  0  0  0  0  0  0
   -0.3540   66.5850   66.7500 O   0  0  0  0  0  0  0  0  0  0  0  0
    0.2710   67.2430   67.5690 C   0  0  0  0  0  0  0  0  0  0  0  0
    1.4860   68.0310   67.2190 C   0  0  0  0  0  0  0  0  0  0  0  0
    2.0190   69.0160   68.0620 C   0  0  0  0  0  0  0  0  0  0  0  0
    3.1640   69.7230   67.6810 C   0  0  0  0  0  0  0  0  0  0  0  0
    3.7800   69.4500   66.4600 C   0  0  0  0  0  0  0  0  0  0  0  0
    3.2560   68.4710   65.6170 C   0  0  0  0  0  0  0  0  0  0  0  0
    2.1140   67.7640   65.9940 C   0  0  0  0  0  0  0  0  0  0  0  0
   -1.1463   66.7161   71.1669 H   0  0  0  0  0  0  0  0  0  0  0  0
   -0.3634   64.9387   72.7254 H   0  0  0  0  0  0  0  0  0  0  0  0
    2.1403   65.8442   68.5096 H   0  0  0  0  0  0  0  0  0  0  0  0
    3.0035   63.1858   69.0722 H   0  0  0  0  0  0  0  0  0  0  0  0
    4.0382   64.5913   69.6260 H   0  0  0  0  0  0  0  0  0  0  0  0
    4.5768   62.2806   70.5963 H   0  0  0  0  0  0  0  0  0  0  0  0
    4.3889   63.6588   71.7373 H   0  0  0  0  0  0  0  0  0  0  0  0
    2.1988   61.6702   71.0002 H   0  0  0  0  0  0  0  0  0  0  0  0
    2.4190   63.8428   73.2097 H   0  0  0  0  0  0  0  0  0  0  0  0
    0.2080   63.3239   73.9080 H   0  0  0  0  0  0  0  0  0  0  0  0
    0.0528   62.0774   72.5800 H   0  0  0  0  0  0  0  0  0  0  0  0
    1.8543   61.9481   75.0339 H   0  0  0  0  0  0  0  0  0  0  0  0
    0.4102   60.9213   74.6438 H   0  0  0  0  0  0  0  0  0  0  0  0
    3.8290   61.9894   73.4301 H   0  0  0  0  0  0  0  0  0  0  0  0
    3.9797   59.7521   71.3963 H   0  0  0  0  0  0  0  0  0  0  0  0
    5.2957   60.5716   72.2237 H   0  0  0  0  0  0  0  0  0  0  0  0
    3.9907   58.1394   73.0599 H   0  0  0  0  0  0  0  0  0  0  0  0
    5.1275   59.0725   74.0504 H   0  0  0  0  0  0  0  0  0  0  0  0
    3.3498   60.0948   75.2961 H   0  0  0  0  0  0  0  0  0  0  0  0
    0.6284   58.9723   73.1216 H   0  0  0  0  0  0  0  0  0  0  0  0
    0.6843   60.2849   71.8967 H   0  0  0  0  0  0  0  0  0  0  0  0
    1.9419   59.0023   71.8967 H   0  0  0  0  0  0  0  0  0  0  0  0
    2.3112   58.4750   75.8817 H   0  0  0  0  0  0  0  0  0  0  0  0
    1.5354   69.2335   69.0258 H   0  0  0  0  0  0  0  0  0  0  0  0
    3.5792   70.4953   68.3452 H   0  0  0  0  0  0  0  0  0  0  0  0
    4.6801   70.0076   66.1618 H   0  0  0  0  0  0  0  0  0  0  0  0
    3.7431   68.2560   64.6545 H   0  0  0  0  0  0  0  0  0  0  0  0
    1.7036   66.9923   65.3262 H   0  0  0  0  0  0  0  0  0  0  0  0
  2  1  2  0
  3  2  1  0
  4  3  2  0
  5  4  1  0
  6  1  1  0
  6  5  2  0
  7  5  1  0
  8  7  1  0
  9  8  1  0
 10  9  1  0
 10  4  1  0
 11 10  1  0
 12 11  1  0
 13 12  1  0
 14 13  1  0
 14  9  1  0
 15 14  1  0
 16 15  1  0
 17 16  1  0
 17 13  1  0
 13 18  1  6
 19 17  1  0
 20  1  1  0
 22 21  2  0
 22 20  1  0
 23 22  1  0
 24 23  2  0
 25 24  1  0
 26 25  2  0
 27 26  1  0
 28 27  2  0
 28 23  1  0
  2 29  1  0
  3 30  1  0
  6 31  1  0
  7 32  1  0
  7 33  1  0
  8 34  1  0
  8 35  1  0
  9 36  1  6
 10 37  1  1
 11 38  1  0
 11 39  1  0
 12 40  1  0
 12 41  1  0
 14 42  1  1
 15 43  1  0
 15 44  1  0
 16 45  1  0
 16 46  1  0
 17 47  1  1
 18 48  1  0
 18 49  1  0
 18 50  1  0
 19 51  1  0
 24 52  1  0
 25 53  1  0
 26 54  1  0
 27 55  1  0
 28 56  1  0
M  END
>  <score>  (2) 
-9.93

$$$$
=
     RDKit          3D

 56 60  0  0  0  0  0  0  0  0999 V2000
    2.5610   59.0530   72.6710 C   0  0  0  0  0  0  0  0  0  0  0  0
    2.0520   57.8660   73.1790 C   0  0  0  0  0  0  0  0  0  0  0  0
    0.7380   57.8290   73.6480 C   0  0  0  0  0  0  0  0  0  0  0  0
   -0.0820   58.9740   73.6160 C   0  0  0  0  0  0  0  0  0  0  0  0
    0.4400   60.1590   73.0480 C   0  0  0  0  0  0  0  0  0  0  0  0
    1.7650   60.1900   72.5830 C   0  0  0  0  0  0  0  0  0  0  0  0
   -0.3620   61.4370   72.9680 C   0  0  0  0  0  0  0  0  0  0  0  0
   -1.8560   61.2500   73.2110 C   0  0  0  0  0  0  0  0  0  0  0  0
   -2.0740   60.3420   74.4220 C   0  0  2  0  0  0  0  0  0  0  0  0
   -1.5320   58.9180   74.0930 C   0  0  2  0  0  0  0  0  0  0  0  0
   -1.8050   57.9290   75.2580 C   0  0  0  0  0  0  0  0  0  0  0  0
   -3.2670   57.9360   75.7440 C   0  0  0  0  0  0  0  0  0  0  0  0
   -3.7550   59.3540   76.0650 C   0  0  1  0  0  0  0  0  0  0  0  0
   -3.5490   60.2270   74.8100 C   0  0  1  0  0  0  0  0  0  0  0  0
   -4.3400   61.4940   75.1250 C   0  0  0  0  0  0  0  0  0  0  0  0
   -5.5470   60.9880   75.9360 C   0  0  0  0  0  0  0  0  0  0  0  0
   -5.2810   59.4960   76.2180 C   0  0  2  0  0  0  0  0  0  0  0  0
   -3.0350   59.8670   77.3390 C   0  0  0  0  0  0  0  0  0  0  0  0
   -5.7470   59.1110   77.4980 O   0  0  0  0  0  0  0  0  0  0  0  0
    3.8640   59.0380   72.1600 O   0  0  0  0  0  0  0  0  0  0  0  0
    3.8990   58.3730   69.9200 O   0  0  0  0  0  0  0  0  0  0  0  0
    3.9670   59.2250   70.7930 C   0  0  0  0  0  0  0  0  0  0  0  0
    4.1740   60.6710   70.5000 C   0  0  0  0  0  0  0  0  0  0  0  0
    5.0240   61.4860   71.2620 C   0  0  0  0  0  0  0  0  0  0  0  0
    5.1800   62.8370   70.9380 C   0  0  0  0  0  0  0  0  0  0  0  0
    4.4910   63.3800   69.8540 C   0  0  0  0  0  0  0  0  0  0  0  0
    3.6440   62.5770   69.0910 C   0  0  0  0  0  0  0  0  0  0  0  0
    3.4860   61.2280   69.4120 C   0  0  0  0  0  0  0  0  0  0  0  0
    2.6786   56.9625   73.2117 H   0  0  0  0  0  0  0  0  0  0  0  0
    0.3350   56.8878   74.0503 H   0  0  0  0  0  0  0  0  0  0  0  0
    2.1735   61.1145   72.1488 H   0  0  0  0  0  0  0  0  0  0  0  0
    0.0261   62.1364   73.7232 H   0  0  0  0  0  0  0  0  0  0  0  0
   -0.2524   61.8169   71.9415 H   0  0  0  0  0  0  0  0  0  0  0  0
   -2.3206   62.2290   73.4002 H   0  0  0  0  0  0  0  0  0  0  0  0
   -2.3134   60.7881   72.3236 H   0  0  0  0  0  0  0  0  0  0  0  0
   -1.5367   60.7896   75.2711 H   0  0  0  0  0  0  0  0  0  0  0  0
   -2.0914   58.5066   73.2399 H   0  0  0  0  0  0  0  0  0  0  0  0
   -1.5569   56.9131   74.9169 H   0  0  0  0  0  0  0  0  0  0  0  0
   -1.1820   58.2498   76.1059 H   0  0  0  0  0  0  0  0  0  0  0  0
   -3.9058   57.5096   74.9565 H   0  0  0  0  0  0  0  0  0  0  0  0
   -3.3231   57.3388   76.6660 H   0  0  0  0  0  0  0  0  0  0  0  0
   -3.9335   59.8098   73.8676 H   0  0  0  0  0  0  0  0  0  0  0  0
   -3.7354   62.1946   75.7197 H   0  0  0  0  0  0  0  0  0  0  0  0
   -4.6385   62.0427   74.2195 H   0  0  0  0  0  0  0  0  0  0  0  0
   -5.6323   61.5453   76.8806 H   0  0  0  0  0  0  0  0  0  0  0  0
   -6.4882   61.1300   75.3846 H   0  0  0  0  0  0  0  0  0  0  0  0
   -5.8215   58.8287   75.5305 H   0  0  0  0  0  0  0  0  0  0  0  0
   -3.5587   59.4939   78.2315 H   0  0  0  0  0  0  0  0  0  0  0  0
   -1.9966   59.5040   77.3446 H   0  0  0  0  0  0  0  0  0  0  0  0
   -3.0390   60.9670   77.3446 H   0  0  0  0  0  0  0  0  0  0  0  0
   -5.2050   59.5588   78.1950 H   0  0  0  0  0  0  0  0  0  0  0  0
    5.5696   61.0608   72.1173 H   0  0  0  0  0  0  0  0  0  0  0  0
    5.8471   63.4725   71.5389 H   0  0  0  0  0  0  0  0  0  0  0  0
    4.6158   64.4431   69.6005 H   0  0  0  0  0  0  0  0  0  0  0  0
    3.1006   63.0066   68.2365 H   0  0  0  0  0  0  0  0  0  0  0  0
    2.8174   60.5973   68.8077 H   0  0  0  0  0  0  0  0  0  0  0  0
  2  1  2  0
  3  2  1  0
  4  3  2  0
  5  4  1  0
  6  1  1  0
  6  5  2  0
  7  5  1  0
  8  7  1  0
  9  8  1  0
 10  9  1  0
 10  4  1  0
 11 10  1  0
 12 11  1  0
 13 12  1  0
 14 13  1  0
 14  9  1  0
 15 14  1  0
 16 15  1  0
 17 16  1  0
 17 13  1  0
 13 18  1  1
 19 17  1  0
 20  1  1  0
 22 21  2  0
 22 20  1  0
 23 22  1  0
 24 23  2  0
 25 24  1  0
 26 25  2  0
 27 26  1  0
 28 27  2  0
 28 23  1  0
  2 29  1  0
  3 30  1  0
  6 31  1  0
  7 32  1  0
  7 33  1  0
  8 34  1  0
  8 35  1  0
  9 36  1  1
 10 37  1  6
 11 38  1  0
 11 39  1  0
 12 40  1  0
 12 41  1  0
 14 42  1  6
 15 43  1  0
 15 44  1  0
 16 45  1  0
 16 46  1  0
 17 47  1  6
 18 48  1  0
 18 49  1  0
 18 50  1  0
 19 51  1  0
 24 52  1  0
 25 53  1  0
 26 54  1  0
 27 55  1  0
 28 56  1  0
M  END
>  <score>  (3) 
-9.819

$$$$
=
     RDKit          3D

 56 60  0  0  0  0  0  0  0  0999 V2000
   -2.6810   59.6810   74.3620 C   0  0  0  0  0  0  0  0  0  0  0  0
   -1.6780   58.8100   74.7650 C   0  0  0  0  0  0  0  0  0  0  0  0
   -0.3520   59.0890   74.4290 C   0  0  0  0  0  0  0  0  0  0  0  0
   -0.0120   60.2380   73.6900 C   0  0  0  0  0  0  0  0  0  0  0  0
   -1.0420   61.1390   73.3330 C   0  0  0  0  0  0  0  0  0  0  0  0
   -2.3750   60.8480   73.6690 C   0  0  0  0  0  0  0  0  0  0  0  0
   -0.7770   62.3980   72.5420 C   0  0  0  0  0  0  0  0  0  0  0  0
    0.6950   62.7910   72.4750 C   0  0  0  0  0  0  0  0  0  0  0  0
    1.5480   61.5580   72.1680 C   0  0  2  0  0  0  0  0  0  0  0  0
    1.4450   60.5600   73.3610 C   0  0  2  0  0  0  0  0  0  0  0  0
    2.3590   59.3250   73.1410 C   0  0  0  0  0  0  0  0  0  0  0  0
    3.8080   59.6890   72.7640 C   0  0  0  0  0  0  0  0  0  0  0  0
    3.8620   60.6640   71.5810 C   0  0  1  0  0  0  0  0  0  0  0  0
    3.0200   61.9040   71.9440 C   0  0  1  0  0  0  0  0  0  0  0  0
    3.3950   62.9160   70.8640 C   0  0  0  0  0  0  0  0  0  0  0  0
    4.8810   62.6290   70.5840 C   0  0  0  0  0  0  0  0  0  0  0  0
    5.2260   61.3440   71.3640 C   0  0  2  0  0  0  0  0  0  0  0  0
    3.4140   59.9290   70.2920 C   0  0  0  0  0  0  0  0  0  0  0  0
    6.1430   60.5310   70.6570 O   0  0  0  0  0  0  0  0  0  0  0  0
   -3.9920   59.3980   74.7620 O   0  0  0  0  0  0  0  0  0  0  0  0
   -4.1990   60.6190   76.7430 O   0  0  0  0  0  0  0  0  0  0  0  0
   -4.5650   60.3240   75.6150 C   0  0  0  0  0  0  0  0  0  0  0  0
   -5.7390   60.9560   74.9510 C   0  0  0  0  0  0  0  0  0  0  0  0
   -6.2410   62.2100   75.3300 C   0  0  0  0  0  0  0  0  0  0  0  0
   -7.3460   62.7530   74.6690 C   0  0  0  0  0  0  0  0  0  0  0  0
   -7.9540   62.0510   73.6280 C   0  0  0  0  0  0  0  0  0  0  0  0
   -7.4610   60.8050   73.2450 C   0  0  0  0  0  0  0  0  0  0  0  0
   -6.3580   60.2590   73.9040 C   0  0  0  0  0  0  0  0  0  0  0  0
   -1.9258   57.9081   75.3439 H   0  0  0  0  0  0  0  0  0  0  0  0
    0.4422   58.3979   74.7477 H   0  0  0  0  0  0  0  0  0  0  0  0
   -3.1777   61.5439   73.3837 H   0  0  0  0  0  0  0  0  0  0  0  0
   -1.1409   62.2444   71.5154 H   0  0  0  0  0  0  0  0  0  0  0  0
   -1.3009   63.2150   73.0597 H   0  0  0  0  0  0  0  0  0  0  0  0
    0.8372   63.5399   71.6820 H   0  0  0  0  0  0  0  0  0  0  0  0
    1.0024   63.2130   73.4432 H   0  0  0  0  0  0  0  0  0  0  0  0
    1.1628   61.1135   71.2384 H   0  0  0  0  0  0  0  0  0  0  0  0
    1.8371   61.0408   74.2693 H   0  0  0  0  0  0  0  0  0  0  0  0
    2.3788   58.7371   74.0705 H   0  0  0  0  0  0  0  0  0  0  0  0
    1.9386   58.7590   72.2967 H   0  0  0  0  0  0  0  0  0  0  0  0
    4.2951   60.1561   73.6327 H   0  0  0  0  0  0  0  0  0  0  0  0
    4.3265   58.7649   72.4689 H   0  0  0  0  0  0  0  0  0  0  0  0
    3.2310   62.3565   72.9242 H   0  0  0  0  0  0  0  0  0  0  0  0
    2.7899   62.7633   69.9582 H   0  0  0  0  0  0  0  0  0  0  0  0
    3.2164   63.9552   71.1775 H   0  0  0  0  0  0  0  0  0  0  0  0
    5.0434   62.4763   69.5068 H   0  0  0  0  0  0  0  0  0  0  0  0
    5.5173   63.4702   70.8963 H   0  0  0  0  0  0  0  0  0  0  0  0
    5.7353   61.5461   72.3178 H   0  0  0  0  0  0  0  0  0  0  0  0
    2.8591   59.0187   70.5630 H   0  0  0  0  0  0  0  0  0  0  0  0
    2.7655   60.5908   69.6991 H   0  0  0  0  0  0  0  0  0  0  0  0
    4.2994   59.6559   69.6991 H   0  0  0  0  0  0  0  0  0  0  0  0
    6.7059   60.0319   71.3006 H   0  0  0  0  0  0  0  0  0  0  0  0
   -5.7636   62.7672   76.1495 H   0  0  0  0  0  0  0  0  0  0  0  0
   -7.7372   63.7360   74.9701 H   0  0  0  0  0  0  0  0  0  0  0  0
   -8.8232   62.4813   73.1091 H   0  0  0  0  0  0  0  0  0  0  0  0
   -7.9407   60.2521   72.4239 H   0  0  0  0  0  0  0  0  0  0  0  0
   -5.9719   59.2750   73.5996 H   0  0  0  0  0  0  0  0  0  0  0  0
  2  1  2  0
  3  2  1  0
  4  3  2  0
  5  4  1  0
  6  1  1  0
  6  5  2  0
  7  5  1  0
  8  7  1  0
  9  8  1  0
 10  9  1  0
 10  4  1  0
 11 10  1  0
 12 11  1  0
 13 12  1  0
 14 13  1  0
 14  9  1  0
 15 14  1  0
 16 15  1  0
 17 16  1  0
 17 13  1  0
 13 18  1  6
 19 17  1  0
 20  1  1  0
 22 21  2  0
 22 20  1  0
 23 22  1  0
 24 23  2  0
 25 24  1  0
 26 25  2  0
 27 26  1  0
 28 27  2  0
 28 23  1  0
  2 29  1  0
  3 30  1  0
  6 31  1  0
  7 32  1  0
  7 33  1  0
  8 34  1  0
  8 35  1  0
  9 36  1  6
 10 37  1  1
 11 38  1  0
 11 39  1  0
 12 40  1  0
 12 41  1  0
 14 42  1  1
 15 43  1  0
 15 44  1  0
 16 45  1  0
 16 46  1  0
 17 47  1  1
 18 48  1  0
 18 49  1  0
 18 50  1  0
 19 51  1  0
 24 52  1  0
 25 53  1  0
 26 54  1  0
 27 55  1  0
 28 56  1  0
M  END
>  <score>  (4) 
-9.476

$$$$
=
     RDKit          3D

 56 60  0  0  0  0  0  0  0  0999 V2000
    0.4050   64.4840   70.5570 C   0  0  0  0  0  0  0  0  0  0  0  0
    0.0050   64.7610   71.8570 C   0  0  0  0  0  0  0  0  0  0  0  0
    0.5330   64.0120   72.9100 C   0  0  0  0  0  0  0  0  0  0  0  0
    1.4630   62.9810   72.6790 C   0  0  0  0  0  0  0  0  0  0  0  0
    1.8950   62.7490   71.3530 C   0  0  0  0  0  0  0  0  0  0  0  0
    1.3550   63.5020   70.2980 C   0  0  0  0  0  0  0  0  0  0  0  0
    2.8900   61.6670   71.0050 C   0  0  0  0  0  0  0  0  0  0  0  0
    3.6410   61.1030   72.2060 C   0  0  0  0  0  0  0  0  0  0  0  0
    2.6620   60.8350   73.3510 C   0  0  2  0  0  0  0  0  0  0  0  0
    2.0690   62.1930   73.8390 C   0  0  2  0  0  0  0  0  0  0  0  0
    1.1310   61.9900   75.0590 C   0  0  0  0  0  0  0  0  0  0  0  0
    1.7580   61.1490   76.1870 C   0  0  0  0  0  0  0  0  0  0  0  0
    2.3190   59.8210   75.6650 C   0  0  1  0  0  0  0  0  0  0  0  0
    3.3240   60.1360   74.5380 C   0  0  1  0  0  0  0  0  0  0  0  0
    4.0390   58.8050   74.3180 C   0  0  0  0  0  0  0  0  0  0  0  0
    4.1110   58.1830   75.7240 C   0  0  0  0  0  0  0  0  0  0  0  0
    3.2590   59.0860   76.6380 C   0  0  2  0  0  0  0  0  0  0  0  0
    1.1460   58.8970   75.2480 C   0  0  0  0  0  0  0  0  0  0  0  0
    2.5660   58.3380   77.6190 O   0  0  0  0  0  0  0  0  0  0  0  0
   -0.1040   65.2900   69.5320 O   0  0  0  0  0  0  0  0  0  0  0  0
    1.5480   66.8940   69.9270 O   0  0  0  0  0  0  0  0  0  0  0  0
    0.5610   66.4870   69.3330 C   0  0  0  0  0  0  0  0  0  0  0  0
   -0.1040   67.2540   68.2430 C   0  0  0  0  0  0  0  0  0  0  0  0
    0.5450   68.2670   67.5220 C   0  0  0  0  0  0  0  0  0  0  0  0
   -0.1300   68.9520   66.5090 C   0  0  0  0  0  0  0  0  0  0  0  0
   -1.4540   68.6300   66.2090 C   0  0  0  0  0  0  0  0  0  0  0  0
   -2.1070   67.6250   66.9200 C   0  0  0  0  0  0  0  0  0  0  0  0
   -1.4350   66.9390   67.9340 C   0  0  0  0  0  0  0  0  0  0  0  0
   -0.7211   65.5631   72.0555 H   0  0  0  0  0  0  0  0  0  0  0  0
    0.2162   64.2317   73.9402 H   0  0  0  0  0  0  0  0  0  0  0  0
    1.6839   63.3149   69.2651 H   0  0  0  0  0  0  0  0  0  0  0  0
    2.3481   60.8428   70.5182 H   0  0  0  0  0  0  0  0  0  0  0  0
    3.6424   62.1272   70.3477 H   0  0  0  0  0  0  0  0  0  0  0  0
    4.1340   60.1623   71.9194 H   0  0  0  0  0  0  0  0  0  0  0  0
    4.3958   61.8315   72.5369 H   0  0  0  0  0  0  0  0  0  0  0  0
    1.8769   60.1685   72.9644 H   0  0  0  0  0  0  0  0  0  0  0  0
    2.8836   62.8298   74.2144 H   0  0  0  0  0  0  0  0  0  0  0  0
    0.8710   62.9784   75.4658 H   0  0  0  0  0  0  0  0  0  0  0  0
    0.2490   61.4399   74.6992 H   0  0  0  0  0  0  0  0  0  0  0  0
    2.5751   61.7239   76.6473 H   0  0  0  0  0  0  0  0  0  0  0  0
    0.9709   60.9218   76.9210 H   0  0  0  0  0  0  0  0  0  0  0  0
    4.0827   60.8974   74.7720 H   0  0  0  0  0  0  0  0  0  0  0  0
    3.4653   58.1614   73.6348 H   0  0  0  0  0  0  0  0  0  0  0  0
    5.0309   58.9285   73.8588 H   0  0  0  0  0  0  0  0  0  0  0  0
    3.7035   57.1614   75.7103 H   0  0  0  0  0  0  0  0  0  0  0  0
    5.1495   58.1176   76.0806 H   0  0  0  0  0  0  0  0  0  0  0  0
    3.8650   59.7909   77.2262 H   0  0  0  0  0  0  0  0  0  0  0  0
    0.6495   58.5059   76.1483 H   0  0  0  0  0  0  0  0  0  0  0  0
    0.4224   59.4703   74.6499 H   0  0  0  0  0  0  0  0  0  0  0  0
    1.5339   58.0592   74.6499 H   0  0  0  0  0  0  0  0  0  0  0  0
    2.8442   58.6383   78.5204 H   0  0  0  0  0  0  0  0  0  0  0  0
    1.5891   68.5229   67.7551 H   0  0  0  0  0  0  0  0  0  0  0  0
    0.3830   69.7464   65.9470 H   0  0  0  0  0  0  0  0  0  0  0  0
   -1.9831   69.1702   65.4101 H   0  0  0  0  0  0  0  0  0  0  0  0
   -3.1509   67.3722   66.6827 H   0  0  0  0  0  0  0  0  0  0  0  0
   -1.9531   66.1465   68.4939 H   0  0  0  0  0  0  0  0  0  0  0  0
  2  1  2  0
  3  2  1  0
  4  3  2  0
  5  4  1  0
  6  1  1  0
  6  5  2  0
  7  5  1  0
  8  7  1  0
  9  8  1  0
 10  9  1  0
 10  4  1  0
 11 10  1  0
 12 11  1  0
 13 12  1  0
 14 13  1  0
 14  9  1  0
 15 14  1  0
 16 15  1  0
 17 16  1  0
 17 13  1  0
 13 18  1  6
 19 17  1  0
 20  1  1  0
 22 21  2  0
 22 20  1  0
 23 22  1  0
 24 23  2  0
 25 24  1  0
 26 25  2  0
 27 26  1  0
 28 27  2  0
 28 23  1  0
  2 29  1  0
  3 30  1  0
  6 31  1  0
  7 32  1  0
  7 33  1  0
  8 34  1  0
  8 35  1  0
  9 36  1  6
 10 37  1  1
 11 38  1  0
 11 39  1  0
 12 40  1  0
 12 41  1  0
 14 42  1  1
 15 43  1  0
 15 44  1  0
 16 45  1  0
 16 46  1  0
 17 47  1  1
 18 48  1  0
 18 49  1  0
 18 50  1  0
 19 51  1  0
 24 52  1  0
 25 53  1  0
 26 54  1  0
 27 55  1  0
 28 56  1  0
M  END
>  <score>  (5) 
-9.297

$$$$
=
     RDKit          3D

 56 60  0  0  0  0  0  0  0  0999 V2000
    1.2060   56.6840   74.9120 C   0  0  0  0  0  0  0  0  0  0  0  0
   -0.0650   57.2040   74.7070 C   0  0  0  0  0  0  0  0  0  0  0  0
   -0.2160   58.3620   73.9420 C   0  0  0  0  0  0  0  0  0  0  0  0
    0.8950   59.0130   73.3740 C   0  0  0  0  0  0  0  0  0  0  0  0
    2.1760   58.4400   73.5530 C   0  0  0  0  0  0  0  0  0  0  0  0
    2.3200   57.2780   74.3290 C   0  0  0  0  0  0  0  0  0  0  0  0
    3.4270   59.0630   72.9830 C   0  0  0  0  0  0  0  0  0  0  0  0
    3.1640   60.1310   71.9260 C   0  0  0  0  0  0  0  0  0  0  0  0
    2.0490   61.0650   72.3990 C   0  0  2  0  0  0  0  0  0  0  0  0
    0.7200   60.2570   72.5040 C   0  0  2  0  0  0  0  0  0  0  0  0
   -0.4670   61.1760   72.8990 C   0  0  0  0  0  0  0  0  0  0  0  0
   -0.5830   62.4430   72.0320 C   0  0  0  0  0  0  0  0  0  0  0  0
    0.7430   63.2110   71.9640 C   0  0  1  0  0  0  0  0  0  0  0  0
    1.8310   62.2450   71.4510 C   0  0  1  0  0  0  0  0  0  0  0  0
    3.0020   63.1690   71.1260 C   0  0  0  0  0  0  0  0  0  0  0  0
    2.3300   64.4540   70.6100 C   0  0  0  0  0  0  0  0  0  0  0  0
    0.8180   64.2790   70.8570 C   0  0  2  0  0  0  0  0  0  0  0  0
    1.0380   63.8460   73.3470 C   0  0  0  0  0  0  0  0  0  0  0  0
    0.2000   65.4980   71.2210 O   0  0  0  0  0  0  0  0  0  0  0  0
    1.3140   55.4930   75.6380 O   0  0  0  0  0  0  0  0  0  0  0  0
    2.4730   54.0020   74.2620 O   0  0  0  0  0  0  0  0  0  0  0  0
    1.4760   54.3480   74.8790 C   0  0  0  0  0  0  0  0  0  0  0  0
    0.2230   53.5430   74.9130 C   0  0  0  0  0  0  0  0  0  0  0  0
   -0.0730   52.5600   73.9580 C   0  0  0  0  0  0  0  0  0  0  0  0
   -1.2650   51.8350   74.0430 C   0  0  0  0  0  0  0  0  0  0  0  0
   -2.1650   52.0860   75.0780 C   0  0  0  0  0  0  0  0  0  0  0  0
   -1.8780   53.0620   76.0310 C   0  0  0  0  0  0  0  0  0  0  0  0
   -0.6890   53.7880   75.9490 C   0  0  0  0  0  0  0  0  0  0  0  0
   -0.9447   56.7082   75.1433 H   0  0  0  0  0  0  0  0  0  0  0  0
   -1.2231   58.7737   73.7800 H   0  0  0  0  0  0  0  0  0  0  0  0
    3.3168   56.8367   74.4759 H   0  0  0  0  0  0  0  0  0  0  0  0
    3.9900   59.5243   73.8078 H   0  0  0  0  0  0  0  0  0  0  0  0
    3.9859   58.2559   72.4868 H   0  0  0  0  0  0  0  0  0  0  0  0
    4.0821   60.7135   71.7592 H   0  0  0  0  0  0  0  0  0  0  0  0
    2.8573   59.6455   70.9878 H   0  0  0  0  0  0  0  0  0  0  0  0
    2.3507   61.4702   73.3761 H   0  0  0  0  0  0  0  0  0  0  0  0
    0.4541   59.8677   71.5101 H   0  0  0  0  0  0  0  0  0  0  0  0
   -1.3995   60.6009   72.8002 H   0  0  0  0  0  0  0  0  0  0  0  0
   -0.2867   61.5084   73.9320 H   0  0  0  0  0  0  0  0  0  0  0  0
   -0.8780   62.1513   71.0132 H   0  0  0  0  0  0  0  0  0  0  0  0
   -1.3362   63.1017   72.4889 H   0  0  0  0  0  0  0  0  0  0  0  0
    1.5797   61.6796   70.5415 H   0  0  0  0  0  0  0  0  0  0  0  0
    3.5994   63.3746   72.0264 H   0  0  0  0  0  0  0  0  0  0  0  0
    3.6965   62.7310   70.3940 H   0  0  0  0  0  0  0  0  0  0  0  0
    2.7073   65.3287   71.1600 H   0  0  0  0  0  0  0  0  0  0  0  0
    2.5452   64.6180   69.5438 H   0  0  0  0  0  0  0  0  0  0  0  0
    0.2709   63.9674   69.9550 H   0  0  0  0  0  0  0  0  0  0  0  0
    0.7179   63.1571   74.1426 H   0  0  0  0  0  0  0  0  0  0  0  0
    2.1172   64.0374   73.4399 H   0  0  0  0  0  0  0  0  0  0  0  0
    0.4882   64.7942   73.4399 H   0  0  0  0  0  0  0  0  0  0  0  0
    0.1644   65.5682   72.2079 H   0  0  0  0  0  0  0  0  0  0  0  0
    0.6345   52.3589   73.1400 H   0  0  0  0  0  0  0  0  0  0  0  0
   -1.4936   51.0647   73.2917 H   0  0  0  0  0  0  0  0  0  0  0  0
   -3.1021   51.5135   75.1425 H   0  0  0  0  0  0  0  0  0  0  0  0
   -2.5884   53.2598   76.8472 H   0  0  0  0  0  0  0  0  0  0  0  0
   -0.4659   54.5578   76.7025 H   0  0  0  0  0  0  0  0  0  0  0  0
  2  1  2  0
  3  2  1  0
  4  3  2  0
  5  4  1  0
  6  1  1  0
  6  5  2  0
  7  5  1  0
  8  7  1  0
  9  8  1  0
 10  9  1  0
 10  4  1  0
 11 10  1  0
 12 11  1  0
 13 12  1  0
 14 13  1  0
 14  9  1  0
 15 14  1  0
 16 15  1  0
 17 16  1  0
 17 13  1  0
 13 18  1  1
 19 17  1  0
 20  1  1  0
 22 21  2  0
 22 20  1  0
 23 22  1  0
 24 23  2  0
 25 24  1  0
 26 25  2  0
 27 26  1  0
 28 27  2  0
 28 23  1  0
  2 29  1  0
  3 30  1  0
  6 31  1  0
  7 32  1  0
  7 33  1  0
  8 34  1  0
  8 35  1  0
  9 36  1  1
 10 37  1  6
 11 38  1  0
 11 39  1  0
 12 40  1  0
 12 41  1  0
 14 42  1  6
 15 43  1  0
 15 44  1  0
 16 45  1  0
 16 46  1  0
 17 47  1  6
 18 48  1  0
 18 49  1  0
 18 50  1  0
 19 51  1  0
 24 52  1  0
 25 53  1  0
 26 54  1  0
 27 55  1  0
 28 56  1  0
M  END
>  <score>  (6) 
-9.188

$$$$
=
     RDKit          3D

 56 60  0  0  0  0  0  0  0  0999 V2000
   -3.3290   59.7830   75.1370 C   0  0  0  0  0  0  0  0  0  0  0  0
   -3.3030   60.9450   74.3780 C   0  0  0  0  0  0  0  0  0  0  0  0
   -2.2000   61.2070   73.5630 C   0  0  0  0  0  0  0  0  0  0  0  0
   -1.1130   60.3140   73.4960 C   0  0  0  0  0  0  0  0  0  0  0  0
   -1.1820   59.1120   74.2380 C   0  0  0  0  0  0  0  0  0  0  0  0
   -2.2920   58.8590   75.0610 C   0  0  0  0  0  0  0  0  0  0  0  0
   -0.0680   58.0930   74.2310 C   0  0  0  0  0  0  0  0  0  0  0  0
    0.9470   58.2900   73.1090 C   0  0  0  0  0  0  0  0  0  0  0  0
    1.3270   59.7680   73.0060 C   0  0  2  0  0  0  0  0  0  0  0  0
    0.0720   60.5850   72.5710 C   0  0  2  0  0  0  0  0  0  0  0  0
    0.4210   62.0840   72.3690 C   0  0  0  0  0  0  0  0  0  0  0  0
    1.6500   62.3160   71.4700 C   0  0  0  0  0  0  0  0  0  0  0  0
    2.8620   61.5010   71.9400 C   0  0  1  0  0  0  0  0  0  0  0  0
    2.4470   60.0170   71.9970 C   0  0  1  0  0  0  0  0  0  0  0  0
    3.7760   59.2830   72.1590 C   0  0  0  0  0  0  0  0  0  0  0  0
    4.7700   60.1250   71.3370 C   0  0  0  0  0  0  0  0  0  0  0  0
    4.0100   61.3990   70.9180 C   0  0  2  0  0  0  0  0  0  0  0  0
    3.3820   62.0820   73.2800 C   0  0  0  0  0  0  0  0  0  0  0  0
    4.8520   62.5370   70.9170 O   0  0  0  0  0  0  0  0  0  0  0  0
   -4.4740   59.5280   75.9000 O   0  0  0  0  0  0  0  0  0  0  0  0
   -5.5120   57.6380   75.0010 O   0  0  0  0  0  0  0  0  0  0  0  0
   -5.4780   58.8340   75.2500 C   0  0  0  0  0  0  0  0  0  0  0  0
   -6.5740   59.7710   74.8770 C   0  0  0  0  0  0  0  0  0  0  0  0
   -6.7550   60.2460   73.5700 C   0  0  0  0  0  0  0  0  0  0  0  0
   -7.8030   61.1230   73.2800 C   0  0  0  0  0  0  0  0  0  0  0  0
   -8.6750   61.5310   74.2890 C   0  0  0  0  0  0  0  0  0  0  0  0
   -8.5020   61.0640   75.5910 C   0  0  0  0  0  0  0  0  0  0  0  0
   -7.4560   60.1880   75.8850 C   0  0  0  0  0  0  0  0  0  0  0  0
   -4.1439   61.6530   74.4183 H   0  0  0  0  0  0  0  0  0  0  0  0
   -2.1796   62.1281   72.9620 H   0  0  0  0  0  0  0  0  0  0  0  0
   -2.3412   57.9289   75.6462 H   0  0  0  0  0  0  0  0  0  0  0  0
    0.4630   58.1546   75.1924 H   0  0  0  0  0  0  0  0  0  0  0  0
   -0.5362   57.1111   74.0675 H   0  0  0  0  0  0  0  0  0  0  0  0
    1.8476   57.6957   73.3230 H   0  0  0  0  0  0  0  0  0  0  0  0
    0.5036   57.9624   72.1572 H   0  0  0  0  0  0  0  0  0  0  0  0
    1.6901   60.0849   73.9948 H   0  0  0  0  0  0  0  0  0  0  0  0
   -0.2609   60.2383   71.5816 H   0  0  0  0  0  0  0  0  0  0  0  0
   -0.4448   62.5837   71.9100 H   0  0  0  0  0  0  0  0  0  0  0  0
    0.6645   62.4946   73.3600 H   0  0  0  0  0  0  0  0  0  0  0  0
    1.3992   62.0198   70.4408 H   0  0  0  0  0  0  0  0  0  0  0  0
    1.9146   63.3825   71.5212 H   0  0  0  0  0  0  0  0  0  0  0  0
    1.9467   59.6248   71.0993 H   0  0  0  0  0  0  0  0  0  0  0  0
    4.0759   59.2464   73.2167 H   0  0  0  0  0  0  0  0  0  0  0  0
    3.7260   58.2375   71.8206 H   0  0  0  0  0  0  0  0  0  0  0  0
    5.6454   60.3871   71.9494 H   0  0  0  0  0  0  0  0  0  0  0  0
    5.1367   59.5703   70.4607 H   0  0  0  0  0  0  0  0  0  0  0  0
    3.6318   61.3508   69.8862 H   0  0  0  0  0  0  0  0  0  0  0  0
    2.9072   61.5515   74.1185 H   0  0  0  0  0  0  0  0  0  0  0  0
    4.4731   61.9544   73.3361 H   0  0  0  0  0  0  0  0  0  0  0  0
    3.1346   63.1524   73.3361 H   0  0  0  0  0  0  0  0  0  0  0  0
    5.0487   62.8028   71.8501 H   0  0  0  0  0  0  0  0  0  0  0  0
   -6.0697   59.9271   72.7708 H   0  0  0  0  0  0  0  0  0  0  0  0
   -7.9408   61.4927   72.2532 H   0  0  0  0  0  0  0  0  0  0  0  0
   -9.4994   62.2214   74.0574 H   0  0  0  0  0  0  0  0  0  0  0  0
   -9.1899   61.3859   76.3867 H   0  0  0  0  0  0  0  0  0  0  0  0
   -7.3224   59.8222   76.9138 H   0  0  0  0  0  0  0  0  0  0  0  0
  2  1  2  0
  3  2  1  0
  4  3  2  0
  5  4  1  0
  6  1  1  0
  6  5  2  0
  7  5  1  0
  8  7  1  0
  9  8  1  0
 10  9  1  0
 10  4  1  0
 11 10  1  0
 12 11  1  0
 13 12  1  0
 14 13  1  0
 14  9  1  0
 15 14  1  0
 16 15  1  0
 17 16  1  0
 17 13  1  0
 13 18  1  1
 19 17  1  0
 20  1  1  0
 22 21  2  0
 22 20  1  0
 23 22  1  0
 24 23  2  0
 25 24  1  0
 26 25  2  0
 27 26  1  0
 28 27  2  0
 28 23  1  0
  2 29  1  0
  3 30  1  0
  6 31  1  0
  7 32  1  0
  7 33  1  0
  8 34  1  0
  8 35  1  0
  9 36  1  1
 10 37  1  6
 11 38  1  0
 11 39  1  0
 12 40  1  0
 12 41  1  0
 14 42  1  6
 15 43  1  0
 15 44  1  0
 16 45  1  0
 16 46  1  0
 17 47  1  6
 18 48  1  0
 18 49  1  0
 18 50  1  0
 19 51  1  0
 24 52  1  0
 25 53  1  0
 26 54  1  0
 27 55  1  0
 28 56  1  0
M  END
>  <score>  (7) 
-9.051

$$$$
=
     RDKit          3D

 56 60  0  0  0  0  0  0  0  0999 V2000
    0.8520   59.7730   72.8790 C   0  0  0  0  0  0  0  0  0  0  0  0
    0.0890   60.9300   72.7990 C   0  0  0  0  0  0  0  0  0  0  0  0
   -1.1430   60.9850   73.4530 C   0  0  0  0  0  0  0  0  0  0  0  0
   -1.6260   59.8890   74.1950 C   0  0  0  0  0  0  0  0  0  0  0  0
   -0.8100   58.7390   74.3050 C   0  0  0  0  0  0  0  0  0  0  0  0
    0.4250   58.6900   73.6390 C   0  0  0  0  0  0  0  0  0  0  0  0
   -1.2400   57.5150   75.0790 C   0  0  0  0  0  0  0  0  0  0  0  0
   -2.4310   57.7500   76.0020 C   0  0  0  0  0  0  0  0  0  0  0  0
   -3.5090   58.5480   75.2660 C   0  0  2  0  0  0  0  0  0  0  0  0
   -2.9550   59.9690   74.9430 C   0  0  2  0  0  0  0  0  0  0  0  0
   -4.0380   60.8540   74.2700 C   0  0  0  0  0  0  0  0  0  0  0  0
   -5.3800   60.8720   75.0270 C   0  0  0  0  0  0  0  0  0  0  0  0
   -5.8910   59.4550   75.3160 C   0  0  1  0  0  0  0  0  0  0  0  0
   -4.7910   58.6970   76.0860 C   0  0  1  0  0  0  0  0  0  0  0  0
   -5.5070   57.4450   76.5870 C   0  0  0  0  0  0  0  0  0  0  0  0
   -6.9370   57.9290   76.8880 C   0  0  0  0  0  0  0  0  0  0  0  0
   -7.0240   59.3730   76.3550 C   0  0  2  0  0  0  0  0  0  0  0  0
   -6.3290   58.7880   73.9860 C   0  0  0  0  0  0  0  0  0  0  0  0
   -8.2980   59.6560   75.8090 O   0  0  0  0  0  0  0  0  0  0  0  0
    2.1050   59.7740   72.2550 O   0  0  0  0  0  0  0  0  0  0  0  0
    3.3380   61.0990   73.7320 O   0  0  0  0  0  0  0  0  0  0  0  0
    2.9440   60.8140   72.6110 C   0  0  0  0  0  0  0  0  0  0  0  0
    3.3360   61.5790   71.3950 C   0  0  0  0  0  0  0  0  0  0  0  0
    2.6580   61.4620   70.1730 C   0  0  0  0  0  0  0  0  0  0  0  0
    3.0710   62.2080   69.0660 C   0  0  0  0  0  0  0  0  0  0  0  0
    4.1600   63.0730   69.1710 C   0  0  0  0  0  0  0  0  0  0  0  0
    4.8400   63.1950   70.3820 C   0  0  0  0  0  0  0  0  0  0  0  0
    4.4300   62.4520   71.4900 C   0  0  0  0  0  0  0  0  0  0  0  0
    0.4520   61.7956   72.2254 H   0  0  0  0  0  0  0  0  0  0  0  0
   -1.7481   61.9013   73.3878 H   0  0  0  0  0  0  0  0  0  0  0  0
    1.0562   57.7927   73.7187 H   0  0  0  0  0  0  0  0  0  0  0  0
   -1.5104   56.7283   74.3593 H   0  0  0  0  0  0  0  0  0  0  0  0
   -0.3926   57.2305   75.7200 H   0  0  0  0  0  0  0  0  0  0  0  0
   -2.8454   56.7810   76.3170 H   0  0  0  0  0  0  0  0  0  0  0  0
   -2.0995   58.3165   76.8847 H   0  0  0  0  0  0  0  0  0  0  0  0
   -3.7600   57.9960   74.3483 H   0  0  0  0  0  0  0  0  0  0  0  0
   -2.7148   60.4861   75.8837 H   0  0  0  0  0  0  0  0  0  0  0  0
   -3.6578   61.8846   74.2122 H   0  0  0  0  0  0  0  0  0  0  0  0
   -4.2343   60.4233   73.2771 H   0  0  0  0  0  0  0  0  0  0  0  0
   -5.2435   61.4025   75.9809 H   0  0  0  0  0  0  0  0  0  0  0  0
   -6.1223   61.3803   74.3941 H   0  0  0  0  0  0  0  0  0  0  0  0
   -4.3681   59.2207   76.9560 H   0  0  0  0  0  0  0  0  0  0  0  0
   -5.5137   56.6626   75.8138 H   0  0  0  0  0  0  0  0  0  0  0  0
   -5.0169   57.0000   77.4656 H   0  0  0  0  0  0  0  0  0  0  0  0
   -7.6715   57.2891   76.3771 H   0  0  0  0  0  0  0  0  0  0  0  0
   -7.1563   57.8856   77.9650 H   0  0  0  0  0  0  0  0  0  0  0  0
   -6.9044   60.1284   77.1456 H   0  0  0  0  0  0  0  0  0  0  0  0
   -6.9207   57.8870   74.2051 H   0  0  0  0  0  0  0  0  0  0  0  0
   -6.9392   59.4950   73.4048 H   0  0  0  0  0  0  0  0  0  0  0  0
   -5.4377   58.5090   73.4048 H   0  0  0  0  0  0  0  0  0  0  0  0
   -8.9469   59.8001   76.5427 H   0  0  0  0  0  0  0  0  0  0  0  0
    1.7986   60.7810   70.0857 H   0  0  0  0  0  0  0  0  0  0  0  0
    2.5360   62.1128   68.1096 H   0  0  0  0  0  0  0  0  0  0  0  0
    4.4826   63.6593   68.2979 H   0  0  0  0  0  0  0  0  0  0  0  0
    5.6994   63.8767   70.4641 H   0  0  0  0  0  0  0  0  0  0  0  0
    4.9683   62.5516   72.4441 H   0  0  0  0  0  0  0  0  0  0  0  0
  2  1  2  0
  3  2  1  0
  4  3  2  0
  5  4  1  0
  6  1  1  0
  6  5  2  0
  7  5  1  0
  8  7  1  0
  9  8  1  0
 10  9  1  0
 10  4  1  0
 11 10  1  0
 12 11  1  0
 13 12  1  0
 14 13  1  0
 14  9  1  0
 15 14  1  0
 16 15  1  0
 17 16  1  0
 17 13  1  0
 13 18  1  6
 19 17  1  0
 20  1  1  0
 22 21  2  0
 22 20  1  0
 23 22  1  0
 24 23  2  0
 25 24  1  0
 26 25  2  0
 27 26  1  0
 28 27  2  0
 28 23  1  0
  2 29  1  0
  3 30  1  0
  6 31  1  0
  7 32  1  0
  7 33  1  0
  8 34  1  0
  8 35  1  0
  9 36  1  6
 10 37  1  1
 11 38  1  0
 11 39  1  0
 12 40  1  0
 12 41  1  0
 14 42  1  1
 15 43  1  0
 15 44  1  0
 16 45  1  0
 16 46  1  0
 17 47  1  1
 18 48  1  0
 18 49  1  0
 18 50  1  0
 19 51  1  0
 24 52  1  0
 25 53  1  0
 26 54  1  0
 27 55  1  0
 28 56  1  0
M  END
>  <score>  (8) 
-9.013

$$$$
=
     RDKit          3D

 56 60  0  0  0  0  0  0  0  0999 V2000
    2.5030   59.7080   71.7890 C   0  0  0  0  0  0  0  0  0  0  0  0
    3.0390   58.4710   71.4600 C   0  0  0  0  0  0  0  0  0  0  0  0
    2.4950   57.3160   72.0260 C   0  0  0  0  0  0  0  0  0  0  0  0
    1.4130   57.3820   72.9240 C   0  0  0  0  0  0  0  0  0  0  0  0
    0.8490   58.6490   73.2060 C   0  0  0  0  0  0  0  0  0  0  0  0
    1.4050   59.8060   72.6370 C   0  0  0  0  0  0  0  0  0  0  0  0
   -0.3140   58.8220   74.1550 C   0  0  0  0  0  0  0  0  0  0  0  0
   -1.0400   57.5240   74.4920 C   0  0  0  0  0  0  0  0  0  0  0  0
   -0.0210   56.4250   74.8000 C   0  0  2  0  0  0  0  0  0  0  0  0
    0.7950   56.1140   73.5080 C   0  0  2  0  0  0  0  0  0  0  0  0
    1.7880   54.9430   73.7400 C   0  0  0  0  0  0  0  0  0  0  0  0
    1.1400   53.6990   74.3750 C   0  0  0  0  0  0  0  0  0  0  0  0
    0.3560   54.0500   75.6460 C   0  0  1  0  0  0  0  0  0  0  0  0
   -0.6800   55.1340   75.2860 C   0  0  1  0  0  0  0  0  0  0  0  0
   -1.5920   55.1740   76.5100 C   0  0  0  0  0  0  0  0  0  0  0  0
   -1.6390   53.7120   76.9880 C   0  0  0  0  0  0  0  0  0  0  0  0
   -0.5990   52.9490   76.1440 C   0  0  2  0  0  0  0  0  0  0  0  0
    1.3500   54.4490   76.7670 C   0  0  0  0  0  0  0  0  0  0  0  0
    0.0570   51.9470   76.8970 O   0  0  0  0  0  0  0  0  0  0  0  0
    3.0380   60.8390   71.1610 O   0  0  0  0  0  0  0  0  0  0  0  0
    4.0780   61.9800   72.9140 O   0  0  0  0  0  0  0  0  0  0  0  0
    3.2800   61.9190   71.9900 C   0  0  0  0  0  0  0  0  0  0  0  0
    2.4110   63.0610   71.5920 C   0  0  0  0  0  0  0  0  0  0  0  0
    2.7590   63.9620   70.5760 C   0  0  0  0  0  0  0  0  0  0  0  0
    1.9010   65.0150   70.2450 C   0  0  0  0  0  0  0  0  0  0  0  0
    0.6940   65.1730   70.9250 C   0  0  0  0  0  0  0  0  0  0  0  0
    0.3400   64.2810   71.9360 C   0  0  0  0  0  0  0  0  0  0  0  0
    1.1940   63.2290   72.2690 C   0  0  0  0  0  0  0  0  0  0  0  0
    3.8845   58.4009   70.7599 H   0  0  0  0  0  0  0  0  0  0  0  0
    2.9203   56.3357   71.7650 H   0  0  0  0  0  0  0  0  0  0  0  0
    0.9714   60.7915   72.8623 H   0  0  0  0  0  0  0  0  0  0  0  0
    0.0654   59.2587   75.0906 H   0  0  0  0  0  0  0  0  0  0  0  0
   -1.0432   59.4714   73.6485 H   0  0  0  0  0  0  0  0  0  0  0  0
   -1.6828   57.6826   75.3705 H   0  0  0  0  0  0  0  0  0  0  0  0
   -1.6552   57.2184   73.6329 H   0  0  0  0  0  0  0  0  0  0  0  0
    0.6293   56.7940   75.6068 H   0  0  0  0  0  0  0  0  0  0  0  0
    0.1110   55.7519   72.7264 H   0  0  0  0  0  0  0  0  0  0  0  0
    2.2170   54.6539   72.7692 H   0  0  0  0  0  0  0  0  0  0  0  0
    2.5512   55.3035   74.4453 H   0  0  0  0  0  0  0  0  0  0  0  0
    0.4521   53.2450   73.6465 H   0  0  0  0  0  0  0  0  0  0  0  0
    1.9425   52.9992   74.6511 H   0  0  0  0  0  0  0  0  0  0  0  0
   -1.3026   54.9275   74.4030 H   0  0  0  0  0  0  0  0  0  0  0  0
   -1.1718   55.8267   77.2894 H   0  0  0  0  0  0  0  0  0  0  0  0
   -2.5898   55.5766   76.2812 H   0  0  0  0  0  0  0  0  0  0  0  0
   -1.3817   53.6516   78.0558 H   0  0  0  0  0  0  0  0  0  0  0  0
   -2.6449   53.2834   76.8674 H   0  0  0  0  0  0  0  0  0  0  0  0
   -1.0510   52.3948   75.3082 H   0  0  0  0  0  0  0  0  0  0  0  0
    0.8892   54.2640   77.7486 H   0  0  0  0  0  0  0  0  0  0  0  0
    2.2676   53.8495   76.6739 H   0  0  0  0  0  0  0  0  0  0  0  0
    1.5984   55.5165   76.6739 H   0  0  0  0  0  0  0  0  0  0  0  0
   -0.0621   52.1289   77.8628 H   0  0  0  0  0  0  0  0  0  0  0  0
    3.7103   63.8401   70.0374 H   0  0  0  0  0  0  0  0  0  0  0  0
    2.1784   65.7197   69.4472 H   0  0  0  0  0  0  0  0  0  0  0  0
    0.0205   66.0024   70.6634 H   0  0  0  0  0  0  0  0  0  0  0  0
   -0.6127   64.4065   72.4713 H   0  0  0  0  0  0  0  0  0  0  0  0
    0.9112   62.5271   73.0673 H   0  0  0  0  0  0  0  0  0  0  0  0
  2  1  2  0
  3  2  1  0
  4  3  2  0
  5  4  1  0
  6  1  1  0
  6  5  2  0
  7  5  1  0
  8  7  1  0
  9  8  1  0
 10  9  1  0
 10  4  1  0
 11 10  1  0
 12 11  1  0
 13 12  1  0
 14 13  1  0
 14  9  1  0
 15 14  1  0
 16 15  1  0
 17 16  1  0
 17 13  1  0
 13 18  1  1
 19 17  1  0
 20  1  1  0
 22 21  2  0
 22 20  1  0
 23 22  1  0
 24 23  2  0
 25 24  1  0
 26 25  2  0
 27 26  1  0
 28 27  2  0
 28 23  1  0
  2 29  1  0
  3 30  1  0
  6 31  1  0
  7 32  1  0
  7 33  1  0
  8 34  1  0
  8 35  1  0
  9 36  1  1
 10 37  1  6
 11 38  1  0
 11 39  1  0
 12 40  1  0
 12 41  1  0
 14 42  1  6
 15 43  1  0
 15 44  1  0
 16 45  1  0
 16 46  1  0
 17 47  1  6
 18 48  1  0
 18 49  1  0
 18 50  1  0
 19 51  1  0
 24 52  1  0
 25 53  1  0
 26 54  1  0
 27 55  1  0
 28 56  1  0
M  END
>  <score>  (9) 
-8.964

$$$$
