=
     RDKit          3D

 63 66  0  0  0  0  0  0  0  0999 V2000
    0.0150   64.9330   70.2690 C   0  0  0  0  0  0  0  0  0  0  0  0
    0.0210   66.3560   69.6480 C   0  0  2  0  0  0  0  0  0  0  0  0
   -0.9870   66.4490   68.5350 C   0  0  0  0  0  0  0  0  0  0  0  0
   -1.0190   67.2010   67.4270 C   0  0  0  0  0  0  0  0  0  0  0  0
   -0.0910   68.2350   66.8930 C   0  0  0  0  0  0  0  0  0  0  0  0
    1.4010   68.1190   67.1770 N   0  0  1  0  0  4  0  0  0  0  0  0
    1.6710   68.1380   68.6780 C   0  0  0  0  0  0  0  0  0  0  0  0
    1.4640   66.8120   69.3930 C   0  0  0  0  0  0  0  0  0  0  0  0
    1.9530   66.8730   66.4890 C   0  0  0  0  0  0  0  0  0  0  0  0
    2.0450   69.3860   66.5240 C   0  0  0  0  0  0  0  0  0  0  0  0
    3.4890   69.6890   66.8470 C   0  0  0  0  0  0  0  0  0  0  0  0
    3.8450   70.2220   68.0970 C   0  0  0  0  0  0  0  0  0  0  0  0
    5.1790   70.5050   68.3980 C   0  0  0  0  0  0  0  0  0  0  0  0
    6.1730   70.2700   67.4510 C   0  0  0  0  0  0  0  0  0  0  0  0
    5.8330   69.7620   66.2000 C   0  0  0  0  0  0  0  0  0  0  0  0
    4.5010   69.4780   65.8970 C   0  0  0  0  0  0  0  0  0  0  0  0
    0.1060   64.9020   71.7970 C   0  0  0  0  0  0  0  0  0  0  0  0
   -0.4210   65.7870   72.4810 O   0  0  0  0  0  0  0  0  0  0  0  0
    2.3160   59.0910   72.2260 C   0  0  0  0  0  0  0  0  0  0  0  0
    2.6660   60.3340   71.6860 C   0  0  0  0  0  0  0  0  0  0  0  0
    1.8570   61.4300   71.9480 C   0  0  0  0  0  0  0  0  0  0  0  0
    2.1170   63.0780   71.3620 S   0  0  0  0  0  0  0  0  0  0  0  0
    0.8260   63.7440   72.4690 C   0  0  2  0  0  0  0  0  0  0  0  0
   -0.0900   62.5810   72.8700 C   0  0  0  0  0  0  0  0  0  0  0  0
    0.7090   61.3160   72.7300 C   0  0  0  0  0  0  0  0  0  0  0  0
    0.3430   60.0840   73.2640 C   0  0  0  0  0  0  0  0  0  0  0  0
    1.1490   58.9650   73.0190 C   0  0  0  0  0  0  0  0  0  0  0  0
    3.4500   57.6210   70.7140 C   0  0  0  0  0  0  0  0  0  0  0  0
    3.0370   57.9370   72.0360 O   0  0  0  0  0  0  0  0  0  0  0  0
    0.8840   57.7050   73.4960 O   0  0  0  0  0  0  0  0  0  0  0  0
   -0.4230   57.4380   73.9830 C   0  0  0  0  0  0  0  0  0  0  0  0
   -0.9184   64.4329   69.9710 H   0  0  0  0  0  0  0  0  0  0  0  0
    0.9162   64.4261   69.8935 H   0  0  0  0  0  0  0  0  0  0  0  0
   -0.3459   67.1239   70.3449 H   0  0  0  0  0  0  0  0  0  0  0  0
   -1.8523   65.7799   68.6520 H   0  0  0  0  0  0  0  0  0  0  0  0
   -1.8980   67.0200   66.7909 H   0  0  0  0  0  0  0  0  0  0  0  0
   -0.2097   68.2380   65.7994 H   0  0  0  0  0  0  0  0  0  0  0  0
   -0.3865   69.1498   67.4277 H   0  0  0  0  0  0  0  0  0  0  0  0
    2.7154   68.4472   68.8314 H   0  0  0  0  0  0  0  0  0  0  0  0
    0.9369   68.8340   69.1100 H   0  0  0  0  0  0  0  0  0  0  0  0
    1.9526   66.0334   68.7888 H   0  0  0  0  0  0  0  0  0  0  0  0
    1.8872   66.9684   70.3962 H   0  0  0  0  0  0  0  0  0  0  0  0
    2.2749   66.1464   67.2496 H   0  0  0  0  0  0  0  0  0  0  0  0
    1.1698   66.4236   65.8609 H   0  0  0  0  0  0  0  0  0  0  0  0
    2.8121   67.1512   65.8609 H   0  0  0  0  0  0  0  0  0  0  0  0
    1.9712   69.2660   65.4331 H   0  0  0  0  0  0  0  0  0  0  0  0
    1.4834   70.2314   66.9481 H   0  0  0  0  0  0  0  0  0  0  0  0
    3.0646   70.4186   68.8468 H   0  0  0  0  0  0  0  0  0  0  0  0
    5.4450   70.9139   69.3839 H   0  0  0  0  0  0  0  0  0  0  0  0
    7.2247   70.4853   67.6910 H   0  0  0  0  0  0  0  0  0  0  0  0
    6.6165   69.5841   65.4487 H   0  0  0  0  0  0  0  0  0  0  0  0
    4.2410   69.0846   64.9032 H   0  0  0  0  0  0  0  0  0  0  0  0
    3.5673   60.4400   71.0644 H   0  0  0  0  0  0  0  0  0  0  0  0
    1.2524   64.1671   73.3905 H   0  0  0  0  0  0  0  0  0  0  0  0
   -0.4210   62.7041   73.9118 H   0  0  0  0  0  0  0  0  0  0  0  0
   -0.9842   62.5503   72.2302 H   0  0  0  0  0  0  0  0  0  0  0  0
   -0.5691   59.9901   73.8717 H   0  0  0  0  0  0  0  0  0  0  0  0
    4.3231   56.9530   70.7524 H   0  0  0  0  0  0  0  0  0  0  0  0
    2.6276   57.1194   70.1830 H   0  0  0  0  0  0  0  0  0  0  0  0
    3.7191   58.5460   70.1830 H   0  0  0  0  0  0  0  0  0  0  0  0
   -0.4120   57.4402   75.0829 H   0  0  0  0  0  0  0  0  0  0  0  0
   -1.1145   58.2134   73.6216 H   0  0  0  0  0  0  0  0  0  0  0  0
   -0.7549   56.4535   73.6216 H   0  0  0  0  0  0  0  0  0  0  0  0
  2  1  1  0
  3  2  1  0
  4  3  2  0
  5  4  1  0
  6  5  1  0
  7  6  1  0
  8  7  1  0
  8  2  1  0
  6  9  1  6
 10  6  1  0
 11 10  1  0
 12 11  2  0
 13 12  1  0
 14 13  2  0
 15 14  1  0
 16 11  1  0
 16 15  2  0
 17  1  1  0
 18 17  2  0
 20 19  2  0
 21 20  1  0
 22 21  1  0
 23 22  1  0
 23 17  1  0
 24 23  1  0
 25 24  1  0
 25 21  2  0
 26 25  1  0
 27 19  1  0
 27 26  2  0
 29 28  1  0
 29 19  1  0
 30 27  1  0
 31 30  1  0
  1 32  1  0
  1 33  1  0
  2 34  1  1
  3 35  1  0
  4 36  1  0
  5 37  1  0
  5 38  1  0
  7 39  1  0
  7 40  1  0
  8 41  1  0
  8 42  1  0
  9 43  1  0
  9 44  1  0
  9 45  1  0
 10 46  1  0
 10 47  1  0
 12 48  1  0
 13 49  1  0
 14 50  1  0
 15 51  1  0
 16 52  1  0
 20 53  1  0
 23 54  1  1
 24 55  1  0
 24 56  1  0
 26 57  1  0
 28 58  1  0
 28 59  1  0
 28 60  1  0
 31 61  1  0
 31 62  1  0
 31 63  1  0
M  CHG  1   6   1
M  END
>  <score>  (1) 
-10.252

$$$$
=
     RDKit          3D

 63 66  0  0  0  0  0  0  0  0999 V2000
    0.5120   66.3110   70.1370 C   0  0  0  0  0  0  0  0  0  0  0  0
    1.0530   64.8570   70.2030 C   0  0  2  0  0  0  0  0  0  0  0  0
   -0.0460   63.9040   70.5850 C   0  0  0  0  0  0  0  0  0  0  0  0
   -0.0190   62.7340   71.2380 C   0  0  0  0  0  0  0  0  0  0  0  0
    1.0970   61.9320   71.8080 C   0  0  0  0  0  0  0  0  0  0  0  0
    2.3320   62.6440   72.3450 N   0  0  1  0  0  4  0  0  0  0  0  0
    3.0040   63.4660   71.2500 C   0  0  0  0  0  0  0  0  0  0  0  0
    2.3770   64.8250   70.9780 C   0  0  0  0  0  0  0  0  0  0  0  0
    1.9460   63.4800   73.5630 C   0  0  0  0  0  0  0  0  0  0  0  0
    3.3020   61.5040   72.7990 C   0  0  0  0  0  0  0  0  0  0  0  0
    3.0600   60.1140   72.2580 C   0  0  0  0  0  0  0  0  0  0  0  0
    2.3130   59.1800   72.9970 C   0  0  0  0  0  0  0  0  0  0  0  0
    2.0890   57.8940   72.5000 C   0  0  0  0  0  0  0  0  0  0  0  0
    2.6160   57.5210   71.2670 C   0  0  0  0  0  0  0  0  0  0  0  0
    3.3760   58.4290   70.5330 C   0  0  0  0  0  0  0  0  0  0  0  0
    3.6010   59.7140   71.0270 C   0  0  0  0  0  0  0  0  0  0  0  0
   -0.1100   66.7010   68.7930 C   0  0  0  0  0  0  0  0  0  0  0  0
   -1.1170   66.1220   68.3700 O   0  0  0  0  0  0  0  0  0  0  0  0
    4.1400   69.3750   65.1020 C   0  0  0  0  0  0  0  0  0  0  0  0
    2.9950   68.5740   65.0140 C   0  0  0  0  0  0  0  0  0  0  0  0
    2.2800   68.2980   66.1700 C   0  0  0  0  0  0  0  0  0  0  0  0
    0.8170   67.3100   66.2780 S   0  0  0  0  0  0  0  0  0  0  0  0
    0.5090   67.8390   67.9980 C   0  0  2  0  0  0  0  0  0  0  0  0
    1.8330   68.3590   68.5710 C   0  0  0  0  0  0  0  0  0  0  0  0
    2.6790   68.7970   67.4090 C   0  0  0  0  0  0  0  0  0  0  0  0
    3.8210   69.5870   67.5130 C   0  0  0  0  0  0  0  0  0  0  0  0
    4.5550   69.8840   66.3570 C   0  0  0  0  0  0  0  0  0  0  0  0
    5.5190   68.6640   63.2790 C   0  0  0  0  0  0  0  0  0  0  0  0
    4.9280   69.7150   64.0290 O   0  0  0  0  0  0  0  0  0  0  0  0
    5.6940   70.6510   66.3430 O   0  0  0  0  0  0  0  0  0  0  0  0
    6.4690   70.7140   67.5320 C   0  0  0  0  0  0  0  0  0  0  0  0
   -0.2555   66.4269   70.9164 H   0  0  0  0  0  0  0  0  0  0  0  0
    1.3789   66.9724   70.2822 H   0  0  0  0  0  0  0  0  0  0  0  0
    1.3505   64.4693   69.2175 H   0  0  0  0  0  0  0  0  0  0  0  0
   -1.0509   64.2244   70.2728 H   0  0  0  0  0  0  0  0  0  0  0  0
   -1.0110   62.2801   71.3795 H   0  0  0  0  0  0  0  0  0  0  0  0
    0.6783   61.3460   72.6394 H   0  0  0  0  0  0  0  0  0  0  0  0
    1.4782   61.3677   70.9441 H   0  0  0  0  0  0  0  0  0  0  0  0
    4.0522   63.6279   71.5418 H   0  0  0  0  0  0  0  0  0  0  0  0
    2.8885   62.8872   70.3218 H   0  0  0  0  0  0  0  0  0  0  0  0
    2.1997   65.3058   71.9513 H   0  0  0  0  0  0  0  0  0  0  0  0
    3.0961   65.3367   70.3215 H   0  0  0  0  0  0  0  0  0  0  0  0
    2.2001   62.9297   74.4809 H   0  0  0  0  0  0  0  0  0  0  0  0
    2.4953   64.4328   73.5428 H   0  0  0  0  0  0  0  0  0  0  0  0
    0.8645   63.6798   73.5428 H   0  0  0  0  0  0  0  0  0  0  0  0
    4.3183   61.7999   72.4998 H   0  0  0  0  0  0  0  0  0  0  0  0
    3.1329   61.4123   73.8821 H   0  0  0  0  0  0  0  0  0  0  0  0
    1.9009   59.4648   73.9763 H   0  0  0  0  0  0  0  0  0  0  0  0
    1.4954   57.1751   73.0838 H   0  0  0  0  0  0  0  0  0  0  0  0
    2.4327   56.5106   70.8726 H   0  0  0  0  0  0  0  0  0  0  0  0
    3.7994   58.1321   69.5621 H   0  0  0  0  0  0  0  0  0  0  0  0
    4.2095   60.4216   70.4448 H   0  0  0  0  0  0  0  0  0  0  0  0
    2.6680   68.1704   64.0444 H   0  0  0  0  0  0  0  0  0  0  0  0
   -0.2230   68.6584   68.0512 H   0  0  0  0  0  0  0  0  0  0  0  0
    1.6448   69.2101   69.2420 H   0  0  0  0  0  0  0  0  0  0  0  0
    2.3421   67.5750   69.1508 H   0  0  0  0  0  0  0  0  0  0  0  0
    4.1431   69.9734   68.4912 H   0  0  0  0  0  0  0  0  0  0  0  0
    5.9401   67.9152   63.9660 H   0  0  0  0  0  0  0  0  0  0  0  0
    4.7545   68.1911   62.6450 H   0  0  0  0  0  0  0  0  0  0  0  0
    6.3202   69.0716   62.6450 H   0  0  0  0  0  0  0  0  0  0  0  0
    5.8039   70.6599   68.4065 H   0  0  0  0  0  0  0  0  0  0  0  0
    7.1744   69.8702   67.5551 H   0  0  0  0  0  0  0  0  0  0  0  0
    7.0288   71.6606   67.5551 H   0  0  0  0  0  0  0  0  0  0  0  0
  2  1  1  0
  3  2  1  0
  4  3  2  0
  5  4  1  0
  6  5  1  0
  7  6  1  0
  8  7  1  0
  8  2  1  0
  6  9  1  1
 10  6  1  0
 11 10  1  0
 12 11  2  0
 13 12  1  0
 14 13  2  0
 15 14  1  0
 16 11  1  0
 16 15  2  0
 17  1  1  0
 18 17  2  0
 20 19  2  0
 21 20  1  0
 22 21  1  0
 23 22  1  0
 23 17  1  0
 24 23  1  0
 25 24  1  0
 25 21  2  0
 26 25  1  0
 27 19  1  0
 27 26  2  0
 29 28  1  0
 29 19  1  0
 30 27  1  0
 31 30  1  0
  1 32  1  0
  1 33  1  0
  2 34  1  6
  3 35  1  0
  4 36  1  0
  5 37  1  0
  5 38  1  0
  7 39  1  0
  7 40  1  0
  8 41  1  0
  8 42  1  0
  9 43  1  0
  9 44  1  0
  9 45  1  0
 10 46  1  0
 10 47  1  0
 12 48  1  0
 13 49  1  0
 14 50  1  0
 15 51  1  0
 16 52  1  0
 20 53  1  0
 23 54  1  6
 24 55  1  0
 24 56  1  0
 26 57  1  0
 28 58  1  0
 28 59  1  0
 28 60  1  0
 31 61  1  0
 31 62  1  0
 31 63  1  0
M  CHG  1   6   1
M  END
>  <score>  (2) 
-9.731

$$$$
=
     RDKit          3D

 63 66  0  0  0  0  0  0  0  0999 V2000
   -0.7220   66.0880   69.0780 C   0  0  0  0  0  0  0  0  0  0  0  0
   -0.1280   67.3730   68.4430 C   0  0  2  0  0  0  0  0  0  0  0  0
   -0.8290   67.6950   67.1510 C   0  0  0  0  0  0  0  0  0  0  0  0
   -0.4060   68.3210   66.0440 C   0  0  0  0  0  0  0  0  0  0  0  0
    0.8940   68.9460   65.6820 C   0  0  0  0  0  0  0  0  0  0  0  0
    2.1840   68.3750   66.2570 N   0  0  1  0  0  4  0  0  0  0  0  0
    2.1710   68.4320   67.7820 C   0  0  0  0  0  0  0  0  0  0  0  0
    1.4060   67.3100   68.4680 C   0  0  0  0  0  0  0  0  0  0  0  0
    2.3990   66.9630   65.7170 C   0  0  0  0  0  0  0  0  0  0  0  0
    3.3230   69.3030   65.7200 C   0  0  0  0  0  0  0  0  0  0  0  0
    4.3480   69.8070   66.7080 C   0  0  0  0  0  0  0  0  0  0  0  0
    5.7130   69.8270   66.3730 C   0  0  0  0  0  0  0  0  0  0  0  0
    6.6640   70.2900   67.2850 C   0  0  0  0  0  0  0  0  0  0  0  0
    6.2660   70.7290   68.5450 C   0  0  0  0  0  0  0  0  0  0  0  0
    4.9200   70.6970   68.8980 C   0  0  0  0  0  0  0  0  0  0  0  0
    3.9670   70.2340   67.9890 C   0  0  0  0  0  0  0  0  0  0  0  0
   -0.0960   65.6880   70.4170 C   0  0  0  0  0  0  0  0  0  0  0  0
   -0.1010   66.4680   71.3750 O   0  0  0  0  0  0  0  0  0  0  0  0
    3.1510   61.1910   73.2570 C   0  0  0  0  0  0  0  0  0  0  0  0
    1.8700   61.7550   73.2620 C   0  0  0  0  0  0  0  0  0  0  0  0
    1.5630   62.7300   72.3250 C   0  0  0  0  0  0  0  0  0  0  0  0
    0.0140   63.5670   72.1630 S   0  0  0  0  0  0  0  0  0  0  0  0
    0.5030   64.2990   70.5630 C   0  0  2  0  0  0  0  0  0  0  0  0
    2.0340   64.2620   70.4810 C   0  0  0  0  0  0  0  0  0  0  0  0
    2.5010   63.1580   71.3880 C   0  0  0  0  0  0  0  0  0  0  0  0
    3.7830   62.6140   71.3780 C   0  0  0  0  0  0  0  0  0  0  0  0
    4.1130   61.6220   72.3110 C   0  0  0  0  0  0  0  0  0  0  0  0
    2.9460   58.9460   74.0630 C   0  0  0  0  0  0  0  0  0  0  0  0
    3.5700   60.2200   74.1350 O   0  0  0  0  0  0  0  0  0  0  0  0
    5.3430   61.0180   72.3910 O   0  0  0  0  0  0  0  0  0  0  0  0
    6.0550   60.7940   71.1830 C   0  0  0  0  0  0  0  0  0  0  0  0
   -1.7981   66.2506   69.2378 H   0  0  0  0  0  0  0  0  0  0  0  0
   -0.5078   65.2675   68.3774 H   0  0  0  0  0  0  0  0  0  0  0  0
   -0.3348   68.2743   69.0387 H   0  0  0  0  0  0  0  0  0  0  0  0
   -1.8747   67.3563   67.1073 H   0  0  0  0  0  0  0  0  0  0  0  0
   -1.1660   68.3847   65.2513 H   0  0  0  0  0  0  0  0  0  0  0  0
    0.9807   68.8938   64.5867 H   0  0  0  0  0  0  0  0  0  0  0  0
    0.8327   69.9494   66.1285 H   0  0  0  0  0  0  0  0  0  0  0  0
    3.2131   68.3965   68.1323 H   0  0  0  0  0  0  0  0  0  0  0  0
    1.6484   69.3629   68.0472 H   0  0  0  0  0  0  0  0  0  0  0  0
    1.7040   66.3669   67.9865 H   0  0  0  0  0  0  0  0  0  0  0  0
    1.6708   67.4027   69.5316 H   0  0  0  0  0  0  0  0  0  0  0  0
    2.5058   66.2614   66.5574 H   0  0  0  0  0  0  0  0  0  0  0  0
    1.5351   66.6700   65.1023 H   0  0  0  0  0  0  0  0  0  0  0  0
    3.3109   66.9404   65.1023 H   0  0  0  0  0  0  0  0  0  0  0  0
    3.8642   68.7420   64.9439 H   0  0  0  0  0  0  0  0  0  0  0  0
    2.8021   70.2088   65.3764 H   0  0  0  0  0  0  0  0  0  0  0  0
    6.0355   69.4743   65.3822 H   0  0  0  0  0  0  0  0  0  0  0  0
    7.7283   70.3079   67.0077 H   0  0  0  0  0  0  0  0  0  0  0  0
    7.0143   71.1006   69.2605 H   0  0  0  0  0  0  0  0  0  0  0  0
    4.6064   71.0374   69.8959 H   0  0  0  0  0  0  0  0  0  0  0  0
    2.9066   70.2036   68.2800 H   0  0  0  0  0  0  0  0  0  0  0  0
    1.1191   61.4301   73.9972 H   0  0  0  0  0  0  0  0  0  0  0  0
    0.1087   63.7256   69.7111 H   0  0  0  0  0  0  0  0  0  0  0  0
    2.3513   64.0601   69.4473 H   0  0  0  0  0  0  0  0  0  0  0  0
    2.4649   65.2269   70.7864 H   0  0  0  0  0  0  0  0  0  0  0  0
    4.5280   62.9591   70.6460 H   0  0  0  0  0  0  0  0  0  0  0  0
    2.7618   58.5699   75.0802 H   0  0  0  0  0  0  0  0  0  0  0  0
    1.9899   59.0358   73.5265 H   0  0  0  0  0  0  0  0  0  0  0  0
    3.6031   58.2457   73.5265 H   0  0  0  0  0  0  0  0  0  0  0  0
    7.0804   60.4714   71.4162 H   0  0  0  0  0  0  0  0  0  0  0  0
    5.5485   60.0118   70.5985 H   0  0  0  0  0  0  0  0  0  0  0  0
    6.0876   61.7253   70.5985 H   0  0  0  0  0  0  0  0  0  0  0  0
  2  1  1  0
  3  2  1  0
  4  3  2  0
  5  4  1  0
  6  5  1  0
  7  6  1  0
  8  7  1  0
  8  2  1  0
  6  9  1  1
 10  6  1  0
 11 10  1  0
 12 11  2  0
 13 12  1  0
 14 13  2  0
 15 14  1  0
 16 11  1  0
 16 15  2  0
 17  1  1  0
 18 17  2  0
 20 19  2  0
 21 20  1  0
 22 21  1  0
 23 22  1  0
 23 17  1  0
 24 23  1  0
 25 24  1  0
 25 21  2  0
 26 25  1  0
 27 19  1  0
 27 26  2  0
 29 28  1  0
 29 19  1  0
 30 27  1  0
 31 30  1  0
  1 32  1  0
  1 33  1  0
  2 34  1  1
  3 35  1  0
  4 36  1  0
  5 37  1  0
  5 38  1  0
  7 39  1  0
  7 40  1  0
  8 41  1  0
  8 42  1  0
  9 43  1  0
  9 44  1  0
  9 45  1  0
 10 46  1  0
 10 47  1  0
 12 48  1  0
 13 49  1  0
 14 50  1  0
 15 51  1  0
 16 52  1  0
 20 53  1  0
 23 54  1  6
 24 55  1  0
 24 56  1  0
 26 57  1  0
 28 58  1  0
 28 59  1  0
 28 60  1  0
 31 61  1  0
 31 62  1  0
 31 63  1  0
M  CHG  1   6   1
M  END
>  <score>  (3) 
-9.644

$$$$
=
     RDKit          3D

 63 66  0  0  0  0  0  0  0  0999 V2000
    0.4450   64.3910   70.2460 C   0  0  0  0  0  0  0  0  0  0  0  0
    1.5640   63.7270   71.0910 C   0  0  2  0  0  0  0  0  0  0  0  0
    2.9200   64.1290   70.5790 C   0  0  0  0  0  0  0  0  0  0  0  0
    4.1000   63.4950   70.5990 C   0  0  0  0  0  0  0  0  0  0  0  0
    4.5180   62.1760   71.1460 C   0  0  0  0  0  0  0  0  0  0  0  0
    3.5190   61.0260   71.1710 N   0  0  1  0  0  4  0  0  0  0  0  0
    2.2950   61.3890   72.0070 C   0  0  0  0  0  0  0  0  0  0  0  0
    1.2510   62.2380   71.2980 C   0  0  0  0  0  0  0  0  0  0  0  0
    3.1650   60.6300   69.7400 C   0  0  0  0  0  0  0  0  0  0  0  0
    4.2730   59.8390   71.8550 C   0  0  0  0  0  0  0  0  0  0  0  0
    3.4650   58.8840   72.7020 C   0  0  0  0  0  0  0  0  0  0  0  0
    3.5990   58.8810   74.1010 C   0  0  0  0  0  0  0  0  0  0  0  0
    2.8550   57.9990   74.8870 C   0  0  0  0  0  0  0  0  0  0  0  0
    1.9770   57.1010   74.2860 C   0  0  0  0  0  0  0  0  0  0  0  0
    1.8480   57.0770   72.9000 C   0  0  0  0  0  0  0  0  0  0  0  0
    2.5910   57.9580   72.1120 C   0  0  0  0  0  0  0  0  0  0  0  0
    0.0250   65.7840   70.7230 C   0  0  0  0  0  0  0  0  0  0  0  0
   -0.3560   65.9680   71.8840 O   0  0  0  0  0  0  0  0  0  0  0  0
    1.0090   68.5000   65.2000 C   0  0  0  0  0  0  0  0  0  0  0  0
   -0.0020   67.8340   65.9020 C   0  0  0  0  0  0  0  0  0  0  0  0
    0.2230   67.4770   67.2230 C   0  0  0  0  0  0  0  0  0  0  0  0
   -0.9150   66.6310   68.2810 S   0  0  0  0  0  0  0  0  0  0  0  0
    0.1150   66.9520   69.7540 C   0  0  2  0  0  0  0  0  0  0  0  0
    1.5380   67.2600   69.2700 C   0  0  0  0  0  0  0  0  0  0  0  0
    1.4290   67.7640   67.8590 C   0  0  0  0  0  0  0  0  0  0  0  0
    2.4480   68.4170   67.1700 C   0  0  0  0  0  0  0  0  0  0  0  0
    2.2400   68.7930   65.8370 C   0  0  0  0  0  0  0  0  0  0  0  0
   -0.3980   68.9900   63.3260 C   0  0  0  0  0  0  0  0  0  0  0  0
    0.9030   68.9020   63.8910 O   0  0  0  0  0  0  0  0  0  0  0  0
    3.1730   69.4400   65.0640 O   0  0  0  0  0  0  0  0  0  0  0  0
    4.5070   69.5050   65.5460 C   0  0  0  0  0  0  0  0  0  0  0  0
    0.8036   64.4773   69.2097 H   0  0  0  0  0  0  0  0  0  0  0  0
   -0.4421   63.7480   70.3446 H   0  0  0  0  0  0  0  0  0  0  0  0
    1.5965   64.1047   72.1236 H   0  0  0  0  0  0  0  0  0  0  0  0
    2.9477   65.1204   70.1033 H   0  0  0  0  0  0  0  0  0  0  0  0
    4.9153   64.0567   70.1196 H   0  0  0  0  0  0  0  0  0  0  0  0
    5.3787   61.8398   70.5491 H   0  0  0  0  0  0  0  0  0  0  0  0
    4.7017   62.3832   72.2106 H   0  0  0  0  0  0  0  0  0  0  0  0
    1.8123   60.4536   72.3264 H   0  0  0  0  0  0  0  0  0  0  0  0
    2.6679   62.0005   72.8419 H   0  0  0  0  0  0  0  0  0  0  0  0
    1.0869   61.7954   70.3044 H   0  0  0  0  0  0  0  0  0  0  0  0
    0.3802   62.2273   71.9700 H   0  0  0  0  0  0  0  0  0  0  0  0
    2.4320   59.8100   69.7571 H   0  0  0  0  0  0  0  0  0  0  0  0
    2.7344   61.4959   69.2158 H   0  0  0  0  0  0  0  0  0  0  0  0
    4.0736   60.2987   69.2158 H   0  0  0  0  0  0  0  0  0  0  0  0
    4.7473   59.2487   71.0571 H   0  0  0  0  0  0  0  0  0  0  0  0
    4.9625   60.3212   72.5636 H   0  0  0  0  0  0  0  0  0  0  0  0
    4.2978   59.5813   74.5820 H   0  0  0  0  0  0  0  0  0  0  0  0
    2.9625   58.0136   75.9816 H   0  0  0  0  0  0  0  0  0  0  0  0
    1.3857   56.4110   74.9058 H   0  0  0  0  0  0  0  0  0  0  0  0
    1.1595   56.3627   72.4249 H   0  0  0  0  0  0  0  0  0  0  0  0
    2.4903   57.9260   71.0171 H   0  0  0  0  0  0  0  0  0  0  0  0
   -0.9591   67.5976   65.4141 H   0  0  0  0  0  0  0  0  0  0  0  0
   -0.2416   67.8236   70.3225 H   0  0  0  0  0  0  0  0  0  0  0  0
    1.9956   68.0286   69.9103 H   0  0  0  0  0  0  0  0  0  0  0  0
    2.1687   66.3599   69.3151 H   0  0  0  0  0  0  0  0  0  0  0  0
    3.4049   68.6349   67.6669 H   0  0  0  0  0  0  0  0  0  0  0  0
   -1.1451   69.0405   64.1318 H   0  0  0  0  0  0  0  0  0  0  0  0
   -0.4674   69.8949   62.7044 H   0  0  0  0  0  0  0  0  0  0  0  0
   -0.5886   68.1027   62.7044 H   0  0  0  0  0  0  0  0  0  0  0  0
    4.4998   69.5047   66.6460 H   0  0  0  0  0  0  0  0  0  0  0  0
    5.0710   68.6333   65.1827 H   0  0  0  0  0  0  0  0  0  0  0  0
    4.9836   70.4274   65.1827 H   0  0  0  0  0  0  0  0  0  0  0  0
  2  1  1  0
  3  2  1  0
  4  3  2  0
  5  4  1  0
  6  5  1  0
  7  6  1  0
  8  7  1  0
  8  2  1  0
  6  9  1  6
 10  6  1  0
 11 10  1  0
 12 11  2  0
 13 12  1  0
 14 13  2  0
 15 14  1  0
 16 11  1  0
 16 15  2  0
 17  1  1  0
 18 17  2  0
 20 19  2  0
 21 20  1  0
 22 21  1  0
 23 22  1  0
 23 17  1  0
 24 23  1  0
 25 24  1  0
 25 21  2  0
 26 25  1  0
 27 19  1  0
 27 26  2  0
 29 28  1  0
 29 19  1  0
 30 27  1  0
 31 30  1  0
  1 32  1  0
  1 33  1  0
  2 34  1  1
  3 35  1  0
  4 36  1  0
  5 37  1  0
  5 38  1  0
  7 39  1  0
  7 40  1  0
  8 41  1  0
  8 42  1  0
  9 43  1  0
  9 44  1  0
  9 45  1  0
 10 46  1  0
 10 47  1  0
 12 48  1  0
 13 49  1  0
 14 50  1  0
 15 51  1  0
 16 52  1  0
 20 53  1  0
 23 54  1  1
 24 55  1  0
 24 56  1  0
 26 57  1  0
 28 58  1  0
 28 59  1  0
 28 60  1  0
 31 61  1  0
 31 62  1  0
 31 63  1  0
M  CHG  1   6   1
M  END
>  <score>  (4) 
-9.544

$$$$
=
     RDKit          3D

 63 66  0  0  0  0  0  0  0  0999 V2000
    0.2760   64.2550   70.0290 C   0  0  0  0  0  0  0  0  0  0  0  0
    0.1710   65.7930   69.8430 C   0  0  2  0  0  0  0  0  0  0  0  0
   -0.9190   66.1310   68.8630 C   0  0  0  0  0  0  0  0  0  0  0  0
   -1.0660   67.1630   68.0210 C   0  0  0  0  0  0  0  0  0  0  0  0
   -0.2290   68.3630   67.7520 C   0  0  0  0  0  0  0  0  0  0  0  0
    1.2840   68.2690   67.9050 N   0  0  1  0  0  4  0  0  0  0  0  0
    1.6630   67.8790   69.3310 C   0  0  0  0  0  0  0  0  0  0  0  0
    1.5700   66.3940   69.6470 C   0  0  0  0  0  0  0  0  0  0  0  0
    1.8410   67.3060   66.8590 C   0  0  0  0  0  0  0  0  0  0  0  0
    1.8200   69.7080   67.6070 C   0  0  0  0  0  0  0  0  0  0  0  0
    3.3140   69.8930   67.4840 C   0  0  0  0  0  0  0  0  0  0  0  0
    3.9870   69.5110   66.3110 C   0  0  0  0  0  0  0  0  0  0  0  0
    5.3690   69.6790   66.1950 C   0  0  0  0  0  0  0  0  0  0  0  0
    6.0970   70.2200   67.2510 C   0  0  0  0  0  0  0  0  0  0  0  0
    5.4470   70.5850   68.4280 C   0  0  0  0  0  0  0  0  0  0  0  0
    4.0670   70.4170   68.5470 C   0  0  0  0  0  0  0  0  0  0  0  0
    1.4470   63.7960   70.9020 C   0  0  0  0  0  0  0  0  0  0  0  0
    2.6060   64.1290   70.6330 O   0  0  0  0  0  0  0  0  0  0  0  0
   -0.3680   58.6730   73.9520 C   0  0  0  0  0  0  0  0  0  0  0  0
    0.7640   59.1990   73.3180 C   0  0  0  0  0  0  0  0  0  0  0  0
    0.7210   60.5000   72.8420 C   0  0  0  0  0  0  0  0  0  0  0  0
    2.0320   61.3480   72.0110 S   0  0  0  0  0  0  0  0  0  0  0  0
    1.1600   62.9480   72.1310 C   0  0  2  0  0  0  0  0  0  0  0  0
   -0.3280   62.6530   72.3590 C   0  0  0  0  0  0  0  0  0  0  0  0
   -0.4210   61.2880   72.9790 C   0  0  0  0  0  0  0  0  0  0  0  0
   -1.5570   60.7750   73.5990 C   0  0  0  0  0  0  0  0  0  0  0  0
   -1.5340   59.4640   74.0940 C   0  0  0  0  0  0  0  0  0  0  0  0
   -0.3360   56.3120   73.5550 C   0  0  0  0  0  0  0  0  0  0  0  0
   -0.4440   57.4000   74.4630 O   0  0  0  0  0  0  0  0  0  0  0  0
   -2.5940   58.8580   74.7210 O   0  0  0  0  0  0  0  0  0  0  0  0
   -3.8040   59.5920   74.8440 C   0  0  0  0  0  0  0  0  0  0  0  0
   -0.6567   63.9012   70.4927 H   0  0  0  0  0  0  0  0  0  0  0  0
    0.4488   63.8315   69.0286 H   0  0  0  0  0  0  0  0  0  0  0  0
   -0.1788   66.3079   70.7500 H   0  0  0  0  0  0  0  0  0  0  0  0
   -1.7416   65.4013   68.8321 H   0  0  0  0  0  0  0  0  0  0  0  0
   -1.9808   67.1133   67.4121 H   0  0  0  0  0  0  0  0  0  0  0  0
   -0.4278   68.6661   66.7135 H   0  0  0  0  0  0  0  0  0  0  0  0
   -0.5263   69.0690   68.5414 H   0  0  0  0  0  0  0  0  0  0  0  0
    2.7007   68.1990   69.5061 H   0  0  0  0  0  0  0  0  0  0  0  0
    0.9314   68.3750   69.9858 H   0  0  0  0  0  0  0  0  0  0  0  0
    2.0478   65.8511   68.8182 H   0  0  0  0  0  0  0  0  0  0  0  0
    2.0587   66.2868   70.6266 H   0  0  0  0  0  0  0  0  0  0  0  0
    2.3304   66.4598   67.3634 H   0  0  0  0  0  0  0  0  0  0  0  0
    1.0194   66.9326   66.2300 H   0  0  0  0  0  0  0  0  0  0  0  0
    2.5744   67.8319   66.2300 H   0  0  0  0  0  0  0  0  0  0  0  0
    1.3699   70.0355   66.6582 H   0  0  0  0  0  0  0  0  0  0  0  0
    1.5407   70.2961   68.4937 H   0  0  0  0  0  0  0  0  0  0  0  0
    3.4197   69.0751   65.4754 H   0  0  0  0  0  0  0  0  0  0  0  0
    5.8825   69.3835   65.2682 H   0  0  0  0  0  0  0  0  0  0  0  0
    7.1840   70.3591   67.1563 H   0  0  0  0  0  0  0  0  0  0  0  0
    6.0229   71.0065   69.2651 H   0  0  0  0  0  0  0  0  0  0  0  0
    3.5635   70.6981   69.4837 H   0  0  0  0  0  0  0  0  0  0  0  0
    1.6723   58.5900   73.1996 H   0  0  0  0  0  0  0  0  0  0  0  0
    1.5163   63.5472   72.9819 H   0  0  0  0  0  0  0  0  0  0  0  0
   -0.7617   63.4043   73.0353 H   0  0  0  0  0  0  0  0  0  0  0  0
   -0.8828   62.6891   71.4099 H   0  0  0  0  0  0  0  0  0  0  0  0
   -2.4624   61.3916   73.6993 H   0  0  0  0  0  0  0  0  0  0  0  0
   -0.2427   55.3720   74.1186 H   0  0  0  0  0  0  0  0  0  0  0  0
   -1.2346   56.2723   72.9218 H   0  0  0  0  0  0  0  0  0  0  0  0
    0.5529   56.4497   72.9218 H   0  0  0  0  0  0  0  0  0  0  0  0
   -4.0395   59.7349   75.9089 H   0  0  0  0  0  0  0  0  0  0  0  0
   -3.6889   60.5726   74.3592 H   0  0  0  0  0  0  0  0  0  0  0  0
   -4.6205   59.0368   74.3592 H   0  0  0  0  0  0  0  0  0  0  0  0
  2  1  1  0
  3  2  1  0
  4  3  2  0
  5  4  1  0
  6  5  1  0
  7  6  1  0
  8  7  1  0
  8  2  1  0
  6  9  1  6
 10  6  1  0
 11 10  1  0
 12 11  2  0
 13 12  1  0
 14 13  2  0
 15 14  1  0
 16 11  1  0
 16 15  2  0
 17  1  1  0
 18 17  2  0
 20 19  2  0
 21 20  1  0
 22 21  1  0
 23 22  1  0
 23 17  1  0
 24 23  1  0
 25 24  1  0
 25 21  2  0
 26 25  1  0
 27 19  1  0
 27 26  2  0
 29 28  1  0
 29 19  1  0
 30 27  1  0
 31 30  1  0
  1 32  1  0
  1 33  1  0
  2 34  1  1
  3 35  1  0
  4 36  1  0
  5 37  1  0
  5 38  1  0
  7 39  1  0
  7 40  1  0
  8 41  1  0
  8 42  1  0
  9 43  1  0
  9 44  1  0
  9 45  1  0
 10 46  1  0
 10 47  1  0
 12 48  1  0
 13 49  1  0
 14 50  1  0
 15 51  1  0
 16 52  1  0
 20 53  1  0
 23 54  1  1
 24 55  1  0
 24 56  1  0
 26 57  1  0
 28 58  1  0
 28 59  1  0
 28 60  1  0
 31 61  1  0
 31 62  1  0
 31 63  1  0
M  CHG  1   6   1
M  END
>  <score>  (5) 
-9.276

$$$$
=
     RDKit          3D

 63 66  0  0  0  0  0  0  0  0999 V2000
    0.2900   64.4720   70.3590 C   0  0  0  0  0  0  0  0  0  0  0  0
    0.1770   65.9690   69.9650 C   0  0  2  0  0  0  0  0  0  0  0  0
   -0.8810   66.1580   68.9120 C   0  0  0  0  0  0  0  0  0  0  0  0
   -1.0080   67.0660   67.9350 C   0  0  0  0  0  0  0  0  0  0  0  0
   -0.1730   68.2310   67.5370 C   0  0  0  0  0  0  0  0  0  0  0  0
    1.3340   68.1800   67.7520 N   0  0  1  0  0  4  0  0  0  0  0  0
    1.6660   67.9890   69.2290 C   0  0  0  0  0  0  0  0  0  0  0  0
    1.5760   66.5580   69.7370 C   0  0  0  0  0  0  0  0  0  0  0  0
    1.9370   67.0940   66.8630 C   0  0  0  0  0  0  0  0  0  0  0  0
    1.8670   69.5730   67.2820 C   0  0  0  0  0  0  0  0  0  0  0  0
    3.3600   69.8000   67.2990 C   0  0  0  0  0  0  0  0  0  0  0  0
    3.9840   70.3700   68.4220 C   0  0  0  0  0  0  0  0  0  0  0  0
    5.3640   70.5830   68.4390 C   0  0  0  0  0  0  0  0  0  0  0  0
    6.1370   70.2400   67.3330 C   0  0  0  0  0  0  0  0  0  0  0  0
    5.5310   69.6930   66.2050 C   0  0  0  0  0  0  0  0  0  0  0  0
    4.1510   69.4800   66.1850 C   0  0  0  0  0  0  0  0  0  0  0  0
    1.7200   63.9240   70.3880 C   0  0  0  0  0  0  0  0  0  0  0  0
    2.3820   63.8270   69.3490 O   0  0  0  0  0  0  0  0  0  0  0  0
    2.8820   60.1230   75.1880 C   0  0  0  0  0  0  0  0  0  0  0  0
    3.3450   60.3880   73.8940 C   0  0  0  0  0  0  0  0  0  0  0  0
    2.8110   61.4620   73.1990 C   0  0  0  0  0  0  0  0  0  0  0  0
    3.2510   61.9650   71.5610 S   0  0  0  0  0  0  0  0  0  0  0  0
    2.3310   63.5330   71.7240 C   0  0  2  0  0  0  0  0  0  0  0  0
    1.3100   63.3590   72.8560 C   0  0  0  0  0  0  0  0  0  0  0  0
    1.8270   62.2750   73.7590 C   0  0  0  0  0  0  0  0  0  0  0  0
    1.3500   62.0170   75.0410 C   0  0  0  0  0  0  0  0  0  0  0  0
    1.8800   60.9410   75.7650 C   0  0  0  0  0  0  0  0  0  0  0  0
    3.0460   57.7620   75.5540 C   0  0  0  0  0  0  0  0  0  0  0  0
    3.3340   59.0890   75.9720 O   0  0  0  0  0  0  0  0  0  0  0  0
    1.4840   60.5960   77.0330 O   0  0  0  0  0  0  0  0  0  0  0  0
    1.8280   61.4690   78.0990 C   0  0  0  0  0  0  0  0  0  0  0  0
   -0.1449   64.3478   71.3617 H   0  0  0  0  0  0  0  0  0  0  0  0
   -0.2442   63.9051   69.5823 H   0  0  0  0  0  0  0  0  0  0  0  0
   -0.2096   66.5950   70.7827 H   0  0  0  0  0  0  0  0  0  0  0  0
   -1.6951   65.4193   68.9513 H   0  0  0  0  0  0  0  0  0  0  0  0
   -1.8999   66.9226   67.3074 H   0  0  0  0  0  0  0  0  0  0  0  0
   -0.3378   68.3905   66.4612 H   0  0  0  0  0  0  0  0  0  0  0  0
   -0.5045   69.0311   68.2152 H   0  0  0  0  0  0  0  0  0  0  0  0
    2.6938   68.3442   69.3947 H   0  0  0  0  0  0  0  0  0  0  0  0
    0.9072   68.5575   69.7867 H   0  0  0  0  0  0  0  0  0  0  0  0
    2.0873   65.9164   69.0042 H   0  0  0  0  0  0  0  0  0  0  0  0
    2.0314   66.5889   70.7378 H   0  0  0  0  0  0  0  0  0  0  0  0
    2.3747   66.3056   67.4930 H   0  0  0  0  0  0  0  0  0  0  0  0
    1.1500   66.6612   66.2279 H   0  0  0  0  0  0  0  0  0  0  0  0
    2.7205   67.5332   66.2279 H   0  0  0  0  0  0  0  0  0  0  0  0
    1.5245   69.7229   66.2475 H   0  0  0  0  0  0  0  0  0  0  0  0
    1.4711   70.2842   68.0219 H   0  0  0  0  0  0  0  0  0  0  0  0
    3.3790   70.6512   69.2966 H   0  0  0  0  0  0  0  0  0  0  0  0
    5.8410   71.0224   69.3275 H   0  0  0  0  0  0  0  0  0  0  0  0
    7.2250   70.4009   67.3503 H   0  0  0  0  0  0  0  0  0  0  0  0
    6.1403   69.4282   65.3282 H   0  0  0  0  0  0  0  0  0  0  0  0
    3.6789   69.0567   65.2861 H   0  0  0  0  0  0  0  0  0  0  0  0
    4.1194   59.7548   73.4363 H   0  0  0  0  0  0  0  0  0  0  0  0
    2.9908   64.3708   71.9938 H   0  0  0  0  0  0  0  0  0  0  0  0
    1.2060   64.2992   73.4174 H   0  0  0  0  0  0  0  0  0  0  0  0
    0.3219   63.0925   72.4527 H   0  0  0  0  0  0  0  0  0  0  0  0
    0.5658   62.6508   75.4807 H   0  0  0  0  0  0  0  0  0  0  0  0
    2.9070   57.1214   76.4373 H   0  0  0  0  0  0  0  0  0  0  0  0
    2.1263   57.7591   74.9505 H   0  0  0  0  0  0  0  0  0  0  0  0
    3.8817   57.3781   74.9505 H   0  0  0  0  0  0  0  0  0  0  0  0
    1.6314   60.9701   79.0595 H   0  0  0  0  0  0  0  0  0  0  0  0
    2.8951   61.7273   78.0316 H   0  0  0  0  0  0  0  0  0  0  0  0
    1.2239   62.3858   78.0316 H   0  0  0  0  0  0  0  0  0  0  0  0
  2  1  1  0
  3  2  1  0
  4  3  2  0
  5  4  1  0
  6  5  1  0
  7  6  1  0
  8  7  1  0
  8  2  1  0
  6  9  1  6
 10  6  1  0
 11 10  1  0
 12 11  2  0
 13 12  1  0
 14 13  2  0
 15 14  1  0
 16 11  1  0
 16 15  2  0
 17  1  1  0
 18 17  2  0
 20 19  2  0
 21 20  1  0
 22 21  1  0
 23 22  1  0
 23 17  1  0
 24 23  1  0
 25 24  1  0
 25 21  2  0
 26 25  1  0
 27 19  1  0
 27 26  2  0
 29 28  1  0
 29 19  1  0
 30 27  1  0
 31 30  1  0
  1 32  1  0
  1 33  1  0
  2 34  1  1
  3 35  1  0
  4 36  1  0
  5 37  1  0
  5 38  1  0
  7 39  1  0
  7 40  1  0
  8 41  1  0
  8 42  1  0
  9 43  1  0
  9 44  1  0
  9 45  1  0
 10 46  1  0
 10 47  1  0
 12 48  1  0
 13 49  1  0
 14 50  1  0
 15 51  1  0
 16 52  1  0
 20 53  1  0
 23 54  1  1
 24 55  1  0
 24 56  1  0
 26 57  1  0
 28 58  1  0
 28 59  1  0
 28 60  1  0
 31 61  1  0
 31 62  1  0
 31 63  1  0
M  CHG  1   6   1
M  END
>  <score>  (6) 
-9.197

$$$$
=
     RDKit          3D

 63 66  0  0  0  0  0  0  0  0999 V2000
    0.9040   66.5090   69.9140 C   0  0  0  0  0  0  0  0  0  0  0  0
    0.4350   65.1200   70.4240 C   0  0  2  0  0  0  0  0  0  0  0  0
    0.0650   65.1910   71.8800 C   0  0  0  0  0  0  0  0  0  0  0  0
    0.1030   64.2680   72.8510 C   0  0  0  0  0  0  0  0  0  0  0  0
    0.5000   62.8350   72.8550 C   0  0  0  0  0  0  0  0  0  0  0  0
    1.5840   62.3570   71.8960 N   0  0  1  0  0  4  0  0  0  0  0  0
    1.1800   62.6130   70.4480 C   0  0  0  0  0  0  0  0  0  0  0  0
    1.4080   64.0320   69.9490 C   0  0  0  0  0  0  0  0  0  0  0  0
    2.9130   63.0110   72.2670 C   0  0  0  0  0  0  0  0  0  0  0  0
    1.6940   60.8150   72.1330 C   0  0  0  0  0  0  0  0  0  0  0  0
    1.0720   60.2460   73.3870 C   0  0  0  0  0  0  0  0  0  0  0  0
    1.7590   60.2960   74.6120 C   0  0  0  0  0  0  0  0  0  0  0  0
    1.1860   59.7710   75.7720 C   0  0  0  0  0  0  0  0  0  0  0  0
   -0.0730   59.1790   75.7220 C   0  0  0  0  0  0  0  0  0  0  0  0
   -0.7570   59.1040   74.5120 C   0  0  0  0  0  0  0  0  0  0  0  0
   -0.1880   59.6280   73.3510 C   0  0  0  0  0  0  0  0  0  0  0  0
    0.1720   67.0130   68.6680 C   0  0  0  0  0  0  0  0  0  0  0  0
   -0.9430   66.5730   68.3670 O   0  0  0  0  0  0  0  0  0  0  0  0
    4.6230   69.4740   65.0660 C   0  0  0  0  0  0  0  0  0  0  0  0
    3.5070   68.6350   64.9690 C   0  0  0  0  0  0  0  0  0  0  0  0
    2.7150   68.4410   66.0890 C   0  0  0  0  0  0  0  0  0  0  0  0
    1.2710   67.4240   66.1810 S   0  0  0  0  0  0  0  0  0  0  0  0
    0.8230   68.0940   67.8190 C   0  0  2  0  0  0  0  0  0  0  0  0
    2.0880   68.7030   68.4360 C   0  0  0  0  0  0  0  0  0  0  0  0
    3.0080   69.0600   67.3040 C   0  0  0  0  0  0  0  0  0  0  0  0
    4.1200   69.8900   67.4180 C   0  0  0  0  0  0  0  0  0  0  0  0
    4.9320   70.1050   66.2960 C   0  0  0  0  0  0  0  0  0  0  0  0
    5.1870   69.1700   62.7590 C   0  0  0  0  0  0  0  0  0  0  0  0
    5.4810   69.7410   64.0260 O   0  0  0  0  0  0  0  0  0  0  0  0
    6.0500   70.9010   66.2950 O   0  0  0  0  0  0  0  0  0  0  0  0
    7.0050   70.7090   67.3290 C   0  0  0  0  0  0  0  0  0  0  0  0
    0.7501   67.2403   70.7212 H   0  0  0  0  0  0  0  0  0  0  0  0
    1.9603   66.3951   69.6291 H   0  0  0  0  0  0  0  0  0  0  0  0
   -0.5142   64.7992   69.9699 H   0  0  0  0  0  0  0  0  0  0  0  0
   -0.3020   66.1754   72.2059 H   0  0  0  0  0  0  0  0  0  0  0  0
   -0.2217   64.6422   73.8331 H   0  0  0  0  0  0  0  0  0  0  0  0
    0.8463   62.6011   73.8725 H   0  0  0  0  0  0  0  0  0  0  0  0
   -0.4038   62.3141   72.5059 H   0  0  0  0  0  0  0  0  0  0  0  0
    1.7592   61.9309   69.8082 H   0  0  0  0  0  0  0  0  0  0  0  0
    0.0937   62.4459   70.4019 H   0  0  0  0  0  0  0  0  0  0  0  0
    2.4176   64.3333   70.2652 H   0  0  0  0  0  0  0  0  0  0  0  0
    1.2504   63.9733   68.8619 H   0  0  0  0  0  0  0  0  0  0  0  0
    3.0060   63.0568   73.3621 H   0  0  0  0  0  0  0  0  0  0  0  0
    3.7417   62.4178   71.8531 H   0  0  0  0  0  0  0  0  0  0  0  0
    2.9486   64.0295   71.8531 H   0  0  0  0  0  0  0  0  0  0  0  0
    1.2171   60.3171   71.2759 H   0  0  0  0  0  0  0  0  0  0  0  0
    2.7719   60.6305   72.2517 H   0  0  0  0  0  0  0  0  0  0  0  0
    2.7584   60.7534   74.6574 H   0  0  0  0  0  0  0  0  0  0  0  0
    1.7300   59.8252   76.7265 H   0  0  0  0  0  0  0  0  0  0  0  0
   -0.5266   58.7711   76.6373 H   0  0  0  0  0  0  0  0  0  0  0  0
   -1.7489   58.6303   74.4711 H   0  0  0  0  0  0  0  0  0  0  0  0
   -0.7321   59.5562   72.3977 H   0  0  0  0  0  0  0  0  0  0  0  0
    3.2627   68.1376   64.0188 H   0  0  0  0  0  0  0  0  0  0  0  0
    0.0698   68.8922   67.7448 H   0  0  0  0  0  0  0  0  0  0  0  0
    1.8302   69.6049   69.0106 H   0  0  0  0  0  0  0  0  0  0  0  0
    2.5704   67.9897   69.1205 H   0  0  0  0  0  0  0  0  0  0  0  0
    4.3586   70.3716   68.3778 H   0  0  0  0  0  0  0  0  0  0  0  0
    4.6877   68.2002   62.9009 H   0  0  0  0  0  0  0  0  0  0  0  0
    4.5243   69.8450   62.1975 H   0  0  0  0  0  0  0  0  0  0  0  0
    6.1214   69.0227   62.1975 H   0  0  0  0  0  0  0  0  0  0  0  0
    6.5114   70.8082   68.3070 H   0  0  0  0  0  0  0  0  0  0  0  0
    7.4445   69.7045   67.2403 H   0  0  0  0  0  0  0  0  0  0  0  0
    7.7986   71.4656   67.2403 H   0  0  0  0  0  0  0  0  0  0  0  0
  2  1  1  0
  3  2  1  0
  4  3  2  0
  5  4  1  0
  6  5  1  0
  7  6  1  0
  8  7  1  0
  8  2  1  0
  6  9  1  1
 10  6  1  0
 11 10  1  0
 12 11  2  0
 13 12  1  0
 14 13  2  0
 15 14  1  0
 16 11  1  0
 16 15  2  0
 17  1  1  0
 18 17  2  0
 20 19  2  0
 21 20  1  0
 22 21  1  0
 23 22  1  0
 23 17  1  0
 24 23  1  0
 25 24  1  0
 25 21  2  0
 26 25  1  0
 27 19  1  0
 27 26  2  0
 29 28  1  0
 29 19  1  0
 30 27  1  0
 31 30  1  0
  1 32  1  0
  1 33  1  0
  2 34  1  6
  3 35  1  0
  4 36  1  0
  5 37  1  0
  5 38  1  0
  7 39  1  0
  7 40  1  0
  8 41  1  0
  8 42  1  0
  9 43  1  0
  9 44  1  0
  9 45  1  0
 10 46  1  0
 10 47  1  0
 12 48  1  0
 13 49  1  0
 14 50  1  0
 15 51  1  0
 16 52  1  0
 20 53  1  0
 23 54  1  6
 24 55  1  0
 24 56  1  0
 26 57  1  0
 28 58  1  0
 28 59  1  0
 28 60  1  0
 31 61  1  0
 31 62  1  0
 31 63  1  0
M  CHG  1   6   1
M  END
>  <score>  (7) 
-9.095

$$$$
=
     RDKit          3D

 63 66  0  0  0  0  0  0  0  0999 V2000
    3.8050   61.1500   70.6460 C   0  0  0  0  0  0  0  0  0  0  0  0
    3.2970   62.5260   71.1550 C   0  0  2  0  0  0  0  0  0  0  0  0
    2.3800   62.3450   72.3350 C   0  0  0  0  0  0  0  0  0  0  0  0
    1.3510   63.0780   72.7800 C   0  0  0  0  0  0  0  0  0  0  0  0
    0.7430   64.3460   72.2960 C   0  0  0  0  0  0  0  0  0  0  0  0
    0.7600   64.6630   70.8060 N   0  0  1  0  0  4  0  0  0  0  0  0
    2.1910   64.7290   70.2810 C   0  0  0  0  0  0  0  0  0  0  0  0
    2.8340   63.3850   69.9710 C   0  0  0  0  0  0  0  0  0  0  0  0
   -0.0990   63.6440   70.0600 C   0  0  0  0  0  0  0  0  0  0  0  0
    0.1000   66.0750   70.6750 C   0  0  0  0  0  0  0  0  0  0  0  0
    0.0430   66.7030   69.3020 C   0  0  0  0  0  0  0  0  0  0  0  0
    1.1300   67.4460   68.8110 C   0  0  0  0  0  0  0  0  0  0  0  0
    1.0790   68.0290   67.5430 C   0  0  0  0  0  0  0  0  0  0  0  0
   -0.0600   67.8880   66.7550 C   0  0  0  0  0  0  0  0  0  0  0  0
   -1.1530   67.1720   67.2370 C   0  0  0  0  0  0  0  0  0  0  0  0
   -1.1050   66.5890   68.5040 C   0  0  0  0  0  0  0  0  0  0  0  0
    4.8000   60.4520   71.5770 C   0  0  0  0  0  0  0  0  0  0  0  0
    5.9350   60.9100   71.7490 O   0  0  0  0  0  0  0  0  0  0  0  0
    0.6870   56.5680   74.1910 C   0  0  0  0  0  0  0  0  0  0  0  0
    1.2260   56.8730   72.9350 C   0  0  0  0  0  0  0  0  0  0  0  0
    2.2500   57.8030   72.8540 C   0  0  0  0  0  0  0  0  0  0  0  0
    3.0620   58.3310   71.3740 S   0  0  0  0  0  0  0  0  0  0  0  0
    4.3600   59.2000   72.3190 C   0  0  2  0  0  0  0  0  0  0  0  0
    3.8150   59.4630   73.7290 C   0  0  0  0  0  0  0  0  0  0  0  0
    2.7480   58.4390   73.9900 C   0  0  0  0  0  0  0  0  0  0  0  0
    2.2140   58.1530   75.2440 C   0  0  0  0  0  0  0  0  0  0  0  0
    1.1830   57.2110   75.3510 C   0  0  0  0  0  0  0  0  0  0  0  0
   -0.0530   54.2910   74.1660 C   0  0  0  0  0  0  0  0  0  0  0  0
   -0.3290   55.6660   74.3960 O   0  0  0  0  0  0  0  0  0  0  0  0
    0.5850   56.8530   76.5340 O   0  0  0  0  0  0  0  0  0  0  0  0
    1.3620   56.1390   77.4840 C   0  0  0  0  0  0  0  0  0  0  0  0
    2.9348   60.4896   70.5172 H   0  0  0  0  0  0  0  0  0  0  0  0
    4.3425   61.3451   69.7063 H   0  0  0  0  0  0  0  0  0  0  0  0
    4.0997   63.1402   71.5891 H   0  0  0  0  0  0  0  0  0  0  0  0
    2.5930   61.4512   72.9398 H   0  0  0  0  0  0  0  0  0  0  0  0
    0.8625   62.6629   73.6739 H   0  0  0  0  0  0  0  0  0  0  0  0
   -0.3114   64.3357   72.6093 H   0  0  0  0  0  0  0  0  0  0  0  0
    1.3845   65.1248   72.7341 H   0  0  0  0  0  0  0  0  0  0  0  0
    2.1863   65.3246   69.3562 H   0  0  0  0  0  0  0  0  0  0  0  0
    2.7907   65.1732   71.0891 H   0  0  0  0  0  0  0  0  0  0  0  0
    2.1011   62.7935   69.4027 H   0  0  0  0  0  0  0  0  0  0  0  0
    3.7591   63.6371   69.4318 H   0  0  0  0  0  0  0  0  0  0  0  0
   -0.6317   63.0121   70.7859 H   0  0  0  0  0  0  0  0  0  0  0  0
   -0.8287   64.1719   69.4284 H   0  0  0  0  0  0  0  0  0  0  0  0
    0.5447   63.0141   69.4284 H   0  0  0  0  0  0  0  0  0  0  0  0
   -0.9344   65.9884   71.0390 H   0  0  0  0  0  0  0  0  0  0  0  0
    0.7545   66.7410   71.2565 H   0  0  0  0  0  0  0  0  0  0  0  0
    2.0299   67.5696   69.4315 H   0  0  0  0  0  0  0  0  0  0  0  0
    1.9401   68.6005   67.1663 H   0  0  0  0  0  0  0  0  0  0  0  0
   -0.0966   68.3413   65.7534 H   0  0  0  0  0  0  0  0  0  0  0  0
   -2.0559   67.0658   66.6178 H   0  0  0  0  0  0  0  0  0  0  0  0
   -1.9768   66.0341   68.8810 H   0  0  0  0  0  0  0  0  0  0  0  0
    0.8429   56.3825   72.0280 H   0  0  0  0  0  0  0  0  0  0  0  0
    5.2708   58.5916   72.4207 H   0  0  0  0  0  0  0  0  0  0  0  0
    4.6221   59.3637   74.4698 H   0  0  0  0  0  0  0  0  0  0  0  0
    3.4066   60.4814   73.8064 H   0  0  0  0  0  0  0  0  0  0  0  0
    2.5978   58.6614   76.1408 H   0  0  0  0  0  0  0  0  0  0  0  0
    0.0512   53.7717   75.1301 H   0  0  0  0  0  0  0  0  0  0  0  0
   -0.8789   53.8418   73.5949 H   0  0  0  0  0  0  0  0  0  0  0  0
    0.8823   54.1953   73.5949 H   0  0  0  0  0  0  0  0  0  0  0  0
    1.0517   56.4241   78.5001 H   0  0  0  0  0  0  0  0  0  0  0  0
    1.2104   55.0585   77.3439 H   0  0  0  0  0  0  0  0  0  0  0  0
    2.4258   56.3812   77.3439 H   0  0  0  0  0  0  0  0  0  0  0  0
  2  1  1  0
  3  2  1  0
  4  3  2  0
  5  4  1  0
  6  5  1  0
  7  6  1  0
  8  7  1  0
  8  2  1  0
  6  9  1  6
 10  6  1  0
 11 10  1  0
 12 11  2  0
 13 12  1  0
 14 13  2  0
 15 14  1  0
 16 11  1  0
 16 15  2  0
 17  1  1  0
 18 17  2  0
 20 19  2  0
 21 20  1  0
 22 21  1  0
 23 22  1  0
 23 17  1  0
 24 23  1  0
 25 24  1  0
 25 21  2  0
 26 25  1  0
 27 19  1  0
 27 26  2  0
 29 28  1  0
 29 19  1  0
 30 27  1  0
 31 30  1  0
  1 32  1  0
  1 33  1  0
  2 34  1  1
  3 35  1  0
  4 36  1  0
  5 37  1  0
  5 38  1  0
  7 39  1  0
  7 40  1  0
  8 41  1  0
  8 42  1  0
  9 43  1  0
  9 44  1  0
  9 45  1  0
 10 46  1  0
 10 47  1  0
 12 48  1  0
 13 49  1  0
 14 50  1  0
 15 51  1  0
 16 52  1  0
 20 53  1  0
 23 54  1  1
 24 55  1  0
 24 56  1  0
 26 57  1  0
 28 58  1  0
 28 59  1  0
 28 60  1  0
 31 61  1  0
 31 62  1  0
 31 63  1  0
M  CHG  1   6   1
M  END
>  <score>  (8) 
-8.87

$$$$
=
     RDKit          3D

 63 66  0  0  0  0  0  0  0  0999 V2000
   -0.5320   59.1720   75.4820 C   0  0  0  0  0  0  0  0  0  0  0  0
    0.0210   58.9180   74.0540 C   0  0  2  0  0  0  0  0  0  0  0  0
    0.4210   57.4770   73.8920 C   0  0  0  0  0  0  0  0  0  0  0  0
    1.3520   56.8950   73.1250 C   0  0  0  0  0  0  0  0  0  0  0  0
    2.3200   57.4430   72.1370 C   0  0  0  0  0  0  0  0  0  0  0  0
    2.8800   58.8460   72.3370 N   0  0  1  0  0  4  0  0  0  0  0  0
    1.7590   59.8810   72.3520 C   0  0  0  0  0  0  0  0  0  0  0  0
    1.0190   60.0210   73.6750 C   0  0  0  0  0  0  0  0  0  0  0  0
    3.7330   58.8760   73.6030 C   0  0  0  0  0  0  0  0  0  0  0  0
    3.7990   59.1050   71.0990 C   0  0  0  0  0  0  0  0  0  0  0  0
    4.0120   60.5370   70.6650 C   0  0  0  0  0  0  0  0  0  0  0  0
    4.8650   61.3850   71.3930 C   0  0  0  0  0  0  0  0  0  0  0  0
    5.0620   62.7080   70.9950 C   0  0  0  0  0  0  0  0  0  0  0  0
    4.4040   63.2060   69.8740 C   0  0  0  0  0  0  0  0  0  0  0  0
    3.5400   62.3840   69.1540 C   0  0  0  0  0  0  0  0  0  0  0  0
    3.3410   61.0600   69.5490 C   0  0  0  0  0  0  0  0  0  0  0  0
   -2.0550   59.0670   75.6060 C   0  0  0  0  0  0  0  0  0  0  0  0
   -2.5750   58.1770   76.2870 O   0  0  0  0  0  0  0  0  0  0  0  0
   -6.6620   63.2420   75.1730 C   0  0  0  0  0  0  0  0  0  0  0  0
   -5.3340   63.1510   75.6070 C   0  0  0  0  0  0  0  0  0  0  0  0
   -4.6400   61.9690   75.3980 C   0  0  0  0  0  0  0  0  0  0  0  0
   -2.9660   61.6480   75.8700 S   0  0  0  0  0  0  0  0  0  0  0  0
   -2.9230   60.0990   74.9040 C   0  0  2  0  0  0  0  0  0  0  0  0
   -4.3720   59.6520   74.6740 C   0  0  0  0  0  0  0  0  0  0  0  0
   -5.2360   60.8760   74.7720 C   0  0  0  0  0  0  0  0  0  0  0  0
   -6.5590   60.9480   74.3440 C   0  0  0  0  0  0  0  0  0  0  0  0
   -7.2780   62.1350   74.5390 C   0  0  0  0  0  0  0  0  0  0  0  0
   -7.0810   65.5310   74.6140 C   0  0  0  0  0  0  0  0  0  0  0  0
   -7.4490   64.3570   75.3250 O   0  0  0  0  0  0  0  0  0  0  0  0
   -8.5850   62.3160   74.1570 O   0  0  0  0  0  0  0  0  0  0  0  0
   -8.8640   62.4240   72.7690 C   0  0  0  0  0  0  0  0  0  0  0  0
   -0.0811   58.4330   76.1606 H   0  0  0  0  0  0  0  0  0  0  0  0
   -0.2701   60.2095   75.7368 H   0  0  0  0  0  0  0  0  0  0  0  0
   -0.7495   59.0223   73.2759 H   0  0  0  0  0  0  0  0  0  0  0  0
   -0.1539   56.7759   74.5148 H   0  0  0  0  0  0  0  0  0  0  0  0
    1.4125   55.8037   73.2492 H   0  0  0  0  0  0  0  0  0  0  0  0
    3.1785   56.7556   72.1144 H   0  0  0  0  0  0  0  0  0  0  0  0
    1.7277   57.5294   71.2141 H   0  0  0  0  0  0  0  0  0  0  0  0
    2.1963   60.8590   72.1023 H   0  0  0  0  0  0  0  0  0  0  0  0
    1.0134   59.5318   71.6225 H   0  0  0  0  0  0  0  0  0  0  0  0
    1.7761   60.0671   74.4717 H   0  0  0  0  0  0  0  0  0  0  0  0
    0.4029   60.9244   73.5550 H   0  0  0  0  0  0  0  0  0  0  0  0
    3.0785   58.8530   74.4868 H   0  0  0  0  0  0  0  0  0  0  0  0
    4.3991   58.0007   73.6172 H   0  0  0  0  0  0  0  0  0  0  0  0
    4.3360   59.7959   73.6172 H   0  0  0  0  0  0  0  0  0  0  0  0
    4.7877   58.6821   71.3305 H   0  0  0  0  0  0  0  0  0  0  0  0
    3.2671   58.6374   70.2573 H   0  0  0  0  0  0  0  0  0  0  0  0
    5.3822   61.0019   72.2850 H   0  0  0  0  0  0  0  0  0  0  0  0
    5.7387   63.3587   71.5684 H   0  0  0  0  0  0  0  0  0  0  0  0
    4.5660   64.2469   69.5572 H   0  0  0  0  0  0  0  0  0  0  0  0
    3.0136   62.7790   68.2726 H   0  0  0  0  0  0  0  0  0  0  0  0
    2.6510   60.4200   68.9795 H   0  0  0  0  0  0  0  0  0  0  0  0
   -4.8492   64.0033   76.1056 H   0  0  0  0  0  0  0  0  0  0  0  0
   -2.4570   60.2421   73.9179 H   0  0  0  0  0  0  0  0  0  0  0  0
   -4.4726   59.1987   73.6768 H   0  0  0  0  0  0  0  0  0  0  0  0
   -4.6720   58.9019   75.4206 H   0  0  0  0  0  0  0  0  0  0  0  0
   -7.0344   60.0831   73.8584 H   0  0  0  0  0  0  0  0  0  0  0  0
   -6.8308   66.3291   75.3285 H   0  0  0  0  0  0  0  0  0  0  0  0
   -6.2066   65.3177   73.9816 H   0  0  0  0  0  0  0  0  0  0  0  0
   -7.9207   65.8550   73.9816 H   0  0  0  0  0  0  0  0  0  0  0  0
   -9.8815   62.8179   72.6291 H   0  0  0  0  0  0  0  0  0  0  0  0
   -8.1391   63.1065   72.3013 H   0  0  0  0  0  0  0  0  0  0  0  0
   -8.7876   61.4313   72.3013 H   0  0  0  0  0  0  0  0  0  0  0  0
  2  1  1  0
  3  2  1  0
  4  3  2  0
  5  4  1  0
  6  5  1  0
  7  6  1  0
  8  7  1  0
  8  2  1  0
  6  9  1  1
 10  6  1  0
 11 10  1  0
 12 11  2  0
 13 12  1  0
 14 13  2  0
 15 14  1  0
 16 11  1  0
 16 15  2  0
 17  1  1  0
 18 17  2  0
 20 19  2  0
 21 20  1  0
 22 21  1  0
 23 22  1  0
 23 17  1  0
 24 23  1  0
 25 24  1  0
 25 21  2  0
 26 25  1  0
 27 19  1  0
 27 26  2  0
 29 28  1  0
 29 19  1  0
 30 27  1  0
 31 30  1  0
  1 32  1  0
  1 33  1  0
  2 34  1  6
  3 35  1  0
  4 36  1  0
  5 37  1  0
  5 38  1  0
  7 39  1  0
  7 40  1  0
  8 41  1  0
  8 42  1  0
  9 43  1  0
  9 44  1  0
  9 45  1  0
 10 46  1  0
 10 47  1  0
 12 48  1  0
 13 49  1  0
 14 50  1  0
 15 51  1  0
 16 52  1  0
 20 53  1  0
 23 54  1  6
 24 55  1  0
 24 56  1  0
 26 57  1  0
 28 58  1  0
 28 59  1  0
 28 60  1  0
 31 61  1  0
 31 62  1  0
 31 63  1  0
M  CHG  1   6   1
M  END
>  <score>  (9) 
-8.213

$$$$
