=
     RDKit          3D

 87 94  0  0  0  0  0  0  0  0999 V2000
    2.4070   57.6640   76.9390 C   0  0  2  0  0  0  0  0  0  0  0  0
    2.6450   56.3740   76.3510 O   0  0  0  0  0  0  0  0  0  0  0  0
    1.4550   55.9310   75.7110 C   0  0  2  0  0  0  0  0  0  0  0  0
    0.4240   56.8320   76.0920 N   0  0  0  0  0  0  0  0  0  0  0  0
    0.8760   57.7350   77.0180 C   0  0  0  0  0  0  0  0  0  0  0  0
    0.1980   58.5250   77.6490 O   0  0  0  0  0  0  0  0  0  0  0  0
   -0.9820   56.5680   75.7640 C   0  0  2  0  0  0  0  0  0  0  0  0
   -1.3540   55.0570   75.7590 C   0  0  0  0  0  0  0  0  0  0  0  0
   -2.5140   54.6860   75.5870 O   0  0  0  0  0  0  0  0  0  0  0  0
   -0.3100   54.1600   75.8420 N   0  0  0  0  0  0  0  0  0  0  0  0
    1.0560   54.5230   76.2060 C   0  0  1  0  0  0  0  0  0  0  0  0
    1.8670   53.3280   75.7110 C   0  0  0  0  0  0  0  0  0  0  0  0
    0.9180   52.1610   76.0000 C   0  0  0  0  0  0  0  0  0  0  0  0
   -0.4620   52.7280   75.6700 C   0  0  0  0  0  0  0  0  0  0  0  0
    4.8330   57.7970   75.3200 O   0  0  0  0  0  0  0  0  0  0  0  0
    3.9260   58.6070   75.1810 C   0  0  0  0  0  0  0  0  0  0  0  0
    2.7960   58.6650   75.9480 N   0  0  0  0  0  0  0  0  0  0  0  0
    3.9770   59.6630   74.0910 C   0  0  1  0  0  0  0  0  0  0  0  0
    3.6720   58.9920   72.7540 C   0  0  0  0  0  0  0  0  0  0  0  0
    3.6680   60.0100   71.6240 N   0  0  2  0  0  4  0  0  0  0  0  0
    5.0480   60.4790   71.2510 C   0  0  0  0  0  0  0  0  0  0  0  0
    2.6280   61.1030   71.8850 C   0  0  1  0  0  0  0  0  0  0  0  0
    2.8970   61.8160   73.2670 C   0  0  2  0  0  0  0  0  0  0  0  0
    2.9710   60.7780   74.3960 C   0  0  0  0  0  0  0  0  0  0  0  0
    1.8470   62.8880   73.4950 C   0  0  0  0  0  0  0  0  0  0  0  0
    1.4320   63.4080   74.7290 C   0  0  0  0  0  0  0  0  0  0  0  0
    0.4750   64.4320   74.7940 C   0  0  0  0  0  0  0  0  0  0  0  0
   -0.1010   64.9870   73.6400 C   0  0  0  0  0  0  0  0  0  0  0  0
    0.3280   64.4710   72.4170 C   0  0  0  0  0  0  0  0  0  0  0  0
    1.2690   63.4640   72.3530 C   0  0  0  0  0  0  0  0  0  0  0  0
    1.5070   63.1400   70.9980 C   0  0  0  0  0  0  0  0  0  0  0  0
    2.4880   62.0730   70.6640 C   0  0  0  0  0  0  0  0  0  0  0  0
    0.7070   63.9640   70.2430 C   0  0  0  0  0  0  0  0  0  0  0  0
   -0.0050   64.7690   71.1130 N   0  0  0  0  0  0  0  0  0  0  0  0
    3.1110   57.7690   78.3110 C   0  0  0  0  0  0  0  0  0  0  0  0
    4.2660   56.7780   78.4880 C   0  0  0  0  0  0  0  0  0  0  0  0
    3.6000   59.1940   78.6050 C   0  0  0  0  0  0  0  0  0  0  0  0
    1.6170   56.0520   74.3180 O   0  0  0  0  0  0  0  0  0  0  0  0
   -1.3670   57.1400   74.3780 C   0  0  0  0  0  0  0  0  0  0  0  0
   -1.5430   58.6420   74.2790 C   0  0  0  0  0  0  0  0  0  0  0  0
   -0.5890   59.4080   73.5920 C   0  0  0  0  0  0  0  0  0  0  0  0
   -0.7450   60.7890   73.4510 C   0  0  0  0  0  0  0  0  0  0  0  0
   -1.8580   61.4230   73.9940 C   0  0  0  0  0  0  0  0  0  0  0  0
   -2.8210   60.6730   74.6660 C   0  0  0  0  0  0  0  0  0  0  0  0
   -2.6720   59.2900   74.7950 C   0  0  0  0  0  0  0  0  0  0  0  0
   -1.5415   57.0697   76.5673 H   0  0  0  0  0  0  0  0  0  0  0  0
    1.2323   54.6675   77.2821 H   0  0  0  0  0  0  0  0  0  0  0  0
    2.0847   53.4099   74.6359 H   0  0  0  0  0  0  0  0  0  0  0  0
    2.8518   53.2295   76.1910 H   0  0  0  0  0  0  0  0  0  0  0  0
    1.1511   51.2977   75.3594 H   0  0  0  0  0  0  0  0  0  0  0  0
    0.9932   51.7959   77.0349 H   0  0  0  0  0  0  0  0  0  0  0  0
   -0.7449   52.4875   74.6346 H   0  0  0  0  0  0  0  0  0  0  0  0
   -1.2530   52.3090   76.3093 H   0  0  0  0  0  0  0  0  0  0  0  0
    2.1724   59.4744   75.8178 H   0  0  0  0  0  0  0  0  0  0  0  0
    4.9763   60.1204   74.0448 H   0  0  0  0  0  0  0  0  0  0  0  0
    4.4392   58.2305   72.5500 H   0  0  0  0  0  0  0  0  0  0  0  0
    2.6762   58.5283   72.8127 H   0  0  0  0  0  0  0  0  0  0  0  0
    3.3551   59.5469   70.7588 H   0  0  0  0  0  0  0  0  0  0  0  0
    5.6278   60.6760   72.1648 H   0  0  0  0  0  0  0  0  0  0  0  0
    5.5516   59.7016   70.6577 H   0  0  0  0  0  0  0  0  0  0  0  0
    4.9736   61.4023   70.6577 H   0  0  0  0  0  0  0  0  0  0  0  0
    1.6365   60.6368   71.9823 H   0  0  0  0  0  0  0  0  0  0  0  0
    3.8738   62.3218   73.2552 H   0  0  0  0  0  0  0  0  0  0  0  0
    1.9755   60.3299   74.5313 H   0  0  0  0  0  0  0  0  0  0  0  0
    3.3046   61.2941   75.3084 H   0  0  0  0  0  0  0  0  0  0  0  0
    1.8625   63.0078   75.6588 H   0  0  0  0  0  0  0  0  0  0  0  0
    0.1665   64.8117   75.7792 H   0  0  0  0  0  0  0  0  0  0  0  0
   -0.8525   65.7882   73.6974 H   0  0  0  0  0  0  0  0  0  0  0  0
    2.1362   61.5113   69.7861 H   0  0  0  0  0  0  0  0  0  0  0  0
    3.4645   62.5260   70.4376 H   0  0  0  0  0  0  0  0  0  0  0  0
    0.6444   63.9802   69.1449 H   0  0  0  0  0  0  0  0  0  0  0  0
   -0.6858   65.4875   70.8279 H   0  0  0  0  0  0  0  0  0  0  0  0
    2.3343   57.5001   79.0420 H   0  0  0  0  0  0  0  0  0  0  0  0
    4.4515   56.6189   79.5605 H   0  0  0  0  0  0  0  0  0  0  0  0
    4.0030   55.8202   78.0153 H   0  0  0  0  0  0  0  0  0  0  0  0
    5.1727   57.1835   78.0153 H   0  0  0  0  0  0  0  0  0  0  0  0
    3.6523   59.3465   79.6931 H   0  0  0  0  0  0  0  0  0  0  0  0
    4.5986   59.3368   78.1663 H   0  0  0  0  0  0  0  0  0  0  0  0
    2.8995   59.9199   78.1663 H   0  0  0  0  0  0  0  0  0  0  0  0
    2.3950   56.6331   74.1255 H   0  0  0  0  0  0  0  0  0  0  0  0
   -0.5776   56.8508   73.6686 H   0  0  0  0  0  0  0  0  0  0  0  0
   -2.3607   56.7208   74.1617 H   0  0  0  0  0  0  0  0  0  0  0  0
    0.2934   58.9145   73.1587 H   0  0  0  0  0  0  0  0  0  0  0  0
    0.0125   61.3755   72.9104 H   0  0  0  0  0  0  0  0  0  0  0  0
   -1.9773   62.5119   73.8932 H   0  0  0  0  0  0  0  0  0  0  0  0
   -3.7018   61.1718   75.0965 H   0  0  0  0  0  0  0  0  0  0  0  0
   -3.4495   58.7041   75.3071 H   0  0  0  0  0  0  0  0  0  0  0  0
  2  1  1  0
  3  2  1  0
  4  3  1  0
  5  4  1  0
  5  1  1  0
  6  5  2  0
  7  4  1  0
  8  7  1  0
  9  8  2  0
 10  8  1  0
 11 10  1  0
 11  3  1  0
 12 11  1  0
 13 12  1  0
 14 13  1  0
 14 10  1  0
 16 15  2  0
 17 16  1  0
  1 17  1  6
 18 16  1  0
 19 18  1  0
 20 19  1  0
 21 20  1  0
 22 20  1  0
 23 22  1  0
 24 18  1  0
 24 23  1  0
 25 23  1  0
 26 25  2  0
 27 26  1  0
 28 27  2  0
 29 28  1  0
 30 29  2  0
 30 25  1  0
 31 30  1  0
 32 31  1  0
 32 22  1  0
 33 31  2  0
 34 33  1  0
 34 29  1  0
 35  1  1  0
 36 35  1  0
 37 35  1  0
  3 38  1  6
 39  7  1  0
 40 39  1  0
 41 40  2  0
 42 41  1  0
 43 42  2  0
 44 43  1  0
 45 40  1  0
 45 44  2  0
  7 46  1  1
 11 47  1  1
 12 48  1  0
 12 49  1  0
 13 50  1  0
 13 51  1  0
 14 52  1  0
 14 53  1  0
 17 54  1  0
 18 55  1  6
 19 56  1  0
 19 57  1  0
 20 58  1  6
 21 59  1  0
 21 60  1  0
 21 61  1  0
 22 62  1  1
 23 63  1  6
 24 64  1  0
 24 65  1  0
 26 66  1  0
 27 67  1  0
 28 68  1  0
 32 69  1  0
 32 70  1  0
 33 71  1  0
 34 72  1  0
 35 73  1  0
 36 74  1  0
 36 75  1  0
 36 76  1  0
 37 77  1  0
 37 78  1  0
 37 79  1  0
 38 80  1  0
 39 81  1  0
 39 82  1  0
 41 83  1  0
 42 84  1  0
 43 85  1  0
 44 86  1  0
 45 87  1  0
M  CHG  1  20   1
M  END
>  <score>  (1) 
-9.518

$$$$
=
     RDKit          3D

 87 94  0  0  0  0  0  0  0  0999 V2000
   -2.7130   58.9280   75.9850 C   0  0  2  0  0  0  0  0  0  0  0  0
   -3.6170   59.2390   74.9110 O   0  0  0  0  0  0  0  0  0  0  0  0
   -4.0470   60.5880   75.0450 C   0  0  2  0  0  0  0  0  0  0  0  0
   -3.5950   61.0400   76.3140 N   0  0  0  0  0  0  0  0  0  0  0  0
   -3.0130   60.0210   77.0210 C   0  0  0  0  0  0  0  0  0  0  0  0
   -2.6750   60.0520   78.1900 O   0  0  0  0  0  0  0  0  0  0  0  0
   -4.0240   62.3310   76.8630 C   0  0  2  0  0  0  0  0  0  0  0  0
   -5.4720   62.7360   76.4630 C   0  0  0  0  0  0  0  0  0  0  0  0
   -6.0010   63.7490   76.9180 O   0  0  0  0  0  0  0  0  0  0  0  0
   -6.0860   61.9690   75.4950 N   0  0  0  0  0  0  0  0  0  0  0  0
   -5.5900   60.6750   75.0360 C   0  0  1  0  0  0  0  0  0  0  0  0
   -6.3150   60.4870   73.7050 C   0  0  0  0  0  0  0  0  0  0  0  0
   -7.6850   61.1040   74.0030 C   0  0  0  0  0  0  0  0  0  0  0  0
   -7.3550   62.3100   74.8800 C   0  0  0  0  0  0  0  0  0  0  0  0
   -1.1350   57.4690   74.0100 O   0  0  0  0  0  0  0  0  0  0  0  0
   -0.7260   58.5050   74.5160 C   0  0  0  0  0  0  0  0  0  0  0  0
   -1.3620   59.2060   75.5030 N   0  0  0  0  0  0  0  0  0  0  0  0
    0.5810   59.1350   74.0690 C   0  0  1  0  0  0  0  0  0  0  0  0
    1.3000   58.1520   73.1480 C   0  0  0  0  0  0  0  0  0  0  0  0
    2.6030   58.7440   72.6330 N   0  0  2  0  0  4  0  0  0  0  0  0
    3.6820   58.7920   73.6810 C   0  0  0  0  0  0  0  0  0  0  0  0
    2.3410   60.0460   71.8710 C   0  0  1  0  0  0  0  0  0  0  0  0
    1.5840   61.0880   72.7820 C   0  0  2  0  0  0  0  0  0  0  0  0
    0.3060   60.4640   73.3570 C   0  0  0  0  0  0  0  0  0  0  0  0
    1.3370   62.3620   71.9940 C   0  0  0  0  0  0  0  0  0  0  0  0
    0.3350   63.3130   72.2290 C   0  0  0  0  0  0  0  0  0  0  0  0
    0.2450   64.4730   71.4440 C   0  0  0  0  0  0  0  0  0  0  0  0
    1.1480   64.7400   70.4020 C   0  0  0  0  0  0  0  0  0  0  0  0
    2.1480   63.7930   70.1860 C   0  0  0  0  0  0  0  0  0  0  0  0
    2.2380   62.6520   70.9570 C   0  0  0  0  0  0  0  0  0  0  0  0
    3.3350   61.8800   70.5140 C   0  0  0  0  0  0  0  0  0  0  0  0
    3.6420   60.5910   71.1910 C   0  0  0  0  0  0  0  0  0  0  0  0
    3.9130   62.5650   69.4720 C   0  0  0  0  0  0  0  0  0  0  0  0
    3.1870   63.7260   69.2800 N   0  0  0  0  0  0  0  0  0  0  0  0
   -2.9600   57.4920   76.5000 C   0  0  0  0  0  0  0  0  0  0  0  0
   -1.9750   57.0490   77.5860 C   0  0  0  0  0  0  0  0  0  0  0  0
   -4.4000   57.2910   76.9910 C   0  0  0  0  0  0  0  0  0  0  0  0
   -3.3970   61.3700   74.0710 O   0  0  0  0  0  0  0  0  0  0  0  0
   -3.0890   63.4830   76.4220 C   0  0  0  0  0  0  0  0  0  0  0  0
   -1.6110   63.3220   76.7210 C   0  0  0  0  0  0  0  0  0  0  0  0
   -1.1780   63.2460   78.0540 C   0  0  0  0  0  0  0  0  0  0  0  0
    0.1720   63.0580   78.3590 C   0  0  0  0  0  0  0  0  0  0  0  0
    1.1070   62.9410   77.3350 C   0  0  0  0  0  0  0  0  0  0  0  0
    0.6890   62.9990   76.0070 C   0  0  0  0  0  0  0  0  0  0  0  0
   -0.6630   63.1730   75.7020 C   0  0  0  0  0  0  0  0  0  0  0  0
   -3.9834   62.1829   77.9522 H   0  0  0  0  0  0  0  0  0  0  0  0
   -5.8111   59.8252   75.6986 H   0  0  0  0  0  0  0  0  0  0  0  0
   -5.8034   61.0221   72.8914 H   0  0  0  0  0  0  0  0  0  0  0  0
   -6.3619   59.4410   73.3677 H   0  0  0  0  0  0  0  0  0  0  0  0
   -8.1839   61.4188   73.0746 H   0  0  0  0  0  0  0  0  0  0  0  0
   -8.3739   60.3982   74.4900 H   0  0  0  0  0  0  0  0  0  0  0  0
   -7.2605   63.2209   74.2706 H   0  0  0  0  0  0  0  0  0  0  0  0
   -8.1398   62.5173   75.6224 H   0  0  0  0  0  0  0  0  0  0  0  0
   -0.8512   59.9872   75.9385 H   0  0  0  0  0  0  0  0  0  0  0  0
    1.2206   59.3502   74.9377 H   0  0  0  0  0  0  0  0  0  0  0  0
    1.5193   57.2299   73.7063 H   0  0  0  0  0  0  0  0  0  0  0  0
    0.6487   57.9352   72.2885 H   0  0  0  0  0  0  0  0  0  0  0  0
    3.0068   58.1034   71.9348 H   0  0  0  0  0  0  0  0  0  0  0  0
    3.2234   58.7716   74.6806 H   0  0  0  0  0  0  0  0  0  0  0  0
    4.3456   57.9225   73.5642 H   0  0  0  0  0  0  0  0  0  0  0  0
    4.2657   59.7170   73.5642 H   0  0  0  0  0  0  0  0  0  0  0  0
    1.6586   59.8392   71.0334 H   0  0  0  0  0  0  0  0  0  0  0  0
    2.2036   61.3620   73.6486 H   0  0  0  0  0  0  0  0  0  0  0  0
   -0.4022   60.2854   72.5345 H   0  0  0  0  0  0  0  0  0  0  0  0
   -0.1086   61.1643   74.0970 H   0  0  0  0  0  0  0  0  0  0  0  0
   -0.3905   63.1482   73.0393 H   0  0  0  0  0  0  0  0  0  0  0  0
   -0.5580   65.1957   71.6514 H   0  0  0  0  0  0  0  0  0  0  0  0
    1.0702   65.6494   69.7880 H   0  0  0  0  0  0  0  0  0  0  0  0
    4.0029   59.8627   70.4499 H   0  0  0  0  0  0  0  0  0  0  0  0
    4.4197   60.7488   71.9527 H   0  0  0  0  0  0  0  0  0  0  0  0
    4.7939   62.2471   68.8951 H   0  0  0  0  0  0  0  0  0  0  0  0
    3.3919   64.4379   68.5644 H   0  0  0  0  0  0  0  0  0  0  0  0
   -2.7893   56.8504   75.6230 H   0  0  0  0  0  0  0  0  0  0  0  0
   -2.4098   57.2446   78.5773 H   0  0  0  0  0  0  0  0  0  0  0  0
   -1.7723   55.9730   77.4803 H   0  0  0  0  0  0  0  0  0  0  0  0
   -1.0355   57.6113   77.4803 H   0  0  0  0  0  0  0  0  0  0  0  0
   -4.4154   57.2888   78.0909 H   0  0  0  0  0  0  0  0  0  0  0  0
   -5.0325   58.1096   76.6170 H   0  0  0  0  0  0  0  0  0  0  0  0
   -4.7842   56.3305   76.6170 H   0  0  0  0  0  0  0  0  0  0  0  0
   -2.8320   62.0498   74.5168 H   0  0  0  0  0  0  0  0  0  0  0  0
   -3.1967   63.5998   75.3335 H   0  0  0  0  0  0  0  0  0  0  0  0
   -3.4076   64.3529   77.0151 H   0  0  0  0  0  0  0  0  0  0  0  0
   -1.9113   63.3357   78.8690 H   0  0  0  0  0  0  0  0  0  0  0  0
    0.4961   63.0024   79.4087 H   0  0  0  0  0  0  0  0  0  0  0  0
    2.1721   62.8032   77.5730 H   0  0  0  0  0  0  0  0  0  0  0  0
    1.4264   62.9074   75.1959 H   0  0  0  0  0  0  0  0  0  0  0  0
   -0.9859   63.1931   74.6506 H   0  0  0  0  0  0  0  0  0  0  0  0
  2  1  1  0
  3  2  1  0
  4  3  1  0
  5  4  1  0
  5  1  1  0
  6  5  2  0
  7  4  1  0
  8  7  1  0
  9  8  2  0
 10  8  1  0
 11 10  1  0
 11  3  1  0
 12 11  1  0
 13 12  1  0
 14 13  1  0
 14 10  1  0
 16 15  2  0
 17 16  1  0
  1 17  1  6
 18 16  1  0
 19 18  1  0
 20 19  1  0
 21 20  1  0
 22 20  1  0
 23 22  1  0
 24 18  1  0
 24 23  1  0
 25 23  1  0
 26 25  2  0
 27 26  1  0
 28 27  2  0
 29 28  1  0
 30 29  2  0
 30 25  1  0
 31 30  1  0
 32 31  1  0
 32 22  1  0
 33 31  2  0
 34 33  1  0
 34 29  1  0
 35  1  1  0
 36 35  1  0
 37 35  1  0
  3 38  1  6
 39  7  1  0
 40 39  1  0
 41 40  2  0
 42 41  1  0
 43 42  2  0
 44 43  1  0
 45 40  1  0
 45 44  2  0
  7 46  1  1
 11 47  1  1
 12 48  1  0
 12 49  1  0
 13 50  1  0
 13 51  1  0
 14 52  1  0
 14 53  1  0
 17 54  1  0
 18 55  1  1
 19 56  1  0
 19 57  1  0
 20 58  1  6
 21 59  1  0
 21 60  1  0
 21 61  1  0
 22 62  1  6
 23 63  1  1
 24 64  1  0
 24 65  1  0
 26 66  1  0
 27 67  1  0
 28 68  1  0
 32 69  1  0
 32 70  1  0
 33 71  1  0
 34 72  1  0
 35 73  1  0
 36 74  1  0
 36 75  1  0
 36 76  1  0
 37 77  1  0
 37 78  1  0
 37 79  1  0
 38 80  1  0
 39 81  1  0
 39 82  1  0
 41 83  1  0
 42 84  1  0
 43 85  1  0
 44 86  1  0
 45 87  1  0
M  CHG  1  20   1
M  END
>  <score>  (2) 
-8.648

$$$$
=
     RDKit          3D

 87 94  0  0  0  0  0  0  0  0999 V2000
    0.9080   61.8480   75.2230 C   0  0  2  0  0  0  0  0  0  0  0  0
    0.8610   62.5070   73.9470 O   0  0  0  0  0  0  0  0  0  0  0  0
    1.4890   61.6800   72.9760 C   0  0  2  0  0  0  0  0  0  0  0  0
    2.1200   60.6220   73.6830 N   0  0  0  0  0  0  0  0  0  0  0  0
    2.0200   60.8060   75.0360 C   0  0  0  0  0  0  0  0  0  0  0  0
    2.5900   60.1620   75.8990 O   0  0  0  0  0  0  0  0  0  0  0  0
    3.0220   59.6820   73.0080 C   0  0  2  0  0  0  0  0  0  0  0  0
    3.8390   60.3180   71.8460 C   0  0  0  0  0  0  0  0  0  0  0  0
    4.7000   59.6770   71.2440 O   0  0  0  0  0  0  0  0  0  0  0  0
    3.4750   61.5890   71.4540 N   0  0  0  0  0  0  0  0  0  0  0  0
    2.5860   62.4600   72.2170 C   0  0  1  0  0  0  0  0  0  0  0  0
    2.1510   63.4930   71.1800 C   0  0  0  0  0  0  0  0  0  0  0  0
    3.4290   63.6670   70.3530 C   0  0  0  0  0  0  0  0  0  0  0  0
    4.0060   62.2540   70.2800 C   0  0  0  0  0  0  0  0  0  0  0  0
   -1.8450   62.7180   74.7880 O   0  0  0  0  0  0  0  0  0  0  0  0
   -1.5770   61.5550   75.0590 C   0  0  0  0  0  0  0  0  0  0  0  0
   -0.3290   61.0810   75.3560 N   0  0  0  0  0  0  0  0  0  0  0  0
   -2.6560   60.4870   75.0870 C   0  0  1  0  0  0  0  0  0  0  0  0
   -2.5260   59.7030   76.3900 C   0  0  0  0  0  0  0  0  0  0  0  0
   -3.6090   58.6410   76.4950 N   0  0  2  0  0  4  0  0  0  0  0  0
   -3.3720   57.4660   75.5840 C   0  0  0  0  0  0  0  0  0  0  0  0
   -5.0000   59.2780   76.4300 C   0  0  1  0  0  0  0  0  0  0  0  0
   -5.1740   60.1130   75.1020 C   0  0  2  0  0  0  0  0  0  0  0  0
   -4.0390   61.1370   74.9640 C   0  0  0  0  0  0  0  0  0  0  0  0
   -6.5590   60.7330   75.0730 C   0  0  0  0  0  0  0  0  0  0  0  0
   -6.9510   61.8760   74.3650 C   0  0  0  0  0  0  0  0  0  0  0  0
   -8.2820   62.3210   74.3950 C   0  0  0  0  0  0  0  0  0  0  0  0
   -9.2770   61.6450   75.1200 C   0  0  0  0  0  0  0  0  0  0  0  0
   -8.8780   60.5020   75.8120 C   0  0  0  0  0  0  0  0  0  0  0  0
   -7.5690   60.0640   75.7820 C   0  0  0  0  0  0  0  0  0  0  0  0
   -7.4550   58.8960   76.5680 C   0  0  0  0  0  0  0  0  0  0  0  0
   -6.1310   58.2300   76.6990 C   0  0  0  0  0  0  0  0  0  0  0  0
   -8.7060   58.6260   77.0690 C   0  0  0  0  0  0  0  0  0  0  0  0
   -9.5640   59.6050   76.6030 N   0  0  0  0  0  0  0  0  0  0  0  0
    1.1880   62.8690   76.3490 C   0  0  0  0  0  0  0  0  0  0  0  0
    1.0430   64.3280   75.9060 C   0  0  0  0  0  0  0  0  0  0  0  0
    0.3240   62.6150   77.5910 C   0  0  0  0  0  0  0  0  0  0  0  0
    0.4950   61.1010   72.1620 O   0  0  0  0  0  0  0  0  0  0  0  0
    2.2580   58.4710   72.4200 C   0  0  0  0  0  0  0  0  0  0  0  0
    1.6060   57.5250   73.4090 C   0  0  0  0  0  0  0  0  0  0  0  0
    0.2990   57.0700   73.1750 C   0  0  0  0  0  0  0  0  0  0  0  0
   -0.3130   56.1670   74.0480 C   0  0  0  0  0  0  0  0  0  0  0  0
    0.3750   55.7050   75.1660 C   0  0  0  0  0  0  0  0  0  0  0  0
    1.6790   56.1360   75.4020 C   0  0  0  0  0  0  0  0  0  0  0  0
    2.2960   57.0280   74.5220 C   0  0  0  0  0  0  0  0  0  0  0  0
    3.7157   59.3646   73.8005 H   0  0  0  0  0  0  0  0  0  0  0  0
    3.0506   62.9717   73.0727 H   0  0  0  0  0  0  0  0  0  0  0  0
    1.3228   63.1156   70.5622 H   0  0  0  0  0  0  0  0  0  0  0  0
    1.7727   64.4292   71.6164 H   0  0  0  0  0  0  0  0  0  0  0  0
    3.1972   64.0488   69.3478 H   0  0  0  0  0  0  0  0  0  0  0  0
    4.1285   64.3916   70.7953 H   0  0  0  0  0  0  0  0  0  0  0  0
    3.6767   61.7456   69.3618 H   0  0  0  0  0  0  0  0  0  0  0  0
    5.1057   62.2499   70.2560 H   0  0  0  0  0  0  0  0  0  0  0  0
   -0.2554   60.1124   75.6985 H   0  0  0  0  0  0  0  0  0  0  0  0
   -2.5365   59.7973   74.2384 H   0  0  0  0  0  0  0  0  0  0  0  0
   -1.5401   59.2161   76.4204 H   0  0  0  0  0  0  0  0  0  0  0  0
   -2.6360   60.4014   77.2327 H   0  0  0  0  0  0  0  0  0  0  0  0
   -3.5587   58.2064   77.4274 H   0  0  0  0  0  0  0  0  0  0  0  0
   -3.1902   56.5647   76.1878 H   0  0  0  0  0  0  0  0  0  0  0  0
   -4.2567   57.3098   74.9493 H   0  0  0  0  0  0  0  0  0  0  0  0
   -2.4959   57.6650   74.9493 H   0  0  0  0  0  0  0  0  0  0  0  0
   -5.0987   60.0052   77.2494 H   0  0  0  0  0  0  0  0  0  0  0  0
   -5.0985   59.4566   74.2225 H   0  0  0  0  0  0  0  0  0  0  0  0
   -4.1465   61.8940   75.7548 H   0  0  0  0  0  0  0  0  0  0  0  0
   -4.1120   61.5901   73.9643 H   0  0  0  0  0  0  0  0  0  0  0  0
   -6.2059   62.4325   73.7775 H   0  0  0  0  0  0  0  0  0  0  0  0
   -8.5541   63.2269   73.8335 H   0  0  0  0  0  0  0  0  0  0  0  0
  -10.3182   61.9992   75.1409 H   0  0  0  0  0  0  0  0  0  0  0  0
   -6.0223   57.8238   77.7155 H   0  0  0  0  0  0  0  0  0  0  0  0
   -6.0559   57.4094   75.9703 H   0  0  0  0  0  0  0  0  0  0  0  0
   -8.9759   57.7834   77.7226 H   0  0  0  0  0  0  0  0  0  0  0  0
  -10.5704   59.6567   76.8160 H   0  0  0  0  0  0  0  0  0  0  0  0
    2.2444   62.7099   76.6111 H   0  0  0  0  0  0  0  0  0  0  0  0
    0.9786   64.9758   76.7927 H   0  0  0  0  0  0  0  0  0  0  0  0
    1.9169   64.6169   75.3036 H   0  0  0  0  0  0  0  0  0  0  0  0
    0.1294   64.4392   75.3036 H   0  0  0  0  0  0  0  0  0  0  0  0
    0.9230   62.7911   78.4966 H   0  0  0  0  0  0  0  0  0  0  0  0
   -0.5386   63.2976   77.5835 H   0  0  0  0  0  0  0  0  0  0  0  0
   -0.0319   61.5742   77.5835 H   0  0  0  0  0  0  0  0  0  0  0  0
   -0.2036   60.6940   72.7333 H   0  0  0  0  0  0  0  0  0  0  0  0
    1.4666   58.8638   71.7647 H   0  0  0  0  0  0  0  0  0  0  0  0
    3.0244   57.8689   71.9100 H   0  0  0  0  0  0  0  0  0  0  0  0
   -0.2508   57.4291   72.2925 H   0  0  0  0  0  0  0  0  0  0  0  0
   -1.3386   55.8212   73.8516 H   0  0  0  0  0  0  0  0  0  0  0  0
   -0.1086   55.0024   75.8606 H   0  0  0  0  0  0  0  0  0  0  0  0
    2.2247   55.7722   76.2851 H   0  0  0  0  0  0  0  0  0  0  0  0
    3.3339   57.3433   74.7048 H   0  0  0  0  0  0  0  0  0  0  0  0
  2  1  1  0
  3  2  1  0
  4  3  1  0
  5  4  1  0
  5  1  1  0
  6  5  2  0
  7  4  1  0
  8  7  1  0
  9  8  2  0
 10  8  1  0
 11 10  1  0
 11  3  1  0
 12 11  1  0
 13 12  1  0
 14 13  1  0
 14 10  1  0
 16 15  2  0
 17 16  1  0
  1 17  1  1
 18 16  1  0
 19 18  1  0
 20 19  1  0
 21 20  1  0
 22 20  1  0
 23 22  1  0
 24 18  1  0
 24 23  1  0
 25 23  1  0
 26 25  2  0
 27 26  1  0
 28 27  2  0
 29 28  1  0
 30 29  2  0
 30 25  1  0
 31 30  1  0
 32 31  1  0
 32 22  1  0
 33 31  2  0
 34 33  1  0
 34 29  1  0
 35  1  1  0
 36 35  1  0
 37 35  1  0
  3 38  1  6
 39  7  1  0
 40 39  1  0
 41 40  2  0
 42 41  1  0
 43 42  2  0
 44 43  1  0
 45 40  1  0
 45 44  2  0
  7 46  1  1
 11 47  1  1
 12 48  1  0
 12 49  1  0
 13 50  1  0
 13 51  1  0
 14 52  1  0
 14 53  1  0
 17 54  1  0
 18 55  1  6
 19 56  1  0
 19 57  1  0
 20 58  1  1
 21 59  1  0
 21 60  1  0
 21 61  1  0
 22 62  1  1
 23 63  1  6
 24 64  1  0
 24 65  1  0
 26 66  1  0
 27 67  1  0
 28 68  1  0
 32 69  1  0
 32 70  1  0
 33 71  1  0
 34 72  1  0
 35 73  1  0
 36 74  1  0
 36 75  1  0
 36 76  1  0
 37 77  1  0
 37 78  1  0
 37 79  1  0
 38 80  1  0
 39 81  1  0
 39 82  1  0
 41 83  1  0
 42 84  1  0
 43 85  1  0
 44 86  1  0
 45 87  1  0
M  CHG  1  20   1
M  END
>  <score>  (3) 
-8.4

$$$$
=
     RDKit          3D

 87 94  0  0  0  0  0  0  0  0999 V2000
   -4.7890   59.1290   76.5540 C   0  0  2  0  0  0  0  0  0  0  0  0
   -5.3990   59.3880   75.2780 O   0  0  0  0  0  0  0  0  0  0  0  0
   -5.4750   60.7930   75.0770 C   0  0  2  0  0  0  0  0  0  0  0  0
   -5.1240   61.4040   76.3110 N   0  0  0  0  0  0  0  0  0  0  0  0
   -4.9500   60.4650   77.2930 C   0  0  0  0  0  0  0  0  0  0  0  0
   -4.8020   60.6800   78.4830 O   0  0  0  0  0  0  0  0  0  0  0  0
   -5.2780   62.8480   76.5210 C   0  0  2  0  0  0  0  0  0  0  0  0
   -6.4880   63.4690   75.7640 C   0  0  0  0  0  0  0  0  0  0  0  0
   -6.7960   64.6510   75.9110 O   0  0  0  0  0  0  0  0  0  0  0  0
   -7.1220   62.6630   74.8410 N   0  0  0  0  0  0  0  0  0  0  0  0
   -6.9190   61.2220   74.7320 C   0  0  1  0  0  0  0  0  0  0  0  0
   -7.4500   60.9090   73.3360 C   0  0  0  0  0  0  0  0  0  0  0  0
   -8.6390   61.8700   73.2280 C   0  0  0  0  0  0  0  0  0  0  0  0
   -8.1430   63.1360   73.9260 C   0  0  0  0  0  0  0  0  0  0  0  0
   -3.3690   56.9830   75.1770 O   0  0  0  0  0  0  0  0  0  0  0  0
   -2.7820   57.9710   75.5980 C   0  0  0  0  0  0  0  0  0  0  0  0
   -3.3550   58.9800   76.3210 N   0  0  0  0  0  0  0  0  0  0  0  0
   -1.3000   58.1730   75.3390 C   0  0  1  0  0  0  0  0  0  0  0  0
   -0.7250   56.8730   74.7840 C   0  0  0  0  0  0  0  0  0  0  0  0
    0.7550   57.0260   74.4650 N   0  0  2  0  0  4  0  0  0  0  0  0
    1.6210   57.0660   75.6950 C   0  0  0  0  0  0  0  0  0  0  0  0
    0.9750   58.1460   73.4450 C   0  0  1  0  0  0  0  0  0  0  0  0
    0.3810   59.5100   73.9720 C   0  0  2  0  0  0  0  0  0  0  0  0
   -1.0940   59.3350   74.3600 C   0  0  0  0  0  0  0  0  0  0  0  0
    0.6120   60.5950   72.9360 C   0  0  0  0  0  0  0  0  0  0  0  0
   -0.1280   61.7740   72.7760 C   0  0  0  0  0  0  0  0  0  0  0  0
    0.2210   62.7170   71.7970 C   0  0  0  0  0  0  0  0  0  0  0  0
    1.3210   62.5330   70.9440 C   0  0  0  0  0  0  0  0  0  0  0  0
    2.0580   61.3620   71.1200 C   0  0  0  0  0  0  0  0  0  0  0  0
    1.7150   60.4340   72.0830 C   0  0  0  0  0  0  0  0  0  0  0  0
    2.6270   59.3560   72.0310 C   0  0  0  0  0  0  0  0  0  0  0  0
    2.4670   58.2180   72.9750 C   0  0  0  0  0  0  0  0  0  0  0  0
    3.5280   59.6410   71.0330 C   0  0  0  0  0  0  0  0  0  0  0  0
    3.1760   60.8610   70.4860 N   0  0  0  0  0  0  0  0  0  0  0  0
   -5.4830   57.9390   77.2530 C   0  0  0  0  0  0  0  0  0  0  0  0
   -4.7820   57.4830   78.5360 C   0  0  0  0  0  0  0  0  0  0  0  0
   -6.9650   58.2190   77.5420 C   0  0  0  0  0  0  0  0  0  0  0  0
   -4.4980   61.1700   74.1360 O   0  0  0  0  0  0  0  0  0  0  0  0
   -4.0150   63.6310   76.0860 C   0  0  0  0  0  0  0  0  0  0  0  0
   -2.6990   63.2120   76.7100 C   0  0  0  0  0  0  0  0  0  0  0  0
   -2.4760   63.4380   78.0770 C   0  0  0  0  0  0  0  0  0  0  0  0
   -1.2890   63.0280   78.6870 C   0  0  0  0  0  0  0  0  0  0  0  0
   -0.3080   62.3840   77.9390 C   0  0  0  0  0  0  0  0  0  0  0  0
   -0.5220   62.1390   76.5840 C   0  0  0  0  0  0  0  0  0  0  0  0
   -1.7150   62.5370   75.9770 C   0  0  0  0  0  0  0  0  0  0  0  0
   -5.4484   62.9425   77.6036 H   0  0  0  0  0  0  0  0  0  0  0  0
   -7.4574   60.6145   75.4744 H   0  0  0  0  0  0  0  0  0  0  0  0
   -6.6947   61.1185   72.5642 H   0  0  0  0  0  0  0  0  0  0  0  0
   -7.7174   59.8523   73.1885 H   0  0  0  0  0  0  0  0  0  0  0  0
   -8.8855   62.0729   72.1754 H   0  0  0  0  0  0  0  0  0  0  0  0
   -9.5574   61.4657   73.6785 H   0  0  0  0  0  0  0  0  0  0  0  0
   -7.7170   63.8414   73.1974 H   0  0  0  0  0  0  0  0  0  0  0  0
   -8.9510   63.6768   74.4404 H   0  0  0  0  0  0  0  0  0  0  0  0
   -2.7290   59.6874   76.7317 H   0  0  0  0  0  0  0  0  0  0  0  0
   -0.7776   58.4281   76.2728 H   0  0  0  0  0  0  0  0  0  0  0  0
   -0.8518   56.0754   75.5308 H   0  0  0  0  0  0  0  0  0  0  0  0
   -1.2599   56.6199   73.8567 H   0  0  0  0  0  0  0  0  0  0  0  0
    1.0846   56.1704   73.9958 H   0  0  0  0  0  0  0  0  0  0  0  0
    0.9852   57.0366   76.5922 H   0  0  0  0  0  0  0  0  0  0  0  0
    2.2969   56.1981   75.6960 H   0  0  0  0  0  0  0  0  0  0  0  0
    2.2140   57.9925   75.6960 H   0  0  0  0  0  0  0  0  0  0  0  0
    0.4098   57.9128   72.5306 H   0  0  0  0  0  0  0  0  0  0  0  0
    0.9000   59.8262   74.8889 H   0  0  0  0  0  0  0  0  0  0  0  0
   -1.6793   59.1394   73.4494 H   0  0  0  0  0  0  0  0  0  0  0  0
   -1.4250   60.2588   74.8570 H   0  0  0  0  0  0  0  0  0  0  0  0
   -0.9945   61.9631   73.4267 H   0  0  0  0  0  0  0  0  0  0  0  0
   -0.3861   63.6286   71.6947 H   0  0  0  0  0  0  0  0  0  0  0  0
    1.5878   63.2743   70.1764 H   0  0  0  0  0  0  0  0  0  0  0  0
    2.7395   57.2796   72.4698 H   0  0  0  0  0  0  0  0  0  0  0  0
    3.1226   58.3649   73.8460 H   0  0  0  0  0  0  0  0  0  0  0  0
    4.3762   59.0119   70.7250 H   0  0  0  0  0  0  0  0  0  0  0  0
    3.6762   61.3283   69.7164 H   0  0  0  0  0  0  0  0  0  0  0  0
   -5.4098   57.1133   76.5300 H   0  0  0  0  0  0  0  0  0  0  0  0
   -5.3425   57.8476   79.4095 H   0  0  0  0  0  0  0  0  0  0  0  0
   -4.7398   56.3841   78.5600 H   0  0  0  0  0  0  0  0  0  0  0  0
   -3.7603   57.8898   78.5600 H   0  0  0  0  0  0  0  0  0  0  0  0
   -7.1271   58.2496   78.6296 H   0  0  0  0  0  0  0  0  0  0  0  0
   -7.2480   59.1865   77.1017 H   0  0  0  0  0  0  0  0  0  0  0  0
   -7.5815   57.4214   77.1017 H   0  0  0  0  0  0  0  0  0  0  0  0
   -3.6870   61.4830   74.6097 H   0  0  0  0  0  0  0  0  0  0  0  0
   -3.9155   63.5218   74.9960 H   0  0  0  0  0  0  0  0  0  0  0  0
   -4.1822   64.6609   76.4345 H   0  0  0  0  0  0  0  0  0  0  0  0
   -3.2468   63.9450   78.6759 H   0  0  0  0  0  0  0  0  0  0  0  0
   -1.1291   63.2141   79.7593 H   0  0  0  0  0  0  0  0  0  0  0  0
    0.6324   62.0697   78.4153 H   0  0  0  0  0  0  0  0  0  0  0  0
    0.2517   61.6302   75.9903 H   0  0  0  0  0  0  0  0  0  0  0  0
   -1.8835   62.3181   74.9123 H   0  0  0  0  0  0  0  0  0  0  0  0
  2  1  1  0
  3  2  1  0
  4  3  1  0
  5  4  1  0
  5  1  1  0
  6  5  2  0
  7  4  1  0
  8  7  1  0
  9  8  2  0
 10  8  1  0
 11 10  1  0
 11  3  1  0
 12 11  1  0
 13 12  1  0
 14 13  1  0
 14 10  1  0
 16 15  2  0
 17 16  1  0
  1 17  1  6
 18 16  1  0
 19 18  1  0
 20 19  1  0
 21 20  1  0
 22 20  1  0
 23 22  1  0
 24 18  1  0
 24 23  1  0
 25 23  1  0
 26 25  2  0
 27 26  1  0
 28 27  2  0
 29 28  1  0
 30 29  2  0
 30 25  1  0
 31 30  1  0
 32 31  1  0
 32 22  1  0
 33 31  2  0
 34 33  1  0
 34 29  1  0
 35  1  1  0
 36 35  1  0
 37 35  1  0
  3 38  1  6
 39  7  1  0
 40 39  1  0
 41 40  2  0
 42 41  1  0
 43 42  2  0
 44 43  1  0
 45 40  1  0
 45 44  2  0
  7 46  1  1
 11 47  1  1
 12 48  1  0
 12 49  1  0
 13 50  1  0
 13 51  1  0
 14 52  1  0
 14 53  1  0
 17 54  1  0
 18 55  1  1
 19 56  1  0
 19 57  1  0
 20 58  1  6
 21 59  1  0
 21 60  1  0
 21 61  1  0
 22 62  1  6
 23 63  1  1
 24 64  1  0
 24 65  1  0
 26 66  1  0
 27 67  1  0
 28 68  1  0
 32 69  1  0
 32 70  1  0
 33 71  1  0
 34 72  1  0
 35 73  1  0
 36 74  1  0
 36 75  1  0
 36 76  1  0
 37 77  1  0
 37 78  1  0
 37 79  1  0
 38 80  1  0
 39 81  1  0
 39 82  1  0
 41 83  1  0
 42 84  1  0
 43 85  1  0
 44 86  1  0
 45 87  1  0
M  CHG  1  20   1
M  END
>  <score>  (4) 
-8.155

$$$$
=
     RDKit          3D

 87 94  0  0  0  0  0  0  0  0999 V2000
    0.2560   62.5590   75.6030 C   0  0  2  0  0  0  0  0  0  0  0  0
   -0.1950   63.1660   74.3800 O   0  0  0  0  0  0  0  0  0  0  0  0
    0.4130   62.4990   73.2820 C   0  0  2  0  0  0  0  0  0  0  0  0
    1.4060   61.6370   73.8220 N   0  0  0  0  0  0  0  0  0  0  0  0
    1.5290   61.8160   75.1750 C   0  0  0  0  0  0  0  0  0  0  0  0
    2.3930   61.3450   75.8910 O   0  0  0  0  0  0  0  0  0  0  0  0
    2.3600   60.9340   72.9580 C   0  0  2  0  0  0  0  0  0  0  0  0
    2.7580   61.7280   71.6810 C   0  0  0  0  0  0  0  0  0  0  0  0
    3.6140   61.3050   70.9050 O   0  0  0  0  0  0  0  0  0  0  0  0
    2.0280   62.8660   71.4050 N   0  0  0  0  0  0  0  0  0  0  0  0
    1.1210   63.5080   72.3500 C   0  0  1  0  0  0  0  0  0  0  0  0
    0.2570   64.3860   71.4480 C   0  0  0  0  0  0  0  0  0  0  0  0
    1.2700   64.8500   70.3960 C   0  0  0  0  0  0  0  0  0  0  0  0
    2.1460   63.6190   70.1710 C   0  0  0  0  0  0  0  0  0  0  0  0
   -2.6530   62.7390   75.7720 O   0  0  0  0  0  0  0  0  0  0  0  0
   -2.0670   61.6760   75.9310 C   0  0  0  0  0  0  0  0  0  0  0  0
   -0.7090   61.5190   75.9480 N   0  0  0  0  0  0  0  0  0  0  0  0
   -2.8330   60.3800   76.1270 C   0  0  1  0  0  0  0  0  0  0  0  0
   -3.3220   59.8970   74.7640 C   0  0  0  0  0  0  0  0  0  0  0  0
   -4.0640   58.5750   74.8910 N   0  0  2  0  0  4  0  0  0  0  0  0
   -5.4320   58.7250   75.5010 C   0  0  0  0  0  0  0  0  0  0  0  0
   -3.1610   57.5040   75.5080 C   0  0  1  0  0  0  0  0  0  0  0  0
   -2.6200   57.9690   76.9150 C   0  0  2  0  0  0  0  0  0  0  0  0
   -1.9320   59.3360   76.7970 C   0  0  0  0  0  0  0  0  0  0  0  0
   -1.7250   56.8880   77.4950 C   0  0  0  0  0  0  0  0  0  0  0  0
   -0.7070   57.0590   78.4410 C   0  0  0  0  0  0  0  0  0  0  0  0
    0.0200   55.9600   78.9240 C   0  0  0  0  0  0  0  0  0  0  0  0
   -0.2390   54.6480   78.4950 C   0  0  0  0  0  0  0  0  0  0  0  0
   -1.2630   54.4880   77.5620 C   0  0  0  0  0  0  0  0  0  0  0  0
   -1.9790   55.5680   77.0870 C   0  0  0  0  0  0  0  0  0  0  0  0
   -2.9420   55.1130   76.1600 C   0  0  0  0  0  0  0  0  0  0  0  0
   -3.8430   56.0950   75.5000 C   0  0  0  0  0  0  0  0  0  0  0  0
   -2.8080   53.7470   76.0810 C   0  0  0  0  0  0  0  0  0  0  0  0
   -1.7870   53.3760   76.9370 N   0  0  0  0  0  0  0  0  0  0  0  0
    0.4940   63.6380   76.6840 C   0  0  0  0  0  0  0  0  0  0  0  0
    0.7720   63.0640   78.0760 C   0  0  0  0  0  0  0  0  0  0  0  0
    1.6110   64.6150   76.2930 C   0  0  0  0  0  0  0  0  0  0  0  0
   -0.5490   61.6820   72.6580 O   0  0  0  0  0  0  0  0  0  0  0  0
    1.8120   59.5630   72.4920 C   0  0  0  0  0  0  0  0  0  0  0  0
    1.6740   58.4830   73.5470 C   0  0  0  0  0  0  0  0  0  0  0  0
    0.4960   57.7230   73.6120 C   0  0  0  0  0  0  0  0  0  0  0  0
    0.3550   56.6960   74.5470 C   0  0  0  0  0  0  0  0  0  0  0  0
    1.3930   56.4130   75.4310 C   0  0  0  0  0  0  0  0  0  0  0  0
    2.5740   57.1490   75.3680 C   0  0  0  0  0  0  0  0  0  0  0  0
    2.7190   58.1680   74.4230 C   0  0  0  0  0  0  0  0  0  0  0  0
    3.2505   60.8099   73.5918 H   0  0  0  0  0  0  0  0  0  0  0  0
    1.6056   64.1319   73.1155 H   0  0  0  0  0  0  0  0  0  0  0  0
   -0.5594   63.8082   70.9901 H   0  0  0  0  0  0  0  0  0  0  0  0
   -0.2440   65.2101   71.9771 H   0  0  0  0  0  0  0  0  0  0  0  0
    0.7624   65.1458   69.4660 H   0  0  0  0  0  0  0  0  0  0  0  0
    1.8457   65.7306   70.7171 H   0  0  0  0  0  0  0  0  0  0  0  0
    1.7785   63.0296   69.3180 H   0  0  0  0  0  0  0  0  0  0  0  0
    3.1881   63.8815   69.9364 H   0  0  0  0  0  0  0  0  0  0  0  0
   -0.3391   60.5984   76.2248 H   0  0  0  0  0  0  0  0  0  0  0  0
   -3.7002   60.5414   76.7842 H   0  0  0  0  0  0  0  0  0  0  0  0
   -3.9996   60.6508   74.3366 H   0  0  0  0  0  0  0  0  0  0  0  0
   -2.4501   59.7494   74.1098 H   0  0  0  0  0  0  0  0  0  0  0  0
   -4.2838   58.2249   73.9476 H   0  0  0  0  0  0  0  0  0  0  0  0
   -5.3475   58.7157   76.5977 H   0  0  0  0  0  0  0  0  0  0  0  0
   -5.8762   59.6772   75.1755 H   0  0  0  0  0  0  0  0  0  0  0  0
   -6.0720   57.8916   75.1755 H   0  0  0  0  0  0  0  0  0  0  0  0
   -2.2691   57.3807   74.8760 H   0  0  0  0  0  0  0  0  0  0  0  0
   -3.4535   58.1082   77.6192 H   0  0  0  0  0  0  0  0  0  0  0  0
   -1.0162   59.2215   76.1985 H   0  0  0  0  0  0  0  0  0  0  0  0
   -1.7034   59.6887   77.8135 H   0  0  0  0  0  0  0  0  0  0  0  0
   -0.4739   58.0685   78.8107 H   0  0  0  0  0  0  0  0  0  0  0  0
    0.8177   56.1316   79.6617 H   0  0  0  0  0  0  0  0  0  0  0  0
    0.3361   53.7909   78.8753 H   0  0  0  0  0  0  0  0  0  0  0  0
   -4.0306   55.7827   74.4621 H   0  0  0  0  0  0  0  0  0  0  0  0
   -4.7986   56.1434   76.0427 H   0  0  0  0  0  0  0  0  0  0  0  0
   -3.4049   53.0713   75.4509 H   0  0  0  0  0  0  0  0  0  0  0  0
   -1.4647   52.4092   77.0861 H   0  0  0  0  0  0  0  0  0  0  0  0
   -0.4573   64.1874   76.7406 H   0  0  0  0  0  0  0  0  0  0  0  0
    0.4276   63.7751   78.8413 H   0  0  0  0  0  0  0  0  0  0  0  0
    0.2357   62.1108   78.1934 H   0  0  0  0  0  0  0  0  0  0  0  0
    1.8524   62.8938   78.1934 H   0  0  0  0  0  0  0  0  0  0  0  0
    2.0768   65.0224   77.2024 H   0  0  0  0  0  0  0  0  0  0  0  0
    2.3697   64.0854   75.6981 H   0  0  0  0  0  0  0  0  0  0  0  0
    1.1871   65.4375   75.6981 H   0  0  0  0  0  0  0  0  0  0  0  0
   -1.0898   61.2227   73.3485 H   0  0  0  0  0  0  0  0  0  0  0  0
    0.8152   59.7336   72.0593 H   0  0  0  0  0  0  0  0  0  0  0  0
    2.5639   59.1793   71.7867 H   0  0  0  0  0  0  0  0  0  0  0  0
   -0.3280   57.9396   72.9163 H   0  0  0  0  0  0  0  0  0  0  0  0
   -0.5755   56.1107   74.5854 H   0  0  0  0  0  0  0  0  0  0  0  0
    1.2808   55.6115   76.1760 H   0  0  0  0  0  0  0  0  0  0  0  0
    3.3956   56.9271   76.0649 H   0  0  0  0  0  0  0  0  0  0  0  0
    3.6640   58.7282   74.3670 H   0  0  0  0  0  0  0  0  0  0  0  0
  2  1  1  0
  3  2  1  0
  4  3  1  0
  5  4  1  0
  5  1  1  0
  6  5  2  0
  7  4  1  0
  8  7  1  0
  9  8  2  0
 10  8  1  0
 11 10  1  0
 11  3  1  0
 12 11  1  0
 13 12  1  0
 14 13  1  0
 14 10  1  0
 16 15  2  0
 17 16  1  0
  1 17  1  1
 18 16  1  0
 19 18  1  0
 20 19  1  0
 21 20  1  0
 22 20  1  0
 23 22  1  0
 24 18  1  0
 24 23  1  0
 25 23  1  0
 26 25  2  0
 27 26  1  0
 28 27  2  0
 29 28  1  0
 30 29  2  0
 30 25  1  0
 31 30  1  0
 32 31  1  0
 32 22  1  0
 33 31  2  0
 34 33  1  0
 34 29  1  0
 35  1  1  0
 36 35  1  0
 37 35  1  0
  3 38  1  6
 39  7  1  0
 40 39  1  0
 41 40  2  0
 42 41  1  0
 43 42  2  0
 44 43  1  0
 45 40  1  0
 45 44  2  0
  7 46  1  1
 11 47  1  1
 12 48  1  0
 12 49  1  0
 13 50  1  0
 13 51  1  0
 14 52  1  0
 14 53  1  0
 17 54  1  0
 18 55  1  1
 19 56  1  0
 19 57  1  0
 20 58  1  6
 21 59  1  0
 21 60  1  0
 21 61  1  0
 22 62  1  6
 23 63  1  1
 24 64  1  0
 24 65  1  0
 26 66  1  0
 27 67  1  0
 28 68  1  0
 32 69  1  0
 32 70  1  0
 33 71  1  0
 34 72  1  0
 35 73  1  0
 36 74  1  0
 36 75  1  0
 36 76  1  0
 37 77  1  0
 37 78  1  0
 37 79  1  0
 38 80  1  0
 39 81  1  0
 39 82  1  0
 41 83  1  0
 42 84  1  0
 43 85  1  0
 44 86  1  0
 45 87  1  0
M  CHG  1  20   1
M  END
>  <score>  (5) 
-7.753

$$$$
=
     RDKit          3D

 87 94  0  0  0  0  0  0  0  0999 V2000
   -4.4070   61.0910   76.0320 C   0  0  2  0  0  0  0  0  0  0  0  0
   -4.7030   62.3590   75.4200 O   0  0  0  0  0  0  0  0  0  0  0  0
   -4.3690   63.4000   76.3290 C   0  0  2  0  0  0  0  0  0  0  0  0
   -4.0840   62.7810   77.5760 N   0  0  0  0  0  0  0  0  0  0  0  0
   -4.3310   61.4350   77.5260 C   0  0  0  0  0  0  0  0  0  0  0  0
   -4.3360   60.6640   78.4690 O   0  0  0  0  0  0  0  0  0  0  0  0
   -3.8850   63.5730   78.7950 C   0  0  2  0  0  0  0  0  0  0  0  0
   -4.7420   64.8710   78.8500 C   0  0  0  0  0  0  0  0  0  0  0  0
   -4.7470   65.5920   79.8470 O   0  0  0  0  0  0  0  0  0  0  0  0
   -5.4010   65.2290   77.6920 N   0  0  0  0  0  0  0  0  0  0  0  0
   -5.5700   64.3500   76.5390 C   0  0  1  0  0  0  0  0  0  0  0  0
   -5.9210   65.3260   75.4180 C   0  0  0  0  0  0  0  0  0  0  0  0
   -6.7780   66.3590   76.1570 C   0  0  0  0  0  0  0  0  0  0  0  0
   -6.0920   66.4920   77.5150 C   0  0  0  0  0  0  0  0  0  0  0  0
   -3.1580   61.2260   73.3960 O   0  0  0  0  0  0  0  0  0  0  0  0
   -2.5220   60.9000   74.3900 C   0  0  0  0  0  0  0  0  0  0  0  0
   -3.0450   60.7350   75.6420 N   0  0  0  0  0  0  0  0  0  0  0  0
   -1.0270   60.6440   74.3160 C   0  0  1  0  0  0  0  0  0  0  0  0
   -0.8060   59.1750   73.9650 C   0  0  0  0  0  0  0  0  0  0  0  0
    0.6780   58.8650   73.8360 N   0  0  2  0  0  4  0  0  0  0  0  0
    1.3860   58.8150   75.1630 C   0  0  0  0  0  0  0  0  0  0  0  0
    1.3210   59.7400   72.7570 C   0  0  1  0  0  0  0  0  0  0  0  0
    1.1040   61.2710   73.0720 C   0  0  2  0  0  0  0  0  0  0  0  0
   -0.3890   61.5670   73.2720 C   0  0  0  0  0  0  0  0  0  0  0  0
    1.7480   62.1080   71.9820 C   0  0  0  0  0  0  0  0  0  0  0  0
    1.4080   63.4170   71.6170 C   0  0  0  0  0  0  0  0  0  0  0  0
    2.1180   64.0920   70.6120 C   0  0  0  0  0  0  0  0  0  0  0  0
    3.1970   63.5000   69.9360 C   0  0  0  0  0  0  0  0  0  0  0  0
    3.5350   62.2020   70.3150 C   0  0  0  0  0  0  0  0  0  0  0  0
    2.8370   61.5370   71.3040 C   0  0  0  0  0  0  0  0  0  0  0  0
    3.3920   60.2490   71.4740 C   0  0  0  0  0  0  0  0  0  0  0  0
    2.8080   59.3310   72.4880 C   0  0  0  0  0  0  0  0  0  0  0  0
    4.4350   60.1410   70.5850 C   0  0  0  0  0  0  0  0  0  0  0  0
    4.5150   61.3310   69.8870 N   0  0  0  0  0  0  0  0  0  0  0  0
   -5.4980   60.0550   75.6810 C   0  0  0  0  0  0  0  0  0  0  0  0
   -6.3040   60.4100   74.4280 C   0  0  0  0  0  0  0  0  0  0  0  0
   -4.9290   58.6360   75.5470 C   0  0  0  0  0  0  0  0  0  0  0  0
   -3.1830   64.0200   75.8930 O   0  0  0  0  0  0  0  0  0  0  0  0
   -2.4050   63.9940   78.9730 C   0  0  0  0  0  0  0  0  0  0  0  0
   -1.3530   62.9400   78.6930 C   0  0  0  0  0  0  0  0  0  0  0  0
   -0.5050   63.0840   77.5840 C   0  0  0  0  0  0  0  0  0  0  0  0
    0.4990   62.1490   77.3230 C   0  0  0  0  0  0  0  0  0  0  0  0
    0.6710   61.0580   78.1700 C   0  0  0  0  0  0  0  0  0  0  0  0
   -0.1530   60.9110   79.2830 C   0  0  0  0  0  0  0  0  0  0  0  0
   -1.1490   61.8530   79.5510 C   0  0  0  0  0  0  0  0  0  0  0  0
   -4.2051   62.9001   79.6041 H   0  0  0  0  0  0  0  0  0  0  0  0
   -6.3664   63.5973   76.6351 H   0  0  0  0  0  0  0  0  0  0  0  0
   -5.0180   65.7868   74.9911 H   0  0  0  0  0  0  0  0  0  0  0  0
   -6.4287   64.8569   74.5623 H   0  0  0  0  0  0  0  0  0  0  0  0
   -6.7810   67.3207   75.6230 H   0  0  0  0  0  0  0  0  0  0  0  0
   -7.8328   66.0579   76.2394 H   0  0  0  0  0  0  0  0  0  0  0  0
   -5.3787   67.3293   77.5110 H   0  0  0  0  0  0  0  0  0  0  0  0
   -6.8041   66.6992   78.3274 H   0  0  0  0  0  0  0  0  0  0  0  0
   -2.4331   60.3294   76.3644 H   0  0  0  0  0  0  0  0  0  0  0  0
   -0.5516   60.8591   75.2843 H   0  0  0  0  0  0  0  0  0  0  0  0
   -1.2377   58.5464   74.7578 H   0  0  0  0  0  0  0  0  0  0  0  0
   -1.2937   58.9667   73.0013 H   0  0  0  0  0  0  0  0  0  0  0  0
    0.7884   57.8992   73.4954 H   0  0  0  0  0  0  0  0  0  0  0  0
    0.6463   58.8672   75.9755 H   0  0  0  0  0  0  0  0  0  0  0  0
    1.9513   57.8747   75.2418 H   0  0  0  0  0  0  0  0  0  0  0  0
    2.0779   59.6665   75.2418 H   0  0  0  0  0  0  0  0  0  0  0  0
    0.8087   59.5607   71.8002 H   0  0  0  0  0  0  0  0  0  0  0  0
    1.5970   61.5421   74.0172 H   0  0  0  0  0  0  0  0  0  0  0  0
   -0.9091   61.4296   72.3125 H   0  0  0  0  0  0  0  0  0  0  0  0
   -0.4829   62.6017   73.6334 H   0  0  0  0  0  0  0  0  0  0  0  0
    0.5734   63.9226   72.1248 H   0  0  0  0  0  0  0  0  0  0  0  0
    1.8199   65.1168   70.3456 H   0  0  0  0  0  0  0  0  0  0  0  0
    3.7476   64.0336   69.1473 H   0  0  0  0  0  0  0  0  0  0  0  0
    2.8432   58.2977   72.1124 H   0  0  0  0  0  0  0  0  0  0  0  0
    3.3845   59.3978   73.4225 H   0  0  0  0  0  0  0  0  0  0  0  0
    5.0879   59.2656   70.4531 H   0  0  0  0  0  0  0  0  0  0  0  0
    5.2070   61.5378   69.1527 H   0  0  0  0  0  0  0  0  0  0  0  0
   -6.1911   60.0830   76.5347 H   0  0  0  0  0  0  0  0  0  0  0  0
   -7.2734   60.8370   74.7244 H   0  0  0  0  0  0  0  0  0  0  0  0
   -5.7467   61.1459   73.8298 H   0  0  0  0  0  0  0  0  0  0  0  0
   -6.4707   59.5020   73.8298 H   0  0  0  0  0  0  0  0  0  0  0  0
   -4.7594   58.2129   76.5481 H   0  0  0  0  0  0  0  0  0  0  0  0
   -5.6435   58.0047   74.9984 H   0  0  0  0  0  0  0  0  0  0  0  0
   -3.9763   58.6733   74.9984 H   0  0  0  0  0  0  0  0  0  0  0  0
   -2.6487   64.2993   76.6782 H   0  0  0  0  0  0  0  0  0  0  0  0
   -2.2165   64.8397   78.2953 H   0  0  0  0  0  0  0  0  0  0  0  0
   -2.3001   64.2260   80.0431 H   0  0  0  0  0  0  0  0  0  0  0  0
   -0.6329   63.9449   76.9113 H   0  0  0  0  0  0  0  0  0  0  0  0
    1.1538   62.2748   76.4481 H   0  0  0  0  0  0  0  0  0  0  0  0
    1.4547   60.3149   77.9611 H   0  0  0  0  0  0  0  0  0  0  0  0
   -0.0190   60.0496   79.9538 H   0  0  0  0  0  0  0  0  0  0  0  0
   -1.7794   61.7395   80.4453 H   0  0  0  0  0  0  0  0  0  0  0  0
  2  1  1  0
  3  2  1  0
  4  3  1  0
  5  4  1  0
  5  1  1  0
  6  5  2  0
  7  4  1  0
  8  7  1  0
  9  8  2  0
 10  8  1  0
 11 10  1  0
 11  3  1  0
 12 11  1  0
 13 12  1  0
 14 13  1  0
 14 10  1  0
 16 15  2  0
 17 16  1  0
  1 17  1  6
 18 16  1  0
 19 18  1  0
 20 19  1  0
 21 20  1  0
 22 20  1  0
 23 22  1  0
 24 18  1  0
 24 23  1  0
 25 23  1  0
 26 25  2  0
 27 26  1  0
 28 27  2  0
 29 28  1  0
 30 29  2  0
 30 25  1  0
 31 30  1  0
 32 31  1  0
 32 22  1  0
 33 31  2  0
 34 33  1  0
 34 29  1  0
 35  1  1  0
 36 35  1  0
 37 35  1  0
  3 38  1  6
 39  7  1  0
 40 39  1  0
 41 40  2  0
 42 41  1  0
 43 42  2  0
 44 43  1  0
 45 40  1  0
 45 44  2  0
  7 46  1  1
 11 47  1  1
 12 48  1  0
 12 49  1  0
 13 50  1  0
 13 51  1  0
 14 52  1  0
 14 53  1  0
 17 54  1  0
 18 55  1  1
 19 56  1  0
 19 57  1  0
 20 58  1  6
 21 59  1  0
 21 60  1  0
 21 61  1  0
 22 62  1  6
 23 63  1  1
 24 64  1  0
 24 65  1  0
 26 66  1  0
 27 67  1  0
 28 68  1  0
 32 69  1  0
 32 70  1  0
 33 71  1  0
 34 72  1  0
 35 73  1  0
 36 74  1  0
 36 75  1  0
 36 76  1  0
 37 77  1  0
 37 78  1  0
 37 79  1  0
 38 80  1  0
 39 81  1  0
 39 82  1  0
 41 83  1  0
 42 84  1  0
 43 85  1  0
 44 86  1  0
 45 87  1  0
M  CHG  1  20   1
M  END
>  <score>  (6) 
-7.619

$$$$
=
     RDKit          3D

 87 94  0  0  0  0  0  0  0  0999 V2000
    0.1060   62.1950   74.7760 C   0  0  2  0  0  0  0  0  0  0  0  0
    0.1800   62.3620   73.3500 O   0  0  0  0  0  0  0  0  0  0  0  0
    1.3270   61.6770   72.8640 C   0  0  2  0  0  0  0  0  0  0  0  0
    2.0820   61.2800   74.0000 N   0  0  0  0  0  0  0  0  0  0  0  0
    1.5340   61.7770   75.1530 C   0  0  0  0  0  0  0  0  0  0  0  0
    2.0320   61.7450   76.2640 O   0  0  0  0  0  0  0  0  0  0  0  0
    3.4280   60.7120   73.8640 C   0  0  2  0  0  0  0  0  0  0  0  0
    4.2370   61.2900   72.6670 C   0  0  0  0  0  0  0  0  0  0  0  0
    5.4110   60.9740   72.4770 O   0  0  0  0  0  0  0  0  0  0  0  0
    3.5440   62.0780   71.7720 N   0  0  0  0  0  0  0  0  0  0  0  0
    2.2110   62.6200   72.0170 C   0  0  1  0  0  0  0  0  0  0  0  0
    1.7340   62.9910   70.6150 C   0  0  0  0  0  0  0  0  0  0  0  0
    3.0280   63.4880   69.9620 C   0  0  0  0  0  0  0  0  0  0  0  0
    4.0960   62.5450   70.5150 C   0  0  0  0  0  0  0  0  0  0  0  0
   -2.3890   61.4030   73.4830 O   0  0  0  0  0  0  0  0  0  0  0  0
   -1.8480   60.6910   74.3180 C   0  0  0  0  0  0  0  0  0  0  0  0
   -0.7260   61.0200   75.0270 N   0  0  0  0  0  0  0  0  0  0  0  0
   -2.3960   59.3150   74.6510 C   0  0  1  0  0  0  0  0  0  0  0  0
   -1.4610   58.6530   75.6600 C   0  0  0  0  0  0  0  0  0  0  0  0
   -1.9820   57.2820   76.0650 N   0  0  2  0  0  4  0  0  0  0  0  0
   -1.8070   56.2450   74.9880 C   0  0  0  0  0  0  0  0  0  0  0  0
   -3.3810   57.3940   76.6770 C   0  0  1  0  0  0  0  0  0  0  0  0
   -4.3800   58.0880   75.6710 C   0  0  2  0  0  0  0  0  0  0  0  0
   -3.8180   59.4400   75.2090 C   0  0  0  0  0  0  0  0  0  0  0  0
   -5.7530   58.1870   76.3110 C   0  0  0  0  0  0  0  0  0  0  0  0
   -6.7620   59.1060   75.9950 C   0  0  0  0  0  0  0  0  0  0  0  0
   -8.0060   59.0600   76.6410 C   0  0  0  0  0  0  0  0  0  0  0  0
   -8.3040   58.0960   77.6180 C   0  0  0  0  0  0  0  0  0  0  0  0
   -7.2970   57.1780   77.9160 C   0  0  0  0  0  0  0  0  0  0  0  0
   -6.0720   57.2230   77.2810 C   0  0  0  0  0  0  0  0  0  0  0  0
   -5.2550   56.1850   77.7800 C   0  0  0  0  0  0  0  0  0  0  0  0
   -3.8740   56.0240   77.2510 C   0  0  0  0  0  0  0  0  0  0  0  0
   -5.9960   55.5060   78.7180 C   0  0  0  0  0  0  0  0  0  0  0  0
   -7.2350   56.1160   78.7930 N   0  0  0  0  0  0  0  0  0  0  0  0
   -0.3630   63.5040   75.4500 C   0  0  0  0  0  0  0  0  0  0  0  0
   -0.9060   63.3070   76.8680 C   0  0  0  0  0  0  0  0  0  0  0  0
    0.7350   64.5770   75.4580 C   0  0  0  0  0  0  0  0  0  0  0  0
    0.9110   60.5010   72.2110 O   0  0  0  0  0  0  0  0  0  0  0  0
    3.3890   59.1740   73.6910 C   0  0  0  0  0  0  0  0  0  0  0  0
    3.0640   58.3520   74.9230 C   0  0  0  0  0  0  0  0  0  0  0  0
    3.7740   58.5760   76.1120 C   0  0  0  0  0  0  0  0  0  0  0  0
    3.4710   57.8610   77.2730 C   0  0  0  0  0  0  0  0  0  0  0  0
    2.4500   56.9140   77.2610 C   0  0  0  0  0  0  0  0  0  0  0  0
    1.7270   56.6930   76.0910 C   0  0  0  0  0  0  0  0  0  0  0  0
    2.0220   57.4180   74.9330 C   0  0  0  0  0  0  0  0  0  0  0  0
    3.9307   60.9914   74.8017 H   0  0  0  0  0  0  0  0  0  0  0  0
    2.1764   63.5086   72.6644 H   0  0  0  0  0  0  0  0  0  0  0  0
    1.3292   62.1159   70.0855 H   0  0  0  0  0  0  0  0  0  0  0  0
    0.9186   63.7292   70.6038 H   0  0  0  0  0  0  0  0  0  0  0  0
    2.9683   63.4139   68.8661 H   0  0  0  0  0  0  0  0  0  0  0  0
    3.2376   64.5455   70.1803 H   0  0  0  0  0  0  0  0  0  0  0  0
    4.2667   61.7034   69.8276 H   0  0  0  0  0  0  0  0  0  0  0  0
    5.0700   63.0404   70.6414 H   0  0  0  0  0  0  0  0  0  0  0  0
   -0.4465   60.3931   75.7950 H   0  0  0  0  0  0  0  0  0  0  0  0
   -2.4473   58.6922   73.7458 H   0  0  0  0  0  0  0  0  0  0  0  0
   -0.4646   58.5404   75.2077 H   0  0  0  0  0  0  0  0  0  0  0  0
   -1.4064   59.2872   76.5571 H   0  0  0  0  0  0  0  0  0  0  0  0
   -1.3901   56.9109   76.8219 H   0  0  0  0  0  0  0  0  0  0  0  0
   -1.6409   55.2607   75.4502 H   0  0  0  0  0  0  0  0  0  0  0  0
   -2.7117   56.2088   74.3634 H   0  0  0  0  0  0  0  0  0  0  0  0
   -0.9405   56.5077   74.3634 H   0  0  0  0  0  0  0  0  0  0  0  0
   -3.3364   58.0586   77.5524 H   0  0  0  0  0  0  0  0  0  0  0  0
   -4.4934   57.4804   74.7611 H   0  0  0  0  0  0  0  0  0  0  0  0
   -3.8030   60.1291   76.0663 H   0  0  0  0  0  0  0  0  0  0  0  0
   -4.4651   59.8175   74.4036 H   0  0  0  0  0  0  0  0  0  0  0  0
   -6.5761   59.8741   75.2298 H   0  0  0  0  0  0  0  0  0  0  0  0
   -8.7725   59.8024   76.3740 H   0  0  0  0  0  0  0  0  0  0  0  0
   -9.2812   58.0665   78.1222 H   0  0  0  0  0  0  0  0  0  0  0  0
   -3.2043   55.7023   78.0622 H   0  0  0  0  0  0  0  0  0  0  0  0
   -3.8691   55.2657   76.4542 H   0  0  0  0  0  0  0  0  0  0  0  0
   -5.6638   54.6355   79.3027 H   0  0  0  0  0  0  0  0  0  0  0  0
   -8.0010   55.8196   79.4145 H   0  0  0  0  0  0  0  0  0  0  0  0
   -1.1994   63.8527   74.8264 H   0  0  0  0  0  0  0  0  0  0  0  0
   -0.1332   63.5874   77.5988 H   0  0  0  0  0  0  0  0  0  0  0  0
   -1.7938   63.9403   77.0120 H   0  0  0  0  0  0  0  0  0  0  0  0
   -1.1812   62.2517   77.0120 H   0  0  0  0  0  0  0  0  0  0  0  0
    0.9934   64.8295   76.4970 H   0  0  0  0  0  0  0  0  0  0  0  0
    1.6269   64.1928   74.9414 H   0  0  0  0  0  0  0  0  0  0  0  0
    0.3714   65.4775   74.9414 H   0  0  0  0  0  0  0  0  0  0  0  0
    0.6691   59.8173   72.8849 H   0  0  0  0  0  0  0  0  0  0  0  0
    2.6296   58.9447   72.9290 H   0  0  0  0  0  0  0  0  0  0  0  0
    4.4168   58.8902   73.4205 H   0  0  0  0  0  0  0  0  0  0  0  0
    4.5799   59.3245   76.1302 H   0  0  0  0  0  0  0  0  0  0  0  0
    4.0388   58.0459   78.1968 H   0  0  0  0  0  0  0  0  0  0  0  0
    2.2155   56.3430   78.1715 H   0  0  0  0  0  0  0  0  0  0  0  0
    0.9207   55.9449   76.0784 H   0  0  0  0  0  0  0  0  0  0  0  0
    1.4296   57.2528   74.0210 H   0  0  0  0  0  0  0  0  0  0  0  0
  2  1  1  0
  3  2  1  0
  4  3  1  0
  5  4  1  0
  5  1  1  0
  6  5  2  0
  7  4  1  0
  8  7  1  0
  9  8  2  0
 10  8  1  0
 11 10  1  0
 11  3  1  0
 12 11  1  0
 13 12  1  0
 14 13  1  0
 14 10  1  0
 16 15  2  0
 17 16  1  0
  1 17  1  6
 18 16  1  0
 19 18  1  0
 20 19  1  0
 21 20  1  0
 22 20  1  0
 23 22  1  0
 24 18  1  0
 24 23  1  0
 25 23  1  0
 26 25  2  0
 27 26  1  0
 28 27  2  0
 29 28  1  0
 30 29  2  0
 30 25  1  0
 31 30  1  0
 32 31  1  0
 32 22  1  0
 33 31  2  0
 34 33  1  0
 34 29  1  0
 35  1  1  0
 36 35  1  0
 37 35  1  0
  3 38  1  6
 39  7  1  0
 40 39  1  0
 41 40  2  0
 42 41  1  0
 43 42  2  0
 44 43  1  0
 45 40  1  0
 45 44  2  0
  7 46  1  1
 11 47  1  1
 12 48  1  0
 12 49  1  0
 13 50  1  0
 13 51  1  0
 14 52  1  0
 14 53  1  0
 17 54  1  0
 18 55  1  6
 19 56  1  0
 19 57  1  0
 20 58  1  1
 21 59  1  0
 21 60  1  0
 21 61  1  0
 22 62  1  1
 23 63  1  6
 24 64  1  0
 24 65  1  0
 26 66  1  0
 27 67  1  0
 28 68  1  0
 32 69  1  0
 32 70  1  0
 33 71  1  0
 34 72  1  0
 35 73  1  0
 36 74  1  0
 36 75  1  0
 36 76  1  0
 37 77  1  0
 37 78  1  0
 37 79  1  0
 38 80  1  0
 39 81  1  0
 39 82  1  0
 41 83  1  0
 42 84  1  0
 43 85  1  0
 44 86  1  0
 45 87  1  0
M  CHG  1  20   1
M  END
>  <score>  (7) 
-7.499

$$$$
=
     RDKit          3D

 87 94  0  0  0  0  0  0  0  0999 V2000
   -2.4200   60.8820   77.0250 C   0  0  2  0  0  0  0  0  0  0  0  0
   -2.4750   59.4460   76.9740 O   0  0  0  0  0  0  0  0  0  0  0  0
   -3.7520   59.0480   76.4930 C   0  0  2  0  0  0  0  0  0  0  0  0
   -4.5610   60.2150   76.4610 N   0  0  0  0  0  0  0  0  0  0  0  0
   -3.9010   61.2870   77.0000 C   0  0  0  0  0  0  0  0  0  0  0  0
   -4.3790   62.3770   77.2580 O   0  0  0  0  0  0  0  0  0  0  0  0
   -6.0010   60.1400   76.1920 C   0  0  2  0  0  0  0  0  0  0  0  0
   -6.6770   58.8480   76.7360 C   0  0  0  0  0  0  0  0  0  0  0  0
   -7.8940   58.6840   76.6630 O   0  0  0  0  0  0  0  0  0  0  0  0
   -5.8370   57.8550   77.1970 N   0  0  0  0  0  0  0  0  0  0  0  0
   -4.4140   58.0420   77.4610 C   0  0  1  0  0  0  0  0  0  0  0  0
   -3.8840   56.6100   77.4870 C   0  0  0  0  0  0  0  0  0  0  0  0
   -5.0430   55.8570   78.1480 C   0  0  0  0  0  0  0  0  0  0  0  0
   -6.2870   56.5270   77.5670 C   0  0  0  0  0  0  0  0  0  0  0  0
   -1.4870   63.5430   76.2730 O   0  0  0  0  0  0  0  0  0  0  0  0
   -1.3870   62.5920   75.5100 C   0  0  0  0  0  0  0  0  0  0  0  0
   -1.8690   61.3350   75.7500 N   0  0  0  0  0  0  0  0  0  0  0  0
   -0.6840   62.7290   74.1710 C   0  0  1  0  0  0  0  0  0  0  0  0
    0.2280   63.9520   74.2280 C   0  0  0  0  0  0  0  0  0  0  0  0
    0.9930   64.1190   72.9240 N   0  0  2  0  0  4  0  0  0  0  0  0
    0.1310   64.6210   71.7970 C   0  0  0  0  0  0  0  0  0  0  0  0
    1.8380   62.8760   72.6300 C   0  0  1  0  0  0  0  0  0  0  0  0
    0.9350   61.5830   72.5760 C   0  0  2  0  0  0  0  0  0  0  0  0
    0.1110   61.4550   73.8650 C   0  0  0  0  0  0  0  0  0  0  0  0
    1.8040   60.3720   72.2880 C   0  0  0  0  0  0  0  0  0  0  0  0
    1.5200   59.0390   72.6120 C   0  0  0  0  0  0  0  0  0  0  0  0
    2.3980   58.0070   72.2490 C   0  0  0  0  0  0  0  0  0  0  0  0
    3.5870   58.2530   71.5420 C   0  0  0  0  0  0  0  0  0  0  0  0
    3.8530   59.5820   71.2140 C   0  0  0  0  0  0  0  0  0  0  0  0
    2.9900   60.5980   71.5710 C   0  0  0  0  0  0  0  0  0  0  0  0
    3.5120   61.8290   71.1150 C   0  0  0  0  0  0  0  0  0  0  0  0
    2.7600   63.0850   71.3810 C   0  0  0  0  0  0  0  0  0  0  0  0
    4.6950   61.5500   70.4730 C   0  0  0  0  0  0  0  0  0  0  0  0
    4.8940   60.1830   70.5370 N   0  0  0  0  0  0  0  0  0  0  0  0
   -1.6630   61.3490   78.2880 C   0  0  0  0  0  0  0  0  0  0  0  0
   -2.3860   61.0200   79.5970 C   0  0  0  0  0  0  0  0  0  0  0  0
   -0.2270   60.8070   78.3370 C   0  0  0  0  0  0  0  0  0  0  0  0
   -3.6170   58.6000   75.1650 O   0  0  0  0  0  0  0  0  0  0  0  0
   -6.3090   60.2140   74.6760 C   0  0  0  0  0  0  0  0  0  0  0  0
   -7.0720   61.4300   74.1890 C   0  0  0  0  0  0  0  0  0  0  0  0
   -7.8780   61.3290   73.0440 C   0  0  0  0  0  0  0  0  0  0  0  0
   -8.6220   62.4220   72.5930 C   0  0  0  0  0  0  0  0  0  0  0  0
   -8.5740   63.6290   73.2830 C   0  0  0  0  0  0  0  0  0  0  0  0
   -7.7900   63.7390   74.4300 C   0  0  0  0  0  0  0  0  0  0  0  0
   -7.0550   62.6420   74.8880 C   0  0  0  0  0  0  0  0  0  0  0  0
   -6.4156   61.0099   76.7225 H   0  0  0  0  0  0  0  0  0  0  0  0
   -4.1739   58.5408   78.4116 H   0  0  0  0  0  0  0  0  0  0  0  0
   -3.6916   56.2359   76.4706 H   0  0  0  0  0  0  0  0  0  0  0  0
   -2.9245   56.5003   78.0135 H   0  0  0  0  0  0  0  0  0  0  0  0
   -5.0154   54.7884   77.8886 H   0  0  0  0  0  0  0  0  0  0  0  0
   -5.0087   55.9004   79.2466 H   0  0  0  0  0  0  0  0  0  0  0  0
   -6.6496   55.9784   76.6852 H   0  0  0  0  0  0  0  0  0  0  0  0
   -7.1246   56.5497   78.2797 H   0  0  0  0  0  0  0  0  0  0  0  0
   -1.8416   60.6575   74.9746 H   0  0  0  0  0  0  0  0  0  0  0  0
   -1.4178   62.8643   73.3628 H   0  0  0  0  0  0  0  0  0  0  0  0
   -0.3833   64.8493   74.4045 H   0  0  0  0  0  0  0  0  0  0  0  0
    0.9515   63.8135   75.0450 H   0  0  0  0  0  0  0  0  0  0  0  0
    1.6745   64.8836   73.0326 H   0  0  0  0  0  0  0  0  0  0  0  0
   -0.7501   65.1341   72.2098 H   0  0  0  0  0  0  0  0  0  0  0  0
    0.7085   65.3240   71.1788 H   0  0  0  0  0  0  0  0  0  0  0  0
   -0.1955   63.7718   71.1788 H   0  0  0  0  0  0  0  0  0  0  0  0
    2.5362   62.7121   73.4641 H   0  0  0  0  0  0  0  0  0  0  0  0
    0.2060   61.6570   71.7556 H   0  0  0  0  0  0  0  0  0  0  0  0
    0.7937   61.2531   74.7036 H   0  0  0  0  0  0  0  0  0  0  0  0
   -0.6069   60.6330   73.7274 H   0  0  0  0  0  0  0  0  0  0  0  0
    0.5961   58.7984   73.1584 H   0  0  0  0  0  0  0  0  0  0  0  0
    2.1477   56.9725   72.5266 H   0  0  0  0  0  0  0  0  0  0  0  0
    4.2724   57.4395   71.2618 H   0  0  0  0  0  0  0  0  0  0  0  0
    3.4680   63.9033   71.5787 H   0  0  0  0  0  0  0  0  0  0  0  0
    2.1453   63.3412   70.5055 H   0  0  0  0  0  0  0  0  0  0  0  0
    5.3627   62.2818   69.9948 H   0  0  0  0  0  0  0  0  0  0  0  0
    5.7024   59.6856   70.1371 H   0  0  0  0  0  0  0  0  0  0  0  0
   -1.6288   62.4450   78.2008 H   0  0  0  0  0  0  0  0  0  0  0  0
   -1.7521   61.3084   80.4485 H   0  0  0  0  0  0  0  0  0  0  0  0
   -3.3346   61.5751   79.6415 H   0  0  0  0  0  0  0  0  0  0  0  0
   -2.5906   59.9401   79.6415 H   0  0  0  0  0  0  0  0  0  0  0  0
    0.0849   60.6893   79.3853 H   0  0  0  0  0  0  0  0  0  0  0  0
   -0.1858   59.8315   77.8304 H   0  0  0  0  0  0  0  0  0  0  0  0
    0.4485   61.5120   77.8304 H   0  0  0  0  0  0  0  0  0  0  0  0
   -3.3314   57.6521   75.1639 H   0  0  0  0  0  0  0  0  0  0  0  0
   -5.3486   60.1880   74.1403 H   0  0  0  0  0  0  0  0  0  0  0  0
   -6.9734   59.3602   74.4767 H   0  0  0  0  0  0  0  0  0  0  0  0
   -7.9243   60.3770   72.4949 H   0  0  0  0  0  0  0  0  0  0  0  0
   -9.2460   62.3282   71.6920 H   0  0  0  0  0  0  0  0  0  0  0  0
   -9.1526   64.4932   72.9247 H   0  0  0  0  0  0  0  0  0  0  0  0
   -7.7495   64.6926   74.9768 H   0  0  0  0  0  0  0  0  0  0  0  0
   -6.4573   62.7323   75.8070 H   0  0  0  0  0  0  0  0  0  0  0  0
  2  1  1  0
  3  2  1  0
  4  3  1  0
  5  4  1  0
  5  1  1  0
  6  5  2  0
  7  4  1  0
  8  7  1  0
  9  8  2  0
 10  8  1  0
 11 10  1  0
 11  3  1  0
 12 11  1  0
 13 12  1  0
 14 13  1  0
 14 10  1  0
 16 15  2  0
 17 16  1  0
  1 17  1  6
 18 16  1  0
 19 18  1  0
 20 19  1  0
 21 20  1  0
 22 20  1  0
 23 22  1  0
 24 18  1  0
 24 23  1  0
 25 23  1  0
 26 25  2  0
 27 26  1  0
 28 27  2  0
 29 28  1  0
 30 29  2  0
 30 25  1  0
 31 30  1  0
 32 31  1  0
 32 22  1  0
 33 31  2  0
 34 33  1  0
 34 29  1  0
 35  1  1  0
 36 35  1  0
 37 35  1  0
  3 38  1  6
 39  7  1  0
 40 39  1  0
 41 40  2  0
 42 41  1  0
 43 42  2  0
 44 43  1  0
 45 40  1  0
 45 44  2  0
  7 46  1  1
 11 47  1  1
 12 48  1  0
 12 49  1  0
 13 50  1  0
 13 51  1  0
 14 52  1  0
 14 53  1  0
 17 54  1  0
 18 55  1  6
 19 56  1  0
 19 57  1  0
 20 58  1  1
 21 59  1  0
 21 60  1  0
 21 61  1  0
 22 62  1  1
 23 63  1  6
 24 64  1  0
 24 65  1  0
 26 66  1  0
 27 67  1  0
 28 68  1  0
 32 69  1  0
 32 70  1  0
 33 71  1  0
 34 72  1  0
 35 73  1  0
 36 74  1  0
 36 75  1  0
 36 76  1  0
 37 77  1  0
 37 78  1  0
 37 79  1  0
 38 80  1  0
 39 81  1  0
 39 82  1  0
 41 83  1  0
 42 84  1  0
 43 85  1  0
 44 86  1  0
 45 87  1  0
M  CHG  1  20   1
M  END
>  <score>  (8) 
-7.481

$$$$
=
     RDKit          3D

 87 94  0  0  0  0  0  0  0  0999 V2000
    0.8970   57.5670   77.3240 C   0  0  2  0  0  0  0  0  0  0  0  0
    1.3660   56.3960   76.6330 O   0  0  0  0  0  0  0  0  0  0  0  0
    0.2610   55.5410   76.3690 C   0  0  2  0  0  0  0  0  0  0  0  0
   -0.8460   56.0660   77.0880 N   0  0  0  0  0  0  0  0  0  0  0  0
   -0.4670   57.1250   77.8710 C   0  0  0  0  0  0  0  0  0  0  0  0
   -1.1470   57.6800   78.7150 O   0  0  0  0  0  0  0  0  0  0  0  0
   -2.1080   55.3270   77.1950 C   0  0  2  0  0  0  0  0  0  0  0  0
   -1.9310   53.7810   77.2350 C   0  0  0  0  0  0  0  0  0  0  0  0
   -2.8910   53.0320   77.4100 O   0  0  0  0  0  0  0  0  0  0  0  0
   -0.6720   53.2930   76.9530 N   0  0  0  0  0  0  0  0  0  0  0  0
    0.5330   54.1150   76.8980 C   0  0  1  0  0  0  0  0  0  0  0  0
    1.5090   53.2320   76.1240 C   0  0  0  0  0  0  0  0  0  0  0  0
    1.1450   51.8350   76.6370 C   0  0  0  0  0  0  0  0  0  0  0  0
   -0.3760   51.8850   76.7720 C   0  0  0  0  0  0  0  0  0  0  0  0
    2.3210   58.1340   74.8390 O   0  0  0  0  0  0  0  0  0  0  0  0
    1.2880   58.7220   75.1330 C   0  0  0  0  0  0  0  0  0  0  0  0
    0.6050   58.5750   76.3080 N   0  0  0  0  0  0  0  0  0  0  0  0
    0.6450   59.7070   74.1740 C   0  0  1  0  0  0  0  0  0  0  0  0
    0.1830   60.9250   74.9690 C   0  0  0  0  0  0  0  0  0  0  0  0
   -0.4370   61.9690   74.0530 N   0  0  2  0  0  4  0  0  0  0  0  0
   -1.8040   61.5800   73.5580 C   0  0  0  0  0  0  0  0  0  0  0  0
    0.5680   62.4180   72.9880 C   0  0  1  0  0  0  0  0  0  0  0  0
    1.0840   61.1850   72.1480 C   0  0  2  0  0  0  0  0  0  0  0  0
    1.6440   60.1020   73.0810 C   0  0  0  0  0  0  0  0  0  0  0  0
    2.0790   61.6650   71.1070 C   0  0  0  0  0  0  0  0  0  0  0  0
    3.0910   60.9080   70.5030 C   0  0  0  0  0  0  0  0  0  0  0  0
    3.9210   61.4680   69.5190 C   0  0  0  0  0  0  0  0  0  0  0  0
    3.7740   62.7980   69.0910 C   0  0  0  0  0  0  0  0  0  0  0  0
    2.7560   63.5380   69.6900 C   0  0  0  0  0  0  0  0  0  0  0  0
    1.9400   62.9870   70.6570 C   0  0  0  0  0  0  0  0  0  0  0  0
    1.0090   63.9600   71.0850 C   0  0  0  0  0  0  0  0  0  0  0  0
    0.0140   63.6070   72.1330 C   0  0  0  0  0  0  0  0  0  0  0  0
    1.2640   65.1030   70.3650 C   0  0  0  0  0  0  0  0  0  0  0  0
    2.3250   64.8370   69.5200 N   0  0  0  0  0  0  0  0  0  0  0  0
    1.9050   57.9880   78.4170 C   0  0  0  0  0  0  0  0  0  0  0  0
    3.2140   57.1930   78.3870 C   0  0  0  0  0  0  0  0  0  0  0  0
    2.2090   59.4920   78.3780 C   0  0  0  0  0  0  0  0  0  0  0  0
   -0.0570   55.6210   75.0000 O   0  0  0  0  0  0  0  0  0  0  0  0
   -3.0650   55.6480   76.0210 C   0  0  0  0  0  0  0  0  0  0  0  0
   -3.6600   57.0410   75.9810 C   0  0  0  0  0  0  0  0  0  0  0  0
   -3.0310   58.0420   75.2240 C   0  0  0  0  0  0  0  0  0  0  0  0
   -3.5760   59.3240   75.1360 C   0  0  0  0  0  0  0  0  0  0  0  0
   -4.7610   59.6240   75.8030 C   0  0  0  0  0  0  0  0  0  0  0  0
   -5.4050   58.6360   76.5450 C   0  0  0  0  0  0  0  0  0  0  0  0
   -4.8660   57.3490   76.6220 C   0  0  0  0  0  0  0  0  0  0  0  0
   -2.5317   55.6623   78.1531 H   0  0  0  0  0  0  0  0  0  0  0  0
    0.9685   54.3776   77.8734 H   0  0  0  0  0  0  0  0  0  0  0  0
    1.3489   53.3142   75.0388 H   0  0  0  0  0  0  0  0  0  0  0  0
    2.5654   53.4995   76.2736 H   0  0  0  0  0  0  0  0  0  0  0  0
    1.4499   51.0609   75.9174 H   0  0  0  0  0  0  0  0  0  0  0  0
    1.6492   51.5824   77.5815 H   0  0  0  0  0  0  0  0  0  0  0  0
   -0.8610   51.4982   75.8636 H   0  0  0  0  0  0  0  0  0  0  0  0
   -0.7453   51.2670   77.6037 H   0  0  0  0  0  0  0  0  0  0  0  0
   -0.1740   59.2237   76.4906 H   0  0  0  0  0  0  0  0  0  0  0  0
   -0.2244   59.2493   73.6794 H   0  0  0  0  0  0  0  0  0  0  0  0
   -0.5643   60.6080   75.7113 H   0  0  0  0  0  0  0  0  0  0  0  0
    1.0563   61.3702   75.4682 H   0  0  0  0  0  0  0  0  0  0  0  0
   -0.6393   62.8167   74.6019 H   0  0  0  0  0  0  0  0  0  0  0  0
   -2.4651   61.3919   74.4168 H   0  0  0  0  0  0  0  0  0  0  0  0
   -2.2188   62.3958   72.9477 H   0  0  0  0  0  0  0  0  0  0  0  0
   -1.7272   60.6681   72.9477 H   0  0  0  0  0  0  0  0  0  0  0  0
    1.4583   62.8283   73.4869 H   0  0  0  0  0  0  0  0  0  0  0  0
    0.2520   60.7148   71.6032 H   0  0  0  0  0  0  0  0  0  0  0  0
    2.5587   60.4837   73.5581 H   0  0  0  0  0  0  0  0  0  0  0  0
    1.8522   59.2082   72.4745 H   0  0  0  0  0  0  0  0  0  0  0  0
    3.2374   59.8601   70.8039 H   0  0  0  0  0  0  0  0  0  0  0  0
    4.7099   60.8469   69.0697 H   0  0  0  0  0  0  0  0  0  0  0  0
    4.4292   63.2333   68.3221 H   0  0  0  0  0  0  0  0  0  0  0  0
   -0.1609   64.4773   72.7826 H   0  0  0  0  0  0  0  0  0  0  0  0
   -0.9337   63.3117   71.6589 H   0  0  0  0  0  0  0  0  0  0  0  0
    0.7218   66.0566   70.4466 H   0  0  0  0  0  0  0  0  0  0  0  0
    2.7348   65.5118   68.8585 H   0  0  0  0  0  0  0  0  0  0  0  0
    1.4005   57.7505   79.3652 H   0  0  0  0  0  0  0  0  0  0  0  0
    3.5447   56.9922   79.4167 H   0  0  0  0  0  0  0  0  0  0  0  0
    3.0524   56.2403   77.8614 H   0  0  0  0  0  0  0  0  0  0  0  0
    3.9849   57.7756   77.8614 H   0  0  0  0  0  0  0  0  0  0  0  0
    2.2868   59.8771   79.4054 H   0  0  0  0  0  0  0  0  0  0  0  0
    3.1594   59.6604   77.8503 H   0  0  0  0  0  0  0  0  0  0  0  0
    1.3987   60.0163   77.8503 H   0  0  0  0  0  0  0  0  0  0  0  0
   -1.0118   55.8612   74.8965 H   0  0  0  0  0  0  0  0  0  0  0  0
   -2.5051   55.4991   75.0860 H   0  0  0  0  0  0  0  0  0  0  0  0
   -3.9234   54.9741   76.1591 H   0  0  0  0  0  0  0  0  0  0  0  0
   -2.0955   57.8128   74.6927 H   0  0  0  0  0  0  0  0  0  0  0  0
   -3.0695   60.0973   74.5398 H   0  0  0  0  0  0  0  0  0  0  0  0
   -5.1868   60.6365   75.7444 H   0  0  0  0  0  0  0  0  0  0  0  0
   -6.3416   58.8701   77.0723 H   0  0  0  0  0  0  0  0  0  0  0  0
   -5.3944   56.5704   77.1917 H   0  0  0  0  0  0  0  0  0  0  0  0
  2  1  1  0
  3  2  1  0
  4  3  1  0
  5  4  1  0
  5  1  1  0
  6  5  2  0
  7  4  1  0
  8  7  1  0
  9  8  2  0
 10  8  1  0
 11 10  1  0
 11  3  1  0
 12 11  1  0
 13 12  1  0
 14 13  1  0
 14 10  1  0
 16 15  2  0
 17 16  1  0
  1 17  1  6
 18 16  1  0
 19 18  1  0
 20 19  1  0
 21 20  1  0
 22 20  1  0
 23 22  1  0
 24 18  1  0
 24 23  1  0
 25 23  1  0
 26 25  2  0
 27 26  1  0
 28 27  2  0
 29 28  1  0
 30 29  2  0
 30 25  1  0
 31 30  1  0
 32 31  1  0
 32 22  1  0
 33 31  2  0
 34 33  1  0
 34 29  1  0
 35  1  1  0
 36 35  1  0
 37 35  1  0
  3 38  1  6
 39  7  1  0
 40 39  1  0
 41 40  2  0
 42 41  1  0
 43 42  2  0
 44 43  1  0
 45 40  1  0
 45 44  2  0
  7 46  1  1
 11 47  1  1
 12 48  1  0
 12 49  1  0
 13 50  1  0
 13 51  1  0
 14 52  1  0
 14 53  1  0
 17 54  1  0
 18 55  1  6
 19 56  1  0
 19 57  1  0
 20 58  1  1
 21 59  1  0
 21 60  1  0
 21 61  1  0
 22 62  1  1
 23 63  1  6
 24 64  1  0
 24 65  1  0
 26 66  1  0
 27 67  1  0
 28 68  1  0
 32 69  1  0
 32 70  1  0
 33 71  1  0
 34 72  1  0
 35 73  1  0
 36 74  1  0
 36 75  1  0
 36 76  1  0
 37 77  1  0
 37 78  1  0
 37 79  1  0
 38 80  1  0
 39 81  1  0
 39 82  1  0
 41 83  1  0
 42 84  1  0
 43 85  1  0
 44 86  1  0
 45 87  1  0
M  CHG  1  20   1
M  END
>  <score>  (9) 
-7.432

$$$$
