=
     RDKit          3D

 44 47  0  0  0  0  0  0  0  0999 V2000
    5.8880   69.0980   62.0230 C   0  0  0  0  0  0  0  0  0  0  0  0
    4.6860   68.3900   62.6070 N   0  0  0  0  0  4  0  0  0  0  0  0
    4.8110   68.2400   64.1250 C   0  0  0  0  0  0  0  0  0  0  0  0
    3.5880   67.5000   64.6980 C   0  0  0  0  0  0  0  0  0  0  0  0
    2.3000   68.1800   64.2890 N   0  0  0  0  0  0  0  0  0  0  0  0
    2.1460   68.3610   62.8120 C   0  0  0  0  0  0  0  0  0  0  0  0
    3.3830   69.0810   62.2160 C   0  0  0  0  0  0  0  0  0  0  0  0
    1.2880   68.3530   65.1730 C   0  0  0  0  0  0  0  0  0  0  0  0
    0.0190   68.4310   64.7970 N   0  0  0  0  0  4  0  0  0  0  0  0
   -1.1130   68.3870   65.5860 C   0  0  0  0  0  0  0  0  0  0  0  0
   -2.2970   68.8280   64.9610 C   0  0  0  0  0  0  0  0  0  0  0  0
   -3.5440   68.7170   65.5810 C   0  0  0  0  0  0  0  0  0  0  0  0
   -3.6370   68.1350   66.8360 C   0  0  0  0  0  0  0  0  0  0  0  0
   -2.4860   67.6770   67.4740 C   0  0  0  0  0  0  0  0  0  0  0  0
   -1.2140   67.8100   66.8780 C   0  0  0  0  0  0  0  0  0  0  0  0
   -0.1020   67.3090   67.6150 N   0  0  0  0  0  0  0  0  0  0  0  0
    1.0350   68.0370   67.6320 C   0  0  0  0  0  0  0  0  0  0  0  0
    1.6680   68.6080   66.5610 C   0  0  0  0  0  0  0  0  0  0  0  0
    2.6940   69.5240   66.9660 C   0  0  0  0  0  0  0  0  0  0  0  0
    2.9020   69.4900   68.3290 C   0  0  0  0  0  0  0  0  0  0  0  0
    1.8430   68.3850   69.0950 S   0  0  0  0  0  0  0  0  0  0  0  0
    3.8780   70.2660   69.1510 C   0  0  0  0  0  0  0  0  0  0  0  0
    6.5245   69.4729   62.8381 H   0  0  0  0  0  0  0  0  0  0  0  0
    6.4627   68.3942   61.4031 H   0  0  0  0  0  0  0  0  0  0  0  0
    5.5511   69.9419   61.4031 H   0  0  0  0  0  0  0  0  0  0  0  0
    4.6601   67.4422   62.2046 H   0  0  0  0  0  0  0  0  0  0  0  0
    5.7215   67.6685   64.3582 H   0  0  0  0  0  0  0  0  0  0  0  0
    4.8644   69.2412   64.5775 H   0  0  0  0  0  0  0  0  0  0  0  0
    3.5842   66.4666   64.3211 H   0  0  0  0  0  0  0  0  0  0  0  0
    3.6557   67.5106   65.7959 H   0  0  0  0  0  0  0  0  0  0  0  0
    2.0384   67.3749   62.3367 H   0  0  0  0  0  0  0  0  0  0  0  0
    1.2537   68.9756   62.6222 H   0  0  0  0  0  0  0  0  0  0  0  0
    3.2979   69.0854   61.1193 H   0  0  0  0  0  0  0  0  0  0  0  0
    3.4069   70.1055   62.6157 H   0  0  0  0  0  0  0  0  0  0  0  0
   -0.1432   68.5383   63.7855 H   0  0  0  0  0  0  0  0  0  0  0  0
   -2.2374   69.2722   63.9564 H   0  0  0  0  0  0  0  0  0  0  0  0
   -4.4475   69.0895   65.0761 H   0  0  0  0  0  0  0  0  0  0  0  0
   -4.6165   68.0351   67.3265 H   0  0  0  0  0  0  0  0  0  0  0  0
   -2.5708   67.2020   68.4625 H   0  0  0  0  0  0  0  0  0  0  0  0
   -0.1640   66.4144   68.1218 H   0  0  0  0  0  0  0  0  0  0  0  0
    3.2480   70.1749   66.2736 H   0  0  0  0  0  0  0  0  0  0  0  0
    3.6708   70.1013   70.2187 H   0  0  0  0  0  0  0  0  0  0  0  0
    4.9000   69.9311   68.9199 H   0  0  0  0  0  0  0  0  0  0  0  0
    3.7821   71.3372   68.9199 H   0  0  0  0  0  0  0  0  0  0  0  0
  2  1  1  0
  3  2  1  0
  4  3  1  0
  5  4  1  0
  6  5  1  0
  7  6  1  0
  7  2  1  0
  8  5  1  0
  9  8  2  0
 10  9  1  0
 11 10  2  0
 12 11  1  0
 13 12  2  0
 14 13  1  0
 15 14  2  0
 15 10  1  0
 16 15  1  0
 17 16  1  0
 18  8  1  0
 18 17  2  0
 19 18  1  0
 20 19  2  0
 21 20  1  0
 21 17  1  0
 22 20  1  0
  1 23  1  0
  1 24  1  0
  1 25  1  0
  2 26  1  0
  3 27  1  0
  3 28  1  0
  4 29  1  0
  4 30  1  0
  6 31  1  0
  6 32  1  0
  7 33  1  0
  7 34  1  0
  9 35  1  0
 11 36  1  0
 12 37  1  0
 13 38  1  0
 14 39  1  0
 16 40  1  0
 19 41  1  0
 22 42  1  0
 22 43  1  0
 22 44  1  0
M  CHG  2   2   1   9   1
M  END
>  <score>  (1) 
-7.605

$$$$
=
     RDKit          3D

 44 47  0  0  0  0  0  0  0  0999 V2000
   -1.1290   63.0880   78.1330 C   0  0  0  0  0  0  0  0  0  0  0  0
    0.0460   62.9030   77.1980 N   0  0  0  0  0  4  0  0  0  0  0  0
    0.3310   61.4210   76.9470 C   0  0  0  0  0  0  0  0  0  0  0  0
    1.5420   61.2530   76.0100 C   0  0  0  0  0  0  0  0  0  0  0  0
    1.3460   62.0290   74.7260 N   0  0  0  0  0  0  0  0  0  0  0  0
    1.0490   63.4820   74.9280 C   0  0  0  0  0  0  0  0  0  0  0  0
   -0.1510   63.6670   75.8920 C   0  0  0  0  0  0  0  0  0  0  0  0
    1.6790   61.4940   73.5270 C   0  0  0  0  0  0  0  0  0  0  0  0
    2.0340   62.2380   72.4880 N   0  0  0  0  0  4  0  0  0  0  0  0
    2.5990   61.8320   71.2960 C   0  0  0  0  0  0  0  0  0  0  0  0
    2.5570   62.7840   70.2570 C   0  0  0  0  0  0  0  0  0  0  0  0
    3.2040   62.5740   69.0380 C   0  0  0  0  0  0  0  0  0  0  0  0
    3.9340   61.4120   68.8380 C   0  0  0  0  0  0  0  0  0  0  0  0
    4.0050   60.4580   69.8510 C   0  0  0  0  0  0  0  0  0  0  0  0
    3.3310   60.6370   71.0780 C   0  0  0  0  0  0  0  0  0  0  0  0
    3.4690   59.6010   72.0460 N   0  0  0  0  0  0  0  0  0  0  0  0
    2.3780   59.2320   72.7500 C   0  0  0  0  0  0  0  0  0  0  0  0
    1.4790   60.0540   73.3750 C   0  0  0  0  0  0  0  0  0  0  0  0
    0.3070   59.3490   73.7990 C   0  0  0  0  0  0  0  0  0  0  0  0
    0.4340   57.9870   73.6190 C   0  0  0  0  0  0  0  0  0  0  0  0
    1.9430   57.5900   72.9160 S   0  0  0  0  0  0  0  0  0  0  0  0
   -0.5400   56.9010   73.9400 C   0  0  0  0  0  0  0  0  0  0  0  0
   -0.7806   63.0332   79.1749 H   0  0  0  0  0  0  0  0  0  0  0  0
   -1.5906   64.0699   77.9519 H   0  0  0  0  0  0  0  0  0  0  0  0
   -1.8700   62.2955   77.9519 H   0  0  0  0  0  0  0  0  0  0  0  0
    0.8752   63.3014   77.6613 H   0  0  0  0  0  0  0  0  0  0  0  0
    0.5446   60.9264   77.9061 H   0  0  0  0  0  0  0  0  0  0  0  0
   -0.5507   60.9657   76.4722 H   0  0  0  0  0  0  0  0  0  0  0  0
    2.4446   61.6220   76.5191 H   0  0  0  0  0  0  0  0  0  0  0  0
    1.6480   60.1865   75.7622 H   0  0  0  0  0  0  0  0  0  0  0  0
    1.9345   63.9757   75.3548 H   0  0  0  0  0  0  0  0  0  0  0  0
    0.7941   63.9294   73.9560 H   0  0  0  0  0  0  0  0  0  0  0  0
   -0.2628   64.7374   76.1194 H   0  0  0  0  0  0  0  0  0  0  0  0
   -1.0501   63.2709   75.3974 H   0  0  0  0  0  0  0  0  0  0  0  0
    1.8663   63.2498   72.5830 H   0  0  0  0  0  0  0  0  0  0  0  0
    1.9984   63.7190   70.4113 H   0  0  0  0  0  0  0  0  0  0  0  0
    3.1351   63.3272   68.2393 H   0  0  0  0  0  0  0  0  0  0  0  0
    4.4547   61.2442   67.8837 H   0  0  0  0  0  0  0  0  0  0  0  0
    4.5989   59.5460   69.6910 H   0  0  0  0  0  0  0  0  0  0  0  0
    4.3787   59.1448   72.2048 H   0  0  0  0  0  0  0  0  0  0  0  0
   -0.5867   59.8347   74.2177 H   0  0  0  0  0  0  0  0  0  0  0  0
   -0.6303   56.8003   75.0317 H   0  0  0  0  0  0  0  0  0  0  0  0
   -1.5221   57.1511   73.5124 H   0  0  0  0  0  0  0  0  0  0  0  0
   -0.1849   55.9518   73.5124 H   0  0  0  0  0  0  0  0  0  0  0  0
  2  1  1  0
  3  2  1  0
  4  3  1  0
  5  4  1  0
  6  5  1  0
  7  6  1  0
  7  2  1  0
  8  5  1  0
  9  8  2  0
 10  9  1  0
 11 10  2  0
 12 11  1  0
 13 12  2  0
 14 13  1  0
 15 14  2  0
 15 10  1  0
 16 15  1  0
 17 16  1  0
 18  8  1  0
 18 17  2  0
 19 18  1  0
 20 19  2  0
 21 20  1  0
 21 17  1  0
 22 20  1  0
  1 23  1  0
  1 24  1  0
  1 25  1  0
  2 26  1  0
  3 27  1  0
  3 28  1  0
  4 29  1  0
  4 30  1  0
  6 31  1  0
  6 32  1  0
  7 33  1  0
  7 34  1  0
  9 35  1  0
 11 36  1  0
 12 37  1  0
 13 38  1  0
 14 39  1  0
 16 40  1  0
 19 41  1  0
 22 42  1  0
 22 43  1  0
 22 44  1  0
M  CHG  2   2   1   9   1
M  END
>  <score>  (2) 
-7.517

$$$$
=
     RDKit          3D

 44 47  0  0  0  0  0  0  0  0999 V2000
    3.4350   61.9290   69.0960 C   0  0  0  0  0  0  0  0  0  0  0  0
    3.5840   61.0760   70.3360 N   0  0  0  0  0  4  0  0  0  0  0  0
    2.6110   61.5120   71.4330 C   0  0  0  0  0  0  0  0  0  0  0  0
    2.7920   60.6450   72.6930 C   0  0  0  0  0  0  0  0  0  0  0  0
    2.6670   59.1740   72.3630 N   0  0  0  0  0  0  0  0  0  0  0  0
    3.5920   58.7100   71.2820 C   0  0  0  0  0  0  0  0  0  0  0  0
    3.4410   59.5910   70.0160 C   0  0  0  0  0  0  0  0  0  0  0  0
    1.9730   58.3320   73.1660 C   0  0  0  0  0  0  0  0  0  0  0  0
    2.2510   57.0380   73.2510 N   0  0  0  0  0  4  0  0  0  0  0  0
    1.7830   56.1200   74.1700 C   0  0  0  0  0  0  0  0  0  0  0  0
    1.9750   54.7680   73.8180 C   0  0  0  0  0  0  0  0  0  0  0  0
    1.6800   53.7270   74.7010 C   0  0  0  0  0  0  0  0  0  0  0  0
    1.2090   54.0180   75.9720 C   0  0  0  0  0  0  0  0  0  0  0  0
    1.0210   55.3440   76.3540 C   0  0  0  0  0  0  0  0  0  0  0  0
    1.2830   56.4090   75.4650 C   0  0  0  0  0  0  0  0  0  0  0  0
    1.0570   57.7280   75.9550 N   0  0  0  0  0  0  0  0  0  0  0  0
    0.4720   58.6250   75.1330 C   0  0  0  0  0  0  0  0  0  0  0  0
    0.7930   58.8830   73.8280 C   0  0  0  0  0  0  0  0  0  0  0  0
   -0.1930   59.6980   73.1810 C   0  0  0  0  0  0  0  0  0  0  0  0
   -1.1430   60.1560   74.0700 C   0  0  0  0  0  0  0  0  0  0  0  0
   -0.8490   59.5730   75.6520 S   0  0  0  0  0  0  0  0  0  0  0  0
   -2.3220   61.0370   73.8160 C   0  0  0  0  0  0  0  0  0  0  0  0
    3.2526   62.9734   69.3892 H   0  0  0  0  0  0  0  0  0  0  0  0
    4.3568   61.8715   68.4985 H   0  0  0  0  0  0  0  0  0  0  0  0
    2.5873   61.5625   68.4985 H   0  0  0  0  0  0  0  0  0  0  0  0
    4.5383   61.2192   70.6961 H   0  0  0  0  0  0  0  0  0  0  0  0
    2.8017   62.5649   71.6880 H   0  0  0  0  0  0  0  0  0  0  0  0
    1.5820   61.3907   71.0635 H   0  0  0  0  0  0  0  0  0  0  0  0
    3.7881   60.8343   73.1196 H   0  0  0  0  0  0  0  0  0  0  0  0
    2.0059   60.9095   73.4156 H   0  0  0  0  0  0  0  0  0  0  0  0
    4.6292   58.7717   71.6432 H   0  0  0  0  0  0  0  0  0  0  0  0
    3.3394   57.6714   71.0222 H   0  0  0  0  0  0  0  0  0  0  0  0
    4.2176   59.3071   69.2905 H   0  0  0  0  0  0  0  0  0  0  0  0
    2.4344   59.4264   69.6041 H   0  0  0  0  0  0  0  0  0  0  0  0
    2.8994   56.6706   72.5400 H   0  0  0  0  0  0  0  0  0  0  0  0
    2.3683   54.5265   72.8195 H   0  0  0  0  0  0  0  0  0  0  0  0
    1.8207   52.6814   74.3896 H   0  0  0  0  0  0  0  0  0  0  0  0
    0.9844   53.2038   76.6768 H   0  0  0  0  0  0  0  0  0  0  0  0
    0.6609   55.5661   77.3694 H   0  0  0  0  0  0  0  0  0  0  0  0
    1.3330   57.9903   76.9120 H   0  0  0  0  0  0  0  0  0  0  0  0
   -0.1921   59.9300   72.1058 H   0  0  0  0  0  0  0  0  0  0  0  0
   -2.7527   61.3589   74.7756 H   0  0  0  0  0  0  0  0  0  0  0  0
   -2.0032   61.9200   73.2427 H   0  0  0  0  0  0  0  0  0  0  0  0
   -3.0784   60.4810   73.2427 H   0  0  0  0  0  0  0  0  0  0  0  0
  2  1  1  0
  3  2  1  0
  4  3  1  0
  5  4  1  0
  6  5  1  0
  7  6  1  0
  7  2  1  0
  8  5  1  0
  9  8  2  0
 10  9  1  0
 11 10  2  0
 12 11  1  0
 13 12  2  0
 14 13  1  0
 15 14  2  0
 15 10  1  0
 16 15  1  0
 17 16  1  0
 18  8  1  0
 18 17  2  0
 19 18  1  0
 20 19  2  0
 21 20  1  0
 21 17  1  0
 22 20  1  0
  1 23  1  0
  1 24  1  0
  1 25  1  0
  2 26  1  0
  3 27  1  0
  3 28  1  0
  4 29  1  0
  4 30  1  0
  6 31  1  0
  6 32  1  0
  7 33  1  0
  7 34  1  0
  9 35  1  0
 11 36  1  0
 12 37  1  0
 13 38  1  0
 14 39  1  0
 16 40  1  0
 19 41  1  0
 22 42  1  0
 22 43  1  0
 22 44  1  0
M  CHG  2   2   1   9   1
M  END
>  <score>  (3) 
-7.339

$$$$
=
     RDKit          3D

 44 47  0  0  0  0  0  0  0  0999 V2000
   -1.8450   57.0290   76.3370 C   0  0  0  0  0  0  0  0  0  0  0  0
   -1.0860   58.2960   76.0120 N   0  0  0  0  0  4  0  0  0  0  0  0
    0.2880   57.9860   75.4130 C   0  0  0  0  0  0  0  0  0  0  0  0
    1.0530   59.2870   75.1090 C   0  0  0  0  0  0  0  0  0  0  0  0
    0.2340   60.2050   74.2290 N   0  0  0  0  0  0  0  0  0  0  0  0
   -1.1240   60.5220   74.7720 C   0  0  0  0  0  0  0  0  0  0  0  0
   -1.8960   59.2210   75.1090 C   0  0  0  0  0  0  0  0  0  0  0  0
    0.7990   60.8720   73.1940 C   0  0  0  0  0  0  0  0  0  0  0  0
    0.3270   62.0280   72.7480 N   0  0  0  0  0  4  0  0  0  0  0  0
    0.9160   62.9120   71.8660 C   0  0  0  0  0  0  0  0  0  0  0  0
    0.0490   63.8790   71.3170 C   0  0  0  0  0  0  0  0  0  0  0  0
    0.5200   64.9220   70.5170 C   0  0  0  0  0  0  0  0  0  0  0  0
    1.8790   65.0360   70.2670 C   0  0  0  0  0  0  0  0  0  0  0  0
    2.7620   64.1030   70.8060 C   0  0  0  0  0  0  0  0  0  0  0  0
    2.3030   63.0240   71.5900 C   0  0  0  0  0  0  0  0  0  0  0  0
    3.2890   62.1260   72.0920 N   0  0  0  0  0  0  0  0  0  0  0  0
    3.0220   60.8030   72.0690 C   0  0  0  0  0  0  0  0  0  0  0  0
    1.8720   60.1840   72.4800 C   0  0  0  0  0  0  0  0  0  0  0  0
    1.8240   58.8110   72.0730 C   0  0  0  0  0  0  0  0  0  0  0  0
    3.0130   58.4020   71.5050 C   0  0  0  0  0  0  0  0  0  0  0  0
    4.1480   59.6820   71.4450 S   0  0  0  0  0  0  0  0  0  0  0  0
    3.3870   57.0600   70.9660 C   0  0  0  0  0  0  0  0  0  0  0  0
   -1.9145   56.9130   77.4287 H   0  0  0  0  0  0  0  0  0  0  0  0
   -2.8568   57.0878   75.9094 H   0  0  0  0  0  0  0  0  0  0  0  0
   -1.3158   56.1646   75.9094 H   0  0  0  0  0  0  0  0  0  0  0  0
   -0.9300   58.7967   76.8985 H   0  0  0  0  0  0  0  0  0  0  0  0
    0.8673   57.3850   76.1294 H   0  0  0  0  0  0  0  0  0  0  0  0
    0.1482   57.4294   74.4746 H   0  0  0  0  0  0  0  0  0  0  0  0
    1.2775   59.8016   76.0549 H   0  0  0  0  0  0  0  0  0  0  0  0
    1.9824   59.0311   74.5791 H   0  0  0  0  0  0  0  0  0  0  0  0
   -1.0160   61.1249   75.6857 H   0  0  0  0  0  0  0  0  0  0  0  0
   -1.6879   61.0810   74.0107 H   0  0  0  0  0  0  0  0  0  0  0  0
   -2.8331   59.4860   75.6205 H   0  0  0  0  0  0  0  0  0  0  0  0
   -2.0948   58.6891   74.1669 H   0  0  0  0  0  0  0  0  0  0  0  0
   -0.5991   62.3021   73.1059 H   0  0  0  0  0  0  0  0  0  0  0  0
   -1.0290   63.8098   71.5248 H   0  0  0  0  0  0  0  0  0  0  0  0
   -0.1839   65.6498   70.0871 H   0  0  0  0  0  0  0  0  0  0  0  0
    2.2586   65.8602   69.6453 H   0  0  0  0  0  0  0  0  0  0  0  0
    3.8402   64.2100   70.6161 H   0  0  0  0  0  0  0  0  0  0  0  0
    4.1831   62.4777   72.4632 H   0  0  0  0  0  0  0  0  0  0  0  0
    0.9452   58.1614   72.1983 H   0  0  0  0  0  0  0  0  0  0  0  0
    3.5793   56.3701   71.8009 H   0  0  0  0  0  0  0  0  0  0  0  0
    2.5634   56.6697   70.3501 H   0  0  0  0  0  0  0  0  0  0  0  0
    4.2937   57.1519   70.3501 H   0  0  0  0  0  0  0  0  0  0  0  0
  2  1  1  0
  3  2  1  0
  4  3  1  0
  5  4  1  0
  6  5  1  0
  7  6  1  0
  7  2  1  0
  8  5  1  0
  9  8  2  0
 10  9  1  0
 11 10  2  0
 12 11  1  0
 13 12  2  0
 14 13  1  0
 15 14  2  0
 15 10  1  0
 16 15  1  0
 17 16  1  0
 18  8  1  0
 18 17  2  0
 19 18  1  0
 20 19  2  0
 21 20  1  0
 21 17  1  0
 22 20  1  0
  1 23  1  0
  1 24  1  0
  1 25  1  0
  2 26  1  0
  3 27  1  0
  3 28  1  0
  4 29  1  0
  4 30  1  0
  6 31  1  0
  6 32  1  0
  7 33  1  0
  7 34  1  0
  9 35  1  0
 11 36  1  0
 12 37  1  0
 13 38  1  0
 14 39  1  0
 16 40  1  0
 19 41  1  0
 22 42  1  0
 22 43  1  0
 22 44  1  0
M  CHG  2   2   1   9   1
M  END
>  <score>  (4) 
-7.005

$$$$
=
     RDKit          3D

 44 47  0  0  0  0  0  0  0  0999 V2000
    0.0020   64.9340   74.8170 C   0  0  0  0  0  0  0  0  0  0  0  0
   -0.2310   63.4690   74.5230 N   0  0  0  0  0  4  0  0  0  0  0  0
    0.5680   63.0120   73.3010 C   0  0  0  0  0  0  0  0  0  0  0  0
    0.3010   61.5240   73.0050 C   0  0  0  0  0  0  0  0  0  0  0  0
    0.5730   60.6710   74.2240 N   0  0  0  0  0  0  0  0  0  0  0  0
   -0.1780   61.0950   75.4470 C   0  0  0  0  0  0  0  0  0  0  0  0
    0.0590   62.5980   75.7420 C   0  0  0  0  0  0  0  0  0  0  0  0
    1.2260   59.4890   74.1200 C   0  0  0  0  0  0  0  0  0  0  0  0
    1.0370   58.4930   74.9750 N   0  0  0  0  0  4  0  0  0  0  0  0
    1.4580   57.1820   74.8710 C   0  0  0  0  0  0  0  0  0  0  0  0
    1.4100   56.4390   76.0680 C   0  0  0  0  0  0  0  0  0  0  0  0
    1.6730   55.0680   76.0970 C   0  0  0  0  0  0  0  0  0  0  0  0
    1.9660   54.4000   74.9170 C   0  0  0  0  0  0  0  0  0  0  0  0
    2.0070   55.1040   73.7160 C   0  0  0  0  0  0  0  0  0  0  0  0
    1.7760   56.4960   73.6710 C   0  0  0  0  0  0  0  0  0  0  0  0
    1.8430   57.1190   72.3910 N   0  0  0  0  0  0  0  0  0  0  0  0
    2.4540   58.3190   72.2940 C   0  0  0  0  0  0  0  0  0  0  0  0
    2.2740   59.4070   73.1050 C   0  0  0  0  0  0  0  0  0  0  0  0
    3.2670   60.4160   72.8820 C   0  0  0  0  0  0  0  0  0  0  0  0
    4.0670   60.1180   71.7990 C   0  0  0  0  0  0  0  0  0  0  0  0
    3.6290   58.6210   71.0940 S   0  0  0  0  0  0  0  0  0  0  0  0
    5.2000   60.9010   71.2210 C   0  0  0  0  0  0  0  0  0  0  0  0
    0.0268   65.0901   75.9056 H   0  0  0  0  0  0  0  0  0  0  0  0
    0.9613   65.2477   74.3796 H   0  0  0  0  0  0  0  0  0  0  0  0
   -0.8127   65.5298   74.3796 H   0  0  0  0  0  0  0  0  0  0  0  0
   -1.2298   63.3546   74.2988 H   0  0  0  0  0  0  0  0  0  0  0  0
    0.2708   63.6132   72.4291 H   0  0  0  0  0  0  0  0  0  0  0  0
    1.6401   63.1460   73.5075 H   0  0  0  0  0  0  0  0  0  0  0  0
   -0.7504   61.3997   72.7065 H   0  0  0  0  0  0  0  0  0  0  0  0
    0.9724   61.2020   72.1954 H   0  0  0  0  0  0  0  0  0  0  0  0
   -1.2529   60.9233   75.2883 H   0  0  0  0  0  0  0  0  0  0  0  0
    0.1803   60.5057   76.3040 H   0  0  0  0  0  0  0  0  0  0  0  0
   -0.6014   62.9074   76.5655 H   0  0  0  0  0  0  0  0  0  0  0  0
    1.1172   62.7301   76.0118 H   0  0  0  0  0  0  0  0  0  0  0  0
    0.5077   58.7277   75.8268 H   0  0  0  0  0  0  0  0  0  0  0  0
    1.1580   56.9543   77.0066 H   0  0  0  0  0  0  0  0  0  0  0  0
    1.6480   54.5204   77.0507 H   0  0  0  0  0  0  0  0  0  0  0  0
    2.1652   53.3183   74.9299 H   0  0  0  0  0  0  0  0  0  0  0  0
    2.2240   54.5639   72.7826 H   0  0  0  0  0  0  0  0  0  0  0  0
    1.4356   56.6653   71.5609 H   0  0  0  0  0  0  0  0  0  0  0  0
    3.3777   61.3192   73.5001 H   0  0  0  0  0  0  0  0  0  0  0  0
    5.8083   61.3214   72.0354 H   0  0  0  0  0  0  0  0  0  0  0  0
    5.8237   60.2403   70.6010 H   0  0  0  0  0  0  0  0  0  0  0  0
    4.8024   61.7180   70.6010 H   0  0  0  0  0  0  0  0  0  0  0  0
  2  1  1  0
  3  2  1  0
  4  3  1  0
  5  4  1  0
  6  5  1  0
  7  6  1  0
  7  2  1  0
  8  5  1  0
  9  8  2  0
 10  9  1  0
 11 10  2  0
 12 11  1  0
 13 12  2  0
 14 13  1  0
 15 14  2  0
 15 10  1  0
 16 15  1  0
 17 16  1  0
 18  8  1  0
 18 17  2  0
 19 18  1  0
 20 19  2  0
 21 20  1  0
 21 17  1  0
 22 20  1  0
  1 23  1  0
  1 24  1  0
  1 25  1  0
  2 26  1  0
  3 27  1  0
  3 28  1  0
  4 29  1  0
  4 30  1  0
  6 31  1  0
  6 32  1  0
  7 33  1  0
  7 34  1  0
  9 35  1  0
 11 36  1  0
 12 37  1  0
 13 38  1  0
 14 39  1  0
 16 40  1  0
 19 41  1  0
 22 42  1  0
 22 43  1  0
 22 44  1  0
M  CHG  2   2   1   9   1
M  END
>  <score>  (5) 
-6.826

$$$$
=
     RDKit          3D

 44 47  0  0  0  0  0  0  0  0999 V2000
   -2.5900   60.2670   78.6700 C   0  0  0  0  0  0  0  0  0  0  0  0
   -1.5480   61.0570   77.9100 N   0  0  0  0  0  4  0  0  0  0  0  0
   -0.4920   60.1380   77.2930 C   0  0  0  0  0  0  0  0  0  0  0  0
    0.5700   60.9620   76.5410 C   0  0  0  0  0  0  0  0  0  0  0  0
   -0.0730   61.8710   75.5170 N   0  0  0  0  0  0  0  0  0  0  0  0
   -1.1240   62.7760   76.0770 C   0  0  0  0  0  0  0  0  0  0  0  0
   -2.1860   61.9630   76.8610 C   0  0  0  0  0  0  0  0  0  0  0  0
    0.4580   62.0180   74.2790 C   0  0  0  0  0  0  0  0  0  0  0  0
    0.2990   63.1220   73.5620 N   0  0  0  0  0  4  0  0  0  0  0  0
    0.9500   63.4920   72.4030 C   0  0  0  0  0  0  0  0  0  0  0  0
    0.3440   64.5430   71.6840 C   0  0  0  0  0  0  0  0  0  0  0  0
    0.9530   65.1190   70.5670 C   0  0  0  0  0  0  0  0  0  0  0  0
    2.2010   64.6730   70.1580 C   0  0  0  0  0  0  0  0  0  0  0  0
    2.8300   63.6450   70.8560 C   0  0  0  0  0  0  0  0  0  0  0  0
    2.2170   63.0280   71.9670 C   0  0  0  0  0  0  0  0  0  0  0  0
    2.9470   61.9860   72.6090 N   0  0  0  0  0  0  0  0  0  0  0  0
    2.2750   60.8840   73.0050 C   0  0  0  0  0  0  0  0  0  0  0  0
    1.0940   60.8390   73.6950 C   0  0  0  0  0  0  0  0  0  0  0  0
    0.5330   59.5200   73.7200 C   0  0  0  0  0  0  0  0  0  0  0  0
    1.3940   58.5870   73.1800 C   0  0  0  0  0  0  0  0  0  0  0  0
    2.8400   59.3180   72.6290 S   0  0  0  0  0  0  0  0  0  0  0  0
    1.2080   57.1130   73.0280 C   0  0  0  0  0  0  0  0  0  0  0  0
   -2.4273   60.3903   79.7509 H   0  0  0  0  0  0  0  0  0  0  0  0
   -3.5929   60.6338   78.4059 H   0  0  0  0  0  0  0  0  0  0  0  0
   -2.5076   59.2023   78.4059 H   0  0  0  0  0  0  0  0  0  0  0  0
   -1.0680   61.6665   78.5875 H   0  0  0  0  0  0  0  0  0  0  0  0
   -0.0032   59.5612   78.0920 H   0  0  0  0  0  0  0  0  0  0  0  0
   -0.9844   59.4594   76.5810 H   0  0  0  0  0  0  0  0  0  0  0  0
    1.1289   61.5739   77.2643 H   0  0  0  0  0  0  0  0  0  0  0  0
    1.2457   60.2688   76.0186 H   0  0  0  0  0  0  0  0  0  0  0  0
   -0.6516   63.5017   76.7554 H   0  0  0  0  0  0  0  0  0  0  0  0
   -1.6208   63.2979   75.2459 H   0  0  0  0  0  0  0  0  0  0  0  0
   -2.8698   62.6628   77.3638 H   0  0  0  0  0  0  0  0  0  0  0  0
   -2.7263   61.3271   76.1442 H   0  0  0  0  0  0  0  0  0  0  0  0
   -0.4009   63.7897   73.9159 H   0  0  0  0  0  0  0  0  0  0  0  0
   -0.6360   64.9197   72.0122 H   0  0  0  0  0  0  0  0  0  0  0  0
    0.4451   65.9229   70.0140 H   0  0  0  0  0  0  0  0  0  0  0  0
    2.6920   65.1294   69.2859 H   0  0  0  0  0  0  0  0  0  0  0  0
    3.8261   63.3068   70.5343 H   0  0  0  0  0  0  0  0  0  0  0  0
    3.9612   62.0714   72.7669 H   0  0  0  0  0  0  0  0  0  0  0  0
   -0.4630   59.2808   74.1210 H   0  0  0  0  0  0  0  0  0  0  0  0
    1.1491   56.6464   74.0224 H   0  0  0  0  0  0  0  0  0  0  0  0
    0.2779   56.9159   72.4748 H   0  0  0  0  0  0  0  0  0  0  0  0
    2.0600   56.6910   72.4748 H   0  0  0  0  0  0  0  0  0  0  0  0
  2  1  1  0
  3  2  1  0
  4  3  1  0
  5  4  1  0
  6  5  1  0
  7  6  1  0
  7  2  1  0
  8  5  1  0
  9  8  2  0
 10  9  1  0
 11 10  2  0
 12 11  1  0
 13 12  2  0
 14 13  1  0
 15 14  2  0
 15 10  1  0
 16 15  1  0
 17 16  1  0
 18  8  1  0
 18 17  2  0
 19 18  1  0
 20 19  2  0
 21 20  1  0
 21 17  1  0
 22 20  1  0
  1 23  1  0
  1 24  1  0
  1 25  1  0
  2 26  1  0
  3 27  1  0
  3 28  1  0
  4 29  1  0
  4 30  1  0
  6 31  1  0
  6 32  1  0
  7 33  1  0
  7 34  1  0
  9 35  1  0
 11 36  1  0
 12 37  1  0
 13 38  1  0
 14 39  1  0
 16 40  1  0
 19 41  1  0
 22 42  1  0
 22 43  1  0
 22 44  1  0
M  CHG  2   2   1   9   1
M  END
>  <score>  (6) 
-6.779

$$$$
=
     RDKit          3D

 44 47  0  0  0  0  0  0  0  0999 V2000
    3.7550   62.8610   68.4840 C   0  0  0  0  0  0  0  0  0  0  0  0
    4.0330   61.8650   69.5880 N   0  0  0  0  0  4  0  0  0  0  0  0
    3.6970   62.4480   70.9620 C   0  0  0  0  0  0  0  0  0  0  0  0
    4.0050   61.4270   72.0740 C   0  0  0  0  0  0  0  0  0  0  0  0
    3.3000   60.1150   71.8160 N   0  0  0  0  0  0  0  0  0  0  0  0
    3.5890   59.5170   70.4750 C   0  0  0  0  0  0  0  0  0  0  0  0
    3.3100   60.5430   69.3470 C   0  0  0  0  0  0  0  0  0  0  0  0
    2.6890   59.4390   72.8190 C   0  0  0  0  0  0  0  0  0  0  0  0
    2.5380   58.1210   72.8020 N   0  0  0  0  0  4  0  0  0  0  0  0
    2.1420   57.2910   73.8310 C   0  0  0  0  0  0  0  0  0  0  0  0
    1.7460   55.9960   73.4390 C   0  0  0  0  0  0  0  0  0  0  0  0
    1.4490   55.0010   74.3720 C   0  0  0  0  0  0  0  0  0  0  0  0
    1.5670   55.2720   75.7260 C   0  0  0  0  0  0  0  0  0  0  0  0
    1.9680   56.5390   76.1450 C   0  0  0  0  0  0  0  0  0  0  0  0
    2.2420   57.5670   75.2190 C   0  0  0  0  0  0  0  0  0  0  0  0
    2.6440   58.8250   75.7530 N   0  0  0  0  0  0  0  0  0  0  0  0
    2.1410   59.9480   75.1960 C   0  0  0  0  0  0  0  0  0  0  0  0
    2.0590   60.2450   73.8630 C   0  0  0  0  0  0  0  0  0  0  0  0
    1.2370   61.3920   73.6150 C   0  0  0  0  0  0  0  0  0  0  0  0
    0.8570   62.0130   74.7870 C   0  0  0  0  0  0  0  0  0  0  0  0
    1.4690   61.1890   76.1560 S   0  0  0  0  0  0  0  0  0  0  0  0
    0.0210   63.2370   74.9750 C   0  0  0  0  0  0  0  0  0  0  0  0
    3.4841   63.8315   68.9254 H   0  0  0  0  0  0  0  0  0  0  0  0
    4.6544   62.9794   67.8619 H   0  0  0  0  0  0  0  0  0  0  0  0
    2.9243   62.4964   67.8619 H   0  0  0  0  0  0  0  0  0  0  0  0
    5.0434   61.6655   69.5761 H   0  0  0  0  0  0  0  0  0  0  0  0
    4.2979   63.3545   71.1269 H   0  0  0  0  0  0  0  0  0  0  0  0
    2.6248   62.6919   70.9913 H   0  0  0  0  0  0  0  0  0  0  0  0
    5.0902   61.2511   72.1101 H   0  0  0  0  0  0  0  0  0  0  0  0
    3.6482   61.8339   73.0317 H   0  0  0  0  0  0  0  0  0  0  0  0
    4.6457   59.2142   70.4346 H   0  0  0  0  0  0  0  0  0  0  0  0
    2.9363   58.6437   70.3287 H   0  0  0  0  0  0  0  0  0  0  0  0
    3.6507   60.1208   68.3901 H   0  0  0  0  0  0  0  0  0  0  0  0
    2.2287   60.7443   69.3294 H   0  0  0  0  0  0  0  0  0  0  0  0
    2.7427   57.6575   71.9052 H   0  0  0  0  0  0  0  0  0  0  0  0
    1.6688   55.7628   72.3668 H   0  0  0  0  0  0  0  0  0  0  0  0
    1.1228   54.0063   74.0340 H   0  0  0  0  0  0  0  0  0  0  0  0
    1.3450   54.4900   76.4670 H   0  0  0  0  0  0  0  0  0  0  0  0
    2.0731   56.7418   77.2210 H   0  0  0  0  0  0  0  0  0  0  0  0
    3.3017   58.8769   76.5440 H   0  0  0  0  0  0  0  0  0  0  0  0
    0.9444   61.7358   72.6119 H   0  0  0  0  0  0  0  0  0  0  0  0
   -0.1106   63.4296   76.0500 H   0  0  0  0  0  0  0  0  0  0  0  0
    0.5207   64.0978   74.5067 H   0  0  0  0  0  0  0  0  0  0  0  0
   -0.9626   63.0847   74.5067 H   0  0  0  0  0  0  0  0  0  0  0  0
  2  1  1  0
  3  2  1  0
  4  3  1  0
  5  4  1  0
  6  5  1  0
  7  6  1  0
  7  2  1  0
  8  5  1  0
  9  8  2  0
 10  9  1  0
 11 10  2  0
 12 11  1  0
 13 12  2  0
 14 13  1  0
 15 14  2  0
 15 10  1  0
 16 15  1  0
 17 16  1  0
 18  8  1  0
 18 17  2  0
 19 18  1  0
 20 19  2  0
 21 20  1  0
 21 17  1  0
 22 20  1  0
  1 23  1  0
  1 24  1  0
  1 25  1  0
  2 26  1  0
  3 27  1  0
  3 28  1  0
  4 29  1  0
  4 30  1  0
  6 31  1  0
  6 32  1  0
  7 33  1  0
  7 34  1  0
  9 35  1  0
 11 36  1  0
 12 37  1  0
 13 38  1  0
 14 39  1  0
 16 40  1  0
 19 41  1  0
 22 42  1  0
 22 43  1  0
 22 44  1  0
M  CHG  2   2   1   9   1
M  END
>  <score>  (7) 
-6.584

$$$$
=
     RDKit          3D

 44 47  0  0  0  0  0  0  0  0999 V2000
    3.4810   62.4590   68.6990 C   0  0  0  0  0  0  0  0  0  0  0  0
    3.8140   62.2400   70.1580 N   0  0  0  0  0  4  0  0  0  0  0  0
    2.6140   62.5470   71.0560 C   0  0  0  0  0  0  0  0  0  0  0  0
    2.9780   62.3380   72.5380 C   0  0  0  0  0  0  0  0  0  0  0  0
    3.5320   60.9500   72.7700 N   0  0  0  0  0  0  0  0  0  0  0  0
    4.6980   60.6030   71.9000 C   0  0  0  0  0  0  0  0  0  0  0  0
    4.3550   60.8350   70.4060 C   0  0  0  0  0  0  0  0  0  0  0  0
    3.1610   60.2190   73.8490 C   0  0  0  0  0  0  0  0  0  0  0  0
    3.9460   59.2960   74.3890 N   0  0  0  0  0  4  0  0  0  0  0  0
    3.7950   58.6420   75.5950 C   0  0  0  0  0  0  0  0  0  0  0  0
    4.5840   57.4850   75.7530 C   0  0  0  0  0  0  0  0  0  0  0  0
    4.6450   56.7920   76.9640 C   0  0  0  0  0  0  0  0  0  0  0  0
    3.9330   57.2600   78.0580 C   0  0  0  0  0  0  0  0  0  0  0  0
    3.1550   58.4080   77.9380 C   0  0  0  0  0  0  0  0  0  0  0  0
    3.0550   59.1030   76.7140 C   0  0  0  0  0  0  0  0  0  0  0  0
    2.2310   60.2660   76.6980 N   0  0  0  0  0  0  0  0  0  0  0  0
    1.4340   60.4720   75.6280 C   0  0  0  0  0  0  0  0  0  0  0  0
    1.7830   60.3820   74.3070 C   0  0  0  0  0  0  0  0  0  0  0  0
    0.6390   60.4030   73.4440 C   0  0  0  0  0  0  0  0  0  0  0  0
   -0.5230   60.6670   74.1400 C   0  0  0  0  0  0  0  0  0  0  0  0
   -0.2190   60.8540   75.8130 S   0  0  0  0  0  0  0  0  0  0  0  0
   -1.9200   60.7910   73.6250 C   0  0  0  0  0  0  0  0  0  0  0  0
    2.5644   63.0618   68.6186 H   0  0  0  0  0  0  0  0  0  0  0  0
    4.3117   62.9876   68.2086 H   0  0  0  0  0  0  0  0  0  0  0  0
    3.3247   61.4868   68.2086 H   0  0  0  0  0  0  0  0  0  0  0  0
    4.5626   62.9026   70.4058 H   0  0  0  0  0  0  0  0  0  0  0  0
    2.3062   63.5920   70.9033 H   0  0  0  0  0  0  0  0  0  0  0  0
    1.7913   61.8656   70.7935 H   0  0  0  0  0  0  0  0  0  0  0  0
    3.7347   63.0808   72.8307 H   0  0  0  0  0  0  0  0  0  0  0  0
    2.0668   62.4570   73.1426 H   0  0  0  0  0  0  0  0  0  0  0  0
    5.5552   61.2347   72.1760 H   0  0  0  0  0  0  0  0  0  0  0  0
    4.9442   59.5408   72.0456 H   0  0  0  0  0  0  0  0  0  0  0  0
    5.2660   60.6936   69.8059 H   0  0  0  0  0  0  0  0  0  0  0  0
    3.5754   60.1139   70.1192 H   0  0  0  0  0  0  0  0  0  0  0  0
    4.7751   59.0336   73.8371 H   0  0  0  0  0  0  0  0  0  0  0  0
    5.1690   57.1169   74.8973 H   0  0  0  0  0  0  0  0  0  0  0  0
    5.2543   55.8802   77.0495 H   0  0  0  0  0  0  0  0  0  0  0  0
    3.9829   56.7255   79.0181 H   0  0  0  0  0  0  0  0  0  0  0  0
    2.6067   58.7812   78.8156 H   0  0  0  0  0  0  0  0  0  0  0  0
    2.2433   60.9325   77.4832 H   0  0  0  0  0  0  0  0  0  0  0  0
    0.6820   60.2297   72.3586 H   0  0  0  0  0  0  0  0  0  0  0  0
   -2.6189   60.8530   74.4721 H   0  0  0  0  0  0  0  0  0  0  0  0
   -2.0054   61.7003   73.0118 H   0  0  0  0  0  0  0  0  0  0  0  0
   -2.1642   59.9110   73.0118 H   0  0  0  0  0  0  0  0  0  0  0  0
  2  1  1  0
  3  2  1  0
  4  3  1  0
  5  4  1  0
  6  5  1  0
  7  6  1  0
  7  2  1  0
  8  5  1  0
  9  8  2  0
 10  9  1  0
 11 10  2  0
 12 11  1  0
 13 12  2  0
 14 13  1  0
 15 14  2  0
 15 10  1  0
 16 15  1  0
 17 16  1  0
 18  8  1  0
 18 17  2  0
 19 18  1  0
 20 19  2  0
 21 20  1  0
 21 17  1  0
 22 20  1  0
  1 23  1  0
  1 24  1  0
  1 25  1  0
  2 26  1  0
  3 27  1  0
  3 28  1  0
  4 29  1  0
  4 30  1  0
  6 31  1  0
  6 32  1  0
  7 33  1  0
  7 34  1  0
  9 35  1  0
 11 36  1  0
 12 37  1  0
 13 38  1  0
 14 39  1  0
 16 40  1  0
 19 41  1  0
 22 42  1  0
 22 43  1  0
 22 44  1  0
M  CHG  2   2   1   9   1
M  END
>  <score>  (8) 
-6.551

$$$$
=
     RDKit          3D

 44 47  0  0  0  0  0  0  0  0999 V2000
   -4.2800   59.5510   75.7740 C   0  0  0  0  0  0  0  0  0  0  0  0
   -3.0320   60.3560   75.4870 N   0  0  0  0  0  4  0  0  0  0  0  0
   -1.7720   59.6060   75.9230 C   0  0  0  0  0  0  0  0  0  0  0  0
   -0.5150   60.4490   75.6410 C   0  0  0  0  0  0  0  0  0  0  0  0
   -0.4600   60.8750   74.1910 N   0  0  0  0  0  0  0  0  0  0  0  0
   -1.6820   61.6000   73.7200 C   0  0  0  0  0  0  0  0  0  0  0  0
   -2.9590   60.7750   74.0220 C   0  0  0  0  0  0  0  0  0  0  0  0
    0.6990   60.8310   73.4910 C   0  0  0  0  0  0  0  0  0  0  0  0
    0.9460   61.6380   72.4680 N   0  0  0  0  0  4  0  0  0  0  0  0
    2.1420   61.8520   71.8140 C   0  0  0  0  0  0  0  0  0  0  0  0
    2.0360   62.4980   70.5660 C   0  0  0  0  0  0  0  0  0  0  0  0
    3.1630   62.9050   69.8480 C   0  0  0  0  0  0  0  0  0  0  0  0
    4.4270   62.6960   70.3780 C   0  0  0  0  0  0  0  0  0  0  0  0
    4.5640   62.0720   71.6160 C   0  0  0  0  0  0  0  0  0  0  0  0
    3.4390   61.6250   72.3420 C   0  0  0  0  0  0  0  0  0  0  0  0
    3.6900   60.9980   73.5960 N   0  0  0  0  0  0  0  0  0  0  0  0
    2.9710   59.9020   73.9200 C   0  0  0  0  0  0  0  0  0  0  0  0
    1.6160   59.7400   73.8130 C   0  0  0  0  0  0  0  0  0  0  0  0
    1.2210   58.3740   73.9920 C   0  0  0  0  0  0  0  0  0  0  0  0
    2.2790   57.5810   74.3830 C   0  0  0  0  0  0  0  0  0  0  0  0
    3.7270   58.4850   74.4980 S   0  0  0  0  0  0  0  0  0  0  0  0
    2.2970   56.1190   74.6880 C   0  0  0  0  0  0  0  0  0  0  0  0
   -4.4172   59.4625   76.8618 H   0  0  0  0  0  0  0  0  0  0  0  0
   -5.1521   60.0573   75.3344 H   0  0  0  0  0  0  0  0  0  0  0  0
   -4.1784   58.5478   75.3344 H   0  0  0  0  0  0  0  0  0  0  0  0
   -3.0856   61.2187   76.0472 H   0  0  0  0  0  0  0  0  0  0  0  0
   -1.8316   59.3951   77.0010 H   0  0  0  0  0  0  0  0  0  0  0  0
   -1.7039   58.6666   75.3548 H   0  0  0  0  0  0  0  0  0  0  0  0
   -0.5329   61.3453   76.2785 H   0  0  0  0  0  0  0  0  0  0  0  0
    0.3726   59.8372   75.8596 H   0  0  0  0  0  0  0  0  0  0  0  0
   -1.7480   62.5694   74.2357 H   0  0  0  0  0  0  0  0  0  0  0  0
   -1.6070   61.7504   72.6329 H   0  0  0  0  0  0  0  0  0  0  0  0
   -3.8419   61.3857   73.7823 H   0  0  0  0  0  0  0  0  0  0  0  0
   -2.9291   59.8631   73.4076 H   0  0  0  0  0  0  0  0  0  0  0  0
    0.1405   62.1747   72.1160 H   0  0  0  0  0  0  0  0  0  0  0  0
    1.0374   62.6871   70.1453 H   0  0  0  0  0  0  0  0  0  0  0  0
    3.0482   63.3890   68.8669 H   0  0  0  0  0  0  0  0  0  0  0  0
    5.3189   63.0219   69.8227 H   0  0  0  0  0  0  0  0  0  0  0  0
    5.5697   61.9246   72.0365 H   0  0  0  0  0  0  0  0  0  0  0  0
    4.4022   61.3713   74.2396 H   0  0  0  0  0  0  0  0  0  0  0  0
    0.1972   58.0030   73.8362 H   0  0  0  0  0  0  0  0  0  0  0  0
    2.2988   55.9719   75.7781 H   0  0  0  0  0  0  0  0  0  0  0  0
    1.4046   55.6431   74.2553 H   0  0  0  0  0  0  0  0  0  0  0  0
    3.2008   55.6653   74.2553 H   0  0  0  0  0  0  0  0  0  0  0  0
  2  1  1  0
  3  2  1  0
  4  3  1  0
  5  4  1  0
  6  5  1  0
  7  6  1  0
  7  2  1  0
  8  5  1  0
  9  8  2  0
 10  9  1  0
 11 10  2  0
 12 11  1  0
 13 12  2  0
 14 13  1  0
 15 14  2  0
 15 10  1  0
 16 15  1  0
 17 16  1  0
 18  8  1  0
 18 17  2  0
 19 18  1  0
 20 19  2  0
 21 20  1  0
 21 17  1  0
 22 20  1  0
  1 23  1  0
  1 24  1  0
  1 25  1  0
  2 26  1  0
  3 27  1  0
  3 28  1  0
  4 29  1  0
  4 30  1  0
  6 31  1  0
  6 32  1  0
  7 33  1  0
  7 34  1  0
  9 35  1  0
 11 36  1  0
 12 37  1  0
 13 38  1  0
 14 39  1  0
 16 40  1  0
 19 41  1  0
 22 42  1  0
 22 43  1  0
 22 44  1  0
M  CHG  2   2   1   9   1
M  END
>  <score>  (9) 
-6.491

$$$$
