=
     RDKit          3D

 52 55  0  0  0  0  0  0  0  0999 V2000
    2.8170   67.5480   63.5100 C   0  0  2  0  0  0  0  0  0  0  0  0
    3.5060   68.5870   62.5850 C   0  0  0  0  0  0  0  0  0  0  0  0
    4.8870   68.8880   63.1660 N   0  0  1  0  0  4  0  0  0  0  0  0
    5.7610   69.5830   62.1730 C   0  0  0  0  0  0  0  0  0  0  0  0
    4.7550   69.6000   64.5190 C   0  0  1  0  0  0  0  0  0  0  0  0
    3.5650   69.0540   65.3580 C   0  0  0  0  0  0  0  0  0  0  0  0
    2.7060   68.1230   64.8970 C   0  0  0  0  0  0  0  0  0  0  0  0
    3.4640   69.5740   66.7400 C   0  0  0  0  0  0  0  0  0  0  0  0
    2.3380   69.6640   67.5620 C   0  0  0  0  0  0  0  0  0  0  0  0
    2.4470   70.1860   68.8590 C   0  0  0  0  0  0  0  0  0  0  0  0
    3.6730   70.6330   69.3790 C   0  0  0  0  0  0  0  0  0  0  0  0
    4.7870   70.5360   68.5430 C   0  0  0  0  0  0  0  0  0  0  0  0
    4.6870   70.0240   67.2620 C   0  0  0  0  0  0  0  0  0  0  0  0
    5.9660   70.0540   66.6610 C   0  0  0  0  0  0  0  0  0  0  0  0
    6.1330   69.5570   65.2700 C   0  0  0  0  0  0  0  0  0  0  0  0
    6.8370   70.5810   67.5850 C   0  0  0  0  0  0  0  0  0  0  0  0
    6.1120   70.8700   68.7250 N   0  0  0  0  0  0  0  0  0  0  0  0
    3.9900   64.2440   64.6550 N   0  0  0  0  0  0  0  0  0  0  0  0
    3.1430   65.3220   64.4970 C   0  0  0  0  0  0  0  0  0  0  0  0
    2.0170   65.3800   64.9830 O   0  0  0  0  0  0  0  0  0  0  0  0
    3.6020   66.3240   63.6820 N   0  0  0  0  0  0  0  0  0  0  0  0
    5.4430   62.7260   63.3500 C   0  0  0  0  0  0  0  0  0  0  0  0
    5.3090   64.0790   64.0300 C   0  0  0  0  0  0  0  0  0  0  0  0
    3.5310   63.1320   65.4940 C   0  0  0  0  0  0  0  0  0  0  0  0
    3.8930   63.3480   66.9550 C   0  0  0  0  0  0  0  0  0  0  0  0
    1.8505   67.3184   63.0377 H   0  0  0  0  0  0  0  0  0  0  0  0
    3.6089   68.1744   61.5705 H   0  0  0  0  0  0  0  0  0  0  0  0
    2.9054   69.5067   62.5266 H   0  0  0  0  0  0  0  0  0  0  0  0
    5.3762   68.0033   63.3630 H   0  0  0  0  0  0  0  0  0  0  0  0
    6.5149   70.1825   62.7043 H   0  0  0  0  0  0  0  0  0  0  0  0
    6.2648   68.8361   61.5418 H   0  0  0  0  0  0  0  0  0  0  0  0
    5.1467   70.2420   61.5418 H   0  0  0  0  0  0  0  0  0  0  0  0
    4.5058   70.6577   64.3480 H   0  0  0  0  0  0  0  0  0  0  0  0
    1.8978   67.7720   65.5555 H   0  0  0  0  0  0  0  0  0  0  0  0
    1.3605   69.3235   67.1898 H   0  0  0  0  0  0  0  0  0  0  0  0
    1.5463   70.2472   69.4874 H   0  0  0  0  0  0  0  0  0  0  0  0
    3.7517   71.0406   70.3977 H   0  0  0  0  0  0  0  0  0  0  0  0
    6.5030   68.5214   65.2945 H   0  0  0  0  0  0  0  0  0  0  0  0
    6.8544   70.1968   64.7406 H   0  0  0  0  0  0  0  0  0  0  0  0
    7.9156   70.7432   67.4425 H   0  0  0  0  0  0  0  0  0  0  0  0
    6.5047   71.2762   69.5862 H   0  0  0  0  0  0  0  0  0  0  0  0
    4.5003   66.2158   63.1899 H   0  0  0  0  0  0  0  0  0  0  0  0
    5.5210   61.9380   64.1135 H   0  0  0  0  0  0  0  0  0  0  0  0
    4.5587   62.5420   62.7222 H   0  0  0  0  0  0  0  0  0  0  0  0
    6.3462   62.7190   62.7222 H   0  0  0  0  0  0  0  0  0  0  0  0
    6.0844   64.1668   64.8052 H   0  0  0  0  0  0  0  0  0  0  0  0
    5.4265   64.8607   63.2650 H   0  0  0  0  0  0  0  0  0  0  0  0
    2.4379   63.0456   65.4059 H   0  0  0  0  0  0  0  0  0  0  0  0
    4.0263   62.2126   65.1486 H   0  0  0  0  0  0  0  0  0  0  0  0
    3.1246   62.8895   67.5948 H   0  0  0  0  0  0  0  0  0  0  0  0
    4.8683   62.8841   67.1635 H   0  0  0  0  0  0  0  0  0  0  0  0
    3.9479   64.4267   67.1635 H   0  0  0  0  0  0  0  0  0  0  0  0
  2  1  1  0
  3  2  1  0
  4  3  1  0
  5  3  1  0
  6  5  1  0
  7  6  2  0
  7  1  1  0
  8  6  1  0
  9  8  2  0
 10  9  1  0
 11 10  2  0
 12 11  1  0
 13 12  2  0
 13  8  1  0
 14 13  1  0
 15  5  1  0
 15 14  1  0
 16 14  2  0
 17 12  1  0
 17 16  1  0
 19 18  1  0
 20 19  2  0
 21 19  1  0
 21  1  1  0
 23 22  1  0
 23 18  1  0
 24 18  1  0
 25 24  1  0
  1 26  1  6
  2 27  1  0
  2 28  1  0
  3 29  1  1
  4 30  1  0
  4 31  1  0
  4 32  1  0
  5 33  1  6
  7 34  1  0
  9 35  1  0
 10 36  1  0
 11 37  1  0
 15 38  1  0
 15 39  1  0
 16 40  1  0
 17 41  1  0
 21 42  1  0
 22 43  1  0
 22 44  1  0
 22 45  1  0
 23 46  1  0
 23 47  1  0
 24 48  1  0
 24 49  1  0
 25 50  1  0
 25 51  1  0
 25 52  1  0
M  CHG  1   3   1
M  END
>  <score>  (1) 
-9.674

$$$$
=
     RDKit          3D

 52 55  0  0  0  0  0  0  0  0999 V2000
    0.7530   67.4280   68.9680 C   0  0  2  0  0  0  0  0  0  0  0  0
    0.0240   67.5900   67.6070 C   0  0  0  0  0  0  0  0  0  0  0  0
    1.0480   67.3590   66.4970 N   0  0  1  0  0  4  0  0  0  0  0  0
    0.3850   67.1310   65.1760 C   0  0  0  0  0  0  0  0  0  0  0  0
    2.1060   68.4700   66.5040 C   0  0  1  0  0  0  0  0  0  0  0  0
    2.4800   68.9170   67.9460 C   0  0  0  0  0  0  0  0  0  0  0  0
    1.8710   68.4330   69.0470 C   0  0  0  0  0  0  0  0  0  0  0  0
    3.6070   69.8710   68.0490 C   0  0  0  0  0  0  0  0  0  0  0  0
    3.8890   70.7870   69.0650 C   0  0  0  0  0  0  0  0  0  0  0  0
    5.0220   71.6090   68.9830 C   0  0  0  0  0  0  0  0  0  0  0  0
    5.9080   71.5490   67.8940 C   0  0  0  0  0  0  0  0  0  0  0  0
    5.6080   70.6290   66.8880 C   0  0  0  0  0  0  0  0  0  0  0  0
    4.4920   69.8150   66.9600 C   0  0  0  0  0  0  0  0  0  0  0  0
    4.4500   68.9990   65.8070 C   0  0  0  0  0  0  0  0  0  0  0  0
    3.3380   68.0270   65.6370 C   0  0  0  0  0  0  0  0  0  0  0  0
    5.5460   69.3200   65.0420 C   0  0  0  0  0  0  0  0  0  0  0  0
    6.2440   70.3090   65.7060 N   0  0  0  0  0  0  0  0  0  0  0  0
    2.0170   64.2510   70.3520 N   0  0  0  0  0  0  0  0  0  0  0  0
    1.2940   65.4250   70.2830 C   0  0  0  0  0  0  0  0  0  0  0  0
    0.5270   65.8060   71.1640 O   0  0  0  0  0  0  0  0  0  0  0  0
    1.4140   66.1300   69.1140 N   0  0  0  0  0  0  0  0  0  0  0  0
    4.1560   63.1080   69.8700 C   0  0  0  0  0  0  0  0  0  0  0  0
    2.8790   63.7030   69.2970 C   0  0  0  0  0  0  0  0  0  0  0  0
    1.8960   63.4460   71.5720 C   0  0  0  0  0  0  0  0  0  0  0  0
    0.8110   62.3890   71.4380 C   0  0  0  0  0  0  0  0  0  0  0  0
   -0.0201   67.5504   69.7409 H   0  0  0  0  0  0  0  0  0  0  0  0
   -0.7873   66.8514   67.5270 H   0  0  0  0  0  0  0  0  0  0  0  0
   -0.4127   68.5961   67.5229 H   0  0  0  0  0  0  0  0  0  0  0  0
    1.5607   66.4848   66.6810 H   0  0  0  0  0  0  0  0  0  0  0  0
   -0.6438   66.7772   65.3383 H   0  0  0  0  0  0  0  0  0  0  0  0
    0.3635   68.0734   64.6090 H   0  0  0  0  0  0  0  0  0  0  0  0
    0.9477   66.3747   64.6090 H   0  0  0  0  0  0  0  0  0  0  0  0
    1.6846   69.3732   66.0386 H   0  0  0  0  0  0  0  0  0  0  0  0
    2.2019   68.7840   70.0356 H   0  0  0  0  0  0  0  0  0  0  0  0
    3.2189   70.8639   69.9339 H   0  0  0  0  0  0  0  0  0  0  0  0
    5.2233   72.3224   69.7957 H   0  0  0  0  0  0  0  0  0  0  0  0
    6.7957   72.1962   67.8370 H   0  0  0  0  0  0  0  0  0  0  0  0
    3.6721   67.0300   65.9600 H   0  0  0  0  0  0  0  0  0  0  0  0
    3.0433   67.9944   64.5777 H   0  0  0  0  0  0  0  0  0  0  0  0
    5.8178   68.8703   64.0756 H   0  0  0  0  0  0  0  0  0  0  0  0
    7.1138   70.7450   65.3679 H   0  0  0  0  0  0  0  0  0  0  0  0
    1.9702   65.7460   68.3368 H   0  0  0  0  0  0  0  0  0  0  0  0
    4.1097   63.1296   70.9688 H   0  0  0  0  0  0  0  0  0  0  0  0
    4.2616   62.0679   69.5278 H   0  0  0  0  0  0  0  0  0  0  0  0
    5.0203   63.6962   69.5278 H   0  0  0  0  0  0  0  0  0  0  0  0
    3.1436   64.5096   68.5974 H   0  0  0  0  0  0  0  0  0  0  0  0
    2.3269   62.9024   68.7830 H   0  0  0  0  0  0  0  0  0  0  0  0
    2.8572   62.9485   71.7685 H   0  0  0  0  0  0  0  0  0  0  0  0
    1.6244   64.1156   72.4013 H   0  0  0  0  0  0  0  0  0  0  0  0
    0.4839   62.0704   72.4387 H   0  0  0  0  0  0  0  0  0  0  0  0
   -0.0446   62.8093   70.8892 H   0  0  0  0  0  0  0  0  0  0  0  0
    1.2088   61.5227   70.8892 H   0  0  0  0  0  0  0  0  0  0  0  0
  2  1  1  0
  3  2  1  0
  4  3  1  0
  5  3  1  0
  6  5  1  0
  7  6  2  0
  7  1  1  0
  8  6  1  0
  9  8  2  0
 10  9  1  0
 11 10  2  0
 12 11  1  0
 13 12  2  0
 13  8  1  0
 14 13  1  0
 15  5  1  0
 15 14  1  0
 16 14  2  0
 17 12  1  0
 17 16  1  0
 19 18  1  0
 20 19  2  0
 21 19  1  0
 21  1  1  0
 23 22  1  0
 23 18  1  0
 24 18  1  0
 25 24  1  0
  1 26  1  1
  2 27  1  0
  2 28  1  0
  3 29  1  1
  4 30  1  0
  4 31  1  0
  4 32  1  0
  5 33  1  6
  7 34  1  0
  9 35  1  0
 10 36  1  0
 11 37  1  0
 15 38  1  0
 15 39  1  0
 16 40  1  0
 17 41  1  0
 21 42  1  0
 22 43  1  0
 22 44  1  0
 22 45  1  0
 23 46  1  0
 23 47  1  0
 24 48  1  0
 24 49  1  0
 25 50  1  0
 25 51  1  0
 25 52  1  0
M  CHG  1   3   1
M  END
>  <score>  (2) 
-9.619

$$$$
=
     RDKit          3D

 52 55  0  0  0  0  0  0  0  0999 V2000
    0.8590   67.6020   69.3150 C   0  0  2  0  0  0  0  0  0  0  0  0
   -0.4050   67.7650   68.4290 C   0  0  0  0  0  0  0  0  0  0  0  0
   -0.1350   67.0690   67.0950 N   0  0  1  0  0  4  0  0  0  0  0  0
   -1.3960   66.8520   66.3240 C   0  0  0  0  0  0  0  0  0  0  0  0
    0.9750   67.7990   66.3260 C   0  0  1  0  0  0  0  0  0  0  0  0
    2.0940   68.3270   67.2670 C   0  0  0  0  0  0  0  0  0  0  0  0
    2.0360   68.2230   68.6100 C   0  0  0  0  0  0  0  0  0  0  0  0
    3.2790   68.9020   66.5920 C   0  0  0  0  0  0  0  0  0  0  0  0
    4.1980   69.8350   67.0800 C   0  0  0  0  0  0  0  0  0  0  0  0
    5.2720   70.2550   66.2820 C   0  0  0  0  0  0  0  0  0  0  0  0
    5.4670   69.7650   64.9800 C   0  0  0  0  0  0  0  0  0  0  0  0
    4.5380   68.8360   64.5090 C   0  0  0  0  0  0  0  0  0  0  0  0
    3.4750   68.4170   65.2890 C   0  0  0  0  0  0  0  0  0  0  0  0
    2.7110   67.4840   64.5520 C   0  0  0  0  0  0  0  0  0  0  0  0
    1.5010   66.8780   65.1680 C   0  0  0  0  0  0  0  0  0  0  0  0
    3.3180   67.3400   63.3270 C   0  0  0  0  0  0  0  0  0  0  0  0
    4.4270   68.1630   63.3100 N   0  0  0  0  0  0  0  0  0  0  0  0
    1.3280   64.2440   70.7680 N   0  0  0  0  0  0  0  0  0  0  0  0
    0.8490   65.5320   70.6390 C   0  0  0  0  0  0  0  0  0  0  0  0
    0.0600   66.0480   71.4250 O   0  0  0  0  0  0  0  0  0  0  0  0
    1.2460   66.2030   69.5110 N   0  0  0  0  0  0  0  0  0  0  0  0
    3.6140   63.3910   70.3610 C   0  0  0  0  0  0  0  0  0  0  0  0
    2.2020   63.5450   69.8170 C   0  0  0  0  0  0  0  0  0  0  0  0
    0.9060   63.4740   71.9430 C   0  0  0  0  0  0  0  0  0  0  0  0
   -0.3040   62.6060   71.6370 C   0  0  0  0  0  0  0  0  0  0  0  0
    0.6123   68.0687   70.2800 H   0  0  0  0  0  0  0  0  0  0  0  0
   -1.2711   67.3015   68.9241 H   0  0  0  0  0  0  0  0  0  0  0  0
   -0.6260   68.8305   68.2681 H   0  0  0  0  0  0  0  0  0  0  0  0
    0.2246   66.1197   67.2695 H   0  0  0  0  0  0  0  0  0  0  0  0
   -2.2330   66.7080   67.0231 H   0  0  0  0  0  0  0  0  0  0  0  0
   -1.5941   67.7293   65.6906 H   0  0  0  0  0  0  0  0  0  0  0  0
   -1.2894   65.9590   65.6906 H   0  0  0  0  0  0  0  0  0  0  0  0
    0.5586   68.7058   65.8630 H   0  0  0  0  0  0  0  0  0  0  0  0
    2.8755   68.6040   69.2101 H   0  0  0  0  0  0  0  0  0  0  0  0
    4.0783   70.2419   68.0950 H   0  0  0  0  0  0  0  0  0  0  0  0
    5.9828   70.9900   66.6876 H   0  0  0  0  0  0  0  0  0  0  0  0
    6.3127   70.0981   64.3604 H   0  0  0  0  0  0  0  0  0  0  0  0
    1.7554   65.8885   65.5755 H   0  0  0  0  0  0  0  0  0  0  0  0
    0.7176   66.7738   64.4028 H   0  0  0  0  0  0  0  0  0  0  0  0
    2.9813   66.6872   62.5082 H   0  0  0  0  0  0  0  0  0  0  0  0
    5.0770   68.2602   62.5169 H   0  0  0  0  0  0  0  0  0  0  0  0
    1.8169   65.7228   68.8008 H   0  0  0  0  0  0  0  0  0  0  0  0
    3.5856   63.3941   71.4606 H   0  0  0  0  0  0  0  0  0  0  0  0
    4.0414   62.4409   70.0079 H   0  0  0  0  0  0  0  0  0  0  0  0
    4.2361   64.2266   70.0079 H   0  0  0  0  0  0  0  0  0  0  0  0
    2.2415   64.1198   68.8799 H   0  0  0  0  0  0  0  0  0  0  0  0
    1.7886   62.5402   69.6453 H   0  0  0  0  0  0  0  0  0  0  0  0
    1.7367   62.8284   72.2641 H   0  0  0  0  0  0  0  0  0  0  0  0
    0.6297   64.1823   72.7380 H   0  0  0  0  0  0  0  0  0  0  0  0
   -0.7655   62.2750   72.5791 H   0  0  0  0  0  0  0  0  0  0  0  0
   -1.0345   63.1873   71.0553 H   0  0  0  0  0  0  0  0  0  0  0  0
    0.0125   61.7277   71.0553 H   0  0  0  0  0  0  0  0  0  0  0  0
  2  1  1  0
  3  2  1  0
  4  3  1  0
  5  3  1  0
  6  5  1  0
  7  6  2  0
  7  1  1  0
  8  6  1  0
  9  8  2  0
 10  9  1  0
 11 10  2  0
 12 11  1  0
 13 12  2  0
 13  8  1  0
 14 13  1  0
 15  5  1  0
 15 14  1  0
 16 14  2  0
 17 12  1  0
 17 16  1  0
 19 18  1  0
 20 19  2  0
 21 19  1  0
 21  1  1  0
 23 22  1  0
 23 18  1  0
 24 18  1  0
 25 24  1  0
  1 26  1  1
  2 27  1  0
  2 28  1  0
  3 29  1  1
  4 30  1  0
  4 31  1  0
  4 32  1  0
  5 33  1  6
  7 34  1  0
  9 35  1  0
 10 36  1  0
 11 37  1  0
 15 38  1  0
 15 39  1  0
 16 40  1  0
 17 41  1  0
 21 42  1  0
 22 43  1  0
 22 44  1  0
 22 45  1  0
 23 46  1  0
 23 47  1  0
 24 48  1  0
 24 49  1  0
 25 50  1  0
 25 51  1  0
 25 52  1  0
M  CHG  1   3   1
M  END
>  <score>  (3) 
-8.358

$$$$
=
     RDKit          3D

 52 55  0  0  0  0  0  0  0  0999 V2000
    3.2220   58.3270   74.5270 C   0  0  2  0  0  0  0  0  0  0  0  0
    3.0800   59.4450   75.5940 C   0  0  0  0  0  0  0  0  0  0  0  0
    1.8810   60.3100   75.2090 N   0  0  1  0  0  4  0  0  0  0  0  0
    1.4400   61.1760   76.3450 C   0  0  0  0  0  0  0  0  0  0  0  0
    2.1600   61.0580   73.8980 C   0  0  1  0  0  0  0  0  0  0  0  0
    2.9620   60.1930   72.8860 C   0  0  0  0  0  0  0  0  0  0  0  0
    3.4250   58.9600   73.1770 C   0  0  0  0  0  0  0  0  0  0  0  0
    3.1350   60.7790   71.5380 C   0  0  0  0  0  0  0  0  0  0  0  0
    4.1290   60.5200   70.5910 C   0  0  0  0  0  0  0  0  0  0  0  0
    4.1180   61.1800   69.3540 C   0  0  0  0  0  0  0  0  0  0  0  0
    3.1240   62.1140   69.0180 C   0  0  0  0  0  0  0  0  0  0  0  0
    2.1400   62.3610   69.9770 C   0  0  0  0  0  0  0  0  0  0  0  0
    2.1450   61.7150   71.2010 C   0  0  0  0  0  0  0  0  0  0  0  0
    1.0380   62.1670   71.9560 C   0  0  0  0  0  0  0  0  0  0  0  0
    0.8140   61.6260   73.3220 C   0  0  0  0  0  0  0  0  0  0  0  0
    0.3650   63.0820   71.1820 C   0  0  0  0  0  0  0  0  0  0  0  0
    1.0400   63.1930   69.9820 N   0  0  0  0  0  0  0  0  0  0  0  0
    0.8180   55.5290   74.5770 N   0  0  0  0  0  0  0  0  0  0  0  0
    1.9780   56.2300   74.8360 C   0  0  0  0  0  0  0  0  0  0  0  0
    2.9120   55.7820   75.4960 O   0  0  0  0  0  0  0  0  0  0  0  0
    2.0090   57.5210   74.3750 N   0  0  0  0  0  0  0  0  0  0  0  0
   -1.4640   56.4440   74.8390 C   0  0  0  0  0  0  0  0  0  0  0  0
   -0.3630   56.0400   73.8710 C   0  0  0  0  0  0  0  0  0  0  0  0
    0.7260   54.1530   75.0770 C   0  0  0  0  0  0  0  0  0  0  0  0
    0.1830   53.2080   74.0170 C   0  0  0  0  0  0  0  0  0  0  0  0
    4.0594   57.6970   74.8614 H   0  0  0  0  0  0  0  0  0  0  0  0
    2.9153   58.9973   76.5852 H   0  0  0  0  0  0  0  0  0  0  0  0
    3.9950   60.0541   75.6357 H   0  0  0  0  0  0  0  0  0  0  0  0
    1.0693   59.7052   75.0183 H   0  0  0  0  0  0  0  0  0  0  0  0
    1.6895   60.6861   77.2978 H   0  0  0  0  0  0  0  0  0  0  0  0
    1.9534   62.1471   76.2865 H   0  0  0  0  0  0  0  0  0  0  0  0
    0.3527   61.3320   76.2865 H   0  0  0  0  0  0  0  0  0  0  0  0
    2.8173   61.9156   74.1040 H   0  0  0  0  0  0  0  0  0  0  0  0
    3.9685   58.3991   72.4025 H   0  0  0  0  0  0  0  0  0  0  0  0
    4.9244   59.7945   70.8170 H   0  0  0  0  0  0  0  0  0  0  0  0
    4.9115   60.9598   68.6248 H   0  0  0  0  0  0  0  0  0  0  0  0
    3.1211   62.6268   68.0448 H   0  0  0  0  0  0  0  0  0  0  0  0
    0.0671   60.8197   73.2772 H   0  0  0  0  0  0  0  0  0  0  0  0
    0.4511   62.4323   73.9764 H   0  0  0  0  0  0  0  0  0  0  0  0
   -0.5467   63.6275   71.4668 H   0  0  0  0  0  0  0  0  0  0  0  0
    0.7622   63.8079   69.2038 H   0  0  0  0  0  0  0  0  0  0  0  0
    1.1773   57.9246   73.9208 H   0  0  0  0  0  0  0  0  0  0  0  0
   -1.1097   56.3140   75.8722 H   0  0  0  0  0  0  0  0  0  0  0  0
   -1.7300   57.4983   74.6725 H   0  0  0  0  0  0  0  0  0  0  0  0
   -2.3488   55.8119   74.6725 H   0  0  0  0  0  0  0  0  0  0  0  0
   -0.7462   55.2552   73.2023 H   0  0  0  0  0  0  0  0  0  0  0  0
   -0.0632   56.9313   73.3003 H   0  0  0  0  0  0  0  0  0  0  0  0
    1.7286   53.8145   75.3774 H   0  0  0  0  0  0  0  0  0  0  0  0
    0.0355   54.1433   75.9332 H   0  0  0  0  0  0  0  0  0  0  0  0
   -0.3082   52.3532   74.5048 H   0  0  0  0  0  0  0  0  0  0  0  0
   -0.5466   53.7410   73.3896 H   0  0  0  0  0  0  0  0  0  0  0  0
    1.0109   52.8461   73.3896 H   0  0  0  0  0  0  0  0  0  0  0  0
  2  1  1  0
  3  2  1  0
  4  3  1  0
  5  3  1  0
  6  5  1  0
  7  6  2  0
  7  1  1  0
  8  6  1  0
  9  8  2  0
 10  9  1  0
 11 10  2  0
 12 11  1  0
 13 12  2  0
 13  8  1  0
 14 13  1  0
 15  5  1  0
 15 14  1  0
 16 14  2  0
 17 12  1  0
 17 16  1  0
 19 18  1  0
 20 19  2  0
 21 19  1  0
 21  1  1  0
 23 22  1  0
 23 18  1  0
 24 18  1  0
 25 24  1  0
  1 26  1  1
  2 27  1  0
  2 28  1  0
  3 29  1  6
  4 30  1  0
  4 31  1  0
  4 32  1  0
  5 33  1  1
  7 34  1  0
  9 35  1  0
 10 36  1  0
 11 37  1  0
 15 38  1  0
 15 39  1  0
 16 40  1  0
 17 41  1  0
 21 42  1  0
 22 43  1  0
 22 44  1  0
 22 45  1  0
 23 46  1  0
 23 47  1  0
 24 48  1  0
 24 49  1  0
 25 50  1  0
 25 51  1  0
 25 52  1  0
M  CHG  1   3   1
M  END
>  <score>  (4) 
-8.253

$$$$
=
     RDKit          3D

 52 55  0  0  0  0  0  0  0  0999 V2000
    0.3300   63.4840   74.8650 C   0  0  2  0  0  0  0  0  0  0  0  0
    0.2690   64.8470   74.1240 C   0  0  0  0  0  0  0  0  0  0  0  0
    0.0880   64.5620   72.6340 N   0  0  1  0  0  4  0  0  0  0  0  0
   -0.3440   65.7840   71.8900 C   0  0  0  0  0  0  0  0  0  0  0  0
    1.3330   63.8680   72.0670 C   0  0  1  0  0  0  0  0  0  0  0  0
    1.9520   62.8550   73.0710 C   0  0  0  0  0  0  0  0  0  0  0  0
    1.4840   62.6830   74.3240 C   0  0  0  0  0  0  0  0  0  0  0  0
    3.0590   62.0260   72.5450 C   0  0  0  0  0  0  0  0  0  0  0  0
    4.0900   61.3950   73.2450 C   0  0  0  0  0  0  0  0  0  0  0  0
    5.0530   60.6390   72.5610 C   0  0  0  0  0  0  0  0  0  0  0  0
    5.0230   60.4860   71.1650 C   0  0  0  0  0  0  0  0  0  0  0  0
    3.9860   61.1250   70.4820 C   0  0  0  0  0  0  0  0  0  0  0  0
    3.0340   61.8740   71.1490 C   0  0  0  0  0  0  0  0  0  0  0  0
    2.1230   62.3960   70.2030 C   0  0  0  0  0  0  0  0  0  0  0  0
    0.9940   63.2460   70.6650 C   0  0  0  0  0  0  0  0  0  0  0  0
    2.5260   61.9560   68.9650 C   0  0  0  0  0  0  0  0  0  0  0  0
    3.6580   61.1850   69.1440 N   0  0  0  0  0  0  0  0  0  0  0  0
   -2.9090   61.7570   75.2370 N   0  0  0  0  0  0  0  0  0  0  0  0
   -1.8830   62.6380   75.5160 C   0  0  0  0  0  0  0  0  0  0  0  0
   -1.9000   63.4280   76.4560 O   0  0  0  0  0  0  0  0  0  0  0  0
   -0.8450   62.6450   74.6200 N   0  0  0  0  0  0  0  0  0  0  0  0
   -2.3260   59.5140   74.3750 C   0  0  0  0  0  0  0  0  0  0  0  0
   -2.9840   60.8530   74.0820 C   0  0  0  0  0  0  0  0  0  0  0  0
   -4.0560   61.7350   76.1500 C   0  0  0  0  0  0  0  0  0  0  0  0
   -5.2800   62.3870   75.5260 C   0  0  0  0  0  0  0  0  0  0  0  0
    0.4100   63.7261   75.9350 H   0  0  0  0  0  0  0  0  0  0  0  0
   -0.5801   65.4381   74.4976 H   0  0  0  0  0  0  0  0  0  0  0  0
    1.1927   65.4190   74.2959 H   0  0  0  0  0  0  0  0  0  0  0  0
   -0.6863   63.8954   72.5038 H   0  0  0  0  0  0  0  0  0  0  0  0
   -0.6221   66.5706   72.6069 H   0  0  0  0  0  0  0  0  0  0  0  0
    0.4828   66.1398   71.2577 H   0  0  0  0  0  0  0  0  0  0  0  0
   -1.2107   65.5411   71.2577 H   0  0  0  0  0  0  0  0  0  0  0  0
    2.1243   64.6163   71.9125 H   0  0  0  0  0  0  0  0  0  0  0  0
    1.9611   61.9329   74.9719 H   0  0  0  0  0  0  0  0  0  0  0  0
    4.1469   61.4916   74.3393 H   0  0  0  0  0  0  0  0  0  0  0  0
    5.8553   60.1516   73.1344 H   0  0  0  0  0  0  0  0  0  0  0  0
    5.7809   59.8907   70.6346 H   0  0  0  0  0  0  0  0  0  0  0  0
    0.0852   62.6318   70.7484 H   0  0  0  0  0  0  0  0  0  0  0  0
    0.8296   64.0561   69.9392 H   0  0  0  0  0  0  0  0  0  0  0  0
    2.0359   62.1776   68.0055 H   0  0  0  0  0  0  0  0  0  0  0  0
    4.1814   60.7219   68.3874 H   0  0  0  0  0  0  0  0  0  0  0  0
   -0.8918   62.0596   73.7738 H   0  0  0  0  0  0  0  0  0  0  0  0
   -2.2555   59.3705   75.4633 H   0  0  0  0  0  0  0  0  0  0  0  0
   -2.9293   58.7053   73.9368 H   0  0  0  0  0  0  0  0  0  0  0  0
   -1.3172   59.4975   73.9368 H   0  0  0  0  0  0  0  0  0  0  0  0
   -2.4737   61.3221   73.2279 H   0  0  0  0  0  0  0  0  0  0  0  0
   -4.0451   60.6724   73.8551 H   0  0  0  0  0  0  0  0  0  0  0  0
   -4.2952   60.6903   76.3978 H   0  0  0  0  0  0  0  0  0  0  0  0
   -3.7874   62.3013   77.0540 H   0  0  0  0  0  0  0  0  0  0  0  0
   -5.9507   62.7443   76.3213 H   0  0  0  0  0  0  0  0  0  0  0  0
   -4.9651   63.2369   74.9027 H   0  0  0  0  0  0  0  0  0  0  0  0
   -5.8096   61.6515   74.9027 H   0  0  0  0  0  0  0  0  0  0  0  0
  2  1  1  0
  3  2  1  0
  4  3  1  0
  5  3  1  0
  6  5  1  0
  7  6  2  0
  7  1  1  0
  8  6  1  0
  9  8  2  0
 10  9  1  0
 11 10  2  0
 12 11  1  0
 13 12  2  0
 13  8  1  0
 14 13  1  0
 15  5  1  0
 15 14  1  0
 16 14  2  0
 17 12  1  0
 17 16  1  0
 19 18  1  0
 20 19  2  0
 21 19  1  0
 21  1  1  0
 23 22  1  0
 23 18  1  0
 24 18  1  0
 25 24  1  0
  1 26  1  1
  2 27  1  0
  2 28  1  0
  3 29  1  1
  4 30  1  0
  4 31  1  0
  4 32  1  0
  5 33  1  6
  7 34  1  0
  9 35  1  0
 10 36  1  0
 11 37  1  0
 15 38  1  0
 15 39  1  0
 16 40  1  0
 17 41  1  0
 21 42  1  0
 22 43  1  0
 22 44  1  0
 22 45  1  0
 23 46  1  0
 23 47  1  0
 24 48  1  0
 24 49  1  0
 25 50  1  0
 25 51  1  0
 25 52  1  0
M  CHG  1   3   1
M  END
>  <score>  (5) 
-7.6

$$$$
=
     RDKit          3D

 52 55  0  0  0  0  0  0  0  0999 V2000
    4.2730   61.5900   72.4440 C   0  0  2  0  0  0  0  0  0  0  0  0
    4.6200   60.7160   71.2100 C   0  0  0  0  0  0  0  0  0  0  0  0
    3.4540   59.7570   70.9730 N   0  0  1  0  0  4  0  0  0  0  0  0
    3.5210   59.1360   69.6150 C   0  0  0  0  0  0  0  0  0  0  0  0
    3.3360   58.7600   72.1330 C   0  0  1  0  0  0  0  0  0  0  0  0
    3.6490   59.4160   73.5070 C   0  0  0  0  0  0  0  0  0  0  0  0
    4.0590   60.6940   73.6360 C   0  0  0  0  0  0  0  0  0  0  0  0
    3.4030   58.5670   74.6930 C   0  0  0  0  0  0  0  0  0  0  0  0
    3.9790   58.6490   75.9640 C   0  0  0  0  0  0  0  0  0  0  0  0
    3.6060   57.7460   76.9700 C   0  0  0  0  0  0  0  0  0  0  0  0
    2.6550   56.7360   76.7480 C   0  0  0  0  0  0  0  0  0  0  0  0
    2.0920   56.6680   75.4720 C   0  0  0  0  0  0  0  0  0  0  0  0
    2.4560   57.5540   74.4740 C   0  0  0  0  0  0  0  0  0  0  0  0
    1.7280   57.2410   73.3030 C   0  0  0  0  0  0  0  0  0  0  0  0
    1.9370   58.0490   72.0730 C   0  0  0  0  0  0  0  0  0  0  0  0
    0.9240   56.1670   73.6000 C   0  0  0  0  0  0  0  0  0  0  0  0
    1.1500   55.8260   74.9190 N   0  0  0  0  0  0  0  0  0  0  0  0
    1.6790   63.9670   71.3370 N   0  0  0  0  0  0  0  0  0  0  0  0
    2.8820   63.2910   71.3450 C   0  0  0  0  0  0  0  0  0  0  0  0
    3.7740   63.4770   70.5210 O   0  0  0  0  0  0  0  0  0  0  0  0
    3.0090   62.3130   72.2980 N   0  0  0  0  0  0  0  0  0  0  0  0
   -0.3530   62.6140   71.7280 C   0  0  0  0  0  0  0  0  0  0  0  0
    0.5460   63.7290   72.2390 C   0  0  0  0  0  0  0  0  0  0  0  0
    1.4850   65.0020   70.3150 C   0  0  0  0  0  0  0  0  0  0  0  0
    0.3540   65.9480   70.6870 C   0  0  0  0  0  0  0  0  0  0  0  0
    5.1072   62.2983   72.5548 H   0  0  0  0  0  0  0  0  0  0  0  0
    4.7635   61.3559   70.3268 H   0  0  0  0  0  0  0  0  0  0  0  0
    5.5492   60.1544   71.3864 H   0  0  0  0  0  0  0  0  0  0  0  0
    2.5704   60.2863   70.9697 H   0  0  0  0  0  0  0  0  0  0  0  0
    3.6385   58.0469   69.7152 H   0  0  0  0  0  0  0  0  0  0  0  0
    2.5939   59.3557   69.0652 H   0  0  0  0  0  0  0  0  0  0  0  0
    4.3799   59.5484   69.0652 H   0  0  0  0  0  0  0  0  0  0  0  0
    4.1056   57.9821   72.0204 H   0  0  0  0  0  0  0  0  0  0  0  0
    4.2431   61.0951   74.6436 H   0  0  0  0  0  0  0  0  0  0  0  0
    4.7285   59.4257   76.1761 H   0  0  0  0  0  0  0  0  0  0  0  0
    4.0720   57.8310   77.9628 H   0  0  0  0  0  0  0  0  0  0  0  0
    2.3673   56.0316   77.5424 H   0  0  0  0  0  0  0  0  0  0  0  0
    1.1448   58.8083   71.9962 H   0  0  0  0  0  0  0  0  0  0  0  0
    1.9039   57.3875   71.1947 H   0  0  0  0  0  0  0  0  0  0  0  0
    0.2261   55.6686   72.9112 H   0  0  0  0  0  0  0  0  0  0  0  0
    0.6830   55.0550   75.4173 H   0  0  0  0  0  0  0  0  0  0  0  0
    2.2135   62.0870   72.9120 H   0  0  0  0  0  0  0  0  0  0  0  0
   -0.7885   62.0739   72.5816 H   0  0  0  0  0  0  0  0  0  0  0  0
   -1.1596   63.0445   71.1164 H   0  0  0  0  0  0  0  0  0  0  0  0
    0.2388   61.9171   71.1164 H   0  0  0  0  0  0  0  0  0  0  0  0
   -0.0443   64.6535   72.3220 H   0  0  0  0  0  0  0  0  0  0  0  0
    0.9444   63.4273   73.2189 H   0  0  0  0  0  0  0  0  0  0  0  0
    2.4149   65.5803   70.2110 H   0  0  0  0  0  0  0  0  0  0  0  0
    1.2234   64.5071   69.3681 H   0  0  0  0  0  0  0  0  0  0  0  0
    0.2759   66.0133   71.7823 H   0  0  0  0  0  0  0  0  0  0  0  0
    0.5602   66.9464   70.2739 H   0  0  0  0  0  0  0  0  0  0  0  0
   -0.5922   65.5686   70.2739 H   0  0  0  0  0  0  0  0  0  0  0  0
  2  1  1  0
  3  2  1  0
  4  3  1  0
  5  3  1  0
  6  5  1  0
  7  6  2  0
  7  1  1  0
  8  6  1  0
  9  8  2  0
 10  9  1  0
 11 10  2  0
 12 11  1  0
 13 12  2  0
 13  8  1  0
 14 13  1  0
 15  5  1  0
 15 14  1  0
 16 14  2  0
 17 12  1  0
 17 16  1  0
 19 18  1  0
 20 19  2  0
 21 19  1  0
 21  1  1  0
 23 22  1  0
 23 18  1  0
 24 18  1  0
 25 24  1  0
  1 26  1  1
  2 27  1  0
  2 28  1  0
  3 29  1  6
  4 30  1  0
  4 31  1  0
  4 32  1  0
  5 33  1  6
  7 34  1  0
  9 35  1  0
 10 36  1  0
 11 37  1  0
 15 38  1  0
 15 39  1  0
 16 40  1  0
 17 41  1  0
 21 42  1  0
 22 43  1  0
 22 44  1  0
 22 45  1  0
 23 46  1  0
 23 47  1  0
 24 48  1  0
 24 49  1  0
 25 50  1  0
 25 51  1  0
 25 52  1  0
M  CHG  1   3   1
M  END
>  <score>  (6) 
-7.436

$$$$
=
     RDKit          3D

 52 55  0  0  0  0  0  0  0  0999 V2000
    0.6260   60.2170   75.5740 C   0  0  2  0  0  0  0  0  0  0  0  0
    1.2050   61.5330   76.1590 C   0  0  0  0  0  0  0  0  0  0  0  0
    0.9080   62.6570   75.1680 N   0  0  1  0  0  4  0  0  0  0  0  0
    1.0930   64.0030   75.7920 C   0  0  0  0  0  0  0  0  0  0  0  0
    1.6830   62.4380   73.8620 C   0  0  1  0  0  0  0  0  0  0  0  0
    1.7610   60.9370   73.4680 C   0  0  0  0  0  0  0  0  0  0  0  0
    1.2710   59.9470   74.2410 C   0  0  0  0  0  0  0  0  0  0  0  0
    2.3520   60.6530   72.1410 C   0  0  0  0  0  0  0  0  0  0  0  0
    2.9720   59.4840   71.6900 C   0  0  0  0  0  0  0  0  0  0  0  0
    3.4690   59.4060   70.3810 C   0  0  0  0  0  0  0  0  0  0  0  0
    3.3660   60.4800   69.4810 C   0  0  0  0  0  0  0  0  0  0  0  0
    2.7460   61.6390   69.9500 C   0  0  0  0  0  0  0  0  0  0  0  0
    2.2540   61.7250   71.2400 C   0  0  0  0  0  0  0  0  0  0  0  0
    1.6890   63.0070   71.4250 C   0  0  0  0  0  0  0  0  0  0  0  0
    1.0880   63.3600   72.7390 C   0  0  0  0  0  0  0  0  0  0  0  0
    1.8370   63.6910   70.2420 C   0  0  0  0  0  0  0  0  0  0  0  0
    2.4780   62.8530   69.3520 N   0  0  0  0  0  0  0  0  0  0  0  0
   -3.0170   59.6370   75.5820 N   0  0  0  0  0  0  0  0  0  0  0  0
   -1.7010   59.5450   75.9880 C   0  0  0  0  0  0  0  0  0  0  0  0
   -1.3320   58.8930   76.9610 O   0  0  0  0  0  0  0  0  0  0  0  0
   -0.8060   60.3020   75.2780 N   0  0  0  0  0  0  0  0  0  0  0  0
   -4.8450   61.1330   74.8500 C   0  0  0  0  0  0  0  0  0  0  0  0
   -3.5290   60.4660   74.4830 C   0  0  0  0  0  0  0  0  0  0  0  0
   -4.0170   58.8680   76.3310 C   0  0  0  0  0  0  0  0  0  0  0  0
   -4.3130   57.5350   75.6610 C   0  0  0  0  0  0  0  0  0  0  0  0
    0.8138   59.4423   76.3320 H   0  0  0  0  0  0  0  0  0  0  0  0
    0.7304   61.7526   77.1267 H   0  0  0  0  0  0  0  0  0  0  0  0
    2.2894   61.4379   76.3173 H   0  0  0  0  0  0  0  0  0  0  0  0
   -0.0883   62.6307   74.9079 H   0  0  0  0  0  0  0  0  0  0  0  0
    1.0794   63.9043   76.8875 H   0  0  0  0  0  0  0  0  0  0  0  0
    2.0576   64.4252   75.4738 H   0  0  0  0  0  0  0  0  0  0  0  0
    0.2781   64.6698   75.4738 H   0  0  0  0  0  0  0  0  0  0  0  0
    2.7318   62.7349   74.0100 H   0  0  0  0  0  0  0  0  0  0  0  0
    1.3450   58.9085   73.8861 H   0  0  0  0  0  0  0  0  0  0  0  0
    3.0705   58.6212   72.3652 H   0  0  0  0  0  0  0  0  0  0  0  0
    3.9540   58.4762   70.0489 H   0  0  0  0  0  0  0  0  0  0  0  0
    3.7558   60.4106   68.4547 H   0  0  0  0  0  0  0  0  0  0  0  0
   -0.0020   63.2200   72.6912 H   0  0  0  0  0  0  0  0  0  0  0  0
    1.3174   64.4102   72.9725 H   0  0  0  0  0  0  0  0  0  0  0  0
    1.5047   64.7201   70.0409 H   0  0  0  0  0  0  0  0  0  0  0  0
    2.7211   63.0986   68.3817 H   0  0  0  0  0  0  0  0  0  0  0  0
   -1.1409   60.9318   74.5350 H   0  0  0  0  0  0  0  0  0  0  0  0
   -4.9391   61.1807   75.9449 H   0  0  0  0  0  0  0  0  0  0  0  0
   -4.8680   62.1516   74.4353 H   0  0  0  0  0  0  0  0  0  0  0  0
   -5.6801   60.5493   74.4353 H   0  0  0  0  0  0  0  0  0  0  0  0
   -3.6856   59.8299   73.5993 H   0  0  0  0  0  0  0  0  0  0  0  0
   -2.7907   61.2543   74.2744 H   0  0  0  0  0  0  0  0  0  0  0  0
   -3.6369   58.6810   77.3462 H   0  0  0  0  0  0  0  0  0  0  0  0
   -4.9484   59.4523   76.3625 H   0  0  0  0  0  0  0  0  0  0  0  0
   -4.4834   56.7677   76.4305 H   0  0  0  0  0  0  0  0  0  0  0  0
   -5.2116   57.6313   75.0340 H   0  0  0  0  0  0  0  0  0  0  0  0
   -3.4581   57.2419   75.0340 H   0  0  0  0  0  0  0  0  0  0  0  0
  2  1  1  0
  3  2  1  0
  4  3  1  0
  5  3  1  0
  6  5  1  0
  7  6  2  0
  7  1  1  0
  8  6  1  0
  9  8  2  0
 10  9  1  0
 11 10  2  0
 12 11  1  0
 13 12  2  0
 13  8  1  0
 14 13  1  0
 15  5  1  0
 15 14  1  0
 16 14  2  0
 17 12  1  0
 17 16  1  0
 19 18  1  0
 20 19  2  0
 21 19  1  0
 21  1  1  0
 23 22  1  0
 23 18  1  0
 24 18  1  0
 25 24  1  0
  1 26  1  1
  2 27  1  0
  2 28  1  0
  3 29  1  6
  4 30  1  0
  4 31  1  0
  4 32  1  0
  5 33  1  1
  7 34  1  0
  9 35  1  0
 10 36  1  0
 11 37  1  0
 15 38  1  0
 15 39  1  0
 16 40  1  0
 17 41  1  0
 21 42  1  0
 22 43  1  0
 22 44  1  0
 22 45  1  0
 23 46  1  0
 23 47  1  0
 24 48  1  0
 24 49  1  0
 25 50  1  0
 25 51  1  0
 25 52  1  0
M  CHG  1   3   1
M  END
>  <score>  (7) 
-7.285

$$$$
=
     RDKit          3D

 52 55  0  0  0  0  0  0  0  0999 V2000
   -0.5770   62.5050   74.8640 C   0  0  2  0  0  0  0  0  0  0  0  0
   -1.4030   61.2650   74.4270 C   0  0  0  0  0  0  0  0  0  0  0  0
   -0.4210   60.1380   74.1080 N   0  0  1  0  0  4  0  0  0  0  0  0
   -1.1110   58.8140   74.0350 C   0  0  0  0  0  0  0  0  0  0  0  0
    0.4220   60.4950   72.8770 C   0  0  1  0  0  0  0  0  0  0  0  0
    0.7960   62.0040   72.8370 C   0  0  0  0  0  0  0  0  0  0  0  0
    0.3500   62.8960   73.7440 C   0  0  0  0  0  0  0  0  0  0  0  0
    1.7410   62.4010   71.7700 C   0  0  0  0  0  0  0  0  0  0  0  0
    1.9170   63.6550   71.1780 C   0  0  0  0  0  0  0  0  0  0  0  0
    2.8800   63.8360   70.1750 C   0  0  0  0  0  0  0  0  0  0  0  0
    3.6960   62.7830   69.7290 C   0  0  0  0  0  0  0  0  0  0  0  0
    3.5040   61.5370   70.3300 C   0  0  0  0  0  0  0  0  0  0  0  0
    2.5550   61.3500   71.3190 C   0  0  0  0  0  0  0  0  0  0  0  0
    2.5900   59.9980   71.7300 C   0  0  0  0  0  0  0  0  0  0  0  0
    1.6590   59.5310   72.7910 C   0  0  0  0  0  0  0  0  0  0  0  0
    3.5650   59.3730   70.9900 C   0  0  0  0  0  0  0  0  0  0  0  0
    4.1150   60.3150   70.1430 N   0  0  0  0  0  0  0  0  0  0  0  0
    1.1760   62.7250   78.1020 N   0  0  0  0  0  0  0  0  0  0  0  0
    0.2460   63.0110   77.1230 C   0  0  0  0  0  0  0  0  0  0  0  0
   -0.6400   63.8510   77.2500 O   0  0  0  0  0  0  0  0  0  0  0  0
    0.3110   62.2330   75.9960 N   0  0  0  0  0  0  0  0  0  0  0  0
    1.9500   60.5870   79.0760 C   0  0  0  0  0  0  0  0  0  0  0  0
    2.2010   61.6750   78.0430 C   0  0  0  0  0  0  0  0  0  0  0  0
    1.1260   63.5100   79.3400 C   0  0  0  0  0  0  0  0  0  0  0  0
    2.3140   64.4530   79.4510 C   0  0  0  0  0  0  0  0  0  0  0  0
   -1.3126   63.2774   75.1329 H   0  0  0  0  0  0  0  0  0  0  0  0
   -2.0745   60.9567   75.2418 H   0  0  0  0  0  0  0  0  0  0  0  0
   -2.0149   61.5027   73.5443 H   0  0  0  0  0  0  0  0  0  0  0  0
    0.2487   60.0362   74.8839 H   0  0  0  0  0  0  0  0  0  0  0  0
   -1.3037   58.4443   75.0529 H   0  0  0  0  0  0  0  0  0  0  0  0
   -2.0650   58.9268   73.4992 H   0  0  0  0  0  0  0  0  0  0  0  0
   -0.4721   58.0966   73.4992 H   0  0  0  0  0  0  0  0  0  0  0  0
   -0.1796   60.3393   71.9694 H   0  0  0  0  0  0  0  0  0  0  0  0
    0.6740   63.9441   73.6631 H   0  0  0  0  0  0  0  0  0  0  0  0
    1.2968   64.5043   71.5007 H   0  0  0  0  0  0  0  0  0  0  0  0
    3.0001   64.8321   69.7240 H   0  0  0  0  0  0  0  0  0  0  0  0
    4.4509   62.9329   68.9431 H   0  0  0  0  0  0  0  0  0  0  0  0
    2.1828   59.5222   73.7582 H   0  0  0  0  0  0  0  0  0  0  0  0
    1.3117   58.5160   72.5478 H   0  0  0  0  0  0  0  0  0  0  0  0
    3.8548   58.3142   71.0597 H   0  0  0  0  0  0  0  0  0  0  0  0
    4.8720   60.1314   69.4691 H   0  0  0  0  0  0  0  0  0  0  0  0
    0.9854   61.4561   75.9455 H   0  0  0  0  0  0  0  0  0  0  0  0
    2.0478   61.0110   80.0863 H   0  0  0  0  0  0  0  0  0  0  0  0
    0.9352   60.1835   78.9444 H   0  0  0  0  0  0  0  0  0  0  0  0
    2.6855   59.7797   78.9444 H   0  0  0  0  0  0  0  0  0  0  0  0
    3.1858   62.1268   78.2328 H   0  0  0  0  0  0  0  0  0  0  0  0
    2.1648   61.2154   77.0443 H   0  0  0  0  0  0  0  0  0  0  0  0
    0.1984   64.1011   79.3511 H   0  0  0  0  0  0  0  0  0  0  0  0
    1.1574   62.8140   80.1912 H   0  0  0  0  0  0  0  0  0  0  0  0
    2.5411   64.6333   80.5121 H   0  0  0  0  0  0  0  0  0  0  0  0
    3.1885   64.0004   78.9606 H   0  0  0  0  0  0  0  0  0  0  0  0
    2.0717   65.4074   78.9606 H   0  0  0  0  0  0  0  0  0  0  0  0
  2  1  1  0
  3  2  1  0
  4  3  1  0
  5  3  1  0
  6  5  1  0
  7  6  2  0
  7  1  1  0
  8  6  1  0
  9  8  2  0
 10  9  1  0
 11 10  2  0
 12 11  1  0
 13 12  2  0
 13  8  1  0
 14 13  1  0
 15  5  1  0
 15 14  1  0
 16 14  2  0
 17 12  1  0
 17 16  1  0
 19 18  1  0
 20 19  2  0
 21 19  1  0
 21  1  1  0
 23 22  1  0
 23 18  1  0
 24 18  1  0
 25 24  1  0
  1 26  1  1
  2 27  1  0
  2 28  1  0
  3 29  1  1
  4 30  1  0
  4 31  1  0
  4 32  1  0
  5 33  1  6
  7 34  1  0
  9 35  1  0
 10 36  1  0
 11 37  1  0
 15 38  1  0
 15 39  1  0
 16 40  1  0
 17 41  1  0
 21 42  1  0
 22 43  1  0
 22 44  1  0
 22 45  1  0
 23 46  1  0
 23 47  1  0
 24 48  1  0
 24 49  1  0
 25 50  1  0
 25 51  1  0
 25 52  1  0
M  CHG  1   3   1
M  END
>  <score>  (8) 
-7.156

$$$$
