=
     RDKit          3D

 38 39  0  0  0  0  0  0  0  0999 V2000
   -0.2140   69.8850   67.6340 O   0  0  0  0  0  0  0  0  0  0  0  0
    0.6120   68.9850   67.5800 C   0  0  0  0  0  0  0  0  0  0  0  0
    0.5190   67.7840   68.4470 C   0  0  0  0  0  0  0  0  0  0  0  0
    1.5380   67.5370   69.3800 C   0  0  0  0  0  0  0  0  0  0  0  0
    1.5000   66.3980   70.1900 C   0  0  0  0  0  0  0  0  0  0  0  0
    0.4520   65.4790   70.0770 C   0  0  0  0  0  0  0  0  0  0  0  0
   -0.5730   65.7360   69.1500 C   0  0  0  0  0  0  0  0  0  0  0  0
   -0.5590   66.8860   68.3300 C   0  0  0  0  0  0  0  0  0  0  0  0
   -1.7130   67.1260   67.3790 C   0  0  0  0  0  0  0  0  0  0  0  0
   -2.4920   66.0140   67.2260 F   0  0  0  0  0  0  0  0  0  0  0  0
   -1.3220   67.4640   66.1250 F   0  0  0  0  0  0  0  0  0  0  0  0
   -2.5680   68.0900   67.8180 F   0  0  0  0  0  0  0  0  0  0  0  0
    0.4000   64.2530   70.9620 C   0  0  0  0  0  0  0  0  0  0  0  0
    1.6250   63.6960   71.1630 F   0  0  0  0  0  0  0  0  0  0  0  0
   -0.3800   63.2730   70.4330 F   0  0  0  0  0  0  0  0  0  0  0  0
   -0.1020   64.5090   72.2020 F   0  0  0  0  0  0  0  0  0  0  0  0
    1.7780   69.1160   66.6240 C   0  0  0  0  0  0  0  0  0  0  0  0
    1.6130   68.8380   65.4460 O   0  0  0  0  0  0  0  0  0  0  0  0
    3.0980   69.5490   67.1480 C   0  0  0  0  0  0  0  0  0  0  0  0
    3.1640   70.1510   68.4140 C   0  0  0  0  0  0  0  0  0  0  0  0
    4.3850   70.6000   68.9250 C   0  0  0  0  0  0  0  0  0  0  0  0
    5.5610   70.4670   68.1800 C   0  0  0  0  0  0  0  0  0  0  0  0
    5.4930   69.8520   66.9170 C   0  0  0  0  0  0  0  0  0  0  0  0
    4.2720   69.3820   66.3880 C   0  0  0  0  0  0  0  0  0  0  0  0
    4.2710   68.6940   65.0380 C   0  0  0  0  0  0  0  0  0  0  0  0
    5.5360   68.4740   64.5730 F   0  0  0  0  0  0  0  0  0  0  0  0
    3.6970   67.4590   65.0750 F   0  0  0  0  0  0  0  0  0  0  0  0
    3.6500   69.4060   64.0660 F   0  0  0  0  0  0  0  0  0  0  0  0
    6.8870   70.9380   68.7370 C   0  0  0  0  0  0  0  0  0  0  0  0
    6.9570   70.8310   70.0920 F   0  0  0  0  0  0  0  0  0  0  0  0
    7.1270   72.2450   68.4490 F   0  0  0  0  0  0  0  0  0  0  0  0
    7.9490   70.2410   68.2510 F   0  0  0  0  0  0  0  0  0  0  0  0
    2.3739   68.2457   69.4748 H   0  0  0  0  0  0  0  0  0  0  0  0
    2.3016   66.2232   70.9227 H   0  0  0  0  0  0  0  0  0  0  0  0
   -1.4066   65.0239   69.0610 H   0  0  0  0  0  0  0  0  0  0  0  0
    2.2468   70.2705   69.0093 H   0  0  0  0  0  0  0  0  0  0  0  0
    4.4213   71.0623   69.9225 H   0  0  0  0  0  0  0  0  0  0  0  0
    6.4140   69.7345   66.3271 H   0  0  0  0  0  0  0  0  0  0  0  0
  2  1  2  0
  3  2  1  0
  4  3  2  0
  5  4  1  0
  6  5  2  0
  7  6  1  0
  8  7  2  0
  8  3  1  0
  9  8  1  0
 10  9  1  0
 11  9  1  0
 12  9  1  0
 13  6  1  0
 14 13  1  0
 15 13  1  0
 16 13  1  0
 17  2  1  0
 18 17  2  0
 19 17  1  0
 20 19  2  0
 21 20  1  0
 22 21  2  0
 23 22  1  0
 24 19  1  0
 24 23  2  0
 25 24  1  0
 26 25  1  0
 27 25  1  0
 28 25  1  0
 29 22  1  0
 30 29  1  0
 31 29  1  0
 32 29  1  0
  4 33  1  0
  5 34  1  0
  7 35  1  0
 20 36  1  0
 21 37  1  0
 23 38  1  0
M  END
>  <score>  (1) 
-11.794

$$$$
=
     RDKit          3D

 38 39  0  0  0  0  0  0  0  0999 V2000
    1.5690   68.8330   65.4120 O   0  0  0  0  0  0  0  0  0  0  0  0
    1.7350   69.1150   66.5890 C   0  0  0  0  0  0  0  0  0  0  0  0
    3.0560   69.5450   67.1140 C   0  0  0  0  0  0  0  0  0  0  0  0
    3.1220   70.1570   68.3750 C   0  0  0  0  0  0  0  0  0  0  0  0
    4.3440   70.6030   68.8850 C   0  0  0  0  0  0  0  0  0  0  0  0
    5.5210   70.4570   68.1440 C   0  0  0  0  0  0  0  0  0  0  0  0
    5.4530   69.8330   66.8870 C   0  0  0  0  0  0  0  0  0  0  0  0
    4.2300   69.3650   66.3570 C   0  0  0  0  0  0  0  0  0  0  0  0
    4.2280   68.6650   65.0140 C   0  0  0  0  0  0  0  0  0  0  0  0
    5.4940   68.4010   64.5710 F   0  0  0  0  0  0  0  0  0  0  0  0
    3.6460   69.3880   64.0260 F   0  0  0  0  0  0  0  0  0  0  0  0
    3.6150   67.4500   65.0520 F   0  0  0  0  0  0  0  0  0  0  0  0
    6.8480   70.9260   68.7000 C   0  0  0  0  0  0  0  0  0  0  0  0
    7.0990   72.2350   68.4320 F   0  0  0  0  0  0  0  0  0  0  0  0
    7.8940   70.2260   68.1840 F   0  0  0  0  0  0  0  0  0  0  0  0
    6.9360   70.7960   70.0520 F   0  0  0  0  0  0  0  0  0  0  0  0
    0.5670   68.9920   67.5450 C   0  0  0  0  0  0  0  0  0  0  0  0
   -0.2570   69.8920   67.5920 O   0  0  0  0  0  0  0  0  0  0  0  0
    0.4720   67.7970   68.4210 C   0  0  0  0  0  0  0  0  0  0  0  0
    1.4930   67.5520   69.3520 C   0  0  0  0  0  0  0  0  0  0  0  0
    1.4530   66.4200   70.1700 C   0  0  0  0  0  0  0  0  0  0  0  0
    0.4010   65.5040   70.0680 C   0  0  0  0  0  0  0  0  0  0  0  0
   -0.6260   65.7590   69.1420 C   0  0  0  0  0  0  0  0  0  0  0  0
   -0.6100   66.9020   68.3140 C   0  0  0  0  0  0  0  0  0  0  0  0
   -1.7660   67.1400   67.3640 C   0  0  0  0  0  0  0  0  0  0  0  0
   -2.5380   66.0240   67.2060 F   0  0  0  0  0  0  0  0  0  0  0  0
   -2.6270   68.0970   67.8080 F   0  0  0  0  0  0  0  0  0  0  0  0
   -1.3770   67.4870   66.1120 F   0  0  0  0  0  0  0  0  0  0  0  0
    0.3460   64.2860   70.9640 C   0  0  0  0  0  0  0  0  0  0  0  0
   -0.1130   64.5700   72.2130 F   0  0  0  0  0  0  0  0  0  0  0  0
    1.5720   63.7210   71.1320 F   0  0  0  0  0  0  0  0  0  0  0  0
   -0.4610   63.3030   70.4810 F   0  0  0  0  0  0  0  0  0  0  0  0
    2.2040   70.2867   68.9670 H   0  0  0  0  0  0  0  0  0  0  0  0
    4.3806   71.0734   69.8787 H   0  0  0  0  0  0  0  0  0  0  0  0
    6.3751   69.7057   66.3009 H   0  0  0  0  0  0  0  0  0  0  0  0
    2.3324   68.2576   69.4386 H   0  0  0  0  0  0  0  0  0  0  0  0
    2.2565   66.2476   70.9012 H   0  0  0  0  0  0  0  0  0  0  0  0
   -1.4630   65.0498   69.0608 H   0  0  0  0  0  0  0  0  0  0  0  0
  2  1  2  0
  3  2  1  0
  4  3  2  0
  5  4  1  0
  6  5  2  0
  7  6  1  0
  8  7  2  0
  8  3  1  0
  9  8  1  0
 10  9  1  0
 11  9  1  0
 12  9  1  0
 13  6  1  0
 14 13  1  0
 15 13  1  0
 16 13  1  0
 17  2  1  0
 18 17  2  0
 19 17  1  0
 20 19  2  0
 21 20  1  0
 22 21  2  0
 23 22  1  0
 24 19  1  0
 24 23  2  0
 25 24  1  0
 26 25  1  0
 27 25  1  0
 28 25  1  0
 29 22  1  0
 30 29  1  0
 31 29  1  0
 32 29  1  0
  4 33  1  0
  5 34  1  0
  7 35  1  0
 20 36  1  0
 21 37  1  0
 23 38  1  0
M  END
>  <score>  (2) 
-11.793

$$$$
=
     RDKit          3D

 38 39  0  0  0  0  0  0  0  0999 V2000
    3.0040   60.8330   73.8950 O   0  0  0  0  0  0  0  0  0  0  0  0
    2.4100   60.1730   73.0560 C   0  0  0  0  0  0  0  0  0  0  0  0
    1.6970   58.9180   73.4070 C   0  0  0  0  0  0  0  0  0  0  0  0
    2.3940   57.7010   73.3540 C   0  0  0  0  0  0  0  0  0  0  0  0
    1.7470   56.4970   73.6460 C   0  0  0  0  0  0  0  0  0  0  0  0
    0.3900   56.4840   73.9850 C   0  0  0  0  0  0  0  0  0  0  0  0
   -0.3020   57.7050   74.0490 C   0  0  0  0  0  0  0  0  0  0  0  0
    0.3360   58.9330   73.7690 C   0  0  0  0  0  0  0  0  0  0  0  0
   -0.4540   60.2190   73.8930 C   0  0  0  0  0  0  0  0  0  0  0  0
   -1.5670   60.0650   74.6700 F   0  0  0  0  0  0  0  0  0  0  0  0
   -0.9080   60.6950   72.7070 F   0  0  0  0  0  0  0  0  0  0  0  0
    0.2520   61.2160   74.4950 F   0  0  0  0  0  0  0  0  0  0  0  0
   -0.3100   55.1840   74.3160 C   0  0  0  0  0  0  0  0  0  0  0  0
   -1.6540   55.3320   74.4690 F   0  0  0  0  0  0  0  0  0  0  0  0
    0.1450   54.6400   75.4770 F   0  0  0  0  0  0  0  0  0  0  0  0
   -0.1450   54.2290   73.3600 F   0  0  0  0  0  0  0  0  0  0  0  0
    2.4270   60.6310   71.6140 C   0  0  0  0  0  0  0  0  0  0  0  0
    2.7920   59.8510   70.7480 O   0  0  0  0  0  0  0  0  0  0  0  0
    2.0310   62.0260   71.2930 C   0  0  0  0  0  0  0  0  0  0  0  0
    0.6860   62.4020   71.4360 C   0  0  0  0  0  0  0  0  0  0  0  0
    0.2720   63.6960   71.1130 C   0  0  0  0  0  0  0  0  0  0  0  0
    1.1860   64.6370   70.6280 C   0  0  0  0  0  0  0  0  0  0  0  0
    2.5340   64.2610   70.4970 C   0  0  0  0  0  0  0  0  0  0  0  0
    2.9760   62.9620   70.8290 C   0  0  0  0  0  0  0  0  0  0  0  0
    4.4480   62.6290   70.7020 C   0  0  0  0  0  0  0  0  0  0  0  0
    5.1980   63.7280   70.3900 F   0  0  0  0  0  0  0  0  0  0  0  0
    4.9860   62.1620   71.8630 F   0  0  0  0  0  0  0  0  0  0  0  0
    4.7180   61.7230   69.7300 F   0  0  0  0  0  0  0  0  0  0  0  0
    0.7430   66.0440   70.2920 C   0  0  0  0  0  0  0  0  0  0  0  0
    1.7860   66.9030   70.1360 F   0  0  0  0  0  0  0  0  0  0  0  0
   -0.0440   66.5790   71.2650 F   0  0  0  0  0  0  0  0  0  0  0  0
    0.0220   66.1170   69.1400 F   0  0  0  0  0  0  0  0  0  0  0  0
    3.4593   57.6947   73.0801 H   0  0  0  0  0  0  0  0  0  0  0  0
    2.3093   55.5523   73.6089 H   0  0  0  0  0  0  0  0  0  0  0  0
   -1.3671   57.7042   74.3240 H   0  0  0  0  0  0  0  0  0  0  0  0
   -0.0481   61.6710   71.8057 H   0  0  0  0  0  0  0  0  0  0  0  0
   -0.7835   63.9780   71.2413 H   0  0  0  0  0  0  0  0  0  0  0  0
    3.2626   64.9972   70.1266 H   0  0  0  0  0  0  0  0  0  0  0  0
  2  1  2  0
  3  2  1  0
  4  3  2  0
  5  4  1  0
  6  5  2  0
  7  6  1  0
  8  7  2  0
  8  3  1  0
  9  8  1  0
 10  9  1  0
 11  9  1  0
 12  9  1  0
 13  6  1  0
 14 13  1  0
 15 13  1  0
 16 13  1  0
 17  2  1  0
 18 17  2  0
 19 17  1  0
 20 19  2  0
 21 20  1  0
 22 21  2  0
 23 22  1  0
 24 19  1  0
 24 23  2  0
 25 24  1  0
 26 25  1  0
 27 25  1  0
 28 25  1  0
 29 22  1  0
 30 29  1  0
 31 29  1  0
 32 29  1  0
  4 33  1  0
  5 34  1  0
  7 35  1  0
 20 36  1  0
 21 37  1  0
 23 38  1  0
M  END
>  <score>  (3) 
-10.74

$$$$
=
     RDKit          3D

 38 39  0  0  0  0  0  0  0  0999 V2000
    2.8830   59.8200   70.8220 O   0  0  0  0  0  0  0  0  0  0  0  0
    2.4920   60.6120   71.6670 C   0  0  0  0  0  0  0  0  0  0  0  0
    2.1020   62.0010   71.3170 C   0  0  0  0  0  0  0  0  0  0  0  0
    0.7490   62.3670   71.3870 C   0  0  0  0  0  0  0  0  0  0  0  0
    0.3420   63.6560   71.0340 C   0  0  0  0  0  0  0  0  0  0  0  0
    1.2750   64.6020   70.5940 C   0  0  0  0  0  0  0  0  0  0  0  0
    2.6300   64.2360   70.5370 C   0  0  0  0  0  0  0  0  0  0  0  0
    3.0640   62.9410   70.8990 C   0  0  0  0  0  0  0  0  0  0  0  0
    4.5430   62.6200   70.8530 C   0  0  0  0  0  0  0  0  0  0  0  0
    5.3000   63.7250   70.5820 F   0  0  0  0  0  0  0  0  0  0  0  0
    4.8730   61.7160   69.8980 F   0  0  0  0  0  0  0  0  0  0  0  0
    5.0200   62.1580   72.0420 F   0  0  0  0  0  0  0  0  0  0  0  0
    0.8390   66.0030   70.2250 C   0  0  0  0  0  0  0  0  0  0  0  0
   -0.0410   66.5340   71.1170 F   0  0  0  0  0  0  0  0  0  0  0  0
    0.2200   66.0430   69.0140 F   0  0  0  0  0  0  0  0  0  0  0  0
    1.8740   66.8830   70.1510 F   0  0  0  0  0  0  0  0  0  0  0  0
    2.4360   60.1730   73.1140 C   0  0  0  0  0  0  0  0  0  0  0  0
    3.0030   60.8470   73.9610 O   0  0  0  0  0  0  0  0  0  0  0  0
    1.7190   58.9200   73.4630 C   0  0  0  0  0  0  0  0  0  0  0  0
    2.4270   57.7080   73.4620 C   0  0  0  0  0  0  0  0  0  0  0  0
    1.7780   56.5060   73.7540 C   0  0  0  0  0  0  0  0  0  0  0  0
    0.4090   56.4860   74.0410 C   0  0  0  0  0  0  0  0  0  0  0  0
   -0.2940   57.7030   74.0530 C   0  0  0  0  0  0  0  0  0  0  0  0
    0.3450   58.9300   73.7730 C   0  0  0  0  0  0  0  0  0  0  0  0
   -0.4590   60.2120   73.8390 C   0  0  0  0  0  0  0  0  0  0  0  0
   -1.6670   60.0290   74.4500 F   0  0  0  0  0  0  0  0  0  0  0  0
    0.1540   61.1830   74.5710 F   0  0  0  0  0  0  0  0  0  0  0  0
   -0.7480   60.7360   72.6230 F   0  0  0  0  0  0  0  0  0  0  0  0
   -0.2920   55.1870   74.3730 C   0  0  0  0  0  0  0  0  0  0  0  0
   -1.6340   55.3400   74.5390 F   0  0  0  0  0  0  0  0  0  0  0  0
    0.1700   54.6370   75.5280 F   0  0  0  0  0  0  0  0  0  0  0  0
   -0.1400   54.2370   73.4120 F   0  0  0  0  0  0  0  0  0  0  0  0
    0.0023   61.6324   71.7228 H   0  0  0  0  0  0  0  0  0  0  0  0
   -0.7212   63.9299   71.1025 H   0  0  0  0  0  0  0  0  0  0  0  0
    3.3717   64.9761   70.2022 H   0  0  0  0  0  0  0  0  0  0  0  0
    3.5021   57.7047   73.2293 H   0  0  0  0  0  0  0  0  0  0  0  0
    2.3491   55.5659   73.7583 H   0  0  0  0  0  0  0  0  0  0  0  0
   -1.3689   57.6991   74.2864 H   0  0  0  0  0  0  0  0  0  0  0  0
  2  1  2  0
  3  2  1  0
  4  3  2  0
  5  4  1  0
  6  5  2  0
  7  6  1  0
  8  7  2  0
  8  3  1  0
  9  8  1  0
 10  9  1  0
 11  9  1  0
 12  9  1  0
 13  6  1  0
 14 13  1  0
 15 13  1  0
 16 13  1  0
 17  2  1  0
 18 17  2  0
 19 17  1  0
 20 19  2  0
 21 20  1  0
 22 21  2  0
 23 22  1  0
 24 19  1  0
 24 23  2  0
 25 24  1  0
 26 25  1  0
 27 25  1  0
 28 25  1  0
 29 22  1  0
 30 29  1  0
 31 29  1  0
 32 29  1  0
  4 33  1  0
  5 34  1  0
  7 35  1  0
 20 36  1  0
 21 37  1  0
 23 38  1  0
M  END
>  <score>  (4) 
-10.669

$$$$
=
     RDKit          3D

 38 39  0  0  0  0  0  0  0  0999 V2000
    3.3230   61.7670   73.5760 O   0  0  0  0  0  0  0  0  0  0  0  0
    2.5810   61.7460   72.6050 C   0  0  0  0  0  0  0  0  0  0  0  0
    2.2490   62.9770   71.8450 C   0  0  0  0  0  0  0  0  0  0  0  0
    1.0430   63.6420   72.1160 C   0  0  0  0  0  0  0  0  0  0  0  0
    0.6840   64.7850   71.3970 C   0  0  0  0  0  0  0  0  0  0  0  0
    1.5160   65.2810   70.3870 C   0  0  0  0  0  0  0  0  0  0  0  0
    2.7280   64.6200   70.1260 C   0  0  0  0  0  0  0  0  0  0  0  0
    3.1150   63.4690   70.8490 C   0  0  0  0  0  0  0  0  0  0  0  0
    4.4520   62.8250   70.5470 C   0  0  0  0  0  0  0  0  0  0  0  0
    5.2560   63.6380   69.8000 F   0  0  0  0  0  0  0  0  0  0  0  0
    4.3520   61.6720   69.8410 F   0  0  0  0  0  0  0  0  0  0  0  0
    5.1750   62.5600   71.6700 F   0  0  0  0  0  0  0  0  0  0  0  0
    1.1360   66.5270   69.6160 C   0  0  0  0  0  0  0  0  0  0  0  0
    1.4160   66.4310   68.2880 F   0  0  0  0  0  0  0  0  0  0  0  0
    1.8000   67.6260   70.0650 F   0  0  0  0  0  0  0  0  0  0  0  0
   -0.1890   66.8240   69.6990 F   0  0  0  0  0  0  0  0  0  0  0  0
    1.9570   60.4320   72.1870 C   0  0  0  0  0  0  0  0  0  0  0  0
    2.4190   59.8350   71.2270 O   0  0  0  0  0  0  0  0  0  0  0  0
    0.7820   59.9180   72.9360 C   0  0  0  0  0  0  0  0  0  0  0  0
   -0.3940   60.6840   72.9660 C   0  0  0  0  0  0  0  0  0  0  0  0
   -1.5080   60.2470   73.6870 C   0  0  0  0  0  0  0  0  0  0  0  0
   -1.4680   59.0450   74.4010 C   0  0  0  0  0  0  0  0  0  0  0  0
   -0.2930   58.2750   74.3590 C   0  0  0  0  0  0  0  0  0  0  0  0
    0.8400   58.6920   73.6270 C   0  0  0  0  0  0  0  0  0  0  0  0
    2.0630   57.7990   73.5900 C   0  0  0  0  0  0  0  0  0  0  0  0
    1.9830   56.7810   74.4980 F   0  0  0  0  0  0  0  0  0  0  0  0
    2.2280   57.1800   72.3880 F   0  0  0  0  0  0  0  0  0  0  0  0
    3.2180   58.4480   73.8790 F   0  0  0  0  0  0  0  0  0  0  0  0
   -2.6790   58.5620   75.1700 C   0  0  0  0  0  0  0  0  0  0  0  0
   -2.6570   58.9350   76.4790 F   0  0  0  0  0  0  0  0  0  0  0  0
   -2.7790   57.2050   75.1660 F   0  0  0  0  0  0  0  0  0  0  0  0
   -3.8530   59.0300   74.6670 F   0  0  0  0  0  0  0  0  0  0  0  0
    0.3745   63.2599   72.9015 H   0  0  0  0  0  0  0  0  0  0  0  0
   -0.2608   65.2994   71.6268 H   0  0  0  0  0  0  0  0  0  0  0  0
    3.3921   65.0079   69.3395 H   0  0  0  0  0  0  0  0  0  0  0  0
   -0.4388   61.6363   72.4172 H   0  0  0  0  0  0  0  0  0  0  0  0
   -2.4253   60.8540   73.6932 H   0  0  0  0  0  0  0  0  0  0  0  0
   -0.2551   57.3238   74.9101 H   0  0  0  0  0  0  0  0  0  0  0  0
  2  1  2  0
  3  2  1  0
  4  3  2  0
  5  4  1  0
  6  5  2  0
  7  6  1  0
  8  7  2  0
  8  3  1  0
  9  8  1  0
 10  9  1  0
 11  9  1  0
 12  9  1  0
 13  6  1  0
 14 13  1  0
 15 13  1  0
 16 13  1  0
 17  2  1  0
 18 17  2  0
 19 17  1  0
 20 19  2  0
 21 20  1  0
 22 21  2  0
 23 22  1  0
 24 19  1  0
 24 23  2  0
 25 24  1  0
 26 25  1  0
 27 25  1  0
 28 25  1  0
 29 22  1  0
 30 29  1  0
 31 29  1  0
 32 29  1  0
  4 33  1  0
  5 34  1  0
  7 35  1  0
 20 36  1  0
 21 37  1  0
 23 38  1  0
M  END
>  <score>  (5) 
-10.659

$$$$
=
     RDKit          3D

 38 39  0  0  0  0  0  0  0  0999 V2000
    3.3560   60.0140   73.7650 O   0  0  0  0  0  0  0  0  0  0  0  0
    2.3540   60.1200   73.0740 C   0  0  0  0  0  0  0  0  0  0  0  0
    1.0080   59.7560   73.5840 C   0  0  0  0  0  0  0  0  0  0  0  0
    0.1360   60.7770   73.9930 C   0  0  0  0  0  0  0  0  0  0  0  0
   -1.1260   60.4700   74.5090 C   0  0  0  0  0  0  0  0  0  0  0  0
   -1.5380   59.1390   74.6380 C   0  0  0  0  0  0  0  0  0  0  0  0
   -0.6670   58.1200   74.2160 C   0  0  0  0  0  0  0  0  0  0  0  0
    0.6080   58.4100   73.6820 C   0  0  0  0  0  0  0  0  0  0  0  0
    1.4850   57.2690   73.2090 C   0  0  0  0  0  0  0  0  0  0  0  0
    0.8400   56.0660   73.2700 F   0  0  0  0  0  0  0  0  0  0  0  0
    2.6130   57.1090   73.9450 F   0  0  0  0  0  0  0  0  0  0  0  0
    1.8580   57.3950   71.9050 F   0  0  0  0  0  0  0  0  0  0  0  0
   -2.9090   58.8040   75.1820 C   0  0  0  0  0  0  0  0  0  0  0  0
   -3.0810   59.2150   76.4680 F   0  0  0  0  0  0  0  0  0  0  0  0
   -3.1470   57.4640   75.1780 F   0  0  0  0  0  0  0  0  0  0  0  0
   -3.9210   59.3700   74.4690 F   0  0  0  0  0  0  0  0  0  0  0  0
    2.4940   60.6050   71.6470 C   0  0  0  0  0  0  0  0  0  0  0  0
    2.9500   59.8460   70.8050 O   0  0  0  0  0  0  0  0  0  0  0  0
    2.1040   61.9990   71.3140 C   0  0  0  0  0  0  0  0  0  0  0  0
    0.7480   62.3580   71.3720 C   0  0  0  0  0  0  0  0  0  0  0  0
    0.3410   63.6510   71.0350 C   0  0  0  0  0  0  0  0  0  0  0  0
    1.2750   64.6070   70.6220 C   0  0  0  0  0  0  0  0  0  0  0  0
    2.6330   64.2470   70.5770 C   0  0  0  0  0  0  0  0  0  0  0  0
    3.0670   62.9500   70.9250 C   0  0  0  0  0  0  0  0  0  0  0  0
    4.5480   62.6350   70.8930 C   0  0  0  0  0  0  0  0  0  0  0  0
    4.8640   61.7520   69.8990 F   0  0  0  0  0  0  0  0  0  0  0  0
    5.3150   63.7310   70.6380 F   0  0  0  0  0  0  0  0  0  0  0  0
    5.0080   62.0680   72.0350 F   0  0  0  0  0  0  0  0  0  0  0  0
    0.8380   66.0130   70.2710 C   0  0  0  0  0  0  0  0  0  0  0  0
    1.8750   66.8940   70.2340 F   0  0  0  0  0  0  0  0  0  0  0  0
   -0.0480   66.5130   71.1740 F   0  0  0  0  0  0  0  0  0  0  0  0
    0.2310   66.0970   69.0570 F   0  0  0  0  0  0  0  0  0  0  0  0
    0.4487   61.8281   73.9066 H   0  0  0  0  0  0  0  0  0  0  0  0
   -1.8014   61.2819   74.8165 H   0  0  0  0  0  0  0  0  0  0  0  0
   -0.9860   57.0709   74.3037 H   0  0  0  0  0  0  0  0  0  0  0  0
   -0.0001   61.6149   71.6854 H   0  0  0  0  0  0  0  0  0  0  0  0
   -0.7239   63.9200   71.0949 H   0  0  0  0  0  0  0  0  0  0  0  0
    3.3759   64.9948   70.2627 H   0  0  0  0  0  0  0  0  0  0  0  0
  2  1  2  0
  3  2  1  0
  4  3  2  0
  5  4  1  0
  6  5  2  0
  7  6  1  0
  8  7  2  0
  8  3  1  0
  9  8  1  0
 10  9  1  0
 11  9  1  0
 12  9  1  0
 13  6  1  0
 14 13  1  0
 15 13  1  0
 16 13  1  0
 17  2  1  0
 18 17  2  0
 19 17  1  0
 20 19  2  0
 21 20  1  0
 22 21  2  0
 23 22  1  0
 24 19  1  0
 24 23  2  0
 25 24  1  0
 26 25  1  0
 27 25  1  0
 28 25  1  0
 29 22  1  0
 30 29  1  0
 31 29  1  0
 32 29  1  0
  4 33  1  0
  5 34  1  0
  7 35  1  0
 20 36  1  0
 21 37  1  0
 23 38  1  0
M  END
>  <score>  (6) 
-10.488

$$$$
=
     RDKit          3D

 38 39  0  0  0  0  0  0  0  0999 V2000
    0.2960   69.9890   67.5000 O   0  0  0  0  0  0  0  0  0  0  0  0
    1.2120   69.2860   67.9000 C   0  0  0  0  0  0  0  0  0  0  0  0
    0.9660   68.0050   68.6090 C   0  0  0  0  0  0  0  0  0  0  0  0
    1.8400   67.6140   69.6350 C   0  0  0  0  0  0  0  0  0  0  0  0
    1.6580   66.4000   70.3010 C   0  0  0  0  0  0  0  0  0  0  0  0
    0.6060   65.5460   69.9490 C   0  0  0  0  0  0  0  0  0  0  0  0
   -0.2740   65.9460   68.9300 C   0  0  0  0  0  0  0  0  0  0  0  0
   -0.1140   67.1740   68.2520 C   0  0  0  0  0  0  0  0  0  0  0  0
   -1.1200   67.5660   67.1890 C   0  0  0  0  0  0  0  0  0  0  0  0
   -0.5290   67.7730   65.9750 F   0  0  0  0  0  0  0  0  0  0  0  0
   -1.7820   68.7170   67.4660 F   0  0  0  0  0  0  0  0  0  0  0  0
   -2.0510   66.5990   66.9610 F   0  0  0  0  0  0  0  0  0  0  0  0
    0.3970   64.2370   70.6790 C   0  0  0  0  0  0  0  0  0  0  0  0
   -0.3610   63.3550   69.9730 F   0  0  0  0  0  0  0  0  0  0  0  0
   -0.2370   64.4120   71.8700 F   0  0  0  0  0  0  0  0  0  0  0  0
    1.5610   63.5900   70.9600 F   0  0  0  0  0  0  0  0  0  0  0  0
    2.6380   69.7520   67.6950 C   0  0  0  0  0  0  0  0  0  0  0  0
    3.1940   70.3700   68.5900 O   0  0  0  0  0  0  0  0  0  0  0  0
    3.3110   69.4740   66.4010 C   0  0  0  0  0  0  0  0  0  0  0  0
    2.5470   68.9960   65.3250 C   0  0  0  0  0  0  0  0  0  0  0  0
    3.1530   68.6930   64.1030 C   0  0  0  0  0  0  0  0  0  0  0  0
    4.5320   68.8480   63.9330 C   0  0  0  0  0  0  0  0  0  0  0  0
    5.2920   69.3380   65.0100 C   0  0  0  0  0  0  0  0  0  0  0  0
    4.6990   69.6610   66.2490 C   0  0  0  0  0  0  0  0  0  0  0  0
    5.5660   70.2210   67.3570 C   0  0  0  0  0  0  0  0  0  0  0  0
    5.4720   71.5810   67.4460 F   0  0  0  0  0  0  0  0  0  0  0  0
    5.2040   69.7680   68.5900 F   0  0  0  0  0  0  0  0  0  0  0  0
    6.8870   69.9630   67.1960 F   0  0  0  0  0  0  0  0  0  0  0  0
    5.1880   68.5350   62.6060 C   0  0  0  0  0  0  0  0  0  0  0  0
    6.5460   68.4820   62.6880 F   0  0  0  0  0  0  0  0  0  0  0  0
    4.9030   69.4720   61.6620 F   0  0  0  0  0  0  0  0  0  0  0  0
    4.7970   67.3410   62.0850 F   0  0  0  0  0  0  0  0  0  0  0  0
    2.6765   68.2701   69.9174 H   0  0  0  0  0  0  0  0  0  0  0  0
    2.3470   66.1124   71.1089 H   0  0  0  0  0  0  0  0  0  0  0  0
   -1.1091   65.2857   68.6532 H   0  0  0  0  0  0  0  0  0  0  0  0
    1.4622   68.8588   65.4447 H   0  0  0  0  0  0  0  0  0  0  0  0
    2.5388   68.3288   63.2662 H   0  0  0  0  0  0  0  0  0  0  0  0
    6.3763   69.4729   64.8833 H   0  0  0  0  0  0  0  0  0  0  0  0
  2  1  2  0
  3  2  1  0
  4  3  2  0
  5  4  1  0
  6  5  2  0
  7  6  1  0
  8  7  2  0
  8  3  1  0
  9  8  1  0
 10  9  1  0
 11  9  1  0
 12  9  1  0
 13  6  1  0
 14 13  1  0
 15 13  1  0
 16 13  1  0
 17  2  1  0
 18 17  2  0
 19 17  1  0
 20 19  2  0
 21 20  1  0
 22 21  2  0
 23 22  1  0
 24 19  1  0
 24 23  2  0
 25 24  1  0
 26 25  1  0
 27 25  1  0
 28 25  1  0
 29 22  1  0
 30 29  1  0
 31 29  1  0
 32 29  1  0
  4 33  1  0
  5 34  1  0
  7 35  1  0
 20 36  1  0
 21 37  1  0
 23 38  1  0
M  END
>  <score>  (7) 
-10.284

$$$$
=
     RDKit          3D

 38 39  0  0  0  0  0  0  0  0999 V2000
   -0.2460   70.1360   67.2530 O   0  0  0  0  0  0  0  0  0  0  0  0
    0.0030   68.9740   66.9690 C   0  0  0  0  0  0  0  0  0  0  0  0
    0.1280   67.9230   68.0110 C   0  0  0  0  0  0  0  0  0  0  0  0
    1.3420   67.7900   68.7030 C   0  0  0  0  0  0  0  0  0  0  0  0
    1.5060   66.7910   69.6670 C   0  0  0  0  0  0  0  0  0  0  0  0
    0.4660   65.8990   69.9510 C   0  0  0  0  0  0  0  0  0  0  0  0
   -0.7510   66.0420   69.2650 C   0  0  0  0  0  0  0  0  0  0  0  0
   -0.9410   67.0510   68.2950 C   0  0  0  0  0  0  0  0  0  0  0  0
   -2.2900   67.1790   67.6190 C   0  0  0  0  0  0  0  0  0  0  0  0
   -2.5770   68.4720   67.2830 F   0  0  0  0  0  0  0  0  0  0  0  0
   -3.3270   66.7710   68.3930 F   0  0  0  0  0  0  0  0  0  0  0  0
   -2.3590   66.4930   66.4440 F   0  0  0  0  0  0  0  0  0  0  0  0
    0.6360   64.8260   71.0040 C   0  0  0  0  0  0  0  0  0  0  0  0
   -0.0010   63.6670   70.6840 F   0  0  0  0  0  0  0  0  0  0  0  0
    0.1380   65.2110   72.2100 F   0  0  0  0  0  0  0  0  0  0  0  0
    1.9370   64.4900   71.2210 F   0  0  0  0  0  0  0  0  0  0  0  0
    0.2200   68.6020   65.5190 C   0  0  0  0  0  0  0  0  0  0  0  0
   -0.7240   68.1840   64.8660 O   0  0  0  0  0  0  0  0  0  0  0  0
    1.5810   68.7260   64.9360 C   0  0  0  0  0  0  0  0  0  0  0  0
    2.6950   68.6530   65.7860 C   0  0  0  0  0  0  0  0  0  0  0  0
    3.9880   68.7970   65.2770 C   0  0  0  0  0  0  0  0  0  0  0  0
    4.1950   69.0300   63.9130 C   0  0  0  0  0  0  0  0  0  0  0  0
    3.0770   69.0910   63.0630 C   0  0  0  0  0  0  0  0  0  0  0  0
    1.7630   68.9360   63.5550 C   0  0  0  0  0  0  0  0  0  0  0  0
    0.6030   68.9740   62.5820 C   0  0  0  0  0  0  0  0  0  0  0  0
   -0.3360   69.9000   62.9390 F   0  0  0  0  0  0  0  0  0  0  0  0
    0.9810   69.3310   61.3230 F   0  0  0  0  0  0  0  0  0  0  0  0
   -0.0680   67.7990   62.4910 F   0  0  0  0  0  0  0  0  0  0  0  0
    5.5950   69.1720   63.3570 C   0  0  0  0  0  0  0  0  0  0  0  0
    6.2080   70.3190   63.7570 F   0  0  0  0  0  0  0  0  0  0  0  0
    5.6050   69.1930   61.9970 F   0  0  0  0  0  0  0  0  0  0  0  0
    6.4220   68.1560   63.7260 F   0  0  0  0  0  0  0  0  0  0  0  0
    2.1719   68.4782   68.4847 H   0  0  0  0  0  0  0  0  0  0  0  0
    2.4606   66.7054   70.2068 H   0  0  0  0  0  0  0  0  0  0  0  0
   -1.5770   65.3509   69.4887 H   0  0  0  0  0  0  0  0  0  0  0  0
    2.5489   68.4809   66.8626 H   0  0  0  0  0  0  0  0  0  0  0  0
    4.8514   68.7265   65.9549 H   0  0  0  0  0  0  0  0  0  0  0  0
    3.2299   69.2639   61.9875 H   0  0  0  0  0  0  0  0  0  0  0  0
  2  1  2  0
  3  2  1  0
  4  3  2  0
  5  4  1  0
  6  5  2  0
  7  6  1  0
  8  7  2  0
  8  3  1  0
  9  8  1  0
 10  9  1  0
 11  9  1  0
 12  9  1  0
 13  6  1  0
 14 13  1  0
 15 13  1  0
 16 13  1  0
 17  2  1  0
 18 17  2  0
 19 17  1  0
 20 19  2  0
 21 20  1  0
 22 21  2  0
 23 22  1  0
 24 19  1  0
 24 23  2  0
 25 24  1  0
 26 25  1  0
 27 25  1  0
 28 25  1  0
 29 22  1  0
 30 29  1  0
 31 29  1  0
 32 29  1  0
  4 33  1  0
  5 34  1  0
  7 35  1  0
 20 36  1  0
 21 37  1  0
 23 38  1  0
M  END
>  <score>  (8) 
-10.164

$$$$
=
     RDKit          3D

 38 39  0  0  0  0  0  0  0  0999 V2000
    0.9930   63.8900   74.7050 O   0  0  0  0  0  0  0  0  0  0  0  0
    1.1300   62.7030   74.4520 C   0  0  0  0  0  0  0  0  0  0  0  0
    1.8590   62.2370   73.2450 C   0  0  0  0  0  0  0  0  0  0  0  0
    3.0940   61.5900   73.4030 C   0  0  0  0  0  0  0  0  0  0  0  0
    3.8230   61.1670   72.2870 C   0  0  0  0  0  0  0  0  0  0  0  0
    3.3390   61.3930   70.9940 C   0  0  0  0  0  0  0  0  0  0  0  0
    2.0960   62.0310   70.8410 C   0  0  0  0  0  0  0  0  0  0  0  0
    1.3390   62.4550   71.9550 C   0  0  0  0  0  0  0  0  0  0  0  0
   -0.0110   63.1020   71.7250 C   0  0  0  0  0  0  0  0  0  0  0  0
   -0.2790   63.2720   70.3960 F   0  0  0  0  0  0  0  0  0  0  0  0
   -0.1230   64.3370   72.2740 F   0  0  0  0  0  0  0  0  0  0  0  0
   -1.0440   62.3480   72.1920 F   0  0  0  0  0  0  0  0  0  0  0  0
    4.1180   60.9240   69.7850 C   0  0  0  0  0  0  0  0  0  0  0  0
    3.6660   59.7390   69.2930 F   0  0  0  0  0  0  0  0  0  0  0  0
    5.4360   60.7380   70.0680 F   0  0  0  0  0  0  0  0  0  0  0  0
    4.0740   61.8020   68.7460 F   0  0  0  0  0  0  0  0  0  0  0  0
    0.5100   61.6790   75.3790 C   0  0  0  0  0  0  0  0  0  0  0  0
    1.1960   61.1850   76.2610 O   0  0  0  0  0  0  0  0  0  0  0  0
   -0.9050   61.2790   75.1730 C   0  0  0  0  0  0  0  0  0  0  0  0
   -1.9260   62.1240   75.6350 C   0  0  0  0  0  0  0  0  0  0  0  0
   -3.2680   61.7640   75.4870 C   0  0  0  0  0  0  0  0  0  0  0  0
   -3.6180   60.5500   74.8860 C   0  0  0  0  0  0  0  0  0  0  0  0
   -2.5930   59.7120   74.4140 C   0  0  0  0  0  0  0  0  0  0  0  0
   -1.2320   60.0620   74.5430 C   0  0  0  0  0  0  0  0  0  0  0  0
   -0.1760   59.1340   73.9790 C   0  0  0  0  0  0  0  0  0  0  0  0
    0.4030   59.6400   72.8500 F   0  0  0  0  0  0  0  0  0  0  0  0
    0.8610   58.9310   74.8380 F   0  0  0  0  0  0  0  0  0  0  0  0
   -0.6570   57.9180   73.6220 F   0  0  0  0  0  0  0  0  0  0  0  0
   -5.0710   60.1660   74.7110 C   0  0  0  0  0  0  0  0  0  0  0  0
   -5.2360   58.8460   74.4200 F   0  0  0  0  0  0  0  0  0  0  0  0
   -5.6620   60.8520   73.6960 F   0  0  0  0  0  0  0  0  0  0  0  0
   -5.8240   60.4020   75.8190 F   0  0  0  0  0  0  0  0  0  0  0  0
    3.4922   61.4140   74.4132 H   0  0  0  0  0  0  0  0  0  0  0  0
    4.7850   60.6523   72.4270 H   0  0  0  0  0  0  0  0  0  0  0  0
    1.7032   62.2043   69.8283 H   0  0  0  0  0  0  0  0  0  0  0  0
   -1.6675   63.0780   76.1178 H   0  0  0  0  0  0  0  0  0  0  0  0
   -4.0567   62.4414   75.8464 H   0  0  0  0  0  0  0  0  0  0  0  0
   -2.8584   58.7595   73.9320 H   0  0  0  0  0  0  0  0  0  0  0  0
  2  1  2  0
  3  2  1  0
  4  3  2  0
  5  4  1  0
  6  5  2  0
  7  6  1  0
  8  7  2  0
  8  3  1  0
  9  8  1  0
 10  9  1  0
 11  9  1  0
 12  9  1  0
 13  6  1  0
 14 13  1  0
 15 13  1  0
 16 13  1  0
 17  2  1  0
 18 17  2  0
 19 17  1  0
 20 19  2  0
 21 20  1  0
 22 21  2  0
 23 22  1  0
 24 19  1  0
 24 23  2  0
 25 24  1  0
 26 25  1  0
 27 25  1  0
 28 25  1  0
 29 22  1  0
 30 29  1  0
 31 29  1  0
 32 29  1  0
  4 33  1  0
  5 34  1  0
  7 35  1  0
 20 36  1  0
 21 37  1  0
 23 38  1  0
M  END
>  <score>  (9) 
-9.961

$$$$
