=
     RDKit          3D

 27 28  0  0  0  0  0  0  0  0999 V2000
    1.8470   67.0480   65.0980 S   0  0  0  0  0  6  0  0  0  0  0  0
    2.4130   65.7140   65.0110 O   0  0  0  0  0  0  0  0  0  0  0  0
    1.0090   67.5470   64.0280 O   0  0  0  0  0  0  0  0  0  0  0  0
    1.0260   67.0970   66.5400 N   0  0  0  0  0  0  0  0  0  0  0  0
   -0.3280   67.4010   66.4990 C   0  0  0  0  0  0  0  0  0  0  0  0
   -1.0440   66.7480   67.4200 N   0  0  0  0  0  0  0  0  0  0  0  0
   -2.3340   67.1180   67.5170 C   0  0  0  0  0  0  0  0  0  0  0  0
   -2.8940   68.1250   66.7650 C   0  0  0  0  0  0  0  0  0  0  0  0
   -2.0400   68.7550   65.8910 C   0  0  0  0  0  0  0  0  0  0  0  0
   -0.7440   68.4260   65.7530 N   0  0  0  0  0  0  0  0  0  0  0  0
    5.4100   69.8280   65.8070 C   0  0  0  0  0  0  0  0  0  0  0  0
    4.3310   69.8130   66.6960 C   0  0  0  0  0  0  0  0  0  0  0  0
    3.2440   68.9600   66.4860 C   0  0  0  0  0  0  0  0  0  0  0  0
    3.2140   68.1540   65.3460 C   0  0  0  0  0  0  0  0  0  0  0  0
    4.2620   68.1900   64.4250 C   0  0  0  0  0  0  0  0  0  0  0  0
    5.3420   69.0470   64.6480 C   0  0  0  0  0  0  0  0  0  0  0  0
    6.4370   70.7670   65.9630 N   0  0  0  0  0  0  0  0  0  0  0  0
    1.5038   66.9087   67.4328 H   0  0  0  0  0  0  0  0  0  0  0  0
   -2.9752   66.5870   68.2360 H   0  0  0  0  0  0  0  0  0  0  0  0
   -3.9533   68.4069   66.8569 H   0  0  0  0  0  0  0  0  0  0  0  0
   -2.4385   69.5720   65.2715 H   0  0  0  0  0  0  0  0  0  0  0  0
    4.3377   70.4801   67.5706 H   0  0  0  0  0  0  0  0  0  0  0  0
    2.4190   68.9238   67.2126 H   0  0  0  0  0  0  0  0  0  0  0  0
    4.2376   67.5491   63.5314 H   0  0  0  0  0  0  0  0  0  0  0  0
    6.1492   69.1088   63.9033 H   0  0  0  0  0  0  0  0  0  0  0  0
    7.2308   70.7759   65.3067 H   0  0  0  0  0  0  0  0  0  0  0  0
    6.3987   71.4488   66.7341 H   0  0  0  0  0  0  0  0  0  0  0  0
  2  1  2  0
  3  1  2  0
  4  1  1  0
  5  4  1  0
  6  5  2  0
  7  6  1  0
  8  7  2  0
  9  8  1  0
 10  9  2  0
 10  5  1  0
 12 11  2  0
 13 12  1  0
 14  1  1  0
 14 13  2  0
 15 14  1  0
 16 15  2  0
 16 11  1  0
 17 11  1  0
  4 18  1  0
  7 19  1  0
  8 20  1  0
  9 21  1  0
 12 22  1  0
 13 23  1  0
 15 24  1  0
 16 25  1  0
 17 26  1  0
 17 27  1  0
M  END
>  <score>  (1) 
-8.858

$$$$
=
     RDKit          3D

 27 28  0  0  0  0  0  0  0  0999 V2000
    2.0420   67.9120   64.2700 S   0  0  0  0  0  6  0  0  0  0  0  0
    1.8020   68.9830   63.3200 O   0  0  0  0  0  0  0  0  0  0  0  0
    1.0480   66.8750   64.4540 O   0  0  0  0  0  0  0  0  0  0  0  0
    3.4980   67.2430   63.8390 N   0  0  0  0  0  0  0  0  0  0  0  0
    3.6630   65.8790   64.0420 C   0  0  0  0  0  0  0  0  0  0  0  0
    4.4080   65.2920   63.0990 N   0  0  0  0  0  0  0  0  0  0  0  0
    4.7180   64.0040   63.3290 C   0  0  0  0  0  0  0  0  0  0  0  0
    4.3470   63.3240   64.4660 C   0  0  0  0  0  0  0  0  0  0  0  0
    3.6290   64.0540   65.3830 C   0  0  0  0  0  0  0  0  0  0  0  0
    3.2910   65.3420   65.2040 N   0  0  0  0  0  0  0  0  0  0  0  0
    2.9120   69.8330   68.3300 C   0  0  0  0  0  0  0  0  0  0  0  0
    1.6420   69.3260   68.0400 C   0  0  0  0  0  0  0  0  0  0  0  0
    1.3740   68.7330   66.8030 C   0  0  0  0  0  0  0  0  0  0  0  0
    2.3750   68.6960   65.8290 C   0  0  0  0  0  0  0  0  0  0  0  0
    3.6340   69.2380   66.0860 C   0  0  0  0  0  0  0  0  0  0  0  0
    3.8880   69.8280   67.3270 C   0  0  0  0  0  0  0  0  0  0  0  0
    3.1360   70.5290   69.5250 N   0  0  0  0  0  0  0  0  0  0  0  0
    4.2515   67.8180   63.4359 H   0  0  0  0  0  0  0  0  0  0  0  0
    5.2997   63.4648   62.5668 H   0  0  0  0  0  0  0  0  0  0  0  0
    4.6073   62.2679   64.6301 H   0  0  0  0  0  0  0  0  0  0  0  0
    3.3144   63.5574   66.3127 H   0  0  0  0  0  0  0  0  0  0  0  0
    0.8442   69.3945   68.7942 H   0  0  0  0  0  0  0  0  0  0  0  0
    0.3840   68.2994   66.5982 H   0  0  0  0  0  0  0  0  0  0  0  0
    4.4207   69.2014   65.3181 H   0  0  0  0  0  0  0  0  0  0  0  0
    4.8661   70.2938   67.5177 H   0  0  0  0  0  0  0  0  0  0  0  0
    4.0728   70.9015   69.7362 H   0  0  0  0  0  0  0  0  0  0  0  0
    2.3639   70.6682   70.1924 H   0  0  0  0  0  0  0  0  0  0  0  0
  2  1  2  0
  3  1  2  0
  4  1  1  0
  5  4  1  0
  6  5  2  0
  7  6  1  0
  8  7  2  0
  9  8  1  0
 10  9  2  0
 10  5  1  0
 12 11  2  0
 13 12  1  0
 14  1  1  0
 14 13  2  0
 15 14  1  0
 16 15  2  0
 16 11  1  0
 17 11  1  0
  4 18  1  0
  7 19  1  0
  8 20  1  0
  9 21  1  0
 12 22  1  0
 13 23  1  0
 15 24  1  0
 16 25  1  0
 17 26  1  0
 17 27  1  0
M  END
>  <score>  (2) 
-8.303

$$$$
=
     RDKit          3D

 27 28  0  0  0  0  0  0  0  0999 V2000
    1.9650   67.8350   65.8840 S   0  0  0  0  0  6  0  0  0  0  0  0
    1.9810   68.8710   66.9010 O   0  0  0  0  0  0  0  0  0  0  0  0
    2.2250   66.4590   66.2520 O   0  0  0  0  0  0  0  0  0  0  0  0
    0.4900   67.9600   65.1350 N   0  0  0  0  0  0  0  0  0  0  0  0
   -0.6440   67.9000   65.9340 C   0  0  0  0  0  0  0  0  0  0  0  0
   -1.6350   68.6880   65.5030 N   0  0  0  0  0  0  0  0  0  0  0  0
   -2.8030   68.5550   66.1580 C   0  0  0  0  0  0  0  0  0  0  0  0
   -3.0060   67.6500   67.1740 C   0  0  0  0  0  0  0  0  0  0  0  0
   -1.9240   66.8620   67.4880 C   0  0  0  0  0  0  0  0  0  0  0  0
   -0.7350   66.9520   66.8680 N   0  0  0  0  0  0  0  0  0  0  0  0
    5.0160   69.0680   62.7060 C   0  0  0  0  0  0  0  0  0  0  0  0
    5.1570   69.4930   64.0300 C   0  0  0  0  0  0  0  0  0  0  0  0
    4.2300   69.1130   65.0050 C   0  0  0  0  0  0  0  0  0  0  0  0
    3.1240   68.3430   64.6370 C   0  0  0  0  0  0  0  0  0  0  0  0
    2.9440   67.9490   63.3110 C   0  0  0  0  0  0  0  0  0  0  0  0
    3.8780   68.3360   62.3470 C   0  0  0  0  0  0  0  0  0  0  0  0
    5.8830   69.5500   61.7170 N   0  0  0  0  0  0  0  0  0  0  0  0
    0.4180   68.0778   64.1143 H   0  0  0  0  0  0  0  0  0  0  0  0
   -3.6407   69.2050   65.8652 H   0  0  0  0  0  0  0  0  0  0  0  0
   -3.9685   67.5628   67.6994 H   0  0  0  0  0  0  0  0  0  0  0  0
   -2.0376   66.1177   68.2900 H   0  0  0  0  0  0  0  0  0  0  0  0
    6.0069   70.1337   64.3080 H   0  0  0  0  0  0  0  0  0  0  0  0
    4.3702   69.4176   66.0526 H   0  0  0  0  0  0  0  0  0  0  0  0
    2.0740   67.3388   63.0269 H   0  0  0  0  0  0  0  0  0  0  0  0
    3.7174   68.0624   61.2937 H   0  0  0  0  0  0  0  0  0  0  0  0
    5.7775   69.2356   60.7418 H   0  0  0  0  0  0  0  0  0  0  0  0
    6.6260   70.2188   61.9649 H   0  0  0  0  0  0  0  0  0  0  0  0
  2  1  2  0
  3  1  2  0
  4  1  1  0
  5  4  1  0
  6  5  2  0
  7  6  1  0
  8  7  2  0
  9  8  1  0
 10  9  2  0
 10  5  1  0
 12 11  2  0
 13 12  1  0
 14  1  1  0
 14 13  2  0
 15 14  1  0
 16 15  2  0
 16 11  1  0
 17 11  1  0
  4 18  1  0
  7 19  1  0
  8 20  1  0
  9 21  1  0
 12 22  1  0
 13 23  1  0
 15 24  1  0
 16 25  1  0
 17 26  1  0
 17 27  1  0
M  END
>  <score>  (3) 
-8.157

$$$$
=
     RDKit          3D

 27 28  0  0  0  0  0  0  0  0999 V2000
    1.3560   68.1040   66.4760 S   0  0  0  0  0  6  0  0  0  0  0  0
    0.2500   69.0260   66.2920 O   0  0  0  0  0  0  0  0  0  0  0  0
    1.1970   66.9470   67.3320 O   0  0  0  0  0  0  0  0  0  0  0  0
    1.8090   67.6320   64.9510 N   0  0  0  0  0  0  0  0  0  0  0  0
    1.3020   68.3520   63.8780 C   0  0  0  0  0  0  0  0  0  0  0  0
    2.1650   68.4670   62.8640 N   0  0  0  0  0  0  0  0  0  0  0  0
    1.6700   69.0280   61.7460 C   0  0  0  0  0  0  0  0  0  0  0  0
    0.3600   69.4250   61.6100 C   0  0  0  0  0  0  0  0  0  0  0  0
   -0.4410   69.2040   62.7060 C   0  0  0  0  0  0  0  0  0  0  0  0
    0.0020   68.6490   63.8480 N   0  0  0  0  0  0  0  0  0  0  0  0
    4.9160   70.5340   68.0100 C   0  0  0  0  0  0  0  0  0  0  0  0
    3.7530   70.4120   68.7770 C   0  0  0  0  0  0  0  0  0  0  0  0
    2.6660   69.6660   68.3140 C   0  0  0  0  0  0  0  0  0  0  0  0
    2.7260   69.0790   67.0480 C   0  0  0  0  0  0  0  0  0  0  0  0
    3.8610   69.2290   66.2500 C   0  0  0  0  0  0  0  0  0  0  0  0
    4.9400   69.9780   66.7250 C   0  0  0  0  0  0  0  0  0  0  0  0
    5.9510   71.3790   68.4300 N   0  0  0  0  0  0  0  0  0  0  0  0
    2.4434   66.8337   64.8059 H   0  0  0  0  0  0  0  0  0  0  0  0
    2.3498   69.1774   60.8942 H   0  0  0  0  0  0  0  0  0  0  0  0
   -0.0210   69.8877   60.6876 H   0  0  0  0  0  0  0  0  0  0  0  0
   -1.4996   69.4966   62.6452 H   0  0  0  0  0  0  0  0  0  0  0  0
    3.6932   70.9092   69.7564 H   0  0  0  0  0  0  0  0  0  0  0  0
    1.7708   69.5421   68.9411 H   0  0  0  0  0  0  0  0  0  0  0  0
    3.9055   68.7613   65.2554 H   0  0  0  0  0  0  0  0  0  0  0  0
    5.8190   70.1330   66.0821 H   0  0  0  0  0  0  0  0  0  0  0  0
    6.8064   71.4668   67.8629 H   0  0  0  0  0  0  0  0  0  0  0  0
    5.8568   71.9127   69.3059 H   0  0  0  0  0  0  0  0  0  0  0  0
  2  1  2  0
  3  1  2  0
  4  1  1  0
  5  4  1  0
  6  5  2  0
  7  6  1  0
  8  7  2  0
  9  8  1  0
 10  9  2  0
 10  5  1  0
 12 11  2  0
 13 12  1  0
 14  1  1  0
 14 13  2  0
 15 14  1  0
 16 15  2  0
 16 11  1  0
 17 11  1  0
  4 18  1  0
  7 19  1  0
  8 20  1  0
  9 21  1  0
 12 22  1  0
 13 23  1  0
 15 24  1  0
 16 25  1  0
 17 26  1  0
 17 27  1  0
M  END
>  <score>  (4) 
-8.076

$$$$
=
     RDKit          3D

 27 28  0  0  0  0  0  0  0  0999 V2000
    1.4320   67.5680   66.9790 S   0  0  0  0  0  6  0  0  0  0  0  0
    1.5420   66.8400   68.2290 O   0  0  0  0  0  0  0  0  0  0  0  0
    2.1640   68.8040   66.7970 O   0  0  0  0  0  0  0  0  0  0  0  0
    1.8320   66.4840   65.7870 N   0  0  0  0  0  0  0  0  0  0  0  0
    2.6190   66.9430   64.7390 C   0  0  0  0  0  0  0  0  0  0  0  0
    3.4760   66.0240   64.2820 N   0  0  0  0  0  0  0  0  0  0  0  0
    4.1560   66.3710   63.1740 C   0  0  0  0  0  0  0  0  0  0  0  0
    3.9710   67.5630   62.5110 C   0  0  0  0  0  0  0  0  0  0  0  0
    3.0240   68.3990   63.0510 C   0  0  0  0  0  0  0  0  0  0  0  0
    2.3170   68.1030   64.1550 N   0  0  0  0  0  0  0  0  0  0  0  0
   -3.0280   68.2650   66.2380 C   0  0  0  0  0  0  0  0  0  0  0  0
   -2.0670   68.9820   65.5200 C   0  0  0  0  0  0  0  0  0  0  0  0
   -0.7030   68.7680   65.7390 C   0  0  0  0  0  0  0  0  0  0  0  0
   -0.3010   67.8630   66.7250 C   0  0  0  0  0  0  0  0  0  0  0  0
   -1.2470   67.1730   67.4830 C   0  0  0  0  0  0  0  0  0  0  0  0
   -2.6070   67.3980   67.2530 C   0  0  0  0  0  0  0  0  0  0  0  0
   -4.3870   68.5720   66.0950 N   0  0  0  0  0  0  0  0  0  0  0  0
    1.5083   65.5069   65.8234 H   0  0  0  0  0  0  0  0  0  0  0  0
    4.8995   65.6643   62.7768 H   0  0  0  0  0  0  0  0  0  0  0  0
    4.5429   67.8283   61.6096 H   0  0  0  0  0  0  0  0  0  0  0  0
    2.8344   69.3616   62.5535 H   0  0  0  0  0  0  0  0  0  0  0  0
   -2.3877   69.7236   64.7736 H   0  0  0  0  0  0  0  0  0  0  0  0
    0.0467   69.3068   65.1409 H   0  0  0  0  0  0  0  0  0  0  0  0
   -0.9255   66.4582   68.2548 H   0  0  0  0  0  0  0  0  0  0  0  0
   -3.3555   66.8877   67.8770 H   0  0  0  0  0  0  0  0  0  0  0  0
   -5.0933   68.0420   66.6253 H   0  0  0  0  0  0  0  0  0  0  0  0
   -4.6802   69.3277   65.4595 H   0  0  0  0  0  0  0  0  0  0  0  0
  2  1  2  0
  3  1  2  0
  4  1  1  0
  5  4  1  0
  6  5  2  0
  7  6  1  0
  8  7  2  0
  9  8  1  0
 10  9  2  0
 10  5  1  0
 12 11  2  0
 13 12  1  0
 14  1  1  0
 14 13  2  0
 15 14  1  0
 16 15  2  0
 16 11  1  0
 17 11  1  0
  4 18  1  0
  7 19  1  0
  8 20  1  0
  9 21  1  0
 12 22  1  0
 13 23  1  0
 15 24  1  0
 16 25  1  0
 17 26  1  0
 17 27  1  0
M  END
>  <score>  (5) 
-7.927

$$$$
=
     RDKit          3D

 27 28  0  0  0  0  0  0  0  0999 V2000
    1.9170   68.0450   64.7510 S   0  0  0  0  0  6  0  0  0  0  0  0
    0.7360   67.9460   63.9120 O   0  0  0  0  0  0  0  0  0  0  0  0
    2.7440   69.2310   64.6950 O   0  0  0  0  0  0  0  0  0  0  0  0
    1.3910   67.7830   66.3030 N   0  0  0  0  0  0  0  0  0  0  0  0
    0.0210   67.7100   66.5140 C   0  0  0  0  0  0  0  0  0  0  0  0
   -0.3210   66.8340   67.4650 N   0  0  0  0  0  0  0  0  0  0  0  0
   -1.6220   66.8330   67.8070 C   0  0  0  0  0  0  0  0  0  0  0  0
   -2.5510   67.6930   67.2670 C   0  0  0  0  0  0  0  0  0  0  0  0
   -2.0640   68.5820   66.3380 C   0  0  0  0  0  0  0  0  0  0  0  0
   -0.7750   68.6250   65.9590 N   0  0  0  0  0  0  0  0  0  0  0  0
    4.5390   64.3980   63.8840 C   0  0  0  0  0  0  0  0  0  0  0  0
    4.8090   65.6290   63.2790 C   0  0  0  0  0  0  0  0  0  0  0  0
    4.0140   66.7470   63.5460 C   0  0  0  0  0  0  0  0  0  0  0  0
    2.9060   66.6150   64.3870 C   0  0  0  0  0  0  0  0  0  0  0  0
    2.5960   65.3830   64.9630 C   0  0  0  0  0  0  0  0  0  0  0  0
    3.3990   64.2740   64.6870 C   0  0  0  0  0  0  0  0  0  0  0  0
    5.2690   63.2600   63.5190 N   0  0  0  0  0  0  0  0  0  0  0  0
    2.0571   67.6783   67.0816 H   0  0  0  0  0  0  0  0  0  0  0  0
   -1.9617   66.1055   68.5589 H   0  0  0  0  0  0  0  0  0  0  0  0
   -3.6113   67.6706   67.5589 H   0  0  0  0  0  0  0  0  0  0  0  0
   -2.7658   69.2952   65.8811 H   0  0  0  0  0  0  0  0  0  0  0  0
    5.6573   65.7188   62.5845 H   0  0  0  0  0  0  0  0  0  0  0  0
    4.2582   67.7216   63.0983 H   0  0  0  0  0  0  0  0  0  0  0  0
    1.7261   65.2856   65.6292 H   0  0  0  0  0  0  0  0  0  0  0  0
    3.1326   63.2921   65.1053 H   0  0  0  0  0  0  0  0  0  0  0  0
    5.0683   62.3541   63.9661 H   0  0  0  0  0  0  0  0  0  0  0  0
    6.0066   63.3289   62.8034 H   0  0  0  0  0  0  0  0  0  0  0  0
  2  1  2  0
  3  1  2  0
  4  1  1  0
  5  4  1  0
  6  5  2  0
  7  6  1  0
  8  7  2  0
  9  8  1  0
 10  9  2  0
 10  5  1  0
 12 11  2  0
 13 12  1  0
 14  1  1  0
 14 13  2  0
 15 14  1  0
 16 15  2  0
 16 11  1  0
 17 11  1  0
  4 18  1  0
  7 19  1  0
  8 20  1  0
  9 21  1  0
 12 22  1  0
 13 23  1  0
 15 24  1  0
 16 25  1  0
 17 26  1  0
 17 27  1  0
M  END
>  <score>  (6) 
-7.813

$$$$
=
     RDKit          3D

 27 28  0  0  0  0  0  0  0  0999 V2000
    1.7990   68.2800   64.7220 S   0  0  0  0  0  6  0  0  0  0  0  0
    0.4250   67.9350   64.4060 O   0  0  0  0  0  0  0  0  0  0  0  0
    2.4070   69.4480   64.1190 O   0  0  0  0  0  0  0  0  0  0  0  0
    1.8700   68.3860   66.3770 N   0  0  0  0  0  0  0  0  0  0  0  0
    2.8100   69.2480   66.9260 C   0  0  0  0  0  0  0  0  0  0  0  0
    2.3870   69.8470   68.0440 N   0  0  0  0  0  0  0  0  0  0  0  0
    3.3130   70.5770   68.6930 C   0  0  0  0  0  0  0  0  0  0  0  0
    4.6220   70.6820   68.2830 C   0  0  0  0  0  0  0  0  0  0  0  0
    4.9440   69.9760   67.1480 C   0  0  0  0  0  0  0  0  0  0  0  0
    4.0600   69.2320   66.4610 N   0  0  0  0  0  0  0  0  0  0  0  0
    4.3860   64.6210   63.8030 C   0  0  0  0  0  0  0  0  0  0  0  0
    4.5440   65.8050   63.0760 C   0  0  0  0  0  0  0  0  0  0  0  0
    3.7600   66.9270   63.3590 C   0  0  0  0  0  0  0  0  0  0  0  0
    2.7720   66.8430   64.3430 C   0  0  0  0  0  0  0  0  0  0  0  0
    2.5710   65.6550   65.0460 C   0  0  0  0  0  0  0  0  0  0  0  0
    3.3620   64.5410   64.7530 C   0  0  0  0  0  0  0  0  0  0  0  0
    5.0940   63.4700   63.4340 N   0  0  0  0  0  0  0  0  0  0  0  0
    1.2398   67.8326   66.9749 H   0  0  0  0  0  0  0  0  0  0  0  0
    3.0067   71.1188   69.6000 H   0  0  0  0  0  0  0  0  0  0  0  0
    5.3608   71.2895   68.8263 H   0  0  0  0  0  0  0  0  0  0  0  0
    5.9805   70.0225   66.7826 H   0  0  0  0  0  0  0  0  0  0  0  0
    5.2936   65.8539   62.2725 H   0  0  0  0  0  0  0  0  0  0  0  0
    3.9196   67.8678   62.8118 H   0  0  0  0  0  0  0  0  0  0  0  0
    1.7962   65.5957   65.8246 H   0  0  0  0  0  0  0  0  0  0  0  0
    3.1775   63.5905   65.2751 H   0  0  0  0  0  0  0  0  0  0  0  0
    4.9763   62.5988   63.9707 H   0  0  0  0  0  0  0  0  0  0  0  0
    5.7323   63.4949   62.6260 H   0  0  0  0  0  0  0  0  0  0  0  0
  2  1  2  0
  3  1  2  0
  4  1  1  0
  5  4  1  0
  6  5  2  0
  7  6  1  0
  8  7  2  0
  9  8  1  0
 10  9  2  0
 10  5  1  0
 12 11  2  0
 13 12  1  0
 14  1  1  0
 14 13  2  0
 15 14  1  0
 16 15  2  0
 16 11  1  0
 17 11  1  0
  4 18  1  0
  7 19  1  0
  8 20  1  0
  9 21  1  0
 12 22  1  0
 13 23  1  0
 15 24  1  0
 16 25  1  0
 17 26  1  0
 17 27  1  0
M  END
>  <score>  (7) 
-7.8

$$$$
=
     RDKit          3D

 27 28  0  0  0  0  0  0  0  0999 V2000
    2.4580   67.3310   64.6330 S   0  0  0  0  0  6  0  0  0  0  0  0
    2.2130   66.1220   65.3980 O   0  0  0  0  0  0  0  0  0  0  0  0
    3.1780   67.2570   63.3790 O   0  0  0  0  0  0  0  0  0  0  0  0
    0.9700   68.0290   64.4010 N   0  0  0  0  0  0  0  0  0  0  0  0
    0.0880   68.0330   65.4730 C   0  0  0  0  0  0  0  0  0  0  0  0
   -0.6710   69.1320   65.5270 N   0  0  0  0  0  0  0  0  0  0  0  0
   -1.6400   69.1180   66.4600 C   0  0  0  0  0  0  0  0  0  0  0  0
   -1.8860   68.0440   67.2840 C   0  0  0  0  0  0  0  0  0  0  0  0
   -1.0710   66.9540   67.0940 C   0  0  0  0  0  0  0  0  0  0  0  0
   -0.0870   66.9150   66.1780 N   0  0  0  0  0  0  0  0  0  0  0  0
    4.5760   70.3020   67.3930 C   0  0  0  0  0  0  0  0  0  0  0  0
    5.1940   69.8530   66.2220 C   0  0  0  0  0  0  0  0  0  0  0  0
    4.5470   68.9500   65.3730 C   0  0  0  0  0  0  0  0  0  0  0  0
    3.2910   68.4530   65.7290 C   0  0  0  0  0  0  0  0  0  0  0  0
    2.6800   68.8550   66.9170 C   0  0  0  0  0  0  0  0  0  0  0  0
    3.3380   69.7580   67.7560 C   0  0  0  0  0  0  0  0  0  0  0  0
    5.2790   71.1130   68.2920 N   0  0  0  0  0  0  0  0  0  0  0  0
    0.7105   68.4440   63.4947 H   0  0  0  0  0  0  0  0  0  0  0  0
   -2.2695   70.0133   66.5700 H   0  0  0  0  0  0  0  0  0  0  0  0
   -2.6814   68.0570   68.0437 H   0  0  0  0  0  0  0  0  0  0  0  0
   -1.2319   66.0669   67.7242 H   0  0  0  0  0  0  0  0  0  0  0  0
    6.2008   70.2143   65.9657 H   0  0  0  0  0  0  0  0  0  0  0  0
    5.0228   68.6337   64.4330 H   0  0  0  0  0  0  0  0  0  0  0  0
    1.6888   68.4644   67.1908 H   0  0  0  0  0  0  0  0  0  0  0  0
    2.8779   70.0449   68.7131 H   0  0  0  0  0  0  0  0  0  0  0  0
    4.8218   71.4427   69.1541 H   0  0  0  0  0  0  0  0  0  0  0  0
    6.2533   71.3800   68.0913 H   0  0  0  0  0  0  0  0  0  0  0  0
  2  1  2  0
  3  1  2  0
  4  1  1  0
  5  4  1  0
  6  5  2  0
  7  6  1  0
  8  7  2  0
  9  8  1  0
 10  9  2  0
 10  5  1  0
 12 11  2  0
 13 12  1  0
 14  1  1  0
 14 13  2  0
 15 14  1  0
 16 15  2  0
 16 11  1  0
 17 11  1  0
  4 18  1  0
  7 19  1  0
  8 20  1  0
  9 21  1  0
 12 22  1  0
 13 23  1  0
 15 24  1  0
 16 25  1  0
 17 26  1  0
 17 27  1  0
M  END
>  <score>  (8) 
-7.6

$$$$
=
     RDKit          3D

 27 28  0  0  0  0  0  0  0  0999 V2000
    1.5700   67.7220   67.1070 S   0  0  0  0  0  6  0  0  0  0  0  0
    1.9150   66.4780   66.4430 O   0  0  0  0  0  0  0  0  0  0  0  0
    1.6500   67.8170   68.5490 O   0  0  0  0  0  0  0  0  0  0  0  0
    2.5180   68.8880   66.4020 N   0  0  0  0  0  0  0  0  0  0  0  0
    3.5130   69.4640   67.1800 C   0  0  0  0  0  0  0  0  0  0  0  0
    4.6170   69.7640   66.4880 N   0  0  0  0  0  0  0  0  0  0  0  0
    5.5520   70.4560   67.1650 C   0  0  0  0  0  0  0  0  0  0  0  0
    5.3920   70.8780   68.4650 C   0  0  0  0  0  0  0  0  0  0  0  0
    4.1910   70.5520   69.0490 C   0  0  0  0  0  0  0  0  0  0  0  0
    3.2240   69.8630   68.4200 N   0  0  0  0  0  0  0  0  0  0  0  0
   -2.6660   68.6880   65.6750 C   0  0  0  0  0  0  0  0  0  0  0  0
   -1.5540   69.0780   64.9220 C   0  0  0  0  0  0  0  0  0  0  0  0
   -0.2580   68.7790   65.3540 C   0  0  0  0  0  0  0  0  0  0  0  0
   -0.0750   68.1300   66.5770 C   0  0  0  0  0  0  0  0  0  0  0  0
   -1.1730   67.7750   67.3620 C   0  0  0  0  0  0  0  0  0  0  0  0
   -2.4620   68.0800   66.9180 C   0  0  0  0  0  0  0  0  0  0  0  0
   -3.9510   69.0950   65.2930 N   0  0  0  0  0  0  0  0  0  0  0  0
    2.3733   69.1737   65.4231 H   0  0  0  0  0  0  0  0  0  0  0  0
    6.4945   70.6972   66.6517 H   0  0  0  0  0  0  0  0  0  0  0  0
    6.1724   71.4383   69.0007 H   0  0  0  0  0  0  0  0  0  0  0  0
    4.0122   70.8721   70.0861 H   0  0  0  0  0  0  0  0  0  0  0  0
   -1.7003   69.6260   63.9795 H   0  0  0  0  0  0  0  0  0  0  0  0
    0.6098   69.0526   64.7359 H   0  0  0  0  0  0  0  0  0  0  0  0
   -1.0247   67.2594   68.3223 H   0  0  0  0  0  0  0  0  0  0  0  0
   -3.3269   67.8391   67.5536 H   0  0  0  0  0  0  0  0  0  0  0  0
   -4.7690   68.8069   65.8487 H   0  0  0  0  0  0  0  0  0  0  0  0
   -4.0778   69.6824   64.4564 H   0  0  0  0  0  0  0  0  0  0  0  0
  2  1  2  0
  3  1  2  0
  4  1  1  0
  5  4  1  0
  6  5  2  0
  7  6  1  0
  8  7  2  0
  9  8  1  0
 10  9  2  0
 10  5  1  0
 12 11  2  0
 13 12  1  0
 14  1  1  0
 14 13  2  0
 15 14  1  0
 16 15  2  0
 16 11  1  0
 17 11  1  0
  4 18  1  0
  7 19  1  0
  8 20  1  0
  9 21  1  0
 12 22  1  0
 13 23  1  0
 15 24  1  0
 16 25  1  0
 17 26  1  0
 17 27  1  0
M  END
>  <score>  (9) 
-7.352

$$$$
