=
     RDKit          3D

 47 48  0  0  0  0  0  0  0  0999 V2000
    2.1100   69.1340   68.0990 C   0  0  0  0  0  0  0  0  0  0  0  0
    2.6540   69.7660   69.2290 C   0  0  0  0  0  0  0  0  0  0  0  0
    3.8910   70.4130   69.1660 C   0  0  0  0  0  0  0  0  0  0  0  0
    4.5930   70.4420   67.9620 C   0  0  0  0  0  0  0  0  0  0  0  0
    4.0760   69.8150   66.8280 C   0  0  0  0  0  0  0  0  0  0  0  0
    2.8310   69.1620   66.8840 C   0  0  0  0  0  0  0  0  0  0  0  0
    2.3750   68.5200   65.6070 C   0  0  0  0  0  0  0  0  0  0  0  0
    1.5870   69.0910   64.8540 O   0  0  0  0  0  0  0  0  0  0  0  0
    2.8520   67.2640   65.2900 N   0  0  0  0  0  0  0  0  0  0  0  0
    2.6240   66.7050   63.9750 C   0  0  0  0  0  0  0  0  0  0  0  0
    3.7100   67.1050   62.9500 C   0  0  2  0  0  0  0  0  0  0  0  0
    5.1390   66.9730   63.4900 C   0  0  0  0  0  0  0  0  0  0  0  0
    5.6020   68.3930   63.7590 C   0  0  0  0  0  0  0  0  0  0  0  0
    4.9580   69.1800   62.6390 C   0  0  0  0  0  0  0  0  0  0  0  0
    3.5720   68.5940   62.5780 N   0  0  1  0  0  4  0  0  0  0  0  0
    2.8360   68.7910   61.2750 C   0  0  0  0  0  0  0  0  0  0  0  0
    1.3970   69.1910   61.5380 C   0  0  0  0  0  0  0  0  0  0  0  0
    6.1810   71.2210   67.8960 S   0  0  0  0  0  6  0  0  0  0  0  0
    6.0080   72.6410   68.0830 O   0  0  0  0  0  0  0  0  0  0  0  0
    7.1190   70.4380   68.6650 O   0  0  0  0  0  0  0  0  0  0  0  0
    6.6030   71.0020   66.2870 N   0  0  0  0  0  0  0  0  0  0  0  0
    0.8370   67.2270   68.7980 C   0  0  0  0  0  0  0  0  0  0  0  0
    0.9040   68.4760   68.1130 O   0  0  0  0  0  0  0  0  0  0  0  0
    2.0980   69.7515   70.1780 H   0  0  0  0  0  0  0  0  0  0  0  0
    4.3084   70.8967   70.0614 H   0  0  0  0  0  0  0  0  0  0  0  0
    4.6441   69.8312   65.8862 H   0  0  0  0  0  0  0  0  0  0  0  0
    3.3732   66.7216   65.9936 H   0  0  0  0  0  0  0  0  0  0  0  0
    2.6083   65.6083   64.0586 H   0  0  0  0  0  0  0  0  0  0  0  0
    1.6658   67.1037   63.6105 H   0  0  0  0  0  0  0  0  0  0  0  0
    3.5564   66.4229   62.1008 H   0  0  0  0  0  0  0  0  0  0  0  0
    5.1464   66.3835   64.4187 H   0  0  0  0  0  0  0  0  0  0  0  0
    5.7989   66.4560   62.7778 H   0  0  0  0  0  0  0  0  0  0  0  0
    5.2513   68.7437   64.7408 H   0  0  0  0  0  0  0  0  0  0  0  0
    6.6971   68.4938   63.7851 H   0  0  0  0  0  0  0  0  0  0  0  0
    4.9248   70.2535   62.8765 H   0  0  0  0  0  0  0  0  0  0  0  0
    5.5038   69.1107   61.6865 H   0  0  0  0  0  0  0  0  0  0  0  0
    2.9744   69.1051   63.2432 H   0  0  0  0  0  0  0  0  0  0  0  0
    3.3322   69.5825   60.6941 H   0  0  0  0  0  0  0  0  0  0  0  0
    2.8473   67.8463   60.7116 H   0  0  0  0  0  0  0  0  0  0  0  0
    1.2224   69.2395   62.6230 H   0  0  0  0  0  0  0  0  0  0  0  0
    1.2030   70.1771   61.0909 H   0  0  0  0  0  0  0  0  0  0  0  0
    0.7219   68.4465   61.0909 H   0  0  0  0  0  0  0  0  0  0  0  0
    7.5160   70.5282   66.2329 H   0  0  0  0  0  0  0  0  0  0  0  0
    5.8887   70.4252   65.8201 H   0  0  0  0  0  0  0  0  0  0  0  0
    0.8465   67.4033   69.8837 H   0  0  0  0  0  0  0  0  0  0  0  0
   -0.0904   66.7053   68.5193 H   0  0  0  0  0  0  0  0  0  0  0  0
    1.7033   66.6090   68.5193 H   0  0  0  0  0  0  0  0  0  0  0  0
  2  1  2  0
  3  2  1  0
  4  3  2  0
  5  4  1  0
  6  5  2  0
  6  1  1  0
  7  6  1  0
  8  7  2  0
  9  7  1  0
 10  9  1  0
 11 10  1  0
 12 11  1  0
 13 12  1  0
 14 13  1  0
 15 14  1  0
 15 11  1  0
 16 15  1  0
 17 16  1  0
 18  4  1  0
 19 18  2  0
 20 18  2  0
 21 18  1  0
 23 22  1  0
 23  1  1  0
  2 24  1  0
  3 25  1  0
  5 26  1  0
  9 27  1  0
 10 28  1  0
 10 29  1  0
 11 30  1  6
 12 31  1  0
 12 32  1  0
 13 33  1  0
 13 34  1  0
 14 35  1  0
 14 36  1  0
 15 37  1  1
 16 38  1  0
 16 39  1  0
 17 40  1  0
 17 41  1  0
 17 42  1  0
 21 43  1  0
 21 44  1  0
 22 45  1  0
 22 46  1  0
 22 47  1  0
M  CHG  1  15   1
M  END
>  <score>  (1) 
-8.491

$$$$
=
     RDKit          3D

 47 48  0  0  0  0  0  0  0  0999 V2000
    4.6450   69.1520   64.2900 C   0  0  0  0  0  0  0  0  0  0  0  0
    5.8420   69.8650   64.4640 C   0  0  0  0  0  0  0  0  0  0  0  0
    6.2020   70.3710   65.7160 C   0  0  0  0  0  0  0  0  0  0  0  0
    5.3660   70.1590   66.8120 C   0  0  0  0  0  0  0  0  0  0  0  0
    4.1690   69.4600   66.6610 C   0  0  0  0  0  0  0  0  0  0  0  0
    3.8000   68.9460   65.4040 C   0  0  0  0  0  0  0  0  0  0  0  0
    2.4910   68.2150   65.3580 C   0  0  0  0  0  0  0  0  0  0  0  0
    2.4470   66.9860   65.3830 O   0  0  0  0  0  0  0  0  0  0  0  0
    1.3240   68.9510   65.2790 N   0  0  0  0  0  0  0  0  0  0  0  0
    0.0410   68.3080   65.4600 C   0  0  0  0  0  0  0  0  0  0  0  0
   -0.4570   68.3530   66.9240 C   0  0  2  0  0  0  0  0  0  0  0  0
    0.6070   68.8330   67.9170 C   0  0  0  0  0  0  0  0  0  0  0  0
    1.0620   67.5880   68.6540 C   0  0  0  0  0  0  0  0  0  0  0  0
   -0.2080   66.7740   68.7690 C   0  0  0  0  0  0  0  0  0  0  0  0
   -0.8280   66.9380   67.4060 N   0  0  1  0  0  4  0  0  0  0  0  0
   -2.3140   66.6790   67.3280 C   0  0  0  0  0  0  0  0  0  0  0  0
   -3.0490   67.9460   66.9380 C   0  0  0  0  0  0  0  0  0  0  0  0
    5.8010   70.8420   68.3860 S   0  0  0  0  0  6  0  0  0  0  0  0
    4.7350   70.5660   69.3200 O   0  0  0  0  0  0  0  0  0  0  0  0
    7.1830   70.5360   68.6630 O   0  0  0  0  0  0  0  0  0  0  0  0
    5.7430   72.4890   68.0720 N   0  0  0  0  0  0  0  0  0  0  0  0
    4.8910   67.4670   62.6040 C   0  0  0  0  0  0  0  0  0  0  0  0
    4.2410   68.6440   63.0790 O   0  0  0  0  0  0  0  0  0  0  0  0
    6.5061   70.0277   63.6023 H   0  0  0  0  0  0  0  0  0  0  0  0
    7.1396   70.9334   65.8363 H   0  0  0  0  0  0  0  0  0  0  0  0
    3.5099   69.3096   67.5287 H   0  0  0  0  0  0  0  0  0  0  0  0
    1.3680   69.9626   65.0903 H   0  0  0  0  0  0  0  0  0  0  0  0
   -0.6982   68.8152   64.8226 H   0  0  0  0  0  0  0  0  0  0  0  0
    0.1621   67.2495   65.1862 H   0  0  0  0  0  0  0  0  0  0  0  0
   -1.3081   69.0496   66.9080 H   0  0  0  0  0  0  0  0  0  0  0  0
    1.4511   69.2942   67.3834 H   0  0  0  0  0  0  0  0  0  0  0  0
    0.2101   69.5935   68.6055 H   0  0  0  0  0  0  0  0  0  0  0  0
    1.8275   67.0463   68.0790 H   0  0  0  0  0  0  0  0  0  0  0  0
    1.5250   67.8068   69.6275 H   0  0  0  0  0  0  0  0  0  0  0  0
    0.0151   65.7176   68.9792 H   0  0  0  0  0  0  0  0  0  0  0  0
   -0.8637   67.0998   69.5899 H   0  0  0  0  0  0  0  0  0  0  0  0
   -0.4486   66.2071   66.7874 H   0  0  0  0  0  0  0  0  0  0  0  0
   -2.5077   65.9008   66.5751 H   0  0  0  0  0  0  0  0  0  0  0  0
   -2.6716   66.3469   68.3138 H   0  0  0  0  0  0  0  0  0  0  0  0
   -3.3607   68.4833   67.8458 H   0  0  0  0  0  0  0  0  0  0  0  0
   -2.3830   68.5878   66.3426 H   0  0  0  0  0  0  0  0  0  0  0  0
   -3.9367   67.6864   66.3426 H   0  0  0  0  0  0  0  0  0  0  0  0
    5.7247   73.0077   68.9617 H   0  0  0  0  0  0  0  0  0  0  0  0
    6.5748   72.7648   67.5308 H   0  0  0  0  0  0  0  0  0  0  0  0
    5.2251   66.8620   63.4597 H   0  0  0  0  0  0  0  0  0  0  0  0
    4.1884   66.8814   61.9929 H   0  0  0  0  0  0  0  0  0  0  0  0
    5.7609   67.7497   61.9929 H   0  0  0  0  0  0  0  0  0  0  0  0
  2  1  2  0
  3  2  1  0
  4  3  2  0
  5  4  1  0
  6  5  2  0
  6  1  1  0
  7  6  1  0
  8  7  2  0
  9  7  1  0
 10  9  1  0
 11 10  1  0
 12 11  1  0
 13 12  1  0
 14 13  1  0
 15 14  1  0
 15 11  1  0
 16 15  1  0
 17 16  1  0
 18  4  1  0
 19 18  2  0
 20 18  2  0
 21 18  1  0
 23 22  1  0
 23  1  1  0
  2 24  1  0
  3 25  1  0
  5 26  1  0
  9 27  1  0
 10 28  1  0
 10 29  1  0
 11 30  1  6
 12 31  1  0
 12 32  1  0
 13 33  1  0
 13 34  1  0
 14 35  1  0
 14 36  1  0
 15 37  1  6
 16 38  1  0
 16 39  1  0
 17 40  1  0
 17 41  1  0
 17 42  1  0
 21 43  1  0
 21 44  1  0
 22 45  1  0
 22 46  1  0
 22 47  1  0
M  CHG  1  15   1
M  END
>  <score>  (2) 
-8.277

$$$$
=
     RDKit          3D

 47 48  0  0  0  0  0  0  0  0999 V2000
    2.1720   68.5190   63.0210 C   0  0  0  0  0  0  0  0  0  0  0  0
    0.8310   68.4600   62.6090 C   0  0  0  0  0  0  0  0  0  0  0  0
   -0.2110   68.5200   63.5390 C   0  0  0  0  0  0  0  0  0  0  0  0
    0.0820   68.6510   64.8950 C   0  0  0  0  0  0  0  0  0  0  0  0
    1.4070   68.7040   65.3290 C   0  0  0  0  0  0  0  0  0  0  0  0
    2.4610   68.6450   64.3990 C   0  0  0  0  0  0  0  0  0  0  0  0
    3.8440   68.7070   64.9770 C   0  0  0  0  0  0  0  0  0  0  0  0
    4.7430   67.9790   64.5580 O   0  0  0  0  0  0  0  0  0  0  0  0
    4.0930   69.5990   66.0020 N   0  0  0  0  0  0  0  0  0  0  0  0
    5.4500   69.8560   66.4330 C   0  0  0  0  0  0  0  0  0  0  0  0
    5.5370   70.9150   67.5570 C   0  0  2  0  0  0  0  0  0  0  0  0
    6.9740   71.3310   67.8950 C   0  0  0  0  0  0  0  0  0  0  0  0
    7.2890   70.6540   69.2160 C   0  0  0  0  0  0  0  0  0  0  0  0
    5.9670   70.7060   69.9510 C   0  0  0  0  0  0  0  0  0  0  0  0
    4.9780   70.3450   68.8740 N   0  0  1  0  0  4  0  0  0  0  0  0
    3.5530   70.7770   69.1240 C   0  0  0  0  0  0  0  0  0  0  0  0
    2.6110   69.5990   68.9730 C   0  0  0  0  0  0  0  0  0  0  0  0
   -1.2370   68.6790   66.0750 S   0  0  0  0  0  6  0  0  0  0  0  0
   -1.4610   67.3350   66.5510 O   0  0  0  0  0  0  0  0  0  0  0  0
   -1.0480   69.8020   66.9610 O   0  0  0  0  0  0  0  0  0  0  0  0
   -2.5530   69.0650   65.1080 N   0  0  0  0  0  0  0  0  0  0  0  0
    3.0540   69.0100   60.8470 C   0  0  0  0  0  0  0  0  0  0  0  0
    3.2300   68.4530   62.1490 O   0  0  0  0  0  0  0  0  0  0  0  0
    0.5968   68.3651   61.5384 H   0  0  0  0  0  0  0  0  0  0  0  0
   -1.2567   68.4641   63.2021 H   0  0  0  0  0  0  0  0  0  0  0  0
    1.6284   68.7923   66.4029 H   0  0  0  0  0  0  0  0  0  0  0  0
    3.3088   70.0835   66.4616 H   0  0  0  0  0  0  0  0  0  0  0  0
    5.8842   68.9156   66.8031 H   0  0  0  0  0  0  0  0  0  0  0  0
    6.0013   70.2499   65.5665 H   0  0  0  0  0  0  0  0  0  0  0  0
    4.9685   71.7753   67.1740 H   0  0  0  0  0  0  0  0  0  0  0  0
    7.6677   70.9897   67.1125 H   0  0  0  0  0  0  0  0  0  0  0  0
    7.0790   72.4240   67.9601 H   0  0  0  0  0  0  0  0  0  0  0  0
    7.6135   69.6146   69.0598 H   0  0  0  0  0  0  0  0  0  0  0  0
    8.1093   71.1386   69.7659 H   0  0  0  0  0  0  0  0  0  0  0  0
    5.9414   69.9769   70.7742 H   0  0  0  0  0  0  0  0  0  0  0  0
    5.7658   71.6799   70.4212 H   0  0  0  0  0  0  0  0  0  0  0  0
    4.8912   69.3191   68.8448 H   0  0  0  0  0  0  0  0  0  0  0  0
    3.4697   71.1795   70.1443 H   0  0  0  0  0  0  0  0  0  0  0  0
    3.2797   71.5495   68.3902 H   0  0  0  0  0  0  0  0  0  0  0  0
    2.3186   69.2334   69.9684 H   0  0  0  0  0  0  0  0  0  0  0  0
    1.7140   69.9153   68.4205 H   0  0  0  0  0  0  0  0  0  0  0  0
    3.1169   68.7935   68.4205 H   0  0  0  0  0  0  0  0  0  0  0  0
   -3.3592   69.3015   65.7038 H   0  0  0  0  0  0  0  0  0  0  0  0
   -2.3171   69.8722   64.5133 H   0  0  0  0  0  0  0  0  0  0  0  0
    2.7237   70.0554   60.9370 H   0  0  0  0  0  0  0  0  0  0  0  0
    4.0077   68.9726   60.3002 H   0  0  0  0  0  0  0  0  0  0  0  0
    2.2949   68.4314   60.3002 H   0  0  0  0  0  0  0  0  0  0  0  0
  2  1  2  0
  3  2  1  0
  4  3  2  0
  5  4  1  0
  6  5  2  0
  6  1  1  0
  7  6  1  0
  8  7  2  0
  9  7  1  0
 10  9  1  0
 11 10  1  0
 12 11  1  0
 13 12  1  0
 14 13  1  0
 15 14  1  0
 15 11  1  0
 16 15  1  0
 17 16  1  0
 18  4  1  0
 19 18  2  0
 20 18  2  0
 21 18  1  0
 23 22  1  0
 23  1  1  0
  2 24  1  0
  3 25  1  0
  5 26  1  0
  9 27  1  0
 10 28  1  0
 10 29  1  0
 11 30  1  6
 12 31  1  0
 12 32  1  0
 13 33  1  0
 13 34  1  0
 14 35  1  0
 14 36  1  0
 15 37  1  6
 16 38  1  0
 16 39  1  0
 17 40  1  0
 17 41  1  0
 17 42  1  0
 21 43  1  0
 21 44  1  0
 22 45  1  0
 22 46  1  0
 22 47  1  0
M  CHG  1  15   1
M  END
>  <score>  (3) 
-7.68

$$$$
=
     RDKit          3D

 47 48  0  0  0  0  0  0  0  0999 V2000
    3.9810   68.8490   65.1890 C   0  0  0  0  0  0  0  0  0  0  0  0
    5.3210   69.2160   64.9870 C   0  0  0  0  0  0  0  0  0  0  0  0
    6.0350   69.9020   65.9730 C   0  0  0  0  0  0  0  0  0  0  0  0
    5.4140   70.2190   67.1790 C   0  0  0  0  0  0  0  0  0  0  0  0
    4.0810   69.8710   67.4000 C   0  0  0  0  0  0  0  0  0  0  0  0
    3.3550   69.1790   66.4130 C   0  0  0  0  0  0  0  0  0  0  0  0
    1.9310   68.8590   66.7560 C   0  0  0  0  0  0  0  0  0  0  0  0
    1.3120   69.5220   67.5880 O   0  0  0  0  0  0  0  0  0  0  0  0
    1.3210   67.7940   66.1230 N   0  0  0  0  0  0  0  0  0  0  0  0
   -0.1060   67.5880   66.2500 C   0  0  0  0  0  0  0  0  0  0  0  0
   -0.9350   68.8250   65.8320 C   0  0  2  0  0  0  0  0  0  0  0  0
   -2.2050   69.0220   66.6700 C   0  0  0  0  0  0  0  0  0  0  0  0
   -3.3500   68.5930   65.7710 C   0  0  0  0  0  0  0  0  0  0  0  0
   -2.9000   69.0510   64.4010 C   0  0  0  0  0  0  0  0  0  0  0  0
   -1.4440   68.6650   64.3870 N   0  0  1  0  0  4  0  0  0  0  0  0
   -0.5820   69.4050   63.3930 C   0  0  0  0  0  0  0  0  0  0  0  0
    0.0560   68.4300   62.4220 C   0  0  0  0  0  0  0  0  0  0  0  0
    6.3060   71.1300   68.4080 S   0  0  0  0  0  6  0  0  0  0  0  0
    7.6270   70.5640   68.5360 O   0  0  0  0  0  0  0  0  0  0  0  0
    6.0740   72.5400   68.2050 O   0  0  0  0  0  0  0  0  0  0  0  0
    5.4760   70.7200   69.8070 N   0  0  0  0  0  0  0  0  0  0  0  0
    3.6090   68.3260   62.8800 C   0  0  0  0  0  0  0  0  0  0  0  0
    3.2330   68.1840   64.2480 O   0  0  0  0  0  0  0  0  0  0  0  0
    5.8161   68.9598   64.0387 H   0  0  0  0  0  0  0  0  0  0  0  0
    7.0820   70.1902   65.7978 H   0  0  0  0  0  0  0  0  0  0  0  0
    3.5955   70.1388   68.3500 H   0  0  0  0  0  0  0  0  0  0  0  0
    1.8844   67.1430   65.5576 H   0  0  0  0  0  0  0  0  0  0  0  0
   -0.3958   66.7400   65.6121 H   0  0  0  0  0  0  0  0  0  0  0  0
   -0.3171   67.3941   67.3120 H   0  0  0  0  0  0  0  0  0  0  0  0
   -0.2516   69.6765   65.9656 H   0  0  0  0  0  0  0  0  0  0  0  0
   -2.1704   68.3968   67.5744 H   0  0  0  0  0  0  0  0  0  0  0  0
   -2.3164   70.0634   67.0064 H   0  0  0  0  0  0  0  0  0  0  0  0
   -3.4857   67.5017   65.7978 H   0  0  0  0  0  0  0  0  0  0  0  0
   -4.3190   69.0174   66.0724 H   0  0  0  0  0  0  0  0  0  0  0  0
   -3.4560   68.5320   63.6064 H   0  0  0  0  0  0  0  0  0  0  0  0
   -3.0702   70.1226   64.2203 H   0  0  0  0  0  0  0  0  0  0  0  0
   -1.3695   67.6923   64.0565 H   0  0  0  0  0  0  0  0  0  0  0  0
   -1.2042   70.1193   62.8339 H   0  0  0  0  0  0  0  0  0  0  0  0
    0.2109   69.9406   63.9356 H   0  0  0  0  0  0  0  0  0  0  0  0
    0.5738   67.6387   62.9840 H   0  0  0  0  0  0  0  0  0  0  0  0
   -0.7231   67.9803   61.7889 H   0  0  0  0  0  0  0  0  0  0  0  0
    0.7800   68.9639   61.7889 H   0  0  0  0  0  0  0  0  0  0  0  0
    6.0322   70.9948   70.6292 H   0  0  0  0  0  0  0  0  0  0  0  0
    4.5706   71.2108   69.8254 H   0  0  0  0  0  0  0  0  0  0  0  0
    4.6366   68.7141   62.8205 H   0  0  0  0  0  0  0  0  0  0  0  0
    3.5576   67.3465   62.3820 H   0  0  0  0  0  0  0  0  0  0  0  0
    2.9229   69.0270   62.3820 H   0  0  0  0  0  0  0  0  0  0  0  0
  2  1  2  0
  3  2  1  0
  4  3  2  0
  5  4  1  0
  6  5  2  0
  6  1  1  0
  7  6  1  0
  8  7  2  0
  9  7  1  0
 10  9  1  0
 11 10  1  0
 12 11  1  0
 13 12  1  0
 14 13  1  0
 15 14  1  0
 15 11  1  0
 16 15  1  0
 17 16  1  0
 18  4  1  0
 19 18  2  0
 20 18  2  0
 21 18  1  0
 23 22  1  0
 23  1  1  0
  2 24  1  0
  3 25  1  0
  5 26  1  0
  9 27  1  0
 10 28  1  0
 10 29  1  0
 11 30  1  6
 12 31  1  0
 12 32  1  0
 13 33  1  0
 13 34  1  0
 14 35  1  0
 14 36  1  0
 15 37  1  6
 16 38  1  0
 16 39  1  0
 17 40  1  0
 17 41  1  0
 17 42  1  0
 21 43  1  0
 21 44  1  0
 22 45  1  0
 22 46  1  0
 22 47  1  0
M  CHG  1  15   1
M  END
>  <score>  (4) 
-7.577

$$$$
=
     RDKit          3D

 47 48  0  0  0  0  0  0  0  0999 V2000
    2.0740   69.0420   68.1170 C   0  0  0  0  0  0  0  0  0  0  0  0
    2.7250   69.7340   69.1490 C   0  0  0  0  0  0  0  0  0  0  0  0
    3.9670   70.3390   68.9390 C   0  0  0  0  0  0  0  0  0  0  0  0
    4.5670   70.2640   67.6830 C   0  0  0  0  0  0  0  0  0  0  0  0
    3.9420   69.5750   66.6430 C   0  0  0  0  0  0  0  0  0  0  0  0
    2.6910   68.9640   66.8470 C   0  0  0  0  0  0  0  0  0  0  0  0
    2.1150   68.2490   65.6610 C   0  0  0  0  0  0  0  0  0  0  0  0
    1.7560   68.8650   64.6590 O   0  0  0  0  0  0  0  0  0  0  0  0
    1.9860   66.8750   65.7150 N   0  0  0  0  0  0  0  0  0  0  0  0
    1.6520   66.1250   64.5240 C   0  0  0  0  0  0  0  0  0  0  0  0
    2.8970   65.5920   63.7750 C   0  0  2  0  0  0  0  0  0  0  0  0
    3.4380   64.2770   64.3460 C   0  0  0  0  0  0  0  0  0  0  0  0
    4.6960   64.6540   65.1060 C   0  0  0  0  0  0  0  0  0  0  0  0
    5.2820   65.7690   64.2670 C   0  0  0  0  0  0  0  0  0  0  0  0
    4.0670   66.5850   63.9100 N   0  0  1  0  0  4  0  0  0  0  0  0
    4.2080   67.4700   62.6950 C   0  0  0  0  0  0  0  0  0  0  0  0
    5.4130   68.3780   62.8420 C   0  0  0  0  0  0  0  0  0  0  0  0
    6.1610   70.9900   67.4310 S   0  0  0  0  0  6  0  0  0  0  0  0
    7.0990   70.3750   68.3400 O   0  0  0  0  0  0  0  0  0  0  0  0
    6.4050   71.1040   66.0140 O   0  0  0  0  0  0  0  0  0  0  0  0
    5.9170   72.5540   67.9880 N   0  0  0  0  0  0  0  0  0  0  0  0
    0.8290   67.1990   69.0090 C   0  0  0  0  0  0  0  0  0  0  0  0
    0.8590   68.4210   68.2750 O   0  0  0  0  0  0  0  0  0  0  0  0
    2.2504   69.8015   70.1391 H   0  0  0  0  0  0  0  0  0  0  0  0
    4.4686   70.8716   69.7605 H   0  0  0  0  0  0  0  0  0  0  0  0
    4.4295   69.5092   65.6591 H   0  0  0  0  0  0  0  0  0  0  0  0
    2.1284   66.3818   66.6079 H   0  0  0  0  0  0  0  0  0  0  0  0
    1.0242   65.2693   64.8133 H   0  0  0  0  0  0  0  0  0  0  0  0
    1.1258   66.8088   63.8418 H   0  0  0  0  0  0  0  0  0  0  0  0
    2.5587   65.4484   62.7382 H   0  0  0  0  0  0  0  0  0  0  0  0
    2.7017   63.8200   65.0235 H   0  0  0  0  0  0  0  0  0  0  0  0
    3.6437   63.5416   63.5543 H   0  0  0  0  0  0  0  0  0  0  0  0
    4.4544   65.0073   66.1193 H   0  0  0  0  0  0  0  0  0  0  0  0
    5.3864   63.8092   65.2459 H   0  0  0  0  0  0  0  0  0  0  0  0
    6.0039   66.3640   64.8456 H   0  0  0  0  0  0  0  0  0  0  0  0
    5.8406   65.4095   63.3903 H   0  0  0  0  0  0  0  0  0  0  0  0
    3.9062   67.2720   64.6604 H   0  0  0  0  0  0  0  0  0  0  0  0
    4.3342   66.8415   61.8011 H   0  0  0  0  0  0  0  0  0  0  0  0
    3.3039   68.0887   62.5963 H   0  0  0  0  0  0  0  0  0  0  0  0
    5.6241   68.5371   63.9098 H   0  0  0  0  0  0  0  0  0  0  0  0
    6.2851   67.9106   62.3615 H   0  0  0  0  0  0  0  0  0  0  0  0
    5.2041   69.3452   62.3615 H   0  0  0  0  0  0  0  0  0  0  0  0
    5.9168   72.5555   69.0180 H   0  0  0  0  0  0  0  0  0  0  0  0
    6.6732   73.1629   67.6439 H   0  0  0  0  0  0  0  0  0  0  0  0
    0.8344   67.4185   70.0869 H   0  0  0  0  0  0  0  0  0  0  0  0
   -0.0831   66.6399   68.7532 H   0  0  0  0  0  0  0  0  0  0  0  0
    1.7126   66.5958   68.7532 H   0  0  0  0  0  0  0  0  0  0  0  0
  2  1  2  0
  3  2  1  0
  4  3  2  0
  5  4  1  0
  6  5  2  0
  6  1  1  0
  7  6  1  0
  8  7  2  0
  9  7  1  0
 10  9  1  0
 11 10  1  0
 12 11  1  0
 13 12  1  0
 14 13  1  0
 15 14  1  0
 15 11  1  0
 16 15  1  0
 17 16  1  0
 18  4  1  0
 19 18  2  0
 20 18  2  0
 21 18  1  0
 23 22  1  0
 23  1  1  0
  2 24  1  0
  3 25  1  0
  5 26  1  0
  9 27  1  0
 10 28  1  0
 10 29  1  0
 11 30  1  6
 12 31  1  0
 12 32  1  0
 13 33  1  0
 13 34  1  0
 14 35  1  0
 14 36  1  0
 15 37  1  1
 16 38  1  0
 16 39  1  0
 17 40  1  0
 17 41  1  0
 17 42  1  0
 21 43  1  0
 21 44  1  0
 22 45  1  0
 22 46  1  0
 22 47  1  0
M  CHG  1  15   1
M  END
>  <score>  (5) 
-7.162

$$$$
=
     RDKit          3D

 47 48  0  0  0  0  0  0  0  0999 V2000
    3.0420   69.2700   67.2740 C   0  0  0  0  0  0  0  0  0  0  0  0
    4.0400   69.8330   66.4640 C   0  0  0  0  0  0  0  0  0  0  0  0
    4.2440   69.3860   65.1560 C   0  0  0  0  0  0  0  0  0  0  0  0
    3.4380   68.3720   64.6410 C   0  0  0  0  0  0  0  0  0  0  0  0
    2.4440   67.7920   65.4290 C   0  0  0  0  0  0  0  0  0  0  0  0
    2.2330   68.2370   66.7480 C   0  0  0  0  0  0  0  0  0  0  0  0
    1.1410   67.5400   67.5030 C   0  0  0  0  0  0  0  0  0  0  0  0
    0.1120   67.1690   66.9390 O   0  0  0  0  0  0  0  0  0  0  0  0
    1.3060   67.3240   68.8570 N   0  0  0  0  0  0  0  0  0  0  0  0
    0.3930   66.4630   69.5770 C   0  0  0  0  0  0  0  0  0  0  0  0
    1.0710   65.6970   70.7370 C   0  0  2  0  0  0  0  0  0  0  0  0
    2.0240   64.5930   70.2650 C   0  0  0  0  0  0  0  0  0  0  0  0
    1.2900   63.2890   70.5190 C   0  0  0  0  0  0  0  0  0  0  0  0
    0.5360   63.5660   71.8020 C   0  0  0  0  0  0  0  0  0  0  0  0
    0.0140   64.9620   71.5820 N   0  0  1  0  0  4  0  0  0  0  0  0
   -0.3510   65.7270   72.8320 C   0  0  0  0  0  0  0  0  0  0  0  0
    0.0240   64.9300   74.0660 C   0  0  0  0  0  0  0  0  0  0  0  0
    3.7280   67.7740   63.0010 S   0  0  0  0  0  6  0  0  0  0  0  0
    4.1520   66.3970   63.0780 O   0  0  0  0  0  0  0  0  0  0  0  0
    2.6530   68.2150   62.1450 O   0  0  0  0  0  0  0  0  0  0  0  0
    5.0780   68.6610   62.5470 N   0  0  0  0  0  0  0  0  0  0  0  0
    3.6880   70.6380   69.1330 C   0  0  0  0  0  0  0  0  0  0  0  0
    2.8100   69.6660   68.5680 O   0  0  0  0  0  0  0  0  0  0  0  0
    4.6718   70.6391   66.8652 H   0  0  0  0  0  0  0  0  0  0  0  0
    5.0360   69.8317   64.5363 H   0  0  0  0  0  0  0  0  0  0  0  0
    1.8220   66.9831   65.0180 H   0  0  0  0  0  0  0  0  0  0  0  0
    2.0834   67.7784   69.3571 H   0  0  0  0  0  0  0  0  0  0  0  0
   -0.4176   67.0804   69.9914 H   0  0  0  0  0  0  0  0  0  0  0  0
    0.0165   65.7143   68.8645 H   0  0  0  0  0  0  0  0  0  0  0  0
    1.6229   66.4673   71.2956 H   0  0  0  0  0  0  0  0  0  0  0  0
    2.2448   64.7077   69.1935 H   0  0  0  0  0  0  0  0  0  0  0  0
    2.9867   64.6299   70.7959 H   0  0  0  0  0  0  0  0  0  0  0  0
    0.5979   63.0582   69.6958 H   0  0  0  0  0  0  0  0  0  0  0  0
    1.9615   62.4207   70.5901 H   0  0  0  0  0  0  0  0  0  0  0  0
   -0.2885   62.8510   71.9403 H   0  0  0  0  0  0  0  0  0  0  0  0
    1.1576   63.4686   72.7043 H   0  0  0  0  0  0  0  0  0  0  0  0
   -0.8916   64.8965   71.0956 H   0  0  0  0  0  0  0  0  0  0  0  0
    0.1888   66.6854   72.8413 H   0  0  0  0  0  0  0  0  0  0  0  0
   -1.4364   65.9053   72.8378 H   0  0  0  0  0  0  0  0  0  0  0  0
   -0.2447   65.5010   74.9670 H   0  0  0  0  0  0  0  0  0  0  0  0
   -0.5183   63.9730   74.0632 H   0  0  0  0  0  0  0  0  0  0  0  0
    1.1071   64.7377   74.0632 H   0  0  0  0  0  0  0  0  0  0  0  0
    5.5738   68.9868   63.3890 H   0  0  0  0  0  0  0  0  0  0  0  0
    5.7062   68.0675   61.9867 H   0  0  0  0  0  0  0  0  0  0  0  0
    3.6383   70.5830   70.2305 H   0  0  0  0  0  0  0  0  0  0  0  0
    4.7178   70.4382   68.8021 H   0  0  0  0  0  0  0  0  0  0  0  0
    3.3849   71.6423   68.8021 H   0  0  0  0  0  0  0  0  0  0  0  0
  2  1  2  0
  3  2  1  0
  4  3  2  0
  5  4  1  0
  6  5  2  0
  6  1  1  0
  7  6  1  0
  8  7  2  0
  9  7  1  0
 10  9  1  0
 11 10  1  0
 12 11  1  0
 13 12  1  0
 14 13  1  0
 15 14  1  0
 15 11  1  0
 16 15  1  0
 17 16  1  0
 18  4  1  0
 19 18  2  0
 20 18  2  0
 21 18  1  0
 23 22  1  0
 23  1  1  0
  2 24  1  0
  3 25  1  0
  5 26  1  0
  9 27  1  0
 10 28  1  0
 10 29  1  0
 11 30  1  1
 12 31  1  0
 12 32  1  0
 13 33  1  0
 13 34  1  0
 14 35  1  0
 14 36  1  0
 15 37  1  6
 16 38  1  0
 16 39  1  0
 17 40  1  0
 17 41  1  0
 17 42  1  0
 21 43  1  0
 21 44  1  0
 22 45  1  0
 22 46  1  0
 22 47  1  0
M  CHG  1  15   1
M  END
>  <score>  (6) 
-7.106

$$$$
=
     RDKit          3D

 47 48  0  0  0  0  0  0  0  0999 V2000
    2.8290   69.2570   67.6740 C   0  0  0  0  0  0  0  0  0  0  0  0
    3.7300   69.7880   66.7390 C   0  0  0  0  0  0  0  0  0  0  0  0
    3.9130   69.1830   65.4920 C   0  0  0  0  0  0  0  0  0  0  0  0
    3.1840   68.0410   65.1660 C   0  0  0  0  0  0  0  0  0  0  0  0
    2.2870   67.4910   66.0820 C   0  0  0  0  0  0  0  0  0  0  0  0
    2.0970   68.0950   67.3390 C   0  0  0  0  0  0  0  0  0  0  0  0
    1.1120   67.4160   68.2450 C   0  0  0  0  0  0  0  0  0  0  0  0
   -0.0370   67.1830   67.8740 O   0  0  0  0  0  0  0  0  0  0  0  0
    1.5180   67.0600   69.5160 N   0  0  0  0  0  0  0  0  0  0  0  0
    0.6850   66.2090   70.3380 C   0  0  0  0  0  0  0  0  0  0  0  0
    0.9850   64.7030   70.1470 C   0  0  2  0  0  0  0  0  0  0  0  0
   -0.2260   63.8010   70.4130 C   0  0  0  0  0  0  0  0  0  0  0  0
    0.0410   63.1550   71.7600 C   0  0  0  0  0  0  0  0  0  0  0  0
    1.5400   62.9460   71.7490 C   0  0  0  0  0  0  0  0  0  0  0  0
    2.0470   64.2370   71.1600 N   0  0  1  0  0  4  0  0  0  0  0  0
    3.4290   64.1810   70.5540 C   0  0  0  0  0  0  0  0  0  0  0  0
    3.7280   62.7800   70.0560 C   0  0  0  0  0  0  0  0  0  0  0  0
    3.4520   67.2500   63.6060 S   0  0  0  0  0  6  0  0  0  0  0  0
    3.4960   65.8220   63.8130 O   0  0  0  0  0  0  0  0  0  0  0  0
    2.6080   67.8720   62.6150 O   0  0  0  0  0  0  0  0  0  0  0  0
    5.0200   67.7260   63.2460 N   0  0  0  0  0  0  0  0  0  0  0  0
    3.6060   70.7100   69.4150 C   0  0  0  0  0  0  0  0  0  0  0  0
    2.6210   69.8070   68.9160 O   0  0  0  0  0  0  0  0  0  0  0  0
    4.3010   70.6939   66.9908 H   0  0  0  0  0  0  0  0  0  0  0  0
    4.6287   69.6063   64.7719 H   0  0  0  0  0  0  0  0  0  0  0  0
    1.7259   66.5816   65.8208 H   0  0  0  0  0  0  0  0  0  0  0  0
    2.4185   67.4020   69.8808 H   0  0  0  0  0  0  0  0  0  0  0  0
    0.8525   66.4687   71.3937 H   0  0  0  0  0  0  0  0  0  0  0  0
   -0.3587   66.3777   70.0343 H   0  0  0  0  0  0  0  0  0  0  0  0
    1.3076   64.6127   69.0993 H   0  0  0  0  0  0  0  0  0  0  0  0
   -1.1497   64.3973   70.4484 H   0  0  0  0  0  0  0  0  0  0  0  0
   -0.3601   63.0514   69.6192 H   0  0  0  0  0  0  0  0  0  0  0  0
   -0.2590   63.8199   72.5833 H   0  0  0  0  0  0  0  0  0  0  0  0
   -0.5244   62.2239   71.9128 H   0  0  0  0  0  0  0  0  0  0  0  0
    1.9274   62.7949   72.7674 H   0  0  0  0  0  0  0  0  0  0  0  0
    1.8536   62.0549   71.1855 H   0  0  0  0  0  0  0  0  0  0  0  0
    2.1741   64.9143   71.9256 H   0  0  0  0  0  0  0  0  0  0  0  0
    3.4846   64.8855   69.7110 H   0  0  0  0  0  0  0  0  0  0  0  0
    4.1681   64.4536   71.3217 H   0  0  0  0  0  0  0  0  0  0  0  0
    3.8714   62.1083   70.9152 H   0  0  0  0  0  0  0  0  0  0  0  0
    2.8864   62.4203   69.4458 H   0  0  0  0  0  0  0  0  0  0  0  0
    4.6431   62.7953   69.4458 H   0  0  0  0  0  0  0  0  0  0  0  0
    5.5403   67.8839   64.1208 H   0  0  0  0  0  0  0  0  0  0  0  0
    5.4855   66.9884   62.6981 H   0  0  0  0  0  0  0  0  0  0  0  0
    3.5918   70.6970   70.5148 H   0  0  0  0  0  0  0  0  0  0  0  0
    4.5998   70.4027   69.0575 H   0  0  0  0  0  0  0  0  0  0  0  0
    3.3860   71.7268   69.0575 H   0  0  0  0  0  0  0  0  0  0  0  0
  2  1  2  0
  3  2  1  0
  4  3  2  0
  5  4  1  0
  6  5  2  0
  6  1  1  0
  7  6  1  0
  8  7  2  0
  9  7  1  0
 10  9  1  0
 11 10  1  0
 12 11  1  0
 13 12  1  0
 14 13  1  0
 15 14  1  0
 15 11  1  0
 16 15  1  0
 17 16  1  0
 18  4  1  0
 19 18  2  0
 20 18  2  0
 21 18  1  0
 23 22  1  0
 23  1  1  0
  2 24  1  0
  3 25  1  0
  5 26  1  0
  9 27  1  0
 10 28  1  0
 10 29  1  0
 11 30  1  6
 12 31  1  0
 12 32  1  0
 13 33  1  0
 13 34  1  0
 14 35  1  0
 14 36  1  0
 15 37  1  1
 16 38  1  0
 16 39  1  0
 17 40  1  0
 17 41  1  0
 17 42  1  0
 21 43  1  0
 21 44  1  0
 22 45  1  0
 22 46  1  0
 22 47  1  0
M  CHG  1  15   1
M  END
>  <score>  (7) 
-7.052

$$$$
=
     RDKit          3D

 47 48  0  0  0  0  0  0  0  0999 V2000
    3.8480   68.9890   64.9780 C   0  0  0  0  0  0  0  0  0  0  0  0
    5.1450   69.4700   64.7430 C   0  0  0  0  0  0  0  0  0  0  0  0
    5.8710   70.1070   65.7530 C   0  0  0  0  0  0  0  0  0  0  0  0
    5.3050   70.2590   67.0170 C   0  0  0  0  0  0  0  0  0  0  0  0
    4.0140   69.7960   67.2730 C   0  0  0  0  0  0  0  0  0  0  0  0
    3.2770   69.1530   66.2610 C   0  0  0  0  0  0  0  0  0  0  0  0
    1.9010   68.6990   66.6470 C   0  0  0  0  0  0  0  0  0  0  0  0
    1.6580   67.5110   66.8580 O   0  0  0  0  0  0  0  0  0  0  0  0
    0.8990   69.6420   66.7560 N   0  0  0  0  0  0  0  0  0  0  0  0
   -0.3770   69.2900   67.3400 C   0  0  0  0  0  0  0  0  0  0  0  0
   -1.1980   68.3170   66.4610 C   0  0  2  0  0  0  0  0  0  0  0  0
   -1.8260   68.9850   65.2320 C   0  0  0  0  0  0  0  0  0  0  0  0
   -3.3020   69.1190   65.5570 C   0  0  0  0  0  0  0  0  0  0  0  0
   -3.5940   67.8640   66.3490 C   0  0  0  0  0  0  0  0  0  0  0  0
   -2.3950   67.7590   67.2550 N   0  0  1  0  0  4  0  0  0  0  0  0
   -2.1170   66.3860   67.8170 C   0  0  0  0  0  0  0  0  0  0  0  0
   -0.9400   66.4360   68.7710 C   0  0  0  0  0  0  0  0  0  0  0  0
    6.2070   71.1090   68.2820 S   0  0  0  0  0  6  0  0  0  0  0  0
    7.5100   70.5020   68.4070 O   0  0  0  0  0  0  0  0  0  0  0  0
    6.0170   72.5300   68.1180 O   0  0  0  0  0  0  0  0  0  0  0  0
    5.3500   70.6810   69.6590 N   0  0  0  0  0  0  0  0  0  0  0  0
    3.4770   67.0540   63.6140 C   0  0  0  0  0  0  0  0  0  0  0  0
    3.0900   68.3660   64.0170 O   0  0  0  0  0  0  0  0  0  0  0  0
    5.5974   69.3437   63.7483 H   0  0  0  0  0  0  0  0  0  0  0  0
    6.8836   70.4863   65.5512 H   0  0  0  0  0  0  0  0  0  0  0  0
    3.5703   69.9341   68.2700 H   0  0  0  0  0  0  0  0  0  0  0  0
    1.0607   70.6020   66.4196 H   0  0  0  0  0  0  0  0  0  0  0  0
   -0.1965   68.8138   68.3150 H   0  0  0  0  0  0  0  0  0  0  0  0
   -0.9608   70.2173   67.4368 H   0  0  0  0  0  0  0  0  0  0  0  0
   -0.4778   67.5454   66.1514 H   0  0  0  0  0  0  0  0  0  0  0  0
   -1.3781   69.9750   65.0610 H   0  0  0  0  0  0  0  0  0  0  0  0
   -1.6601   68.3972   64.3171 H   0  0  0  0  0  0  0  0  0  0  0  0
   -3.4936   70.0195   66.1590 H   0  0  0  0  0  0  0  0  0  0  0  0
   -3.9340   69.2229   64.6627 H   0  0  0  0  0  0  0  0  0  0  0  0
   -4.5223   67.9683   66.9298 H   0  0  0  0  0  0  0  0  0  0  0  0
   -3.7448   66.9750   65.7190 H   0  0  0  0  0  0  0  0  0  0  0  0
   -2.5840   68.3060   68.1071 H   0  0  0  0  0  0  0  0  0  0  0  0
   -3.0063   66.0279   68.3564 H   0  0  0  0  0  0  0  0  0  0  0  0
   -1.8775   65.7024   66.9891 H   0  0  0  0  0  0  0  0  0  0  0  0
   -1.3074   66.4204   69.8077 H   0  0  0  0  0  0  0  0  0  0  0  0
   -0.2911   65.5646   68.5988 H   0  0  0  0  0  0  0  0  0  0  0  0
   -0.3674   67.3593   68.5988 H   0  0  0  0  0  0  0  0  0  0  0  0
    5.8878   70.9496   70.4954 H   0  0  0  0  0  0  0  0  0  0  0  0
    4.4422   71.1677   69.6636 H   0  0  0  0  0  0  0  0  0  0  0  0
    3.6594   66.4355   64.5052 H   0  0  0  0  0  0  0  0  0  0  0  0
    2.6736   66.6031   63.0130 H   0  0  0  0  0  0  0  0  0  0  0  0
    4.3965   67.1113   63.0130 H   0  0  0  0  0  0  0  0  0  0  0  0
  2  1  2  0
  3  2  1  0
  4  3  2  0
  5  4  1  0
  6  5  2  0
  6  1  1  0
  7  6  1  0
  8  7  2  0
  9  7  1  0
 10  9  1  0
 11 10  1  0
 12 11  1  0
 13 12  1  0
 14 13  1  0
 15 14  1  0
 15 11  1  0
 16 15  1  0
 17 16  1  0
 18  4  1  0
 19 18  2  0
 20 18  2  0
 21 18  1  0
 23 22  1  0
 23  1  1  0
  2 24  1  0
  3 25  1  0
  5 26  1  0
  9 27  1  0
 10 28  1  0
 10 29  1  0
 11 30  1  6
 12 31  1  0
 12 32  1  0
 13 33  1  0
 13 34  1  0
 14 35  1  0
 14 36  1  0
 15 37  1  1
 16 38  1  0
 16 39  1  0
 17 40  1  0
 17 41  1  0
 17 42  1  0
 21 43  1  0
 21 44  1  0
 22 45  1  0
 22 46  1  0
 22 47  1  0
M  CHG  1  15   1
M  END
>  <score>  (8) 
-6.823

$$$$
=
     RDKit          3D

 47 48  0  0  0  0  0  0  0  0999 V2000
    0.0500   58.4930   73.7230 C   0  0  0  0  0  0  0  0  0  0  0  0
   -0.8590   57.5450   74.2200 C   0  0  0  0  0  0  0  0  0  0  0  0
   -0.4780   56.2150   74.4120 C   0  0  0  0  0  0  0  0  0  0  0  0
    0.8250   55.8210   74.1160 C   0  0  0  0  0  0  0  0  0  0  0  0
    1.7440   56.7430   73.6150 C   0  0  0  0  0  0  0  0  0  0  0  0
    1.3690   58.0850   73.4190 C   0  0  0  0  0  0  0  0  0  0  0  0
    2.4350   58.9870   72.8730 C   0  0  0  0  0  0  0  0  0  0  0  0
    3.4580   59.2250   73.5150 O   0  0  0  0  0  0  0  0  0  0  0  0
    2.2480   59.5560   71.6290 N   0  0  0  0  0  0  0  0  0  0  0  0
    3.3370   60.2420   70.9670 C   0  0  0  0  0  0  0  0  0  0  0  0
    2.8820   61.5150   70.2160 C   0  0  2  0  0  0  0  0  0  0  0  0
    3.9940   62.1640   69.3840 C   0  0  0  0  0  0  0  0  0  0  0  0
    4.4120   63.3980   70.1620 C   0  0  0  0  0  0  0  0  0  0  0  0
    3.1090   63.8850   70.7580 C   0  0  0  0  0  0  0  0  0  0  0  0
    2.4600   62.6060   71.2190 N   0  0  1  0  0  4  0  0  0  0  0  0
    0.9630   62.6630   71.4040 C   0  0  0  0  0  0  0  0  0  0  0  0
    0.3790   63.8240   70.6220 C   0  0  0  0  0  0  0  0  0  0  0  0
    1.2920   54.1250   74.3160 S   0  0  0  0  0  6  0  0  0  0  0  0
    1.8390   53.9480   75.6400 O   0  0  0  0  0  0  0  0  0  0  0  0
    0.2470   53.2860   73.7810 O   0  0  0  0  0  0  0  0  0  0  0  0
    2.5810   53.9980   73.2500 N   0  0  0  0  0  0  0  0  0  0  0  0
   -1.5840   60.2390   73.8860 C   0  0  0  0  0  0  0  0  0  0  0  0
   -0.2780   59.8090   73.5060 O   0  0  0  0  0  0  0  0  0  0  0  0
   -1.8865   57.8545   74.4617 H   0  0  0  0  0  0  0  0  0  0  0  0
   -1.2034   55.4822   74.7951 H   0  0  0  0  0  0  0  0  0  0  0  0
    2.7669   56.4194   73.3719 H   0  0  0  0  0  0  0  0  0  0  0  0
    1.3284   59.4919   71.1695 H   0  0  0  0  0  0  0  0  0  0  0  0
    4.0820   60.5289   71.7237 H   0  0  0  0  0  0  0  0  0  0  0  0
    3.7552   59.5512   70.2200 H   0  0  0  0  0  0  0  0  0  0  0  0
    2.0632   61.1766   69.5640 H   0  0  0  0  0  0  0  0  0  0  0  0
    4.8432   61.4739   69.2718 H   0  0  0  0  0  0  0  0  0  0  0  0
    3.6513   62.4167   68.3697 H   0  0  0  0  0  0  0  0  0  0  0  0
    5.1354   63.1418   70.9500 H   0  0  0  0  0  0  0  0  0  0  0  0
    4.9117   64.1539   69.5384 H   0  0  0  0  0  0  0  0  0  0  0  0
    3.2888   64.5660   71.6029 H   0  0  0  0  0  0  0  0  0  0  0  0
    2.4918   64.4585   70.0508 H   0  0  0  0  0  0  0  0  0  0  0  0
    2.7884   62.4015   72.1736 H   0  0  0  0  0  0  0  0  0  0  0  0
    0.5172   61.7234   71.0456 H   0  0  0  0  0  0  0  0  0  0  0  0
    0.7399   62.8031   72.4720 H   0  0  0  0  0  0  0  0  0  0  0  0
   -0.0025   64.5823   71.3216 H   0  0  0  0  0  0  0  0  0  0  0  0
    1.1603   64.2694   69.9886 H   0  0  0  0  0  0  0  0  0  0  0  0
   -0.4444   63.4622   69.9886 H   0  0  0  0  0  0  0  0  0  0  0  0
    3.4589   53.9115   73.7816 H   0  0  0  0  0  0  0  0  0  0  0  0
    2.4553   53.1653   72.6569 H   0  0  0  0  0  0  0  0  0  0  0  0
   -1.6573   60.2631   74.9833 H   0  0  0  0  0  0  0  0  0  0  0  0
   -1.7700   61.2458   73.4839 H   0  0  0  0  0  0  0  0  0  0  0  0
   -2.3318   59.5396   73.4839 H   0  0  0  0  0  0  0  0  0  0  0  0
  2  1  2  0
  3  2  1  0
  4  3  2  0
  5  4  1  0
  6  5  2  0
  6  1  1  0
  7  6  1  0
  8  7  2  0
  9  7  1  0
 10  9  1  0
 11 10  1  0
 12 11  1  0
 13 12  1  0
 14 13  1  0
 15 14  1  0
 15 11  1  0
 16 15  1  0
 17 16  1  0
 18  4  1  0
 19 18  2  0
 20 18  2  0
 21 18  1  0
 23 22  1  0
 23  1  1  0
  2 24  1  0
  3 25  1  0
  5 26  1  0
  9 27  1  0
 10 28  1  0
 10 29  1  0
 11 30  1  6
 12 31  1  0
 12 32  1  0
 13 33  1  0
 13 34  1  0
 14 35  1  0
 14 36  1  0
 15 37  1  1
 16 38  1  0
 16 39  1  0
 17 40  1  0
 17 41  1  0
 17 42  1  0
 21 43  1  0
 21 44  1  0
 22 45  1  0
 22 46  1  0
 22 47  1  0
M  CHG  1  15   1
M  END
>  <score>  (9) 
-6.744

$$$$
