=
     RDKit          3D

 16 16  0  0  0  0  0  0  0  0999 V2000
    7.1150   70.9580   69.1610 C   0  0  0  0  0  0  0  0  0  0  0  0
    6.0270   71.0500   68.1110 C   0  0  1  0  0  0  0  0  0  0  0  0
    6.2570   70.1010   66.9250 C   0  0  0  0  0  0  0  0  0  0  0  0
    4.8870   69.8500   66.2890 C   0  0  0  0  0  0  0  0  0  0  0  0
    3.9790   69.8690   67.4820 C   0  0  0  0  0  0  0  0  0  0  0  0
    2.8460   69.4390   67.5400 O   0  0  0  0  0  0  0  0  0  0  0  0
    4.6840   70.5850   68.6120 C   0  0  0  0  0  0  0  0  0  0  0  0
    4.2020   70.7720   69.7100 O   0  0  0  0  0  0  0  0  0  0  0  0
    6.6620   70.9963   70.1627 H   0  0  0  0  0  0  0  0  0  0  0  0
    7.6608   70.0105   69.0414 H   0  0  0  0  0  0  0  0  0  0  0  0
    7.8122   71.8004   69.0414 H   0  0  0  0  0  0  0  0  0  0  0  0
    6.0521   72.1151   67.8373 H   0  0  0  0  0  0  0  0  0  0  0  0
    6.9348   70.5657   66.1938 H   0  0  0  0  0  0  0  0  0  0  0  0
    6.7176   69.1586   67.2564 H   0  0  0  0  0  0  0  0  0  0  0  0
    4.6260   70.6458   65.5758 H   0  0  0  0  0  0  0  0  0  0  0  0
    4.8333   68.9184   65.7066 H   0  0  0  0  0  0  0  0  0  0  0  0
  2  1  1  0
  3  2  1  0
  4  3  1  0
  5  4  1  0
  6  5  2  0
  7  5  1  0
  7  2  1  0
  8  7  2  0
  1  9  1  0
  1 10  1  0
  1 11  1  0
  2 12  1  6
  3 13  1  0
  3 14  1  0
  4 15  1  0
  4 16  1  0
M  END
>  <score>  (1) 
-5.961

$$$$
=
     RDKit          3D

 16 16  0  0  0  0  0  0  0  0999 V2000
    5.2520   69.8450   65.2070 C   0  0  0  0  0  0  0  0  0  0  0  0
    5.4980   69.7390   66.6980 C   0  0  1  0  0  0  0  0  0  0  0  0
    6.4150   70.8480   67.2340 C   0  0  0  0  0  0  0  0  0  0  0  0
    6.1070   70.9910   68.7270 C   0  0  0  0  0  0  0  0  0  0  0  0
    4.6360   70.7070   68.7720 C   0  0  0  0  0  0  0  0  0  0  0  0
    3.8710   70.9730   69.6770 O   0  0  0  0  0  0  0  0  0  0  0  0
    4.2520   69.9570   67.5170 C   0  0  0  0  0  0  0  0  0  0  0  0
    3.1270   69.5760   67.2650 O   0  0  0  0  0  0  0  0  0  0  0  0
    4.2550   70.2746   65.0295 H   0  0  0  0  0  0  0  0  0  0  0  0
    6.0166   70.4935   64.7544 H   0  0  0  0  0  0  0  0  0  0  0  0
    5.3058   68.8439   64.7544 H   0  0  0  0  0  0  0  0  0  0  0  0
    5.9210   68.7284   66.7969 H   0  0  0  0  0  0  0  0  0  0  0  0
    7.4696   70.5707   67.0894 H   0  0  0  0  0  0  0  0  0  0  0  0
    6.2425   71.7953   66.7021 H   0  0  0  0  0  0  0  0  0  0  0  0
    6.6732   70.2605   69.3234 H   0  0  0  0  0  0  0  0  0  0  0  0
    6.3818   71.9711   69.1440 H   0  0  0  0  0  0  0  0  0  0  0  0
  2  1  1  0
  3  2  1  0
  4  3  1  0
  5  4  1  0
  6  5  2  0
  7  5  1  0
  7  2  1  0
  8  7  2  0
  1  9  1  0
  1 10  1  0
  1 11  1  0
  2 12  1  6
  3 13  1  0
  3 14  1  0
  4 15  1  0
  4 16  1  0
M  END
>  <score>  (2) 
-5.788

$$$$
=
     RDKit          3D

 16 16  0  0  0  0  0  0  0  0999 V2000
    2.4350   69.5520   67.3260 C   0  0  0  0  0  0  0  0  0  0  0  0
    3.9370   69.5010   67.5200 C   0  0  1  0  0  0  0  0  0  0  0  0
    4.7180   69.8730   66.2510 C   0  0  0  0  0  0  0  0  0  0  0  0
    6.0970   70.3560   66.7080 C   0  0  0  0  0  0  0  0  0  0  0  0
    5.7760   71.0390   68.0040 C   0  0  0  0  0  0  0  0  0  0  0  0
    6.4790   71.8260   68.6040 O   0  0  0  0  0  0  0  0  0  0  0  0
    4.4380   70.5350   68.4950 C   0  0  0  0  0  0  0  0  0  0  0  0
    3.9090   70.8930   69.5270 O   0  0  0  0  0  0  0  0  0  0  0  0
    1.9389   69.5688   68.3076 H   0  0  0  0  0  0  0  0  0  0  0  0
    2.1684   70.4597   66.7648 H   0  0  0  0  0  0  0  0  0  0  0  0
    2.1074   68.6645   66.7648 H   0  0  0  0  0  0  0  0  0  0  0  0
    4.0988   68.4646   67.8510 H   0  0  0  0  0  0  0  0  0  0  0  0
    4.8216   68.9936   65.5983 H   0  0  0  0  0  0  0  0  0  0  0  0
    4.1949   70.6539   65.6795 H   0  0  0  0  0  0  0  0  0  0  0  0
    6.7854   69.5118   66.8612 H   0  0  0  0  0  0  0  0  0  0  0  0
    6.6031   71.0054   65.9785 H   0  0  0  0  0  0  0  0  0  0  0  0
  2  1  1  0
  3  2  1  0
  4  3  1  0
  5  4  1  0
  6  5  2  0
  7  5  1  0
  7  2  1  0
  8  7  2  0
  1  9  1  0
  1 10  1  0
  1 11  1  0
  2 12  1  1
  3 13  1  0
  3 14  1  0
  4 15  1  0
  4 16  1  0
M  END
>  <score>  (3) 
-5.232

$$$$
=
     RDKit          3D

 16 16  0  0  0  0  0  0  0  0999 V2000
    6.4300   71.4420   68.1830 C   0  0  0  0  0  0  0  0  0  0  0  0
    5.4020   70.3300   68.2220 C   0  0  1  0  0  0  0  0  0  0  0  0
    4.0850   70.7540   68.8890 C   0  0  0  0  0  0  0  0  0  0  0  0
    2.9970   69.8210   68.3510 C   0  0  0  0  0  0  0  0  0  0  0  0
    3.4540   69.5870   66.9420 C   0  0  0  0  0  0  0  0  0  0  0  0
    2.7880   69.1520   66.0250 O   0  0  0  0  0  0  0  0  0  0  0  0
    4.9260   69.9210   66.8520 C   0  0  0  0  0  0  0  0  0  0  0  0
    5.5880   69.8230   65.8400 O   0  0  0  0  0  0  0  0  0  0  0  0
    6.6969   71.7308   69.2103 H   0  0  0  0  0  0  0  0  0  0  0  0
    7.3293   71.0917   67.6552 H   0  0  0  0  0  0  0  0  0  0  0  0
    6.0103   72.3110   67.6552 H   0  0  0  0  0  0  0  0  0  0  0  0
    5.9354   69.5336   68.7617 H   0  0  0  0  0  0  0  0  0  0  0  0
    4.1641   70.6533   69.9815 H   0  0  0  0  0  0  0  0  0  0  0  0
    3.8497   71.8051   68.6658 H   0  0  0  0  0  0  0  0  0  0  0  0
    2.9599   68.8805   68.9203 H   0  0  0  0  0  0  0  0  0  0  0  0
    1.9811   70.2366   68.4240 H   0  0  0  0  0  0  0  0  0  0  0  0
  2  1  1  0
  3  2  1  0
  4  3  1  0
  5  4  1  0
  6  5  2  0
  7  5  1  0
  7  2  1  0
  8  7  2  0
  1  9  1  0
  1 10  1  0
  1 11  1  0
  2 12  1  1
  3 13  1  0
  3 14  1  0
  4 15  1  0
  4 16  1  0
M  END
>  <score>  (4) 
-5.182

$$$$
=
     RDKit          3D

 16 16  0  0  0  0  0  0  0  0999 V2000
    5.2720   63.5650   70.6360 C   0  0  0  0  0  0  0  0  0  0  0  0
    4.1930   62.5030   70.5920 C   0  0  1  0  0  0  0  0  0  0  0  0
    3.3220   62.5860   69.3290 C   0  0  0  0  0  0  0  0  0  0  0  0
    2.7230   61.1930   69.1150 C   0  0  0  0  0  0  0  0  0  0  0  0
    3.8270   60.2990   69.5950 C   0  0  0  0  0  0  0  0  0  0  0  0
    3.9530   59.1140   69.3680 O   0  0  0  0  0  0  0  0  0  0  0  0
    4.7460   61.1060   70.4850 C   0  0  0  0  0  0  0  0  0  0  0  0
    5.7300   60.6580   71.0360 O   0  0  0  0  0  0  0  0  0  0  0  0
    5.5117   63.8010   71.6833 H   0  0  0  0  0  0  0  0  0  0  0  0
    6.1740   63.1926   70.1283 H   0  0  0  0  0  0  0  0  0  0  0  0
    4.9139   64.4728   70.1283 H   0  0  0  0  0  0  0  0  0  0  0  0
    3.6398   62.6889   71.5244 H   0  0  0  0  0  0  0  0  0  0  0  0
    2.5202   63.3259   69.4694 H   0  0  0  0  0  0  0  0  0  0  0  0
    3.9168   62.8989   68.4582 H   0  0  0  0  0  0  0  0  0  0  0  0
    1.8095   61.0552   69.7121 H   0  0  0  0  0  0  0  0  0  0  0  0
    2.4156   60.9982   68.0770 H   0  0  0  0  0  0  0  0  0  0  0  0
  2  1  1  0
  3  2  1  0
  4  3  1  0
  5  4  1  0
  6  5  2  0
  7  5  1  0
  7  2  1  0
  8  7  2  0
  1  9  1  0
  1 10  1  0
  1 11  1  0
  2 12  1  1
  3 13  1  0
  3 14  1  0
  4 15  1  0
  4 16  1  0
M  END
>  <score>  (5) 
-5.141

$$$$
=
     RDKit          3D

 16 16  0  0  0  0  0  0  0  0999 V2000
    2.8410   68.7680   63.8110 C   0  0  0  0  0  0  0  0  0  0  0  0
    3.8220   68.6590   64.9610 C   0  0  1  0  0  0  0  0  0  0  0  0
    5.0550   69.5560   64.7820 C   0  0  0  0  0  0  0  0  0  0  0  0
    5.6200   69.8120   66.1820 C   0  0  0  0  0  0  0  0  0  0  0  0
    4.3770   69.8590   67.0180 C   0  0  0  0  0  0  0  0  0  0  0  0
    4.2710   70.3160   68.1380 O   0  0  0  0  0  0  0  0  0  0  0  0
    3.2630   69.1720   66.2620 C   0  0  0  0  0  0  0  0  0  0  0  0
    2.1310   69.0380   66.6830 O   0  0  0  0  0  0  0  0  0  0  0  0
    1.8215   68.8813   64.2082 H   0  0  0  0  0  0  0  0  0  0  0  0
    3.0939   69.6436   63.1950 H   0  0  0  0  0  0  0  0  0  0  0  0
    2.8955   67.8583   63.1950 H   0  0  0  0  0  0  0  0  0  0  0  0
    4.0543   67.5839   64.9735 H   0  0  0  0  0  0  0  0  0  0  0  0
    5.8052   69.0490   64.1573 H   0  0  0  0  0  0  0  0  0  0  0  0
    4.7886   70.5000   64.2842 H   0  0  0  0  0  0  0  0  0  0  0  0
    6.2845   68.9951   66.5000 H   0  0  0  0  0  0  0  0  0  0  0  0
    6.2351   70.7213   66.2517 H   0  0  0  0  0  0  0  0  0  0  0  0
  2  1  1  0
  3  2  1  0
  4  3  1  0
  5  4  1  0
  6  5  2  0
  7  5  1  0
  7  2  1  0
  8  7  2  0
  1  9  1  0
  1 10  1  0
  1 11  1  0
  2 12  1  1
  3 13  1  0
  3 14  1  0
  4 15  1  0
  4 16  1  0
M  END
>  <score>  (6) 
-5.101

$$$$
=
     RDKit          3D

 16 16  0  0  0  0  0  0  0  0999 V2000
    4.4270   70.8980   68.6780 C   0  0  0  0  0  0  0  0  0  0  0  0
    4.6110   69.8280   67.6220 C   0  0  1  0  0  0  0  0  0  0  0  0
    3.2960   69.4310   66.9360 C   0  0  0  0  0  0  0  0  0  0  0  0
    3.6690   68.8470   65.5710 C   0  0  0  0  0  0  0  0  0  0  0  0
    4.8640   69.6710   65.1940 C   0  0  0  0  0  0  0  0  0  0  0  0
    5.3450   69.7890   64.0860 O   0  0  0  0  0  0  0  0  0  0  0  0
    5.4330   70.2950   66.4480 C   0  0  0  0  0  0  0  0  0  0  0  0
    6.4130   71.0110   66.4720 O   0  0  0  0  0  0  0  0  0  0  0  0
    4.5050   70.4444   69.6771 H   0  0  0  0  0  0  0  0  0  0  0  0
    5.2063   71.6656   68.5619 H   0  0  0  0  0  0  0  0  0  0  0  0
    3.4360   71.3611   68.5619 H   0  0  0  0  0  0  0  0  0  0  0  0
    5.0775   69.0109   68.1918 H   0  0  0  0  0  0  0  0  0  0  0  0
    2.7667   68.6780   67.5384 H   0  0  0  0  0  0  0  0  0  0  0  0
    2.6302   70.2996   66.8255 H   0  0  0  0  0  0  0  0  0  0  0  0
    3.9277   67.7808   65.6499 H   0  0  0  0  0  0  0  0  0  0  0  0
    2.8532   68.8867   64.8342 H   0  0  0  0  0  0  0  0  0  0  0  0
  2  1  1  0
  3  2  1  0
  4  3  1  0
  5  4  1  0
  6  5  2  0
  7  5  1  0
  7  2  1  0
  8  7  2  0
  1  9  1  0
  1 10  1  0
  1 11  1  0
  2 12  1  1
  3 13  1  0
  3 14  1  0
  4 15  1  0
  4 16  1  0
M  END
>  <score>  (7) 
-5.091

$$$$
=
     RDKit          3D

 16 16  0  0  0  0  0  0  0  0999 V2000
    4.1450   69.4430   65.9130 C   0  0  0  0  0  0  0  0  0  0  0  0
    3.9800   69.1820   64.4300 C   0  0  1  0  0  0  0  0  0  0  0  0
    5.2640   69.4440   63.6290 C   0  0  0  0  0  0  0  0  0  0  0  0
    5.1610   68.6130   62.3470 C   0  0  0  0  0  0  0  0  0  0  0  0
    4.4270   67.3950   62.8210 C   0  0  0  0  0  0  0  0  0  0  0  0
    4.3530   66.3240   62.2530 O   0  0  0  0  0  0  0  0  0  0  0  0
    3.7180   67.7330   64.1130 C   0  0  0  0  0  0  0  0  0  0  0  0
    3.0290   66.9530   64.7390 O   0  0  0  0  0  0  0  0  0  0  0  0
    3.6424   68.6480   66.4834 H   0  0  0  0  0  0  0  0  0  0  0  0
    5.2154   69.4553   66.1663 H   0  0  0  0  0  0  0  0  0  0  0  0
    3.6970   70.4152   66.1663 H   0  0  0  0  0  0  0  0  0  0  0  0
    3.1479   69.8502   64.1634 H   0  0  0  0  0  0  0  0  0  0  0  0
    5.3453   70.5129   63.3823 H   0  0  0  0  0  0  0  0  0  0  0  0
    6.1559   69.1661   64.2097 H   0  0  0  0  0  0  0  0  0  0  0  0
    4.5919   69.1453   61.5707 H   0  0  0  0  0  0  0  0  0  0  0  0
    6.1337   68.3914   61.8836 H   0  0  0  0  0  0  0  0  0  0  0  0
  2  1  1  0
  3  2  1  0
  4  3  1  0
  5  4  1  0
  6  5  2  0
  7  5  1  0
  7  2  1  0
  8  7  2  0
  1  9  1  0
  1 10  1  0
  1 11  1  0
  2 12  1  6
  3 13  1  0
  3 14  1  0
  4 15  1  0
  4 16  1  0
M  END
>  <score>  (8) 
-5.064

$$$$
=
     RDKit          3D

 16 16  0  0  0  0  0  0  0  0999 V2000
    5.6510   70.2070   66.2110 C   0  0  0  0  0  0  0  0  0  0  0  0
    4.8010   69.1420   65.5490 C   0  0  1  0  0  0  0  0  0  0  0  0
    3.3180   69.2300   65.9380 C   0  0  0  0  0  0  0  0  0  0  0  0
    2.5270   68.5560   64.8140 C   0  0  0  0  0  0  0  0  0  0  0  0
    3.3370   68.9110   63.6030 C   0  0  0  0  0  0  0  0  0  0  0  0
    2.9760   68.8560   62.4450 O   0  0  0  0  0  0  0  0  0  0  0  0
    4.7290   69.2940   64.0510 C   0  0  0  0  0  0  0  0  0  0  0  0
    5.6230   69.6240   63.2990 O   0  0  0  0  0  0  0  0  0  0  0  0
    5.5740   70.1106   67.3041 H   0  0  0  0  0  0  0  0  0  0  0  0
    6.7001   70.0816   65.9048 H   0  0  0  0  0  0  0  0  0  0  0  0
    5.2961   71.2021   65.9048 H   0  0  0  0  0  0  0  0  0  0  0  0
    5.2893   68.2124   65.8766 H   0  0  0  0  0  0  0  0  0  0  0  0
    3.1442   68.7071   66.8900 H   0  0  0  0  0  0  0  0  0  0  0  0
    3.0051   70.2763   66.0693 H   0  0  0  0  0  0  0  0  0  0  0  0
    2.4794   67.4664   64.9571 H   0  0  0  0  0  0  0  0  0  0  0  0
    1.4776   68.8806   64.7552 H   0  0  0  0  0  0  0  0  0  0  0  0
  2  1  1  0
  3  2  1  0
  4  3  1  0
  5  4  1  0
  6  5  2  0
  7  5  1  0
  7  2  1  0
  8  7  2  0
  1  9  1  0
  1 10  1  0
  1 11  1  0
  2 12  1  6
  3 13  1  0
  3 14  1  0
  4 15  1  0
  4 16  1  0
M  END
>  <score>  (9) 
-5.057

$$$$
