=
     RDKit          3D

 26 27  0  0  0  0  0  0  0  0999 V2000
    1.0360   69.3230   67.3040 O   0  0  0  0  0  0  0  0  0  0  0  0
    2.0130   68.9690   66.6570 C   0  0  0  0  0  0  0  0  0  0  0  0
    3.3850   69.4770   66.9060 C   0  0  0  0  0  0  0  0  0  0  0  0
    4.3500   69.5200   65.8840 C   0  0  0  0  0  0  0  0  0  0  0  0
    5.6320   70.0180   66.1460 C   0  0  0  0  0  0  0  0  0  0  0  0
    5.9470   70.4710   67.4220 C   0  0  0  0  0  0  0  0  0  0  0  0
    5.0030   70.4330   68.4360 C   0  0  0  0  0  0  0  0  0  0  0  0
    3.7270   69.9390   68.1820 C   0  0  0  0  0  0  0  0  0  0  0  0
    2.8430   69.9110   69.1900 F   0  0  0  0  0  0  0  0  0  0  0  0
    5.3190   70.8700   69.6630 F   0  0  0  0  0  0  0  0  0  0  0  0
    7.1770   70.9450   67.6620 F   0  0  0  0  0  0  0  0  0  0  0  0
    1.7660   67.9680   65.5520 C   0  0  0  0  0  0  0  0  0  0  0  0
    1.8930   66.7740   65.7840 O   0  0  0  0  0  0  0  0  0  0  0  0
    1.3470   68.4470   64.2210 C   0  0  0  0  0  0  0  0  0  0  0  0
    0.0270   68.8850   64.0380 C   0  0  0  0  0  0  0  0  0  0  0  0
   -0.3860   69.3440   62.7850 C   0  0  0  0  0  0  0  0  0  0  0  0
    0.5160   69.3500   61.7240 C   0  0  0  0  0  0  0  0  0  0  0  0
    1.8190   68.8980   61.8990 C   0  0  0  0  0  0  0  0  0  0  0  0
    2.2340   68.4440   63.1450 C   0  0  0  0  0  0  0  0  0  0  0  0
    3.4740   67.9530   63.2840 F   0  0  0  0  0  0  0  0  0  0  0  0
    2.6690   68.8800   60.8630 F   0  0  0  0  0  0  0  0  0  0  0  0
    0.1110   69.7840   60.5230 F   0  0  0  0  0  0  0  0  0  0  0  0
    4.0968   69.1612   64.8755 H   0  0  0  0  0  0  0  0  0  0  0  0
    6.3863   70.0507   65.3461 H   0  0  0  0  0  0  0  0  0  0  0  0
   -0.6813   68.8671   64.8794 H   0  0  0  0  0  0  0  0  0  0  0  0
   -1.4168   69.6984   62.6373 H   0  0  0  0  0  0  0  0  0  0  0  0
  2  1  2  0
  3  2  1  0
  4  3  2  0
  5  4  1  0
  6  5  2  0
  7  6  1  0
  8  7  2  0
  8  3  1  0
  9  8  1  0
 10  7  1  0
 11  6  1  0
 12  2  1  0
 13 12  2  0
 14 12  1  0
 15 14  2  0
 16 15  1  0
 17 16  2  0
 18 17  1  0
 19 18  2  0
 19 14  1  0
 20 19  1  0
 21 18  1  0
 22 17  1  0
  4 23  1  0
  5 24  1  0
 15 25  1  0
 16 26  1  0
M  END
>  <score>  (1) 
-10.575

$$$$
=
     RDKit          3D

 26 27  0  0  0  0  0  0  0  0999 V2000
    2.8320   69.2640   64.2990 O   0  0  0  0  0  0  0  0  0  0  0  0
    2.8610   68.8130   65.4360 C   0  0  0  0  0  0  0  0  0  0  0  0
    3.6510   69.4200   66.5360 C   0  0  0  0  0  0  0  0  0  0  0  0
    3.0480   69.8150   67.7440 C   0  0  0  0  0  0  0  0  0  0  0  0
    3.8220   70.3730   68.7680 C   0  0  0  0  0  0  0  0  0  0  0  0
    5.1910   70.5340   68.5870 C   0  0  0  0  0  0  0  0  0  0  0  0
    5.7950   70.1480   67.3990 C   0  0  0  0  0  0  0  0  0  0  0  0
    5.0310   69.5930   66.3780 C   0  0  0  0  0  0  0  0  0  0  0  0
    5.6490   69.2390   65.2410 F   0  0  0  0  0  0  0  0  0  0  0  0
    7.1150   70.3110   67.2360 F   0  0  0  0  0  0  0  0  0  0  0  0
    5.9220   71.0690   69.5740 F   0  0  0  0  0  0  0  0  0  0  0  0
    2.0470   67.5650   65.6890 C   0  0  0  0  0  0  0  0  0  0  0  0
    2.5510   66.4680   65.4890 O   0  0  0  0  0  0  0  0  0  0  0  0
    0.6690   67.6900   66.2010 C   0  0  0  0  0  0  0  0  0  0  0  0
    0.3380   67.0810   67.4210 C   0  0  0  0  0  0  0  0  0  0  0  0
   -0.9620   67.1920   67.9220 C   0  0  0  0  0  0  0  0  0  0  0  0
   -1.9210   67.8960   67.1980 C   0  0  0  0  0  0  0  0  0  0  0  0
   -1.5980   68.4830   65.9800 C   0  0  0  0  0  0  0  0  0  0  0  0
   -0.3050   68.3780   65.4800 C   0  0  0  0  0  0  0  0  0  0  0  0
   -0.0250   68.8960   64.2750 F   0  0  0  0  0  0  0  0  0  0  0  0
   -2.5360   69.1320   65.2770 F   0  0  0  0  0  0  0  0  0  0  0  0
   -3.1670   67.9910   67.6800 F   0  0  0  0  0  0  0  0  0  0  0  0
    1.9648   69.6849   67.8843 H   0  0  0  0  0  0  0  0  0  0  0  0
    3.3493   70.6827   69.7117 H   0  0  0  0  0  0  0  0  0  0  0  0
    1.0991   66.5181   67.9812 H   0  0  0  0  0  0  0  0  0  0  0  0
   -1.2262   66.7259   68.8827 H   0  0  0  0  0  0  0  0  0  0  0  0
  2  1  2  0
  3  2  1  0
  4  3  2  0
  5  4  1  0
  6  5  2  0
  7  6  1  0
  8  7  2  0
  8  3  1  0
  9  8  1  0
 10  7  1  0
 11  6  1  0
 12  2  1  0
 13 12  2  0
 14 12  1  0
 15 14  2  0
 16 15  1  0
 17 16  2  0
 18 17  1  0
 19 18  2  0
 19 14  1  0
 20 19  1  0
 21 18  1  0
 22 17  1  0
  4 23  1  0
  5 24  1  0
 15 25  1  0
 16 26  1  0
M  END
>  <score>  (2) 
-10.173

$$$$
=
     RDKit          3D

 26 27  0  0  0  0  0  0  0  0999 V2000
    1.0170   69.0950   67.1790 O   0  0  0  0  0  0  0  0  0  0  0  0
    1.9920   69.0480   66.4410 C   0  0  0  0  0  0  0  0  0  0  0  0
    3.3440   69.5080   66.8450 C   0  0  0  0  0  0  0  0  0  0  0  0
    4.3990   69.5960   65.9180 C   0  0  0  0  0  0  0  0  0  0  0  0
    5.6590   70.0460   66.3260 C   0  0  0  0  0  0  0  0  0  0  0  0
    5.8650   70.4090   67.6530 C   0  0  0  0  0  0  0  0  0  0  0  0
    4.8310   70.3260   68.5740 C   0  0  0  0  0  0  0  0  0  0  0  0
    3.5760   69.8790   68.1740 C   0  0  0  0  0  0  0  0  0  0  0  0
    2.6040   69.8060   69.0950 F   0  0  0  0  0  0  0  0  0  0  0  0
    5.0430   70.6770   69.8500 F   0  0  0  0  0  0  0  0  0  0  0  0
    7.0760   70.8390   68.0330 F   0  0  0  0  0  0  0  0  0  0  0  0
    1.7640   68.4960   65.0530 C   0  0  0  0  0  0  0  0  0  0  0  0
    0.8960   68.9900   64.3460 O   0  0  0  0  0  0  0  0  0  0  0  0
    2.6110   67.3920   64.5630 C   0  0  0  0  0  0  0  0  0  0  0  0
    2.5380   66.1430   65.1970 C   0  0  0  0  0  0  0  0  0  0  0  0
    3.3310   65.0860   64.7450 C   0  0  0  0  0  0  0  0  0  0  0  0
    4.1990   65.2870   63.6740 C   0  0  0  0  0  0  0  0  0  0  0  0
    4.2860   66.5290   63.0570 C   0  0  0  0  0  0  0  0  0  0  0  0
    3.4960   67.5830   63.5020 C   0  0  0  0  0  0  0  0  0  0  0  0
    3.6370   68.7910   62.9380 F   0  0  0  0  0  0  0  0  0  0  0  0
    5.1460   66.7190   62.0470 F   0  0  0  0  0  0  0  0  0  0  0  0
    4.9620   64.2710   63.2500 F   0  0  0  0  0  0  0  0  0  0  0  0
    4.2323   69.3100   64.8690 H   0  0  0  0  0  0  0  0  0  0  0  0
    6.4833   70.1125   65.6007 H   0  0  0  0  0  0  0  0  0  0  0  0
    1.8574   65.9963   66.0486 H   0  0  0  0  0  0  0  0  0  0  0  0
    3.2706   64.1012   65.2314 H   0  0  0  0  0  0  0  0  0  0  0  0
  2  1  2  0
  3  2  1  0
  4  3  2  0
  5  4  1  0
  6  5  2  0
  7  6  1  0
  8  7  2  0
  8  3  1  0
  9  8  1  0
 10  7  1  0
 11  6  1  0
 12  2  1  0
 13 12  2  0
 14 12  1  0
 15 14  2  0
 16 15  1  0
 17 16  2  0
 18 17  1  0
 19 18  2  0
 19 14  1  0
 20 19  1  0
 21 18  1  0
 22 17  1  0
  4 23  1  0
  5 24  1  0
 15 25  1  0
 16 26  1  0
M  END
>  <score>  (3) 
-9.734

$$$$
=
     RDKit          3D

 26 27  0  0  0  0  0  0  0  0999 V2000
    1.7340   70.7470   68.3020 O   0  0  0  0  0  0  0  0  0  0  0  0
    1.7320   69.7180   67.6400 C   0  0  0  0  0  0  0  0  0  0  0  0
    0.5440   68.8380   67.5010 C   0  0  0  0  0  0  0  0  0  0  0  0
   -0.4530   69.0920   66.5420 C   0  0  0  0  0  0  0  0  0  0  0  0
   -1.5540   68.2370   66.4270 C   0  0  0  0  0  0  0  0  0  0  0  0
   -1.6590   67.1320   67.2650 C   0  0  0  0  0  0  0  0  0  0  0  0
   -0.6820   66.8740   68.2140 C   0  0  0  0  0  0  0  0  0  0  0  0
    0.4160   67.7210   68.3330 C   0  0  0  0  0  0  0  0  0  0  0  0
    1.3360   67.4410   69.2680 F   0  0  0  0  0  0  0  0  0  0  0  0
   -0.7960   65.8070   69.0180 F   0  0  0  0  0  0  0  0  0  0  0  0
   -2.7180   66.3210   67.1470 F   0  0  0  0  0  0  0  0  0  0  0  0
    3.0260   69.3530   66.9520 C   0  0  0  0  0  0  0  0  0  0  0  0
    3.0010   68.6060   65.9820 O   0  0  0  0  0  0  0  0  0  0  0  0
    4.2950   69.9260   67.4410 C   0  0  0  0  0  0  0  0  0  0  0  0
    5.2730   70.3090   66.5120 C   0  0  0  0  0  0  0  0  0  0  0  0
    6.4790   70.8560   66.9580 C   0  0  0  0  0  0  0  0  0  0  0  0
    6.7030   71.0040   68.3240 C   0  0  0  0  0  0  0  0  0  0  0  0
    5.7420   70.6070   69.2460 C   0  0  0  0  0  0  0  0  0  0  0  0
    4.5400   70.0650   68.8070 C   0  0  0  0  0  0  0  0  0  0  0  0
    3.6480   69.6300   69.7090 F   0  0  0  0  0  0  0  0  0  0  0  0
    5.9810   70.7260   70.5600 F   0  0  0  0  0  0  0  0  0  0  0  0
    7.8650   71.5210   68.7450 F   0  0  0  0  0  0  0  0  0  0  0  0
   -0.3666   69.9662   65.8800 H   0  0  0  0  0  0  0  0  0  0  0  0
   -2.3333   68.4377   65.6771 H   0  0  0  0  0  0  0  0  0  0  0  0
    5.0913   70.1792   65.4349 H   0  0  0  0  0  0  0  0  0  0  0  0
    7.2465   71.1677   66.2343 H   0  0  0  0  0  0  0  0  0  0  0  0
  2  1  2  0
  3  2  1  0
  4  3  2  0
  5  4  1  0
  6  5  2  0
  7  6  1  0
  8  7  2  0
  8  3  1  0
  9  8  1  0
 10  7  1  0
 11  6  1  0
 12  2  1  0
 13 12  2  0
 14 12  1  0
 15 14  2  0
 16 15  1  0
 17 16  2  0
 18 17  1  0
 19 18  2  0
 19 14  1  0
 20 19  1  0
 21 18  1  0
 22 17  1  0
  4 23  1  0
  5 24  1  0
 15 25  1  0
 16 26  1  0
M  END
>  <score>  (4) 
-9.243

$$$$
=
     RDKit          3D

 26 27  0  0  0  0  0  0  0  0999 V2000
    1.6150   69.3460   64.8900 O   0  0  0  0  0  0  0  0  0  0  0  0
    2.1890   68.7220   65.7720 C   0  0  0  0  0  0  0  0  0  0  0  0
    3.1390   69.3450   66.7270 C   0  0  0  0  0  0  0  0  0  0  0  0
    2.7430   69.7140   68.0250 C   0  0  0  0  0  0  0  0  0  0  0  0
    3.6660   70.2870   68.9070 C   0  0  0  0  0  0  0  0  0  0  0  0
    4.9790   70.4880   68.4960 C   0  0  0  0  0  0  0  0  0  0  0  0
    5.3800   70.1270   67.2180 C   0  0  0  0  0  0  0  0  0  0  0  0
    4.4660   69.5570   66.3360 C   0  0  0  0  0  0  0  0  0  0  0  0
    4.8890   69.2280   65.1070 F   0  0  0  0  0  0  0  0  0  0  0  0
    6.6470   70.3280   66.8320 F   0  0  0  0  0  0  0  0  0  0  0  0
    5.8540   71.0370   69.3480 F   0  0  0  0  0  0  0  0  0  0  0  0
    1.8950   67.2430   65.8540 C   0  0  0  0  0  0  0  0  0  0  0  0
    0.9220   66.8570   66.4880 O   0  0  0  0  0  0  0  0  0  0  0  0
    2.7700   66.2890   65.1440 C   0  0  0  0  0  0  0  0  0  0  0  0
    3.0170   65.0340   65.7180 C   0  0  0  0  0  0  0  0  0  0  0  0
    3.8410   64.1170   65.0590 C   0  0  0  0  0  0  0  0  0  0  0  0
    4.4190   64.4670   63.8400 C   0  0  0  0  0  0  0  0  0  0  0  0
    4.1900   65.7180   63.2800 C   0  0  0  0  0  0  0  0  0  0  0  0
    3.3690   66.6300   63.9320 C   0  0  0  0  0  0  0  0  0  0  0  0
    3.2070   67.8550   63.4110 F   0  0  0  0  0  0  0  0  0  0  0  0
    4.7760   66.0530   62.1230 F   0  0  0  0  0  0  0  0  0  0  0  0
    5.2140   63.5870   63.2170 F   0  0  0  0  0  0  0  0  0  0  0  0
    1.7041   69.5516   68.3481 H   0  0  0  0  0  0  0  0  0  0  0  0
    3.3541   70.5772   69.9212 H   0  0  0  0  0  0  0  0  0  0  0  0
    2.5633   64.7714   66.6850 H   0  0  0  0  0  0  0  0  0  0  0  0
    4.0317   63.1270   65.4990 H   0  0  0  0  0  0  0  0  0  0  0  0
  2  1  2  0
  3  2  1  0
  4  3  2  0
  5  4  1  0
  6  5  2  0
  7  6  1  0
  8  7  2  0
  8  3  1  0
  9  8  1  0
 10  7  1  0
 11  6  1  0
 12  2  1  0
 13 12  2  0
 14 12  1  0
 15 14  2  0
 16 15  1  0
 17 16  2  0
 18 17  1  0
 19 18  2  0
 19 14  1  0
 20 19  1  0
 21 18  1  0
 22 17  1  0
  4 23  1  0
  5 24  1  0
 15 25  1  0
 16 26  1  0
M  END
>  <score>  (5) 
-9.027

$$$$
=
     RDKit          3D

 26 27  0  0  0  0  0  0  0  0999 V2000
    0.1320   68.8380   65.4590 O   0  0  0  0  0  0  0  0  0  0  0  0
    1.2720   68.5460   65.1230 C   0  0  0  0  0  0  0  0  0  0  0  0
    1.7660   68.6560   63.7280 C   0  0  0  0  0  0  0  0  0  0  0  0
    3.0750   68.2790   63.3780 C   0  0  0  0  0  0  0  0  0  0  0  0
    3.5070   68.3820   62.0520 C   0  0  0  0  0  0  0  0  0  0  0  0
    2.6360   68.8580   61.0780 C   0  0  0  0  0  0  0  0  0  0  0  0
    1.3430   69.2330   61.4130 C   0  0  0  0  0  0  0  0  0  0  0  0
    0.9080   69.1330   62.7300 C   0  0  0  0  0  0  0  0  0  0  0  0
   -0.3470   69.5110   63.0160 F   0  0  0  0  0  0  0  0  0  0  0  0
    0.5130   69.6930   60.4660 F   0  0  0  0  0  0  0  0  0  0  0  0
    3.0600   68.9530   59.8110 F   0  0  0  0  0  0  0  0  0  0  0  0
    2.1890   68.0410   66.2120 C   0  0  0  0  0  0  0  0  0  0  0  0
    2.1550   66.8590   66.5260 O   0  0  0  0  0  0  0  0  0  0  0  0
    3.1310   68.9750   66.8580 C   0  0  0  0  0  0  0  0  0  0  0  0
    4.3620   69.2390   66.2390 C   0  0  0  0  0  0  0  0  0  0  0  0
    5.2650   70.1230   66.8360 C   0  0  0  0  0  0  0  0  0  0  0  0
    4.9380   70.7250   68.0490 C   0  0  0  0  0  0  0  0  0  0  0  0
    3.7260   70.4490   68.6720 C   0  0  0  0  0  0  0  0  0  0  0  0
    2.8250   69.5730   68.0800 C   0  0  0  0  0  0  0  0  0  0  0  0
    1.6880   69.2680   68.7240 F   0  0  0  0  0  0  0  0  0  0  0  0
    3.4360   71.0100   69.8540 F   0  0  0  0  0  0  0  0  0  0  0  0
    5.8110   71.5650   68.6190 F   0  0  0  0  0  0  0  0  0  0  0  0
    3.7615   67.9017   64.1502 H   0  0  0  0  0  0  0  0  0  0  0  0
    4.5315   68.0877   61.7805 H   0  0  0  0  0  0  0  0  0  0  0  0
    4.6158   68.7515   65.2862 H   0  0  0  0  0  0  0  0  0  0  0  0
    6.2278   70.3420   66.3512 H   0  0  0  0  0  0  0  0  0  0  0  0
  2  1  2  0
  3  2  1  0
  4  3  2  0
  5  4  1  0
  6  5  2  0
  7  6  1  0
  8  7  2  0
  8  3  1  0
  9  8  1  0
 10  7  1  0
 11  6  1  0
 12  2  1  0
 13 12  2  0
 14 12  1  0
 15 14  2  0
 16 15  1  0
 17 16  2  0
 18 17  1  0
 19 18  2  0
 19 14  1  0
 20 19  1  0
 21 18  1  0
 22 17  1  0
  4 23  1  0
  5 24  1  0
 15 25  1  0
 16 26  1  0
M  END
>  <score>  (6) 
-9.013

$$$$
=
     RDKit          3D

 26 27  0  0  0  0  0  0  0  0999 V2000
    3.3050   66.9910   65.3830 O   0  0  0  0  0  0  0  0  0  0  0  0
    3.0180   68.1690   65.5470 C   0  0  0  0  0  0  0  0  0  0  0  0
    3.8750   69.1220   66.2970 C   0  0  0  0  0  0  0  0  0  0  0  0
    5.1010   69.5750   65.7780 C   0  0  0  0  0  0  0  0  0  0  0  0
    5.8800   70.4830   66.5030 C   0  0  0  0  0  0  0  0  0  0  0  0
    5.4360   70.9390   67.7390 C   0  0  0  0  0  0  0  0  0  0  0  0
    4.2290   70.4980   68.2600 C   0  0  0  0  0  0  0  0  0  0  0  0
    3.4500   69.5940   67.5430 C   0  0  0  0  0  0  0  0  0  0  0  0
    2.2920   69.1860   68.0830 F   0  0  0  0  0  0  0  0  0  0  0  0
    3.8120   70.9420   69.4540 F   0  0  0  0  0  0  0  0  0  0  0  0
    6.1910   71.8080   68.4250 F   0  0  0  0  0  0  0  0  0  0  0  0
    1.7120   68.6370   64.9500 C   0  0  0  0  0  0  0  0  0  0  0  0
    1.7190   69.2300   63.8790 O   0  0  0  0  0  0  0  0  0  0  0  0
    0.4470   68.3460   65.6520 C   0  0  0  0  0  0  0  0  0  0  0  0
   -0.7230   69.0090   65.2520 C   0  0  0  0  0  0  0  0  0  0  0  0
   -1.9300   68.7440   65.9050 C   0  0  0  0  0  0  0  0  0  0  0  0
   -1.9560   67.8300   66.9560 C   0  0  0  0  0  0  0  0  0  0  0  0
   -0.7940   67.1870   67.3640 C   0  0  0  0  0  0  0  0  0  0  0  0
    0.4080   67.4460   66.7160 C   0  0  0  0  0  0  0  0  0  0  0  0
    1.5310   66.8650   67.1610 F   0  0  0  0  0  0  0  0  0  0  0  0
   -0.8260   66.3330   68.3970 F   0  0  0  0  0  0  0  0  0  0  0  0
   -3.1150   67.5860   67.5820 F   0  0  0  0  0  0  0  0  0  0  0  0
    5.4486   69.2142   64.7987 H   0  0  0  0  0  0  0  0  0  0  0  0
    6.8399   70.8347   66.0968 H   0  0  0  0  0  0  0  0  0  0  0  0
   -0.6905   69.7354   64.4266 H   0  0  0  0  0  0  0  0  0  0  0  0
   -2.8530   69.2536   65.5912 H   0  0  0  0  0  0  0  0  0  0  0  0
  2  1  2  0
  3  2  1  0
  4  3  2  0
  5  4  1  0
  6  5  2  0
  7  6  1  0
  8  7  2  0
  8  3  1  0
  9  8  1  0
 10  7  1  0
 11  6  1  0
 12  2  1  0
 13 12  2  0
 14 12  1  0
 15 14  2  0
 16 15  1  0
 17 16  2  0
 18 17  1  0
 19 18  2  0
 19 14  1  0
 20 19  1  0
 21 18  1  0
 22 17  1  0
  4 23  1  0
  5 24  1  0
 15 25  1  0
 16 26  1  0
M  END
>  <score>  (7) 
-8.838

$$$$
=
     RDKit          3D

 26 27  0  0  0  0  0  0  0  0999 V2000
    1.7260   70.8810   68.4080 O   0  0  0  0  0  0  0  0  0  0  0  0
    1.7590   69.8270   67.7880 C   0  0  0  0  0  0  0  0  0  0  0  0
    0.5810   68.9370   67.6260 C   0  0  0  0  0  0  0  0  0  0  0  0
   -0.4660   69.2560   66.7440 C   0  0  0  0  0  0  0  0  0  0  0  0
   -1.5570   68.3910   66.6030 C   0  0  0  0  0  0  0  0  0  0  0  0
   -1.6000   67.2110   67.3390 C   0  0  0  0  0  0  0  0  0  0  0  0
   -0.5720   66.8880   68.2120 C   0  0  0  0  0  0  0  0  0  0  0  0
    0.5150   67.7450   68.3560 C   0  0  0  0  0  0  0  0  0  0  0  0
    1.4860   67.4010   69.2150 F   0  0  0  0  0  0  0  0  0  0  0  0
   -0.6260   65.7500   68.9180 F   0  0  0  0  0  0  0  0  0  0  0  0
   -2.6490   66.3900   67.1970 F   0  0  0  0  0  0  0  0  0  0  0  0
    3.0870   69.4400   67.1800 C   0  0  0  0  0  0  0  0  0  0  0  0
    4.0850   69.4080   67.8870 O   0  0  0  0  0  0  0  0  0  0  0  0
    3.1530   69.0790   65.7510 C   0  0  0  0  0  0  0  0  0  0  0  0
    2.1440   68.2730   65.2040 C   0  0  0  0  0  0  0  0  0  0  0  0
    2.1890   67.9240   63.8520 C   0  0  0  0  0  0  0  0  0  0  0  0
    3.2450   68.3710   63.0610 C   0  0  0  0  0  0  0  0  0  0  0  0
    4.2560   69.1540   63.6070 C   0  0  0  0  0  0  0  0  0  0  0  0
    4.2120   69.5060   64.9510 C   0  0  0  0  0  0  0  0  0  0  0  0
    5.2260   70.2090   65.4770 F   0  0  0  0  0  0  0  0  0  0  0  0
    5.2830   69.5530   62.8440 F   0  0  0  0  0  0  0  0  0  0  0  0
    3.2860   68.0260   61.7680 F   0  0  0  0  0  0  0  0  0  0  0  0
   -0.4276   70.1889   66.1625 H   0  0  0  0  0  0  0  0  0  0  0  0
   -2.3765   68.6427   65.9137 H   0  0  0  0  0  0  0  0  0  0  0  0
    1.3190   67.9164   65.8381 H   0  0  0  0  0  0  0  0  0  0  0  0
    1.3955   67.3001   63.4148 H   0  0  0  0  0  0  0  0  0  0  0  0
  2  1  2  0
  3  2  1  0
  4  3  2  0
  5  4  1  0
  6  5  2  0
  7  6  1  0
  8  7  2  0
  8  3  1  0
  9  8  1  0
 10  7  1  0
 11  6  1  0
 12  2  1  0
 13 12  2  0
 14 12  1  0
 15 14  2  0
 16 15  1  0
 17 16  2  0
 18 17  1  0
 19 18  2  0
 19 14  1  0
 20 19  1  0
 21 18  1  0
 22 17  1  0
  4 23  1  0
  5 24  1  0
 15 25  1  0
 16 26  1  0
M  END
>  <score>  (8) 
-8.723

$$$$
=
     RDKit          3D

 26 27  0  0  0  0  0  0  0  0999 V2000
   -0.0040   68.0870   65.3460 O   0  0  0  0  0  0  0  0  0  0  0  0
    1.1900   68.3290   65.4640 C   0  0  0  0  0  0  0  0  0  0  0  0
    2.2050   67.9450   64.4520 C   0  0  0  0  0  0  0  0  0  0  0  0
    2.4290   68.7230   63.3020 C   0  0  0  0  0  0  0  0  0  0  0  0
    3.4020   68.3420   62.3720 C   0  0  0  0  0  0  0  0  0  0  0  0
    4.1510   67.1900   62.5910 C   0  0  0  0  0  0  0  0  0  0  0  0
    3.9380   66.4170   63.7220 C   0  0  0  0  0  0  0  0  0  0  0  0
    2.9710   66.7910   64.6500 C   0  0  0  0  0  0  0  0  0  0  0  0
    2.7890   66.0130   65.7270 F   0  0  0  0  0  0  0  0  0  0  0  0
    4.6640   65.3070   63.9200 F   0  0  0  0  0  0  0  0  0  0  0  0
    5.0800   66.8340   61.6940 F   0  0  0  0  0  0  0  0  0  0  0  0
    1.6130   69.0480   66.7240 C   0  0  0  0  0  0  0  0  0  0  0  0
    0.7880   69.2570   67.6020 O   0  0  0  0  0  0  0  0  0  0  0  0
    3.0210   69.4590   66.8860 C   0  0  0  0  0  0  0  0  0  0  0  0
    3.8670   69.4490   65.7680 C   0  0  0  0  0  0  0  0  0  0  0  0
    5.2030   69.8380   65.9020 C   0  0  0  0  0  0  0  0  0  0  0  0
    5.6840   70.2200   67.1520 C   0  0  0  0  0  0  0  0  0  0  0  0
    4.8510   70.2120   68.2650 C   0  0  0  0  0  0  0  0  0  0  0  0
    3.5220   69.8290   68.1340 C   0  0  0  0  0  0  0  0  0  0  0  0
    2.7470   69.7660   69.2270 F   0  0  0  0  0  0  0  0  0  0  0  0
    5.3340   70.5520   69.4680 F   0  0  0  0  0  0  0  0  0  0  0  0
    6.9680   70.5840   67.2760 F   0  0  0  0  0  0  0  0  0  0  0  0
    1.8369   69.6345   63.1332 H   0  0  0  0  0  0  0  0  0  0  0  0
    3.5742   68.9503   61.4718 H   0  0  0  0  0  0  0  0  0  0  0  0
    3.4801   69.1356   64.7871 H   0  0  0  0  0  0  0  0  0  0  0  0
    5.8693   69.8424   65.0268 H   0  0  0  0  0  0  0  0  0  0  0  0
  2  1  2  0
  3  2  1  0
  4  3  2  0
  5  4  1  0
  6  5  2  0
  7  6  1  0
  8  7  2  0
  8  3  1  0
  9  8  1  0
 10  7  1  0
 11  6  1  0
 12  2  1  0
 13 12  2  0
 14 12  1  0
 15 14  2  0
 16 15  1  0
 17 16  2  0
 18 17  1  0
 19 18  2  0
 19 14  1  0
 20 19  1  0
 21 18  1  0
 22 17  1  0
  4 23  1  0
  5 24  1  0
 15 25  1  0
 16 26  1  0
M  END
>  <score>  (9) 
-8.523

$$$$
