=
     RDKit          3D

 38 42  0  0  0  0  0  0  0  0999 V2000
    4.9130   64.5770   64.0290 Br  0  0  0  0  0  0  0  0  0  0  0  0
    4.0610   66.2320   63.8110 C   0  0  0  0  0  0  0  0  0  0  0  0
    3.1420   66.6610   64.6940 C   0  0  0  0  0  0  0  0  0  0  0  0
    2.4460   68.0130   64.6010 C   0  0  1  0  0  0  0  0  0  0  0  0
    0.9490   67.7270   64.4150 C   0  0  0  0  0  0  0  0  0  0  0  0
    0.0350   68.1430   65.3020 C   0  0  0  0  0  0  0  0  0  0  0  0
    0.3930   68.8430   66.4150 N   0  0  0  0  0  0  0  0  0  0  0  0
    1.7020   69.1890   66.7010 C   0  0  0  0  0  0  0  0  0  0  0  0
    2.7260   68.8260   65.8800 C   0  0  0  0  0  0  0  0  0  0  0  0
    4.1560   69.1810   66.1950 C   0  0  0  0  0  0  0  0  0  0  0  0
    5.2130   68.8240   65.5510 N   0  0  0  0  0  0  0  0  0  0  0  0
    6.5590   69.1440   66.1180 C   0  0  0  0  0  0  0  0  0  0  0  0
    6.6800   70.4590   66.9270 C   0  0  0  0  0  0  0  0  0  0  0  0
    5.4740   70.6410   67.7640 C   0  0  0  0  0  0  0  0  0  0  0  0
    4.2910   70.0180   67.3520 C   0  0  0  0  0  0  0  0  0  0  0  0
    3.2790   70.3920   68.1870 C   0  0  0  0  0  0  0  0  0  0  0  0
    1.9220   69.9970   67.9740 C   0  0  0  0  0  0  0  0  0  0  0  0
    0.9860   70.2840   68.7140 O   0  0  0  0  0  0  0  0  0  0  0  0
    3.8250   71.1850   69.1640 N   0  0  0  0  0  0  0  0  0  0  0  0
    5.1750   71.3550   68.9040 C   0  0  0  0  0  0  0  0  0  0  0  0
    2.8970   68.8130   63.3860 C   0  0  0  0  0  0  0  0  0  0  0  0
    3.8140   68.3790   62.5020 C   0  0  0  0  0  0  0  0  0  0  0  0
    4.5000   67.0330   62.6030 C   0  0  2  0  0  0  0  0  0  0  0  0
    4.3680   69.4710   61.0820 Br  0  0  0  0  0  0  0  0  0  0  0  0
    4.1870   66.2840   61.4240 O   0  0  0  0  0  0  0  0  0  0  0  0
    2.8778   65.9980   65.5311 H   0  0  0  0  0  0  0  0  0  0  0  0
    0.6178   67.1651   63.5292 H   0  0  0  0  0  0  0  0  0  0  0  0
   -1.0269   67.9146   65.1281 H   0  0  0  0  0  0  0  0  0  0  0  0
   -0.3453   69.1279   67.0743 H   0  0  0  0  0  0  0  0  0  0  0  0
    6.8454   68.3162   66.7833 H   0  0  0  0  0  0  0  0  0  0  0  0
    7.2144   69.2811   65.2452 H   0  0  0  0  0  0  0  0  0  0  0  0
    7.5694   70.4109   67.5725 H   0  0  0  0  0  0  0  0  0  0  0  0
    6.7735   71.3071   66.2327 H   0  0  0  0  0  0  0  0  0  0  0  0
    3.3139   71.5888   69.9619 H   0  0  0  0  0  0  0  0  0  0  0  0
    5.8809   71.9521   69.5000 H   0  0  0  0  0  0  0  0  0  0  0  0
    2.4469   69.8032   63.2216 H   0  0  0  0  0  0  0  0  0  0  0  0
    5.5796   67.2162   62.7071 H   0  0  0  0  0  0  0  0  0  0  0  0
    3.8184   65.4020   61.6815 H   0  0  0  0  0  0  0  0  0  0  0  0
  2  1  1  0
  3  2  2  0
  4  3  1  1
  5  4  1  0
  6  5  2  0
  7  6  1  0
  8  7  1  0
  9  4  1  0
  9  8  2  0
 10  9  1  0
 11 10  2  0
 12 11  1  0
 13 12  1  0
 14 13  1  0
 15 10  1  0
 15 14  1  0
 16 15  2  0
 17 16  1  0
 17  8  1  0
 18 17  2  0
 19 16  1  0
 20 19  1  0
 20 14  2  0
 21  4  1  0
 22 21  2  0
 23 22  1  0
 23  2  1  0
 24 22  1  0
 25 23  1  0
  3 26  1  0
  5 27  1  0
  6 28  1  0
  7 29  1  0
 12 30  1  0
 12 31  1  0
 13 32  1  0
 13 33  1  0
 19 34  1  0
 20 35  1  0
 21 36  1  0
 23 37  1  1
 25 38  1  0
M  END
>  <score>  (1) 
-9.032

$$$$
=
     RDKit          3D

 38 42  0  0  0  0  0  0  0  0999 V2000
    2.8940   60.1630   77.3550 Br  0  0  0  0  0  0  0  0  0  0  0  0
    2.0060   59.6900   75.7740 C   0  0  0  0  0  0  0  0  0  0  0  0
    1.2920   60.5940   75.0820 C   0  0  0  0  0  0  0  0  0  0  0  0
    0.5850   60.2870   73.7680 C   0  0  1  0  0  0  0  0  0  0  0  0
   -0.9160   60.4940   74.0140 C   0  0  0  0  0  0  0  0  0  0  0  0
   -1.6240   61.4060   73.3340 C   0  0  0  0  0  0  0  0  0  0  0  0
   -1.0440   62.1930   72.3860 N   0  0  0  0  0  0  0  0  0  0  0  0
    0.2950   62.1030   72.0450 C   0  0  0  0  0  0  0  0  0  0  0  0
    1.1250   61.2180   72.6630 C   0  0  0  0  0  0  0  0  0  0  0  0
    2.5870   61.1270   72.3120 C   0  0  0  0  0  0  0  0  0  0  0  0
    3.4870   60.4000   72.8790 N   0  0  0  0  0  0  0  0  0  0  0  0
    4.9200   60.5740   72.4920 C   0  0  0  0  0  0  0  0  0  0  0  0
    5.2030   60.9600   71.0190 C   0  0  0  0  0  0  0  0  0  0  0  0
    4.1980   61.9460   70.5620 C   0  0  0  0  0  0  0  0  0  0  0  0
    2.9590   61.9660   71.2090 C   0  0  0  0  0  0  0  0  0  0  0  0
    2.1440   62.8590   70.5770 C   0  0  0  0  0  0  0  0  0  0  0  0
    0.7730   63.0410   70.9440 C   0  0  0  0  0  0  0  0  0  0  0  0
    0.0130   63.8520   70.4250 O   0  0  0  0  0  0  0  0  0  0  0  0
    2.8790   63.4560   69.5860 N   0  0  0  0  0  0  0  0  0  0  0  0
    4.1420   62.8900   69.5590 C   0  0  0  0  0  0  0  0  0  0  0  0
    0.7660   58.8380   73.3380 C   0  0  0  0  0  0  0  0  0  0  0  0
    1.4790   57.9340   74.0350 C   0  0  0  0  0  0  0  0  0  0  0  0
    2.1770   58.2480   75.3410 C   0  0  2  0  0  0  0  0  0  0  0  0
    1.7160   56.1920   73.3840 Br  0  0  0  0  0  0  0  0  0  0  0  0
    1.6270   57.4020   76.3560 O   0  0  0  0  0  0  0  0  0  0  0  0
    1.2136   61.6136   75.4874 H   0  0  0  0  0  0  0  0  0  0  0  0
   -1.4244   59.8767   74.7693 H   0  0  0  0  0  0  0  0  0  0  0  0
   -2.6971   61.5215   73.5461 H   0  0  0  0  0  0  0  0  0  0  0  0
   -1.6287   62.8877   71.8999 H   0  0  0  0  0  0  0  0  0  0  0  0
    5.3437   61.3633   73.1303 H   0  0  0  0  0  0  0  0  0  0  0  0
    5.3762   59.5816   72.6225 H   0  0  0  0  0  0  0  0  0  0  0  0
    6.2084   61.3998   70.9425 H   0  0  0  0  0  0  0  0  0  0  0  0
    5.1454   60.0607   70.3882 H   0  0  0  0  0  0  0  0  0  0  0  0
    2.5455   64.2047   68.9622 H   0  0  0  0  0  0  0  0  0  0  0  0
    4.9541   63.1470   68.8630 H   0  0  0  0  0  0  0  0  0  0  0  0
    0.2864   58.5109   72.4037 H   0  0  0  0  0  0  0  0  0  0  0  0
    3.2533   58.0760   75.1925 H   0  0  0  0  0  0  0  0  0  0  0  0
    1.8610   57.7619   77.2481 H   0  0  0  0  0  0  0  0  0  0  0  0
  2  1  1  0
  3  2  2  0
  4  3  1  1
  5  4  1  0
  6  5  2  0
  7  6  1  0
  8  7  1  0
  9  4  1  0
  9  8  2  0
 10  9  1  0
 11 10  2  0
 12 11  1  0
 13 12  1  0
 14 13  1  0
 15 10  1  0
 15 14  1  0
 16 15  2  0
 17 16  1  0
 17  8  1  0
 18 17  2  0
 19 16  1  0
 20 19  1  0
 20 14  2  0
 21  4  1  0
 22 21  2  0
 23 22  1  0
 23  2  1  0
 24 22  1  0
 25 23  1  0
  3 26  1  0
  5 27  1  0
  6 28  1  0
  7 29  1  0
 12 30  1  0
 12 31  1  0
 13 32  1  0
 13 33  1  0
 19 34  1  0
 20 35  1  0
 21 36  1  0
 23 37  1  6
 25 38  1  0
M  END
>  <score>  (2) 
-8.848

$$$$
=
     RDKit          3D

 38 42  0  0  0  0  0  0  0  0999 V2000
   -2.9850   60.8220   74.0240 Br  0  0  0  0  0  0  0  0  0  0  0  0
   -1.2070   60.4040   74.4450 C   0  0  0  0  0  0  0  0  0  0  0  0
   -0.5080   59.5220   73.7110 C   0  0  0  0  0  0  0  0  0  0  0  0
    0.9520   59.1730   73.9700 C   0  0  1  0  0  0  0  0  0  0  0  0
    0.9930   57.6790   74.3210 C   0  0  0  0  0  0  0  0  0  0  0  0
    1.6780   56.7980   73.5800 C   0  0  0  0  0  0  0  0  0  0  0  0
    2.3750   57.1880   72.4770 N   0  0  0  0  0  0  0  0  0  0  0  0
    2.4420   58.5040   72.0530 C   0  0  0  0  0  0  0  0  0  0  0  0
    1.7900   59.4970   72.7170 C   0  0  0  0  0  0  0  0  0  0  0  0
    1.8430   60.9280   72.2510 C   0  0  0  0  0  0  0  0  0  0  0  0
    1.2030   61.9360   72.7370 N   0  0  0  0  0  0  0  0  0  0  0  0
    1.2620   63.2510   72.0280 C   0  0  0  0  0  0  0  0  0  0  0  0
    2.5820   63.5880   71.2910 C   0  0  0  0  0  0  0  0  0  0  0  0
    3.1020   62.3750   70.6220 C   0  0  0  0  0  0  0  0  0  0  0  0
    2.7250   61.1300   71.1380 C   0  0  0  0  0  0  0  0  0  0  0  0
    3.3870   60.1500   70.4580 C   0  0  0  0  0  0  0  0  0  0  0  0
    3.2890   58.7690   70.8140 C   0  0  0  0  0  0  0  0  0  0  0  0
    3.8410   57.8520   70.2130 O   0  0  0  0  0  0  0  0  0  0  0  0
    4.1200   60.7590   69.4710 N   0  0  0  0  0  0  0  0  0  0  0  0
    3.9610   62.1300   69.5730 C   0  0  0  0  0  0  0  0  0  0  0  0
    1.5220   59.9240   75.1660 C   0  0  0  0  0  0  0  0  0  0  0  0
    0.8190   60.8040   75.9020 C   0  0  0  0  0  0  0  0  0  0  0  0
   -0.6320   61.1430   75.6370 C   0  0  2  0  0  0  0  0  0  0  0  0
    1.6310   61.7440   77.3060 Br  0  0  0  0  0  0  0  0  0  0  0  0
   -1.3920   60.7920   76.7970 O   0  0  0  0  0  0  0  0  0  0  0  0
   -1.0196   59.0231   72.8747 H   0  0  0  0  0  0  0  0  0  0  0  0
    0.4448   57.3221   75.2054 H   0  0  0  0  0  0  0  0  0  0  0  0
    1.6775   55.7366   73.8687 H   0  0  0  0  0  0  0  0  0  0  0  0
    2.8754   56.4706   71.9331 H   0  0  0  0  0  0  0  0  0  0  0  0
    0.4523   63.2644   71.2835 H   0  0  0  0  0  0  0  0  0  0  0  0
    1.1725   64.0094   72.8198 H   0  0  0  0  0  0  0  0  0  0  0  0
    2.3922   64.3678   70.5387 H   0  0  0  0  0  0  0  0  0  0  0  0
    3.3237   63.9498   72.0183 H   0  0  0  0  0  0  0  0  0  0  0  0
    4.6956   60.2742   68.7678 H   0  0  0  0  0  0  0  0  0  0  0  0
    4.4351   62.8878   68.9319 H   0  0  0  0  0  0  0  0  0  0  0  0
    2.5695   59.7360   75.4444 H   0  0  0  0  0  0  0  0  0  0  0  0
   -0.6861   62.2185   75.4127 H   0  0  0  0  0  0  0  0  0  0  0  0
   -0.8802   61.0284   77.6108 H   0  0  0  0  0  0  0  0  0  0  0  0
  2  1  1  0
  3  2  2  0
  4  3  1  6
  5  4  1  0
  6  5  2  0
  7  6  1  0
  8  7  1  0
  9  4  1  0
  9  8  2  0
 10  9  1  0
 11 10  2  0
 12 11  1  0
 13 12  1  0
 14 13  1  0
 15 10  1  0
 15 14  1  0
 16 15  2  0
 17 16  1  0
 17  8  1  0
 18 17  2  0
 19 16  1  0
 20 19  1  0
 20 14  2  0
 21  4  1  0
 22 21  2  0
 23 22  1  0
 23  2  1  0
 24 22  1  0
 25 23  1  0
  3 26  1  0
  5 27  1  0
  6 28  1  0
  7 29  1  0
 12 30  1  0
 12 31  1  0
 13 32  1  0
 13 33  1  0
 19 34  1  0
 20 35  1  0
 21 36  1  0
 23 37  1  6
 25 38  1  0
M  END
>  <score>  (3) 
-8.63

$$$$
=
     RDKit          3D

 38 42  0  0  0  0  0  0  0  0999 V2000
    0.7520   65.2560   69.5690 Br  0  0  0  0  0  0  0  0  0  0  0  0
    0.7250   66.8970   68.6630 C   0  0  0  0  0  0  0  0  0  0  0  0
    1.7820   67.7270   68.6990 C   0  0  0  0  0  0  0  0  0  0  0  0
    1.8430   69.0510   67.9490 C   0  0  1  0  0  0  0  0  0  0  0  0
    1.9720   70.1530   69.0090 C   0  0  0  0  0  0  0  0  0  0  0  0
    3.0330   70.9710   69.0520 C   0  0  0  0  0  0  0  0  0  0  0  0
    4.0490   70.8630   68.1520 N   0  0  0  0  0  0  0  0  0  0  0  0
    4.0580   69.9290   67.1310 C   0  0  0  0  0  0  0  0  0  0  0  0
    3.0400   69.0380   66.9770 C   0  0  0  0  0  0  0  0  0  0  0  0
    3.0510   68.0060   65.8800 C   0  0  0  0  0  0  0  0  0  0  0  0
    2.1990   67.0600   65.6840 N   0  0  0  0  0  0  0  0  0  0  0  0
    2.4740   66.0320   64.6350 C   0  0  0  0  0  0  0  0  0  0  0  0
    3.2470   66.5070   63.3790 C   0  0  0  0  0  0  0  0  0  0  0  0
    4.3180   67.4460   63.7800 C   0  0  0  0  0  0  0  0  0  0  0  0
    4.1590   68.1470   64.9800 C   0  0  0  0  0  0  0  0  0  0  0  0
    5.1890   69.0310   65.1160 C   0  0  0  0  0  0  0  0  0  0  0  0
    5.2610   69.9650   66.1960 C   0  0  0  0  0  0  0  0  0  0  0  0
    6.1810   70.7570   66.3750 O   0  0  0  0  0  0  0  0  0  0  0  0
    6.0350   68.8440   64.0530 N   0  0  0  0  0  0  0  0  0  0  0  0
    5.4990   67.8790   63.2170 C   0  0  0  0  0  0  0  0  0  0  0  0
    0.5650   69.3340   67.1710 C   0  0  0  0  0  0  0  0  0  0  0  0
   -0.4930   68.5040   67.1400 C   0  0  0  0  0  0  0  0  0  0  0  0
   -0.5440   67.1890   67.8890 C   0  0  2  0  0  0  0  0  0  0  0  0
   -1.9910   68.8980   66.0850 Br  0  0  0  0  0  0  0  0  0  0  0  0
   -1.6360   67.2450   68.8140 O   0  0  0  0  0  0  0  0  0  0  0  0
    2.6521   67.4331   69.3045 H   0  0  0  0  0  0  0  0  0  0  0  0
    1.1719   70.2750   69.7539 H   0  0  0  0  0  0  0  0  0  0  0  0
    3.0840   71.7460   69.8309 H   0  0  0  0  0  0  0  0  0  0  0  0
    4.8486   71.5069   68.2351 H   0  0  0  0  0  0  0  0  0  0  0  0
    3.0607   65.2276   65.1027 H   0  0  0  0  0  0  0  0  0  0  0  0
    1.4844   65.7249   64.2657 H   0  0  0  0  0  0  0  0  0  0  0  0
    3.6928   65.6378   62.8732 H   0  0  0  0  0  0  0  0  0  0  0  0
    2.5529   67.0160   62.6941 H   0  0  0  0  0  0  0  0  0  0  0  0
    6.9245   69.3406   63.9011 H   0  0  0  0  0  0  0  0  0  0  0  0
    5.9371   67.5222   62.2732 H   0  0  0  0  0  0  0  0  0  0  0  0
    0.5034   70.2726   66.6007 H   0  0  0  0  0  0  0  0  0  0  0  0
   -0.6662   66.3870   67.1461 H   0  0  0  0  0  0  0  0  0  0  0  0
   -1.2856   67.2270   69.7397 H   0  0  0  0  0  0  0  0  0  0  0  0
  2  1  1  0
  3  2  2  0
  4  3  1  1
  5  4  1  0
  6  5  2  0
  7  6  1  0
  8  7  1  0
  9  4  1  0
  9  8  2  0
 10  9  1  0
 11 10  2  0
 12 11  1  0
 13 12  1  0
 14 13  1  0
 15 10  1  0
 15 14  1  0
 16 15  2  0
 17 16  1  0
 17  8  1  0
 18 17  2  0
 19 16  1  0
 20 19  1  0
 20 14  2  0
 21  4  1  0
 22 21  2  0
 23 22  1  0
 23  2  1  0
 24 22  1  0
 25 23  1  0
  3 26  1  0
  5 27  1  0
  6 28  1  0
  7 29  1  0
 12 30  1  0
 12 31  1  0
 13 32  1  0
 13 33  1  0
 19 34  1  0
 20 35  1  0
 21 36  1  0
 23 37  1  6
 25 38  1  0
M  END
>  <score>  (4) 
-8.629

$$$$
=
     RDKit          3D

 38 42  0  0  0  0  0  0  0  0999 V2000
    1.4710   63.2460   76.8260 Br  0  0  0  0  0  0  0  0  0  0  0  0
    0.5600   62.9160   75.2220 C   0  0  0  0  0  0  0  0  0  0  0  0
    1.0600   63.3250   74.0430 C   0  0  0  0  0  0  0  0  0  0  0  0
    0.3950   63.0490   72.7010 C   0  0  1  0  0  0  0  0  0  0  0  0
    0.0360   64.4140   72.0970 C   0  0  0  0  0  0  0  0  0  0  0  0
    0.5460   64.8260   70.9290 C   0  0  0  0  0  0  0  0  0  0  0  0
    1.4090   64.0500   70.2180 N   0  0  0  0  0  0  0  0  0  0  0  0
    1.8060   62.7890   70.6300 C   0  0  0  0  0  0  0  0  0  0  0  0
    1.3610   62.2530   71.8000 C   0  0  0  0  0  0  0  0  0  0  0  0
    1.8040   60.8910   72.2650 C   0  0  0  0  0  0  0  0  0  0  0  0
    1.5260   60.3150   73.3840 N   0  0  0  0  0  0  0  0  0  0  0  0
    2.1980   59.0260   73.7310 C   0  0  0  0  0  0  0  0  0  0  0  0
    2.5330   58.0760   72.5540 C   0  0  0  0  0  0  0  0  0  0  0  0
    3.0180   58.8650   71.4000 C   0  0  0  0  0  0  0  0  0  0  0  0
    2.6220   60.2030   71.3090 C   0  0  0  0  0  0  0  0  0  0  0  0
    3.0790   60.7210   70.1320 C   0  0  0  0  0  0  0  0  0  0  0  0
    2.7560   62.0450   69.7000 C   0  0  0  0  0  0  0  0  0  0  0  0
    3.1690   62.5620   68.6660 O   0  0  0  0  0  0  0  0  0  0  0  0
    3.8220   59.7470   69.5160 N   0  0  0  0  0  0  0  0  0  0  0  0
    3.7790   58.5950   70.2840 C   0  0  0  0  0  0  0  0  0  0  0  0
   -0.9080   62.2750   72.8490 C   0  0  0  0  0  0  0  0  0  0  0  0
   -1.4090   61.8710   74.0310 C   0  0  0  0  0  0  0  0  0  0  0  0
   -0.7400   62.1500   75.3600 C   0  0  2  0  0  0  0  0  0  0  0  0
   -2.9790   60.8490   74.1080 Br  0  0  0  0  0  0  0  0  0  0  0  0
   -1.6400   62.9260   76.1580 O   0  0  0  0  0  0  0  0  0  0  0  0
    2.0031   63.8912   74.0479 H   0  0  0  0  0  0  0  0  0  0  0  0
   -0.6595   65.0720   72.6386 H   0  0  0  0  0  0  0  0  0  0  0  0
    0.2611   65.8131   70.5358 H   0  0  0  0  0  0  0  0  0  0  0  0
    1.7843   64.4179   69.3322 H   0  0  0  0  0  0  0  0  0  0  0  0
    3.1414   59.2691   74.2418 H   0  0  0  0  0  0  0  0  0  0  0  0
    1.4698   58.4774   74.3465 H   0  0  0  0  0  0  0  0  0  0  0  0
    3.3140   57.3673   72.8668 H   0  0  0  0  0  0  0  0  0  0  0  0
    1.6279   57.5227   72.2629 H   0  0  0  0  0  0  0  0  0  0  0  0
    4.3298   59.8545   68.6264 H   0  0  0  0  0  0  0  0  0  0  0  0
    4.2649   57.6373   70.0457 H   0  0  0  0  0  0  0  0  0  0  0  0
   -1.4726   62.0319   71.9368 H   0  0  0  0  0  0  0  0  0  0  0  0
   -0.5012   61.1807   75.8220 H   0  0  0  0  0  0  0  0  0  0  0  0
   -1.4534   62.7651   77.1168 H   0  0  0  0  0  0  0  0  0  0  0  0
  2  1  1  0
  3  2  2  0
  4  3  1  1
  5  4  1  0
  6  5  2  0
  7  6  1  0
  8  7  1  0
  9  4  1  0
  9  8  2  0
 10  9  1  0
 11 10  2  0
 12 11  1  0
 13 12  1  0
 14 13  1  0
 15 10  1  0
 15 14  1  0
 16 15  2  0
 17 16  1  0
 17  8  1  0
 18 17  2  0
 19 16  1  0
 20 19  1  0
 20 14  2  0
 21  4  1  0
 22 21  2  0
 23 22  1  0
 23  2  1  0
 24 22  1  0
 25 23  1  0
  3 26  1  0
  5 27  1  0
  6 28  1  0
  7 29  1  0
 12 30  1  0
 12 31  1  0
 13 32  1  0
 13 33  1  0
 19 34  1  0
 20 35  1  0
 21 36  1  0
 23 37  1  1
 25 38  1  0
M  END
>  <score>  (5) 
-8.565

$$$$
=
     RDKit          3D

 38 42  0  0  0  0  0  0  0  0999 V2000
    4.5400   64.7950   63.8590 Br  0  0  0  0  0  0  0  0  0  0  0  0
    4.0090   66.5900   63.9560 C   0  0  0  0  0  0  0  0  0  0  0  0
    2.8650   67.0080   63.3890 C   0  0  0  0  0  0  0  0  0  0  0  0
    2.3540   68.4410   63.4710 C   0  0  1  0  0  0  0  0  0  0  0  0
    2.3110   68.9760   62.0320 C   0  0  0  0  0  0  0  0  0  0  0  0
    1.1670   69.3800   61.4630 C   0  0  0  0  0  0  0  0  0  0  0  0
   -0.0160   69.3340   62.1360 N   0  0  0  0  0  0  0  0  0  0  0  0
   -0.1250   68.8920   63.4440 C   0  0  0  0  0  0  0  0  0  0  0  0
    0.9630   68.4550   64.1360 C   0  0  0  0  0  0  0  0  0  0  0  0
    0.8500   67.9540   65.5520 C   0  0  0  0  0  0  0  0  0  0  0  0
    1.7800   67.4360   66.2780 N   0  0  0  0  0  0  0  0  0  0  0  0
    1.4300   66.8470   67.6060 C   0  0  0  0  0  0  0  0  0  0  0  0
    0.2700   67.5180   68.3830 C   0  0  0  0  0  0  0  0  0  0  0  0
   -0.8090   67.8900   67.4420 C   0  0  0  0  0  0  0  0  0  0  0  0
   -0.4660   68.1010   66.1030 C   0  0  0  0  0  0  0  0  0  0  0  0
   -1.5690   68.5370   65.4270 C   0  0  0  0  0  0  0  0  0  0  0  0
   -1.5200   68.9330   64.0540 C   0  0  0  0  0  0  0  0  0  0  0  0
   -2.4900   69.3020   63.3990 O   0  0  0  0  0  0  0  0  0  0  0  0
   -2.6200   68.5310   66.3080 N   0  0  0  0  0  0  0  0  0  0  0  0
   -2.1580   68.1470   67.5560 C   0  0  0  0  0  0  0  0  0  0  0  0
    3.2950   69.3470   64.2520 C   0  0  0  0  0  0  0  0  0  0  0  0
    4.4420   68.9270   64.8160 C   0  0  0  0  0  0  0  0  0  0  0  0
    4.9420   67.5010   64.7280 C   0  0  2  0  0  0  0  0  0  0  0  0
    5.4960   70.0990   65.8310 Br  0  0  0  0  0  0  0  0  0  0  0  0
    6.2120   67.5130   64.0680 O   0  0  0  0  0  0  0  0  0  0  0  0
    2.2629   66.2737   62.8338 H   0  0  0  0  0  0  0  0  0  0  0  0
    3.2446   69.0290   61.4527 H   0  0  0  0  0  0  0  0  0  0  0  0
    1.1839   69.7570   60.4298 H   0  0  0  0  0  0  0  0  0  0  0  0
   -0.8698   69.6424   61.6494 H   0  0  0  0  0  0  0  0  0  0  0  0
    1.1556   65.7946   67.4415 H   0  0  0  0  0  0  0  0  0  0  0  0
    2.3216   66.9981   68.2322 H   0  0  0  0  0  0  0  0  0  0  0  0
   -0.1238   66.8149   69.1318 H   0  0  0  0  0  0  0  0  0  0  0  0
    0.6429   68.4221   68.8864 H   0  0  0  0  0  0  0  0  0  0  0  0
   -3.5946   68.7728   66.0788 H   0  0  0  0  0  0  0  0  0  0  0  0
   -2.7596   68.0624   68.4730 H   0  0  0  0  0  0  0  0  0  0  0  0
    3.0214   70.4068   64.3617 H   0  0  0  0  0  0  0  0  0  0  0  0
    5.0080   67.1084   65.7534 H   0  0  0  0  0  0  0  0  0  0  0  0
    6.9352   67.5198   64.7441 H   0  0  0  0  0  0  0  0  0  0  0  0
  2  1  1  0
  3  2  2  0
  4  3  1  6
  5  4  1  0
  6  5  2  0
  7  6  1  0
  8  7  1  0
  9  4  1  0
  9  8  2  0
 10  9  1  0
 11 10  2  0
 12 11  1  0
 13 12  1  0
 14 13  1  0
 15 10  1  0
 15 14  1  0
 16 15  2  0
 17 16  1  0
 17  8  1  0
 18 17  2  0
 19 16  1  0
 20 19  1  0
 20 14  2  0
 21  4  1  0
 22 21  2  0
 23 22  1  0
 23  2  1  0
 24 22  1  0
 25 23  1  0
  3 26  1  0
  5 27  1  0
  6 28  1  0
  7 29  1  0
 12 30  1  0
 12 31  1  0
 13 32  1  0
 13 33  1  0
 19 34  1  0
 20 35  1  0
 21 36  1  0
 23 37  1  1
 25 38  1  0
M  END
>  <score>  (6) 
-8.473

$$$$
=
     RDKit          3D

 38 42  0  0  0  0  0  0  0  0999 V2000
    4.1000   69.4890   60.8660 Br  0  0  0  0  0  0  0  0  0  0  0  0
    4.3690   68.6040   62.4960 C   0  0  0  0  0  0  0  0  0  0  0  0
    4.5610   69.2920   63.6350 C   0  0  0  0  0  0  0  0  0  0  0  0
    4.7390   68.6360   64.9990 C   0  0  1  0  0  0  0  0  0  0  0  0
    6.1430   69.0140   65.4900 C   0  0  0  0  0  0  0  0  0  0  0  0
    6.3330   69.7110   66.6190 C   0  0  0  0  0  0  0  0  0  0  0  0
    5.2850   70.1180   67.3870 N   0  0  0  0  0  0  0  0  0  0  0  0
    3.9660   69.8330   67.0770 C   0  0  0  0  0  0  0  0  0  0  0  0
    3.6370   69.1320   65.9570 C   0  0  0  0  0  0  0  0  0  0  0  0
    2.2040   68.8350   65.6030 C   0  0  0  0  0  0  0  0  0  0  0  0
    1.7610   68.2630   64.5360 N   0  0  0  0  0  0  0  0  0  0  0  0
    0.2880   68.2070   64.2920 C   0  0  0  0  0  0  0  0  0  0  0  0
   -0.6220   68.0890   65.5410 C   0  0  0  0  0  0  0  0  0  0  0  0
   -0.0930   68.9470   66.6240 C   0  0  0  0  0  0  0  0  0  0  0  0
    1.2710   69.2560   66.6080 C   0  0  0  0  0  0  0  0  0  0  0  0
    1.5800   69.9590   67.7360 C   0  0  0  0  0  0  0  0  0  0  0  0
    2.9190   70.3410   68.0600 C   0  0  0  0  0  0  0  0  0  0  0  0
    3.2380   70.9980   69.0460 O   0  0  0  0  0  0  0  0  0  0  0  0
    0.4110   70.1610   68.4260 N   0  0  0  0  0  0  0  0  0  0  0  0
   -0.6220   69.5290   67.7550 C   0  0  0  0  0  0  0  0  0  0  0  0
    4.6920   67.1170   64.9210 C   0  0  0  0  0  0  0  0  0  0  0  0
    4.5030   66.4310   63.7780 C   0  0  0  0  0  0  0  0  0  0  0  0
    4.3280   67.0910   62.4280 C   0  0  2  0  0  0  0  0  0  0  0  0
    4.3760   64.5610   63.7920 Br  0  0  0  0  0  0  0  0  0  0  0  0
    5.3880   66.6480   61.5730 O   0  0  0  0  0  0  0  0  0  0  0  0
    4.5913   70.3902   63.5792 H   0  0  0  0  0  0  0  0  0  0  0  0
    7.0176   68.7044   64.8991 H   0  0  0  0  0  0  0  0  0  0  0  0
    7.3579   69.9596   66.9319 H   0  0  0  0  0  0  0  0  0  0  0  0
    5.4826   70.6633   68.2382 H   0  0  0  0  0  0  0  0  0  0  0  0
    0.0037   69.1259   63.7584 H   0  0  0  0  0  0  0  0  0  0  0  0
    0.1244   67.2774   63.7271 H   0  0  0  0  0  0  0  0  0  0  0  0
   -1.6413   68.4121   65.2830 H   0  0  0  0  0  0  0  0  0  0  0  0
   -0.6419   67.0430   65.8807 H   0  0  0  0  0  0  0  0  0  0  0  0
    0.3174   70.6960   69.3011 H   0  0  0  0  0  0  0  0  0  0  0  0
   -1.6759   69.4973   68.0686 H   0  0  0  0  0  0  0  0  0  0  0  0
    4.8199   66.5463   65.8526 H   0  0  0  0  0  0  0  0  0  0  0  0
    3.3364   66.8068   62.0459 H   0  0  0  0  0  0  0  0  0  0  0  0
    6.1464   66.3310   62.1248 H   0  0  0  0  0  0  0  0  0  0  0  0
  2  1  1  0
  3  2  2  0
  4  3  1  6
  5  4  1  0
  6  5  2  0
  7  6  1  0
  8  7  1  0
  9  4  1  0
  9  8  2  0
 10  9  1  0
 11 10  2  0
 12 11  1  0
 13 12  1  0
 14 13  1  0
 15 10  1  0
 15 14  1  0
 16 15  2  0
 17 16  1  0
 17  8  1  0
 18 17  2  0
 19 16  1  0
 20 19  1  0
 20 14  2  0
 21  4  1  0
 22 21  2  0
 23 22  1  0
 23  2  1  0
 24 22  1  0
 25 23  1  0
  3 26  1  0
  5 27  1  0
  6 28  1  0
  7 29  1  0
 12 30  1  0
 12 31  1  0
 13 32  1  0
 13 33  1  0
 19 34  1  0
 20 35  1  0
 21 36  1  0
 23 37  1  6
 25 38  1  0
M  END
>  <score>  (7) 
-8.459

$$$$
=
     RDKit          3D

 38 42  0  0  0  0  0  0  0  0999 V2000
    1.1770   57.2370   72.8360 Br  0  0  0  0  0  0  0  0  0  0  0  0
    1.8150   58.9990   72.7790 C   0  0  0  0  0  0  0  0  0  0  0  0
    0.9800   60.0440   72.9090 C   0  0  0  0  0  0  0  0  0  0  0  0
    1.4390   61.4970   72.9180 C   0  0  1  0  0  0  0  0  0  0  0  0
    0.7890   62.1720   71.7020 C   0  0  0  0  0  0  0  0  0  0  0  0
   -0.0540   63.2050   71.8330 C   0  0  0  0  0  0  0  0  0  0  0  0
   -0.3750   63.7080   73.0580 N   0  0  0  0  0  0  0  0  0  0  0  0
    0.1490   63.2110   74.2390 C   0  0  0  0  0  0  0  0  0  0  0  0
    1.0170   62.1620   74.2440 C   0  0  0  0  0  0  0  0  0  0  0  0
    1.5760   61.6040   75.5260 C   0  0  0  0  0  0  0  0  0  0  0  0
    2.3290   60.5680   75.6680 N   0  0  0  0  0  0  0  0  0  0  0  0
    2.6450   60.0760   77.0440 C   0  0  0  0  0  0  0  0  0  0  0  0
    2.7620   61.1460   78.1580 C   0  0  0  0  0  0  0  0  0  0  0  0
    1.7120   62.1730   77.9730 C   0  0  0  0  0  0  0  0  0  0  0  0
    1.1950   62.3560   76.6860 C   0  0  0  0  0  0  0  0  0  0  0  0
    0.3280   63.4090   76.7040 C   0  0  0  0  0  0  0  0  0  0  0  0
   -0.2960   63.9090   75.5180 C   0  0  0  0  0  0  0  0  0  0  0  0
   -1.1040   64.8330   75.4900 O   0  0  0  0  0  0  0  0  0  0  0  0
    0.2360   63.8440   78.0010 N   0  0  0  0  0  0  0  0  0  0  0  0
    1.0960   63.0970   78.7880 C   0  0  0  0  0  0  0  0  0  0  0  0
    2.9450   61.6290   72.7450 C   0  0  0  0  0  0  0  0  0  0  0  0
    3.7790   60.5810   72.6110 C   0  0  0  0  0  0  0  0  0  0  0  0
    3.3130   59.1400   72.6020 C   0  0  2  0  0  0  0  0  0  0  0  0
    5.6310   60.8390   72.4870 Br  0  0  0  0  0  0  0  0  0  0  0  0
    3.6780   58.5610   71.3460 O   0  0  0  0  0  0  0  0  0  0  0  0
   -0.0955   59.8389   73.0149 H   0  0  0  0  0  0  0  0  0  0  0  0
    1.0220   61.7969   70.6945 H   0  0  0  0  0  0  0  0  0  0  0  0
   -0.4963   63.6566   70.9327 H   0  0  0  0  0  0  0  0  0  0  0  0
   -1.0383   64.4945   73.1076 H   0  0  0  0  0  0  0  0  0  0  0  0
    1.8497   59.3752   77.3378 H   0  0  0  0  0  0  0  0  0  0  0  0
    3.6473   59.6294   76.9671 H   0  0  0  0  0  0  0  0  0  0  0  0
    2.6364   60.6670   79.1402 H   0  0  0  0  0  0  0  0  0  0  0  0
    3.7521   61.6223   78.1042 H   0  0  0  0  0  0  0  0  0  0  0  0
   -0.3740   64.6034   78.3356 H   0  0  0  0  0  0  0  0  0  0  0  0
    1.2581   63.2193   79.8691 H   0  0  0  0  0  0  0  0  0  0  0  0
    3.3775   62.6403   72.7285 H   0  0  0  0  0  0  0  0  0  0  0  0
    3.7917   58.6301   73.4510 H   0  0  0  0  0  0  0  0  0  0  0  0
    4.1993   57.7341   71.5029 H   0  0  0  0  0  0  0  0  0  0  0  0
  2  1  1  0
  3  2  2  0
  4  3  1  1
  5  4  1  0
  6  5  2  0
  7  6  1  0
  8  7  1  0
  9  4  1  0
  9  8  2  0
 10  9  1  0
 11 10  2  0
 12 11  1  0
 13 12  1  0
 14 13  1  0
 15 10  1  0
 15 14  1  0
 16 15  2  0
 17 16  1  0
 17  8  1  0
 18 17  2  0
 19 16  1  0
 20 19  1  0
 20 14  2  0
 21  4  1  0
 22 21  2  0
 23 22  1  0
 23  2  1  0
 24 22  1  0
 25 23  1  0
  3 26  1  0
  5 27  1  0
  6 28  1  0
  7 29  1  0
 12 30  1  0
 12 31  1  0
 13 32  1  0
 13 33  1  0
 19 34  1  0
 20 35  1  0
 21 36  1  0
 23 37  1  1
 25 38  1  0
M  END
>  <score>  (8) 
-7.061

$$$$
=
     RDKit          3D

 38 42  0  0  0  0  0  0  0  0999 V2000
    1.0190   62.7960   77.7350 Br  0  0  0  0  0  0  0  0  0  0  0  0
    0.2390   62.2960   76.1060 C   0  0  0  0  0  0  0  0  0  0  0  0
    0.9900   62.0930   75.0100 C   0  0  0  0  0  0  0  0  0  0  0  0
    0.4250   61.6410   73.6690 C   0  0  1  0  0  0  0  0  0  0  0  0
    0.7150   62.7670   72.6660 C   0  0  0  0  0  0  0  0  0  0  0  0
    1.4750   62.5680   71.5810 C   0  0  0  0  0  0  0  0  0  0  0  0
    2.0280   61.3510   71.3150 N   0  0  0  0  0  0  0  0  0  0  0  0
    1.8360   60.2420   72.1210 C   0  0  0  0  0  0  0  0  0  0  0  0
    1.0850   60.3110   73.2540 C   0  0  0  0  0  0  0  0  0  0  0  0
    0.8870   59.1140   74.1460 C   0  0  0  0  0  0  0  0  0  0  0  0
    0.2780   59.0720   75.2810 N   0  0  0  0  0  0  0  0  0  0  0  0
    0.3320   57.8200   76.0950 C   0  0  0  0  0  0  0  0  0  0  0  0
    0.3860   56.4830   75.3160 C   0  0  0  0  0  0  0  0  0  0  0  0
    1.2740   56.6280   74.1410 C   0  0  0  0  0  0  0  0  0  0  0  0
    1.4620   57.9110   73.6170 C   0  0  0  0  0  0  0  0  0  0  0  0
    2.2170   57.8200   72.4840 C   0  0  0  0  0  0  0  0  0  0  0  0
    2.5050   58.9530   71.6600 C   0  0  0  0  0  0  0  0  0  0  0  0
    3.2030   58.9240   70.6520 O   0  0  0  0  0  0  0  0  0  0  0  0
    2.5710   56.5030   72.3310 N   0  0  0  0  0  0  0  0  0  0  0  0
    1.9830   55.7590   73.3390 C   0  0  0  0  0  0  0  0  0  0  0  0
   -1.0860   61.4640   73.7090 C   0  0  0  0  0  0  0  0  0  0  0  0
   -1.8370   61.6710   74.8070 C   0  0  0  0  0  0  0  0  0  0  0  0
   -1.2660   62.1210   76.1350 C   0  0  2  0  0  0  0  0  0  0  0  0
   -3.6830   61.3450   74.7820 Br  0  0  0  0  0  0  0  0  0  0  0  0
   -1.8620   63.3770   76.4740 O   0  0  0  0  0  0  0  0  0  0  0  0
    2.0742   62.2628   75.0854 H   0  0  0  0  0  0  0  0  0  0  0  0
    0.2868   63.7646   72.8434 H   0  0  0  0  0  0  0  0  0  0  0  0
    1.6566   63.4045   70.8901 H   0  0  0  0  0  0  0  0  0  0  0  0
    2.6161   61.2518   70.4752 H   0  0  0  0  0  0  0  0  0  0  0  0
    1.2301   57.8730   76.7279 H   0  0  0  0  0  0  0  0  0  0  0  0
   -0.6194   57.7938   76.6464 H   0  0  0  0  0  0  0  0  0  0  0  0
    0.7753   55.6918   75.9736 H   0  0  0  0  0  0  0  0  0  0  0  0
   -0.6262   56.2163   74.9780 H   0  0  0  0  0  0  0  0  0  0  0  0
    3.1764   56.1288   71.5864 H   0  0  0  0  0  0  0  0  0  0  0  0
    2.0663   54.6707   73.4757 H   0  0  0  0  0  0  0  0  0  0  0  0
   -1.5946   61.1483   72.7862 H   0  0  0  0  0  0  0  0  0  0  0  0
   -1.4901   61.3392   76.8757 H   0  0  0  0  0  0  0  0  0  0  0  0
   -1.9046   63.4669   77.4590 H   0  0  0  0  0  0  0  0  0  0  0  0
  2  1  1  0
  3  2  2  0
  4  3  1  1
  5  4  1  0
  6  5  2  0
  7  6  1  0
  8  7  1  0
  9  4  1  0
  9  8  2  0
 10  9  1  0
 11 10  2  0
 12 11  1  0
 13 12  1  0
 14 13  1  0
 15 10  1  0
 15 14  1  0
 16 15  2  0
 17 16  1  0
 17  8  1  0
 18 17  2  0
 19 16  1  0
 20 19  1  0
 20 14  2  0
 21  4  1  0
 22 21  2  0
 23 22  1  0
 23  2  1  0
 24 22  1  0
 25 23  1  0
  3 26  1  0
  5 27  1  0
  6 28  1  0
  7 29  1  0
 12 30  1  0
 12 31  1  0
 13 32  1  0
 13 33  1  0
 19 34  1  0
 20 35  1  0
 21 36  1  0
 23 37  1  1
 25 38  1  0
M  END
>  <score>  (9) 
-6.582

$$$$
