=
     RDKit          3D

 28 29  0  0  0  0  0  0  0  0999 V2000
    1.9330   67.7360   65.4040 C   0  0  1  0  0  0  0  0  0  0  0  0
    3.6660   67.7030   63.1600 F   0  0  0  0  0  0  0  0  0  0  0  0
    2.4570   68.2570   62.9900 C   0  0  0  0  0  0  0  0  0  0  0  0
    2.1210   68.7900   61.7500 C   0  0  0  0  0  0  0  0  0  0  0  0
    3.0000   68.7480   60.7380 F   0  0  0  0  0  0  0  0  0  0  0  0
    0.8770   69.3770   61.5440 C   0  0  0  0  0  0  0  0  0  0  0  0
   -0.0400   69.4260   62.5930 C   0  0  0  0  0  0  0  0  0  0  0  0
    0.2960   68.8920   63.8400 C   0  0  0  0  0  0  0  0  0  0  0  0
    1.5550   68.3020   64.0570 C   0  0  0  0  0  0  0  0  0  0  0  0
    2.0880   68.8210   66.4820 C   0  0  0  0  0  0  0  0  0  0  0  0
    1.1150   69.2510   67.1060 O   0  0  0  0  0  0  0  0  0  0  0  0
    3.4210   69.3850   66.7810 C   0  0  0  0  0  0  0  0  0  0  0  0
    4.3800   69.4220   65.7580 C   0  0  0  0  0  0  0  0  0  0  0  0
    5.6510   69.9470   66.0070 C   0  0  0  0  0  0  0  0  0  0  0  0
    5.9610   70.4470   67.2710 C   0  0  0  0  0  0  0  0  0  0  0  0
    4.9950   70.4270   68.2750 C   0  0  0  0  0  0  0  0  0  0  0  0
    3.7290   69.9050   68.0340 C   0  0  0  0  0  0  0  0  0  0  0  0
    2.8080   69.9430   69.0060 F   0  0  0  0  0  0  0  0  0  0  0  0
    5.2950   70.9290   69.4790 F   0  0  0  0  0  0  0  0  0  0  0  0
    0.8780   66.8460   65.7920 O   0  0  0  0  0  0  0  0  0  0  0  0
    2.9060   67.2304   65.3168 H   0  0  0  0  0  0  0  0  0  0  0  0
    0.6188   69.7991   60.5616 H   0  0  0  0  0  0  0  0  0  0  0  0
   -1.0278   69.8849   62.4392 H   0  0  0  0  0  0  0  0  0  0  0  0
   -0.4331   68.9334   64.6626 H   0  0  0  0  0  0  0  0  0  0  0  0
    4.1312   69.0371   64.7580 H   0  0  0  0  0  0  0  0  0  0  0  0
    6.4057   69.9657   65.2069 H   0  0  0  0  0  0  0  0  0  0  0  0
    6.9621   70.8548   67.4745 H   0  0  0  0  0  0  0  0  0  0  0  0
    0.8282   66.8040   66.7799 H   0  0  0  0  0  0  0  0  0  0  0  0
  3  2  1  0
  4  3  2  0
  5  4  1  0
  6  4  1  0
  7  6  2  0
  8  7  1  0
  9  8  2  0
  9  3  1  0
  9  1  1  0
 10  1  1  0
 11 10  2  0
 12 10  1  0
 13 12  2  0
 14 13  1  0
 15 14  2  0
 16 15  1  0
 17 16  2  0
 17 12  1  0
 18 17  1  0
 19 16  1  0
 20  1  1  0
  1 21  1  6
  6 22  1  0
  7 23  1  0
  8 24  1  0
 13 25  1  0
 14 26  1  0
 15 27  1  0
 20 28  1  0
M  END
>  <score>  (1) 
-9.911

$$$$
=
     RDKit          3D

 28 29  0  0  0  0  0  0  0  0999 V2000
    2.0250   68.5130   67.9290 C   0  0  1  0  0  0  0  0  0  0  0  0
    2.4750   68.1800   65.1500 F   0  0  0  0  0  0  0  0  0  0  0  0
    1.2200   68.4490   65.5370 C   0  0  0  0  0  0  0  0  0  0  0  0
    0.2210   68.5630   64.5760 C   0  0  0  0  0  0  0  0  0  0  0  0
    0.5140   68.4050   63.2780 F   0  0  0  0  0  0  0  0  0  0  0  0
   -1.0890   68.8480   64.9470 C   0  0  0  0  0  0  0  0  0  0  0  0
   -1.3990   69.0160   66.2950 C   0  0  0  0  0  0  0  0  0  0  0  0
   -0.3960   68.9030   67.2620 C   0  0  0  0  0  0  0  0  0  0  0  0
    0.9330   68.6210   66.8940 C   0  0  0  0  0  0  0  0  0  0  0  0
    2.6780   69.8660   68.2500 C   0  0  0  0  0  0  0  0  0  0  0  0
    2.0260   70.7960   68.7330 O   0  0  0  0  0  0  0  0  0  0  0  0
    4.1120   70.0850   67.9650 C   0  0  0  0  0  0  0  0  0  0  0  0
    4.5820   69.8550   66.6640 C   0  0  0  0  0  0  0  0  0  0  0  0
    5.9310   70.0500   66.3610 C   0  0  0  0  0  0  0  0  0  0  0  0
    6.8100   70.4860   67.3520 C   0  0  0  0  0  0  0  0  0  0  0  0
    6.3310   70.7340   68.6360 C   0  0  0  0  0  0  0  0  0  0  0  0
    4.9890   70.5400   68.9440 C   0  0  0  0  0  0  0  0  0  0  0  0
    4.5490   70.8330   70.1760 F   0  0  0  0  0  0  0  0  0  0  0  0
    7.1770   71.1730   69.5760 F   0  0  0  0  0  0  0  0  0  0  0  0
    1.4180   67.9970   69.1220 O   0  0  0  0  0  0  0  0  0  0  0  0
    2.8200   67.8605   67.5388 H   0  0  0  0  0  0  0  0  0  0  0  0
   -1.8741   68.9400   64.1821 H   0  0  0  0  0  0  0  0  0  0  0  0
   -2.4329   69.2375   66.5982 H   0  0  0  0  0  0  0  0  0  0  0  0
   -0.6486   69.0362   68.3243 H   0  0  0  0  0  0  0  0  0  0  0  0
    3.8864   69.5202   65.8804 H   0  0  0  0  0  0  0  0  0  0  0  0
    6.2998   69.8600   65.3422 H   0  0  0  0  0  0  0  0  0  0  0  0
    7.8753   70.6332   67.1209 H   0  0  0  0  0  0  0  0  0  0  0  0
    1.8698   68.3810   69.9148 H   0  0  0  0  0  0  0  0  0  0  0  0
  3  2  1  0
  4  3  2  0
  5  4  1  0
  6  4  1  0
  7  6  2  0
  8  7  1  0
  9  8  2  0
  9  3  1  0
  9  1  1  0
 10  1  1  0
 11 10  2  0
 12 10  1  0
 13 12  2  0
 14 13  1  0
 15 14  2  0
 16 15  1  0
 17 16  2  0
 17 12  1  0
 18 17  1  0
 19 16  1  0
 20  1  1  0
  1 21  1  6
  6 22  1  0
  7 23  1  0
  8 24  1  0
 13 25  1  0
 14 26  1  0
 15 27  1  0
 20 28  1  0
M  END
>  <score>  (2) 
-9.738

$$$$
=
     RDKit          3D

 28 29  0  0  0  0  0  0  0  0999 V2000
    2.0380   69.0350   66.7720 C   0  0  1  0  0  0  0  0  0  0  0  0
    3.0180   70.1650   69.1800 F   0  0  0  0  0  0  0  0  0  0  0  0
    3.8830   70.0540   68.1620 C   0  0  0  0  0  0  0  0  0  0  0  0
    5.1900   70.5010   68.3260 C   0  0  0  0  0  0  0  0  0  0  0  0
    5.5760   71.0370   69.4930 F   0  0  0  0  0  0  0  0  0  0  0  0
    6.1080   70.4060   67.2860 C   0  0  0  0  0  0  0  0  0  0  0  0
    5.7110   69.8530   66.0700 C   0  0  0  0  0  0  0  0  0  0  0  0
    4.3980   69.4030   65.9020 C   0  0  0  0  0  0  0  0  0  0  0  0
    3.4620   69.5020   66.9490 C   0  0  0  0  0  0  0  0  0  0  0  0
    1.8870   68.0010   65.6450 C   0  0  0  0  0  0  0  0  0  0  0  0
    2.0900   66.8000   65.8430 O   0  0  0  0  0  0  0  0  0  0  0  0
    1.5070   68.4360   64.2840 C   0  0  0  0  0  0  0  0  0  0  0  0
    0.2300   68.9770   64.0840 C   0  0  0  0  0  0  0  0  0  0  0  0
   -0.1630   69.3950   62.8100 C   0  0  0  0  0  0  0  0  0  0  0  0
    0.7240   69.2860   61.7390 C   0  0  0  0  0  0  0  0  0  0  0  0
    1.9990   68.7690   61.9510 C   0  0  0  0  0  0  0  0  0  0  0  0
    2.3950   68.3490   63.2170 C   0  0  0  0  0  0  0  0  0  0  0  0
    3.6440   67.9000   63.3980 F   0  0  0  0  0  0  0  0  0  0  0  0
    2.8510   68.6880   60.9220 F   0  0  0  0  0  0  0  0  0  0  0  0
    1.6410   68.4310   68.0110 O   0  0  0  0  0  0  0  0  0  0  0  0
    1.4125   69.8978   66.4995 H   0  0  0  0  0  0  0  0  0  0  0  0
    7.1391   70.7644   67.4219 H   0  0  0  0  0  0  0  0  0  0  0  0
    6.4308   69.7705   65.2423 H   0  0  0  0  0  0  0  0  0  0  0  0
    4.0925   68.9662   64.9398 H   0  0  0  0  0  0  0  0  0  0  0  0
   -0.4645   69.0728   64.9317 H   0  0  0  0  0  0  0  0  0  0  0  0
   -1.1697   69.8091   62.6519 H   0  0  0  0  0  0  0  0  0  0  0  0
    0.4177   69.6068   60.7324 H   0  0  0  0  0  0  0  0  0  0  0  0
    1.9925   68.9658   68.7664 H   0  0  0  0  0  0  0  0  0  0  0  0
  3  2  1  0
  4  3  2  0
  5  4  1  0
  6  4  1  0
  7  6  2  0
  8  7  1  0
  9  8  2  0
  9  3  1  0
  9  1  1  0
 10  1  1  0
 11 10  2  0
 12 10  1  0
 13 12  2  0
 14 13  1  0
 15 14  2  0
 16 15  1  0
 17 16  2  0
 17 12  1  0
 18 17  1  0
 19 16  1  0
 20  1  1  0
  1 21  1  6
  6 22  1  0
  7 23  1  0
  8 24  1  0
 13 25  1  0
 14 26  1  0
 15 27  1  0
 20 28  1  0
M  END
>  <score>  (3) 
-9.542

$$$$
=
     RDKit          3D

 28 29  0  0  0  0  0  0  0  0999 V2000
    2.2720   67.9360   65.9900 C   0  0  1  0  0  0  0  0  0  0  0  0
   -0.4650   68.5050   65.5190 F   0  0  0  0  0  0  0  0  0  0  0  0
    0.3660   68.5920   64.4700 C   0  0  0  0  0  0  0  0  0  0  0  0
   -0.1450   68.9370   63.2230 C   0  0  0  0  0  0  0  0  0  0  0  0
   -1.4560   69.1790   63.0760 F   0  0  0  0  0  0  0  0  0  0  0  0
    0.6910   69.0290   62.1160 C   0  0  0  0  0  0  0  0  0  0  0  0
    2.0530   68.7760   62.2620 C   0  0  0  0  0  0  0  0  0  0  0  0
    2.5690   68.4280   63.5140 C   0  0  0  0  0  0  0  0  0  0  0  0
    1.7270   68.3270   64.6380 C   0  0  0  0  0  0  0  0  0  0  0  0
    2.5060   69.1450   66.9100 C   0  0  0  0  0  0  0  0  0  0  0  0
    1.5700   69.7060   67.4850 O   0  0  0  0  0  0  0  0  0  0  0  0
    3.8720   69.6730   67.1090 C   0  0  0  0  0  0  0  0  0  0  0  0
    4.7280   69.7590   66.0020 C   0  0  0  0  0  0  0  0  0  0  0  0
    6.0270   70.2510   66.1550 C   0  0  0  0  0  0  0  0  0  0  0  0
    6.4670   70.6700   67.4100 C   0  0  0  0  0  0  0  0  0  0  0  0
    5.6030   70.6030   68.5000 C   0  0  0  0  0  0  0  0  0  0  0  0
    4.3100   70.1120   68.3540 C   0  0  0  0  0  0  0  0  0  0  0  0
    3.4880   70.1050   69.4120 F   0  0  0  0  0  0  0  0  0  0  0  0
    6.0270   71.0270   69.6970 F   0  0  0  0  0  0  0  0  0  0  0  0
    1.3010   67.0740   66.5970 O   0  0  0  0  0  0  0  0  0  0  0  0
    3.2476   67.4471   65.8511 H   0  0  0  0  0  0  0  0  0  0  0  0
    0.2800   69.2996   61.1322 H   0  0  0  0  0  0  0  0  0  0  0  0
    2.7225   68.8500   61.3924 H   0  0  0  0  0  0  0  0  0  0  0  0
    3.6457   68.2307   63.6222 H   0  0  0  0  0  0  0  0  0  0  0  0
    4.3762   69.4383   65.0103 H   0  0  0  0  0  0  0  0  0  0  0  0
    6.7008   70.3076   65.2874 H   0  0  0  0  0  0  0  0  0  0  0  0
    7.4908   71.0513   67.5383 H   0  0  0  0  0  0  0  0  0  0  0  0
    1.3730   67.1380   67.5823 H   0  0  0  0  0  0  0  0  0  0  0  0
  3  2  1  0
  4  3  2  0
  5  4  1  0
  6  4  1  0
  7  6  2  0
  8  7  1  0
  9  8  2  0
  9  3  1  0
  9  1  1  0
 10  1  1  0
 11 10  2  0
 12 10  1  0
 13 12  2  0
 14 13  1  0
 15 14  2  0
 16 15  1  0
 17 16  2  0
 17 12  1  0
 18 17  1  0
 19 16  1  0
 20  1  1  0
  1 21  1  6
  6 22  1  0
  7 23  1  0
  8 24  1  0
 13 25  1  0
 14 26  1  0
 15 27  1  0
 20 28  1  0
M  END
>  <score>  (4) 
-9.393

$$$$
=
     RDKit          3D

 28 29  0  0  0  0  0  0  0  0999 V2000
    2.1720   69.4290   67.3040 C   0  0  1  0  0  0  0  0  0  0  0  0
    3.5430   70.5750   69.5050 F   0  0  0  0  0  0  0  0  0  0  0  0
    4.2630   70.3190   68.4030 C   0  0  0  0  0  0  0  0  0  0  0  0
    5.6180   70.6330   68.3870 C   0  0  0  0  0  0  0  0  0  0  0  0
    6.1940   71.1850   69.4640 F   0  0  0  0  0  0  0  0  0  0  0  0
    6.3900   70.3850   67.2570 C   0  0  0  0  0  0  0  0  0  0  0  0
    5.7950   69.8140   66.1330 C   0  0  0  0  0  0  0  0  0  0  0  0
    4.4340   69.4980   66.1470 C   0  0  0  0  0  0  0  0  0  0  0  0
    3.6460   69.7510   67.2850 C   0  0  0  0  0  0  0  0  0  0  0  0
    1.8110   68.2400   66.4000 C   0  0  0  0  0  0  0  0  0  0  0  0
    1.9350   67.0760   66.7900 O   0  0  0  0  0  0  0  0  0  0  0  0
    1.3200   68.4730   65.0250 C   0  0  0  0  0  0  0  0  0  0  0  0
    2.2420   68.4530   63.9690 C   0  0  0  0  0  0  0  0  0  0  0  0
    1.8120   68.6720   62.6580 C   0  0  0  0  0  0  0  0  0  0  0  0
    0.4610   68.9000   62.3990 C   0  0  0  0  0  0  0  0  0  0  0  0
   -0.4520   68.8960   63.4510 C   0  0  0  0  0  0  0  0  0  0  0  0
   -0.0290   68.6800   64.7590 C   0  0  0  0  0  0  0  0  0  0  0  0
   -0.9380   68.6350   65.7420 F   0  0  0  0  0  0  0  0  0  0  0  0
   -1.7500   69.0940   63.1900 F   0  0  0  0  0  0  0  0  0  0  0  0
    1.8340   69.1010   68.6580 O   0  0  0  0  0  0  0  0  0  0  0  0
    1.6144   70.2984   66.9255 H   0  0  0  0  0  0  0  0  0  0  0  0
    7.4607   70.6372   67.2502 H   0  0  0  0  0  0  0  0  0  0  0  0
    6.3971   69.6122   65.2348 H   0  0  0  0  0  0  0  0  0  0  0  0
    3.9726   69.0456   65.2568 H   0  0  0  0  0  0  0  0  0  0  0  0
    3.3063   68.2645   64.1732 H   0  0  0  0  0  0  0  0  0  0  0  0
    2.5379   68.6646   61.8315 H   0  0  0  0  0  0  0  0  0  0  0  0
    0.1182   69.0820   61.3698 H   0  0  0  0  0  0  0  0  0  0  0  0
    2.3888   69.6394   69.2763 H   0  0  0  0  0  0  0  0  0  0  0  0
  3  2  1  0
  4  3  2  0
  5  4  1  0
  6  4  1  0
  7  6  2  0
  8  7  1  0
  9  8  2  0
  9  3  1  0
  9  1  1  0
 10  1  1  0
 11 10  2  0
 12 10  1  0
 13 12  2  0
 14 13  1  0
 15 14  2  0
 16 15  1  0
 17 16  2  0
 17 12  1  0
 18 17  1  0
 19 16  1  0
 20  1  1  0
  1 21  1  6
  6 22  1  0
  7 23  1  0
  8 24  1  0
 13 25  1  0
 14 26  1  0
 15 27  1  0
 20 28  1  0
M  END
>  <score>  (5) 
-9.38

$$$$
=
     RDKit          3D

 28 29  0  0  0  0  0  0  0  0999 V2000
    2.2560   67.3590   65.7790 C   0  0  1  0  0  0  0  0  0  0  0  0
    1.2190   69.0540   63.7560 F   0  0  0  0  0  0  0  0  0  0  0  0
    2.2850   68.3050   63.4390 C   0  0  0  0  0  0  0  0  0  0  0  0
    2.8130   68.3830   62.1540 C   0  0  0  0  0  0  0  0  0  0  0  0
    2.2590   69.2000   61.2470 F   0  0  0  0  0  0  0  0  0  0  0  0
    3.9140   67.6140   61.7930 C   0  0  0  0  0  0  0  0  0  0  0  0
    4.4920   66.7610   62.7310 C   0  0  0  0  0  0  0  0  0  0  0  0
    3.9620   66.6800   64.0220 C   0  0  0  0  0  0  0  0  0  0  0  0
    2.8450   67.4520   64.3930 C   0  0  0  0  0  0  0  0  0  0  0  0
    2.2040   68.7180   66.4950 C   0  0  0  0  0  0  0  0  0  0  0  0
    1.1320   69.2850   66.7210 O   0  0  0  0  0  0  0  0  0  0  0  0
    3.4550   69.3840   66.9160 C   0  0  0  0  0  0  0  0  0  0  0  0
    4.4570   69.5970   65.9590 C   0  0  0  0  0  0  0  0  0  0  0  0
    5.6530   70.2220   66.3230 C   0  0  0  0  0  0  0  0  0  0  0  0
    5.8430   70.6460   67.6380 C   0  0  0  0  0  0  0  0  0  0  0  0
    4.8330   70.4510   68.5770 C   0  0  0  0  0  0  0  0  0  0  0  0
    3.6410   69.8280   68.2210 C   0  0  0  0  0  0  0  0  0  0  0  0
    2.6710   69.6980   69.1350 F   0  0  0  0  0  0  0  0  0  0  0  0
    5.0160   70.8810   69.8310 F   0  0  0  0  0  0  0  0  0  0  0  0
    0.9190   66.8620   65.6320 O   0  0  0  0  0  0  0  0  0  0  0  0
    2.8898   66.6995   66.3901 H   0  0  0  0  0  0  0  0  0  0  0  0
    4.3254   67.6786   60.7749 H   0  0  0  0  0  0  0  0  0  0  0  0
    5.3653   66.1514   62.4556 H   0  0  0  0  0  0  0  0  0  0  0  0
    4.4237   66.0045   64.7572 H   0  0  0  0  0  0  0  0  0  0  0  0
    4.3017   69.2717   64.9197 H   0  0  0  0  0  0  0  0  0  0  0  0
    6.4429   70.3792   65.5738 H   0  0  0  0  0  0  0  0  0  0  0  0
    6.7852   71.1317   67.9319 H   0  0  0  0  0  0  0  0  0  0  0  0
    0.5216   66.7143   66.5266 H   0  0  0  0  0  0  0  0  0  0  0  0
  3  2  1  0
  4  3  2  0
  5  4  1  0
  6  4  1  0
  7  6  2  0
  8  7  1  0
  9  8  2  0
  9  3  1  0
  9  1  1  0
 10  1  1  0
 11 10  2  0
 12 10  1  0
 13 12  2  0
 14 13  1  0
 15 14  2  0
 16 15  1  0
 17 16  2  0
 17 12  1  0
 18 17  1  0
 19 16  1  0
 20  1  1  0
  1 21  1  1
  6 22  1  0
  7 23  1  0
  8 24  1  0
 13 25  1  0
 14 26  1  0
 15 27  1  0
 20 28  1  0
M  END
>  <score>  (6) 
-9.361

$$$$
=
     RDKit          3D

 28 29  0  0  0  0  0  0  0  0999 V2000
    2.3300   69.9740   67.4040 C   0  0  1  0  0  0  0  0  0  0  0  0
    4.7030   70.0150   65.8530 F   0  0  0  0  0  0  0  0  0  0  0  0
    4.8330   70.2080   67.1730 C   0  0  0  0  0  0  0  0  0  0  0  0
    6.1010   70.4030   67.7110 C   0  0  0  0  0  0  0  0  0  0  0  0
    7.1790   70.3970   66.9140 F   0  0  0  0  0  0  0  0  0  0  0  0
    6.2680   70.6000   69.0780 C   0  0  0  0  0  0  0  0  0  0  0  0
    5.1520   70.6040   69.9120 C   0  0  0  0  0  0  0  0  0  0  0  0
    3.8770   70.4080   69.3730 C   0  0  0  0  0  0  0  0  0  0  0  0
    3.7010   70.2030   67.9920 C   0  0  0  0  0  0  0  0  0  0  0  0
    2.0630   68.4970   67.0730 C   0  0  0  0  0  0  0  0  0  0  0  0
    2.6290   67.9370   66.1310 O   0  0  0  0  0  0  0  0  0  0  0  0
    1.0990   67.7180   67.8780 C   0  0  0  0  0  0  0  0  0  0  0  0
    1.5250   67.1760   69.0990 C   0  0  0  0  0  0  0  0  0  0  0  0
    0.6400   66.4330   69.8840 C   0  0  0  0  0  0  0  0  0  0  0  0
   -0.6730   66.2400   69.4580 C   0  0  0  0  0  0  0  0  0  0  0  0
   -1.0950   66.8010   68.2540 C   0  0  0  0  0  0  0  0  0  0  0  0
   -0.2190   67.5410   67.4680 C   0  0  0  0  0  0  0  0  0  0  0  0
   -0.6680   68.1070   66.3400 F   0  0  0  0  0  0  0  0  0  0  0  0
   -2.3640   66.6290   67.8630 F   0  0  0  0  0  0  0  0  0  0  0  0
    1.3780   70.4070   68.3850 O   0  0  0  0  0  0  0  0  0  0  0  0
    2.2521   70.5322   66.4594 H   0  0  0  0  0  0  0  0  0  0  0  0
    7.2736   70.7515   69.4973 H   0  0  0  0  0  0  0  0  0  0  0  0
    5.2740   70.7613   70.9938 H   0  0  0  0  0  0  0  0  0  0  0  0
    3.0001   70.4141   70.0370 H   0  0  0  0  0  0  0  0  0  0  0  0
    2.5586   67.3363   69.4396 H   0  0  0  0  0  0  0  0  0  0  0  0
    0.9789   66.0008   70.8371 H   0  0  0  0  0  0  0  0  0  0  0  0
   -1.3717   65.6487   70.0681 H   0  0  0  0  0  0  0  0  0  0  0  0
    1.7402   70.2423   69.2915 H   0  0  0  0  0  0  0  0  0  0  0  0
  3  2  1  0
  4  3  2  0
  5  4  1  0
  6  4  1  0
  7  6  2  0
  8  7  1  0
  9  8  2  0
  9  3  1  0
  9  1  1  0
 10  1  1  0
 11 10  2  0
 12 10  1  0
 13 12  2  0
 14 13  1  0
 15 14  2  0
 16 15  1  0
 17 16  2  0
 17 12  1  0
 18 17  1  0
 19 16  1  0
 20  1  1  0
  1 21  1  6
  6 22  1  0
  7 23  1  0
  8 24  1  0
 13 25  1  0
 14 26  1  0
 15 27  1  0
 20 28  1  0
M  END
>  <score>  (7) 
-9.013

$$$$
=
     RDKit          3D

 28 29  0  0  0  0  0  0  0  0999 V2000
    2.3870   67.2210   65.3220 C   0  0  1  0  0  0  0  0  0  0  0  0
    5.1170   67.7500   64.7710 F   0  0  0  0  0  0  0  0  0  0  0  0
    4.2300   68.0630   63.8160 C   0  0  0  0  0  0  0  0  0  0  0  0
    4.6800   68.6320   62.6290 C   0  0  0  0  0  0  0  0  0  0  0  0
    5.9880   68.8640   62.4470 F   0  0  0  0  0  0  0  0  0  0  0  0
    3.7840   68.9740   61.6220 C   0  0  0  0  0  0  0  0  0  0  0  0
    2.4230   68.7380   61.8080 C   0  0  0  0  0  0  0  0  0  0  0  0
    1.9680   68.1660   62.9990 C   0  0  0  0  0  0  0  0  0  0  0  0
    2.8700   67.8240   64.0250 C   0  0  0  0  0  0  0  0  0  0  0  0
    1.6560   68.2370   66.2140 C   0  0  0  0  0  0  0  0  0  0  0  0
    2.2370   69.2220   66.6760 O   0  0  0  0  0  0  0  0  0  0  0  0
    0.2310   68.0380   66.5520 C   0  0  0  0  0  0  0  0  0  0  0  0
   -0.0920   67.2870   67.6920 C   0  0  0  0  0  0  0  0  0  0  0  0
   -1.4280   67.0770   68.0390 C   0  0  0  0  0  0  0  0  0  0  0  0
   -2.4440   67.6270   67.2560 C   0  0  0  0  0  0  0  0  0  0  0  0
   -2.1150   68.3900   66.1390 C   0  0  0  0  0  0  0  0  0  0  0  0
   -0.7860   68.6010   65.7870 C   0  0  0  0  0  0  0  0  0  0  0  0
   -0.5010   69.3790   64.7340 F   0  0  0  0  0  0  0  0  0  0  0  0
   -3.0950   68.9320   65.4060 F   0  0  0  0  0  0  0  0  0  0  0  0
    1.4770   66.1680   64.9780 O   0  0  0  0  0  0  0  0  0  0  0  0
    3.2564   66.8625   65.8926 H   0  0  0  0  0  0  0  0  0  0  0  0
    4.1461   69.4267   60.6871 H   0  0  0  0  0  0  0  0  0  0  0  0
    1.7063   69.0023   61.0165 H   0  0  0  0  0  0  0  0  0  0  0  0
    0.8925   67.9807   63.1368 H   0  0  0  0  0  0  0  0  0  0  0  0
    0.7095   66.8624   68.3143 H   0  0  0  0  0  0  0  0  0  0  0  0
   -1.6793   66.4793   68.9276 H   0  0  0  0  0  0  0  0  0  0  0  0
   -3.4985   67.4586   67.5199 H   0  0  0  0  0  0  0  0  0  0  0  0
    1.1211   65.7562   65.8049 H   0  0  0  0  0  0  0  0  0  0  0  0
  3  2  1  0
  4  3  2  0
  5  4  1  0
  6  4  1  0
  7  6  2  0
  8  7  1  0
  9  8  2  0
  9  3  1  0
  9  1  1  0
 10  1  1  0
 11 10  2  0
 12 10  1  0
 13 12  2  0
 14 13  1  0
 15 14  2  0
 16 15  1  0
 17 16  2  0
 17 12  1  0
 18 17  1  0
 19 16  1  0
 20  1  1  0
  1 21  1  1
  6 22  1  0
  7 23  1  0
  8 24  1  0
 13 25  1  0
 14 26  1  0
 15 27  1  0
 20 28  1  0
M  END
>  <score>  (8) 
-9.009

$$$$
=
     RDKit          3D

 28 29  0  0  0  0  0  0  0  0999 V2000
    1.6460   67.7180   66.3760 C   0  0  1  0  0  0  0  0  0  0  0  0
   -0.2550   69.1540   64.8390 F   0  0  0  0  0  0  0  0  0  0  0  0
   -0.7210   68.4350   65.8700 C   0  0  0  0  0  0  0  0  0  0  0  0
   -2.0860   68.4370   66.1400 C   0  0  0  0  0  0  0  0  0  0  0  0
   -2.9230   69.1520   65.3750 F   0  0  0  0  0  0  0  0  0  0  0  0
   -2.5980   67.7060   67.2070 C   0  0  0  0  0  0  0  0  0  0  0  0
   -1.7330   66.9640   68.0080 C   0  0  0  0  0  0  0  0  0  0  0  0
   -0.3610   66.9610   67.7390 C   0  0  0  0  0  0  0  0  0  0  0  0
    0.1650   67.7030   66.6640 C   0  0  0  0  0  0  0  0  0  0  0  0
    2.0020   67.0280   65.0500 C   0  0  0  0  0  0  0  0  0  0  0  0
    1.5030   65.9440   64.7360 O   0  0  0  0  0  0  0  0  0  0  0  0
    2.9740   67.6500   64.1260 C   0  0  0  0  0  0  0  0  0  0  0  0
    4.3270   67.6820   64.4950 C   0  0  0  0  0  0  0  0  0  0  0  0
    5.2710   68.2640   63.6460 C   0  0  0  0  0  0  0  0  0  0  0  0
    4.8690   68.8030   62.4250 C   0  0  0  0  0  0  0  0  0  0  0  0
    3.5270   68.7470   62.0560 C   0  0  0  0  0  0  0  0  0  0  0  0
    2.5820   68.1700   62.8970 C   0  0  0  0  0  0  0  0  0  0  0  0
    1.3070   68.0890   62.4930 F   0  0  0  0  0  0  0  0  0  0  0  0
    3.1540   69.2480   60.8720 F   0  0  0  0  0  0  0  0  0  0  0  0
    2.0410   69.0950   66.3010 O   0  0  0  0  0  0  0  0  0  0  0  0
    2.1678   67.1672   67.1725 H   0  0  0  0  0  0  0  0  0  0  0  0
   -3.6778   67.7138   67.4166 H   0  0  0  0  0  0  0  0  0  0  0  0
   -2.1293   66.3805   68.8521 H   0  0  0  0  0  0  0  0  0  0  0  0
    0.3159   66.3717   68.3750 H   0  0  0  0  0  0  0  0  0  0  0  0
    4.6450   67.2481   65.4545 H   0  0  0  0  0  0  0  0  0  0  0  0
    6.3303   68.2970   63.9405 H   0  0  0  0  0  0  0  0  0  0  0  0
    5.6074   69.2699   61.7566 H   0  0  0  0  0  0  0  0  0  0  0  0
    2.1453   69.4587   67.2159 H   0  0  0  0  0  0  0  0  0  0  0  0
  3  2  1  0
  4  3  2  0
  5  4  1  0
  6  4  1  0
  7  6  2  0
  8  7  1  0
  9  8  2  0
  9  3  1  0
  9  1  1  0
 10  1  1  0
 11 10  2  0
 12 10  1  0
 13 12  2  0
 14 13  1  0
 15 14  2  0
 16 15  1  0
 17 16  2  0
 17 12  1  0
 18 17  1  0
 19 16  1  0
 20  1  1  0
  1 21  1  1
  6 22  1  0
  7 23  1  0
  8 24  1  0
 13 25  1  0
 14 26  1  0
 15 27  1  0
 20 28  1  0
M  END
>  <score>  (9) 
-8.732

$$$$
