=
     RDKit          3D

 49 52  0  0  0  0  0  0  0  0999 V2000
    1.0220   67.8690   63.6920 C   0  0  2  0  0  0  0  0  0  0  0  0
    0.0250   67.4200   64.7950 C   0  0  0  0  0  0  0  0  0  0  0  0
    0.5750   67.9510   66.1350 C   0  0  0  0  0  0  0  0  0  0  0  0
    1.7660   68.8250   65.7450 C   0  0  2  0  0  0  0  0  0  0  0  0
    2.3340   68.1250   64.4920 C   0  0  1  0  0  0  0  0  0  0  0  0
    3.0240   66.7630   64.7980 C   0  0  0  0  0  0  0  0  0  0  0  0
    3.3730   69.0670   63.8560 C   0  0  0  0  0  0  0  0  0  0  0  0
    4.4840   69.4410   64.8530 C   0  0  0  0  0  0  0  0  0  0  0  0
    3.9540   70.0070   66.1940 C   0  0  1  0  0  0  0  0  0  0  0  0
    2.8280   69.1260   66.8090 C   0  0  1  0  0  0  0  0  0  0  0  0
    2.1990   69.7780   68.0560 C   0  0  0  0  0  0  0  0  0  0  0  0
    3.1060   70.7430   68.8230 C   0  0  0  0  0  0  0  0  0  0  0  0
    4.5770   70.5530   68.5630 C   0  0  0  0  0  0  0  0  0  0  0  0
    5.0160   70.2300   67.2640 C   0  0  0  0  0  0  0  0  0  0  0  0
    6.3910   70.1520   67.0220 C   0  0  0  0  0  0  0  0  0  0  0  0
    7.3080   70.3710   68.0550 C   0  0  0  0  0  0  0  0  0  0  0  0
    6.8760   70.6860   69.3420 C   0  0  0  0  0  0  0  0  0  0  0  0
    5.5080   70.7860   69.5910 C   0  0  0  0  0  0  0  0  0  0  0  0
    0.0760   70.0200   62.4020 C   0  0  0  0  0  0  0  0  0  0  0  0
    0.4990   69.0600   62.9880 C   0  0  0  0  0  0  0  0  0  0  0  0
    1.1870   66.8340   62.7330 O   0  0  0  0  0  0  0  0  0  0  0  0
    7.8780   70.8810   70.2510 O   0  0  0  0  0  0  0  0  0  0  0  0
    7.7380   70.2360   71.5110 C   0  0  0  0  0  0  0  0  0  0  0  0
   -0.9714   67.8434   64.6001 H   0  0  0  0  0  0  0  0  0  0  0  0
   -0.0747   66.3247   64.8152 H   0  0  0  0  0  0  0  0  0  0  0  0
   -0.1876   68.5457   66.6592 H   0  0  0  0  0  0  0  0  0  0  0  0
    0.8608   67.1386   66.8193 H   0  0  0  0  0  0  0  0  0  0  0  0
    1.4170   69.8541   65.5743 H   0  0  0  0  0  0  0  0  0  0  0  0
    3.0944   66.6241   65.8869 H   0  0  0  0  0  0  0  0  0  0  0  0
    2.4313   65.9455   64.3616 H   0  0  0  0  0  0  0  0  0  0  0  0
    4.0337   66.7573   64.3616 H   0  0  0  0  0  0  0  0  0  0  0  0
    3.8261   68.5650   62.9884 H   0  0  0  0  0  0  0  0  0  0  0  0
    2.8590   69.9906   63.5513 H   0  0  0  0  0  0  0  0  0  0  0  0
    5.0764   68.5392   65.0669 H   0  0  0  0  0  0  0  0  0  0  0  0
    5.0826   70.2355   64.3834 H   0  0  0  0  0  0  0  0  0  0  0  0
    3.5584   70.9915   65.9036 H   0  0  0  0  0  0  0  0  0  0  0  0
    3.2784   68.1798   67.1434 H   0  0  0  0  0  0  0  0  0  0  0  0
    1.3069   70.3351   67.7337 H   0  0  0  0  0  0  0  0  0  0  0  0
    1.9798   68.9532   68.7501 H   0  0  0  0  0  0  0  0  0  0  0  0
    2.8358   71.7702   68.5368 H   0  0  0  0  0  0  0  0  0  0  0  0
    2.9473   70.5403   69.8924 H   0  0  0  0  0  0  0  0  0  0  0  0
    6.7544   69.9165   66.0108 H   0  0  0  0  0  0  0  0  0  0  0  0
    8.3857   70.2935   67.8487 H   0  0  0  0  0  0  0  0  0  0  0  0
    5.1542   71.0490   70.5988 H   0  0  0  0  0  0  0  0  0  0  0  0
   -0.3112   70.8988   61.8656 H   0  0  0  0  0  0  0  0  0  0  0  0
    1.3245   65.9713   63.1988 H   0  0  0  0  0  0  0  0  0  0  0  0
    7.8968   70.9675   72.3170 H   0  0  0  0  0  0  0  0  0  0  0  0
    6.7268   69.8114   71.5952 H   0  0  0  0  0  0  0  0  0  0  0  0
    8.4822   69.4303   71.5952 H   0  0  0  0  0  0  0  0  0  0  0  0
  2  1  1  0
  3  2  1  0
  4  3  1  0
  5  1  1  0
  5  4  1  0
  5  6  1  1
  7  5  1  0
  8  7  1  0
  9  8  1  0
 10  9  1  0
 10  4  1  0
 11 10  1  0
 12 11  1  0
 13 12  1  0
 14 13  2  0
 14  9  1  0
 15 14  1  0
 16 15  2  0
 17 16  1  0
 18 13  1  0
 18 17  2  0
 20 19  3  0
  1 20  1  6
 21  1  1  0
 22 17  1  0
 23 22  1  0
  2 24  1  0
  2 25  1  0
  3 26  1  0
  3 27  1  0
  4 28  1  6
  6 29  1  0
  6 30  1  0
  6 31  1  0
  7 32  1  0
  7 33  1  0
  8 34  1  0
  8 35  1  0
  9 36  1  6
 10 37  1  1
 11 38  1  0
 11 39  1  0
 12 40  1  0
 12 41  1  0
 15 42  1  0
 16 43  1  0
 18 44  1  0
 19 45  1  0
 21 46  1  0
 23 47  1  0
 23 48  1  0
 23 49  1  0
M  END
>  <score>  (1) 
-7.948

$$$$
=
     RDKit          3D

 49 52  0  0  0  0  0  0  0  0999 V2000
    1.7790   57.7560   74.5980 C   0  0  2  0  0  0  0  0  0  0  0  0
    2.0890   57.0100   73.2720 C   0  0  0  0  0  0  0  0  0  0  0  0
    2.2260   58.0870   72.1760 C   0  0  0  0  0  0  0  0  0  0  0  0
    2.1620   59.4150   72.9280 C   0  0  2  0  0  0  0  0  0  0  0  0
    1.2070   59.1190   74.1050 C   0  0  1  0  0  0  0  0  0  0  0  0
   -0.2760   58.9270   73.6700 C   0  0  0  0  0  0  0  0  0  0  0  0
    1.2790   60.3070   75.0810 C   0  0  0  0  0  0  0  0  0  0  0  0
    0.9320   61.6350   74.3850 C   0  0  0  0  0  0  0  0  0  0  0  0
    1.7620   61.9040   73.1050 C   0  0  1  0  0  0  0  0  0  0  0  0
    1.7900   60.6790   72.1450 C   0  0  1  0  0  0  0  0  0  0  0  0
    2.7450   60.8980   70.9550 C   0  0  0  0  0  0  0  0  0  0  0  0
    2.9780   62.3580   70.5570 C   0  0  0  0  0  0  0  0  0  0  0  0
    1.9100   63.3100   71.0300 C   0  0  0  0  0  0  0  0  0  0  0  0
    1.3300   63.1240   72.3010 C   0  0  0  0  0  0  0  0  0  0  0  0
    0.4090   64.0720   72.7610 C   0  0  0  0  0  0  0  0  0  0  0  0
    0.0620   65.1690   71.9660 C   0  0  0  0  0  0  0  0  0  0  0  0
    0.6320   65.3510   70.7080 C   0  0  0  0  0  0  0  0  0  0  0  0
    1.5640   64.4240   70.2460 C   0  0  0  0  0  0  0  0  0  0  0  0
    4.0140   57.9650   76.0650 C   0  0  0  0  0  0  0  0  0  0  0  0
    3.0070   57.8750   75.4140 C   0  0  0  0  0  0  0  0  0  0  0  0
    0.8220   57.0300   75.3550 O   0  0  0  0  0  0  0  0  0  0  0  0
    0.2060   66.4680   70.0430 O   0  0  0  0  0  0  0  0  0  0  0  0
    1.1230   67.0640   69.1330 C   0  0  0  0  0  0  0  0  0  0  0  0
    3.0276   56.4442   73.3663 H   0  0  0  0  0  0  0  0  0  0  0  0
    1.2901   56.2952   73.0252 H   0  0  0  0  0  0  0  0  0  0  0  0
    3.1865   57.9850   71.6497 H   0  0  0  0  0  0  0  0  0  0  0  0
    1.4408   58.0039   71.4101 H   0  0  0  0  0  0  0  0  0  0  0  0
    3.1790   59.7085   73.2272 H   0  0  0  0  0  0  0  0  0  0  0  0
   -0.9124   58.8446   74.5634 H   0  0  0  0  0  0  0  0  0  0  0  0
   -0.5968   59.7911   73.0697 H   0  0  0  0  0  0  0  0  0  0  0  0
   -0.3662   58.0097   73.0697 H   0  0  0  0  0  0  0  0  0  0  0  0
    0.5669   60.1378   75.9022 H   0  0  0  0  0  0  0  0  0  0  0  0
    2.3087   60.3772   75.4615 H   0  0  0  0  0  0  0  0  0  0  0  0
   -0.1329   61.6149   74.1103 H   0  0  0  0  0  0  0  0  0  0  0  0
    1.1676   62.4409   75.0956 H   0  0  0  0  0  0  0  0  0  0  0  0
    2.7672   62.1046   73.5041 H   0  0  0  0  0  0  0  0  0  0  0  0
    0.7828   60.5545   71.7208 H   0  0  0  0  0  0  0  0  0  0  0  0
    3.7188   60.4585   71.2166 H   0  0  0  0  0  0  0  0  0  0  0  0
    2.2622   60.4221   70.0887 H   0  0  0  0  0  0  0  0  0  0  0  0
    3.9397   62.6812   70.9820 H   0  0  0  0  0  0  0  0  0  0  0  0
    2.9627   62.3900   69.4576 H   0  0  0  0  0  0  0  0  0  0  0  0
   -0.0455   63.9534   73.7556 H   0  0  0  0  0  0  0  0  0  0  0  0
   -0.6716   65.8986   72.3394 H   0  0  0  0  0  0  0  0  0  0  0  0
    2.0323   64.5650   69.2607 H   0  0  0  0  0  0  0  0  0  0  0  0
    4.9352   58.0473   76.6605 H   0  0  0  0  0  0  0  0  0  0  0  0
    0.9960   57.1620   76.3206 H   0  0  0  0  0  0  0  0  0  0  0  0
    1.9155   67.5791   69.6957 H   0  0  0  0  0  0  0  0  0  0  0  0
    1.5707   66.2838   68.4999 H   0  0  0  0  0  0  0  0  0  0  0  0
    0.5918   67.7899   68.4999 H   0  0  0  0  0  0  0  0  0  0  0  0
  2  1  1  0
  3  2  1  0
  4  3  1  0
  5  1  1  0
  5  4  1  0
  5  6  1  6
  7  5  1  0
  8  7  1  0
  9  8  1  0
 10  9  1  0
 10  4  1  0
 11 10  1  0
 12 11  1  0
 13 12  1  0
 14 13  2  0
 14  9  1  0
 15 14  1  0
 16 15  2  0
 17 16  1  0
 18 13  1  0
 18 17  2  0
 20 19  3  0
  1 20  1  1
 21  1  1  0
 22 17  1  0
 23 22  1  0
  2 24  1  0
  2 25  1  0
  3 26  1  0
  3 27  1  0
  4 28  1  1
  6 29  1  0
  6 30  1  0
  6 31  1  0
  7 32  1  0
  7 33  1  0
  8 34  1  0
  8 35  1  0
  9 36  1  1
 10 37  1  6
 11 38  1  0
 11 39  1  0
 12 40  1  0
 12 41  1  0
 15 42  1  0
 16 43  1  0
 18 44  1  0
 19 45  1  0
 21 46  1  0
 23 47  1  0
 23 48  1  0
 23 49  1  0
M  END
>  <score>  (2) 
-7.76

$$$$
=
     RDKit          3D

 49 52  0  0  0  0  0  0  0  0999 V2000
    2.2080   57.0430   75.0150 C   0  0  2  0  0  0  0  0  0  0  0  0
    1.3610   57.5820   76.2000 C   0  0  0  0  0  0  0  0  0  0  0  0
    0.7630   58.9290   75.7430 C   0  0  0  0  0  0  0  0  0  0  0  0
    1.1410   59.0400   74.2670 C   0  0  2  0  0  0  0  0  0  0  0  0
    2.5100   58.3300   74.1890 C   0  0  1  0  0  0  0  0  0  0  0  0
    3.6620   59.1230   74.8740 C   0  0  0  0  0  0  0  0  0  0  0  0
    2.8610   58.1440   72.7010 C   0  0  0  0  0  0  0  0  0  0  0  0
    2.8720   59.4870   71.9500 C   0  0  0  0  0  0  0  0  0  0  0  0
    1.5710   60.3100   72.1260 C   0  0  1  0  0  0  0  0  0  0  0  0
    1.1370   60.4270   73.6160 C   0  0  1  0  0  0  0  0  0  0  0  0
   -0.2380   61.1090   73.7660 C   0  0  0  0  0  0  0  0  0  0  0  0
   -0.6230   62.0710   72.6390 C   0  0  0  0  0  0  0  0  0  0  0  0
    0.5420   62.5810   71.8320 C   0  0  0  0  0  0  0  0  0  0  0  0
    1.6130   61.7150   71.5350 C   0  0  0  0  0  0  0  0  0  0  0  0
    2.6390   62.1790   70.7050 C   0  0  0  0  0  0  0  0  0  0  0  0
    2.6080   63.4820   70.1980 C   0  0  0  0  0  0  0  0  0  0  0  0
    1.5520   64.3420   70.4940 C   0  0  0  0  0  0  0  0  0  0  0  0
    0.5140   63.8850   71.3050 C   0  0  0  0  0  0  0  0  0  0  0  0
    0.8230   55.1730   73.6840 C   0  0  0  0  0  0  0  0  0  0  0  0
    1.4500   56.0120   74.2750 C   0  0  0  0  0  0  0  0  0  0  0  0
    3.4000   56.4430   75.5020 O   0  0  0  0  0  0  0  0  0  0  0  0
    1.6470   65.5820   69.9280 O   0  0  0  0  0  0  0  0  0  0  0  0
    0.4540   66.3530   69.8630 C   0  0  0  0  0  0  0  0  0  0  0  0
    0.5558   56.8732   76.4434 H   0  0  0  0  0  0  0  0  0  0  0  0
    1.9786   57.7094   77.1013 H   0  0  0  0  0  0  0  0  0  0  0  0
   -0.3303   58.9293   75.8646 H   0  0  0  0  0  0  0  0  0  0  0  0
    1.1425   59.7751   76.3347 H   0  0  0  0  0  0  0  0  0  0  0  0
    0.3507   58.5772   73.6577 H   0  0  0  0  0  0  0  0  0  0  0  0
    3.5575   59.0510   75.9667 H   0  0  0  0  0  0  0  0  0  0  0  0
    4.6304   58.6992   74.5696 H   0  0  0  0  0  0  0  0  0  0  0  0
    3.6119   60.1789   74.5696 H   0  0  0  0  0  0  0  0  0  0  0  0
    3.8570   57.6836   72.6239 H   0  0  0  0  0  0  0  0  0  0  0  0
    2.0947   57.5004   72.2443 H   0  0  0  0  0  0  0  0  0  0  0  0
    3.7153   60.0866   72.3232 H   0  0  0  0  0  0  0  0  0  0  0  0
    2.9632   59.2553   70.8786 H   0  0  0  0  0  0  0  0  0  0  0  0
    0.8339   59.7269   71.5544 H   0  0  0  0  0  0  0  0  0  0  0  0
    1.8644   61.0686   74.1349 H   0  0  0  0  0  0  0  0  0  0  0  0
   -1.0037   60.3208   73.8151 H   0  0  0  0  0  0  0  0  0  0  0  0
   -0.1734   61.7218   74.6772 H   0  0  0  0  0  0  0  0  0  0  0  0
   -1.3098   61.5465   71.9584 H   0  0  0  0  0  0  0  0  0  0  0  0
   -1.0816   62.9486   73.1180 H   0  0  0  0  0  0  0  0  0  0  0  0
    3.4768   61.5137   70.4491 H   0  0  0  0  0  0  0  0  0  0  0  0
    3.4293   63.8333   69.5561 H   0  0  0  0  0  0  0  0  0  0  0  0
   -0.3327   64.5487   71.5343 H   0  0  0  0  0  0  0  0  0  0  0  0
    0.2495   54.4056   73.1434 H   0  0  0  0  0  0  0  0  0  0  0  0
    3.3911   56.4475   76.4919 H   0  0  0  0  0  0  0  0  0  0  0  0
    0.1066   66.5775   70.8822 H   0  0  0  0  0  0  0  0  0  0  0  0
    0.6538   67.2933   69.3282 H   0  0  0  0  0  0  0  0  0  0  0  0
   -0.3212   65.7846   69.3282 H   0  0  0  0  0  0  0  0  0  0  0  0
  2  1  1  0
  3  2  1  0
  4  3  1  0
  5  1  1  0
  5  4  1  0
  5  6  1  1
  7  5  1  0
  8  7  1  0
  9  8  1  0
 10  9  1  0
 10  4  1  0
 11 10  1  0
 12 11  1  0
 13 12  1  0
 14 13  2  0
 14  9  1  0
 15 14  1  0
 16 15  2  0
 17 16  1  0
 18 13  1  0
 18 17  2  0
 20 19  3  0
  1 20  1  6
 21  1  1  0
 22 17  1  0
 23 22  1  0
  2 24  1  0
  2 25  1  0
  3 26  1  0
  3 27  1  0
  4 28  1  6
  6 29  1  0
  6 30  1  0
  6 31  1  0
  7 32  1  0
  7 33  1  0
  8 34  1  0
  8 35  1  0
  9 36  1  6
 10 37  1  1
 11 38  1  0
 11 39  1  0
 12 40  1  0
 12 41  1  0
 15 42  1  0
 16 43  1  0
 18 44  1  0
 19 45  1  0
 21 46  1  0
 23 47  1  0
 23 48  1  0
 23 49  1  0
M  END
>  <score>  (3) 
-7.718

$$$$
=
     RDKit          3D

 49 52  0  0  0  0  0  0  0  0999 V2000
    3.8350   61.2760   71.7150 C   0  0  2  0  0  0  0  0  0  0  0  0
    4.5950   60.2790   72.6310 C   0  0  0  0  0  0  0  0  0  0  0  0
    3.5280   59.5070   73.4320 C   0  0  0  0  0  0  0  0  0  0  0  0
    2.1950   59.9570   72.8360 C   0  0  2  0  0  0  0  0  0  0  0  0
    2.4570   61.4230   72.4290 C   0  0  1  0  0  0  0  0  0  0  0  0
    2.6060   62.3890   73.6410 C   0  0  0  0  0  0  0  0  0  0  0  0
    1.2680   61.8950   71.5720 C   0  0  0  0  0  0  0  0  0  0  0  0
   -0.0670   61.7410   72.3230 C   0  0  0  0  0  0  0  0  0  0  0  0
   -0.3060   60.3180   72.8870 C   0  0  1  0  0  0  0  0  0  0  0  0
    0.9230   59.7760   73.6730 C   0  0  1  0  0  0  0  0  0  0  0  0
    0.7380   58.3040   74.0930 C   0  0  0  0  0  0  0  0  0  0  0  0
   -0.7130   57.8450   74.2630 C   0  0  0  0  0  0  0  0  0  0  0  0
   -1.6980   58.9640   74.4770 C   0  0  0  0  0  0  0  0  0  0  0  0
   -1.5350   60.1750   73.7770 C   0  0  0  0  0  0  0  0  0  0  0  0
   -2.5120   61.1670   73.9180 C   0  0  0  0  0  0  0  0  0  0  0  0
   -3.6150   60.9640   74.7520 C   0  0  0  0  0  0  0  0  0  0  0  0
   -3.7760   59.7680   75.4490 C   0  0  0  0  0  0  0  0  0  0  0  0
   -2.8190   58.7650   75.3030 C   0  0  0  0  0  0  0  0  0  0  0  0
    3.6950   60.3090   69.2180 C   0  0  0  0  0  0  0  0  0  0  0  0
    3.7500   60.7400   70.3390 C   0  0  0  0  0  0  0  0  0  0  0  0
    4.5290   62.5140   71.6580 O   0  0  0  0  0  0  0  0  0  0  0  0
   -4.9010   59.7020   76.2220 O   0  0  0  0  0  0  0  0  0  0  0  0
   -6.1390   59.9860   75.5830 C   0  0  0  0  0  0  0  0  0  0  0  0
    5.1886   59.5819   72.0214 H   0  0  0  0  0  0  0  0  0  0  0  0
    5.2859   60.8090   73.3031 H   0  0  0  0  0  0  0  0  0  0  0  0
    3.6610   58.4219   73.3099 H   0  0  0  0  0  0  0  0  0  0  0  0
    3.5907   59.7091   74.5115 H   0  0  0  0  0  0  0  0  0  0  0  0
    1.9312   59.2905   72.0016 H   0  0  0  0  0  0  0  0  0  0  0  0
    2.5180   61.8186   74.5775 H   0  0  0  0  0  0  0  0  0  0  0  0
    3.5903   62.8785   73.6009 H   0  0  0  0  0  0  0  0  0  0  0  0
    1.8150   63.1523   73.6009 H   0  0  0  0  0  0  0  0  0  0  0  0
    1.4123   62.9544   71.3136 H   0  0  0  0  0  0  0  0  0  0  0  0
    1.2275   61.2722   70.6662 H   0  0  0  0  0  0  0  0  0  0  0  0
   -0.0774   62.4528   73.1616 H   0  0  0  0  0  0  0  0  0  0  0  0
   -0.8685   61.9363   71.5954 H   0  0  0  0  0  0  0  0  0  0  0  0
   -0.4783   59.7213   71.9791 H   0  0  0  0  0  0  0  0  0  0  0  0
    1.0186   60.3583   74.6013 H   0  0  0  0  0  0  0  0  0  0  0  0
    1.2061   57.6709   73.3248 H   0  0  0  0  0  0  0  0  0  0  0  0
    1.2024   58.2123   75.0860 H   0  0  0  0  0  0  0  0  0  0  0  0
   -1.0083   57.2951   73.3573 H   0  0  0  0  0  0  0  0  0  0  0  0
   -0.7416   57.2235   75.1702 H   0  0  0  0  0  0  0  0  0  0  0  0
   -2.4110   62.1142   73.3679 H   0  0  0  0  0  0  0  0  0  0  0  0
   -4.3668   61.7597   74.8598 H   0  0  0  0  0  0  0  0  0  0  0  0
   -2.9413   57.8114   75.8374 H   0  0  0  0  0  0  0  0  0  0  0  0
    3.6447   59.9147   68.1923 H   0  0  0  0  0  0  0  0  0  0  0  0
    4.7086   62.8343   72.5774 H   0  0  0  0  0  0  0  0  0  0  0  0
   -6.9125   60.1635   76.3447 H   0  0  0  0  0  0  0  0  0  0  0  0
   -6.0303   60.8825   74.9550 H   0  0  0  0  0  0  0  0  0  0  0  0
   -6.4319   59.1317   74.9550 H   0  0  0  0  0  0  0  0  0  0  0  0
  2  1  1  0
  3  2  1  0
  4  3  1  0
  5  1  1  0
  5  4  1  0
  5  6  1  1
  7  5  1  0
  8  7  1  0
  9  8  1  0
 10  9  1  0
 10  4  1  0
 11 10  1  0
 12 11  1  0
 13 12  1  0
 14 13  2  0
 14  9  1  0
 15 14  1  0
 16 15  2  0
 17 16  1  0
 18 13  1  0
 18 17  2  0
 20 19  3  0
  1 20  1  6
 21  1  1  0
 22 17  1  0
 23 22  1  0
  2 24  1  0
  2 25  1  0
  3 26  1  0
  3 27  1  0
  4 28  1  6
  6 29  1  0
  6 30  1  0
  6 31  1  0
  7 32  1  0
  7 33  1  0
  8 34  1  0
  8 35  1  0
  9 36  1  6
 10 37  1  1
 11 38  1  0
 11 39  1  0
 12 40  1  0
 12 41  1  0
 15 42  1  0
 16 43  1  0
 18 44  1  0
 19 45  1  0
 21 46  1  0
 23 47  1  0
 23 48  1  0
 23 49  1  0
M  END
>  <score>  (4) 
-7.679

$$$$
=
     RDKit          3D

 49 52  0  0  0  0  0  0  0  0999 V2000
    3.7920   61.9660   70.6530 C   0  0  2  0  0  0  0  0  0  0  0  0
    4.0560   60.8780   69.5780 C   0  0  0  0  0  0  0  0  0  0  0  0
    3.6330   59.5290   70.1950 C   0  0  0  0  0  0  0  0  0  0  0  0
    2.9870   59.8990   71.5290 C   0  0  2  0  0  0  0  0  0  0  0  0
    3.7750   61.1480   71.9790 C   0  0  1  0  0  0  0  0  0  0  0  0
    5.2390   60.8370   72.4110 C   0  0  0  0  0  0  0  0  0  0  0  0
    3.0340   61.7670   73.1790 C   0  0  0  0  0  0  0  0  0  0  0  0
    2.8660   60.7540   74.3250 C   0  0  0  0  0  0  0  0  0  0  0  0
    2.2150   59.4180   73.8870 C   0  0  1  0  0  0  0  0  0  0  0  0
    2.8820   58.8210   72.6130 C   0  0  1  0  0  0  0  0  0  0  0  0
    2.1290   57.5800   72.0940 C   0  0  0  0  0  0  0  0  0  0  0  0
    1.3420   56.7970   73.1480 C   0  0  0  0  0  0  0  0  0  0  0  0
    1.7920   57.0380   74.5650 C   0  0  0  0  0  0  0  0  0  0  0  0
    2.1870   58.3330   74.9570 C   0  0  0  0  0  0  0  0  0  0  0  0
    2.5100   58.5570   76.2990 C   0  0  0  0  0  0  0  0  0  0  0  0
    2.4590   57.5110   77.2260 C   0  0  0  0  0  0  0  0  0  0  0  0
    2.0730   56.2290   76.8400 C   0  0  0  0  0  0  0  0  0  0  0  0
    1.7310   55.9970   75.5090 C   0  0  0  0  0  0  0  0  0  0  0  0
    1.4980   63.2430   70.1100 C   0  0  0  0  0  0  0  0  0  0  0  0
    2.5260   62.6720   70.3620 C   0  0  0  0  0  0  0  0  0  0  0  0
    4.8390   62.9260   70.6440 O   0  0  0  0  0  0  0  0  0  0  0  0
    2.0620   55.3060   77.8480 O   0  0  0  0  0  0  0  0  0  0  0  0
    1.1640   54.2120   77.7100 C   0  0  0  0  0  0  0  0  0  0  0  0
    3.4613   61.0848   68.6760 H   0  0  0  0  0  0  0  0  0  0  0  0
    5.1160   60.8624   69.2846 H   0  0  0  0  0  0  0  0  0  0  0  0
    2.9113   59.0139   69.5440 H   0  0  0  0  0  0  0  0  0  0  0  0
    4.4840   58.8433   70.3204 H   0  0  0  0  0  0  0  0  0  0  0  0
    1.9115   60.0690   71.3727 H   0  0  0  0  0  0  0  0  0  0  0  0
    5.3023   60.8236   73.5091 H   0  0  0  0  0  0  0  0  0  0  0  0
    5.5376   59.8554   72.0145 H   0  0  0  0  0  0  0  0  0  0  0  0
    5.9109   61.6125   72.0145 H   0  0  0  0  0  0  0  0  0  0  0  0
    3.6085   62.6300   73.5468 H   0  0  0  0  0  0  0  0  0  0  0  0
    2.0330   62.0756   72.8432 H   0  0  0  0  0  0  0  0  0  0  0  0
    3.8596   60.5352   74.7431 H   0  0  0  0  0  0  0  0  0  0  0  0
    2.1912   61.2130   75.0625 H   0  0  0  0  0  0  0  0  0  0  0  0
    1.1751   59.7099   73.6784 H   0  0  0  0  0  0  0  0  0  0  0  0
    3.8941   58.4847   72.8824 H   0  0  0  0  0  0  0  0  0  0  0  0
    1.4211   57.9123   71.3204 H   0  0  0  0  0  0  0  0  0  0  0  0
    2.9023   56.8917   71.7220 H   0  0  0  0  0  0  0  0  0  0  0  0
    0.2828   57.0833   73.0698 H   0  0  0  0  0  0  0  0  0  0  0  0
    1.5137   55.7305   72.9406 H   0  0  0  0  0  0  0  0  0  0  0  0
    2.8065   59.5638   76.6282 H   0  0  0  0  0  0  0  0  0  0  0  0
    2.7276   57.7032   78.2753 H   0  0  0  0  0  0  0  0  0  0  0  0
    1.4111   54.9926   75.1945 H   0  0  0  0  0  0  0  0  0  0  0  0
    0.5577   63.7653   69.8795 H   0  0  0  0  0  0  0  0  0  0  0  0
    5.0866   63.1530   71.5753 H   0  0  0  0  0  0  0  0  0  0  0  0
    0.8686   53.8521   78.7066 H   0  0  0  0  0  0  0  0  0  0  0  0
    0.2702   54.5387   77.1583 H   0  0  0  0  0  0  0  0  0  0  0  0
    1.6586   53.3990   77.1583 H   0  0  0  0  0  0  0  0  0  0  0  0
  2  1  1  0
  3  2  1  0
  4  3  1  0
  5  1  1  0
  5  4  1  0
  5  6  1  1
  7  5  1  0
  8  7  1  0
  9  8  1  0
 10  9  1  0
 10  4  1  0
 11 10  1  0
 12 11  1  0
 13 12  1  0
 14 13  2  0
 14  9  1  0
 15 14  1  0
 16 15  2  0
 17 16  1  0
 18 13  1  0
 18 17  2  0
 20 19  3  0
  1 20  1  6
 21  1  1  0
 22 17  1  0
 23 22  1  0
  2 24  1  0
  2 25  1  0
  3 26  1  0
  3 27  1  0
  4 28  1  6
  6 29  1  0
  6 30  1  0
  6 31  1  0
  7 32  1  0
  7 33  1  0
  8 34  1  0
  8 35  1  0
  9 36  1  6
 10 37  1  1
 11 38  1  0
 11 39  1  0
 12 40  1  0
 12 41  1  0
 15 42  1  0
 16 43  1  0
 18 44  1  0
 19 45  1  0
 21 46  1  0
 23 47  1  0
 23 48  1  0
 23 49  1  0
M  END
>  <score>  (5) 
-7.531

$$$$
=
     RDKit          3D

 49 52  0  0  0  0  0  0  0  0999 V2000
    3.4780   63.1060   69.5860 C   0  0  2  0  0  0  0  0  0  0  0  0
    2.2830   64.0530   69.8790 C   0  0  0  0  0  0  0  0  0  0  0  0
    1.3950   63.3410   70.9200 C   0  0  0  0  0  0  0  0  0  0  0  0
    2.1870   62.0960   71.3170 C   0  0  2  0  0  0  0  0  0  0  0  0
    2.9330   61.7130   70.0210 C   0  0  1  0  0  0  0  0  0  0  0  0
    1.9990   61.1550   68.9070 C   0  0  0  0  0  0  0  0  0  0  0  0
    3.9700   60.6310   70.3760 C   0  0  0  0  0  0  0  0  0  0  0  0
    3.3100   59.4080   71.0370 C   0  0  0  0  0  0  0  0  0  0  0  0
    2.4220   59.7620   72.2560 C   0  0  1  0  0  0  0  0  0  0  0  0
    1.4320   60.9240   71.9540 C   0  0  1  0  0  0  0  0  0  0  0  0
    0.6660   61.3740   73.2150 C   0  0  0  0  0  0  0  0  0  0  0  0
    0.4960   60.3070   74.2990 C   0  0  0  0  0  0  0  0  0  0  0  0
    0.6500   58.8920   73.8070 C   0  0  0  0  0  0  0  0  0  0  0  0
    1.6220   58.5990   72.8300 C   0  0  0  0  0  0  0  0  0  0  0  0
    1.8130   57.2640   72.4560 C   0  0  0  0  0  0  0  0  0  0  0  0
    1.0420   56.2480   73.0280 C   0  0  0  0  0  0  0  0  0  0  0  0
    0.0770   56.5370   73.9910 C   0  0  0  0  0  0  0  0  0  0  0  0
   -0.1110   57.8600   74.3860 C   0  0  0  0  0  0  0  0  0  0  0  0
    5.6550   63.9040   70.9310 C   0  0  0  0  0  0  0  0  0  0  0  0
    4.6740   63.5500   70.3340 C   0  0  0  0  0  0  0  0  0  0  0  0
    3.7950   63.1350   68.2010 O   0  0  0  0  0  0  0  0  0  0  0  0
   -0.5990   55.4490   74.4690 O   0  0  0  0  0  0  0  0  0  0  0  0
    0.0280   54.1820   74.3140 C   0  0  0  0  0  0  0  0  0  0  0  0
    2.6476   65.0090   70.2828 H   0  0  0  0  0  0  0  0  0  0  0  0
    1.7177   64.2708   68.9609 H   0  0  0  0  0  0  0  0  0  0  0  0
    1.2257   63.9881   71.7933 H   0  0  0  0  0  0  0  0  0  0  0  0
    0.4011   63.0924   70.5195 H   0  0  0  0  0  0  0  0  0  0  0  0
    2.8420   62.3418   72.1659 H   0  0  0  0  0  0  0  0  0  0  0  0
    1.1421   60.6431   69.3693 H   0  0  0  0  0  0  0  0  0  0  0  0
    1.6369   61.9849   68.2824 H   0  0  0  0  0  0  0  0  0  0  0  0
    2.5582   60.4428   68.2824 H   0  0  0  0  0  0  0  0  0  0  0  0
    4.4783   60.3082   69.4555 H   0  0  0  0  0  0  0  0  0  0  0  0
    4.6866   61.0628   71.0901 H   0  0  0  0  0  0  0  0  0  0  0  0
    2.6841   58.9032   70.2864 H   0  0  0  0  0  0  0  0  0  0  0  0
    4.1224   58.7653   71.4071 H   0  0  0  0  0  0  0  0  0  0  0  0
    3.1586   60.0690   73.0131 H   0  0  0  0  0  0  0  0  0  0  0  0
    0.6781   60.5547   71.2432 H   0  0  0  0  0  0  0  0  0  0  0  0
    1.2094   62.2223   73.6568 H   0  0  0  0  0  0  0  0  0  0  0  0
   -0.3502   61.6256   72.8771 H   0  0  0  0  0  0  0  0  0  0  0  0
    1.2516   60.4846   75.0784 H   0  0  0  0  0  0  0  0  0  0  0  0
   -0.5345   60.3996   74.6726 H   0  0  0  0  0  0  0  0  0  0  0  0
    2.5765   57.0120   71.7053 H   0  0  0  0  0  0  0  0  0  0  0  0
    1.1992   55.2057   72.7136 H   0  0  0  0  0  0  0  0  0  0  0  0
   -0.8595   58.0991   75.1558 H   0  0  0  0  0  0  0  0  0  0  0  0
    6.5530   64.2280   71.4775 H   0  0  0  0  0  0  0  0  0  0  0  0
    4.7745   63.2246   68.0885 H   0  0  0  0  0  0  0  0  0  0  0  0
    0.2398   53.7540   75.3049 H   0  0  0  0  0  0  0  0  0  0  0  0
   -0.6404   53.5076   73.7586 H   0  0  0  0  0  0  0  0  0  0  0  0
    0.9696   54.3043   73.7586 H   0  0  0  0  0  0  0  0  0  0  0  0
  2  1  1  0
  3  2  1  0
  4  3  1  0
  5  1  1  0
  5  4  1  0
  5  6  1  6
  7  5  1  0
  8  7  1  0
  9  8  1  0
 10  9  1  0
 10  4  1  0
 11 10  1  0
 12 11  1  0
 13 12  1  0
 14 13  2  0
 14  9  1  0
 15 14  1  0
 16 15  2  0
 17 16  1  0
 18 13  1  0
 18 17  2  0
 20 19  3  0
  1 20  1  1
 21  1  1  0
 22 17  1  0
 23 22  1  0
  2 24  1  0
  2 25  1  0
  3 26  1  0
  3 27  1  0
  4 28  1  1
  6 29  1  0
  6 30  1  0
  6 31  1  0
  7 32  1  0
  7 33  1  0
  8 34  1  0
  8 35  1  0
  9 36  1  1
 10 37  1  6
 11 38  1  0
 11 39  1  0
 12 40  1  0
 12 41  1  0
 15 42  1  0
 16 43  1  0
 18 44  1  0
 19 45  1  0
 21 46  1  0
 23 47  1  0
 23 48  1  0
 23 49  1  0
M  END
>  <score>  (6) 
-7.475

$$$$
=
     RDKit          3D

 49 52  0  0  0  0  0  0  0  0999 V2000
    3.9440   60.4340   71.1280 C   0  0  2  0  0  0  0  0  0  0  0  0
    3.5600   58.9370   71.2790 C   0  0  0  0  0  0  0  0  0  0  0  0
    2.2410   58.8940   72.0780 C   0  0  0  0  0  0  0  0  0  0  0  0
    1.8220   60.3560   72.2130 C   0  0  2  0  0  0  0  0  0  0  0  0
    3.1660   61.1120   72.2950 C   0  0  1  0  0  0  0  0  0  0  0  0
    3.9320   60.8760   73.6300 C   0  0  0  0  0  0  0  0  0  0  0  0
    2.8690   62.6180   72.1620 C   0  0  0  0  0  0  0  0  0  0  0  0
    1.8790   63.0970   73.2370 C   0  0  0  0  0  0  0  0  0  0  0  0
    0.5720   62.2670   73.2960 C   0  0  1  0  0  0  0  0  0  0  0  0
    0.8420   60.7340   73.3290 C   0  0  1  0  0  0  0  0  0  0  0  0
   -0.4610   59.9160   73.2280 C   0  0  0  0  0  0  0  0  0  0  0  0
   -1.7220   60.6180   73.7370 C   0  0  0  0  0  0  0  0  0  0  0  0
   -1.4590   61.7610   74.6820 C   0  0  0  0  0  0  0  0  0  0  0  0
   -0.3560   62.6070   74.4570 C   0  0  0  0  0  0  0  0  0  0  0  0
   -0.1830   63.7180   75.2900 C   0  0  0  0  0  0  0  0  0  0  0  0
   -1.0780   63.9680   76.3350 C   0  0  0  0  0  0  0  0  0  0  0  0
   -2.1670   63.1290   76.5630 C   0  0  0  0  0  0  0  0  0  0  0  0
   -2.3600   62.0300   75.7270 C   0  0  0  0  0  0  0  0  0  0  0  0
    3.2670   61.3340   68.6950 C   0  0  0  0  0  0  0  0  0  0  0  0
    3.5670   60.9220   69.7840 C   0  0  0  0  0  0  0  0  0  0  0  0
    5.3480   60.5940   71.2720 O   0  0  0  0  0  0  0  0  0  0  0  0
   -2.9620   63.4940   77.6130 O   0  0  0  0  0  0  0  0  0  0  0  0
   -3.4240   64.8390   77.6330 C   0  0  0  0  0  0  0  0  0  0  0  0
    3.4177   58.4807   70.2883 H   0  0  0  0  0  0  0  0  0  0  0  0
    4.3529   58.3761   71.7954 H   0  0  0  0  0  0  0  0  0  0  0  0
    1.4764   58.3200   71.5340 H   0  0  0  0  0  0  0  0  0  0  0  0
    2.3621   58.4038   73.0552 H   0  0  0  0  0  0  0  0  0  0  0  0
    1.1944   60.6309   71.3524 H   0  0  0  0  0  0  0  0  0  0  0  0
    3.2626   61.0822   74.4782 H   0  0  0  0  0  0  0  0  0  0  0  0
    4.2728   59.8312   73.6774 H   0  0  0  0  0  0  0  0  0  0  0  0
    4.8017   61.5479   73.6774 H   0  0  0  0  0  0  0  0  0  0  0  0
    3.8098   63.1781   72.2681 H   0  0  0  0  0  0  0  0  0  0  0  0
    2.4165   62.7935   71.1749 H   0  0  0  0  0  0  0  0  0  0  0  0
    2.3742   63.0347   74.2173 H   0  0  0  0  0  0  0  0  0  0  0  0
    1.5938   64.1265   72.9747 H   0  0  0  0  0  0  0  0  0  0  0  0
    0.0609   62.5498   72.3639 H   0  0  0  0  0  0  0  0  0  0  0  0
    1.2941   60.4866   74.3008 H   0  0  0  0  0  0  0  0  0  0  0  0
   -0.6193   59.6605   72.1699 H   0  0  0  0  0  0  0  0  0  0  0  0
   -0.3191   59.0412   73.8796 H   0  0  0  0  0  0  0  0  0  0  0  0
   -2.2724   61.0092   72.8686 H   0  0  0  0  0  0  0  0  0  0  0  0
   -2.2925   59.8672   74.3034 H   0  0  0  0  0  0  0  0  0  0  0  0
    0.6635   64.3999   75.1215 H   0  0  0  0  0  0  0  0  0  0  0  0
   -0.9200   64.8399   76.9867 H   0  0  0  0  0  0  0  0  0  0  0  0
   -3.2241   61.3682   75.8864 H   0  0  0  0  0  0  0  0  0  0  0  0
    2.9925   61.7109   67.6987 H   0  0  0  0  0  0  0  0  0  0  0  0
    5.5802   60.6205   72.2340 H   0  0  0  0  0  0  0  0  0  0  0  0
   -3.5384   65.1719   78.6751 H   0  0  0  0  0  0  0  0  0  0  0  0
   -2.6960   65.4844   77.1197 H   0  0  0  0  0  0  0  0  0  0  0  0
   -4.3949   64.9009   77.1197 H   0  0  0  0  0  0  0  0  0  0  0  0
  2  1  1  0
  3  2  1  0
  4  3  1  0
  5  1  1  0
  5  4  1  0
  5  6  1  1
  7  5  1  0
  8  7  1  0
  9  8  1  0
 10  9  1  0
 10  4  1  0
 11 10  1  0
 12 11  1  0
 13 12  1  0
 14 13  2  0
 14  9  1  0
 15 14  1  0
 16 15  2  0
 17 16  1  0
 18 13  1  0
 18 17  2  0
 20 19  3  0
  1 20  1  6
 21  1  1  0
 22 17  1  0
 23 22  1  0
  2 24  1  0
  2 25  1  0
  3 26  1  0
  3 27  1  0
  4 28  1  6
  6 29  1  0
  6 30  1  0
  6 31  1  0
  7 32  1  0
  7 33  1  0
  8 34  1  0
  8 35  1  0
  9 36  1  6
 10 37  1  1
 11 38  1  0
 11 39  1  0
 12 40  1  0
 12 41  1  0
 15 42  1  0
 16 43  1  0
 18 44  1  0
 19 45  1  0
 21 46  1  0
 23 47  1  0
 23 48  1  0
 23 49  1  0
M  END
>  <score>  (7) 
-7.176

$$$$
=
     RDKit          3D

 49 52  0  0  0  0  0  0  0  0999 V2000
   -0.1000   56.1900   75.9420 C   0  0  2  0  0  0  0  0  0  0  0  0
   -0.0730   55.0390   74.9000 C   0  0  0  0  0  0  0  0  0  0  0  0
    0.6110   55.5990   73.6350 C   0  0  0  0  0  0  0  0  0  0  0  0
    1.1050   56.9850   74.0440 C   0  0  2  0  0  0  0  0  0  0  0  0
    0.0430   57.4640   75.0570 C   0  0  1  0  0  0  0  0  0  0  0  0
   -1.3330   57.7950   74.4050 C   0  0  0  0  0  0  0  0  0  0  0  0
    0.5790   58.7380   75.7370 C   0  0  0  0  0  0  0  0  0  0  0  0
    0.9200   59.8300   74.7080 C   0  0  0  0  0  0  0  0  0  0  0  0
    1.8670   59.3500   73.5790 C   0  0  1  0  0  0  0  0  0  0  0  0
    1.4010   58.0090   72.9420 C   0  0  1  0  0  0  0  0  0  0  0  0
    2.4300   57.4590   71.9330 C   0  0  0  0  0  0  0  0  0  0  0  0
    3.3260   58.5080   71.2690 C   0  0  0  0  0  0  0  0  0  0  0  0
    2.7760   59.9100   71.3070 C   0  0  0  0  0  0  0  0  0  0  0  0
    2.0900   60.3540   72.4550 C   0  0  0  0  0  0  0  0  0  0  0  0
    1.6700   61.6880   72.5090 C   0  0  0  0  0  0  0  0  0  0  0  0
    1.9120   62.5530   71.4380 C   0  0  0  0  0  0  0  0  0  0  0  0
    2.5870   62.1140   70.3000 C   0  0  0  0  0  0  0  0  0  0  0  0
    3.0270   60.7920   70.2420 C   0  0  0  0  0  0  0  0  0  0  0  0
    1.8820   55.8800   77.7210 C   0  0  0  0  0  0  0  0  0  0  0  0
    0.9900   56.0110   76.9250 C   0  0  0  0  0  0  0  0  0  0  0  0
   -1.3320   56.1790   76.6490 O   0  0  0  0  0  0  0  0  0  0  0  0
    2.7600   63.0650   69.3330 O   0  0  0  0  0  0  0  0  0  0  0  0
    3.7750   62.8230   68.3670 C   0  0  0  0  0  0  0  0  0  0  0  0
    0.4986   54.1854   75.2933 H   0  0  0  0  0  0  0  0  0  0  0  0
   -1.0903   54.6860   74.6753 H   0  0  0  0  0  0  0  0  0  0  0  0
    1.4541   54.9596   73.3344 H   0  0  0  0  0  0  0  0  0  0  0  0
   -0.0727   55.6377   72.7742 H   0  0  0  0  0  0  0  0  0  0  0  0
    2.1217   56.8973   74.4546 H   0  0  0  0  0  0  0  0  0  0  0  0
   -2.0787   57.9744   75.1935 H   0  0  0  0  0  0  0  0  0  0  0  0
   -1.2358   58.6954   73.7806 H   0  0  0  0  0  0  0  0  0  0  0  0
   -1.6559   56.9489   73.7806 H   0  0  0  0  0  0  0  0  0  0  0  0
   -0.1868   59.1237   76.4261 H   0  0  0  0  0  0  0  0  0  0  0  0
    1.5000   58.4768   76.2787 H   0  0  0  0  0  0  0  0  0  0  0  0
   -0.0169   60.1798   74.2498 H   0  0  0  0  0  0  0  0  0  0  0  0
    1.4466   60.6290   75.2505 H   0  0  0  0  0  0  0  0  0  0  0  0
    2.8245   59.2160   74.1036 H   0  0  0  0  0  0  0  0  0  0  0  0
    0.4778   58.2031   72.3762 H   0  0  0  0  0  0  0  0  0  0  0  0
    3.0783   56.7465   72.4641 H   0  0  0  0  0  0  0  0  0  0  0  0
    1.8439   57.0040   71.1209 H   0  0  0  0  0  0  0  0  0  0  0  0
    4.2981   58.5057   71.7838 H   0  0  0  0  0  0  0  0  0  0  0  0
    3.4022   58.2293   70.2076 H   0  0  0  0  0  0  0  0  0  0  0  0
    1.1451   62.0588   73.4017 H   0  0  0  0  0  0  0  0  0  0  0  0
    1.5648   63.5953   71.4939 H   0  0  0  0  0  0  0  0  0  0  0  0
    3.5744   60.4370   69.3564 H   0  0  0  0  0  0  0  0  0  0  0  0
    2.6978   55.7602   78.4490 H   0  0  0  0  0  0  0  0  0  0  0  0
   -1.1537   56.1806   77.6228 H   0  0  0  0  0  0  0  0  0  0  0  0
    4.7221   62.5972   68.8789 H   0  0  0  0  0  0  0  0  0  0  0  0
    3.4858   61.9686   67.7374 H   0  0  0  0  0  0  0  0  0  0  0  0
    3.9024   63.7160   67.7374 H   0  0  0  0  0  0  0  0  0  0  0  0
  2  1  1  0
  3  2  1  0
  4  3  1  0
  5  1  1  0
  5  4  1  0
  5  6  1  6
  7  5  1  0
  8  7  1  0
  9  8  1  0
 10  9  1  0
 10  4  1  0
 11 10  1  0
 12 11  1  0
 13 12  1  0
 14 13  2  0
 14  9  1  0
 15 14  1  0
 16 15  2  0
 17 16  1  0
 18 13  1  0
 18 17  2  0
 20 19  3  0
  1 20  1  1
 21  1  1  0
 22 17  1  0
 23 22  1  0
  2 24  1  0
  2 25  1  0
  3 26  1  0
  3 27  1  0
  4 28  1  1
  6 29  1  0
  6 30  1  0
  6 31  1  0
  7 32  1  0
  7 33  1  0
  8 34  1  0
  8 35  1  0
  9 36  1  1
 10 37  1  6
 11 38  1  0
 11 39  1  0
 12 40  1  0
 12 41  1  0
 15 42  1  0
 16 43  1  0
 18 44  1  0
 19 45  1  0
 21 46  1  0
 23 47  1  0
 23 48  1  0
 23 49  1  0
M  END
>  <score>  (8) 
-7.068

$$$$
=
     RDKit          3D

 49 52  0  0  0  0  0  0  0  0999 V2000
    0.7290   63.2110   72.7270 C   0  0  2  0  0  0  0  0  0  0  0  0
    2.2760   63.1300   72.6230 C   0  0  0  0  0  0  0  0  0  0  0  0
    2.6530   61.6390   72.7480 C   0  0  0  0  0  0  0  0  0  0  0  0
    1.3150   60.9000   72.7480 C   0  0  2  0  0  0  0  0  0  0  0  0
    0.3580   61.8840   73.4540 C   0  0  1  0  0  0  0  0  0  0  0  0
    0.6370   62.0370   74.9790 C   0  0  0  0  0  0  0  0  0  0  0  0
   -1.0780   61.3580   73.2720 C   0  0  0  0  0  0  0  0  0  0  0  0
   -1.2300   59.9260   73.8130 C   0  0  0  0  0  0  0  0  0  0  0  0
   -0.1870   58.9310   73.2450 C   0  0  1  0  0  0  0  0  0  0  0  0
    1.2660   59.4810   73.3260 C   0  0  1  0  0  0  0  0  0  0  0  0
    2.2750   58.5560   72.6170 C   0  0  0  0  0  0  0  0  0  0  0  0
    1.8750   57.0800   72.5410 C   0  0  0  0  0  0  0  0  0  0  0  0
    0.8430   56.6630   73.5550 C   0  0  0  0  0  0  0  0  0  0  0  0
   -0.2030   57.5470   73.8840 C   0  0  0  0  0  0  0  0  0  0  0  0
   -1.2040   57.1050   74.7560 C   0  0  0  0  0  0  0  0  0  0  0  0
   -1.1530   55.8190   75.3030 C   0  0  0  0  0  0  0  0  0  0  0  0
   -0.1160   54.9440   74.9830 C   0  0  0  0  0  0  0  0  0  0  0  0
    0.8770   55.3660   74.1000 C   0  0  0  0  0  0  0  0  0  0  0  0
   -0.3350   63.4700   70.2800 C   0  0  0  0  0  0  0  0  0  0  0  0
    0.1350   63.3500   71.3800 C   0  0  0  0  0  0  0  0  0  0  0  0
    0.3500   64.3490   73.4890 O   0  0  0  0  0  0  0  0  0  0  0  0
   -0.1930   53.7190   75.5830 O   0  0  0  0  0  0  0  0  0  0  0  0
    0.8840   52.8200   75.3540 C   0  0  0  0  0  0  0  0  0  0  0  0
    2.6117   63.5256   71.6530 H   0  0  0  0  0  0  0  0  0  0  0  0
    2.7567   63.7265   73.4124 H   0  0  0  0  0  0  0  0  0  0  0  0
    3.2713   61.3222   71.8951 H   0  0  0  0  0  0  0  0  0  0  0  0
    3.2426   61.4330   73.6535 H   0  0  0  0  0  0  0  0  0  0  0  0
    1.0375   60.6574   71.7116 H   0  0  0  0  0  0  0  0  0  0  0  0
   -0.1875   61.5849   75.5498 H   0  0  0  0  0  0  0  0  0  0  0  0
    1.5796   61.5296   75.2320 H   0  0  0  0  0  0  0  0  0  0  0  0
    0.7159   63.1046   75.2320 H   0  0  0  0  0  0  0  0  0  0  0  0
   -1.7714   62.0191   73.8125 H   0  0  0  0  0  0  0  0  0  0  0  0
   -1.3055   61.3449   72.1959 H   0  0  0  0  0  0  0  0  0  0  0  0
   -1.1221   59.9550   74.9073 H   0  0  0  0  0  0  0  0  0  0  0  0
   -2.2210   59.5672   73.4981 H   0  0  0  0  0  0  0  0  0  0  0  0
   -0.5003   58.8210   72.1963 H   0  0  0  0  0  0  0  0  0  0  0  0
    1.5608   59.5143   74.3852 H   0  0  0  0  0  0  0  0  0  0  0  0
    2.4084   58.9244   71.5891 H   0  0  0  0  0  0  0  0  0  0  0  0
    3.1928   58.5895   73.2224 H   0  0  0  0  0  0  0  0  0  0  0  0
    1.4699   56.8844   71.5372 H   0  0  0  0  0  0  0  0  0  0  0  0
    2.7822   56.4970   72.7579 H   0  0  0  0  0  0  0  0  0  0  0  0
   -2.0379   57.7746   75.0134 H   0  0  0  0  0  0  0  0  0  0  0  0
   -1.9427   55.4931   75.9959 H   0  0  0  0  0  0  0  0  0  0  0  0
    1.6928   54.6803   73.8274 H   0  0  0  0  0  0  0  0  0  0  0  0
   -0.7650   63.5798   69.2735 H   0  0  0  0  0  0  0  0  0  0  0  0
    0.4201   64.1384   74.4538 H   0  0  0  0  0  0  0  0  0  0  0  0
    1.2901   52.4810   76.3185 H   0  0  0  0  0  0  0  0  0  0  0  0
    0.5221   51.9521   74.7832 H   0  0  0  0  0  0  0  0  0  0  0  0
    1.6732   53.3311   74.7832 H   0  0  0  0  0  0  0  0  0  0  0  0
  2  1  1  0
  3  2  1  0
  4  3  1  0
  5  1  1  0
  5  4  1  0
  5  6  1  1
  7  5  1  0
  8  7  1  0
  9  8  1  0
 10  9  1  0
 10  4  1  0
 11 10  1  0
 12 11  1  0
 13 12  1  0
 14 13  2  0
 14  9  1  0
 15 14  1  0
 16 15  2  0
 17 16  1  0
 18 13  1  0
 18 17  2  0
 20 19  3  0
  1 20  1  6
 21  1  1  0
 22 17  1  0
 23 22  1  0
  2 24  1  0
  2 25  1  0
  3 26  1  0
  3 27  1  0
  4 28  1  6
  6 29  1  0
  6 30  1  0
  6 31  1  0
  7 32  1  0
  7 33  1  0
  8 34  1  0
  8 35  1  0
  9 36  1  6
 10 37  1  1
 11 38  1  0
 11 39  1  0
 12 40  1  0
 12 41  1  0
 15 42  1  0
 16 43  1  0
 18 44  1  0
 19 45  1  0
 21 46  1  0
 23 47  1  0
 23 48  1  0
 23 49  1  0
M  END
>  <score>  (9) 
-7.017

$$$$
