=
     RDKit          3D

 87 92  0  0  0  0  0  0  0  0999 V2000
   -1.2480   66.8990   67.4050 N   0  0  1  0  0  4  0  0  0  0  0  0
   -2.7370   67.1430   67.1550 C   0  0  0  0  0  0  0  0  0  0  0  0
   -3.0320   68.2470   66.1290 C   0  0  0  0  0  0  0  0  0  0  0  0
   -4.3850   68.6750   66.2340 O   0  0  0  0  0  0  0  0  0  0  0  0
   -0.3180   67.7840   66.5990 C   0  0  0  0  0  0  0  0  0  0  0  0
   -0.2810   69.2220   67.1230 C   0  0  0  0  0  0  0  0  0  0  0  0
    1.1020   69.6170   67.6540 C   0  0  0  0  0  0  0  0  0  0  0  0
    2.1130   68.7650   67.0320 N   0  0  0  0  0  0  0  0  0  0  0  0
    3.3070   69.2140   66.4180 C   0  0  0  0  0  0  0  0  0  0  0  0
    4.4020   69.8290   67.0640 C   0  0  0  0  0  0  0  0  0  0  0  0
    4.4180   70.2220   68.5220 C   0  0  0  0  0  0  0  0  0  0  0  0
    5.4980   71.2350   68.9040 C   0  0  0  0  0  0  0  0  0  0  0  0
    6.8410   70.7760   68.3670 C   0  0  0  0  0  0  0  0  0  0  0  0
    6.7900   70.7390   66.8490 C   0  0  0  0  0  0  0  0  0  0  0  0
    5.5460   70.0890   66.2890 C   0  0  0  0  0  0  0  0  0  0  0  0
    5.6240   69.8330   64.9640 N   0  0  0  0  0  0  0  0  0  0  0  0
    4.5570   69.3620   64.3250 C   0  0  0  0  0  0  0  0  0  0  0  0
    3.3590   69.0510   64.9900 C   0  0  0  0  0  0  0  0  0  0  0  0
    2.2740   68.5840   64.2000 C   0  0  0  0  0  0  0  0  0  0  0  0
    2.3860   68.4090   62.8190 C   0  0  0  0  0  0  0  0  0  0  0  0
    3.5880   68.6980   62.1940 C   0  0  0  0  0  0  0  0  0  0  0  0
    4.6560   69.1750   62.9520 C   0  0  0  0  0  0  0  0  0  0  0  0
   -0.9120   66.8380   68.8830 C   0  0  0  0  0  0  0  0  0  0  0  0
    0.4620   66.2160   69.1350 C   0  0  0  0  0  0  0  0  0  0  0  0
    0.8580   66.1330   70.6110 C   0  0  0  0  0  0  0  0  0  0  0  0
    0.1840   64.9720   71.3410 C   0  0  0  0  0  0  0  0  0  0  0  0
    0.3820   63.7240   70.6000 N   0  0  0  0  0  0  0  0  0  0  0  0
    1.1530   62.8080   71.3940 C   0  0  0  0  0  0  0  0  0  0  0  0
    0.4660   61.9040   72.2300 C   0  0  0  0  0  0  0  0  0  0  0  0
   -1.0350   61.9630   72.3830 C   0  0  0  0  0  0  0  0  0  0  0  0
   -1.5730   61.1580   73.5640 C   0  0  0  0  0  0  0  0  0  0  0  0
   -0.9230   59.7820   73.6110 C   0  0  0  0  0  0  0  0  0  0  0  0
    0.5800   59.9270   73.8150 C   0  0  0  0  0  0  0  0  0  0  0  0
    1.2160   60.9250   72.8810 C   0  0  0  0  0  0  0  0  0  0  0  0
    2.5600   60.8280   72.7640 N   0  0  0  0  0  0  0  0  0  0  0  0
    3.2150   61.6950   71.9830 C   0  0  0  0  0  0  0  0  0  0  0  0
    2.5690   62.7140   71.2560 C   0  0  0  0  0  0  0  0  0  0  0  0
    3.3630   63.5650   70.4410 C   0  0  0  0  0  0  0  0  0  0  0  0
    4.7470   63.4100   70.3590 C   0  0  0  0  0  0  0  0  0  0  0  0
    5.3650   62.4050   71.0840 C   0  0  0  0  0  0  0  0  0  0  0  0
    4.5930   61.5600   71.8840 C   0  0  0  0  0  0  0  0  0  0  0  0
   -1.0625   65.9573   67.0312 H   0  0  0  0  0  0  0  0  0  0  0  0
   -3.1835   66.2059   66.7910 H   0  0  0  0  0  0  0  0  0  0  0  0
   -3.1666   67.4776   68.1107 H   0  0  0  0  0  0  0  0  0  0  0  0
   -2.3660   69.1023   66.3158 H   0  0  0  0  0  0  0  0  0  0  0  0
   -2.8620   67.8483   65.1180 H   0  0  0  0  0  0  0  0  0  0  0  0
   -4.6331   68.7535   67.1892 H   0  0  0  0  0  0  0  0  0  0  0  0
    0.6978   67.3646   66.6462 H   0  0  0  0  0  0  0  0  0  0  0  0
   -0.6945   67.8131   65.5658 H   0  0  0  0  0  0  0  0  0  0  0  0
   -0.5521   69.9035   66.3032 H   0  0  0  0  0  0  0  0  0  0  0  0
   -0.9928   69.2921   67.9587 H   0  0  0  0  0  0  0  0  0  0  0  0
    1.3047   70.6696   67.4073 H   0  0  0  0  0  0  0  0  0  0  0  0
    1.1304   69.4896   68.7462 H   0  0  0  0  0  0  0  0  0  0  0  0
    1.9421   67.7493   67.0410 H   0  0  0  0  0  0  0  0  0  0  0  0
    3.4385   70.6572   68.7694 H   0  0  0  0  0  0  0  0  0  0  0  0
    4.6420   69.3047   69.0863 H   0  0  0  0  0  0  0  0  0  0  0  0
    5.2479   72.2161   68.4739 H   0  0  0  0  0  0  0  0  0  0  0  0
    5.5515   71.3154   69.9998 H   0  0  0  0  0  0  0  0  0  0  0  0
    7.6249   71.4763   68.6912 H   0  0  0  0  0  0  0  0  0  0  0  0
    7.0673   69.7708   68.7522 H   0  0  0  0  0  0  0  0  0  0  0  0
    6.8370   71.7729   66.4765 H   0  0  0  0  0  0  0  0  0  0  0  0
    7.6432   70.1288   66.5178 H   0  0  0  0  0  0  0  0  0  0  0  0
    1.3171   68.3534   64.6910 H   0  0  0  0  0  0  0  0  0  0  0  0
    1.5286   68.0454   62.2336 H   0  0  0  0  0  0  0  0  0  0  0  0
    3.6986   68.5524   61.1093 H   0  0  0  0  0  0  0  0  0  0  0  0
    5.6051   69.4103   62.4482 H   0  0  0  0  0  0  0  0  0  0  0  0
   -0.9192   67.8596   69.2909 H   0  0  0  0  0  0  0  0  0  0  0  0
   -1.6655   66.2063   69.3760 H   0  0  0  0  0  0  0  0  0  0  0  0
    0.4590   65.1965   68.7219 H   0  0  0  0  0  0  0  0  0  0  0  0
    1.1979   66.8737   68.6493 H   0  0  0  0  0  0  0  0  0  0  0  0
    1.9484   66.0030   70.6755 H   0  0  0  0  0  0  0  0  0  0  0  0
    0.5285   67.0642   71.0950 H   0  0  0  0  0  0  0  0  0  0  0  0
    0.6215   64.8714   72.3452 H   0  0  0  0  0  0  0  0  0  0  0  0
   -0.8942   65.1753   71.4192 H   0  0  0  0  0  0  0  0  0  0  0  0
    0.0231   63.5324   69.6538 H   0  0  0  0  0  0  0  0  0  0  0  0
   -1.3273   63.0146   72.5198 H   0  0  0  0  0  0  0  0  0  0  0  0
   -1.4645   61.5178   71.4734 H   0  0  0  0  0  0  0  0  0  0  0  0
   -1.3525   61.6947   74.4985 H   0  0  0  0  0  0  0  0  0  0  0  0
   -2.6596   61.0346   73.4452 H   0  0  0  0  0  0  0  0  0  0  0  0
   -1.3504   59.2046   74.4440 H   0  0  0  0  0  0  0  0  0  0  0  0
   -1.1116   59.2590   72.6618 H   0  0  0  0  0  0  0  0  0  0  0  0
    0.7619   60.2525   74.8499 H   0  0  0  0  0  0  0  0  0  0  0  0
    1.0332   58.9475   73.6022 H   0  0  0  0  0  0  0  0  0  0  0  0
    2.8758   64.3634   69.8621 H   0  0  0  0  0  0  0  0  0  0  0  0
    5.3430   64.0812   69.7231 H   0  0  0  0  0  0  0  0  0  0  0  0
    6.4558   62.2733   71.0301 H   0  0  0  0  0  0  0  0  0  0  0  0
    5.0925   60.7624   72.4536 H   0  0  0  0  0  0  0  0  0  0  0  0
  2  1  1  0
  3  2  1  0
  4  3  1  0
  5  1  1  0
  6  5  1  0
  7  6  1  0
  8  7  1  0
  9  8  1  0
 10  9  1  0
 11 10  1  0
 12 11  1  0
 13 12  1  0
 14 13  1  0
 15 10  2  0
 15 14  1  0
 16 15  1  0
 17 16  2  0
 18 17  1  0
 18  9  2  0
 19 18  1  0
 20 19  2  0
 21 20  1  0
 22 21  2  0
 22 17  1  0
 23  1  1  0
 24 23  1  0
 25 24  1  0
 26 25  1  0
 27 26  1  0
 28 27  1  0
 29 28  1  0
 30 29  1  0
 31 30  1  0
 32 31  1  0
 33 32  1  0
 34 33  1  0
 34 29  2  0
 35 34  1  0
 36 35  2  0
 37 36  1  0
 37 28  2  0
 38 37  1  0
 39 38  2  0
 40 39  1  0
 41 40  2  0
 41 36  1  0
  1 42  1  6
  2 43  1  0
  2 44  1  0
  3 45  1  0
  3 46  1  0
  4 47  1  0
  5 48  1  0
  5 49  1  0
  6 50  1  0
  6 51  1  0
  7 52  1  0
  7 53  1  0
  8 54  1  0
 11 55  1  0
 11 56  1  0
 12 57  1  0
 12 58  1  0
 13 59  1  0
 13 60  1  0
 14 61  1  0
 14 62  1  0
 19 63  1  0
 20 64  1  0
 21 65  1  0
 22 66  1  0
 23 67  1  0
 23 68  1  0
 24 69  1  0
 24 70  1  0
 25 71  1  0
 25 72  1  0
 26 73  1  0
 26 74  1  0
 27 75  1  0
 30 76  1  0
 30 77  1  0
 31 78  1  0
 31 79  1  0
 32 80  1  0
 32 81  1  0
 33 82  1  0
 33 83  1  0
 38 84  1  0
 39 85  1  0
 40 86  1  0
 41 87  1  0
M  CHG  1   1   1
M  END
>  <score>  (1) 
-12.037

$$$$
=
     RDKit          3D

 87 92  0  0  0  0  0  0  0  0999 V2000
   -1.3620   66.9170   67.3230 N   0  0  1  0  0  4  0  0  0  0  0  0
   -2.8040   67.3860   67.1290 C   0  0  0  0  0  0  0  0  0  0  0  0
   -2.9990   68.3580   65.9560 C   0  0  0  0  0  0  0  0  0  0  0  0
   -4.3400   68.8310   65.9190 O   0  0  0  0  0  0  0  0  0  0  0  0
   -0.3110   67.8560   66.7670 C   0  0  0  0  0  0  0  0  0  0  0  0
   -0.2750   69.1960   67.5070 C   0  0  0  0  0  0  0  0  0  0  0  0
    1.1470   69.7560   67.6400 C   0  0  0  0  0  0  0  0  0  0  0  0
    2.0630   68.9130   66.8740 N   0  0  0  0  0  0  0  0  0  0  0  0
    3.3230   69.3130   66.3660 C   0  0  0  0  0  0  0  0  0  0  0  0
    4.3830   69.8830   67.1050 C   0  0  0  0  0  0  0  0  0  0  0  0
    4.2900   70.2740   68.5610 C   0  0  0  0  0  0  0  0  0  0  0  0
    5.3740   71.2420   69.0380 C   0  0  0  0  0  0  0  0  0  0  0  0
    6.7380   70.7280   68.6150 C   0  0  0  0  0  0  0  0  0  0  0  0
    6.8150   70.6950   67.0980 C   0  0  0  0  0  0  0  0  0  0  0  0
    5.5990   70.0970   66.4320 C   0  0  0  0  0  0  0  0  0  0  0  0
    5.7790   69.8380   65.1170 N   0  0  0  0  0  0  0  0  0  0  0  0
    4.7520   69.4120   64.3870 C   0  0  0  0  0  0  0  0  0  0  0  0
    3.4890   69.1490   64.9460 C   0  0  0  0  0  0  0  0  0  0  0  0
    2.4570   68.7280   64.0650 C   0  0  0  0  0  0  0  0  0  0  0  0
    2.6800   68.5490   62.6990 C   0  0  0  0  0  0  0  0  0  0  0  0
    3.9410   68.7890   62.1790 C   0  0  0  0  0  0  0  0  0  0  0  0
    4.9590   69.2210   63.0270 C   0  0  0  0  0  0  0  0  0  0  0  0
   -1.0890   66.4590   68.7440 C   0  0  0  0  0  0  0  0  0  0  0  0
    0.4050   66.4500   69.0670 C   0  0  0  0  0  0  0  0  0  0  0  0
    0.7440   65.9730   70.4820 C   0  0  0  0  0  0  0  0  0  0  0  0
    0.4700   64.4830   70.6870 C   0  0  0  0  0  0  0  0  0  0  0  0
    0.8330   64.0840   72.0490 N   0  0  0  0  0  0  0  0  0  0  0  0
    1.2540   62.7110   72.0530 C   0  0  0  0  0  0  0  0  0  0  0  0
    2.5550   62.4080   71.6020 C   0  0  0  0  0  0  0  0  0  0  0  0
    3.4500   63.4740   71.0180 C   0  0  0  0  0  0  0  0  0  0  0  0
    4.6680   62.9270   70.2760 C   0  0  0  0  0  0  0  0  0  0  0  0
    5.3350   61.8250   71.0860 C   0  0  0  0  0  0  0  0  0  0  0  0
    4.3670   60.6640   71.2760 C   0  0  0  0  0  0  0  0  0  0  0  0
    3.0030   61.0960   71.7490 C   0  0  0  0  0  0  0  0  0  0  0  0
    2.2390   60.1120   72.2760 N   0  0  0  0  0  0  0  0  0  0  0  0
    0.9990   60.3950   72.6920 C   0  0  0  0  0  0  0  0  0  0  0  0
    0.4400   61.6860   72.6180 C   0  0  0  0  0  0  0  0  0  0  0  0
   -0.8800   61.8760   73.1080 C   0  0  0  0  0  0  0  0  0  0  0  0
   -1.6160   60.8190   73.6460 C   0  0  0  0  0  0  0  0  0  0  0  0
   -1.0510   59.5560   73.7070 C   0  0  0  0  0  0  0  0  0  0  0  0
    0.2470   59.3600   73.2320 C   0  0  0  0  0  0  0  0  0  0  0  0
   -1.2686   66.0798   66.7303 H   0  0  0  0  0  0  0  0  0  0  0  0
   -3.4333   66.5014   66.9519 H   0  0  0  0  0  0  0  0  0  0  0  0
   -3.0833   67.9329   68.0416 H   0  0  0  0  0  0  0  0  0  0  0  0
   -2.3169   69.2125   66.0766 H   0  0  0  0  0  0  0  0  0  0  0  0
   -2.7820   67.8295   65.0160 H   0  0  0  0  0  0  0  0  0  0  0  0
   -4.6740   68.9488   66.8435 H   0  0  0  0  0  0  0  0  0  0  0  0
    0.6747   67.3761   66.8572 H   0  0  0  0  0  0  0  0  0  0  0  0
   -0.5655   68.0599   65.7165 H   0  0  0  0  0  0  0  0  0  0  0  0
   -0.8893   69.9213   66.9533 H   0  0  0  0  0  0  0  0  0  0  0  0
   -0.6641   69.0277   68.5220 H   0  0  0  0  0  0  0  0  0  0  0  0
    1.1769   70.7837   67.2489 H   0  0  0  0  0  0  0  0  0  0  0  0
    1.4461   69.7642   68.6985 H   0  0  0  0  0  0  0  0  0  0  0  0
    1.7665   67.9444   66.6876 H   0  0  0  0  0  0  0  0  0  0  0  0
    3.3114   70.7487   68.7256 H   0  0  0  0  0  0  0  0  0  0  0  0
    4.4272   69.3480   69.1386 H   0  0  0  0  0  0  0  0  0  0  0  0
    5.2018   72.2328   68.5923 H   0  0  0  0  0  0  0  0  0  0  0  0
    5.3371   71.3200   70.1346 H   0  0  0  0  0  0  0  0  0  0  0  0
    7.5198   71.3946   69.0080 H   0  0  0  0  0  0  0  0  0  0  0  0
    6.8889   69.7138   69.0133 H   0  0  0  0  0  0  0  0  0  0  0  0
    6.9351   71.7266   66.7357 H   0  0  0  0  0  0  0  0  0  0  0  0
    7.6681   70.0513   66.8376 H   0  0  0  0  0  0  0  0  0  0  0  0
    1.4528   68.5375   64.4715 H   0  0  0  0  0  0  0  0  0  0  0  0
    1.8618   68.2203   62.0414 H   0  0  0  0  0  0  0  0  0  0  0  0
    4.1371   68.6401   61.1069 H   0  0  0  0  0  0  0  0  0  0  0  0
    5.9565   69.4166   62.6066 H   0  0  0  0  0  0  0  0  0  0  0  0
   -1.5986   67.1408   69.4407 H   0  0  0  0  0  0  0  0  0  0  0  0
   -1.4645   65.4302   68.8469 H   0  0  0  0  0  0  0  0  0  0  0  0
    0.9079   65.7844   68.3500 H   0  0  0  0  0  0  0  0  0  0  0  0
    0.7473   67.4931   68.9972 H   0  0  0  0  0  0  0  0  0  0  0  0
    1.8108   66.1633   70.6708 H   0  0  0  0  0  0  0  0  0  0  0  0
    0.1004   66.5271   71.1811 H   0  0  0  0  0  0  0  0  0  0  0  0
   -0.5994   64.2844   70.5232 H   0  0  0  0  0  0  0  0  0  0  0  0
    1.0735   63.9055   69.9712 H   0  0  0  0  0  0  0  0  0  0  0  0
    0.7925   64.6949   72.8773 H   0  0  0  0  0  0  0  0  0  0  0  0
    2.8570   64.0750   70.3129 H   0  0  0  0  0  0  0  0  0  0  0  0
    3.8322   64.0656   71.8630 H   0  0  0  0  0  0  0  0  0  0  0  0
    4.3479   62.5198   69.3056 H   0  0  0  0  0  0  0  0  0  0  0  0
    5.3891   63.7439   70.1253 H   0  0  0  0  0  0  0  0  0  0  0  0
    6.2296   61.4707   70.5528 H   0  0  0  0  0  0  0  0  0  0  0  0
    5.6225   62.2222   72.0707 H   0  0  0  0  0  0  0  0  0  0  0  0
    4.2540   60.1428   70.3140 H   0  0  0  0  0  0  0  0  0  0  0  0
    4.7899   60.0114   72.0540 H   0  0  0  0  0  0  0  0  0  0  0  0
   -1.3318   62.8779   73.0624 H   0  0  0  0  0  0  0  0  0  0  0  0
   -2.6371   60.9879   74.0187 H   0  0  0  0  0  0  0  0  0  0  0  0
   -1.6207   58.7137   74.1265 H   0  0  0  0  0  0  0  0  0  0  0  0
    0.6881   58.3538   73.2872 H   0  0  0  0  0  0  0  0  0  0  0  0
  2  1  1  0
  3  2  1  0
  4  3  1  0
  5  1  1  0
  6  5  1  0
  7  6  1  0
  8  7  1  0
  9  8  1  0
 10  9  1  0
 11 10  1  0
 12 11  1  0
 13 12  1  0
 14 13  1  0
 15 10  2  0
 15 14  1  0
 16 15  1  0
 17 16  2  0
 18 17  1  0
 18  9  2  0
 19 18  1  0
 20 19  2  0
 21 20  1  0
 22 21  2  0
 22 17  1  0
 23  1  1  0
 24 23  1  0
 25 24  1  0
 26 25  1  0
 27 26  1  0
 28 27  1  0
 29 28  1  0
 30 29  1  0
 31 30  1  0
 32 31  1  0
 33 32  1  0
 34 33  1  0
 34 29  2  0
 35 34  1  0
 36 35  2  0
 37 36  1  0
 37 28  2  0
 38 37  1  0
 39 38  2  0
 40 39  1  0
 41 40  2  0
 41 36  1  0
  1 42  1  6
  2 43  1  0
  2 44  1  0
  3 45  1  0
  3 46  1  0
  4 47  1  0
  5 48  1  0
  5 49  1  0
  6 50  1  0
  6 51  1  0
  7 52  1  0
  7 53  1  0
  8 54  1  0
 11 55  1  0
 11 56  1  0
 12 57  1  0
 12 58  1  0
 13 59  1  0
 13 60  1  0
 14 61  1  0
 14 62  1  0
 19 63  1  0
 20 64  1  0
 21 65  1  0
 22 66  1  0
 23 67  1  0
 23 68  1  0
 24 69  1  0
 24 70  1  0
 25 71  1  0
 25 72  1  0
 26 73  1  0
 26 74  1  0
 27 75  1  0
 30 76  1  0
 30 77  1  0
 31 78  1  0
 31 79  1  0
 32 80  1  0
 32 81  1  0
 33 82  1  0
 33 83  1  0
 38 84  1  0
 39 85  1  0
 40 86  1  0
 41 87  1  0
M  CHG  1   1   1
M  END
>  <score>  (2) 
-11.918

$$$$
=
     RDKit          3D

 87 92  0  0  0  0  0  0  0  0999 V2000
   -0.0670   66.7490   68.1610 N   0  0  1  0  0  4  0  0  0  0  0  0
   -1.5630   66.8260   68.4690 C   0  0  0  0  0  0  0  0  0  0  0  0
   -2.4590   66.9440   67.2280 C   0  0  0  0  0  0  0  0  0  0  0  0
   -3.3330   68.0600   67.3480 O   0  0  0  0  0  0  0  0  0  0  0  0
    0.3690   67.5450   66.9470 C   0  0  0  0  0  0  0  0  0  0  0  0
    0.0360   69.0340   67.0730 C   0  0  0  0  0  0  0  0  0  0  0  0
    1.2500   69.8740   67.4880 C   0  0  0  0  0  0  0  0  0  0  0  0
    2.4540   69.0500   67.3910 N   0  0  0  0  0  0  0  0  0  0  0  0
    3.5950   69.3450   66.6040 C   0  0  0  0  0  0  0  0  0  0  0  0
    3.7630   69.0600   65.2310 C   0  0  0  0  0  0  0  0  0  0  0  0
    2.7790   68.2710   64.4000 C   0  0  0  0  0  0  0  0  0  0  0  0
    3.3410   67.7220   63.0870 C   0  0  0  0  0  0  0  0  0  0  0  0
    4.0480   68.8320   62.3310 C   0  0  0  0  0  0  0  0  0  0  0  0
    5.2330   69.3200   63.1470 C   0  0  0  0  0  0  0  0  0  0  0  0
    4.9250   69.5470   64.6080 C   0  0  0  0  0  0  0  0  0  0  0  0
    5.9000   70.2150   65.2650 N   0  0  0  0  0  0  0  0  0  0  0  0
    5.8040   70.3850   66.5810 C   0  0  0  0  0  0  0  0  0  0  0  0
    4.6860   69.9550   67.3160 C   0  0  0  0  0  0  0  0  0  0  0  0
    4.7070   70.1610   68.7210 C   0  0  0  0  0  0  0  0  0  0  0  0
    5.7760   70.7910   69.3600 C   0  0  0  0  0  0  0  0  0  0  0  0
    6.8530   71.2300   68.6070 C   0  0  0  0  0  0  0  0  0  0  0  0
    6.8570   71.0180   67.2300 C   0  0  0  0  0  0  0  0  0  0  0  0
    0.7900   66.9830   69.3900 C   0  0  0  0  0  0  0  0  0  0  0  0
    1.0960   65.6820   70.1330 C   0  0  0  0  0  0  0  0  0  0  0  0
    0.0770   65.3170   71.2160 C   0  0  0  0  0  0  0  0  0  0  0  0
    0.5230   64.1330   72.0740 C   0  0  0  0  0  0  0  0  0  0  0  0
    0.3320   62.8780   71.3440 N   0  0  0  0  0  0  0  0  0  0  0  0
    1.2020   61.8700   71.8810 C   0  0  0  0  0  0  0  0  0  0  0  0
    0.6340   60.8380   72.6580 C   0  0  0  0  0  0  0  0  0  0  0  0
   -0.8310   60.8460   73.0190 C   0  0  0  0  0  0  0  0  0  0  0  0
   -1.2050   59.8640   74.1280 C   0  0  0  0  0  0  0  0  0  0  0  0
   -0.5560   58.5100   73.8810 C   0  0  0  0  0  0  0  0  0  0  0  0
    0.9610   58.6520   73.8990 C   0  0  0  0  0  0  0  0  0  0  0  0
    1.4650   59.7890   73.0480 C   0  0  0  0  0  0  0  0  0  0  0  0
    2.7800   59.7350   72.7370 N   0  0  0  0  0  0  0  0  0  0  0  0
    3.3240   60.7200   72.0130 C   0  0  0  0  0  0  0  0  0  0  0  0
    2.5860   61.8240   71.5400 C   0  0  0  0  0  0  0  0  0  0  0  0
    3.2620   62.8010   70.7620 C   0  0  0  0  0  0  0  0  0  0  0  0
    4.6220   62.6860   70.4710 C   0  0  0  0  0  0  0  0  0  0  0  0
    5.3320   61.5960   70.9480 C   0  0  0  0  0  0  0  0  0  0  0  0
    4.6750   60.6290   71.7090 C   0  0  0  0  0  0  0  0  0  0  0  0
    0.1008   65.7727   67.8789 H   0  0  0  0  0  0  0  0  0  0  0  0
   -1.8495   65.9152   69.0152 H   0  0  0  0  0  0  0  0  0  0  0  0
   -1.7165   67.7433   69.0564 H   0  0  0  0  0  0  0  0  0  0  0  0
   -1.8275   67.0732   66.3367 H   0  0  0  0  0  0  0  0  0  0  0  0
   -3.0619   66.0285   67.1366 H   0  0  0  0  0  0  0  0  0  0  0  0
   -3.4872   68.2569   68.3059 H   0  0  0  0  0  0  0  0  0  0  0  0
    1.4568   67.4357   66.8253 H   0  0  0  0  0  0  0  0  0  0  0  0
   -0.1763   67.1526   66.0760 H   0  0  0  0  0  0  0  0  0  0  0  0
   -0.3288   69.3974   66.1010 H   0  0  0  0  0  0  0  0  0  0  0  0
   -0.7280   69.1405   67.8571 H   0  0  0  0  0  0  0  0  0  0  0  0
    1.3430   70.7431   66.8201 H   0  0  0  0  0  0  0  0  0  0  0  0
    1.1226   70.2259   68.5224 H   0  0  0  0  0  0  0  0  0  0  0  0
    2.4746   68.1801   67.9422 H   0  0  0  0  0  0  0  0  0  0  0  0
    2.4264   67.4212   65.0029 H   0  0  0  0  0  0  0  0  0  0  0  0
    1.9765   68.9709   64.1240 H   0  0  0  0  0  0  0  0  0  0  0  0
    4.0556   66.9144   63.3041 H   0  0  0  0  0  0  0  0  0  0  0  0
    2.5168   67.3299   62.4730 H   0  0  0  0  0  0  0  0  0  0  0  0
    4.4017   68.4493   61.3623 H   0  0  0  0  0  0  0  0  0  0  0  0
    3.3497   69.6648   62.1612 H   0  0  0  0  0  0  0  0  0  0  0  0
    6.0340   68.5695   63.0755 H   0  0  0  0  0  0  0  0  0  0  0  0
    5.5252   70.2949   62.7296 H   0  0  0  0  0  0  0  0  0  0  0  0
    3.8550   69.8135   69.3238 H   0  0  0  0  0  0  0  0  0  0  0  0
    5.7636   70.9375   70.4501 H   0  0  0  0  0  0  0  0  0  0  0  0
    7.6975   71.7414   69.0921 H   0  0  0  0  0  0  0  0  0  0  0  0
    7.7189   71.3618   66.6393 H   0  0  0  0  0  0  0  0  0  0  0  0
    1.7383   67.4453   69.0786 H   0  0  0  0  0  0  0  0  0  0  0  0
    0.2315   67.6402   70.0728 H   0  0  0  0  0  0  0  0  0  0  0  0
    1.1242   64.8644   69.3977 H   0  0  0  0  0  0  0  0  0  0  0  0
    2.0580   65.8319   70.6450 H   0  0  0  0  0  0  0  0  0  0  0  0
   -0.0689   66.1896   71.8697 H   0  0  0  0  0  0  0  0  0  0  0  0
   -0.8551   65.0264   70.7093 H   0  0  0  0  0  0  0  0  0  0  0  0
    1.5875   64.2480   72.3264 H   0  0  0  0  0  0  0  0  0  0  0  0
   -0.0809   64.1086   72.9931 H   0  0  0  0  0  0  0  0  0  0  0  0
   -0.3263   62.7395   70.5640 H   0  0  0  0  0  0  0  0  0  0  0  0
   -1.0997   61.8600   73.3502 H   0  0  0  0  0  0  0  0  0  0  0  0
   -1.3813   60.5334   72.1193 H   0  0  0  0  0  0  0  0  0  0  0  0
   -0.8596   60.2603   75.0943 H   0  0  0  0  0  0  0  0  0  0  0  0
   -2.2978   59.7384   74.1389 H   0  0  0  0  0  0  0  0  0  0  0  0
   -0.8661   57.8076   74.6687 H   0  0  0  0  0  0  0  0  0  0  0  0
   -0.8729   58.1299   72.8986 H   0  0  0  0  0  0  0  0  0  0  0  0
    1.2830   58.8236   74.9367 H   0  0  0  0  0  0  0  0  0  0  0  0
    1.3794   57.7239   73.4824 H   0  0  0  0  0  0  0  0  0  0  0  0
    2.7015   63.6672   70.3805 H   0  0  0  0  0  0  0  0  0  0  0  0
    5.1265   63.4549   69.8675 H   0  0  0  0  0  0  0  0  0  0  0  0
    6.4050   61.4940   70.7284 H   0  0  0  0  0  0  0  0  0  0  0  0
    5.2467   59.7657   72.0804 H   0  0  0  0  0  0  0  0  0  0  0  0
  2  1  1  0
  3  2  1  0
  4  3  1  0
  5  1  1  0
  6  5  1  0
  7  6  1  0
  8  7  1  0
  9  8  1  0
 10  9  1  0
 11 10  1  0
 12 11  1  0
 13 12  1  0
 14 13  1  0
 15 10  2  0
 15 14  1  0
 16 15  1  0
 17 16  2  0
 18 17  1  0
 18  9  2  0
 19 18  1  0
 20 19  2  0
 21 20  1  0
 22 21  2  0
 22 17  1  0
 23  1  1  0
 24 23  1  0
 25 24  1  0
 26 25  1  0
 27 26  1  0
 28 27  1  0
 29 28  1  0
 30 29  1  0
 31 30  1  0
 32 31  1  0
 33 32  1  0
 34 33  1  0
 34 29  2  0
 35 34  1  0
 36 35  2  0
 37 36  1  0
 37 28  2  0
 38 37  1  0
 39 38  2  0
 40 39  1  0
 41 40  2  0
 41 36  1  0
  1 42  1  6
  2 43  1  0
  2 44  1  0
  3 45  1  0
  3 46  1  0
  4 47  1  0
  5 48  1  0
  5 49  1  0
  6 50  1  0
  6 51  1  0
  7 52  1  0
  7 53  1  0
  8 54  1  0
 11 55  1  0
 11 56  1  0
 12 57  1  0
 12 58  1  0
 13 59  1  0
 13 60  1  0
 14 61  1  0
 14 62  1  0
 19 63  1  0
 20 64  1  0
 21 65  1  0
 22 66  1  0
 23 67  1  0
 23 68  1  0
 24 69  1  0
 24 70  1  0
 25 71  1  0
 25 72  1  0
 26 73  1  0
 26 74  1  0
 27 75  1  0
 30 76  1  0
 30 77  1  0
 31 78  1  0
 31 79  1  0
 32 80  1  0
 32 81  1  0
 33 82  1  0
 33 83  1  0
 38 84  1  0
 39 85  1  0
 40 86  1  0
 41 87  1  0
M  CHG  1   1   1
M  END
>  <score>  (3) 
-11.756

$$$$
=
     RDKit          3D

 87 92  0  0  0  0  0  0  0  0999 V2000
   -0.0980   66.8090   67.9960 N   0  0  1  0  0  4  0  0  0  0  0  0
   -1.1920   67.2060   67.0050 C   0  0  0  0  0  0  0  0  0  0  0  0
   -2.6080   67.2200   67.6000 C   0  0  0  0  0  0  0  0  0  0  0  0
   -3.3380   68.3430   67.1200 O   0  0  0  0  0  0  0  0  0  0  0  0
    0.9510   67.8750   68.2410 C   0  0  0  0  0  0  0  0  0  0  0  0
    0.4940   69.2610   67.7810 C   0  0  0  0  0  0  0  0  0  0  0  0
    1.5430   70.3460   68.0520 C   0  0  0  0  0  0  0  0  0  0  0  0
    2.8360   69.7080   68.2910 N   0  0  0  0  0  0  0  0  0  0  0  0
    3.9590   69.7690   67.4310 C   0  0  0  0  0  0  0  0  0  0  0  0
    3.9850   69.4280   66.0610 C   0  0  0  0  0  0  0  0  0  0  0  0
    2.8220   68.8160   65.3140 C   0  0  0  0  0  0  0  0  0  0  0  0
    3.1890   68.1440   63.9900 C   0  0  0  0  0  0  0  0  0  0  0  0
    4.0380   69.0870   63.1580 C   0  0  0  0  0  0  0  0  0  0  0  0
    5.3430   69.3650   63.8870 C   0  0  0  0  0  0  0  0  0  0  0  0
    5.1750   69.6760   65.3550 C   0  0  0  0  0  0  0  0  0  0  0  0
    6.2950   70.1670   65.9310 N   0  0  0  0  0  0  0  0  0  0  0  0
    6.3160   70.3810   67.2440 C   0  0  0  0  0  0  0  0  0  0  0  0
    5.1870   70.1810   68.0560 C   0  0  0  0  0  0  0  0  0  0  0  0
    5.3340   70.4110   69.4510 C   0  0  0  0  0  0  0  0  0  0  0  0
    6.5400   70.8460   70.0040 C   0  0  0  0  0  0  0  0  0  0  0  0
    7.6280   71.0610   69.1760 C   0  0  0  0  0  0  0  0  0  0  0  0
    7.5060   70.8220   67.8090 C   0  0  0  0  0  0  0  0  0  0  0  0
   -0.6600   66.1960   69.2640 C   0  0  0  0  0  0  0  0  0  0  0  0
    0.4420   65.7620   70.2310 C   0  0  0  0  0  0  0  0  0  0  0  0
   -0.0020   65.6590   71.6930 C   0  0  0  0  0  0  0  0  0  0  0  0
    0.3740   64.3230   72.3330 C   0  0  0  0  0  0  0  0  0  0  0  0
    0.1680   63.2290   71.3810 N   0  0  0  0  0  0  0  0  0  0  0  0
    1.0070   62.1180   71.7340 C   0  0  0  0  0  0  0  0  0  0  0  0
    2.3650   62.1570   71.3540 C   0  0  0  0  0  0  0  0  0  0  0  0
    2.9070   63.2760   70.4980 C   0  0  0  0  0  0  0  0  0  0  0  0
    4.2840   62.9920   69.9020 C   0  0  0  0  0  0  0  0  0  0  0  0
    5.2130   62.4120   70.9580 C   0  0  0  0  0  0  0  0  0  0  0  0
    4.6600   61.0830   71.4600 C   0  0  0  0  0  0  0  0  0  0  0  0
    3.2000   61.1460   71.8280 C   0  0  0  0  0  0  0  0  0  0  0  0
    2.7590   60.1310   72.6060 N   0  0  0  0  0  0  0  0  0  0  0  0
    1.4680   60.0850   72.9560 C   0  0  0  0  0  0  0  0  0  0  0  0
    0.5300   61.0580   72.5590 C   0  0  0  0  0  0  0  0  0  0  0  0
   -0.8120   60.9200   73.0070 C   0  0  0  0  0  0  0  0  0  0  0  0
   -1.2040   59.8510   73.8130 C   0  0  0  0  0  0  0  0  0  0  0  0
   -0.2670   58.9020   74.1900 C   0  0  0  0  0  0  0  0  0  0  0  0
    1.0540   59.0320   73.7600 C   0  0  0  0  0  0  0  0  0  0  0  0
    0.4306   66.0595   67.5272 H   0  0  0  0  0  0  0  0  0  0  0  0
   -0.9664   68.2146   66.6284 H   0  0  0  0  0  0  0  0  0  0  0  0
   -1.1907   66.4438   66.2119 H   0  0  0  0  0  0  0  0  0  0  0  0
   -3.1317   66.2970   67.3105 H   0  0  0  0  0  0  0  0  0  0  0  0
   -2.5334   67.2854   68.6955 H   0  0  0  0  0  0  0  0  0  0  0  0
   -3.6789   68.8675   67.8873 H   0  0  0  0  0  0  0  0  0  0  0  0
    1.1691   67.9147   69.3184 H   0  0  0  0  0  0  0  0  0  0  0  0
    1.8443   67.6062   67.6581 H   0  0  0  0  0  0  0  0  0  0  0  0
    0.2945   69.2257   66.6998 H   0  0  0  0  0  0  0  0  0  0  0  0
   -0.4100   69.5208   68.3513 H   0  0  0  0  0  0  0  0  0  0  0  0
    1.6165   71.0138   67.1810 H   0  0  0  0  0  0  0  0  0  0  0  0
    1.2500   70.9344   68.9340 H   0  0  0  0  0  0  0  0  0  0  0  0
    2.9393   69.1667   69.1612 H   0  0  0  0  0  0  0  0  0  0  0  0
    2.3584   68.0595   65.9642 H   0  0  0  0  0  0  0  0  0  0  0  0
    2.1462   69.6464   65.0616 H   0  0  0  0  0  0  0  0  0  0  0  0
    3.7556   67.2230   64.1918 H   0  0  0  0  0  0  0  0  0  0  0  0
    2.2697   67.8977   63.4385 H   0  0  0  0  0  0  0  0  0  0  0  0
    4.2530   68.6245   62.1834 H   0  0  0  0  0  0  0  0  0  0  0  0
    3.4950   70.0309   63.0022 H   0  0  0  0  0  0  0  0  0  0  0  0
    5.9868   68.4780   63.7933 H   0  0  0  0  0  0  0  0  0  0  0  0
    5.7820   70.2597   63.4214 H   0  0  0  0  0  0  0  0  0  0  0  0
    4.4728   70.2414   70.1140 H   0  0  0  0  0  0  0  0  0  0  0  0
    6.6246   71.0162   71.0875 H   0  0  0  0  0  0  0  0  0  0  0  0
    8.5810   71.4176   69.5938 H   0  0  0  0  0  0  0  0  0  0  0  0
    8.3772   70.9873   67.1581 H   0  0  0  0  0  0  0  0  0  0  0  0
   -1.2984   66.9390   69.7643 H   0  0  0  0  0  0  0  0  0  0  0  0
   -1.2344   65.3013   68.9818 H   0  0  0  0  0  0  0  0  0  0  0  0
    0.8095   64.7752   69.9130 H   0  0  0  0  0  0  0  0  0  0  0  0
    1.2171   66.5416   70.1931 H   0  0  0  0  0  0  0  0  0  0  0  0
    0.4761   66.4690   72.2635 H   0  0  0  0  0  0  0  0  0  0  0  0
   -1.0989   65.7387   71.7126 H   0  0  0  0  0  0  0  0  0  0  0  0
    1.4320   64.3490   72.6329 H   0  0  0  0  0  0  0  0  0  0  0  0
   -0.2628   64.1559   73.2143 H   0  0  0  0  0  0  0  0  0  0  0  0
   -0.4797   63.2528   70.5805 H   0  0  0  0  0  0  0  0  0  0  0  0
    2.2023   63.4518   69.6719 H   0  0  0  0  0  0  0  0  0  0  0  0
    3.0189   64.1522   71.1536 H   0  0  0  0  0  0  0  0  0  0  0  0
    4.1797   62.2720   69.0769 H   0  0  0  0  0  0  0  0  0  0  0  0
    4.7122   63.9349   69.5310 H   0  0  0  0  0  0  0  0  0  0  0  0
    6.2087   62.2506   70.5192 H   0  0  0  0  0  0  0  0  0  0  0  0
    5.2882   63.1151   71.8006 H   0  0  0  0  0  0  0  0  0  0  0  0
    4.7884   60.3300   70.6684 H   0  0  0  0  0  0  0  0  0  0  0  0
    5.2154   60.8230   72.3732 H   0  0  0  0  0  0  0  0  0  0  0  0
   -1.5578   61.6727   72.7116 H   0  0  0  0  0  0  0  0  0  0  0  0
   -2.2484   59.7620   74.1466 H   0  0  0  0  0  0  0  0  0  0  0  0
   -0.5625   58.0527   74.8235 H   0  0  0  0  0  0  0  0  0  0  0  0
    1.7910   58.2757   74.0681 H   0  0  0  0  0  0  0  0  0  0  0  0
  2  1  1  0
  3  2  1  0
  4  3  1  0
  5  1  1  0
  6  5  1  0
  7  6  1  0
  8  7  1  0
  9  8  1  0
 10  9  1  0
 11 10  1  0
 12 11  1  0
 13 12  1  0
 14 13  1  0
 15 10  2  0
 15 14  1  0
 16 15  1  0
 17 16  2  0
 18 17  1  0
 18  9  2  0
 19 18  1  0
 20 19  2  0
 21 20  1  0
 22 21  2  0
 22 17  1  0
 23  1  1  0
 24 23  1  0
 25 24  1  0
 26 25  1  0
 27 26  1  0
 28 27  1  0
 29 28  1  0
 30 29  1  0
 31 30  1  0
 32 31  1  0
 33 32  1  0
 34 33  1  0
 34 29  2  0
 35 34  1  0
 36 35  2  0
 37 36  1  0
 37 28  2  0
 38 37  1  0
 39 38  2  0
 40 39  1  0
 41 40  2  0
 41 36  1  0
  1 42  1  6
  2 43  1  0
  2 44  1  0
  3 45  1  0
  3 46  1  0
  4 47  1  0
  5 48  1  0
  5 49  1  0
  6 50  1  0
  6 51  1  0
  7 52  1  0
  7 53  1  0
  8 54  1  0
 11 55  1  0
 11 56  1  0
 12 57  1  0
 12 58  1  0
 13 59  1  0
 13 60  1  0
 14 61  1  0
 14 62  1  0
 19 63  1  0
 20 64  1  0
 21 65  1  0
 22 66  1  0
 23 67  1  0
 23 68  1  0
 24 69  1  0
 24 70  1  0
 25 71  1  0
 25 72  1  0
 26 73  1  0
 26 74  1  0
 27 75  1  0
 30 76  1  0
 30 77  1  0
 31 78  1  0
 31 79  1  0
 32 80  1  0
 32 81  1  0
 33 82  1  0
 33 83  1  0
 38 84  1  0
 39 85  1  0
 40 86  1  0
 41 87  1  0
M  CHG  1   1   1
M  END
>  <score>  (4) 
-11.745

$$$$
=
     RDKit          3D

 87 92  0  0  0  0  0  0  0  0999 V2000
    1.5270   64.4920   70.0010 N   0  0  1  0  0  4  0  0  0  0  0  0
    2.8800   63.9110   70.4130 C   0  0  0  0  0  0  0  0  0  0  0  0
    3.6790   63.2900   69.2580 C   0  0  0  0  0  0  0  0  0  0  0  0
    2.8700   62.3750   68.5280 O   0  0  0  0  0  0  0  0  0  0  0  0
    0.3400   63.9200   70.7500 C   0  0  0  0  0  0  0  0  0  0  0  0
    0.2090   64.4940   72.1630 C   0  0  0  0  0  0  0  0  0  0  0  0
    0.1120   63.4000   73.2340 C   0  0  0  0  0  0  0  0  0  0  0  0
   -0.4670   62.1980   72.6350 N   0  0  0  0  0  0  0  0  0  0  0  0
   -0.0920   60.8650   72.9320 C   0  0  0  0  0  0  0  0  0  0  0  0
    1.1020   60.2230   72.5360 C   0  0  0  0  0  0  0  0  0  0  0  0
    2.1300   60.8320   71.6120 C   0  0  0  0  0  0  0  0  0  0  0  0
    3.1040   59.8330   70.9850 C   0  0  0  0  0  0  0  0  0  0  0  0
    3.6870   58.9420   72.0660 C   0  0  0  0  0  0  0  0  0  0  0  0
    2.5720   58.1280   72.7020 C   0  0  0  0  0  0  0  0  0  0  0  0
    1.3380   58.9310   73.0390 C   0  0  0  0  0  0  0  0  0  0  0  0
    0.4630   58.2660   73.8260 N   0  0  0  0  0  0  0  0  0  0  0  0
   -0.7140   58.8170   74.1080 C   0  0  0  0  0  0  0  0  0  0  0  0
   -1.0630   60.1080   73.6740 C   0  0  0  0  0  0  0  0  0  0  0  0
   -2.3610   60.5820   74.0070 C   0  0  0  0  0  0  0  0  0  0  0  0
   -3.2550   59.8200   74.7610 C   0  0  0  0  0  0  0  0  0  0  0  0
   -2.8740   58.5630   75.1990 C   0  0  0  0  0  0  0  0  0  0  0  0
   -1.6120   58.0760   74.8650 C   0  0  0  0  0  0  0  0  0  0  0  0
    1.5430   66.0080   69.9380 C   0  0  0  0  0  0  0  0  0  0  0  0
    0.4230   66.5580   69.0550 C   0  0  0  0  0  0  0  0  0  0  0  0
    0.7380   67.9040   68.3970 C   0  0  0  0  0  0  0  0  0  0  0  0
    1.3950   67.7540   67.0250 C   0  0  0  0  0  0  0  0  0  0  0  0
    1.6130   69.0710   66.4220 N   0  0  0  0  0  0  0  0  0  0  0  0
    3.0080   69.2420   66.1290 C   0  0  0  0  0  0  0  0  0  0  0  0
    3.4490   69.0130   64.8090 C   0  0  0  0  0  0  0  0  0  0  0  0
    2.5110   68.4880   63.7500 C   0  0  0  0  0  0  0  0  0  0  0  0
    3.2130   67.9790   62.4930 C   0  0  0  0  0  0  0  0  0  0  0  0
    4.2870   68.9600   62.0470 C   0  0  0  0  0  0  0  0  0  0  0  0
    5.3490   69.0930   63.1320 C   0  0  0  0  0  0  0  0  0  0  0  0
    4.7740   69.3240   64.5050 C   0  0  0  0  0  0  0  0  0  0  0  0
    5.6460   69.8060   65.4200 N   0  0  0  0  0  0  0  0  0  0  0  0
    5.2330   70.0110   66.6760 C   0  0  0  0  0  0  0  0  0  0  0  0
    3.9140   69.7560   67.1030 C   0  0  0  0  0  0  0  0  0  0  0  0
    3.5810   70.0300   68.4560 C   0  0  0  0  0  0  0  0  0  0  0  0
    4.5260   70.5320   69.3520 C   0  0  0  0  0  0  0  0  0  0  0  0
    5.8180   70.7730   68.9150 C   0  0  0  0  0  0  0  0  0  0  0  0
    6.1550   70.5120   67.5860 C   0  0  0  0  0  0  0  0  0  0  0  0
    1.3768   64.1686   69.0347 H   0  0  0  0  0  0  0  0  0  0  0  0
    3.4824   64.7193   70.8532 H   0  0  0  0  0  0  0  0  0  0  0  0
    2.6705   63.0982   71.1240 H   0  0  0  0  0  0  0  0  0  0  0  0
    4.0207   64.0889   68.5835 H   0  0  0  0  0  0  0  0  0  0  0  0
    4.5423   62.7491   69.6729 H   0  0  0  0  0  0  0  0  0  0  0  0
    2.3652   61.8040   69.1599 H   0  0  0  0  0  0  0  0  0  0  0  0
   -0.5770   64.1517   70.1883 H   0  0  0  0  0  0  0  0  0  0  0  0
    0.4933   62.8346   70.8421 H   0  0  0  0  0  0  0  0  0  0  0  0
    1.0906   65.1172   72.3739 H   0  0  0  0  0  0  0  0  0  0  0  0
   -0.7198   65.0821   72.2004 H   0  0  0  0  0  0  0  0  0  0  0  0
    1.1163   63.1723   73.6208 H   0  0  0  0  0  0  0  0  0  0  0  0
   -0.5238   63.7459   74.0624 H   0  0  0  0  0  0  0  0  0  0  0  0
   -1.2120   62.3326   71.9366 H   0  0  0  0  0  0  0  0  0  0  0  0
    1.5967   61.3458   70.7986 H   0  0  0  0  0  0  0  0  0  0  0  0
    2.7378   61.5093   72.2300 H   0  0  0  0  0  0  0  0  0  0  0  0
    2.5699   59.2139   70.2491 H   0  0  0  0  0  0  0  0  0  0  0  0
    3.9170   60.3804   70.4856 H   0  0  0  0  0  0  0  0  0  0  0  0
    4.4298   58.2633   71.6216 H   0  0  0  0  0  0  0  0  0  0  0  0
    4.1731   59.5631   72.8328 H   0  0  0  0  0  0  0  0  0  0  0  0
    2.2843   57.3298   72.0019 H   0  0  0  0  0  0  0  0  0  0  0  0
    2.9660   57.7378   73.6520 H   0  0  0  0  0  0  0  0  0  0  0  0
   -2.6702   61.5790   73.6602 H   0  0  0  0  0  0  0  0  0  0  0  0
   -4.2525   60.2143   75.0048 H   0  0  0  0  0  0  0  0  0  0  0  0
   -3.5613   57.9545   75.8051 H   0  0  0  0  0  0  0  0  0  0  0  0
   -1.3181   57.0742   75.2114 H   0  0  0  0  0  0  0  0  0  0  0  0
    1.4206   66.4067   70.9559 H   0  0  0  0  0  0  0  0  0  0  0  0
    2.5032   66.3190   69.5007 H   0  0  0  0  0  0  0  0  0  0  0  0
    0.2210   65.8254   68.2597 H   0  0  0  0  0  0  0  0  0  0  0  0
   -0.4417   66.7260   69.7139 H   0  0  0  0  0  0  0  0  0  0  0  0
   -0.2007   68.4649   68.2776 H   0  0  0  0  0  0  0  0  0  0  0  0
    1.4495   68.4324   69.0486 H   0  0  0  0  0  0  0  0  0  0  0  0
    2.3619   67.2420   67.1391 H   0  0  0  0  0  0  0  0  0  0  0  0
    0.7333   67.1655   66.3725 H   0  0  0  0  0  0  0  0  0  0  0  0
    0.8777   69.7680   66.2365 H   0  0  0  0  0  0  0  0  0  0  0  0
    1.9315   67.6588   64.1820 H   0  0  0  0  0  0  0  0  0  0  0  0
    1.8777   69.3323   63.4401 H   0  0  0  0  0  0  0  0  0  0  0  0
    3.6785   67.0057   62.7076 H   0  0  0  0  0  0  0  0  0  0  0  0
    2.4701   67.8754   61.6884 H   0  0  0  0  0  0  0  0  0  0  0  0
    4.7548   68.5932   61.1215 H   0  0  0  0  0  0  0  0  0  0  0  0
    3.8278   69.9431   61.8664 H   0  0  0  0  0  0  0  0  0  0  0  0
    5.9434   68.1677   63.1538 H   0  0  0  0  0  0  0  0  0  0  0  0
    5.9601   69.9731   62.8829 H   0  0  0  0  0  0  0  0  0  0  0  0
    2.5551   69.8424   68.8057 H   0  0  0  0  0  0  0  0  0  0  0  0
    4.2470   70.7346   70.3966 H   0  0  0  0  0  0  0  0  0  0  0  0
    6.5733   71.1674   69.6106 H   0  0  0  0  0  0  0  0  0  0  0  0
    7.1832   70.7093   67.2486 H   0  0  0  0  0  0  0  0  0  0  0  0
  2  1  1  0
  3  2  1  0
  4  3  1  0
  5  1  1  0
  6  5  1  0
  7  6  1  0
  8  7  1  0
  9  8  1  0
 10  9  1  0
 11 10  1  0
 12 11  1  0
 13 12  1  0
 14 13  1  0
 15 10  2  0
 15 14  1  0
 16 15  1  0
 17 16  2  0
 18 17  1  0
 18  9  2  0
 19 18  1  0
 20 19  2  0
 21 20  1  0
 22 21  2  0
 22 17  1  0
 23  1  1  0
 24 23  1  0
 25 24  1  0
 26 25  1  0
 27 26  1  0
 28 27  1  0
 29 28  1  0
 30 29  1  0
 31 30  1  0
 32 31  1  0
 33 32  1  0
 34 33  1  0
 34 29  2  0
 35 34  1  0
 36 35  2  0
 37 36  1  0
 37 28  2  0
 38 37  1  0
 39 38  2  0
 40 39  1  0
 41 40  2  0
 41 36  1  0
  1 42  1  6
  2 43  1  0
  2 44  1  0
  3 45  1  0
  3 46  1  0
  4 47  1  0
  5 48  1  0
  5 49  1  0
  6 50  1  0
  6 51  1  0
  7 52  1  0
  7 53  1  0
  8 54  1  0
 11 55  1  0
 11 56  1  0
 12 57  1  0
 12 58  1  0
 13 59  1  0
 13 60  1  0
 14 61  1  0
 14 62  1  0
 19 63  1  0
 20 64  1  0
 21 65  1  0
 22 66  1  0
 23 67  1  0
 23 68  1  0
 24 69  1  0
 24 70  1  0
 25 71  1  0
 25 72  1  0
 26 73  1  0
 26 74  1  0
 27 75  1  0
 30 76  1  0
 30 77  1  0
 31 78  1  0
 31 79  1  0
 32 80  1  0
 32 81  1  0
 33 82  1  0
 33 83  1  0
 38 84  1  0
 39 85  1  0
 40 86  1  0
 41 87  1  0
M  CHG  1   1   1
M  END
>  <score>  (5) 
-11.736

$$$$
=
     RDKit          3D

 87 92  0  0  0  0  0  0  0  0999 V2000
    0.8430   64.4430   70.1070 N   0  0  1  0  0  4  0  0  0  0  0  0
    2.3530   64.3360   70.3150 C   0  0  0  0  0  0  0  0  0  0  0  0
    3.0820   63.5130   69.2430 C   0  0  0  0  0  0  0  0  0  0  0  0
    2.5880   62.1790   69.2180 O   0  0  0  0  0  0  0  0  0  0  0  0
    0.0210   63.4640   70.9210 C   0  0  0  0  0  0  0  0  0  0  0  0
    0.3820   63.4930   72.4080 C   0  0  0  0  0  0  0  0  0  0  0  0
   -0.2630   62.3440   73.1920 C   0  0  0  0  0  0  0  0  0  0  0  0
    0.7830   61.5980   73.8900 N   0  0  0  0  0  0  0  0  0  0  0  0
    1.3800   60.3950   73.4400 C   0  0  0  0  0  0  0  0  0  0  0  0
    0.8420   59.0950   73.5610 C   0  0  0  0  0  0  0  0  0  0  0  0
   -0.4250   58.7660   74.3150 C   0  0  0  0  0  0  0  0  0  0  0  0
   -0.5910   57.2900   74.6810 C   0  0  0  0  0  0  0  0  0  0  0  0
   -0.3550   56.4310   73.4520 C   0  0  0  0  0  0  0  0  0  0  0  0
    1.0800   56.6090   72.9830 C   0  0  0  0  0  0  0  0  0  0  0  0
    1.5400   58.0460   72.9370 C   0  0  0  0  0  0  0  0  0  0  0  0
    2.7120   58.2140   72.2850 N   0  0  0  0  0  0  0  0  0  0  0  0
    3.2850   59.4150   72.2660 C   0  0  0  0  0  0  0  0  0  0  0  0
    2.6810   60.5450   72.8440 C   0  0  0  0  0  0  0  0  0  0  0  0
    3.3990   61.7700   72.7920 C   0  0  0  0  0  0  0  0  0  0  0  0
    4.6440   61.8700   72.1690 C   0  0  0  0  0  0  0  0  0  0  0  0
    5.2030   60.7470   71.5840 C   0  0  0  0  0  0  0  0  0  0  0  0
    4.5200   59.5330   71.6430 C   0  0  0  0  0  0  0  0  0  0  0  0
    0.3480   65.8760   70.1850 C   0  0  0  0  0  0  0  0  0  0  0  0
    1.3050   66.8520   69.5000 C   0  0  0  0  0  0  0  0  0  0  0  0
    0.6690   67.6830   68.3820 C   0  0  0  0  0  0  0  0  0  0  0  0
    1.4730   67.6410   67.0830 C   0  0  0  0  0  0  0  0  0  0  0  0
    1.6540   68.9950   66.5550 N   0  0  0  0  0  0  0  0  0  0  0  0
    3.0420   69.2170   66.2610 C   0  0  0  0  0  0  0  0  0  0  0  0
    3.4900   68.9990   64.9410 C   0  0  0  0  0  0  0  0  0  0  0  0
    2.5710   68.4380   63.8840 C   0  0  0  0  0  0  0  0  0  0  0  0
    3.2900   67.9500   62.6280 C   0  0  0  0  0  0  0  0  0  0  0  0
    4.3270   68.9690   62.1780 C   0  0  0  0  0  0  0  0  0  0  0  0
    5.3840   69.1440   63.2610 C   0  0  0  0  0  0  0  0  0  0  0  0
    4.8020   69.3580   64.6350 C   0  0  0  0  0  0  0  0  0  0  0  0
    5.6560   69.8750   65.5470 N   0  0  0  0  0  0  0  0  0  0  0  0
    5.2370   70.0680   66.8030 C   0  0  0  0  0  0  0  0  0  0  0  0
    3.9290   69.7660   67.2320 C   0  0  0  0  0  0  0  0  0  0  0  0
    3.5870   70.0320   68.5850 C   0  0  0  0  0  0  0  0  0  0  0  0
    4.5140   70.5710   69.4780 C   0  0  0  0  0  0  0  0  0  0  0  0
    5.7970   70.8570   69.0390 C   0  0  0  0  0  0  0  0  0  0  0  0
    6.1410   70.6050   67.7110 C   0  0  0  0  0  0  0  0  0  0  0  0
    0.6826   64.1377   69.1364 H   0  0  0  0  0  0  0  0  0  0  0  0
    2.7737   65.3524   70.3142 H   0  0  0  0  0  0  0  0  0  0  0  0
    2.5029   63.8119   71.2704 H   0  0  0  0  0  0  0  0  0  0  0  0
    2.9213   63.9771   68.2587 H   0  0  0  0  0  0  0  0  0  0  0  0
    4.1558   63.4905   69.4806 H   0  0  0  0  0  0  0  0  0  0  0  0
    2.4677   61.8542   70.1454 H   0  0  0  0  0  0  0  0  0  0  0  0
   -1.0433   63.7194   70.8109 H   0  0  0  0  0  0  0  0  0  0  0  0
    0.2343   62.4528   70.5441 H   0  0  0  0  0  0  0  0  0  0  0  0
    1.4749   63.4176   72.5071 H   0  0  0  0  0  0  0  0  0  0  0  0
    0.0018   64.4370   72.8256 H   0  0  0  0  0  0  0  0  0  0  0  0
   -0.9762   62.7514   73.9237 H   0  0  0  0  0  0  0  0  0  0  0  0
   -0.7974   61.6761   72.5004 H   0  0  0  0  0  0  0  0  0  0  0  0
    1.1146   61.9806   74.7870 H   0  0  0  0  0  0  0  0  0  0  0  0
   -0.4306   59.3518   75.2460 H   0  0  0  0  0  0  0  0  0  0  0  0
   -1.2585   59.0126   73.6408 H   0  0  0  0  0  0  0  0  0  0  0  0
    0.1375   57.0219   75.4604 H   0  0  0  0  0  0  0  0  0  0  0  0
   -1.6109   57.1190   75.0558 H   0  0  0  0  0  0  0  0  0  0  0  0
   -0.5313   55.3746   73.7026 H   0  0  0  0  0  0  0  0  0  0  0  0
   -1.0450   56.7357   72.6513 H   0  0  0  0  0  0  0  0  0  0  0  0
    1.7388   56.0573   73.6698 H   0  0  0  0  0  0  0  0  0  0  0  0
    1.1261   56.2282   71.9520 H   0  0  0  0  0  0  0  0  0  0  0  0
    2.9608   62.6658   73.2563 H   0  0  0  0  0  0  0  0  0  0  0  0
    5.1760   62.8324   72.1432 H   0  0  0  0  0  0  0  0  0  0  0  0
    6.1772   60.8118   71.0772 H   0  0  0  0  0  0  0  0  0  0  0  0
    4.9729   58.6426   71.1824 H   0  0  0  0  0  0  0  0  0  0  0  0
   -0.6346   65.9393   69.6945 H   0  0  0  0  0  0  0  0  0  0  0  0
    0.2820   66.1547   71.2470 H   0  0  0  0  0  0  0  0  0  0  0  0
    1.6957   67.5424   70.2620 H   0  0  0  0  0  0  0  0  0  0  0  0
    2.0908   66.2427   69.0296 H   0  0  0  0  0  0  0  0  0  0  0  0
   -0.3399   67.2920   68.1838 H   0  0  0  0  0  0  0  0  0  0  0  0
    0.6416   68.7291   68.7211 H   0  0  0  0  0  0  0  0  0  0  0  0
    2.4583   67.1933   67.2801 H   0  0  0  0  0  0  0  0  0  0  0  0
    0.9270   67.0376   66.3428 H   0  0  0  0  0  0  0  0  0  0  0  0
    0.9005   69.6833   66.4157 H   0  0  0  0  0  0  0  0  0  0  0  0
    2.0213   67.5902   64.3188 H   0  0  0  0  0  0  0  0  0  0  0  0
    1.9084   69.2586   63.5717 H   0  0  0  0  0  0  0  0  0  0  0  0
    3.7912   66.9953   62.8456 H   0  0  0  0  0  0  0  0  0  0  0  0
    2.5510   67.8156   61.8244 H   0  0  0  0  0  0  0  0  0  0  0  0
    4.8070   68.6171   61.2530 H   0  0  0  0  0  0  0  0  0  0  0  0
    3.8317   69.9340   61.9952 H   0  0  0  0  0  0  0  0  0  0  0  0
    6.0119   68.2411   63.2848 H   0  0  0  0  0  0  0  0  0  0  0  0
    5.9621   70.0452   63.0087 H   0  0  0  0  0  0  0  0  0  0  0  0
    2.5690   69.8081   68.9364 H   0  0  0  0  0  0  0  0  0  0  0  0
    4.2286   70.7673   70.5220 H   0  0  0  0  0  0  0  0  0  0  0  0
    6.5386   71.2797   69.7328 H   0  0  0  0  0  0  0  0  0  0  0  0
    7.1609   70.8390   67.3717 H   0  0  0  0  0  0  0  0  0  0  0  0
  2  1  1  0
  3  2  1  0
  4  3  1  0
  5  1  1  0
  6  5  1  0
  7  6  1  0
  8  7  1  0
  9  8  1  0
 10  9  1  0
 11 10  1  0
 12 11  1  0
 13 12  1  0
 14 13  1  0
 15 10  2  0
 15 14  1  0
 16 15  1  0
 17 16  2  0
 18 17  1  0
 18  9  2  0
 19 18  1  0
 20 19  2  0
 21 20  1  0
 22 21  2  0
 22 17  1  0
 23  1  1  0
 24 23  1  0
 25 24  1  0
 26 25  1  0
 27 26  1  0
 28 27  1  0
 29 28  1  0
 30 29  1  0
 31 30  1  0
 32 31  1  0
 33 32  1  0
 34 33  1  0
 34 29  2  0
 35 34  1  0
 36 35  2  0
 37 36  1  0
 37 28  2  0
 38 37  1  0
 39 38  2  0
 40 39  1  0
 41 40  2  0
 41 36  1  0
  1 42  1  6
  2 43  1  0
  2 44  1  0
  3 45  1  0
  3 46  1  0
  4 47  1  0
  5 48  1  0
  5 49  1  0
  6 50  1  0
  6 51  1  0
  7 52  1  0
  7 53  1  0
  8 54  1  0
 11 55  1  0
 11 56  1  0
 12 57  1  0
 12 58  1  0
 13 59  1  0
 13 60  1  0
 14 61  1  0
 14 62  1  0
 19 63  1  0
 20 64  1  0
 21 65  1  0
 22 66  1  0
 23 67  1  0
 23 68  1  0
 24 69  1  0
 24 70  1  0
 25 71  1  0
 25 72  1  0
 26 73  1  0
 26 74  1  0
 27 75  1  0
 30 76  1  0
 30 77  1  0
 31 78  1  0
 31 79  1  0
 32 80  1  0
 32 81  1  0
 33 82  1  0
 33 83  1  0
 38 84  1  0
 39 85  1  0
 40 86  1  0
 41 87  1  0
M  CHG  1   1   1
M  END
>  <score>  (6) 
-11.704

$$$$
=
     RDKit          3D

 87 92  0  0  0  0  0  0  0  0999 V2000
    0.7390   64.4990   70.6720 N   0  0  1  0  0  4  0  0  0  0  0  0
    2.1880   64.3620   70.2040 C   0  0  0  0  0  0  0  0  0  0  0  0
    2.5310   62.9920   69.6010 C   0  0  0  0  0  0  0  0  0  0  0  0
    3.4350   63.1380   68.5130 O   0  0  0  0  0  0  0  0  0  0  0  0
    0.4820   64.0080   72.0830 C   0  0  0  0  0  0  0  0  0  0  0  0
   -0.2340   62.6560   72.1100 C   0  0  0  0  0  0  0  0  0  0  0  0
   -0.4760   62.1480   73.5370 C   0  0  0  0  0  0  0  0  0  0  0  0
    0.7640   61.5700   74.0530 N   0  0  0  0  0  0  0  0  0  0  0  0
    1.3740   60.3790   73.5900 C   0  0  0  0  0  0  0  0  0  0  0  0
    0.8500   59.0720   73.6980 C   0  0  0  0  0  0  0  0  0  0  0  0
   -0.4140   58.7210   74.4490 C   0  0  0  0  0  0  0  0  0  0  0  0
   -0.5640   57.2400   74.7990 C   0  0  0  0  0  0  0  0  0  0  0  0
   -0.3190   56.3960   73.5620 C   0  0  0  0  0  0  0  0  0  0  0  0
    1.1140   56.5940   73.0950 C   0  0  0  0  0  0  0  0  0  0  0  0
    1.5590   58.0370   73.0640 C   0  0  0  0  0  0  0  0  0  0  0  0
    2.7290   58.2240   72.4130 N   0  0  0  0  0  0  0  0  0  0  0  0
    3.2890   59.4310   72.4070 C   0  0  0  0  0  0  0  0  0  0  0  0
    2.6730   60.5480   72.9960 C   0  0  0  0  0  0  0  0  0  0  0  0
    3.3780   61.7810   72.9560 C   0  0  0  0  0  0  0  0  0  0  0  0
    4.6220   61.9010   72.3350 C   0  0  0  0  0  0  0  0  0  0  0  0
    5.1930   60.7900   71.7380 C   0  0  0  0  0  0  0  0  0  0  0  0
    4.5230   59.5690   71.7850 C   0  0  0  0  0  0  0  0  0  0  0  0
    0.1650   65.8730   70.3840 C   0  0  0  0  0  0  0  0  0  0  0  0
    1.1200   66.7340   69.5590 C   0  0  0  0  0  0  0  0  0  0  0  0
    0.5350   67.2450   68.2400 C   0  0  0  0  0  0  0  0  0  0  0  0
    1.6090   67.5830   67.2060 C   0  0  0  0  0  0  0  0  0  0  0  0
    1.6700   69.0310   66.9940 N   0  0  0  0  0  0  0  0  0  0  0  0
    2.9580   69.3880   66.4690 C   0  0  0  0  0  0  0  0  0  0  0  0
    3.9290   69.8900   67.3610 C   0  0  0  0  0  0  0  0  0  0  0  0
    3.5980   70.1590   68.8090 C   0  0  0  0  0  0  0  0  0  0  0  0
    4.6390   71.0060   69.5380 C   0  0  0  0  0  0  0  0  0  0  0  0
    6.0440   70.5110   69.2260 C   0  0  0  0  0  0  0  0  0  0  0  0
    6.3200   70.6480   67.7330 C   0  0  0  0  0  0  0  0  0  0  0  0
    5.2180   70.0920   66.8690 C   0  0  0  0  0  0  0  0  0  0  0  0
    5.5610   69.8540   65.5830 N   0  0  0  0  0  0  0  0  0  0  0  0
    4.6370   69.3910   64.7320 C   0  0  0  0  0  0  0  0  0  0  0  0
    3.3070   69.1250   65.1120 C   0  0  0  0  0  0  0  0  0  0  0  0
    2.4160   68.6170   64.1290 C   0  0  0  0  0  0  0  0  0  0  0  0
    2.8330   68.3870   62.8180 C   0  0  0  0  0  0  0  0  0  0  0  0
    4.1440   68.6580   62.4620 C   0  0  0  0  0  0  0  0  0  0  0  0
    5.0280   69.1530   63.4210 C   0  0  0  0  0  0  0  0  0  0  0  0
    0.2035   63.8394   70.0896 H   0  0  0  0  0  0  0  0  0  0  0  0
    2.3777   65.1313   69.4410 H   0  0  0  0  0  0  0  0  0  0  0  0
    2.8196   64.4800   71.0968 H   0  0  0  0  0  0  0  0  0  0  0  0
    2.9945   62.3620   70.3745 H   0  0  0  0  0  0  0  0  0  0  0  0
    1.6059   62.5236   69.2340 H   0  0  0  0  0  0  0  0  0  0  0  0
    4.3498   63.2857   68.8616 H   0  0  0  0  0  0  0  0  0  0  0  0
    1.4462   63.9073   72.6029 H   0  0  0  0  0  0  0  0  0  0  0  0
   -0.1696   64.7420   72.5795 H   0  0  0  0  0  0  0  0  0  0  0  0
   -1.2048   62.7607   71.6034 H   0  0  0  0  0  0  0  0  0  0  0  0
    0.4115   61.9257   71.6001 H   0  0  0  0  0  0  0  0  0  0  0  0
   -0.7877   62.9853   74.1787 H   0  0  0  0  0  0  0  0  0  0  0  0
   -1.2676   61.3843   73.5305 H   0  0  0  0  0  0  0  0  0  0  0  0
    1.2343   62.0725   74.8193 H   0  0  0  0  0  0  0  0  0  0  0  0
   -0.4257   59.2966   75.3863 H   0  0  0  0  0  0  0  0  0  0  0  0
   -1.2502   58.9658   73.7775 H   0  0  0  0  0  0  0  0  0  0  0  0
    0.1673   56.9717   75.5757 H   0  0  0  0  0  0  0  0  0  0  0  0
   -1.5823   57.0545   75.1714 H   0  0  0  0  0  0  0  0  0  0  0  0
   -0.4840   55.3353   73.8022 H   0  0  0  0  0  0  0  0  0  0  0  0
   -1.0122   56.7011   72.7643 H   0  0  0  0  0  0  0  0  0  0  0  0
    1.7786   56.0422   73.7761 H   0  0  0  0  0  0  0  0  0  0  0  0
    1.1642   56.2244   72.0602 H   0  0  0  0  0  0  0  0  0  0  0  0
    2.9299   62.6674   73.4286 H   0  0  0  0  0  0  0  0  0  0  0  0
    5.1439   62.8692   72.3200 H   0  0  0  0  0  0  0  0  0  0  0  0
    6.1661   60.8703   71.2315 H   0  0  0  0  0  0  0  0  0  0  0  0
    4.9853   58.6882   71.3154 H   0  0  0  0  0  0  0  0  0  0  0  0
   -0.7763   65.7545   69.8273 H   0  0  0  0  0  0  0  0  0  0  0  0
   -0.0012   66.3790   71.3465 H   0  0  0  0  0  0  0  0  0  0  0  0
    1.4098   67.6041   70.1663 H   0  0  0  0  0  0  0  0  0  0  0  0
    1.9724   66.0908   69.2949 H   0  0  0  0  0  0  0  0  0  0  0  0
   -0.1221   66.4678   67.8227 H   0  0  0  0  0  0  0  0  0  0  0  0
   -0.0161   68.1714   68.4594 H   0  0  0  0  0  0  0  0  0  0  0  0
    2.5854   67.2273   67.5668 H   0  0  0  0  0  0  0  0  0  0  0  0
    1.3581   67.0915   66.2545 H   0  0  0  0  0  0  0  0  0  0  0  0
    0.9055   69.6924   67.1914 H   0  0  0  0  0  0  0  0  0  0  0  0
    2.6330   70.6854   68.8511 H   0  0  0  0  0  0  0  0  0  0  0  0
    3.5710   69.1830   69.3156 H   0  0  0  0  0  0  0  0  0  0  0  0
    4.5442   72.0531   69.2147 H   0  0  0  0  0  0  0  0  0  0  0  0
    4.4666   70.9260   70.6215 H   0  0  0  0  0  0  0  0  0  0  0  0
    6.7754   71.1093   69.7890 H   0  0  0  0  0  0  0  0  0  0  0  0
    6.1291   69.4532   69.5156 H   0  0  0  0  0  0  0  0  0  0  0  0
    6.4434   71.7154   67.4974 H   0  0  0  0  0  0  0  0  0  0  0  0
    7.2286   70.0674   67.5154 H   0  0  0  0  0  0  0  0  0  0  0  0
    1.3743   68.4003   64.4079 H   0  0  0  0  0  0  0  0  0  0  0  0
    2.1263   67.9935   62.0726 H   0  0  0  0  0  0  0  0  0  0  0  0
    4.4854   68.4842   61.4309 H   0  0  0  0  0  0  0  0  0  0  0  0
    6.0680   69.3614   63.1294 H   0  0  0  0  0  0  0  0  0  0  0  0
  2  1  1  0
  3  2  1  0
  4  3  1  0
  5  1  1  0
  6  5  1  0
  7  6  1  0
  8  7  1  0
  9  8  1  0
 10  9  1  0
 11 10  1  0
 12 11  1  0
 13 12  1  0
 14 13  1  0
 15 10  2  0
 15 14  1  0
 16 15  1  0
 17 16  2  0
 18 17  1  0
 18  9  2  0
 19 18  1  0
 20 19  2  0
 21 20  1  0
 22 21  2  0
 22 17  1  0
 23  1  1  0
 24 23  1  0
 25 24  1  0
 26 25  1  0
 27 26  1  0
 28 27  1  0
 29 28  1  0
 30 29  1  0
 31 30  1  0
 32 31  1  0
 33 32  1  0
 34 33  1  0
 34 29  2  0
 35 34  1  0
 36 35  2  0
 37 36  1  0
 37 28  2  0
 38 37  1  0
 39 38  2  0
 40 39  1  0
 41 40  2  0
 41 36  1  0
  1 42  1  6
  2 43  1  0
  2 44  1  0
  3 45  1  0
  3 46  1  0
  4 47  1  0
  5 48  1  0
  5 49  1  0
  6 50  1  0
  6 51  1  0
  7 52  1  0
  7 53  1  0
  8 54  1  0
 11 55  1  0
 11 56  1  0
 12 57  1  0
 12 58  1  0
 13 59  1  0
 13 60  1  0
 14 61  1  0
 14 62  1  0
 19 63  1  0
 20 64  1  0
 21 65  1  0
 22 66  1  0
 23 67  1  0
 23 68  1  0
 24 69  1  0
 24 70  1  0
 25 71  1  0
 25 72  1  0
 26 73  1  0
 26 74  1  0
 27 75  1  0
 30 76  1  0
 30 77  1  0
 31 78  1  0
 31 79  1  0
 32 80  1  0
 32 81  1  0
 33 82  1  0
 33 83  1  0
 38 84  1  0
 39 85  1  0
 40 86  1  0
 41 87  1  0
M  CHG  1   1   1
M  END
>  <score>  (7) 
-11.476

$$$$
=
     RDKit          3D

 87 92  0  0  0  0  0  0  0  0999 V2000
    4.0790   64.2630   63.9870 N   0  0  1  0  0  4  0  0  0  0  0  0
    5.5200   63.8030   63.7600 C   0  0  0  0  0  0  0  0  0  0  0  0
    5.6450   62.4120   63.1220 C   0  0  0  0  0  0  0  0  0  0  0  0
    6.7930   62.3500   62.2840 O   0  0  0  0  0  0  0  0  0  0  0  0
    3.3460   63.5240   65.0880 C   0  0  0  0  0  0  0  0  0  0  0  0
    3.9060   63.8420   66.4780 C   0  0  0  0  0  0  0  0  0  0  0  0
    3.6890   62.6960   67.4740 C   0  0  0  0  0  0  0  0  0  0  0  0
    3.6570   63.2430   68.8290 N   0  0  0  0  0  0  0  0  0  0  0  0
    2.8990   62.7300   69.9090 C   0  0  0  0  0  0  0  0  0  0  0  0
    2.9820   61.4270   70.4480 C   0  0  0  0  0  0  0  0  0  0  0  0
    3.8260   60.3180   69.8640 C   0  0  0  0  0  0  0  0  0  0  0  0
    3.4490   58.9100   70.3290 C   0  0  0  0  0  0  0  0  0  0  0  0
    3.3440   58.8840   71.8430 C   0  0  0  0  0  0  0  0  0  0  0  0
    2.2220   59.8090   72.2860 C   0  0  0  0  0  0  0  0  0  0  0  0
    2.2260   61.1560   71.6020 C   0  0  0  0  0  0  0  0  0  0  0  0
    1.3940   62.0520   72.1770 N   0  0  0  0  0  0  0  0  0  0  0  0
    1.2210   63.2420   71.6080 C   0  0  0  0  0  0  0  0  0  0  0  0
    1.9280   63.6370   70.4590 C   0  0  0  0  0  0  0  0  0  0  0  0
    1.6380   64.9200   69.9210 C   0  0  0  0  0  0  0  0  0  0  0  0
    0.7110   65.7780   70.5140 C   0  0  0  0  0  0  0  0  0  0  0  0
    0.0490   65.3740   71.6610 C   0  0  0  0  0  0  0  0  0  0  0  0
    0.3080   64.1120   72.1920 C   0  0  0  0  0  0  0  0  0  0  0  0
    3.9610   65.7730   64.0750 C   0  0  0  0  0  0  0  0  0  0  0  0
    4.1740   66.4460   62.7190 C   0  0  0  0  0  0  0  0  0  0  0  0
    5.0070   67.7290   62.7730 C   0  0  0  0  0  0  0  0  0  0  0  0
    5.2730   68.2040   64.2010 C   0  0  0  0  0  0  0  0  0  0  0  0
    4.5760   69.4680   64.4530 N   0  0  0  0  0  0  0  0  0  0  0  0
    4.0120   69.4530   65.7740 C   0  0  0  0  0  0  0  0  0  0  0  0
    4.7930   69.9440   66.8410 C   0  0  0  0  0  0  0  0  0  0  0  0
    6.2260   70.3700   66.6330 C   0  0  0  0  0  0  0  0  0  0  0  0
    7.0170   70.5470   67.9270 C   0  0  0  0  0  0  0  0  0  0  0  0
    6.2020   71.3260   68.9480 C   0  0  0  0  0  0  0  0  0  0  0  0
    4.9360   70.5520   69.2990 C   0  0  0  0  0  0  0  0  0  0  0  0
    4.1830   70.0610   68.0890 C   0  0  0  0  0  0  0  0  0  0  0  0
    2.8990   69.7030   68.3190 N   0  0  0  0  0  0  0  0  0  0  0  0
    2.1620   69.2220   67.3100 C   0  0  0  0  0  0  0  0  0  0  0  0
    2.6560   69.0770   65.9990 C   0  0  0  0  0  0  0  0  0  0  0  0
    1.7770   68.5750   65.0010 C   0  0  0  0  0  0  0  0  0  0  0  0
    0.4600   68.2260   65.3000 C   0  0  0  0  0  0  0  0  0  0  0  0
   -0.0070   68.3730   66.5960 C   0  0  0  0  0  0  0  0  0  0  0  0
    0.8470   68.8690   67.5820 C   0  0  0  0  0  0  0  0  0  0  0  0
    3.5698   63.9863   63.1355 H   0  0  0  0  0  0  0  0  0  0  0  0
    6.0142   64.5308   63.0996 H   0  0  0  0  0  0  0  0  0  0  0  0
    5.9906   63.7385   64.7522 H   0  0  0  0  0  0  0  0  0  0  0  0
    5.7352   61.6562   63.9161 H   0  0  0  0  0  0  0  0  0  0  0  0
    4.7494   62.2176   62.5137 H   0  0  0  0  0  0  0  0  0  0  0  0
    7.6083   62.3060   62.8439 H   0  0  0  0  0  0  0  0  0  0  0  0
    2.2846   63.8116   65.0605 H   0  0  0  0  0  0  0  0  0  0  0  0
    3.4762   62.4459   64.9126 H   0  0  0  0  0  0  0  0  0  0  0  0
    4.9858   64.0321   66.3885 H   0  0  0  0  0  0  0  0  0  0  0  0
    3.3710   64.7237   66.8606 H   0  0  0  0  0  0  0  0  0  0  0  0
    2.7348   62.1939   67.2563 H   0  0  0  0  0  0  0  0  0  0  0  0
    4.5084   61.9674   67.3866 H   0  0  0  0  0  0  0  0  0  0  0  0
    4.2364   64.0742   69.0143 H   0  0  0  0  0  0  0  0  0  0  0  0
    3.7279   60.3541   68.7690 H   0  0  0  0  0  0  0  0  0  0  0  0
    4.8536   60.4944   70.2146 H   0  0  0  0  0  0  0  0  0  0  0  0
    2.4810   58.6266   69.8901 H   0  0  0  0  0  0  0  0  0  0  0  0
    4.2231   58.1990   70.0046 H   0  0  0  0  0  0  0  0  0  0  0  0
    3.1288   57.8588   72.1786 H   0  0  0  0  0  0  0  0  0  0  0  0
    4.2940   59.2207   72.2836 H   0  0  0  0  0  0  0  0  0  0  0  0
    1.2626   59.3156   72.0714 H   0  0  0  0  0  0  0  0  0  0  0  0
    2.3722   59.9980   73.3592 H   0  0  0  0  0  0  0  0  0  0  0  0
    2.1601   65.2466   69.0095 H   0  0  0  0  0  0  0  0  0  0  0  0
    0.5081   66.7658   70.0745 H   0  0  0  0  0  0  0  0  0  0  0  0
   -0.6750   66.0433   72.1487 H   0  0  0  0  0  0  0  0  0  0  0  0
   -0.2258   63.7951   73.1001 H   0  0  0  0  0  0  0  0  0  0  0  0
    2.9572   66.0295   64.4446 H   0  0  0  0  0  0  0  0  0  0  0  0
    4.7425   66.1347   64.7594 H   0  0  0  0  0  0  0  0  0  0  0  0
    4.6853   65.7316   62.0570 H   0  0  0  0  0  0  0  0  0  0  0  0
    3.1779   66.7340   62.3519 H   0  0  0  0  0  0  0  0  0  0  0  0
    5.9721   67.5422   62.2794 H   0  0  0  0  0  0  0  0  0  0  0  0
    4.4334   68.5174   62.2637 H   0  0  0  0  0  0  0  0  0  0  0  0
    4.9134   67.4434   64.9096 H   0  0  0  0  0  0  0  0  0  0  0  0
    6.3542   68.3585   64.3318 H   0  0  0  0  0  0  0  0  0  0  0  0
    4.5018   70.2483   63.7848 H   0  0  0  0  0  0  0  0  0  0  0  0
    6.7287   69.6054   66.0225 H   0  0  0  0  0  0  0  0  0  0  0  0
    6.1967   71.3537   66.1416 H   0  0  0  0  0  0  0  0  0  0  0  0
    7.2627   69.5572   68.3392 H   0  0  0  0  0  0  0  0  0  0  0  0
    7.9385   71.1058   67.7067 H   0  0  0  0  0  0  0  0  0  0  0  0
    6.8026   71.4751   69.8574 H   0  0  0  0  0  0  0  0  0  0  0  0
    5.9244   72.3016   68.5225 H   0  0  0  0  0  0  0  0  0  0  0  0
    5.2167   69.6829   69.9120 H   0  0  0  0  0  0  0  0  0  0  0  0
    4.2710   71.2423   69.8388 H   0  0  0  0  0  0  0  0  0  0  0  0
    2.1434   68.4592   63.9703 H   0  0  0  0  0  0  0  0  0  0  0  0
   -0.2027   67.8371   64.5129 H   0  0  0  0  0  0  0  0  0  0  0  0
   -1.0431   68.1008   66.8459 H   0  0  0  0  0  0  0  0  0  0  0  0
    0.4661   68.9840   68.6075 H   0  0  0  0  0  0  0  0  0  0  0  0
  2  1  1  0
  3  2  1  0
  4  3  1  0
  5  1  1  0
  6  5  1  0
  7  6  1  0
  8  7  1  0
  9  8  1  0
 10  9  1  0
 11 10  1  0
 12 11  1  0
 13 12  1  0
 14 13  1  0
 15 10  2  0
 15 14  1  0
 16 15  1  0
 17 16  2  0
 18 17  1  0
 18  9  2  0
 19 18  1  0
 20 19  2  0
 21 20  1  0
 22 21  2  0
 22 17  1  0
 23  1  1  0
 24 23  1  0
 25 24  1  0
 26 25  1  0
 27 26  1  0
 28 27  1  0
 29 28  1  0
 30 29  1  0
 31 30  1  0
 32 31  1  0
 33 32  1  0
 34 33  1  0
 34 29  2  0
 35 34  1  0
 36 35  2  0
 37 36  1  0
 37 28  2  0
 38 37  1  0
 39 38  2  0
 40 39  1  0
 41 40  2  0
 41 36  1  0
  1 42  1  6
  2 43  1  0
  2 44  1  0
  3 45  1  0
  3 46  1  0
  4 47  1  0
  5 48  1  0
  5 49  1  0
  6 50  1  0
  6 51  1  0
  7 52  1  0
  7 53  1  0
  8 54  1  0
 11 55  1  0
 11 56  1  0
 12 57  1  0
 12 58  1  0
 13 59  1  0
 13 60  1  0
 14 61  1  0
 14 62  1  0
 19 63  1  0
 20 64  1  0
 21 65  1  0
 22 66  1  0
 23 67  1  0
 23 68  1  0
 24 69  1  0
 24 70  1  0
 25 71  1  0
 25 72  1  0
 26 73  1  0
 26 74  1  0
 27 75  1  0
 30 76  1  0
 30 77  1  0
 31 78  1  0
 31 79  1  0
 32 80  1  0
 32 81  1  0
 33 82  1  0
 33 83  1  0
 38 84  1  0
 39 85  1  0
 40 86  1  0
 41 87  1  0
M  CHG  1   1   1
M  END
>  <score>  (8) 
-11.092

$$$$
=
     RDKit          3D

 87 92  0  0  0  0  0  0  0  0999 V2000
    1.5910   64.6070   70.2240 N   0  0  1  0  0  4  0  0  0  0  0  0
    2.9940   64.1560   70.6300 C   0  0  0  0  0  0  0  0  0  0  0  0
    3.5530   62.9990   69.7890 C   0  0  0  0  0  0  0  0  0  0  0  0
    3.2950   63.2170   68.4070 O   0  0  0  0  0  0  0  0  0  0  0  0
    0.4890   64.1740   71.1700 C   0  0  0  0  0  0  0  0  0  0  0  0
    1.0350   63.5310   72.4470 C   0  0  0  0  0  0  0  0  0  0  0  0
   -0.0770   63.1320   73.4260 C   0  0  0  0  0  0  0  0  0  0  0  0
   -0.8160   62.0000   72.8700 N   0  0  0  0  0  0  0  0  0  0  0  0
   -0.8030   60.6770   73.3760 C   0  0  0  0  0  0  0  0  0  0  0  0
    0.2580   59.7510   73.2750 C   0  0  0  0  0  0  0  0  0  0  0  0
    1.5250   59.9920   72.4880 C   0  0  0  0  0  0  0  0  0  0  0  0
    2.3290   58.7330   72.1610 C   0  0  0  0  0  0  0  0  0  0  0  0
    2.5240   57.9110   73.4220 C   0  0  0  0  0  0  0  0  0  0  0  0
    1.1700   57.4480   73.9350 C   0  0  0  0  0  0  0  0  0  0  0  0
    0.1150   58.5280   73.9540 C   0  0  0  0  0  0  0  0  0  0  0  0
   -0.9970   58.1820   74.6400 N   0  0  0  0  0  0  0  0  0  0  0  0
   -2.0460   58.9990   74.6430 C   0  0  0  0  0  0  0  0  0  0  0  0
   -2.0220   60.2550   74.0120 C   0  0  0  0  0  0  0  0  0  0  0  0
   -3.2120   61.0300   74.0520 C   0  0  0  0  0  0  0  0  0  0  0  0
   -4.3600   60.5890   74.7140 C   0  0  0  0  0  0  0  0  0  0  0  0
   -4.3450   59.3600   75.3510 C   0  0  0  0  0  0  0  0  0  0  0  0
   -3.1930   58.5790   75.3040 C   0  0  0  0  0  0  0  0  0  0  0  0
    1.5410   66.0770   69.8530 C   0  0  0  0  0  0  0  0  0  0  0  0
    0.1340   66.5210   69.4510 C   0  0  0  0  0  0  0  0  0  0  0  0
    0.0630   67.2700   68.1170 C   0  0  0  0  0  0  0  0  0  0  0  0
    1.4410   67.6440   67.5730 C   0  0  0  0  0  0  0  0  0  0  0  0
    1.3950   68.9640   66.9400 N   0  0  0  0  0  0  0  0  0  0  0  0
    2.7000   69.3100   66.4500 C   0  0  0  0  0  0  0  0  0  0  0  0
    3.6450   69.8210   67.3640 C   0  0  0  0  0  0  0  0  0  0  0  0
    3.2720   70.1100   68.7970 C   0  0  0  0  0  0  0  0  0  0  0  0
    4.2920   70.9640   69.5470 C   0  0  0  0  0  0  0  0  0  0  0  0
    5.7040   70.4610   69.2840 C   0  0  0  0  0  0  0  0  0  0  0  0
    6.0260   70.5770   67.7990 C   0  0  0  0  0  0  0  0  0  0  0  0
    4.9490   70.0130   66.9090 C   0  0  0  0  0  0  0  0  0  0  0  0
    5.3300   69.7570   65.6360 N   0  0  0  0  0  0  0  0  0  0  0  0
    4.4310   69.2850   64.7640 C   0  0  0  0  0  0  0  0  0  0  0  0
    3.0890   69.0290   65.1070 C   0  0  0  0  0  0  0  0  0  0  0  0
    2.2260   68.5100   64.1050 C   0  0  0  0  0  0  0  0  0  0  0  0
    2.6820   68.2620   62.8100 C   0  0  0  0  0  0  0  0  0  0  0  0
    4.0040   68.5240   62.4900 C   0  0  0  0  0  0  0  0  0  0  0  0
    4.8600   69.0300   63.4690 C   0  0  0  0  0  0  0  0  0  0  0  0
    1.3799   64.0872   69.3602 H   0  0  0  0  0  0  0  0  0  0  0  0
    3.6744   65.0146   70.5304 H   0  0  0  0  0  0  0  0  0  0  0  0
    2.9200   63.7875   71.6638 H   0  0  0  0  0  0  0  0  0  0  0  0
    4.6392   62.9281   69.9476 H   0  0  0  0  0  0  0  0  0  0  0  0
    3.0625   62.0646   70.0992 H   0  0  0  0  0  0  0  0  0  0  0  0
    2.5426   63.8528   68.3080 H   0  0  0  0  0  0  0  0  0  0  0  0
   -0.1067   65.0566   71.4458 H   0  0  0  0  0  0  0  0  0  0  0  0
   -0.1222   63.4213   70.6505 H   0  0  0  0  0  0  0  0  0  0  0  0
    1.6037   62.6302   72.1730 H   0  0  0  0  0  0  0  0  0  0  0  0
    1.6717   64.2741   72.9494 H   0  0  0  0  0  0  0  0  0  0  0  0
    0.3664   62.8450   74.3909 H   0  0  0  0  0  0  0  0  0  0  0  0
   -0.7587   63.9813   73.5807 H   0  0  0  0  0  0  0  0  0  0  0  0
   -1.3964   62.1799   72.0383 H   0  0  0  0  0  0  0  0  0  0  0  0
    1.2512   60.4784   71.5401 H   0  0  0  0  0  0  0  0  0  0  0  0
    2.1708   60.6136   73.1257 H   0  0  0  0  0  0  0  0  0  0  0  0
    1.7853   58.1351   71.4148 H   0  0  0  0  0  0  0  0  0  0  0  0
    3.3109   59.0214   71.7577 H   0  0  0  0  0  0  0  0  0  0  0  0
    3.1504   57.0354   73.1965 H   0  0  0  0  0  0  0  0  0  0  0  0
    3.0181   58.5252   74.1892 H   0  0  0  0  0  0  0  0  0  0  0  0
    0.8166   56.6314   73.2883 H   0  0  0  0  0  0  0  0  0  0  0  0
    1.3178   57.1310   74.9779 H   0  0  0  0  0  0  0  0  0  0  0  0
   -3.2298   62.0067   73.5464 H   0  0  0  0  0  0  0  0  0  0  0  0
   -5.2666   61.2117   74.7291 H   0  0  0  0  0  0  0  0  0  0  0  0
   -5.2354   59.0034   75.8896 H   0  0  0  0  0  0  0  0  0  0  0  0
   -3.1914   57.6000   75.8055 H   0  0  0  0  0  0  0  0  0  0  0  0
    1.8672   66.6726   70.7184 H   0  0  0  0  0  0  0  0  0  0  0  0
    2.2047   66.2313   68.9895 H   0  0  0  0  0  0  0  0  0  0  0  0
   -0.5011   65.6259   69.3770 H   0  0  0  0  0  0  0  0  0  0  0  0
   -0.2055   67.2255   70.2246 H   0  0  0  0  0  0  0  0  0  0  0  0
   -0.4432   66.6287   67.3805 H   0  0  0  0  0  0  0  0  0  0  0  0
   -0.4888   68.2054   68.2917 H   0  0  0  0  0  0  0  0  0  0  0  0
    2.1652   67.6633   68.4007 H   0  0  0  0  0  0  0  0  0  0  0  0
    1.7453   66.8979   66.8242 H   0  0  0  0  0  0  0  0  0  0  0  0
    0.5548   69.5542   66.8586 H   0  0  0  0  0  0  0  0  0  0  0  0
    2.3076   70.6390   68.8029 H   0  0  0  0  0  0  0  0  0  0  0  0
    3.2281   69.1405   69.3149 H   0  0  0  0  0  0  0  0  0  0  0  0
    4.2102   72.0072   69.2077 H   0  0  0  0  0  0  0  0  0  0  0  0
    4.0862   70.8990   70.6256 H   0  0  0  0  0  0  0  0  0  0  0  0
    6.4200   71.0647   69.8610 H   0  0  0  0  0  0  0  0  0  0  0  0
    5.7765   69.4068   69.5897 H   0  0  0  0  0  0  0  0  0  0  0  0
    6.1604   71.6407   67.5531 H   0  0  0  0  0  0  0  0  0  0  0  0
    6.9387   69.9906   67.6171 H   0  0  0  0  0  0  0  0  0  0  0  0
    1.1759   68.2992   64.3555 H   0  0  0  0  0  0  0  0  0  0  0  0
    1.9967   67.8613   62.0486 H   0  0  0  0  0  0  0  0  0  0  0  0
    4.3761   68.3347   61.4723 H   0  0  0  0  0  0  0  0  0  0  0  0
    5.9085   69.2333   63.2059 H   0  0  0  0  0  0  0  0  0  0  0  0
  2  1  1  0
  3  2  1  0
  4  3  1  0
  5  1  1  0
  6  5  1  0
  7  6  1  0
  8  7  1  0
  9  8  1  0
 10  9  1  0
 11 10  1  0
 12 11  1  0
 13 12  1  0
 14 13  1  0
 15 10  2  0
 15 14  1  0
 16 15  1  0
 17 16  2  0
 18 17  1  0
 18  9  2  0
 19 18  1  0
 20 19  2  0
 21 20  1  0
 22 21  2  0
 22 17  1  0
 23  1  1  0
 24 23  1  0
 25 24  1  0
 26 25  1  0
 27 26  1  0
 28 27  1  0
 29 28  1  0
 30 29  1  0
 31 30  1  0
 32 31  1  0
 33 32  1  0
 34 33  1  0
 34 29  2  0
 35 34  1  0
 36 35  2  0
 37 36  1  0
 37 28  2  0
 38 37  1  0
 39 38  2  0
 40 39  1  0
 41 40  2  0
 41 36  1  0
  1 42  1  6
  2 43  1  0
  2 44  1  0
  3 45  1  0
  3 46  1  0
  4 47  1  0
  5 48  1  0
  5 49  1  0
  6 50  1  0
  6 51  1  0
  7 52  1  0
  7 53  1  0
  8 54  1  0
 11 55  1  0
 11 56  1  0
 12 57  1  0
 12 58  1  0
 13 59  1  0
 13 60  1  0
 14 61  1  0
 14 62  1  0
 19 63  1  0
 20 64  1  0
 21 65  1  0
 22 66  1  0
 23 67  1  0
 23 68  1  0
 24 69  1  0
 24 70  1  0
 25 71  1  0
 25 72  1  0
 26 73  1  0
 26 74  1  0
 27 75  1  0
 30 76  1  0
 30 77  1  0
 31 78  1  0
 31 79  1  0
 32 80  1  0
 32 81  1  0
 33 82  1  0
 33 83  1  0
 38 84  1  0
 39 85  1  0
 40 86  1  0
 41 87  1  0
M  CHG  1   1   1
M  END
>  <score>  (9) 
-11.052

$$$$
