=
     RDKit          3D

 78 77  0  0  0  0  0  0  0  0999 V2000
    0.4010   63.5140   70.7530 C   0  0  0  0  0  0  0  0  0  0  0  0
    1.2110   64.7870   70.4910 C   0  0  0  0  0  0  0  0  0  0  0  0
    0.4020   66.0080   70.0430 C   0  0  0  0  0  0  0  0  0  0  0  0
    1.2410   67.0560   69.3070 C   0  0  0  0  0  0  0  0  0  0  0  0
    0.4680   67.6580   68.1340 C   0  0  0  0  0  0  0  0  0  0  0  0
   -0.9700   67.1450   67.9990 C   0  0  0  0  0  0  0  0  0  0  0  0
   -1.7780   67.7950   66.8730 C   0  0  0  0  0  0  0  0  0  0  0  0
   -0.9830   68.8350   66.0860 C   0  0  0  0  0  0  0  0  0  0  0  0
   -1.2420   68.6850   64.6800 O   0  0  0  0  0  0  0  0  0  0  0  0
   -0.1490   68.6290   63.8810 C   0  0  0  0  0  0  0  0  0  0  0  0
   -0.1510   68.3420   62.6940 O   0  0  0  0  0  0  0  0  0  0  0  0
    0.9540   68.9210   64.6250 N   0  0  0  0  0  0  0  0  0  0  0  0
    2.2870   68.7180   64.1100 C   0  0  0  0  0  0  0  0  0  0  0  0
    3.0970   67.7280   64.9450 C   0  0  0  0  0  0  0  0  0  0  0  0
    2.3930   66.4020   65.2510 C   0  0  0  0  0  0  0  0  0  0  0  0
    3.0740   65.1920   64.6300 C   0  0  0  0  0  0  0  0  0  0  0  0
    0.5100   62.9400   72.1690 C   0  0  0  0  0  0  0  0  0  0  0  0
    0.9320   61.4690   72.2660 C   0  0  0  0  0  0  0  0  0  0  0  0
   -0.1400   60.5680   72.8770 C   0  0  0  0  0  0  0  0  0  0  0  0
    0.4090   59.2940   73.5300 C   0  0  0  0  0  0  0  0  0  0  0  0
    1.5550   59.5240   74.5180 C   0  0  0  0  0  0  0  0  0  0  0  0
    2.7610   58.6240   74.2590 C   0  0  0  0  0  0  0  0  0  0  0  0
    3.9220   59.4270   73.9920 O   0  0  0  0  0  0  0  0  0  0  0  0
    4.9270   60.7910   72.5740 N   0  0  0  0  0  0  0  0  0  0  0  0
    4.1900   59.6520   72.6830 C   0  0  0  0  0  0  0  0  0  0  0  0
    3.8390   58.9440   71.7520 O   0  0  0  0  0  0  0  0  0  0  0  0
    5.4710   61.2580   71.3220 C   0  0  0  0  0  0  0  0  0  0  0  0
    4.6660   62.4110   70.7230 C   0  0  0  0  0  0  0  0  0  0  0  0
    3.6980   62.8530   68.4370 C   0  0  0  0  0  0  0  0  0  0  0  0
    3.6750   61.9420   69.6550 C   0  0  0  0  0  0  0  0  0  0  0  0
   -0.6580   63.7410   70.5604 H   0  0  0  0  0  0  0  0  0  0  0  0
    0.8202   62.7476   70.0845 H   0  0  0  0  0  0  0  0  0  0  0  0
    1.7352   65.0516   71.4212 H   0  0  0  0  0  0  0  0  0  0  0  0
    1.8826   64.5482   69.6532 H   0  0  0  0  0  0  0  0  0  0  0  0
   -0.3994   65.6678   69.3706 H   0  0  0  0  0  0  0  0  0  0  0  0
    0.0071   66.4871   70.9510 H   0  0  0  0  0  0  0  0  0  0  0  0
    1.5095   67.8587   70.0096 H   0  0  0  0  0  0  0  0  0  0  0  0
    2.1443   66.5662   68.9144 H   0  0  0  0  0  0  0  0  0  0  0  0
    0.4337   68.7493   68.2674 H   0  0  0  0  0  0  0  0  0  0  0  0
    0.9981   67.3566   67.2185 H   0  0  0  0  0  0  0  0  0  0  0  0
   -0.9312   66.0618   67.8116 H   0  0  0  0  0  0  0  0  0  0  0  0
   -1.4816   67.4038   68.9378 H   0  0  0  0  0  0  0  0  0  0  0  0
   -2.1069   67.0075   66.1789 H   0  0  0  0  0  0  0  0  0  0  0  0
   -2.6275   68.3161   67.3385 H   0  0  0  0  0  0  0  0  0  0  0  0
   -1.2831   69.8434   66.4069 H   0  0  0  0  0  0  0  0  0  0  0  0
    0.0909   68.6899   66.2747 H   0  0  0  0  0  0  0  0  0  0  0  0
    0.8340   69.2953   65.5771 H   0  0  0  0  0  0  0  0  0  0  0  0
    2.2124   68.3331   63.0822 H   0  0  0  0  0  0  0  0  0  0  0  0
    2.8078   69.6863   64.1449 H   0  0  0  0  0  0  0  0  0  0  0  0
    4.0251   67.5023   64.3993 H   0  0  0  0  0  0  0  0  0  0  0  0
    3.2654   68.2151   65.9168 H   0  0  0  0  0  0  0  0  0  0  0  0
    2.3688   66.2652   66.3422 H   0  0  0  0  0  0  0  0  0  0  0  0
    1.3855   66.4640   64.8139 H   0  0  0  0  0  0  0  0  0  0  0  0
    3.4458   64.5313   65.4270 H   0  0  0  0  0  0  0  0  0  0  0  0
    2.3516   64.6443   64.0069 H   0  0  0  0  0  0  0  0  0  0  0  0
    3.9170   65.5253   64.0069 H   0  0  0  0  0  0  0  0  0  0  0  0
    1.2499   63.5396   72.7195 H   0  0  0  0  0  0  0  0  0  0  0  0
   -0.5064   62.9857   72.5872 H   0  0  0  0  0  0  0  0  0  0  0  0
    1.1583   61.1039   71.2533 H   0  0  0  0  0  0  0  0  0  0  0  0
    1.8083   61.4262   72.9296 H   0  0  0  0  0  0  0  0  0  0  0  0
   -0.6792   61.1440   73.6435 H   0  0  0  0  0  0  0  0  0  0  0  0
   -0.7908   60.2453   72.0510 H   0  0  0  0  0  0  0  0  0  0  0  0
   -0.4147   58.8031   74.0691 H   0  0  0  0  0  0  0  0  0  0  0  0
    0.8201   58.6799   72.7152 H   0  0  0  0  0  0  0  0  0  0  0  0
    1.8781   60.5726   74.4409 H   0  0  0  0  0  0  0  0  0  0  0  0
    1.1754   59.2818   75.5216 H   0  0  0  0  0  0  0  0  0  0  0  0
    2.9461   57.9983   75.1446 H   0  0  0  0  0  0  0  0  0  0  0  0
    2.5551   57.9842   73.3882 H   0  0  0  0  0  0  0  0  0  0  0  0
    5.1045   61.3448   73.4241 H   0  0  0  0  0  0  0  0  0  0  0  0
    6.5025   61.6000   71.4922 H   0  0  0  0  0  0  0  0  0  0  0  0
    5.4326   60.4205   70.6099 H   0  0  0  0  0  0  0  0  0  0  0  0
    4.1065   62.9070   71.5298 H   0  0  0  0  0  0  0  0  0  0  0  0
    5.3760   63.0989   70.2407 H   0  0  0  0  0  0  0  0  0  0  0  0
    3.7245   63.9027   68.7647 H   0  0  0  0  0  0  0  0  0  0  0  0
    4.5909   62.6349   67.8328 H   0  0  0  0  0  0  0  0  0  0  0  0
    2.7952   62.6802   67.8328 H   0  0  0  0  0  0  0  0  0  0  0  0
    2.6615   61.9420   70.0827 H   0  0  0  0  0  0  0  0  0  0  0  0
    3.9642   60.9300   69.3354 H   0  0  0  0  0  0  0  0  0  0  0  0
  2  1  1  0
  3  2  1  0
  4  3  1  0
  5  4  1  0
  6  5  1  0
  7  6  1  0
  8  7  1  0
  9  8  1  0
 10  9  1  0
 11 10  2  0
 12 10  1  0
 13 12  1  0
 14 13  1  0
 15 14  1  0
 16 15  1  0
 17  1  1  0
 18 17  1  0
 19 18  1  0
 20 19  1  0
 21 20  1  0
 22 21  1  0
 23 22  1  0
 25 23  1  0
 25 24  1  0
 26 25  2  0
 27 24  1  0
 28 27  1  0
 30 29  1  0
 30 28  1  0
  1 31  1  0
  1 32  1  0
  2 33  1  0
  2 34  1  0
  3 35  1  0
  3 36  1  0
  4 37  1  0
  4 38  1  0
  5 39  1  0
  5 40  1  0
  6 41  1  0
  6 42  1  0
  7 43  1  0
  7 44  1  0
  8 45  1  0
  8 46  1  0
 12 47  1  0
 13 48  1  0
 13 49  1  0
 14 50  1  0
 14 51  1  0
 15 52  1  0
 15 53  1  0
 16 54  1  0
 16 55  1  0
 16 56  1  0
 17 57  1  0
 17 58  1  0
 18 59  1  0
 18 60  1  0
 19 61  1  0
 19 62  1  0
 20 63  1  0
 20 64  1  0
 21 65  1  0
 21 66  1  0
 22 67  1  0
 22 68  1  0
 24 69  1  0
 27 70  1  0
 27 71  1  0
 28 72  1  0
 28 73  1  0
 29 74  1  0
 29 75  1  0
 29 76  1  0
 30 77  1  0
 30 78  1  0
M  END
>  <score>  (1) 
-6.901

$$$$
=
     RDKit          3D

 78 77  0  0  0  0  0  0  0  0999 V2000
    1.7680   64.0620   70.5950 C   0  0  0  0  0  0  0  0  0  0  0  0
    0.3330   64.5590   70.8000 C   0  0  0  0  0  0  0  0  0  0  0  0
    0.1150   66.0610   70.5970 C   0  0  0  0  0  0  0  0  0  0  0  0
    1.1880   66.7170   69.7230 C   0  0  0  0  0  0  0  0  0  0  0  0
    0.5880   67.2530   68.4230 C   0  0  0  0  0  0  0  0  0  0  0  0
   -0.8840   66.8840   68.2100 C   0  0  0  0  0  0  0  0  0  0  0  0
   -1.5700   67.6270   67.0610 C   0  0  0  0  0  0  0  0  0  0  0  0
   -0.7030   68.7290   66.4550 C   0  0  0  0  0  0  0  0  0  0  0  0
   -0.9030   68.7800   65.0330 O   0  0  0  0  0  0  0  0  0  0  0  0
    0.1350   68.3540   64.2740 C   0  0  0  0  0  0  0  0  0  0  0  0
    0.0970   68.1360   63.0740 O   0  0  0  0  0  0  0  0  0  0  0  0
    1.2240   68.1850   65.0760 N   0  0  0  0  0  0  0  0  0  0  0  0
    2.4160   67.5230   64.6020 C   0  0  0  0  0  0  0  0  0  0  0  0
    2.3240   66.0010   64.7030 C   0  0  0  0  0  0  0  0  0  0  0  0
    3.5990   65.2420   64.3230 C   0  0  0  0  0  0  0  0  0  0  0  0
    3.7560   63.9140   65.0460 C   0  0  0  0  0  0  0  0  0  0  0  0
    1.9080   62.5900   70.1970 C   0  0  0  0  0  0  0  0  0  0  0  0
    3.0070   62.2750   69.1750 C   0  0  0  0  0  0  0  0  0  0  0  0
    4.2760   63.1030   69.3720 C   0  0  0  0  0  0  0  0  0  0  0  0
    4.9270   62.9350   70.7500 C   0  0  0  0  0  0  0  0  0  0  0  0
    5.3370   61.5010   71.0940 C   0  0  0  0  0  0  0  0  0  0  0  0
    4.9210   61.0790   72.5020 C   0  0  0  0  0  0  0  0  0  0  0  0
    4.5540   59.6900   72.5060 O   0  0  0  0  0  0  0  0  0  0  0  0
    2.6020   60.2150   73.3960 N   0  0  0  0  0  0  0  0  0  0  0  0
    3.2240   59.4350   72.4700 C   0  0  0  0  0  0  0  0  0  0  0  0
    2.6700   58.6450   71.7220 O   0  0  0  0  0  0  0  0  0  0  0  0
    1.1670   60.2650   73.5430 C   0  0  0  0  0  0  0  0  0  0  0  0
    0.6100   61.6830   73.4150 C   0  0  0  0  0  0  0  0  0  0  0  0
    0.7840   63.8350   74.7150 C   0  0  0  0  0  0  0  0  0  0  0  0
    1.5540   62.7380   73.9960 C   0  0  0  0  0  0  0  0  0  0  0  0
    2.2275   64.6718   69.8032 H   0  0  0  0  0  0  0  0  0  0  0  0
    2.2621   64.1575   71.5731 H   0  0  0  0  0  0  0  0  0  0  0  0
   -0.3145   64.0245   70.0894 H   0  0  0  0  0  0  0  0  0  0  0  0
    0.0953   64.3616   71.8557 H   0  0  0  0  0  0  0  0  0  0  0  0
   -0.8641   66.2100   70.1183 H   0  0  0  0  0  0  0  0  0  0  0  0
    0.1685   66.5345   71.5884 H   0  0  0  0  0  0  0  0  0  0  0  0
    1.6438   67.5499   70.2784 H   0  0  0  0  0  0  0  0  0  0  0  0
    1.9449   65.9593   69.4718 H   0  0  0  0  0  0  0  0  0  0  0  0
    0.6707   68.3499   68.4317 H   0  0  0  0  0  0  0  0  0  0  0  0
    1.1518   66.7889   67.6004 H   0  0  0  0  0  0  0  0  0  0  0  0
   -0.9402   65.8052   68.0024 H   0  0  0  0  0  0  0  0  0  0  0  0
   -1.4135   67.1761   69.1288 H   0  0  0  0  0  0  0  0  0  0  0  0
   -1.8148   66.9009   66.2718 H   0  0  0  0  0  0  0  0  0  0  0  0
   -2.4694   68.1079   67.4732 H   0  0  0  0  0  0  0  0  0  0  0  0
   -0.9807   69.6969   66.8977 H   0  0  0  0  0  0  0  0  0  0  0  0
    0.3553   68.5150   66.6652 H   0  0  0  0  0  0  0  0  0  0  0  0
    1.1958   68.5380   66.0432 H   0  0  0  0  0  0  0  0  0  0  0  0
    2.5757   67.7969   63.5487 H   0  0  0  0  0  0  0  0  0  0  0  0
    3.2525   67.8486   65.2378 H   0  0  0  0  0  0  0  0  0  0  0  0
    2.0724   65.7439   65.7425 H   0  0  0  0  0  0  0  0  0  0  0  0
    1.5584   65.6934   63.9755 H   0  0  0  0  0  0  0  0  0  0  0  0
    3.5785   65.0481   63.2404 H   0  0  0  0  0  0  0  0  0  0  0  0
    4.4500   65.8728   64.6194 H   0  0  0  0  0  0  0  0  0  0  0  0
    3.7360   64.0835   66.1327 H   0  0  0  0  0  0  0  0  0  0  0  0
    2.9309   63.2433   64.7642 H   0  0  0  0  0  0  0  0  0  0  0  0
    4.7148   63.4542   64.7642 H   0  0  0  0  0  0  0  0  0  0  0  0
    2.1202   62.0128   71.1090 H   0  0  0  0  0  0  0  0  0  0  0  0
    0.9601   62.3222   69.7074 H   0  0  0  0  0  0  0  0  0  0  0  0
    3.2688   61.2101   69.2619 H   0  0  0  0  0  0  0  0  0  0  0  0
    2.6072   62.5259   68.1814 H   0  0  0  0  0  0  0  0  0  0  0  0
    5.0064   62.8028   68.6062 H   0  0  0  0  0  0  0  0  0  0  0  0
    3.9811   64.1594   69.2878 H   0  0  0  0  0  0  0  0  0  0  0  0
    5.8275   63.5658   70.7825 H   0  0  0  0  0  0  0  0  0  0  0  0
    4.1670   63.2264   71.4899 H   0  0  0  0  0  0  0  0  0  0  0  0
    4.8656   60.8193   70.3708 H   0  0  0  0  0  0  0  0  0  0  0  0
    6.4351   61.4547   71.0492 H   0  0  0  0  0  0  0  0  0  0  0  0
    5.7617   61.2364   73.1936 H   0  0  0  0  0  0  0  0  0  0  0  0
    4.0592   61.6830   72.8221 H   0  0  0  0  0  0  0  0  0  0  0  0
    3.1811   60.7953   74.0195 H   0  0  0  0  0  0  0  0  0  0  0  0
    0.7113   59.6362   72.7639 H   0  0  0  0  0  0  0  0  0  0  0  0
    0.9235   59.9022   74.5525 H   0  0  0  0  0  0  0  0  0  0  0  0
    0.4476   61.9034   72.3496 H   0  0  0  0  0  0  0  0  0  0  0  0
   -0.3300   61.7256   73.9847 H   0  0  0  0  0  0  0  0  0  0  0  0
    0.8800   63.6982   75.8022 H   0  0  0  0  0  0  0  0  0  0  0  0
    1.1927   64.8161   74.4314 H   0  0  0  0  0  0  0  0  0  0  0  0
   -0.2776   63.7841   74.4314 H   0  0  0  0  0  0  0  0  0  0  0  0
    2.1364   63.1867   73.1778 H   0  0  0  0  0  0  0  0  0  0  0  0
    2.2173   62.2467   74.7231 H   0  0  0  0  0  0  0  0  0  0  0  0
  2  1  1  0
  3  2  1  0
  4  3  1  0
  5  4  1  0
  6  5  1  0
  7  6  1  0
  8  7  1  0
  9  8  1  0
 10  9  1  0
 11 10  2  0
 12 10  1  0
 13 12  1  0
 14 13  1  0
 15 14  1  0
 16 15  1  0
 17  1  1  0
 18 17  1  0
 19 18  1  0
 20 19  1  0
 21 20  1  0
 22 21  1  0
 23 22  1  0
 25 23  1  0
 25 24  1  0
 26 25  2  0
 27 24  1  0
 28 27  1  0
 30 29  1  0
 30 28  1  0
  1 31  1  0
  1 32  1  0
  2 33  1  0
  2 34  1  0
  3 35  1  0
  3 36  1  0
  4 37  1  0
  4 38  1  0
  5 39  1  0
  5 40  1  0
  6 41  1  0
  6 42  1  0
  7 43  1  0
  7 44  1  0
  8 45  1  0
  8 46  1  0
 12 47  1  0
 13 48  1  0
 13 49  1  0
 14 50  1  0
 14 51  1  0
 15 52  1  0
 15 53  1  0
 16 54  1  0
 16 55  1  0
 16 56  1  0
 17 57  1  0
 17 58  1  0
 18 59  1  0
 18 60  1  0
 19 61  1  0
 19 62  1  0
 20 63  1  0
 20 64  1  0
 21 65  1  0
 21 66  1  0
 22 67  1  0
 22 68  1  0
 24 69  1  0
 27 70  1  0
 27 71  1  0
 28 72  1  0
 28 73  1  0
 29 74  1  0
 29 75  1  0
 29 76  1  0
 30 77  1  0
 30 78  1  0
M  END
>  <score>  (2) 
-6.786

$$$$
=
     RDKit          3D

 78 77  0  0  0  0  0  0  0  0999 V2000
    2.4620   62.4560   69.8430 C   0  0  0  0  0  0  0  0  0  0  0  0
    3.6000   63.4720   69.7020 C   0  0  0  0  0  0  0  0  0  0  0  0
    4.8320   63.2150   70.5740 C   0  0  0  0  0  0  0  0  0  0  0  0
    5.0850   61.7290   70.8430 C   0  0  0  0  0  0  0  0  0  0  0  0
    4.9940   61.4150   72.3360 C   0  0  0  0  0  0  0  0  0  0  0  0
    4.5220   59.9910   72.6520 C   0  0  0  0  0  0  0  0  0  0  0  0
    3.4170   59.4640   71.7330 C   0  0  0  0  0  0  0  0  0  0  0  0
    2.1620   59.0310   72.4900 C   0  0  0  0  0  0  0  0  0  0  0  0
    2.4640   58.8820   73.8870 O   0  0  0  0  0  0  0  0  0  0  0  0
    1.5980   59.4740   74.7450 C   0  0  0  0  0  0  0  0  0  0  0  0
    0.6200   58.9440   75.2470 O   0  0  0  0  0  0  0  0  0  0  0  0
    1.9860   60.7660   74.9360 N   0  0  0  0  0  0  0  0  0  0  0  0
    1.1370   61.7160   75.6160 C   0  0  0  0  0  0  0  0  0  0  0  0
    0.2270   62.4830   74.6570 C   0  0  0  0  0  0  0  0  0  0  0  0
    0.4770   63.9930   74.5860 C   0  0  0  0  0  0  0  0  0  0  0  0
    1.1910   64.5520   75.8070 C   0  0  0  0  0  0  0  0  0  0  0  0
    1.5270   62.6710   71.0370 C   0  0  0  0  0  0  0  0  0  0  0  0
    0.2660   63.4980   70.7590 C   0  0  0  0  0  0  0  0  0  0  0  0
    0.4350   64.9860   71.0650 C   0  0  0  0  0  0  0  0  0  0  0  0
    0.0160   65.9140   69.9190 C   0  0  0  0  0  0  0  0  0  0  0  0
    1.1130   66.8600   69.4260 C   0  0  0  0  0  0  0  0  0  0  0  0
    0.6600   67.7590   68.2780 C   0  0  0  0  0  0  0  0  0  0  0  0
    0.6740   67.0220   67.0450 O   0  0  0  0  0  0  0  0  0  0  0  0
    2.1420   68.5450   66.4110 N   0  0  0  0  0  0  0  0  0  0  0  0
    1.7310   67.2600   66.2320 C   0  0  0  0  0  0  0  0  0  0  0  0
    2.2410   66.4520   65.4720 O   0  0  0  0  0  0  0  0  0  0  0  0
    3.3160   69.0900   65.7710 C   0  0  0  0  0  0  0  0  0  0  0  0
    4.2590   69.7800   66.7570 C   0  0  0  0  0  0  0  0  0  0  0  0
    6.6330   70.4400   67.2860 C   0  0  0  0  0  0  0  0  0  0  0  0
    5.7000   69.8380   66.2460 C   0  0  0  0  0  0  0  0  0  0  0  0
    1.8554   62.4979   68.9263 H   0  0  0  0  0  0  0  0  0  0  0  0
    2.9465   61.4830   70.0116 H   0  0  0  0  0  0  0  0  0  0  0  0
    3.9242   63.4725   68.6509 H   0  0  0  0  0  0  0  0  0  0  0  0
    3.1873   64.4332   70.0423 H   0  0  0  0  0  0  0  0  0  0  0  0
    5.7132   63.6325   70.0649 H   0  0  0  0  0  0  0  0  0  0  0  0
    4.6485   63.6953   71.5465 H   0  0  0  0  0  0  0  0  0  0  0  0
    4.3330   61.1336   70.3045 H   0  0  0  0  0  0  0  0  0  0  0  0
    6.0983   61.4794   70.4954 H   0  0  0  0  0  0  0  0  0  0  0  0
    5.9912   61.5540   72.7790 H   0  0  0  0  0  0  0  0  0  0  0  0
    4.2412   62.0978   72.7569 H   0  0  0  0  0  0  0  0  0  0  0  0
    5.3873   59.3169   72.5687 H   0  0  0  0  0  0  0  0  0  0  0  0
    4.0942   60.0234   73.6649 H   0  0  0  0  0  0  0  0  0  0  0  0
    3.1416   60.2596   71.0251 H   0  0  0  0  0  0  0  0  0  0  0  0
    3.8134   58.5751   71.2205 H   0  0  0  0  0  0  0  0  0  0  0  0
    1.3787   59.7931   72.3649 H   0  0  0  0  0  0  0  0  0  0  0  0
    1.8099   58.0689   72.0896 H   0  0  0  0  0  0  0  0  0  0  0  0
    2.9056   61.0721   74.5875 H   0  0  0  0  0  0  0  0  0  0  0  0
    0.5098   61.1736   76.3388 H   0  0  0  0  0  0  0  0  0  0  0  0
    1.7891   62.4486   76.1140 H   0  0  0  0  0  0  0  0  0  0  0  0
    0.3681   62.0671   73.6485 H   0  0  0  0  0  0  0  0  0  0  0  0
   -0.7954   62.3612   75.0441 H   0  0  0  0  0  0  0  0  0  0  0  0
    1.0918   64.2020   73.6981 H   0  0  0  0  0  0  0  0  0  0  0  0
   -0.5080   64.4803   74.5382 H   0  0  0  0  0  0  0  0  0  0  0  0
    0.7076   64.1735   76.7197 H   0  0  0  0  0  0  0  0  0  0  0  0
    2.2446   64.2362   75.7922 H   0  0  0  0  0  0  0  0  0  0  0  0
    1.1373   65.6506   75.7922 H   0  0  0  0  0  0  0  0  0  0  0  0
    1.2087   61.6820   71.3983 H   0  0  0  0  0  0  0  0  0  0  0  0
    2.1078   63.2505   71.7697 H   0  0  0  0  0  0  0  0  0  0  0  0
    0.0046   63.3883   69.6962 H   0  0  0  0  0  0  0  0  0  0  0  0
   -0.5240   63.1180   71.4234 H   0  0  0  0  0  0  0  0  0  0  0  0
   -0.1764   65.2286   71.9467 H   0  0  0  0  0  0  0  0  0  0  0  0
    1.5091   65.1547   71.2322 H   0  0  0  0  0  0  0  0  0  0  0  0
   -0.3032   65.2891   69.0719 H   0  0  0  0  0  0  0  0  0  0  0  0
   -0.7881   66.5517   70.3150 H   0  0  0  0  0  0  0  0  0  0  0  0
    1.4287   67.4970   70.2654 H   0  0  0  0  0  0  0  0  0  0  0  0
    1.9368   66.2368   69.0480 H   0  0  0  0  0  0  0  0  0  0  0  0
   -0.3606   68.1180   68.4768 H   0  0  0  0  0  0  0  0  0  0  0  0
    1.3459   68.6150   68.1960 H   0  0  0  0  0  0  0  0  0  0  0  0
    1.5910   69.1560   67.0307 H   0  0  0  0  0  0  0  0  0  0  0  0
    3.8602   68.2710   65.2780 H   0  0  0  0  0  0  0  0  0  0  0  0
    2.9789   69.8475   65.0482 H   0  0  0  0  0  0  0  0  0  0  0  0
    3.9029   70.8070   66.9260 H   0  0  0  0  0  0  0  0  0  0  0  0
    4.2575   69.1934   67.6875 H   0  0  0  0  0  0  0  0  0  0  0  0
    6.2621   70.2007   68.2936 H   0  0  0  0  0  0  0  0  0  0  0  0
    7.6427   70.0226   67.1582 H   0  0  0  0  0  0  0  0  0  0  0  0
    6.6688   71.5320   67.1582 H   0  0  0  0  0  0  0  0  0  0  0  0
    5.7326   70.4549   65.3359 H   0  0  0  0  0  0  0  0  0  0  0  0
    6.0339   68.8117   66.0335 H   0  0  0  0  0  0  0  0  0  0  0  0
  2  1  1  0
  3  2  1  0
  4  3  1  0
  5  4  1  0
  6  5  1  0
  7  6  1  0
  8  7  1  0
  9  8  1  0
 10  9  1  0
 11 10  2  0
 12 10  1  0
 13 12  1  0
 14 13  1  0
 15 14  1  0
 16 15  1  0
 17  1  1  0
 18 17  1  0
 19 18  1  0
 20 19  1  0
 21 20  1  0
 22 21  1  0
 23 22  1  0
 25 23  1  0
 25 24  1  0
 26 25  2  0
 27 24  1  0
 28 27  1  0
 30 29  1  0
 30 28  1  0
  1 31  1  0
  1 32  1  0
  2 33  1  0
  2 34  1  0
  3 35  1  0
  3 36  1  0
  4 37  1  0
  4 38  1  0
  5 39  1  0
  5 40  1  0
  6 41  1  0
  6 42  1  0
  7 43  1  0
  7 44  1  0
  8 45  1  0
  8 46  1  0
 12 47  1  0
 13 48  1  0
 13 49  1  0
 14 50  1  0
 14 51  1  0
 15 52  1  0
 15 53  1  0
 16 54  1  0
 16 55  1  0
 16 56  1  0
 17 57  1  0
 17 58  1  0
 18 59  1  0
 18 60  1  0
 19 61  1  0
 19 62  1  0
 20 63  1  0
 20 64  1  0
 21 65  1  0
 21 66  1  0
 22 67  1  0
 22 68  1  0
 24 69  1  0
 27 70  1  0
 27 71  1  0
 28 72  1  0
 28 73  1  0
 29 74  1  0
 29 75  1  0
 29 76  1  0
 30 77  1  0
 30 78  1  0
M  END
>  <score>  (3) 
-6.706

$$$$
=
     RDKit          3D

 78 77  0  0  0  0  0  0  0  0999 V2000
    1.5680   63.8140   70.4300 C   0  0  0  0  0  0  0  0  0  0  0  0
    0.5040   64.3890   71.3710 C   0  0  0  0  0  0  0  0  0  0  0  0
    0.0550   65.8220   71.0680 C   0  0  0  0  0  0  0  0  0  0  0  0
    0.4620   66.3040   69.6730 C   0  0  0  0  0  0  0  0  0  0  0  0
   -0.7590   66.4710   68.7690 C   0  0  0  0  0  0  0  0  0  0  0  0
   -0.5580   67.4620   67.6180 C   0  0  0  0  0  0  0  0  0  0  0  0
    0.9020   67.7140   67.2370 C   0  0  0  0  0  0  0  0  0  0  0  0
    1.1310   67.7610   65.7270 C   0  0  0  0  0  0  0  0  0  0  0  0
    1.1950   66.4240   65.2020 O   0  0  0  0  0  0  0  0  0  0  0  0
    2.4090   66.0240   64.7520 C   0  0  0  0  0  0  0  0  0  0  0  0
    2.8070   64.8710   64.7090 O   0  0  0  0  0  0  0  0  0  0  0  0
    3.1220   67.1240   64.3790 N   0  0  0  0  0  0  0  0  0  0  0  0
    4.5310   67.0430   64.0730 C   0  0  0  0  0  0  0  0  0  0  0  0
    5.2200   68.4050   64.1080 C   0  0  0  0  0  0  0  0  0  0  0  0
    4.5780   69.4390   65.0390 C   0  0  0  0  0  0  0  0  0  0  0  0
    5.4650   69.8460   66.2040 C   0  0  0  0  0  0  0  0  0  0  0  0
    2.9690   63.6600   71.0300 C   0  0  0  0  0  0  0  0  0  0  0  0
    4.1060   63.4340   70.0280 C   0  0  0  0  0  0  0  0  0  0  0  0
    3.7560   62.4350   68.9260 C   0  0  0  0  0  0  0  0  0  0  0  0
    4.3550   61.0390   69.1310 C   0  0  0  0  0  0  0  0  0  0  0  0
    3.3480   59.9640   69.5460 C   0  0  0  0  0  0  0  0  0  0  0  0
    3.6630   59.3370   70.9020 C   0  0  0  0  0  0  0  0  0  0  0  0
    4.0270   60.3610   71.8420 O   0  0  0  0  0  0  0  0  0  0  0  0
    1.9270   60.1520   72.4930 N   0  0  0  0  0  0  0  0  0  0  0  0
    3.1750   60.5330   72.8800 C   0  0  0  0  0  0  0  0  0  0  0  0
    3.4770   60.9500   73.9870 O   0  0  0  0  0  0  0  0  0  0  0  0
    0.8030   60.1110   73.3970 C   0  0  0  0  0  0  0  0  0  0  0  0
    0.1720   61.4850   73.6170 C   0  0  0  0  0  0  0  0  0  0  0  0
   -2.1770   60.5950   73.8270 C   0  0  0  0  0  0  0  0  0  0  0  0
   -1.2640   61.5620   73.0910 C   0  0  0  0  0  0  0  0  0  0  0  0
    1.2289   62.8200   70.1029 H   0  0  0  0  0  0  0  0  0  0  0  0
    1.6698   64.5412   69.6109 H   0  0  0  0  0  0  0  0  0  0  0  0
   -0.3816   63.7387   71.3176 H   0  0  0  0  0  0  0  0  0  0  0  0
    0.9711   64.4248   72.3662 H   0  0  0  0  0  0  0  0  0  0  0  0
   -1.0412   65.8681   71.1469 H   0  0  0  0  0  0  0  0  0  0  0  0
    0.5520   66.4792   71.7967 H   0  0  0  0  0  0  0  0  0  0  0  0
    0.9767   67.2719   69.7636 H   0  0  0  0  0  0  0  0  0  0  0  0
    1.1277   65.5518   69.2246 H   0  0  0  0  0  0  0  0  0  0  0  0
   -1.0069   65.4892   68.3394 H   0  0  0  0  0  0  0  0  0  0  0  0
   -1.5648   66.8769   69.3983 H   0  0  0  0  0  0  0  0  0  0  0  0
   -1.0799   67.0691   66.7329 H   0  0  0  0  0  0  0  0  0  0  0  0
   -0.9585   68.4258   67.9653 H   0  0  0  0  0  0  0  0  0  0  0  0
    1.2146   68.6765   67.6681 H   0  0  0  0  0  0  0  0  0  0  0  0
    1.4922   66.8735   67.6309 H   0  0  0  0  0  0  0  0  0  0  0  0
    0.3012   68.3018   65.2485 H   0  0  0  0  0  0  0  0  0  0  0  0
    2.0793   68.2783   65.5195 H   0  0  0  0  0  0  0  0  0  0  0  0
    2.6447   68.0344   64.3138 H   0  0  0  0  0  0  0  0  0  0  0  0
    5.0141   66.3850   64.8103 H   0  0  0  0  0  0  0  0  0  0  0  0
    4.6272   66.6478   63.0510 H   0  0  0  0  0  0  0  0  0  0  0  0
    6.2591   68.2521   64.4348 H   0  0  0  0  0  0  0  0  0  0  0  0
    5.1342   68.8159   63.0912 H   0  0  0  0  0  0  0  0  0  0  0  0
    4.3436   70.3382   64.4503 H   0  0  0  0  0  0  0  0  0  0  0  0
    3.6790   68.9716   65.4673 H   0  0  0  0  0  0  0  0  0  0  0  0
    4.9564   69.6126   67.1510 H   0  0  0  0  0  0  0  0  0  0  0  0
    6.4149   69.2937   66.1521 H   0  0  0  0  0  0  0  0  0  0  0  0
    5.6657   70.9263   66.1521 H   0  0  0  0  0  0  0  0  0  0  0  0
    3.1957   64.5757   71.5958 H   0  0  0  0  0  0  0  0  0  0  0  0
    2.9302   62.7494   71.6459 H   0  0  0  0  0  0  0  0  0  0  0  0
    4.3537   64.3976   69.5589 H   0  0  0  0  0  0  0  0  0  0  0  0
    4.9537   63.0138   70.5891 H   0  0  0  0  0  0  0  0  0  0  0  0
    2.6611   62.3379   68.8833 H   0  0  0  0  0  0  0  0  0  0  0  0
    4.1852   62.8296   67.9932 H   0  0  0  0  0  0  0  0  0  0  0  0
    4.8215   60.7245   68.1858 H   0  0  0  0  0  0  0  0  0  0  0  0
    5.0725   61.1282   69.9600 H   0  0  0  0  0  0  0  0  0  0  0  0
    2.3488   60.4214   69.5958 H   0  0  0  0  0  0  0  0  0  0  0  0
    3.3979   59.1617   68.7951 H   0  0  0  0  0  0  0  0  0  0  0  0
    2.7758   58.8018   71.2712 H   0  0  0  0  0  0  0  0  0  0  0  0
    4.5016   58.6340   70.7897 H   0  0  0  0  0  0  0  0  0  0  0  0
    1.7781   59.8807   71.5106 H   0  0  0  0  0  0  0  0  0  0  0  0
    0.0407   59.4365   72.9801 H   0  0  0  0  0  0  0  0  0  0  0  0
    1.1725   59.7557   74.3703 H   0  0  0  0  0  0  0  0  0  0  0  0
    0.1647   61.7012   74.6955 H   0  0  0  0  0  0  0  0  0  0  0  0
    0.7714   62.2209   73.0610 H   0  0  0  0  0  0  0  0  0  0  0  0
   -2.0525   60.7269   74.9119 H   0  0  0  0  0  0  0  0  0  0  0  0
   -3.2227   60.7957   73.5508 H   0  0  0  0  0  0  0  0  0  0  0  0
   -1.9166   59.5626   73.5508 H   0  0  0  0  0  0  0  0  0  0  0  0
   -1.2667   61.3117   72.0198 H   0  0  0  0  0  0  0  0  0  0  0  0
   -1.6381   62.5835   73.2542 H   0  0  0  0  0  0  0  0  0  0  0  0
  2  1  1  0
  3  2  1  0
  4  3  1  0
  5  4  1  0
  6  5  1  0
  7  6  1  0
  8  7  1  0
  9  8  1  0
 10  9  1  0
 11 10  2  0
 12 10  1  0
 13 12  1  0
 14 13  1  0
 15 14  1  0
 16 15  1  0
 17  1  1  0
 18 17  1  0
 19 18  1  0
 20 19  1  0
 21 20  1  0
 22 21  1  0
 23 22  1  0
 25 23  1  0
 25 24  1  0
 26 25  2  0
 27 24  1  0
 28 27  1  0
 30 29  1  0
 30 28  1  0
  1 31  1  0
  1 32  1  0
  2 33  1  0
  2 34  1  0
  3 35  1  0
  3 36  1  0
  4 37  1  0
  4 38  1  0
  5 39  1  0
  5 40  1  0
  6 41  1  0
  6 42  1  0
  7 43  1  0
  7 44  1  0
  8 45  1  0
  8 46  1  0
 12 47  1  0
 13 48  1  0
 13 49  1  0
 14 50  1  0
 14 51  1  0
 15 52  1  0
 15 53  1  0
 16 54  1  0
 16 55  1  0
 16 56  1  0
 17 57  1  0
 17 58  1  0
 18 59  1  0
 18 60  1  0
 19 61  1  0
 19 62  1  0
 20 63  1  0
 20 64  1  0
 21 65  1  0
 21 66  1  0
 22 67  1  0
 22 68  1  0
 24 69  1  0
 27 70  1  0
 27 71  1  0
 28 72  1  0
 28 73  1  0
 29 74  1  0
 29 75  1  0
 29 76  1  0
 30 77  1  0
 30 78  1  0
M  END
>  <score>  (4) 
-6.676

$$$$
=
     RDKit          3D

 78 77  0  0  0  0  0  0  0  0999 V2000
    0.1960   66.0230   70.4530 C   0  0  0  0  0  0  0  0  0  0  0  0
    1.3310   66.8150   69.7970 C   0  0  0  0  0  0  0  0  0  0  0  0
    1.0670   67.2940   68.3660 C   0  0  0  0  0  0  0  0  0  0  0  0
   -0.4190   67.5070   68.0630 C   0  0  0  0  0  0  0  0  0  0  0  0
   -0.7180   67.2780   66.5810 C   0  0  0  0  0  0  0  0  0  0  0  0
   -0.9490   68.5640   65.7800 C   0  0  0  0  0  0  0  0  0  0  0  0
    0.2350   69.0000   64.9130 C   0  0  0  0  0  0  0  0  0  0  0  0
    1.0540   67.8250   64.3800 C   0  0  0  0  0  0  0  0  0  0  0  0
    2.2440   67.6630   65.1700 O   0  0  0  0  0  0  0  0  0  0  0  0
    3.2580   68.5180   64.8920 C   0  0  0  0  0  0  0  0  0  0  0  0
    3.7260   68.7310   63.7850 O   0  0  0  0  0  0  0  0  0  0  0  0
    3.6850   69.0830   66.0560 N   0  0  0  0  0  0  0  0  0  0  0  0
    4.9000   69.8610   66.1160 C   0  0  0  0  0  0  0  0  0  0  0  0
    5.3920   70.0730   67.5470 C   0  0  0  0  0  0  0  0  0  0  0  0
    6.7920   70.6840   67.6720 C   0  0  0  0  0  0  0  0  0  0  0  0
    7.1900   71.0080   69.1040 C   0  0  0  0  0  0  0  0  0  0  0  0
    0.6140   64.7330   71.1650 C   0  0  0  0  0  0  0  0  0  0  0  0
    0.5630   63.4550   70.3200 C   0  0  0  0  0  0  0  0  0  0  0  0
    1.9180   62.7610   70.1840 C   0  0  0  0  0  0  0  0  0  0  0  0
    3.0930   63.5630   70.7560 C   0  0  0  0  0  0  0  0  0  0  0  0
    4.4670   62.9220   70.5500 C   0  0  0  0  0  0  0  0  0  0  0  0
    4.4350   61.7230   69.6040 C   0  0  0  0  0  0  0  0  0  0  0  0
    4.9690   60.5650   70.2650 O   0  0  0  0  0  0  0  0  0  0  0  0
    4.5990   60.0010   72.3680 N   0  0  0  0  0  0  0  0  0  0  0  0
    4.1170   59.9210   71.0980 C   0  0  0  0  0  0  0  0  0  0  0  0
    3.0800   59.3680   70.7670 O   0  0  0  0  0  0  0  0  0  0  0  0
    3.8750   59.5070   73.5150 C   0  0  0  0  0  0  0  0  0  0  0  0
    3.1910   60.6220   74.3060 C   0  0  0  0  0  0  0  0  0  0  0  0
    1.6210   62.5850   74.1140 C   0  0  0  0  0  0  0  0  0  0  0  0
    1.9910   61.2160   73.5640 C   0  0  0  0  0  0  0  0  0  0  0  0
   -0.2885   66.6764   71.1935 H   0  0  0  0  0  0  0  0  0  0  0  0
   -0.4672   65.7121   69.6323 H   0  0  0  0  0  0  0  0  0  0  0  0
    1.5282   67.7007   70.4188 H   0  0  0  0  0  0  0  0  0  0  0  0
    2.1806   66.1197   69.7282 H   0  0  0  0  0  0  0  0  0  0  0  0
    1.5945   68.2472   68.2140 H   0  0  0  0  0  0  0  0  0  0  0  0
    1.4285   66.5075   67.6872 H   0  0  0  0  0  0  0  0  0  0  0  0
   -1.0125   66.8009   68.6623 H   0  0  0  0  0  0  0  0  0  0  0  0
   -0.6813   68.5450   68.3156 H   0  0  0  0  0  0  0  0  0  0  0  0
    0.1339   66.7429   66.1360 H   0  0  0  0  0  0  0  0  0  0  0  0
   -1.6548   66.7035   66.5330 H   0  0  0  0  0  0  0  0  0  0  0  0
   -1.8159   68.4063   65.1215 H   0  0  0  0  0  0  0  0  0  0  0  0
   -1.1052   69.3651   66.5175 H   0  0  0  0  0  0  0  0  0  0  0  0
   -0.1504   69.5744   64.0577 H   0  0  0  0  0  0  0  0  0  0  0  0
    0.9014   69.6025   65.5478 H   0  0  0  0  0  0  0  0  0  0  0  0
    0.4520   66.9059   64.4338 H   0  0  0  0  0  0  0  0  0  0  0  0
    1.3357   68.0228   63.3352 H   0  0  0  0  0  0  0  0  0  0  0  0
    3.1284   68.9522   66.9127 H   0  0  0  0  0  0  0  0  0  0  0  0
    5.6827   69.3363   65.5485 H   0  0  0  0  0  0  0  0  0  0  0  0
    4.6832   70.8509   65.6882 H   0  0  0  0  0  0  0  0  0  0  0  0
    4.6821   70.7421   68.0553 H   0  0  0  0  0  0  0  0  0  0  0  0
    5.4541   69.0724   67.9998 H   0  0  0  0  0  0  0  0  0  0  0  0
    7.5210   69.9697   67.2617 H   0  0  0  0  0  0  0  0  0  0  0  0
    6.7796   71.6342   67.1180 H   0  0  0  0  0  0  0  0  0  0  0  0
    6.5288   70.4697   69.7991 H   0  0  0  0  0  0  0  0  0  0  0  0
    8.2315   70.6977   69.2742 H   0  0  0  0  0  0  0  0  0  0  0  0
    7.0975   72.0908   69.2742 H   0  0  0  0  0  0  0  0  0  0  0  0
    1.6478   64.8626   71.5179 H   0  0  0  0  0  0  0  0  0  0  0  0
   -0.1203   64.5865   71.9708 H   0  0  0  0  0  0  0  0  0  0  0  0
   -0.1418   62.7539   70.7908 H   0  0  0  0  0  0  0  0  0  0  0  0
    0.2459   63.7479   69.3082 H   0  0  0  0  0  0  0  0  0  0  0  0
    1.8673   61.7978   70.7129 H   0  0  0  0  0  0  0  0  0  0  0  0
    2.1080   62.6450   69.1068 H   0  0  0  0  0  0  0  0  0  0  0  0
    3.1004   64.5512   70.2730 H   0  0  0  0  0  0  0  0  0  0  0  0
    2.9341   63.6130   71.8433 H   0  0  0  0  0  0  0  0  0  0  0  0
    5.1470   63.6790   70.1323 H   0  0  0  0  0  0  0  0  0  0  0  0
    4.8079   62.5567   71.5300 H   0  0  0  0  0  0  0  0  0  0  0  0
    3.3961   61.5241   69.3021 H   0  0  0  0  0  0  0  0  0  0  0  0
    5.0439   61.9461   68.7155 H   0  0  0  0  0  0  0  0  0  0  0  0
    5.5218   60.4334   72.5176 H   0  0  0  0  0  0  0  0  0  0  0  0
    3.1073   58.7994   73.1686 H   0  0  0  0  0  0  0  0  0  0  0  0
    4.6021   59.0232   74.1837 H   0  0  0  0  0  0  0  0  0  0  0  0
    2.8444   60.2119   75.2660 H   0  0  0  0  0  0  0  0  0  0  0  0
    3.9258   61.4275   74.4519 H   0  0  0  0  0  0  0  0  0  0  0  0
    1.6297   62.5530   75.2135 H   0  0  0  0  0  0  0  0  0  0  0  0
    2.3499   63.3304   73.7631 H   0  0  0  0  0  0  0  0  0  0  0  0
    0.6158   62.8617   73.7631 H   0  0  0  0  0  0  0  0  0  0  0  0
    1.1303   60.5404   73.6767 H   0  0  0  0  0  0  0  0  0  0  0  0
    2.2612   61.3302   72.5038 H   0  0  0  0  0  0  0  0  0  0  0  0
  2  1  1  0
  3  2  1  0
  4  3  1  0
  5  4  1  0
  6  5  1  0
  7  6  1  0
  8  7  1  0
  9  8  1  0
 10  9  1  0
 11 10  2  0
 12 10  1  0
 13 12  1  0
 14 13  1  0
 15 14  1  0
 16 15  1  0
 17  1  1  0
 18 17  1  0
 19 18  1  0
 20 19  1  0
 21 20  1  0
 22 21  1  0
 23 22  1  0
 25 23  1  0
 25 24  1  0
 26 25  2  0
 27 24  1  0
 28 27  1  0
 30 29  1  0
 30 28  1  0
  1 31  1  0
  1 32  1  0
  2 33  1  0
  2 34  1  0
  3 35  1  0
  3 36  1  0
  4 37  1  0
  4 38  1  0
  5 39  1  0
  5 40  1  0
  6 41  1  0
  6 42  1  0
  7 43  1  0
  7 44  1  0
  8 45  1  0
  8 46  1  0
 12 47  1  0
 13 48  1  0
 13 49  1  0
 14 50  1  0
 14 51  1  0
 15 52  1  0
 15 53  1  0
 16 54  1  0
 16 55  1  0
 16 56  1  0
 17 57  1  0
 17 58  1  0
 18 59  1  0
 18 60  1  0
 19 61  1  0
 19 62  1  0
 20 63  1  0
 20 64  1  0
 21 65  1  0
 21 66  1  0
 22 67  1  0
 22 68  1  0
 24 69  1  0
 27 70  1  0
 27 71  1  0
 28 72  1  0
 28 73  1  0
 29 74  1  0
 29 75  1  0
 29 76  1  0
 30 77  1  0
 30 78  1  0
M  END
>  <score>  (5) 
-6.661

$$$$
=
     RDKit          3D

 78 77  0  0  0  0  0  0  0  0999 V2000
    0.5030   64.9440   70.6240 C   0  0  0  0  0  0  0  0  0  0  0  0
    1.1390   66.2920   70.2720 C   0  0  0  0  0  0  0  0  0  0  0  0
    0.6880   66.9130   68.9460 C   0  0  0  0  0  0  0  0  0  0  0  0
   -0.7880   66.6620   68.6290 C   0  0  0  0  0  0  0  0  0  0  0  0
   -1.1730   67.2650   67.2780 C   0  0  0  0  0  0  0  0  0  0  0  0
   -0.0870   68.1440   66.6490 C   0  0  0  0  0  0  0  0  0  0  0  0
   -0.4640   68.7600   65.3000 C   0  0  0  0  0  0  0  0  0  0  0  0
    0.6350   68.6210   64.2470 C   0  0  0  0  0  0  0  0  0  0  0  0
    1.8410   68.1410   64.8630 O   0  0  0  0  0  0  0  0  0  0  0  0
    2.9890   68.7370   64.4580 C   0  0  0  0  0  0  0  0  0  0  0  0
    3.2460   69.0830   63.3160 O   0  0  0  0  0  0  0  0  0  0  0  0
    3.8180   68.8650   65.5320 N   0  0  0  0  0  0  0  0  0  0  0  0
    5.2000   69.2530   65.3760 C   0  0  0  0  0  0  0  0  0  0  0  0
    5.7100   70.0970   66.5420 C   0  0  0  0  0  0  0  0  0  0  0  0
    4.7250   70.2690   67.7040 C   0  0  0  0  0  0  0  0  0  0  0  0
    5.3850   70.7060   69.0030 C   0  0  0  0  0  0  0  0  0  0  0  0
    1.4690   63.7590   70.7110 C   0  0  0  0  0  0  0  0  0  0  0  0
    2.9050   64.0300   70.2470 C   0  0  0  0  0  0  0  0  0  0  0  0
    3.4000   63.0420   69.1920 C   0  0  0  0  0  0  0  0  0  0  0  0
    3.0880   61.5750   69.5110 C   0  0  0  0  0  0  0  0  0  0  0  0
    4.2990   60.7380   69.9300 C   0  0  0  0  0  0  0  0  0  0  0  0
    5.0920   61.3610   71.0760 C   0  0  0  0  0  0  0  0  0  0  0  0
    5.2190   60.4180   72.1530 O   0  0  0  0  0  0  0  0  0  0  0  0
    4.0350   58.9020   73.2390 N   0  0  0  0  0  0  0  0  0  0  0  0
    4.1000   60.2160   72.8890 C   0  0  0  0  0  0  0  0  0  0  0  0
    3.2870   61.0720   73.1980 O   0  0  0  0  0  0  0  0  0  0  0  0
    3.0190   58.3730   74.1160 C   0  0  0  0  0  0  0  0  0  0  0  0
    1.7980   57.8510   73.3580 C   0  0  0  0  0  0  0  0  0  0  0  0
   -0.3670   56.6140   73.7290 C   0  0  0  0  0  0  0  0  0  0  0  0
    1.1110   56.6910   74.0810 C   0  0  0  0  0  0  0  0  0  0  0  0
    0.0069   65.0485   71.6002 H   0  0  0  0  0  0  0  0  0  0  0  0
   -0.1851   64.7112   69.7980 H   0  0  0  0  0  0  0  0  0  0  0  0
    0.8960   67.0009   71.0772 H   0  0  0  0  0  0  0  0  0  0  0  0
    2.2156   66.0957   70.1605 H   0  0  0  0  0  0  0  0  0  0  0  0
    0.8544   67.9992   68.9951 H   0  0  0  0  0  0  0  0  0  0  0  0
    1.2772   66.4381   68.1477 H   0  0  0  0  0  0  0  0  0  0  0  0
   -0.9701   65.5775   68.6030 H   0  0  0  0  0  0  0  0  0  0  0  0
   -1.3983   67.1388   69.4102 H   0  0  0  0  0  0  0  0  0  0  0  0
   -1.3950   66.4414   66.5835 H   0  0  0  0  0  0  0  0  0  0  0  0
   -2.0408   67.9163   67.4588 H   0  0  0  0  0  0  0  0  0  0  0  0
    0.1387   68.9626   67.3483 H   0  0  0  0  0  0  0  0  0  0  0  0
    0.7740   67.4861   66.4600 H   0  0  0  0  0  0  0  0  0  0  0  0
   -1.3701   68.2594   64.9280 H   0  0  0  0  0  0  0  0  0  0  0  0
   -0.6247   69.8356   65.4651 H   0  0  0  0  0  0  0  0  0  0  0  0
    0.3116   67.9090   63.4734 H   0  0  0  0  0  0  0  0  0  0  0  0
    0.8265   69.6030   63.7899 H   0  0  0  0  0  0  0  0  0  0  0  0
    3.4504   68.6808   66.4764 H   0  0  0  0  0  0  0  0  0  0  0  0
    5.8149   68.3438   65.3042 H   0  0  0  0  0  0  0  0  0  0  0  0
    5.2725   69.8658   64.4654 H   0  0  0  0  0  0  0  0  0  0  0  0
    6.6198   69.6197   66.9351 H   0  0  0  0  0  0  0  0  0  0  0  0
    5.8823   71.1049   66.1365 H   0  0  0  0  0  0  0  0  0  0  0  0
    3.9810   71.0277   67.4197 H   0  0  0  0  0  0  0  0  0  0  0  0
    4.2697   69.2849   67.8890 H   0  0  0  0  0  0  0  0  0  0  0  0
    4.8057   70.3224   69.8558 H   0  0  0  0  0  0  0  0  0  0  0  0
    6.4091   70.3069   69.0463 H   0  0  0  0  0  0  0  0  0  0  0  0
    5.4175   71.8047   69.0463 H   0  0  0  0  0  0  0  0  0  0  0  0
    1.5098   63.4339   71.7611 H   0  0  0  0  0  0  0  0  0  0  0  0
    1.0716   62.9998   70.0212 H   0  0  0  0  0  0  0  0  0  0  0  0
    2.9485   65.0438   69.8225 H   0  0  0  0  0  0  0  0  0  0  0  0
    3.5562   63.9183   71.1264 H   0  0  0  0  0  0  0  0  0  0  0  0
    2.9255   63.2951   68.2324 H   0  0  0  0  0  0  0  0  0  0  0  0
    4.4958   63.1334   69.1620 H   0  0  0  0  0  0  0  0  0  0  0  0
    2.3554   61.5514   70.3312 H   0  0  0  0  0  0  0  0  0  0  0  0
    2.7105   61.1288   68.5791 H   0  0  0  0  0  0  0  0  0  0  0  0
    3.9455   59.7461   70.2480 H   0  0  0  0  0  0  0  0  0  0  0  0
    4.9714   60.6777   69.0615 H   0  0  0  0  0  0  0  0  0  0  0  0
    6.0932   61.6411   70.7166 H   0  0  0  0  0  0  0  0  0  0  0  0
    4.5631   62.2549   71.4381 H   0  0  0  0  0  0  0  0  0  0  0  0
    4.7430   58.2566   72.8607 H   0  0  0  0  0  0  0  0  0  0  0  0
    3.4521   57.5459   74.6976 H   0  0  0  0  0  0  0  0  0  0  0  0
    2.6807   59.1938   74.7655 H   0  0  0  0  0  0  0  0  0  0  0  0
    1.0758   58.6728   73.2440 H   0  0  0  0  0  0  0  0  0  0  0  0
    2.1444   57.4785   72.3827 H   0  0  0  0  0  0  0  0  0  0  0  0
   -0.9629   56.5830   74.6531 H   0  0  0  0  0  0  0  0  0  0  0  0
   -0.6501   57.4986   73.1397 H   0  0  0  0  0  0  0  0  0  0  0  0
   -0.5567   55.7048   73.1397 H   0  0  0  0  0  0  0  0  0  0  0  0
    1.2132   56.8354   75.1667 H   0  0  0  0  0  0  0  0  0  0  0  0
    1.5912   55.7533   73.7647 H   0  0  0  0  0  0  0  0  0  0  0  0
  2  1  1  0
  3  2  1  0
  4  3  1  0
  5  4  1  0
  6  5  1  0
  7  6  1  0
  8  7  1  0
  9  8  1  0
 10  9  1  0
 11 10  2  0
 12 10  1  0
 13 12  1  0
 14 13  1  0
 15 14  1  0
 16 15  1  0
 17  1  1  0
 18 17  1  0
 19 18  1  0
 20 19  1  0
 21 20  1  0
 22 21  1  0
 23 22  1  0
 25 23  1  0
 25 24  1  0
 26 25  2  0
 27 24  1  0
 28 27  1  0
 30 29  1  0
 30 28  1  0
  1 31  1  0
  1 32  1  0
  2 33  1  0
  2 34  1  0
  3 35  1  0
  3 36  1  0
  4 37  1  0
  4 38  1  0
  5 39  1  0
  5 40  1  0
  6 41  1  0
  6 42  1  0
  7 43  1  0
  7 44  1  0
  8 45  1  0
  8 46  1  0
 12 47  1  0
 13 48  1  0
 13 49  1  0
 14 50  1  0
 14 51  1  0
 15 52  1  0
 15 53  1  0
 16 54  1  0
 16 55  1  0
 16 56  1  0
 17 57  1  0
 17 58  1  0
 18 59  1  0
 18 60  1  0
 19 61  1  0
 19 62  1  0
 20 63  1  0
 20 64  1  0
 21 65  1  0
 21 66  1  0
 22 67  1  0
 22 68  1  0
 24 69  1  0
 27 70  1  0
 27 71  1  0
 28 72  1  0
 28 73  1  0
 29 74  1  0
 29 75  1  0
 29 76  1  0
 30 77  1  0
 30 78  1  0
M  END
>  <score>  (6) 
-6.563

$$$$
=
     RDKit          3D

 78 77  0  0  0  0  0  0  0  0999 V2000
    1.3640   63.8480   70.4690 C   0  0  0  0  0  0  0  0  0  0  0  0
    0.4900   64.7860   71.3070 C   0  0  0  0  0  0  0  0  0  0  0  0
    0.1380   66.1250   70.6530 C   0  0  0  0  0  0  0  0  0  0  0  0
    1.2040   66.6220   69.6730 C   0  0  0  0  0  0  0  0  0  0  0  0
    0.5710   67.3670   68.4990 C   0  0  0  0  0  0  0  0  0  0  0  0
   -0.7750   66.7950   68.0430 C   0  0  0  0  0  0  0  0  0  0  0  0
   -1.6490   67.7690   67.2490 C   0  0  0  0  0  0  0  0  0  0  0  0
   -0.8430   68.7000   66.3450 C   0  0  0  0  0  0  0  0  0  0  0  0
   -1.3740   68.6610   65.0100 O   0  0  0  0  0  0  0  0  0  0  0  0
   -0.4590   68.6580   64.0100 C   0  0  0  0  0  0  0  0  0  0  0  0
   -0.7080   68.5850   62.8180 O   0  0  0  0  0  0  0  0  0  0  0  0
    0.7880   68.7240   64.5570 N   0  0  0  0  0  0  0  0  0  0  0  0
    1.9730   68.5070   63.7620 C   0  0  0  0  0  0  0  0  0  0  0  0
    3.2280   68.3270   64.6140 C   0  0  0  0  0  0  0  0  0  0  0  0
    3.2990   69.2060   65.8670 C   0  0  0  0  0  0  0  0  0  0  0  0
    4.6970   69.7190   66.1740 C   0  0  0  0  0  0  0  0  0  0  0  0
    2.6570   63.3720   71.1400 C   0  0  0  0  0  0  0  0  0  0  0  0
    3.9030   63.3410   70.2470 C   0  0  0  0  0  0  0  0  0  0  0  0
    4.3110   61.9310   69.8210 C   0  0  0  0  0  0  0  0  0  0  0  0
    3.1390   60.9490   69.6980 C   0  0  0  0  0  0  0  0  0  0  0  0
    3.5460   59.4850   69.5240 C   0  0  0  0  0  0  0  0  0  0  0  0
    3.2450   58.6260   70.7500 C   0  0  0  0  0  0  0  0  0  0  0  0
    4.0080   59.0940   71.8740 O   0  0  0  0  0  0  0  0  0  0  0  0
    2.0550   58.8890   72.8850 N   0  0  0  0  0  0  0  0  0  0  0  0
    3.3980   58.9930   73.0790 C   0  0  0  0  0  0  0  0  0  0  0  0
    3.9610   58.9840   74.1630 O   0  0  0  0  0  0  0  0  0  0  0  0
    1.1220   58.6590   73.9620 C   0  0  0  0  0  0  0  0  0  0  0  0
    0.9820   57.1790   74.3160 C   0  0  0  0  0  0  0  0  0  0  0  0
   -0.6530   55.2640   74.2000 C   0  0  0  0  0  0  0  0  0  0  0  0
   -0.0860   56.4740   73.4750 C   0  0  0  0  0  0  0  0  0  0  0  0
    0.7650   62.9596   70.2201 H   0  0  0  0  0  0  0  0  0  0  0  0
    1.6779   64.4328   69.5918 H   0  0  0  0  0  0  0  0  0  0  0  0
   -0.4506   64.2615   71.5311 H   0  0  0  0  0  0  0  0  0  0  0  0
    1.0849   65.0344   72.1983 H   0  0  0  0  0  0  0  0  0  0  0  0
   -0.8099   66.0080   70.1073 H   0  0  0  0  0  0  0  0  0  0  0  0
    0.0647   66.8705   71.4586 H   0  0  0  0  0  0  0  0  0  0  0  0
    1.8887   67.3014   70.2018 H   0  0  0  0  0  0  0  0  0  0  0  0
    1.7487   65.7510   69.2798 H   0  0  0  0  0  0  0  0  0  0  0  0
    0.4170   68.4143   68.7980 H   0  0  0  0  0  0  0  0  0  0  0  0
    1.2622   67.2628   67.6496 H   0  0  0  0  0  0  0  0  0  0  0  0
   -0.5773   65.9178   67.4095 H   0  0  0  0  0  0  0  0  0  0  0  0
   -1.3346   66.5513   68.9581 H   0  0  0  0  0  0  0  0  0  0  0  0
   -2.3415   67.1870   66.6232 H   0  0  0  0  0  0  0  0  0  0  0  0
   -2.1808   68.3994   67.9769 H   0  0  0  0  0  0  0  0  0  0  0  0
   -0.9034   69.7278   66.7323 H   0  0  0  0  0  0  0  0  0  0  0  0
    0.2067   68.3717   66.3284 H   0  0  0  0  0  0  0  0  0  0  0  0
    0.8868   68.9335   65.5606 H   0  0  0  0  0  0  0  0  0  0  0  0
    1.8279   67.6024   63.1532 H   0  0  0  0  0  0  0  0  0  0  0  0
    2.1213   69.3988   63.1353 H   0  0  0  0  0  0  0  0  0  0  0  0
    3.2743   67.2754   64.9333 H   0  0  0  0  0  0  0  0  0  0  0  0
    4.0733   68.6320   63.9796 H   0  0  0  0  0  0  0  0  0  0  0  0
    2.6353   70.0712   65.7225 H   0  0  0  0  0  0  0  0  0  0  0  0
    2.9919   68.5796   66.7175 H   0  0  0  0  0  0  0  0  0  0  0  0
    4.8375   69.7706   67.2638 H   0  0  0  0  0  0  0  0  0  0  0  0
    5.4418   69.0356   65.7402 H   0  0  0  0  0  0  0  0  0  0  0  0
    4.8230   70.7220   65.7402 H   0  0  0  0  0  0  0  0  0  0  0  0
    2.8650   64.0441   71.9856 H   0  0  0  0  0  0  0  0  0  0  0  0
    2.4738   62.3273   71.4316 H   0  0  0  0  0  0  0  0  0  0  0  0
    3.6983   63.9327   69.3426 H   0  0  0  0  0  0  0  0  0  0  0  0
    4.7345   63.7550   70.8362 H   0  0  0  0  0  0  0  0  0  0  0  0
    4.8104   61.9967   68.8431 H   0  0  0  0  0  0  0  0  0  0  0  0
    4.9703   61.5401   70.6100 H   0  0  0  0  0  0  0  0  0  0  0  0
    2.5284   61.0287   70.6095 H   0  0  0  0  0  0  0  0  0  0  0  0
    2.5935   61.2299   68.7850 H   0  0  0  0  0  0  0  0  0  0  0  0
    2.9996   59.0703   68.6641 H   0  0  0  0  0  0  0  0  0  0  0  0
    4.6351   59.4650   69.3709 H   0  0  0  0  0  0  0  0  0  0  0  0
    2.1724   58.6894   70.9854 H   0  0  0  0  0  0  0  0  0  0  0  0
    3.5176   57.5819   70.5366 H   0  0  0  0  0  0  0  0  0  0  0  0
    1.6879   58.9784   71.9268 H   0  0  0  0  0  0  0  0  0  0  0  0
    1.4717   59.2021   74.8524 H   0  0  0  0  0  0  0  0  0  0  0  0
    0.1361   59.0153   73.6288 H   0  0  0  0  0  0  0  0  0  0  0  0
    1.9489   56.6827   74.1467 H   0  0  0  0  0  0  0  0  0  0  0  0
    0.6739   57.1149   75.3700 H   0  0  0  0  0  0  0  0  0  0  0  0
   -0.5799   55.4200   75.2864 H   0  0  0  0  0  0  0  0  0  0  0  0
   -1.7080   55.1293   73.9191 H   0  0  0  0  0  0  0  0  0  0  0  0
   -0.0814   54.3671   73.9191 H   0  0  0  0  0  0  0  0  0  0  0  0
    0.3646   56.1446   72.5271 H   0  0  0  0  0  0  0  0  0  0  0  0
   -0.9063   57.1835   73.2913 H   0  0  0  0  0  0  0  0  0  0  0  0
  2  1  1  0
  3  2  1  0
  4  3  1  0
  5  4  1  0
  6  5  1  0
  7  6  1  0
  8  7  1  0
  9  8  1  0
 10  9  1  0
 11 10  2  0
 12 10  1  0
 13 12  1  0
 14 13  1  0
 15 14  1  0
 16 15  1  0
 17  1  1  0
 18 17  1  0
 19 18  1  0
 20 19  1  0
 21 20  1  0
 22 21  1  0
 23 22  1  0
 25 23  1  0
 25 24  1  0
 26 25  2  0
 27 24  1  0
 28 27  1  0
 30 29  1  0
 30 28  1  0
  1 31  1  0
  1 32  1  0
  2 33  1  0
  2 34  1  0
  3 35  1  0
  3 36  1  0
  4 37  1  0
  4 38  1  0
  5 39  1  0
  5 40  1  0
  6 41  1  0
  6 42  1  0
  7 43  1  0
  7 44  1  0
  8 45  1  0
  8 46  1  0
 12 47  1  0
 13 48  1  0
 13 49  1  0
 14 50  1  0
 14 51  1  0
 15 52  1  0
 15 53  1  0
 16 54  1  0
 16 55  1  0
 16 56  1  0
 17 57  1  0
 17 58  1  0
 18 59  1  0
 18 60  1  0
 19 61  1  0
 19 62  1  0
 20 63  1  0
 20 64  1  0
 21 65  1  0
 21 66  1  0
 22 67  1  0
 22 68  1  0
 24 69  1  0
 27 70  1  0
 27 71  1  0
 28 72  1  0
 28 73  1  0
 29 74  1  0
 29 75  1  0
 29 76  1  0
 30 77  1  0
 30 78  1  0
M  END
>  <score>  (7) 
-6.545

$$$$
=
     RDKit          3D

 78 77  0  0  0  0  0  0  0  0999 V2000
    4.8680   62.9030   70.6930 C   0  0  0  0  0  0  0  0  0  0  0  0
    5.2510   61.5510   71.3030 C   0  0  0  0  0  0  0  0  0  0  0  0
    4.3450   60.3740   70.9290 C   0  0  0  0  0  0  0  0  0  0  0  0
    4.1570   59.3670   72.0680 C   0  0  0  0  0  0  0  0  0  0  0  0
    2.6760   59.0710   72.3030 C   0  0  0  0  0  0  0  0  0  0  0  0
    2.2870   57.6030   72.0970 C   0  0  0  0  0  0  0  0  0  0  0  0
    1.7100   56.9140   73.3360 C   0  0  0  0  0  0  0  0  0  0  0  0
    0.2220   57.1940   73.5400 C   0  0  0  0  0  0  0  0  0  0  0  0
    0.0200   57.8600   74.7980 O   0  0  0  0  0  0  0  0  0  0  0  0
   -0.0240   59.2130   74.7490 C   0  0  0  0  0  0  0  0  0  0  0  0
    0.4000   59.9700   75.6080 O   0  0  0  0  0  0  0  0  0  0  0  0
   -0.6410   59.5900   73.5950 N   0  0  0  0  0  0  0  0  0  0  0  0
   -1.0420   60.9580   73.3650 C   0  0  0  0  0  0  0  0  0  0  0  0
   -0.0450   61.7250   72.4970 C   0  0  0  0  0  0  0  0  0  0  0  0
    0.7480   62.8180   73.2230 C   0  0  0  0  0  0  0  0  0  0  0  0
    2.1890   62.4320   73.5170 C   0  0  0  0  0  0  0  0  0  0  0  0
    3.9350   62.8420   69.4790 C   0  0  0  0  0  0  0  0  0  0  0  0
    2.4570   63.1410   69.7550 C   0  0  0  0  0  0  0  0  0  0  0  0
    2.2150   64.5410   70.3190 C   0  0  0  0  0  0  0  0  0  0  0  0
    0.7350   64.9310   70.4150 C   0  0  0  0  0  0  0  0  0  0  0  0
    0.4570   66.4280   70.2650 C   0  0  0  0  0  0  0  0  0  0  0  0
    1.0900   67.0360   69.0150 C   0  0  0  0  0  0  0  0  0  0  0  0
    0.2710   66.7570   67.8680 O   0  0  0  0  0  0  0  0  0  0  0  0
    1.7890   67.9840   66.8340 N   0  0  0  0  0  0  0  0  0  0  0  0
    0.5090   67.5260   66.7780 C   0  0  0  0  0  0  0  0  0  0  0  0
   -0.2890   67.7600   65.8850 O   0  0  0  0  0  0  0  0  0  0  0  0
    2.3970   68.7470   65.7700 C   0  0  0  0  0  0  0  0  0  0  0  0
    3.7290   69.3750   66.1810 C   0  0  0  0  0  0  0  0  0  0  0  0
    4.7770   68.2020   64.2120 C   0  0  0  0  0  0  0  0  0  0  0  0
    4.7070   69.4950   65.0100 C   0  0  0  0  0  0  0  0  0  0  0  0
    4.3696   63.4971   71.4732 H   0  0  0  0  0  0  0  0  0  0  0  0
    5.8070   63.3451   70.3285 H   0  0  0  0  0  0  0  0  0  0  0  0
    6.2725   61.3091   70.9745 H   0  0  0  0  0  0  0  0  0  0  0  0
    5.1502   61.6734   72.3915 H   0  0  0  0  0  0  0  0  0  0  0  0
    3.3582   60.7693   70.6463 H   0  0  0  0  0  0  0  0  0  0  0  0
    4.8313   59.8399   70.0994 H   0  0  0  0  0  0  0  0  0  0  0  0
    4.6735   58.4311   71.8088 H   0  0  0  0  0  0  0  0  0  0  0  0
    4.5770   59.7987   72.9884 H   0  0  0  0  0  0  0  0  0  0  0  0
    2.4283   59.3513   73.3374 H   0  0  0  0  0  0  0  0  0  0  0  0
    2.1156   59.6536   71.5570 H   0  0  0  0  0  0  0  0  0  0  0  0
    1.5331   57.5574   71.2973 H   0  0  0  0  0  0  0  0  0  0  0  0
    3.2152   57.0678   71.8480 H   0  0  0  0  0  0  0  0  0  0  0  0
    1.8504   55.8282   73.2299 H   0  0  0  0  0  0  0  0  0  0  0  0
    2.2419   57.3149   74.2114 H   0  0  0  0  0  0  0  0  0  0  0  0
   -0.1442   57.8350   72.7245 H   0  0  0  0  0  0  0  0  0  0  0  0
   -0.3301   56.2426   73.5399 H   0  0  0  0  0  0  0  0  0  0  0  0
   -0.8259   58.8829   72.8693 H   0  0  0  0  0  0  0  0  0  0  0  0
   -2.0203   60.9585   72.8620 H   0  0  0  0  0  0  0  0  0  0  0  0
   -1.0880   61.4604   74.3425 H   0  0  0  0  0  0  0  0  0  0  0  0
    0.6731   61.0015   72.0836 H   0  0  0  0  0  0  0  0  0  0  0  0
   -0.6417   62.2399   71.7297 H   0  0  0  0  0  0  0  0  0  0  0  0
    0.7512   63.7207   72.5945 H   0  0  0  0  0  0  0  0  0  0  0  0
    0.2548   62.9843   74.1921 H   0  0  0  0  0  0  0  0  0  0  0  0
    2.3428   62.3908   74.6054 H   0  0  0  0  0  0  0  0  0  0  0  0
    2.4010   61.4454   73.0791 H   0  0  0  0  0  0  0  0  0  0  0  0
    2.8657   63.1805   73.0791 H   0  0  0  0  0  0  0  0  0  0  0  0
    4.2947   63.5735   68.7404 H   0  0  0  0  0  0  0  0  0  0  0  0
    3.9678   61.7992   69.1304 H   0  0  0  0  0  0  0  0  0  0  0  0
    1.8998   63.0442   68.8115 H   0  0  0  0  0  0  0  0  0  0  0  0
    2.1170   62.4220   70.5149 H   0  0  0  0  0  0  0  0  0  0  0  0
    2.6503   64.5867   71.3282 H   0  0  0  0  0  0  0  0  0  0  0  0
    2.6847   65.2494   69.6208 H   0  0  0  0  0  0  0  0  0  0  0  0
    0.1886   64.3999   69.6216 H   0  0  0  0  0  0  0  0  0  0  0  0
    0.4059   64.6539   71.4274 H   0  0  0  0  0  0  0  0  0  0  0  0
   -0.6315   66.5779   70.2137 H   0  0  0  0  0  0  0  0  0  0  0  0
    0.9033   66.9318   71.1351 H   0  0  0  0  0  0  0  0  0  0  0  0
    1.1789   68.1248   69.1438 H   0  0  0  0  0  0  0  0  0  0  0  0
    2.0873   66.5972   68.8637 H   0  0  0  0  0  0  0  0  0  0  0  0
    2.3493   67.7770   67.6732 H   0  0  0  0  0  0  0  0  0  0  0  0
    2.5722   68.0791   64.9137 H   0  0  0  0  0  0  0  0  0  0  0  0
    1.7088   69.5658   65.5131 H   0  0  0  0  0  0  0  0  0  0  0  0
    3.5356   70.3803   66.5834 H   0  0  0  0  0  0  0  0  0  0  0  0
    4.1891   68.7190   66.9346 H   0  0  0  0  0  0  0  0  0  0  0  0
    4.8233   67.3470   64.9025 H   0  0  0  0  0  0  0  0  0  0  0  0
    3.8823   68.1134   63.5782 H   0  0  0  0  0  0  0  0  0  0  0  0
    5.6760   68.2105   63.5782 H   0  0  0  0  0  0  0  0  0  0  0  0
    5.7079   69.7285   65.4019 H   0  0  0  0  0  0  0  0  0  0  0  0
    4.3530   70.2951   64.3433 H   0  0  0  0  0  0  0  0  0  0  0  0
  2  1  1  0
  3  2  1  0
  4  3  1  0
  5  4  1  0
  6  5  1  0
  7  6  1  0
  8  7  1  0
  9  8  1  0
 10  9  1  0
 11 10  2  0
 12 10  1  0
 13 12  1  0
 14 13  1  0
 15 14  1  0
 16 15  1  0
 17  1  1  0
 18 17  1  0
 19 18  1  0
 20 19  1  0
 21 20  1  0
 22 21  1  0
 23 22  1  0
 25 23  1  0
 25 24  1  0
 26 25  2  0
 27 24  1  0
 28 27  1  0
 30 29  1  0
 30 28  1  0
  1 31  1  0
  1 32  1  0
  2 33  1  0
  2 34  1  0
  3 35  1  0
  3 36  1  0
  4 37  1  0
  4 38  1  0
  5 39  1  0
  5 40  1  0
  6 41  1  0
  6 42  1  0
  7 43  1  0
  7 44  1  0
  8 45  1  0
  8 46  1  0
 12 47  1  0
 13 48  1  0
 13 49  1  0
 14 50  1  0
 14 51  1  0
 15 52  1  0
 15 53  1  0
 16 54  1  0
 16 55  1  0
 16 56  1  0
 17 57  1  0
 17 58  1  0
 18 59  1  0
 18 60  1  0
 19 61  1  0
 19 62  1  0
 20 63  1  0
 20 64  1  0
 21 65  1  0
 21 66  1  0
 22 67  1  0
 22 68  1  0
 24 69  1  0
 27 70  1  0
 27 71  1  0
 28 72  1  0
 28 73  1  0
 29 74  1  0
 29 75  1  0
 29 76  1  0
 30 77  1  0
 30 78  1  0
M  END
>  <score>  (8) 
-6.533

$$$$
=
     RDKit          3D

 78 77  0  0  0  0  0  0  0  0999 V2000
    1.5010   67.4330   68.3110 C   0  0  0  0  0  0  0  0  0  0  0  0
    1.6710   68.9510   68.4320 C   0  0  0  0  0  0  0  0  0  0  0  0
    2.7660   69.5680   67.5560 C   0  0  0  0  0  0  0  0  0  0  0  0
    3.0630   68.7550   66.2930 C   0  0  0  0  0  0  0  0  0  0  0  0
    4.0900   69.4640   65.4100 C   0  0  0  0  0  0  0  0  0  0  0  0
    4.8690   68.5300   64.4770 C   0  0  0  0  0  0  0  0  0  0  0  0
    4.5090   68.6600   62.9960 C   0  0  0  0  0  0  0  0  0  0  0  0
    3.1660   68.0220   62.6450 C   0  0  0  0  0  0  0  0  0  0  0  0
    2.5030   68.8050   61.6380 O   0  0  0  0  0  0  0  0  0  0  0  0
    1.2130   69.1300   61.8960 C   0  0  0  0  0  0  0  0  0  0  0  0
    0.4910   69.8010   61.1770 O   0  0  0  0  0  0  0  0  0  0  0  0
    0.8620   68.6030   63.1030 N   0  0  0  0  0  0  0  0  0  0  0  0
   -0.3730   68.9700   63.7550 C   0  0  0  0  0  0  0  0  0  0  0  0
   -0.3530   68.6840   65.2560 C   0  0  0  0  0  0  0  0  0  0  0  0
   -1.6440   69.0310   66.0050 C   0  0  0  0  0  0  0  0  0  0  0  0
   -2.2640   67.8480   66.7320 C   0  0  0  0  0  0  0  0  0  0  0  0
    0.3520   66.8290   69.1240 C   0  0  0  0  0  0  0  0  0  0  0  0
    0.7620   65.9570   70.3170 C   0  0  0  0  0  0  0  0  0  0  0  0
    0.6460   64.4580   70.0430 C   0  0  0  0  0  0  0  0  0  0  0  0
    0.1330   63.6410   71.2340 C   0  0  0  0  0  0  0  0  0  0  0  0
    0.7800   63.9880   72.5770 C   0  0  0  0  0  0  0  0  0  0  0  0
    0.6410   62.8780   73.6160 C   0  0  0  0  0  0  0  0  0  0  0  0
    1.9370   62.3530   73.9470 O   0  0  0  0  0  0  0  0  0  0  0  0
    3.8040   61.6410   73.0050 N   0  0  0  0  0  0  0  0  0  0  0  0
    2.4550   61.4700   73.0600 C   0  0  0  0  0  0  0  0  0  0  0  0
    1.8190   60.6470   72.4210 O   0  0  0  0  0  0  0  0  0  0  0  0
    4.6730   60.7860   72.2330 C   0  0  0  0  0  0  0  0  0  0  0  0
    5.0800   61.4100   70.8980 C   0  0  0  0  0  0  0  0  0  0  0  0
    3.6940   62.2840   68.9830 C   0  0  0  0  0  0  0  0  0  0  0  0
    4.1160   61.0500   69.7650 C   0  0  0  0  0  0  0  0  0  0  0  0
    1.3272   67.1953   67.2511 H   0  0  0  0  0  0  0  0  0  0  0  0
    2.4227   66.9934   68.7200 H   0  0  0  0  0  0  0  0  0  0  0  0
    0.7147   69.4211   68.1591 H   0  0  0  0  0  0  0  0  0  0  0  0
    1.9782   69.1367   69.4718 H   0  0  0  0  0  0  0  0  0  0  0  0
    2.4450   70.5760   67.2546 H   0  0  0  0  0  0  0  0  0  0  0  0
    3.6887   69.5877   68.1545 H   0  0  0  0  0  0  0  0  0  0  0  0
    3.4584   67.7707   66.5842 H   0  0  0  0  0  0  0  0  0  0  0  0
    2.1294   68.6436   65.7220 H   0  0  0  0  0  0  0  0  0  0  0  0
    3.5610   70.2052   64.7929 H   0  0  0  0  0  0  0  0  0  0  0  0
    4.8270   69.9206   66.0871 H   0  0  0  0  0  0  0  0  0  0  0  0
    5.9410   68.7494   64.5895 H   0  0  0  0  0  0  0  0  0  0  0  0
    4.6038   67.5041   64.7722 H   0  0  0  0  0  0  0  0  0  0  0  0
    4.4662   69.7287   62.7391 H   0  0  0  0  0  0  0  0  0  0  0  0
    5.2832   68.1282   62.4234 H   0  0  0  0  0  0  0  0  0  0  0  0
    3.3339   67.0038   62.2640 H   0  0  0  0  0  0  0  0  0  0  0  0
    2.5366   67.9816   63.5463 H   0  0  0  0  0  0  0  0  0  0  0  0
    1.4916   67.9281   63.5601 H   0  0  0  0  0  0  0  0  0  0  0  0
   -0.5450   70.0459   63.6037 H   0  0  0  0  0  0  0  0  0  0  0  0
   -1.1767   68.3641   63.3112 H   0  0  0  0  0  0  0  0  0  0  0  0
   -0.1573   67.6105   65.3950 H   0  0  0  0  0  0  0  0  0  0  0  0
    0.4284   69.3323   65.6792 H   0  0  0  0  0  0  0  0  0  0  0  0
   -1.4173   69.8133   66.7443 H   0  0  0  0  0  0  0  0  0  0  0  0
   -2.3734   69.3647   65.2522 H   0  0  0  0  0  0  0  0  0  0  0  0
   -2.1833   68.0019   67.8182 H   0  0  0  0  0  0  0  0  0  0  0  0
   -3.3241   67.7601   66.4519 H   0  0  0  0  0  0  0  0  0  0  0  0
   -1.7331   66.9263   66.4519 H   0  0  0  0  0  0  0  0  0  0  0  0
   -0.2617   67.6575   69.5072 H   0  0  0  0  0  0  0  0  0  0  0  0
   -0.1806   66.1581   68.4339 H   0  0  0  0  0  0  0  0  0  0  0  0
    1.8075   66.1847   70.5720 H   0  0  0  0  0  0  0  0  0  0  0  0
    0.0720   66.1902   71.1413 H   0  0  0  0  0  0  0  0  0  0  0  0
   -0.0470   64.3135   69.2011 H   0  0  0  0  0  0  0  0  0  0  0  0
    1.6617   64.0964   69.8248 H   0  0  0  0  0  0  0  0  0  0  0  0
   -0.9505   63.8088   71.3227 H   0  0  0  0  0  0  0  0  0  0  0  0
    0.3945   62.5930   71.0260 H   0  0  0  0  0  0  0  0  0  0  0  0
    1.8504   64.1790   72.4105 H   0  0  0  0  0  0  0  0  0  0  0  0
    0.2591   64.8727   72.9720 H   0  0  0  0  0  0  0  0  0  0  0  0
    0.1695   63.2843   74.5230 H   0  0  0  0  0  0  0  0  0  0  0  0
    0.0181   62.0710   73.2028 H   0  0  0  0  0  0  0  0  0  0  0  0
    4.2236   62.4157   73.5385 H   0  0  0  0  0  0  0  0  0  0  0  0
    5.5818   60.5859   72.8196 H   0  0  0  0  0  0  0  0  0  0  0  0
    4.1195   59.8613   72.0127 H   0  0  0  0  0  0  0  0  0  0  0  0
    5.0988   62.5040   71.0110 H   0  0  0  0  0  0  0  0  0  0  0  0
    6.0712   61.0140   70.6322 H   0  0  0  0  0  0  0  0  0  0  0  0
    3.4197   63.0862   69.6839 H   0  0  0  0  0  0  0  0  0  0  0  0
    4.5284   62.6199   68.3497 H   0  0  0  0  0  0  0  0  0  0  0  0
    2.8287   62.0386   68.3497 H   0  0  0  0  0  0  0  0  0  0  0  0
    3.2214   60.5746   70.1936 H   0  0  0  0  0  0  0  0  0  0  0  0
    4.6310   60.3634   69.0771 H   0  0  0  0  0  0  0  0  0  0  0  0
  2  1  1  0
  3  2  1  0
  4  3  1  0
  5  4  1  0
  6  5  1  0
  7  6  1  0
  8  7  1  0
  9  8  1  0
 10  9  1  0
 11 10  2  0
 12 10  1  0
 13 12  1  0
 14 13  1  0
 15 14  1  0
 16 15  1  0
 17  1  1  0
 18 17  1  0
 19 18  1  0
 20 19  1  0
 21 20  1  0
 22 21  1  0
 23 22  1  0
 25 23  1  0
 25 24  1  0
 26 25  2  0
 27 24  1  0
 28 27  1  0
 30 29  1  0
 30 28  1  0
  1 31  1  0
  1 32  1  0
  2 33  1  0
  2 34  1  0
  3 35  1  0
  3 36  1  0
  4 37  1  0
  4 38  1  0
  5 39  1  0
  5 40  1  0
  6 41  1  0
  6 42  1  0
  7 43  1  0
  7 44  1  0
  8 45  1  0
  8 46  1  0
 12 47  1  0
 13 48  1  0
 13 49  1  0
 14 50  1  0
 14 51  1  0
 15 52  1  0
 15 53  1  0
 16 54  1  0
 16 55  1  0
 16 56  1  0
 17 57  1  0
 17 58  1  0
 18 59  1  0
 18 60  1  0
 19 61  1  0
 19 62  1  0
 20 63  1  0
 20 64  1  0
 21 65  1  0
 21 66  1  0
 22 67  1  0
 22 68  1  0
 24 69  1  0
 27 70  1  0
 27 71  1  0
 28 72  1  0
 28 73  1  0
 29 74  1  0
 29 75  1  0
 29 76  1  0
 30 77  1  0
 30 78  1  0
M  END
>  <score>  (9) 
-6.523

$$$$
