=
     RDKit          3D

 52 56  0  0  0  0  0  0  0  0999 V2000
    2.3510   69.0110   65.5730 C   0  0  1  0  0  0  0  0  0  0  0  0
    0.9140   68.9770   66.0850 C   0  0  1  0  0  0  0  0  0  0  0  0
   -0.1820   68.4300   65.2210 C   0  0  0  0  0  0  0  0  0  0  0  0
   -0.3050   68.5830   64.0180 O   0  0  0  0  0  0  0  0  0  0  0  0
   -1.1070   67.8070   66.0240 O   0  0  0  0  0  0  0  0  0  0  0  0
   -0.6920   67.9050   67.3940 C   0  0  0  0  0  0  0  0  0  0  0  0
    0.7990   68.0930   67.3060 C   0  0  2  0  0  0  0  0  0  0  0  0
    1.4900   68.7440   68.4910 C   0  0  2  0  0  0  0  0  0  0  0  0
    2.8560   69.3020   68.1040 C   0  0  0  0  0  0  0  0  0  0  0  0
    3.2530   69.4660   66.7340 C   0  0  0  0  0  0  0  0  0  0  0  0
    4.5100   70.0220   66.4270 C   0  0  0  0  0  0  0  0  0  0  0  0
    5.3270   70.4060   67.4680 C   0  0  0  0  0  0  0  0  0  0  0  0
    6.5640   70.9560   67.3430 O   0  0  0  0  0  0  0  0  0  0  0  0
    6.9240   71.1290   68.7290 C   0  0  0  0  0  0  0  0  0  0  0  0
    5.8970   70.6990   69.6470 O   0  0  0  0  0  0  0  0  0  0  0  0
    4.9480   70.2580   68.7780 C   0  0  0  0  0  0  0  0  0  0  0  0
    3.7290   69.7180   69.1280 C   0  0  0  0  0  0  0  0  0  0  0  0
    3.8760   66.6530   62.9640 C   0  0  0  0  0  0  0  0  0  0  0  0
    3.4380   67.8010   63.6330 C   0  0  0  0  0  0  0  0  0  0  0  0
    2.8330   67.7230   64.9010 C   0  0  0  0  0  0  0  0  0  0  0  0
    2.6940   66.4570   65.5020 C   0  0  0  0  0  0  0  0  0  0  0  0
    3.1470   65.2990   64.8640 C   0  0  0  0  0  0  0  0  0  0  0  0
    3.7180   65.4060   63.5870 C   0  0  0  0  0  0  0  0  0  0  0  0
    4.2020   67.7550   60.8750 C   0  0  0  0  0  0  0  0  0  0  0  0
    4.4640   66.6470   61.7260 O   0  0  0  0  0  0  0  0  0  0  0  0
    4.1930   64.2720   62.9640 O   0  0  0  0  0  0  0  0  0  0  0  0
    5.3250   63.7720   63.6740 C   0  0  0  0  0  0  0  0  0  0  0  0
    3.0500   64.0340   65.3870 O   0  0  0  0  0  0  0  0  0  0  0  0
    3.8050   63.7580   66.5600 C   0  0  0  0  0  0  0  0  0  0  0  0
    1.6520   67.7710   69.5160 O   0  0  0  0  0  0  0  0  0  0  0  0
    2.4028   69.7335   64.7452 H   0  0  0  0  0  0  0  0  0  0  0  0
    0.7571   70.0589   66.2067 H   0  0  0  0  0  0  0  0  0  0  0  0
   -1.1670   68.7663   67.8865 H   0  0  0  0  0  0  0  0  0  0  0  0
   -0.9749   67.0234   67.9879 H   0  0  0  0  0  0  0  0  0  0  0  0
    1.3038   67.1163   67.2717 H   0  0  0  0  0  0  0  0  0  0  0  0
    0.8689   69.5811   68.8424 H   0  0  0  0  0  0  0  0  0  0  0  0
    4.8315   70.1466   65.3824 H   0  0  0  0  0  0  0  0  0  0  0  0
    7.8353   70.5459   68.9277 H   0  0  0  0  0  0  0  0  0  0  0  0
    7.0749   72.2062   68.8928 H   0  0  0  0  0  0  0  0  0  0  0  0
    3.4439   69.6141   70.1853 H   0  0  0  0  0  0  0  0  0  0  0  0
    3.5692   68.7845   63.1581 H   0  0  0  0  0  0  0  0  0  0  0  0
    2.2203   66.3781   66.4916 H   0  0  0  0  0  0  0  0  0  0  0  0
    3.9915   68.6450   61.4862 H   0  0  0  0  0  0  0  0  0  0  0  0
    5.0799   67.9454   60.2401 H   0  0  0  0  0  0  0  0  0  0  0  0
    3.3318   67.5320   60.2401 H   0  0  0  0  0  0  0  0  0  0  0  0
    5.1438   63.8520   64.7560 H   0  0  0  0  0  0  0  0  0  0  0  0
    5.4891   62.7177   63.4067 H   0  0  0  0  0  0  0  0  0  0  0  0
    6.2149   64.3608   63.4067 H   0  0  0  0  0  0  0  0  0  0  0  0
    3.1962   63.9806   67.4487 H   0  0  0  0  0  0  0  0  0  0  0  0
    4.0930   62.6964   66.5693 H   0  0  0  0  0  0  0  0  0  0  0  0
    4.7098   64.3835   66.5693 H   0  0  0  0  0  0  0  0  0  0  0  0
    1.5791   68.2087   70.4010 H   0  0  0  0  0  0  0  0  0  0  0  0
  2  1  1  0
  3  2  1  0
  4  3  2  0
  5  3  1  0
  6  5  1  0
  7  6  1  0
  7  2  1  0
  8  7  1  0
  9  8  1  0
 10  9  2  0
 10  1  1  0
 11 10  1  0
 12 11  2  0
 13 12  1  0
 14 13  1  0
 15 14  1  0
 16 12  1  0
 16 15  1  0
 17 16  2  0
 17  9  1  0
 19 18  2  0
 20 19  1  0
 20  1  1  0
 21 20  2  0
 22 21  1  0
 23 22  2  0
 23 18  1  0
 25 24  1  0
 25 18  1  0
 26 23  1  0
 27 26  1  0
 28 22  1  0
 29 28  1  0
 30  8  1  0
  1 31  1  6
  2 32  1  1
  6 33  1  0
  6 34  1  0
  7 35  1  6
  8 36  1  1
 11 37  1  0
 14 38  1  0
 14 39  1  0
 17 40  1  0
 19 41  1  0
 21 42  1  0
 24 43  1  0
 24 44  1  0
 24 45  1  0
 27 46  1  0
 27 47  1  0
 27 48  1  0
 29 49  1  0
 29 50  1  0
 29 51  1  0
 30 52  1  0
M  END
>  <score>  (1) 
-9.925

$$$$
=
     RDKit          3D

 52 56  0  0  0  0  0  0  0  0999 V2000
    2.3260   69.0340   65.5340 C   0  0  1  0  0  0  0  0  0  0  0  0
    0.8790   68.9800   66.0180 C   0  0  1  0  0  0  0  0  0  0  0  0
   -0.1960   68.4460   65.1230 C   0  0  0  0  0  0  0  0  0  0  0  0
   -0.2980   68.6250   63.9210 O   0  0  0  0  0  0  0  0  0  0  0  0
   -1.1330   67.8010   65.8940 O   0  0  0  0  0  0  0  0  0  0  0  0
   -0.7450   67.8710   67.2740 C   0  0  0  0  0  0  0  0  0  0  0  0
    0.7470   68.0700   67.2180 C   0  0  2  0  0  0  0  0  0  0  0  0
    1.4120   68.6990   68.4300 C   0  0  2  0  0  0  0  0  0  0  0  0
    2.7820   69.2730   68.0800 C   0  0  0  0  0  0  0  0  0  0  0  0
    3.2030   69.4680   66.7220 C   0  0  0  0  0  0  0  0  0  0  0  0
    4.4620   70.0390   66.4520 C   0  0  0  0  0  0  0  0  0  0  0  0
    5.2570   70.4040   67.5150 C   0  0  0  0  0  0  0  0  0  0  0  0
    6.4930   70.9640   67.4260 O   0  0  0  0  0  0  0  0  0  0  0  0
    6.8260   71.1090   68.8220 C   0  0  0  0  0  0  0  0  0  0  0  0
    5.7840   70.6530   69.7100 O   0  0  0  0  0  0  0  0  0  0  0  0
    4.8540   70.2260   68.8150 C   0  0  0  0  0  0  0  0  0  0  0  0
    3.6320   69.6720   69.1300 C   0  0  0  0  0  0  0  0  0  0  0  0
    3.1320   65.3380   64.9230 C   0  0  0  0  0  0  0  0  0  0  0  0
    2.6710   66.5270   65.4970 C   0  0  0  0  0  0  0  0  0  0  0  0
    2.8280   67.7640   64.8450 C   0  0  0  0  0  0  0  0  0  0  0  0
    3.4470   67.7820   63.5800 C   0  0  0  0  0  0  0  0  0  0  0  0
    3.8930   66.6030   62.9750 C   0  0  0  0  0  0  0  0  0  0  0  0
    3.7490   65.3900   63.6640 C   0  0  0  0  0  0  0  0  0  0  0  0
    3.8230   63.8430   66.6470 C   0  0  0  0  0  0  0  0  0  0  0  0
    3.0240   64.0980   65.4990 O   0  0  0  0  0  0  0  0  0  0  0  0
    4.1600   64.2200   63.0610 O   0  0  0  0  0  0  0  0  0  0  0  0
    5.3450   63.7420   63.6970 C   0  0  0  0  0  0  0  0  0  0  0  0
    4.5000   66.5410   61.7460 O   0  0  0  0  0  0  0  0  0  0  0  0
    4.2630   67.6200   60.8510 C   0  0  0  0  0  0  0  0  0  0  0  0
    1.5600   67.7050   69.4360 O   0  0  0  0  0  0  0  0  0  0  0  0
    2.3892   69.7750   64.7235 H   0  0  0  0  0  0  0  0  0  0  0  0
    0.7126   70.0581   66.1593 H   0  0  0  0  0  0  0  0  0  0  0  0
   -1.2348   68.7182   67.7763 H   0  0  0  0  0  0  0  0  0  0  0  0
   -1.0336   66.9750   67.8430 H   0  0  0  0  0  0  0  0  0  0  0  0
    1.2590   67.0975   67.1724 H   0  0  0  0  0  0  0  0  0  0  0  0
    0.7800   69.5249   68.7884 H   0  0  0  0  0  0  0  0  0  0  0  0
    4.8018   70.1896   65.4167 H   0  0  0  0  0  0  0  0  0  0  0  0
    7.7370   70.5270   69.0255 H   0  0  0  0  0  0  0  0  0  0  0  0
    6.9678   72.1831   69.0122 H   0  0  0  0  0  0  0  0  0  0  0  0
    3.3269   69.5441   70.1791 H   0  0  0  0  0  0  0  0  0  0  0  0
    2.1754   66.4945   66.4785 H   0  0  0  0  0  0  0  0  0  0  0  0
    3.5820   68.7411   63.0585 H   0  0  0  0  0  0  0  0  0  0  0  0
    3.2313   64.0318   67.5549 H   0  0  0  0  0  0  0  0  0  0  0  0
    4.1549   62.7943   66.6372 H   0  0  0  0  0  0  0  0  0  0  0  0
    4.7010   64.5056   66.6372 H   0  0  0  0  0  0  0  0  0  0  0  0
    5.2208   63.7921   64.7888 H   0  0  0  0  0  0  0  0  0  0  0  0
    5.5277   62.6998   63.3962 H   0  0  0  0  0  0  0  0  0  0  0  0
    6.1997   64.3657   63.3962 H   0  0  0  0  0  0  0  0  0  0  0  0
    4.0618   68.5359   61.4260 H   0  0  0  0  0  0  0  0  0  0  0  0
    5.1491   67.7721   60.2173 H   0  0  0  0  0  0  0  0  0  0  0  0
    3.3947   67.3868   60.2173 H   0  0  0  0  0  0  0  0  0  0  0  0
    1.4971   68.1275   70.3291 H   0  0  0  0  0  0  0  0  0  0  0  0
  2  1  1  0
  3  2  1  0
  4  3  2  0
  5  3  1  0
  6  5  1  0
  7  6  1  0
  7  2  1  0
  8  7  1  0
  9  8  1  0
 10  9  2  0
 10  1  1  0
 11 10  1  0
 12 11  2  0
 13 12  1  0
 14 13  1  0
 15 14  1  0
 16 12  1  0
 16 15  1  0
 17 16  2  0
 17  9  1  0
 19 18  2  0
 20 19  1  0
 20  1  1  0
 21 20  2  0
 22 21  1  0
 23 22  2  0
 23 18  1  0
 25 24  1  0
 25 18  1  0
 26 23  1  0
 27 26  1  0
 28 22  1  0
 29 28  1  0
 30  8  1  0
  1 31  1  6
  2 32  1  1
  6 33  1  0
  6 34  1  0
  7 35  1  6
  8 36  1  1
 11 37  1  0
 14 38  1  0
 14 39  1  0
 17 40  1  0
 19 41  1  0
 21 42  1  0
 24 43  1  0
 24 44  1  0
 24 45  1  0
 27 46  1  0
 27 47  1  0
 27 48  1  0
 29 49  1  0
 29 50  1  0
 29 51  1  0
 30 52  1  0
M  END
>  <score>  (2) 
-9.457

$$$$
=
     RDKit          3D

 52 56  0  0  0  0  0  0  0  0999 V2000
    3.4980   67.5130   65.5550 C   0  0  1  0  0  0  0  0  0  0  0  0
    4.2330   66.7780   64.4370 C   0  0  1  0  0  0  0  0  0  0  0  0
    3.5770   65.6310   63.7300 C   0  0  0  0  0  0  0  0  0  0  0  0
    2.8780   64.7690   64.2350 O   0  0  0  0  0  0  0  0  0  0  0  0
    3.9810   65.6330   62.4170 O   0  0  0  0  0  0  0  0  0  0  0  0
    4.8810   66.7290   62.1970 C   0  0  0  0  0  0  0  0  0  0  0  0
    4.5270   67.7090   63.2840 C   0  0  2  0  0  0  0  0  0  0  0  0
    5.5880   68.7200   63.6820 C   0  0  2  0  0  0  0  0  0  0  0  0
    5.3060   69.3100   65.0610 C   0  0  0  0  0  0  0  0  0  0  0  0
    4.3530   68.7260   65.9610 C   0  0  0  0  0  0  0  0  0  0  0  0
    4.1570   69.2860   67.2390 C   0  0  0  0  0  0  0  0  0  0  0  0
    4.9050   70.3870   67.5920 C   0  0  0  0  0  0  0  0  0  0  0  0
    4.8370   71.0430   68.7810 O   0  0  0  0  0  0  0  0  0  0  0  0
    5.8120   72.0850   68.5710 C   0  0  0  0  0  0  0  0  0  0  0  0
    6.4520   72.0200   67.2800 O   0  0  0  0  0  0  0  0  0  0  0  0
    5.8230   70.9440   66.7370 C   0  0  0  0  0  0  0  0  0  0  0  0
    6.0490   70.4320   65.4770 C   0  0  0  0  0  0  0  0  0  0  0  0
   -0.3230   67.6410   65.8240 C   0  0  0  0  0  0  0  0  0  0  0  0
    1.0240   67.3620   66.0730 C   0  0  0  0  0  0  0  0  0  0  0  0
    2.0430   67.8740   65.2480 C   0  0  0  0  0  0  0  0  0  0  0  0
    1.6790   68.7010   64.1670 C   0  0  0  0  0  0  0  0  0  0  0  0
    0.3400   69.0150   63.9140 C   0  0  0  0  0  0  0  0  0  0  0  0
   -0.6540   68.4630   64.7360 C   0  0  0  0  0  0  0  0  0  0  0  0
   -1.1110   66.8790   67.9420 C   0  0  0  0  0  0  0  0  0  0  0  0
   -1.3710   67.1720   66.5750 O   0  0  0  0  0  0  0  0  0  0  0  0
   -1.9730   68.7920   64.5110 O   0  0  0  0  0  0  0  0  0  0  0  0
   -2.5820   69.2020   65.7340 C   0  0  0  0  0  0  0  0  0  0  0  0
   -0.0900   69.8140   62.8860 O   0  0  0  0  0  0  0  0  0  0  0  0
    0.4310   69.5420   61.5920 C   0  0  0  0  0  0  0  0  0  0  0  0
    5.6090   69.7650   62.7180 O   0  0  0  0  0  0  0  0  0  0  0  0
    3.3883   66.8234   66.4050 H   0  0  0  0  0  0  0  0  0  0  0  0
    5.0788   66.3901   65.0236 H   0  0  0  0  0  0  0  0  0  0  0  0
    5.9270   66.4017   62.2901 H   0  0  0  0  0  0  0  0  0  0  0  0
    4.7878   67.1599   61.1892 H   0  0  0  0  0  0  0  0  0  0  0  0
    3.7139   68.3705   62.9503 H   0  0  0  0  0  0  0  0  0  0  0  0
    6.5614   68.2093   63.7229 H   0  0  0  0  0  0  0  0  0  0  0  0
    3.4248   68.8545   67.9373 H   0  0  0  0  0  0  0  0  0  0  0  0
    5.3070   73.0581   68.6611 H   0  0  0  0  0  0  0  0  0  0  0  0
    6.5975   71.9519   69.3295 H   0  0  0  0  0  0  0  0  0  0  0  0
    6.7943   70.8903   64.8103 H   0  0  0  0  0  0  0  0  0  0  0  0
    1.2931   66.7292   66.9315 H   0  0  0  0  0  0  0  0  0  0  0  0
    2.4623   69.1071   63.5101 H   0  0  0  0  0  0  0  0  0  0  0  0
   -1.7057   67.5492   68.5802 H   0  0  0  0  0  0  0  0  0  0  0  0
   -1.3849   65.8345   68.1516 H   0  0  0  0  0  0  0  0  0  0  0  0
   -0.0413   67.0267   68.1516 H   0  0  0  0  0  0  0  0  0  0  0  0
   -2.0009   68.8108   66.5821 H   0  0  0  0  0  0  0  0  0  0  0  0
   -2.6058   70.3007   65.7815 H   0  0  0  0  0  0  0  0  0  0  0  0
   -3.6089   68.8106   65.7815 H   0  0  0  0  0  0  0  0  0  0  0  0
    1.4025   69.0348   61.6870 H   0  0  0  0  0  0  0  0  0  0  0  0
   -0.2688   68.8942   61.0437 H   0  0  0  0  0  0  0  0  0  0  0  0
    0.5626   70.4865   61.0437 H   0  0  0  0  0  0  0  0  0  0  0  0
    5.6266   70.6402   63.1804 H   0  0  0  0  0  0  0  0  0  0  0  0
  2  1  1  0
  3  2  1  0
  4  3  2  0
  5  3  1  0
  6  5  1  0
  7  6  1  0
  7  2  1  0
  8  7  1  0
  9  8  1  0
 10  9  2  0
 10  1  1  0
 11 10  1  0
 12 11  2  0
 13 12  1  0
 14 13  1  0
 15 14  1  0
 16 12  1  0
 16 15  1  0
 17 16  2  0
 17  9  1  0
 19 18  2  0
 20 19  1  0
 20  1  1  0
 21 20  2  0
 22 21  1  0
 23 22  2  0
 23 18  1  0
 25 24  1  0
 25 18  1  0
 26 23  1  0
 27 26  1  0
 28 22  1  0
 29 28  1  0
 30  8  1  0
  1 31  1  1
  2 32  1  1
  6 33  1  0
  6 34  1  0
  7 35  1  6
  8 36  1  1
 11 37  1  0
 14 38  1  0
 14 39  1  0
 17 40  1  0
 19 41  1  0
 21 42  1  0
 24 43  1  0
 24 44  1  0
 24 45  1  0
 27 46  1  0
 27 47  1  0
 27 48  1  0
 29 49  1  0
 29 50  1  0
 29 51  1  0
 30 52  1  0
M  END
>  <score>  (3) 
-8.376

$$$$
=
     RDKit          3D

 52 56  0  0  0  0  0  0  0  0999 V2000
    3.5230   67.4370   65.5530 C   0  0  1  0  0  0  0  0  0  0  0  0
    4.2270   66.7050   64.4130 C   0  0  1  0  0  0  0  0  0  0  0  0
    3.5610   65.5450   63.7370 C   0  0  0  0  0  0  0  0  0  0  0  0
    2.8920   64.6780   64.2720 O   0  0  0  0  0  0  0  0  0  0  0  0
    3.9170   65.5440   62.4100 O   0  0  0  0  0  0  0  0  0  0  0  0
    4.7940   66.6510   62.1510 C   0  0  0  0  0  0  0  0  0  0  0  0
    4.4670   67.6330   63.2450 C   0  0  2  0  0  0  0  0  0  0  0  0
    5.5290   68.6590   63.5990 C   0  0  2  0  0  0  0  0  0  0  0  0
    5.2900   69.2540   64.9840 C   0  0  0  0  0  0  0  0  0  0  0  0
    4.3770   68.6640   65.9210 C   0  0  0  0  0  0  0  0  0  0  0  0
    4.2210   69.2280   67.2020 C   0  0  0  0  0  0  0  0  0  0  0  0
    4.9670   70.3410   67.5220 C   0  0  0  0  0  0  0  0  0  0  0  0
    4.9340   71.0040   68.7080 O   0  0  0  0  0  0  0  0  0  0  0  0
    5.8870   72.0560   68.4580 C   0  0  0  0  0  0  0  0  0  0  0  0
    6.4810   71.9910   67.1440 O   0  0  0  0  0  0  0  0  0  0  0  0
    5.8460   70.9040   66.6310 C   0  0  0  0  0  0  0  0  0  0  0  0
    6.0330   70.3880   65.3670 C   0  0  0  0  0  0  0  0  0  0  0  0
    0.4050   68.9950   63.9610 C   0  0  0  0  0  0  0  0  0  0  0  0
    1.7290   68.6320   64.2270 C   0  0  0  0  0  0  0  0  0  0  0  0
    2.0540   67.7780   65.2970 C   0  0  0  0  0  0  0  0  0  0  0  0
    1.0080   67.2730   66.0930 C   0  0  0  0  0  0  0  0  0  0  0  0
   -0.3250   67.6020   65.8320 C   0  0  0  0  0  0  0  0  0  0  0  0
   -0.6140   68.4800   64.7770 C   0  0  0  0  0  0  0  0  0  0  0  0
    0.4410   69.4980   61.6300 C   0  0  0  0  0  0  0  0  0  0  0  0
    0.0110   69.8280   62.9450 O   0  0  0  0  0  0  0  0  0  0  0  0
   -1.9280   68.7860   64.4950 O   0  0  0  0  0  0  0  0  0  0  0  0
   -2.5970   69.1820   65.6910 C   0  0  0  0  0  0  0  0  0  0  0  0
   -1.3960   67.1470   66.5600 O   0  0  0  0  0  0  0  0  0  0  0  0
   -1.1710   66.8630   67.9340 C   0  0  0  0  0  0  0  0  0  0  0  0
    5.5020   69.6980   62.6290 O   0  0  0  0  0  0  0  0  0  0  0  0
    3.4526   66.7509   66.4099 H   0  0  0  0  0  0  0  0  0  0  0  0
    5.0988   66.3318   64.9704 H   0  0  0  0  0  0  0  0  0  0  0  0
    5.8470   66.3381   62.2074 H   0  0  0  0  0  0  0  0  0  0  0  0
    4.6581   67.0746   61.1450 H   0  0  0  0  0  0  0  0  0  0  0  0
    3.6340   68.2823   62.9375 H   0  0  0  0  0  0  0  0  0  0  0  0
    6.5094   68.1603   63.6079 H   0  0  0  0  0  0  0  0  0  0  0  0
    3.5208   68.7906   67.9290 H   0  0  0  0  0  0  0  0  0  0  0  0
    5.3736   73.0233   68.5611 H   0  0  0  0  0  0  0  0  0  0  0  0
    6.7008   71.9373   69.1885 H   0  0  0  0  0  0  0  0  0  0  0  0
    6.7477   70.8520   64.6714 H   0  0  0  0  0  0  0  0  0  0  0  0
    2.5334   69.0223   63.5862 H   0  0  0  0  0  0  0  0  0  0  0  0
    1.2445   66.6071   66.9360 H   0  0  0  0  0  0  0  0  0  0  0  0
    1.3125   68.8292   61.6862 H   0  0  0  0  0  0  0  0  0  0  0  0
   -0.3753   68.9923   61.0934 H   0  0  0  0  0  0  0  0  0  0  0  0
    0.7183   70.4173   61.0934 H   0  0  0  0  0  0  0  0  0  0  0  0
   -2.0207   68.8409   66.5636 H   0  0  0  0  0  0  0  0  0  0  0  0
   -2.6856   70.2781   65.7158 H   0  0  0  0  0  0  0  0  0  0  0  0
   -3.6006   68.7324   65.7158 H   0  0  0  0  0  0  0  0  0  0  0  0
   -1.7357   67.5757   68.5530 H   0  0  0  0  0  0  0  0  0  0  0  0
   -1.5056   65.8390   68.1563 H   0  0  0  0  0  0  0  0  0  0  0  0
   -0.0976   66.9544   68.1563 H   0  0  0  0  0  0  0  0  0  0  0  0
    5.4792   70.5758   63.0862 H   0  0  0  0  0  0  0  0  0  0  0  0
  2  1  1  0
  3  2  1  0
  4  3  2  0
  5  3  1  0
  6  5  1  0
  7  6  1  0
  7  2  1  0
  8  7  1  0
  9  8  1  0
 10  9  2  0
 10  1  1  0
 11 10  1  0
 12 11  2  0
 13 12  1  0
 14 13  1  0
 15 14  1  0
 16 12  1  0
 16 15  1  0
 17 16  2  0
 17  9  1  0
 19 18  2  0
 20 19  1  0
 20  1  1  0
 21 20  2  0
 22 21  1  0
 23 22  2  0
 23 18  1  0
 25 24  1  0
 25 18  1  0
 26 23  1  0
 27 26  1  0
 28 22  1  0
 29 28  1  0
 30  8  1  0
  1 31  1  1
  2 32  1  1
  6 33  1  0
  6 34  1  0
  7 35  1  6
  8 36  1  1
 11 37  1  0
 14 38  1  0
 14 39  1  0
 17 40  1  0
 19 41  1  0
 21 42  1  0
 24 43  1  0
 24 44  1  0
 24 45  1  0
 27 46  1  0
 27 47  1  0
 27 48  1  0
 29 49  1  0
 29 50  1  0
 29 51  1  0
 30 52  1  0
M  END
>  <score>  (4) 
-8.236

$$$$
=
     RDKit          3D

 52 56  0  0  0  0  0  0  0  0999 V2000
    1.2210   60.3960   72.3350 C   0  0  1  0  0  0  0  0  0  0  0  0
    2.5730   60.3000   71.6340 C   0  0  1  0  0  0  0  0  0  0  0  0
    3.0880   61.4530   70.8270 C   0  0  0  0  0  0  0  0  0  0  0  0
    2.4340   62.1820   70.1000 O   0  0  0  0  0  0  0  0  0  0  0  0
    4.4560   61.4990   70.9450 O   0  0  0  0  0  0  0  0  0  0  0  0
    4.8970   60.4300   71.7960 C   0  0  0  0  0  0  0  0  0  0  0  0
    3.6880   60.1180   72.6380 C   0  0  2  0  0  0  0  0  0  0  0  0
    3.6120   58.7370   73.2630 C   0  0  2  0  0  0  0  0  0  0  0  0
    2.1840   58.3840   73.6670 C   0  0  0  0  0  0  0  0  0  0  0  0
    1.0530   59.1370   73.2040 C   0  0  0  0  0  0  0  0  0  0  0  0
   -0.2500   58.7480   73.5730 C   0  0  0  0  0  0  0  0  0  0  0  0
   -0.3990   57.6360   74.3720 C   0  0  0  0  0  0  0  0  0  0  0  0
   -1.5800   57.1300   74.8160 O   0  0  0  0  0  0  0  0  0  0  0  0
   -1.1190   56.0060   75.5930 C   0  0  0  0  0  0  0  0  0  0  0  0
    0.3150   55.8520   75.5840 O   0  0  0  0  0  0  0  0  0  0  0  0
    0.6800   56.9090   74.8110 C   0  0  0  0  0  0  0  0  0  0  0  0
    1.9730   57.2510   74.4760 C   0  0  0  0  0  0  0  0  0  0  0  0
    0.2500   64.0320   73.0560 C   0  0  0  0  0  0  0  0  0  0  0  0
    0.4700   62.8120   72.4100 C   0  0  0  0  0  0  0  0  0  0  0  0
    0.9770   61.6970   73.1020 C   0  0  0  0  0  0  0  0  0  0  0  0
    1.2430   61.8260   74.4790 C   0  0  0  0  0  0  0  0  0  0  0  0
    1.0070   63.0290   75.1520 C   0  0  0  0  0  0  0  0  0  0  0  0
    0.5300   64.1310   74.4280 C   0  0  0  0  0  0  0  0  0  0  0  0
    0.2140   65.4320   71.1260 C   0  0  0  0  0  0  0  0  0  0  0  0
   -0.2330   65.1630   72.4490 O   0  0  0  0  0  0  0  0  0  0  0  0
    0.2680   65.3110   75.0900 O   0  0  0  0  0  0  0  0  0  0  0  0
   -1.1000   65.3420   75.4940 C   0  0  0  0  0  0  0  0  0  0  0  0
    1.2380   63.2290   76.4900 O   0  0  0  0  0  0  0  0  0  0  0  0
    0.4040   62.5290   77.4030 C   0  0  0  0  0  0  0  0  0  0  0  0
    4.4480   58.7090   74.4130 O   0  0  0  0  0  0  0  0  0  0  0  0
    0.4369   60.4348   71.5645 H   0  0  0  0  0  0  0  0  0  0  0  0
    2.3449   59.4687   70.9507 H   0  0  0  0  0  0  0  0  0  0  0  0
    5.1969   59.5544   71.2016 H   0  0  0  0  0  0  0  0  0  0  0  0
    5.7762   60.7016   72.3987 H   0  0  0  0  0  0  0  0  0  0  0  0
    3.6715   60.7592   73.5316 H   0  0  0  0  0  0  0  0  0  0  0  0
    3.9466   57.9977   72.5204 H   0  0  0  0  0  0  0  0  0  0  0  0
   -1.1265   59.3182   73.2315 H   0  0  0  0  0  0  0  0  0  0  0  0
   -1.4483   56.1431   76.6336 H   0  0  0  0  0  0  0  0  0  0  0  0
   -1.5454   55.1001   75.1375 H   0  0  0  0  0  0  0  0  0  0  0  0
    2.8227   56.6508   74.8335 H   0  0  0  0  0  0  0  0  0  0  0  0
    0.2418   62.7219   71.3377 H   0  0  0  0  0  0  0  0  0  0  0  0
    1.6434   60.9654   75.0349 H   0  0  0  0  0  0  0  0  0  0  0  0
    1.1559   65.9988   71.1653 H   0  0  0  0  0  0  0  0  0  0  0  0
    0.3790   64.4831   70.5947 H   0  0  0  0  0  0  0  0  0  0  0  0
   -0.5472   66.0222   70.5947 H   0  0  0  0  0  0  0  0  0  0  0  0
   -1.1580   65.3433   76.5925 H   0  0  0  0  0  0  0  0  0  0  0  0
   -1.5780   66.2512   75.1005 H   0  0  0  0  0  0  0  0  0  0  0  0
   -1.6187   64.4554   75.1005 H   0  0  0  0  0  0  0  0  0  0  0  0
    0.6992   62.7768   78.4333 H   0  0  0  0  0  0  0  0  0  0  0  0
   -0.6438   62.8221   77.2412 H   0  0  0  0  0  0  0  0  0  0  0  0
    0.5110   61.4462   77.2412 H   0  0  0  0  0  0  0  0  0  0  0  0
    3.8876   58.7278   75.2289 H   0  0  0  0  0  0  0  0  0  0  0  0
  2  1  1  0
  3  2  1  0
  4  3  2  0
  5  3  1  0
  6  5  1  0
  7  6  1  0
  7  2  1  0
  8  7  1  0
  9  8  1  0
 10  9  2  0
 10  1  1  0
 11 10  1  0
 12 11  2  0
 13 12  1  0
 14 13  1  0
 15 14  1  0
 16 12  1  0
 16 15  1  0
 17 16  2  0
 17  9  1  0
 19 18  2  0
 20 19  1  0
 20  1  1  0
 21 20  2  0
 22 21  1  0
 23 22  2  0
 23 18  1  0
 25 24  1  0
 25 18  1  0
 26 23  1  0
 27 26  1  0
 28 22  1  0
 29 28  1  0
 30  8  1  0
  1 31  1  6
  2 32  1  6
  6 33  1  0
  6 34  1  0
  7 35  1  1
  8 36  1  6
 11 37  1  0
 14 38  1  0
 14 39  1  0
 17 40  1  0
 19 41  1  0
 21 42  1  0
 24 43  1  0
 24 44  1  0
 24 45  1  0
 27 46  1  0
 27 47  1  0
 27 48  1  0
 29 49  1  0
 29 50  1  0
 29 51  1  0
 30 52  1  0
M  END
>  <score>  (5) 
-7.703

$$$$
=
     RDKit          3D

 52 56  0  0  0  0  0  0  0  0999 V2000
    1.4680   60.6340   72.1810 C   0  0  1  0  0  0  0  0  0  0  0  0
    2.8720   60.5990   71.5820 C   0  0  1  0  0  0  0  0  0  0  0  0
    3.3910   61.7710   70.8070 C   0  0  0  0  0  0  0  0  0  0  0  0
    2.7600   62.4650   70.0290 O   0  0  0  0  0  0  0  0  0  0  0  0
    4.7430   61.8820   71.0260 O   0  0  0  0  0  0  0  0  0  0  0  0
    5.1680   60.8390   71.9160 C   0  0  0  0  0  0  0  0  0  0  0  0
    3.9160   60.4740   72.6690 C   0  0  2  0  0  0  0  0  0  0  0  0
    3.8580   59.0930   73.2970 C   0  0  2  0  0  0  0  0  0  0  0  0
    2.4210   58.6760   73.5960 C   0  0  0  0  0  0  0  0  0  0  0  0
    1.2940   59.3720   73.0450 C   0  0  0  0  0  0  0  0  0  0  0  0
   -0.0130   58.9240   73.3190 C   0  0  0  0  0  0  0  0  0  0  0  0
   -0.1690   57.8100   74.1140 C   0  0  0  0  0  0  0  0  0  0  0  0
   -1.3550   57.2510   74.4720 O   0  0  0  0  0  0  0  0  0  0  0  0
   -0.9020   56.1540   75.2910 C   0  0  0  0  0  0  0  0  0  0  0  0
    0.5350   56.0670   75.3890 O   0  0  0  0  0  0  0  0  0  0  0  0
    0.9070   57.1370   74.6370 C   0  0  0  0  0  0  0  0  0  0  0  0
    2.2040   57.5370   74.3960 C   0  0  0  0  0  0  0  0  0  0  0  0
    0.9830   63.1460   75.0340 C   0  0  0  0  0  0  0  0  0  0  0  0
    1.3160   61.9980   74.3070 C   0  0  0  0  0  0  0  0  0  0  0  0
    1.1070   61.9260   72.9180 C   0  0  0  0  0  0  0  0  0  0  0  0
    0.5710   63.0490   72.2600 C   0  0  0  0  0  0  0  0  0  0  0  0
    0.2540   64.2160   72.9610 C   0  0  0  0  0  0  0  0  0  0  0  0
    0.4450   64.2470   74.3510 C   0  0  0  0  0  0  0  0  0  0  0  0
    0.5120   62.3320   77.2260 C   0  0  0  0  0  0  0  0  0  0  0  0
    1.1480   63.2890   76.3880 O   0  0  0  0  0  0  0  0  0  0  0  0
    0.1620   65.4030   75.0450 O   0  0  0  0  0  0  0  0  0  0  0  0
   -1.1720   65.3490   75.5470 C   0  0  0  0  0  0  0  0  0  0  0  0
   -0.2680   65.3490   72.3900 O   0  0  0  0  0  0  0  0  0  0  0  0
    0.1590   65.6670   71.0720 C   0  0  0  0  0  0  0  0  0  0  0  0
    4.6060   59.1090   74.5060 O   0  0  0  0  0  0  0  0  0  0  0  0
    0.7426   60.6323   71.3541 H   0  0  0  0  0  0  0  0  0  0  0  0
    2.7351   59.7556   70.8892 H   0  0  0  0  0  0  0  0  0  0  0  0
    5.5517   59.9757   71.3525 H   0  0  0  0  0  0  0  0  0  0  0  0
    5.9860   61.1548   72.5802 H   0  0  0  0  0  0  0  0  0  0  0  0
    3.8029   61.1169   73.5544 H   0  0  0  0  0  0  0  0  0  0  0  0
    4.2813   58.3667   72.5875 H   0  0  0  0  0  0  0  0  0  0  0  0
   -0.8872   59.4505   72.9084 H   0  0  0  0  0  0  0  0  0  0  0  0
   -1.3134   56.2815   76.3032 H   0  0  0  0  0  0  0  0  0  0  0  0
   -1.2516   55.2266   74.8138 H   0  0  0  0  0  0  0  0  0  0  0  0
    3.0518   56.9785   74.8195 H   0  0  0  0  0  0  0  0  0  0  0  0
    1.7500   61.1344   74.8322 H   0  0  0  0  0  0  0  0  0  0  0  0
    0.3985   63.0074   71.1744 H   0  0  0  0  0  0  0  0  0  0  0  0
    0.6863   62.5942   78.2800 H   0  0  0  0  0  0  0  0  0  0  0  0
   -0.5691   62.3279   77.0231 H   0  0  0  0  0  0  0  0  0  0  0  0
    0.9269   61.3337   77.0231 H   0  0  0  0  0  0  0  0  0  0  0  0
   -1.1502   65.3499   76.6468 H   0  0  0  0  0  0  0  0  0  0  0  0
   -1.7336   66.2251   75.1907 H   0  0  0  0  0  0  0  0  0  0  0  0
   -1.6610   64.4303   75.1907 H   0  0  0  0  0  0  0  0  0  0  0  0
    1.0404   66.3234   71.1205 H   0  0  0  0  0  0  0  0  0  0  0  0
    0.4200   64.7415   70.5378 H   0  0  0  0  0  0  0  0  0  0  0  0
   -0.6529   66.1822   70.5378 H   0  0  0  0  0  0  0  0  0  0  0  0
    3.9861   59.0957   75.2778 H   0  0  0  0  0  0  0  0  0  0  0  0
  2  1  1  0
  3  2  1  0
  4  3  2  0
  5  3  1  0
  6  5  1  0
  7  6  1  0
  7  2  1  0
  8  7  1  0
  9  8  1  0
 10  9  2  0
 10  1  1  0
 11 10  1  0
 12 11  2  0
 13 12  1  0
 14 13  1  0
 15 14  1  0
 16 12  1  0
 16 15  1  0
 17 16  2  0
 17  9  1  0
 19 18  2  0
 20 19  1  0
 20  1  1  0
 21 20  2  0
 22 21  1  0
 23 22  2  0
 23 18  1  0
 25 24  1  0
 25 18  1  0
 26 23  1  0
 27 26  1  0
 28 22  1  0
 29 28  1  0
 30  8  1  0
  1 31  1  6
  2 32  1  6
  6 33  1  0
  6 34  1  0
  7 35  1  1
  8 36  1  6
 11 37  1  0
 14 38  1  0
 14 39  1  0
 17 40  1  0
 19 41  1  0
 21 42  1  0
 24 43  1  0
 24 44  1  0
 24 45  1  0
 27 46  1  0
 27 47  1  0
 27 48  1  0
 29 49  1  0
 29 50  1  0
 29 51  1  0
 30 52  1  0
M  END
>  <score>  (6) 
-7.677

$$$$
=
     RDKit          3D

 52 56  0  0  0  0  0  0  0  0999 V2000
    0.0440   60.1660   73.1820 C   0  0  1  0  0  0  0  0  0  0  0  0
   -0.8080   61.3440   73.6490 C   0  0  1  0  0  0  0  0  0  0  0  0
   -2.1330   61.1020   74.3050 C   0  0  0  0  0  0  0  0  0  0  0  0
   -2.9530   60.2540   73.9970 O   0  0  0  0  0  0  0  0  0  0  0  0
   -2.3400   62.0730   75.2540 O   0  0  0  0  0  0  0  0  0  0  0  0
   -1.2150   62.9650   75.2760 C   0  0  0  0  0  0  0  0  0  0  0  0
   -0.0880   62.1370   74.7160 C   0  0  2  0  0  0  0  0  0  0  0  0
    1.0890   62.8820   74.1120 C   0  0  2  0  0  0  0  0  0  0  0  0
    1.8990   61.9850   73.1810 C   0  0  0  0  0  0  0  0  0  0  0  0
    1.3980   60.7250   72.7100 C   0  0  0  0  0  0  0  0  0  0  0  0
    2.1680   59.9500   71.8200 C   0  0  0  0  0  0  0  0  0  0  0  0
    3.3920   60.4390   71.4180 C   0  0  0  0  0  0  0  0  0  0  0  0
    4.2530   59.8190   70.5680 O   0  0  0  0  0  0  0  0  0  0  0  0
    5.3340   60.7720   70.5350 C   0  0  0  0  0  0  0  0  0  0  0  0
    5.0920   61.9420   71.3440 O   0  0  0  0  0  0  0  0  0  0  0  0
    3.8700   61.6460   71.8610 C   0  0  0  0  0  0  0  0  0  0  0  0
    3.1540   62.4390   72.7310 C   0  0  0  0  0  0  0  0  0  0  0  0
   -0.5510   56.8090   74.9310 C   0  0  0  0  0  0  0  0  0  0  0  0
   -0.6180   57.8740   74.0280 C   0  0  0  0  0  0  0  0  0  0  0  0
    0.1800   59.0220   74.1890 C   0  0  0  0  0  0  0  0  0  0  0  0
    1.0730   59.0710   75.2770 C   0  0  0  0  0  0  0  0  0  0  0  0
    1.1750   58.0080   76.1780 C   0  0  0  0  0  0  0  0  0  0  0  0
    0.3440   56.8900   76.0080 C   0  0  0  0  0  0  0  0  0  0  0  0
   -2.6400   55.7260   75.3220 C   0  0  0  0  0  0  0  0  0  0  0  0
   -1.3020   55.6640   74.8460 O   0  0  0  0  0  0  0  0  0  0  0  0
    0.4600   55.8260   76.8760 O   0  0  0  0  0  0  0  0  0  0  0  0
    1.4130   54.8940   76.3680 C   0  0  0  0  0  0  0  0  0  0  0  0
    2.0220   57.9810   77.2570 O   0  0  0  0  0  0  0  0  0  0  0  0
    3.4170   58.0480   76.9880 C   0  0  0  0  0  0  0  0  0  0  0  0
    1.9250   63.3460   75.1650 O   0  0  0  0  0  0  0  0  0  0  0  0
   -0.4775   59.6746   72.3474 H   0  0  0  0  0  0  0  0  0  0  0  0
   -0.9825   61.8200   72.6728 H   0  0  0  0  0  0  0  0  0  0  0  0
   -1.4026   63.8477   74.6471 H   0  0  0  0  0  0  0  0  0  0  0  0
   -0.9988   63.3518   76.2828 H   0  0  0  0  0  0  0  0  0  0  0  0
    0.4052   61.5706   75.5197 H   0  0  0  0  0  0  0  0  0  0  0  0
    0.7039   63.7255   73.5202 H   0  0  0  0  0  0  0  0  0  0  0  0
    1.8013   58.9792   71.4553 H   0  0  0  0  0  0  0  0  0  0  0  0
    6.2459   60.2776   70.9011 H   0  0  0  0  0  0  0  0  0  0  0  0
    5.4347   61.1125   69.4939 H   0  0  0  0  0  0  0  0  0  0  0  0
    3.5543   63.4068   73.0672 H   0  0  0  0  0  0  0  0  0  0  0  0
   -1.3087   57.8135   73.1740 H   0  0  0  0  0  0  0  0  0  0  0  0
    1.7016   59.9623   75.4200 H   0  0  0  0  0  0  0  0  0  0  0  0
   -2.6382   55.7259   76.4220 H   0  0  0  0  0  0  0  0  0  0  0  0
   -3.1170   56.6472   74.9562 H   0  0  0  0  0  0  0  0  0  0  0  0
   -3.2002   54.8528   74.9562 H   0  0  0  0  0  0  0  0  0  0  0  0
    1.9220   54.3962   77.2065 H   0  0  0  0  0  0  0  0  0  0  0  0
    0.8980   54.1414   75.7529 H   0  0  0  0  0  0  0  0  0  0  0  0
    2.1539   55.4257   75.7529 H   0  0  0  0  0  0  0  0  0  0  0  0
    3.9726   58.0747   77.9370 H   0  0  0  0  0  0  0  0  0  0  0  0
    3.7218   57.1635   76.4095 H   0  0  0  0  0  0  0  0  0  0  0  0
    3.6356   58.9577   76.4095 H   0  0  0  0  0  0  0  0  0  0  0  0
    1.5148   63.1183   76.0368 H   0  0  0  0  0  0  0  0  0  0  0  0
  2  1  1  0
  3  2  1  0
  4  3  2  0
  5  3  1  0
  6  5  1  0
  7  6  1  0
  7  2  1  0
  8  7  1  0
  9  8  1  0
 10  9  2  0
 10  1  1  0
 11 10  1  0
 12 11  2  0
 13 12  1  0
 14 13  1  0
 15 14  1  0
 16 12  1  0
 16 15  1  0
 17 16  2  0
 17  9  1  0
 19 18  2  0
 20 19  1  0
 20  1  1  0
 21 20  2  0
 22 21  1  0
 23 22  2  0
 23 18  1  0
 25 24  1  0
 25 18  1  0
 26 23  1  0
 27 26  1  0
 28 22  1  0
 29 28  1  0
 30  8  1  0
  1 31  1  6
  2 32  1  6
  6 33  1  0
  6 34  1  0
  7 35  1  1
  8 36  1  6
 11 37  1  0
 14 38  1  0
 14 39  1  0
 17 40  1  0
 19 41  1  0
 21 42  1  0
 24 43  1  0
 24 44  1  0
 24 45  1  0
 27 46  1  0
 27 47  1  0
 27 48  1  0
 29 49  1  0
 29 50  1  0
 29 51  1  0
 30 52  1  0
M  END
>  <score>  (7) 
-7.563

$$$$
=
     RDKit          3D

 52 56  0  0  0  0  0  0  0  0999 V2000
    0.7240   59.5510   73.2350 C   0  0  1  0  0  0  0  0  0  0  0  0
   -0.7090   59.9140   73.6150 C   0  0  1  0  0  0  0  0  0  0  0  0
   -1.5270   58.9800   74.4540 C   0  0  0  0  0  0  0  0  0  0  0  0
   -1.5450   57.7630   74.3810 O   0  0  0  0  0  0  0  0  0  0  0  0
   -2.3550   59.7220   75.2610 O   0  0  0  0  0  0  0  0  0  0  0  0
   -2.1380   61.1190   75.0120 C   0  0  0  0  0  0  0  0  0  0  0  0
   -0.7400   61.1720   74.4530 C   0  0  2  0  0  0  0  0  0  0  0  0
   -0.3740   62.3770   73.6060 C   0  0  2  0  0  0  0  0  0  0  0  0
    0.8460   62.0960   72.7330 C   0  0  0  0  0  0  0  0  0  0  0  0
    1.3440   60.7670   72.5240 C   0  0  0  0  0  0  0  0  0  0  0  0
    2.4500   60.5550   71.6770 C   0  0  0  0  0  0  0  0  0  0  0  0
    3.0200   61.6470   71.0610 C   0  0  0  0  0  0  0  0  0  0  0  0
    4.0870   61.6150   70.2190 O   0  0  0  0  0  0  0  0  0  0  0  0
    4.2310   63.0160   69.9100 C   0  0  0  0  0  0  0  0  0  0  0  0
    3.2450   63.8490   70.5540 O   0  0  0  0  0  0  0  0  0  0  0  0
    2.5420   62.9190   71.2530 C   0  0  0  0  0  0  0  0  0  0  0  0
    1.4630   63.1760   72.0710 C   0  0  0  0  0  0  0  0  0  0  0  0
    2.6580   57.0990   75.4570 C   0  0  0  0  0  0  0  0  0  0  0  0
    1.8940   57.6440   74.4200 C   0  0  0  0  0  0  0  0  0  0  0  0
    1.5850   59.0170   74.3810 C   0  0  0  0  0  0  0  0  0  0  0  0
    2.0820   59.8460   75.4060 C   0  0  0  0  0  0  0  0  0  0  0  0
    2.8690   59.3280   76.4390 C   0  0  0  0  0  0  0  0  0  0  0  0
    3.1330   57.9500   76.4660 C   0  0  0  0  0  0  0  0  0  0  0  0
    2.2130   54.8420   74.8290 C   0  0  0  0  0  0  0  0  0  0  0  0
    2.9920   55.7740   75.5690 O   0  0  0  0  0  0  0  0  0  0  0  0
    3.9320   57.4370   77.4650 O   0  0  0  0  0  0  0  0  0  0  0  0
    3.1210   57.0130   78.5600 C   0  0  0  0  0  0  0  0  0  0  0  0
    3.3900   60.0710   77.4670 O   0  0  0  0  0  0  0  0  0  0  0  0
    2.4760   60.8310   78.2460 C   0  0  0  0  0  0  0  0  0  0  0  0
   -0.0940   63.4740   74.4670 O   0  0  0  0  0  0  0  0  0  0  0  0
    0.6898   58.6882   72.5535 H   0  0  0  0  0  0  0  0  0  0  0  0
   -1.1437   59.9479   72.6051 H   0  0  0  0  0  0  0  0  0  0  0  0
   -2.8662   61.5048   74.2834 H   0  0  0  0  0  0  0  0  0  0  0  0
   -2.2585   61.7356   75.9149 H   0  0  0  0  0  0  0  0  0  0  0  0
   -0.0067   61.2527   75.2689 H   0  0  0  0  0  0  0  0  0  0  0  0
   -1.2205   62.6089   72.9429 H   0  0  0  0  0  0  0  0  0  0  0  0
    2.8481   59.5429   71.5120 H   0  0  0  0  0  0  0  0  0  0  0  0
    5.2297   63.3437   70.2342 H   0  0  0  0  0  0  0  0  0  0  0  0
    4.0895   63.1253   68.8246 H   0  0  0  0  0  0  0  0  0  0  0  0
    1.0913   64.2027   72.2043 H   0  0  0  0  0  0  0  0  0  0  0  0
    1.5270   56.9863   73.6183 H   0  0  0  0  0  0  0  0  0  0  0  0
    1.8466   60.9204   75.3933 H   0  0  0  0  0  0  0  0  0  0  0  0
    1.6662   54.1877   75.5239 H   0  0  0  0  0  0  0  0  0  0  0  0
    1.4961   55.3847   74.1954 H   0  0  0  0  0  0  0  0  0  0  0  0
    2.8743   54.2327   74.1954 H   0  0  0  0  0  0  0  0  0  0  0  0
    3.6178   57.2727   79.5064 H   0  0  0  0  0  0  0  0  0  0  0  0
    2.1439   57.5156   78.5088 H   0  0  0  0  0  0  0  0  0  0  0  0
    2.9761   55.9238   78.5088 H   0  0  0  0  0  0  0  0  0  0  0  0
    2.6773   60.6636   79.3144 H   0  0  0  0  0  0  0  0  0  0  0  0
    2.5959   61.8994   78.0133 H   0  0  0  0  0  0  0  0  0  0  0  0
    1.4474   60.5182   78.0133 H   0  0  0  0  0  0  0  0  0  0  0  0
   -0.1688   63.1811   75.4097 H   0  0  0  0  0  0  0  0  0  0  0  0
  2  1  1  0
  3  2  1  0
  4  3  2  0
  5  3  1  0
  6  5  1  0
  7  6  1  0
  7  2  1  0
  8  7  1  0
  9  8  1  0
 10  9  2  0
 10  1  1  0
 11 10  1  0
 12 11  2  0
 13 12  1  0
 14 13  1  0
 15 14  1  0
 16 12  1  0
 16 15  1  0
 17 16  2  0
 17  9  1  0
 19 18  2  0
 20 19  1  0
 20  1  1  0
 21 20  2  0
 22 21  1  0
 23 22  2  0
 23 18  1  0
 25 24  1  0
 25 18  1  0
 26 23  1  0
 27 26  1  0
 28 22  1  0
 29 28  1  0
 30  8  1  0
  1 31  1  6
  2 32  1  6
  6 33  1  0
  6 34  1  0
  7 35  1  1
  8 36  1  6
 11 37  1  0
 14 38  1  0
 14 39  1  0
 17 40  1  0
 19 41  1  0
 21 42  1  0
 24 43  1  0
 24 44  1  0
 24 45  1  0
 27 46  1  0
 27 47  1  0
 27 48  1  0
 29 49  1  0
 29 50  1  0
 29 51  1  0
 30 52  1  0
M  END
>  <score>  (8) 
-7.534

$$$$
=
     RDKit          3D

 52 56  0  0  0  0  0  0  0  0999 V2000
    0.6990   59.6150   73.2270 C   0  0  1  0  0  0  0  0  0  0  0  0
   -0.6990   60.0460   73.6620 C   0  0  1  0  0  0  0  0  0  0  0  0
   -1.5420   59.1360   74.5020 C   0  0  0  0  0  0  0  0  0  0  0  0
   -1.6300   57.9240   74.3980 O   0  0  0  0  0  0  0  0  0  0  0  0
   -2.3030   59.8990   75.3540 O   0  0  0  0  0  0  0  0  0  0  0  0
   -2.0160   61.2890   75.1330 C   0  0  0  0  0  0  0  0  0  0  0  0
   -0.6350   61.2800   74.5320 C   0  0  2  0  0  0  0  0  0  0  0  0
   -0.2280   62.4860   73.7050 C   0  0  2  0  0  0  0  0  0  0  0  0
    0.9470   62.1630   72.7870 C   0  0  0  0  0  0  0  0  0  0  0  0
    1.3640   60.8140   72.5280 C   0  0  0  0  0  0  0  0  0  0  0  0
    2.4300   60.5660   71.6420 C   0  0  0  0  0  0  0  0  0  0  0  0
    3.0420   61.6410   71.0350 C   0  0  0  0  0  0  0  0  0  0  0  0
    4.0790   61.5730   70.1590 O   0  0  0  0  0  0  0  0  0  0  0  0
    4.2910   62.9720   69.8820 C   0  0  0  0  0  0  0  0  0  0  0  0
    3.3720   63.8400   70.5780 O   0  0  0  0  0  0  0  0  0  0  0  0
    2.6400   62.9310   71.2750 C   0  0  0  0  0  0  0  0  0  0  0  0
    1.6030   63.2240   72.1340 C   0  0  0  0  0  0  0  0  0  0  0  0
    2.8770   59.3370   76.3680 C   0  0  0  0  0  0  0  0  0  0  0  0
    2.0640   59.8390   75.3470 C   0  0  0  0  0  0  0  0  0  0  0  0
    1.5640   59.0030   74.3310 C   0  0  0  0  0  0  0  0  0  0  0  0
    1.8830   57.6330   74.3720 C   0  0  0  0  0  0  0  0  0  0  0  0
    2.6740   57.1040   75.3970 C   0  0  0  0  0  0  0  0  0  0  0  0
    3.1830   57.9680   76.3780 C   0  0  0  0  0  0  0  0  0  0  0  0
    2.5000   60.8370   78.1840 C   0  0  0  0  0  0  0  0  0  0  0  0
    3.4080   60.0890   77.3850 O   0  0  0  0  0  0  0  0  0  0  0  0
    3.9380   57.4490   77.4070 O   0  0  0  0  0  0  0  0  0  0  0  0
    3.0810   57.0050   78.4570 C   0  0  0  0  0  0  0  0  0  0  0  0
    3.0240   55.7820   75.5050 O   0  0  0  0  0  0  0  0  0  0  0  0
    2.1430   54.8280   74.9260 C   0  0  0  0  0  0  0  0  0  0  0  0
    0.1380   63.5420   74.5850 O   0  0  0  0  0  0  0  0  0  0  0  0
    0.5956   58.7743   72.5252 H   0  0  0  0  0  0  0  0  0  0  0  0
   -1.1611   60.1316   72.6675 H   0  0  0  0  0  0  0  0  0  0  0  0
   -2.7431   61.7334   74.4374 H   0  0  0  0  0  0  0  0  0  0  0  0
   -2.0749   61.8871   76.0543 H   0  0  0  0  0  0  0  0  0  0  0  0
    0.1258   61.2977   75.3262 H   0  0  0  0  0  0  0  0  0  0  0  0
   -1.0797   62.7820   73.0749 H   0  0  0  0  0  0  0  0  0  0  0  0
    2.7662   59.5384   71.4393 H   0  0  0  0  0  0  0  0  0  0  0  0
    5.3156   63.2357   70.1832 H   0  0  0  0  0  0  0  0  0  0  0  0
    4.1234   63.1186   68.8048 H   0  0  0  0  0  0  0  0  0  0  0  0
    1.2940   64.2656   72.3060 H   0  0  0  0  0  0  0  0  0  0  0  0
    1.8100   60.9092   75.3377 H   0  0  0  0  0  0  0  0  0  0  0  0
    1.5034   56.9662   73.5838 H   0  0  0  0  0  0  0  0  0  0  0  0
    2.7156   60.6594   79.2479 H   0  0  0  0  0  0  0  0  0  0  0  0
    2.6121   61.9083   77.9610 H   0  0  0  0  0  0  0  0  0  0  0  0
    1.4700   60.5219   77.9610 H   0  0  0  0  0  0  0  0  0  0  0  0
    3.5386   57.2421   79.4288 H   0  0  0  0  0  0  0  0  0  0  0  0
    2.1085   57.5127   78.3760 H   0  0  0  0  0  0  0  0  0  0  0  0
    2.9349   55.9178   78.3760 H   0  0  0  0  0  0  0  0  0  0  0  0
    1.6293   54.2717   75.7239 H   0  0  0  0  0  0  0  0  0  0  0  0
    1.3992   55.3464   74.3031 H   0  0  0  0  0  0  0  0  0  0  0  0
    2.7189   54.1278   74.3031 H   0  0  0  0  0  0  0  0  0  0  0  0
    0.0338   63.2414   75.5225 H   0  0  0  0  0  0  0  0  0  0  0  0
  2  1  1  0
  3  2  1  0
  4  3  2  0
  5  3  1  0
  6  5  1  0
  7  6  1  0
  7  2  1  0
  8  7  1  0
  9  8  1  0
 10  9  2  0
 10  1  1  0
 11 10  1  0
 12 11  2  0
 13 12  1  0
 14 13  1  0
 15 14  1  0
 16 12  1  0
 16 15  1  0
 17 16  2  0
 17  9  1  0
 19 18  2  0
 20 19  1  0
 20  1  1  0
 21 20  2  0
 22 21  1  0
 23 22  2  0
 23 18  1  0
 25 24  1  0
 25 18  1  0
 26 23  1  0
 27 26  1  0
 28 22  1  0
 29 28  1  0
 30  8  1  0
  1 31  1  6
  2 32  1  6
  6 33  1  0
  6 34  1  0
  7 35  1  1
  8 36  1  6
 11 37  1  0
 14 38  1  0
 14 39  1  0
 17 40  1  0
 19 41  1  0
 21 42  1  0
 24 43  1  0
 24 44  1  0
 24 45  1  0
 27 46  1  0
 27 47  1  0
 27 48  1  0
 29 49  1  0
 29 50  1  0
 29 51  1  0
 30 52  1  0
M  END
>  <score>  (9) 
-7.42

$$$$
