=
     RDKit          3D

 60 63  0  0  0  0  0  0  0  0999 V2000
    1.3720   67.5850   66.8480 C   0  0  0  0  0  0  0  0  0  0  0  0
    1.9180   66.5730   66.4220 O   0  0  0  0  0  0  0  0  0  0  0  0
    1.8440   68.8820   66.7390 N   0  0  0  0  0  0  0  0  0  0  0  0
    3.1020   69.2780   66.1990 C   0  0  0  0  0  0  0  0  0  0  0  0
    3.4380   69.0660   64.8450 C   0  0  0  0  0  0  0  0  0  0  0  0
    2.5090   68.4310   63.8370 C   0  0  0  0  0  0  0  0  0  0  0  0
    3.2220   67.8250   62.6280 C   0  0  0  0  0  0  0  0  0  0  0  0
    4.1600   68.8570   62.0270 C   0  0  0  0  0  0  0  0  0  0  0  0
    5.2350   69.2250   63.0390 C   0  0  0  0  0  0  0  0  0  0  0  0
    4.7230   69.4470   64.4400 C   0  0  0  0  0  0  0  0  0  0  0  0
    5.6450   69.9530   65.2900 N   0  0  0  0  0  0  0  0  0  0  0  0
    5.3340   70.1270   66.5750 C   0  0  0  0  0  0  0  0  0  0  0  0
    4.0720   69.8060   67.1090 C   0  0  0  0  0  0  0  0  0  0  0  0
    3.8600   70.0610   68.4940 C   0  0  0  0  0  0  0  0  0  0  0  0
    4.8650   70.5870   69.3090 C   0  0  0  0  0  0  0  0  0  0  0  0
    6.1020   70.8780   68.7610 C   0  0  0  0  0  0  0  0  0  0  0  0
    6.3200   70.6480   67.4040 C   0  0  0  0  0  0  0  0  0  0  0  0
   -0.0240   67.5100   67.4810 C   0  0  0  0  0  0  0  0  0  0  0  0
    0.8210   66.6690   69.6470 C   0  0  0  0  0  0  0  0  0  0  0  0
    1.6540   67.5760   69.6910 O   0  0  0  0  0  0  0  0  0  0  0  0
   -0.0810   66.5790   68.6140 N   0  0  0  0  0  0  0  0  0  0  0  0
    0.6770   65.6890   70.8330 C   0  0  1  0  0  0  0  0  0  0  0  0
   -0.3690   65.5940   73.1450 C   0  0  0  0  0  0  0  0  0  0  0  0
   -0.4800   66.0930   71.7450 N   0  0  0  0  0  4  0  0  0  0  0  0
    0.5180   64.2190   70.4090 C   0  0  0  0  0  0  0  0  0  0  0  0
    1.8410   63.5040   70.2840 C   0  0  0  0  0  0  0  0  0  0  0  0
    3.0220   64.1120   70.7340 C   0  0  0  0  0  0  0  0  0  0  0  0
    4.2510   63.4690   70.5760 C   0  0  0  0  0  0  0  0  0  0  0  0
    4.3100   62.2140   69.9750 C   0  0  0  0  0  0  0  0  0  0  0  0
    3.1420   61.5950   69.5390 C   0  0  0  0  0  0  0  0  0  0  0  0
    1.9110   62.2330   69.6960 C   0  0  0  0  0  0  0  0  0  0  0  0
    1.2269   69.6325   67.0809 H   0  0  0  0  0  0  0  0  0  0  0  0
    1.9450   67.6327   64.3416 H   0  0  0  0  0  0  0  0  0  0  0  0
    1.8598   69.2323   63.4543 H   0  0  0  0  0  0  0  0  0  0  0  0
    3.7999   66.9446   62.9458 H   0  0  0  0  0  0  0  0  0  0  0  0
    2.4783   67.5221   61.8762 H   0  0  0  0  0  0  0  0  0  0  0  0
    4.6336   68.4397   61.1261 H   0  0  0  0  0  0  0  0  0  0  0  0
    3.5875   69.7577   61.7604 H   0  0  0  0  0  0  0  0  0  0  0  0
    5.9735   68.4103   63.0678 H   0  0  0  0  0  0  0  0  0  0  0  0
    5.6641   70.1818   62.7067 H   0  0  0  0  0  0  0  0  0  0  0  0
    2.8771   69.8374   68.9343 H   0  0  0  0  0  0  0  0  0  0  0  0
    4.6749   70.7684   70.3772 H   0  0  0  0  0  0  0  0  0  0  0  0
    6.9057   71.2871   69.3908 H   0  0  0  0  0  0  0  0  0  0  0  0
    7.3045   70.8866   66.9752 H   0  0  0  0  0  0  0  0  0  0  0  0
   -0.3047   68.5130   67.8348 H   0  0  0  0  0  0  0  0  0  0  0  0
   -0.7190   67.1417   66.7120 H   0  0  0  0  0  0  0  0  0  0  0  0
   -0.8067   65.8484   68.6353 H   0  0  0  0  0  0  0  0  0  0  0  0
    1.6261   65.7595   71.3847 H   0  0  0  0  0  0  0  0  0  0  0  0
   -0.5532   66.4222   73.8451 H   0  0  0  0  0  0  0  0  0  0  0  0
   -1.1126   64.8007   73.3116 H   0  0  0  0  0  0  0  0  0  0  0  0
    0.6408   65.1908   73.3116 H   0  0  0  0  0  0  0  0  0  0  0  0
   -0.5231   67.1217   71.7729 H   0  0  0  0  0  0  0  0  0  0  0  0
   -1.3283   65.6641   71.3483 H   0  0  0  0  0  0  0  0  0  0  0  0
   -0.0933   63.6995   71.1616 H   0  0  0  0  0  0  0  0  0  0  0  0
    0.0389   64.2081   69.4189 H   0  0  0  0  0  0  0  0  0  0  0  0
    2.9797   65.1008   71.2140 H   0  0  0  0  0  0  0  0  0  0  0  0
    5.1739   63.9541   70.9266 H   0  0  0  0  0  0  0  0  0  0  0  0
    5.2800   61.7118   69.8448 H   0  0  0  0  0  0  0  0  0  0  0  0
    3.1895   60.6012   69.0699 H   0  0  0  0  0  0  0  0  0  0  0  0
    0.9902   61.7360   69.3565 H   0  0  0  0  0  0  0  0  0  0  0  0
  2  1  2  0
  3  1  1  0
  4  3  1  0
  5  4  1  0
  6  5  1  0
  7  6  1  0
  8  7  1  0
  9  8  1  0
 10  9  1  0
 10  5  2  0
 11 10  1  0
 12 11  2  0
 13 12  1  0
 13  4  2  0
 14 13  1  0
 15 14  2  0
 16 15  1  0
 17 12  1  0
 17 16  2  0
 18  1  1  0
 20 19  2  0
 21 19  1  0
 21 18  1  0
 22 19  1  0
 24 22  1  0
 24 23  1  0
 25 22  1  0
 26 25  1  0
 27 26  2  0
 28 27  1  0
 29 28  2  0
 30 29  1  0
 31 30  2  0
 31 26  1  0
  3 32  1  0
  6 33  1  0
  6 34  1  0
  7 35  1  0
  7 36  1  0
  8 37  1  0
  8 38  1  0
  9 39  1  0
  9 40  1  0
 14 41  1  0
 15 42  1  0
 16 43  1  0
 17 44  1  0
 18 45  1  0
 18 46  1  0
 21 47  1  0
 22 48  1  1
 23 49  1  0
 23 50  1  0
 23 51  1  0
 24 52  1  0
 24 53  1  0
 25 54  1  0
 25 55  1  0
 27 56  1  0
 28 57  1  0
 29 58  1  0
 30 59  1  0
 31 60  1  0
M  CHG  1  24   1
M  END
>  <score>  (1) 
-12.311

$$$$
=
     RDKit          3D

 60 63  0  0  0  0  0  0  0  0999 V2000
    0.4350   64.4120   70.7680 C   0  0  0  0  0  0  0  0  0  0  0  0
    0.0300   63.7260   69.8370 O   0  0  0  0  0  0  0  0  0  0  0  0
    1.2260   63.9850   71.8210 N   0  0  0  0  0  0  0  0  0  0  0  0
    1.6390   62.6460   72.0760 C   0  0  0  0  0  0  0  0  0  0  0  0
    2.9220   62.1750   71.7220 C   0  0  0  0  0  0  0  0  0  0  0  0
    3.9820   63.0320   71.0700 C   0  0  0  0  0  0  0  0  0  0  0  0
    5.0440   62.2370   70.3100 C   0  0  0  0  0  0  0  0  0  0  0  0
    5.6060   61.1540   71.2140 C   0  0  0  0  0  0  0  0  0  0  0  0
    4.5040   60.1750   71.5910 C   0  0  0  0  0  0  0  0  0  0  0  0
    3.1960   60.8250   71.9720 C   0  0  0  0  0  0  0  0  0  0  0  0
    2.2830   59.9680   72.4820 N   0  0  0  0  0  0  0  0  0  0  0  0
    1.0630   60.4090   72.7910 C   0  0  0  0  0  0  0  0  0  0  0  0
    0.6630   61.7460   72.6100 C   0  0  0  0  0  0  0  0  0  0  0  0
   -0.6610   62.0940   73.0010 C   0  0  0  0  0  0  0  0  0  0  0  0
   -1.5480   61.1490   73.5220 C   0  0  0  0  0  0  0  0  0  0  0  0
   -1.1330   59.8370   73.6730 C   0  0  0  0  0  0  0  0  0  0  0  0
    0.1650   59.4850   73.3090 C   0  0  0  0  0  0  0  0  0  0  0  0
    0.1750   65.9250   70.7930 C   0  0  0  0  0  0  0  0  0  0  0  0
    0.1200   66.8370   68.4950 C   0  0  0  0  0  0  0  0  0  0  0  0
   -1.0640   66.5170   68.3810 O   0  0  0  0  0  0  0  0  0  0  0  0
    0.8070   66.6240   69.6670 N   0  0  0  0  0  0  0  0  0  0  0  0
    0.8250   67.6220   67.3660 C   0  0  1  0  0  0  0  0  0  0  0  0
   -0.7550   68.7250   65.7120 C   0  0  0  0  0  0  0  0  0  0  0  0
    0.0500   67.5180   66.0540 N   0  0  0  0  0  4  0  0  0  0  0  0
    1.0820   69.1010   67.7040 C   0  0  0  0  0  0  0  0  0  0  0  0
    2.5400   69.4760   67.5990 C   0  0  0  0  0  0  0  0  0  0  0  0
    3.1850   70.1260   68.6620 C   0  0  0  0  0  0  0  0  0  0  0  0
    4.5210   70.5120   68.5470 C   0  0  0  0  0  0  0  0  0  0  0  0
    5.2250   70.2490   67.3740 C   0  0  0  0  0  0  0  0  0  0  0  0
    4.5990   69.5900   66.3190 C   0  0  0  0  0  0  0  0  0  0  0  0
    3.2640   69.2010   66.4300 C   0  0  0  0  0  0  0  0  0  0  0  0
    1.5467   64.7051   72.4839 H   0  0  0  0  0  0  0  0  0  0  0  0
    3.4882   63.7141   70.3622 H   0  0  0  0  0  0  0  0  0  0  0  0
    4.5023   63.5652   71.8793 H   0  0  0  0  0  0  0  0  0  0  0  0
    4.5900   61.7743   69.4213 H   0  0  0  0  0  0  0  0  0  0  0  0
    5.8544   62.9118   69.9972 H   0  0  0  0  0  0  0  0  0  0  0  0
    6.4071   60.6164   70.6856 H   0  0  0  0  0  0  0  0  0  0  0  0
    6.0097   61.6160   72.1270 H   0  0  0  0  0  0  0  0  0  0  0  0
    4.3220   59.5140   70.7308 H   0  0  0  0  0  0  0  0  0  0  0  0
    4.8564   59.6332   72.4811 H   0  0  0  0  0  0  0  0  0  0  0  0
   -0.9948   63.1362   72.8897 H   0  0  0  0  0  0  0  0  0  0  0  0
   -2.5676   61.4449   73.8099 H   0  0  0  0  0  0  0  0  0  0  0  0
   -1.8213   59.0797   74.0764 H   0  0  0  0  0  0  0  0  0  0  0  0
    0.4889   58.4415   73.4360 H   0  0  0  0  0  0  0  0  0  0  0  0
   -0.9106   66.0969   70.7501 H   0  0  0  0  0  0  0  0  0  0  0  0
    0.6118   66.3234   71.7206 H   0  0  0  0  0  0  0  0  0  0  0  0
    1.7769   66.9589   69.7561 H   0  0  0  0  0  0  0  0  0  0  0  0
    1.8101   67.1458   67.2531 H   0  0  0  0  0  0  0  0  0  0  0  0
   -1.0850   69.2199   66.6373 H   0  0  0  0  0  0  0  0  0  0  0  0
   -0.1398   69.4213   65.1232 H   0  0  0  0  0  0  0  0  0  0  0  0
   -1.6342   68.4246   65.1232 H   0  0  0  0  0  0  0  0  0  0  0  0
    0.7257   67.3563   65.2936 H   0  0  0  0  0  0  0  0  0  0  0  0
   -0.6194   66.7439   66.1707 H   0  0  0  0  0  0  0  0  0  0  0  0
    0.5062   69.7269   67.0063 H   0  0  0  0  0  0  0  0  0  0  0  0
    0.7708   69.2632   68.7465 H   0  0  0  0  0  0  0  0  0  0  0  0
    2.6343   70.3325   69.5915 H   0  0  0  0  0  0  0  0  0  0  0  0
    5.0188   71.0245   69.3834 H   0  0  0  0  0  0  0  0  0  0  0  0
    6.2755   70.5619   67.2811 H   0  0  0  0  0  0  0  0  0  0  0  0
    5.1583   69.3758   65.3963 H   0  0  0  0  0  0  0  0  0  0  0  0
    2.7764   68.6755   65.5957 H   0  0  0  0  0  0  0  0  0  0  0  0
  2  1  2  0
  3  1  1  0
  4  3  1  0
  5  4  1  0
  6  5  1  0
  7  6  1  0
  8  7  1  0
  9  8  1  0
 10  9  1  0
 10  5  2  0
 11 10  1  0
 12 11  2  0
 13 12  1  0
 13  4  2  0
 14 13  1  0
 15 14  2  0
 16 15  1  0
 17 12  1  0
 17 16  2  0
 18  1  1  0
 20 19  2  0
 21 19  1  0
 21 18  1  0
 22 19  1  0
 24 22  1  0
 24 23  1  0
 25 22  1  0
 26 25  1  0
 27 26  2  0
 28 27  1  0
 29 28  2  0
 30 29  1  0
 31 30  2  0
 31 26  1  0
  3 32  1  0
  6 33  1  0
  6 34  1  0
  7 35  1  0
  7 36  1  0
  8 37  1  0
  8 38  1  0
  9 39  1  0
  9 40  1  0
 14 41  1  0
 15 42  1  0
 16 43  1  0
 17 44  1  0
 18 45  1  0
 18 46  1  0
 21 47  1  0
 22 48  1  6
 23 49  1  0
 23 50  1  0
 23 51  1  0
 24 52  1  0
 24 53  1  0
 25 54  1  0
 25 55  1  0
 27 56  1  0
 28 57  1  0
 29 58  1  0
 30 59  1  0
 31 60  1  0
M  CHG  1  24   1
M  END
>  <score>  (2) 
-12.144

$$$$
=
     RDKit          3D

 60 63  0  0  0  0  0  0  0  0999 V2000
    1.3330   67.5300   66.7210 C   0  0  0  0  0  0  0  0  0  0  0  0
    1.8150   66.4880   66.2910 O   0  0  0  0  0  0  0  0  0  0  0  0
    1.8720   68.7990   66.5940 N   0  0  0  0  0  0  0  0  0  0  0  0
    3.1370   69.1240   66.0260 C   0  0  0  0  0  0  0  0  0  0  0  0
    4.1810   69.6880   66.7910 C   0  0  0  0  0  0  0  0  0  0  0  0
    4.0770   69.9770   68.2710 C   0  0  0  0  0  0  0  0  0  0  0  0
    5.0630   71.0340   68.7690 C   0  0  0  0  0  0  0  0  0  0  0  0
    6.4670   70.6680   68.3160 C   0  0  0  0  0  0  0  0  0  0  0  0
    6.5340   70.6770   66.7960 C   0  0  0  0  0  0  0  0  0  0  0  0
    5.3620   70.0160   66.1140 C   0  0  0  0  0  0  0  0  0  0  0  0
    5.5150   69.8620   64.7800 N   0  0  0  0  0  0  0  0  0  0  0  0
    4.5180   69.3550   64.0540 C   0  0  0  0  0  0  0  0  0  0  0  0
    3.2860   68.9630   64.6130 C   0  0  0  0  0  0  0  0  0  0  0  0
    2.3110   68.4140   63.7320 C   0  0  0  0  0  0  0  0  0  0  0  0
    2.5440   68.2870   62.3610 C   0  0  0  0  0  0  0  0  0  0  0  0
    3.7590   68.6960   61.8360 C   0  0  0  0  0  0  0  0  0  0  0  0
    4.7290   69.2210   62.6880 C   0  0  0  0  0  0  0  0  0  0  0  0
   -0.0520   67.5330   67.3830 C   0  0  0  0  0  0  0  0  0  0  0  0
    0.7890   66.6900   69.5490 C   0  0  0  0  0  0  0  0  0  0  0  0
    1.6590   67.5620   69.5680 O   0  0  0  0  0  0  0  0  0  0  0  0
   -0.1320   66.6220   68.5310 N   0  0  0  0  0  0  0  0  0  0  0  0
    0.6200   65.7360   70.7530 C   0  0  1  0  0  0  0  0  0  0  0  0
   -0.4160   65.8110   73.0700 C   0  0  0  0  0  0  0  0  0  0  0  0
   -0.5620   66.1520   71.6260 N   0  0  0  0  0  4  0  0  0  0  0  0
    0.4800   64.2550   70.3570 C   0  0  0  0  0  0  0  0  0  0  0  0
    1.8130   63.5560   70.2430 C   0  0  0  0  0  0  0  0  0  0  0  0
    2.9780   64.1630   70.7350 C   0  0  0  0  0  0  0  0  0  0  0  0
    4.2170   63.5360   70.5880 C   0  0  0  0  0  0  0  0  0  0  0  0
    4.3010   62.2980   69.9550 C   0  0  0  0  0  0  0  0  0  0  0  0
    3.1490   61.6790   69.4780 C   0  0  0  0  0  0  0  0  0  0  0  0
    1.9080   62.3020   69.6230 C   0  0  0  0  0  0  0  0  0  0  0  0
    1.3035   69.5834   66.9439 H   0  0  0  0  0  0  0  0  0  0  0  0
    3.0566   70.3282   68.4840 H   0  0  0  0  0  0  0  0  0  0  0  0
    4.3212   69.0416   68.7958 H   0  0  0  0  0  0  0  0  0  0  0  0
    4.7883   72.0157   68.3558 H   0  0  0  0  0  0  0  0  0  0  0  0
    5.0311   71.0776   69.8677 H   0  0  0  0  0  0  0  0  0  0  0  0
    7.1833   71.3997   68.7179 H   0  0  0  0  0  0  0  0  0  0  0  0
    6.7188   69.6631   68.6858 H   0  0  0  0  0  0  0  0  0  0  0  0
    6.5812   71.7235   66.4604 H   0  0  0  0  0  0  0  0  0  0  0  0
    7.4257   70.0956   66.5188 H   0  0  0  0  0  0  0  0  0  0  0  0
    1.3468   68.0805   64.1432 H   0  0  0  0  0  0  0  0  0  0  0  0
    1.7693   67.8657   61.7034 H   0  0  0  0  0  0  0  0  0  0  0  0
    3.9562   68.6073   60.7575 H   0  0  0  0  0  0  0  0  0  0  0  0
    5.6930   69.5396   62.2647 H   0  0  0  0  0  0  0  0  0  0  0  0
   -0.2755   68.5536   67.7272 H   0  0  0  0  0  0  0  0  0  0  0  0
   -0.7797   67.1884   66.6335 H   0  0  0  0  0  0  0  0  0  0  0  0
   -0.8875   65.9232   68.5743 H   0  0  0  0  0  0  0  0  0  0  0  0
    1.5539   65.8254   71.3274 H   0  0  0  0  0  0  0  0  0  0  0  0
   -0.7754   66.6505   73.6832 H   0  0  0  0  0  0  0  0  0  0  0  0
   -1.0081   64.9119   73.2961 H   0  0  0  0  0  0  0  0  0  0  0  0
    0.6432   65.6189   73.2961 H   0  0  0  0  0  0  0  0  0  0  0  0
   -0.6768   67.1725   71.5467 H   0  0  0  0  0  0  0  0  0  0  0  0
   -1.3784   65.6263   71.2825 H   0  0  0  0  0  0  0  0  0  0  0  0
   -0.1228   63.7416   71.1206 H   0  0  0  0  0  0  0  0  0  0  0  0
   -0.0009   64.2186   69.3683 H   0  0  0  0  0  0  0  0  0  0  0  0
    2.9152   65.1385   71.2395 H   0  0  0  0  0  0  0  0  0  0  0  0
    5.1271   64.0199   70.9722 H   0  0  0  0  0  0  0  0  0  0  0  0
    5.2786   61.8090   69.8319 H   0  0  0  0  0  0  0  0  0  0  0  0
    3.2166   60.6975   68.9861 H   0  0  0  0  0  0  0  0  0  0  0  0
    1.0000   61.8065   69.2489 H   0  0  0  0  0  0  0  0  0  0  0  0
  2  1  2  0
  3  1  1  0
  4  3  1  0
  5  4  1  0
  6  5  1  0
  7  6  1  0
  8  7  1  0
  9  8  1  0
 10  9  1  0
 10  5  2  0
 11 10  1  0
 12 11  2  0
 13 12  1  0
 13  4  2  0
 14 13  1  0
 15 14  2  0
 16 15  1  0
 17 12  1  0
 17 16  2  0
 18  1  1  0
 20 19  2  0
 21 19  1  0
 21 18  1  0
 22 19  1  0
 24 22  1  0
 24 23  1  0
 25 22  1  0
 26 25  1  0
 27 26  2  0
 28 27  1  0
 29 28  2  0
 30 29  1  0
 31 30  2  0
 31 26  1  0
  3 32  1  0
  6 33  1  0
  6 34  1  0
  7 35  1  0
  7 36  1  0
  8 37  1  0
  8 38  1  0
  9 39  1  0
  9 40  1  0
 14 41  1  0
 15 42  1  0
 16 43  1  0
 17 44  1  0
 18 45  1  0
 18 46  1  0
 21 47  1  0
 22 48  1  1
 23 49  1  0
 23 50  1  0
 23 51  1  0
 24 52  1  0
 24 53  1  0
 25 54  1  0
 25 55  1  0
 27 56  1  0
 28 57  1  0
 29 58  1  0
 30 59  1  0
 31 60  1  0
M  CHG  1  24   1
M  END
>  <score>  (3) 
-12.128

$$$$
=
     RDKit          3D

 60 63  0  0  0  0  0  0  0  0999 V2000
    0.3920   64.4460   70.7640 C   0  0  0  0  0  0  0  0  0  0  0  0
   -0.1330   63.7890   69.8720 O   0  0  0  0  0  0  0  0  0  0  0  0
    1.2360   63.9650   71.7510 N   0  0  0  0  0  0  0  0  0  0  0  0
    1.5750   62.6010   71.9790 C   0  0  0  0  0  0  0  0  0  0  0  0
    0.6820   61.6970   72.5940 C   0  0  0  0  0  0  0  0  0  0  0  0
   -0.7120   62.0680   73.0450 C   0  0  0  0  0  0  0  0  0  0  0  0
   -1.2830   61.1470   74.1230 C   0  0  0  0  0  0  0  0  0  0  0  0
   -1.1520   59.7020   73.6730 C   0  0  0  0  0  0  0  0  0  0  0  0
    0.3180   59.3440   73.5150 C   0  0  0  0  0  0  0  0  0  0  0  0
    1.1450   60.3950   72.8160 C   0  0  0  0  0  0  0  0  0  0  0  0
    2.4010   59.9960   72.5140 N   0  0  0  0  0  0  0  0  0  0  0  0
    3.2530   60.8590   71.9580 C   0  0  0  0  0  0  0  0  0  0  0  0
    2.9090   62.1920   71.6620 C   0  0  0  0  0  0  0  0  0  0  0  0
    3.9030   63.0060   71.0470 C   0  0  0  0  0  0  0  0  0  0  0  0
    5.1820   62.5200   70.7660 C   0  0  0  0  0  0  0  0  0  0  0  0
    5.4980   61.2100   71.0830 C   0  0  0  0  0  0  0  0  0  0  0  0
    4.5300   60.3970   71.6710 C   0  0  0  0  0  0  0  0  0  0  0  0
    0.2400   65.9730   70.8010 C   0  0  0  0  0  0  0  0  0  0  0  0
    0.0970   66.9140   68.5190 C   0  0  0  0  0  0  0  0  0  0  0  0
   -1.1150   66.6980   68.4900 O   0  0  0  0  0  0  0  0  0  0  0  0
    0.8460   66.6290   69.6360 N   0  0  0  0  0  0  0  0  0  0  0  0
    0.7830   67.6490   67.3460 C   0  0  1  0  0  0  0  0  0  0  0  0
   -0.8380   68.7730   65.7470 C   0  0  0  0  0  0  0  0  0  0  0  0
   -0.0500   67.5500   66.0690 N   0  0  0  0  0  4  0  0  0  0  0  0
    1.1090   69.1240   67.6420 C   0  0  0  0  0  0  0  0  0  0  0  0
    2.5690   69.4480   67.4320 C   0  0  0  0  0  0  0  0  0  0  0  0
    3.3160   70.0510   68.4550 C   0  0  0  0  0  0  0  0  0  0  0  0
    4.6530   70.3920   68.2440 C   0  0  0  0  0  0  0  0  0  0  0  0
    5.2550   70.1290   67.0160 C   0  0  0  0  0  0  0  0  0  0  0  0
    4.5270   69.5170   66.0000 C   0  0  0  0  0  0  0  0  0  0  0  0
    3.1900   69.1730   66.2060 C   0  0  0  0  0  0  0  0  0  0  0  0
    1.6594   64.6612   72.3810 H   0  0  0  0  0  0  0  0  0  0  0  0
   -0.6850   63.0926   73.4444 H   0  0  0  0  0  0  0  0  0  0  0  0
   -1.3665   61.9728   72.1660 H   0  0  0  0  0  0  0  0  0  0  0  0
   -0.7269   61.2911   75.0611 H   0  0  0  0  0  0  0  0  0  0  0  0
   -2.3442   61.3863   74.2864 H   0  0  0  0  0  0  0  0  0  0  0  0
   -1.6100   59.0423   74.4247 H   0  0  0  0  0  0  0  0  0  0  0  0
   -1.6633   59.5740   72.7075 H   0  0  0  0  0  0  0  0  0  0  0  0
    0.7423   59.1829   74.5170 H   0  0  0  0  0  0  0  0  0  0  0  0
    0.3554   58.4443   72.8832 H   0  0  0  0  0  0  0  0  0  0  0  0
    3.6566   64.0459   70.7862 H   0  0  0  0  0  0  0  0  0  0  0  0
    5.9323   63.1731   70.2965 H   0  0  0  0  0  0  0  0  0  0  0  0
    6.5027   60.8145   70.8731 H   0  0  0  0  0  0  0  0  0  0  0  0
    4.7866   59.3556   71.9154 H   0  0  0  0  0  0  0  0  0  0  0  0
   -0.8316   66.2199   70.8265 H   0  0  0  0  0  0  0  0  0  0  0  0
    0.7619   66.3381   71.6978 H   0  0  0  0  0  0  0  0  0  0  0  0
    1.8450   66.8789   69.6557 H   0  0  0  0  0  0  0  0  0  0  0  0
    1.7438   67.1328   67.2029 H   0  0  0  0  0  0  0  0  0  0  0  0
   -1.1533   69.2623   66.6804 H   0  0  0  0  0  0  0  0  0  0  0  0
   -0.2162   69.4662   65.1615 H   0  0  0  0  0  0  0  0  0  0  0  0
   -1.7262   68.4933   65.1615 H   0  0  0  0  0  0  0  0  0  0  0  0
    0.5883   67.3626   65.2826 H   0  0  0  0  0  0  0  0  0  0  0  0
   -0.7329   66.7946   66.2234 H   0  0  0  0  0  0  0  0  0  0  0  0
    0.5075   69.7588   66.9748 H   0  0  0  0  0  0  0  0  0  0  0  0
    0.8742   69.3119   68.7001 H   0  0  0  0  0  0  0  0  0  0  0  0
    2.8458   70.2561   69.4281 H   0  0  0  0  0  0  0  0  0  0  0  0
    5.2318   70.8690   69.0486 H   0  0  0  0  0  0  0  0  0  0  0  0
    6.3066   70.4052   66.8490 H   0  0  0  0  0  0  0  0  0  0  0  0
    5.0060   69.3040   65.0330 H   0  0  0  0  0  0  0  0  0  0  0  0
    2.6208   68.6835   65.4020 H   0  0  0  0  0  0  0  0  0  0  0  0
  2  1  2  0
  3  1  1  0
  4  3  1  0
  5  4  1  0
  6  5  1  0
  7  6  1  0
  8  7  1  0
  9  8  1  0
 10  9  1  0
 10  5  2  0
 11 10  1  0
 12 11  2  0
 13 12  1  0
 13  4  2  0
 14 13  1  0
 15 14  2  0
 16 15  1  0
 17 12  1  0
 17 16  2  0
 18  1  1  0
 20 19  2  0
 21 19  1  0
 21 18  1  0
 22 19  1  0
 24 22  1  0
 24 23  1  0
 25 22  1  0
 26 25  1  0
 27 26  2  0
 28 27  1  0
 29 28  2  0
 30 29  1  0
 31 30  2  0
 31 26  1  0
  3 32  1  0
  6 33  1  0
  6 34  1  0
  7 35  1  0
  7 36  1  0
  8 37  1  0
  8 38  1  0
  9 39  1  0
  9 40  1  0
 14 41  1  0
 15 42  1  0
 16 43  1  0
 17 44  1  0
 18 45  1  0
 18 46  1  0
 21 47  1  0
 22 48  1  6
 23 49  1  0
 23 50  1  0
 23 51  1  0
 24 52  1  0
 24 53  1  0
 25 54  1  0
 25 55  1  0
 27 56  1  0
 28 57  1  0
 29 58  1  0
 30 59  1  0
 31 60  1  0
M  CHG  1  24   1
M  END
>  <score>  (4) 
-12.017

$$$$
=
     RDKit          3D

 60 63  0  0  0  0  0  0  0  0999 V2000
    1.4630   67.6880   67.1690 C   0  0  0  0  0  0  0  0  0  0  0  0
    1.9350   66.6690   66.6790 O   0  0  0  0  0  0  0  0  0  0  0  0
    1.9630   68.9730   67.0370 N   0  0  0  0  0  0  0  0  0  0  0  0
    3.1770   69.3410   66.3890 C   0  0  0  0  0  0  0  0  0  0  0  0
    3.3980   69.1020   65.0160 C   0  0  0  0  0  0  0  0  0  0  0  0
    2.3800   68.4640   64.0990 C   0  0  0  0  0  0  0  0  0  0  0  0
    2.9830   67.8280   62.8470 C   0  0  0  0  0  0  0  0  0  0  0  0
    3.8830   68.8360   62.1520 C   0  0  0  0  0  0  0  0  0  0  0  0
    5.0420   69.2050   63.0650 C   0  0  0  0  0  0  0  0  0  0  0  0
    4.6500   69.4580   64.5000 C   0  0  0  0  0  0  0  0  0  0  0  0
    5.6460   69.9640   65.2630 N   0  0  0  0  0  0  0  0  0  0  0  0
    5.4440   70.1640   66.5650 C   0  0  0  0  0  0  0  0  0  0  0  0
    4.2250   69.8700   67.2060 C   0  0  0  0  0  0  0  0  0  0  0  0
    4.1320   70.1510   68.5990 C   0  0  0  0  0  0  0  0  0  0  0  0
    5.2070   70.6760   69.3190 C   0  0  0  0  0  0  0  0  0  0  0  0
    6.3990   70.9400   68.6670 C   0  0  0  0  0  0  0  0  0  0  0  0
    6.5010   70.6840   67.3000 C   0  0  0  0  0  0  0  0  0  0  0  0
    0.1290   67.6430   67.9290 C   0  0  0  0  0  0  0  0  0  0  0  0
    0.6010   66.0350   69.7460 C   0  0  0  0  0  0  0  0  0  0  0  0
    1.3690   66.8370   70.2770 O   0  0  0  0  0  0  0  0  0  0  0  0
   -0.0930   66.3590   68.6040 N   0  0  0  0  0  0  0  0  0  0  0  0
    0.2850   64.6880   70.4360 C   0  0  1  0  0  0  0  0  0  0  0  0
    2.6570   63.8410   70.1140 C   0  0  0  0  0  0  0  0  0  0  0  0
    1.2020   63.5780   69.9250 N   0  0  0  0  0  4  0  0  0  0  0  0
    0.3440   64.7480   71.9720 C   0  0  0  0  0  0  0  0  0  0  0  0
    0.4320   63.3790   72.6030 C   0  0  0  0  0  0  0  0  0  0  0  0
   -0.5050   62.3870   72.2810 C   0  0  0  0  0  0  0  0  0  0  0  0
   -0.4490   61.1360   72.8990 C   0  0  0  0  0  0  0  0  0  0  0  0
    0.5440   60.8650   73.8370 C   0  0  0  0  0  0  0  0  0  0  0  0
    1.4890   61.8380   74.1520 C   0  0  0  0  0  0  0  0  0  0  0  0
    1.4380   63.0890   73.5360 C   0  0  0  0  0  0  0  0  0  0  0  0
    1.4038   69.7350   67.4464 H   0  0  0  0  0  0  0  0  0  0  0  0
    1.8489   67.6826   64.6623 H   0  0  0  0  0  0  0  0  0  0  0  0
    1.7119   69.2681   63.7570 H   0  0  0  0  0  0  0  0  0  0  0  0
    3.5731   66.9445   63.1321 H   0  0  0  0  0  0  0  0  0  0  0  0
    2.1758   67.5242   62.1642 H   0  0  0  0  0  0  0  0  0  0  0  0
    4.2752   68.3963   61.2231 H   0  0  0  0  0  0  0  0  0  0  0  0
    3.3028   69.7405   61.9169 H   0  0  0  0  0  0  0  0  0  0  0  0
    5.7696   68.3802   63.0476 H   0  0  0  0  0  0  0  0  0  0  0  0
    5.4548   70.1497   62.6815 H   0  0  0  0  0  0  0  0  0  0  0  0
    3.1861   69.9486   69.1228 H   0  0  0  0  0  0  0  0  0  0  0  0
    5.1073   70.8781   70.3957 H   0  0  0  0  0  0  0  0  0  0  0  0
    7.2571   71.3476   69.2215 H   0  0  0  0  0  0  0  0  0  0  0  0
    7.4497   70.9011   66.7873 H   0  0  0  0  0  0  0  0  0  0  0  0
    0.1265   68.4430   68.6840 H   0  0  0  0  0  0  0  0  0  0  0  0
   -0.6780   67.7767   67.1936 H   0  0  0  0  0  0  0  0  0  0  0  0
   -0.7768   65.6926   68.2177 H   0  0  0  0  0  0  0  0  0  0  0  0
   -0.7571   64.4609   70.1668 H   0  0  0  0  0  0  0  0  0  0  0  0
    2.8855   63.8823   71.1892 H   0  0  0  0  0  0  0  0  0  0  0  0
    3.2394   63.0336   69.6461 H   0  0  0  0  0  0  0  0  0  0  0  0
    2.9199   64.8012   69.6461 H   0  0  0  0  0  0  0  0  0  0  0  0
    0.9647   62.7093   70.4249 H   0  0  0  0  0  0  0  0  0  0  0  0
    1.0458   63.5141   68.9089 H   0  0  0  0  0  0  0  0  0  0  0  0
    1.2291   65.3301   72.2682 H   0  0  0  0  0  0  0  0  0  0  0  0
   -0.5865   65.2179   72.3233 H   0  0  0  0  0  0  0  0  0  0  0  0
   -1.2885   62.5953   71.5375 H   0  0  0  0  0  0  0  0  0  0  0  0
   -1.1900   60.3638   72.6446 H   0  0  0  0  0  0  0  0  0  0  0  0
    0.5819   59.8820   74.3292 H   0  0  0  0  0  0  0  0  0  0  0  0
    2.2771   61.6201   74.8878 H   0  0  0  0  0  0  0  0  0  0  0  0
    2.1909   63.8518   73.7836 H   0  0  0  0  0  0  0  0  0  0  0  0
  2  1  2  0
  3  1  1  0
  4  3  1  0
  5  4  1  0
  6  5  1  0
  7  6  1  0
  8  7  1  0
  9  8  1  0
 10  9  1  0
 10  5  2  0
 11 10  1  0
 12 11  2  0
 13 12  1  0
 13  4  2  0
 14 13  1  0
 15 14  2  0
 16 15  1  0
 17 12  1  0
 17 16  2  0
 18  1  1  0
 20 19  2  0
 21 19  1  0
 21 18  1  0
 22 19  1  0
 24 22  1  0
 24 23  1  0
 25 22  1  0
 26 25  1  0
 27 26  2  0
 28 27  1  0
 29 28  2  0
 30 29  1  0
 31 30  2  0
 31 26  1  0
  3 32  1  0
  6 33  1  0
  6 34  1  0
  7 35  1  0
  7 36  1  0
  8 37  1  0
  8 38  1  0
  9 39  1  0
  9 40  1  0
 14 41  1  0
 15 42  1  0
 16 43  1  0
 17 44  1  0
 18 45  1  0
 18 46  1  0
 21 47  1  0
 22 48  1  1
 23 49  1  0
 23 50  1  0
 23 51  1  0
 24 52  1  0
 24 53  1  0
 25 54  1  0
 25 55  1  0
 27 56  1  0
 28 57  1  0
 29 58  1  0
 30 59  1  0
 31 60  1  0
M  CHG  1  24   1
M  END
>  <score>  (5) 
-11.454

$$$$
=
     RDKit          3D

 60 63  0  0  0  0  0  0  0  0999 V2000
    1.5020   67.6290   67.1430 C   0  0  0  0  0  0  0  0  0  0  0  0
    1.9490   66.5840   66.6850 O   0  0  0  0  0  0  0  0  0  0  0  0
    2.0450   68.8940   66.9860 N   0  0  0  0  0  0  0  0  0  0  0  0
    3.2780   69.2080   66.3460 C   0  0  0  0  0  0  0  0  0  0  0  0
    4.3640   69.7770   67.0460 C   0  0  0  0  0  0  0  0  0  0  0  0
    4.3420   70.0840   68.5260 C   0  0  0  0  0  0  0  0  0  0  0  0
    5.3570   71.1430   68.9560 C   0  0  0  0  0  0  0  0  0  0  0  0
    6.7320   70.7670   68.4310 C   0  0  0  0  0  0  0  0  0  0  0  0
    6.7170   70.7580   66.9100 C   0  0  0  0  0  0  0  0  0  0  0  0
    5.5070   70.0930   66.3020 C   0  0  0  0  0  0  0  0  0  0  0  0
    5.5860   69.9220   64.9630 N   0  0  0  0  0  0  0  0  0  0  0  0
    4.5500   69.4100   64.2990 C   0  0  0  0  0  0  0  0  0  0  0  0
    3.3490   69.0290   64.9280 C   0  0  0  0  0  0  0  0  0  0  0  0
    2.3260   68.4730   64.1090 C   0  0  0  0  0  0  0  0  0  0  0  0
    2.4840   68.3280   62.7290 C   0  0  0  0  0  0  0  0  0  0  0  0
    3.6690   68.7270   62.1340 C   0  0  0  0  0  0  0  0  0  0  0  0
    4.6850   69.2590   62.9250 C   0  0  0  0  0  0  0  0  0  0  0  0
    0.1580   67.6450   67.8840 C   0  0  0  0  0  0  0  0  0  0  0  0
    0.5350   66.0380   69.7240 C   0  0  0  0  0  0  0  0  0  0  0  0
    1.3250   66.8150   70.2610 O   0  0  0  0  0  0  0  0  0  0  0  0
   -0.1250   66.3780   68.5670 N   0  0  0  0  0  0  0  0  0  0  0  0
    0.1550   64.7110   70.4200 C   0  0  1  0  0  0  0  0  0  0  0  0
    2.5080   63.8520   70.0020 C   0  0  0  0  0  0  0  0  0  0  0  0
    1.0460   63.5640   69.9460 N   0  0  0  0  0  4  0  0  0  0  0  0
    0.1770   64.7870   71.9570 C   0  0  0  0  0  0  0  0  0  0  0  0
    0.3070   63.4290   72.6030 C   0  0  0  0  0  0  0  0  0  0  0  0
   -0.6300   62.4220   72.3350 C   0  0  0  0  0  0  0  0  0  0  0  0
   -0.5340   61.1810   72.9680 C   0  0  0  0  0  0  0  0  0  0  0  0
    0.5010   60.9360   73.8680 C   0  0  0  0  0  0  0  0  0  0  0  0
    1.4460   61.9240   74.1300 C   0  0  0  0  0  0  0  0  0  0  0  0
    1.3540   63.1650   73.4980 C   0  0  0  0  0  0  0  0  0  0  0  0
    1.5051   69.6831   67.3689 H   0  0  0  0  0  0  0  0  0  0  0  0
    3.3359   70.4416   68.7902 H   0  0  0  0  0  0  0  0  0  0  0  0
    4.6114   69.1541   69.0482 H   0  0  0  0  0  0  0  0  0  0  0  0
    5.0628   72.1208   68.5469 H   0  0  0  0  0  0  0  0  0  0  0  0
    5.3860   71.1995   70.0542 H   0  0  0  0  0  0  0  0  0  0  0  0
    7.4713   71.5007   68.7847 H   0  0  0  0  0  0  0  0  0  0  0  0
    6.9998   69.7652   68.7979 H   0  0  0  0  0  0  0  0  0  0  0  0
    6.7491   71.8002   66.5596 H   0  0  0  0  0  0  0  0  0  0  0  0
    7.5909   70.1709   66.5912 H   0  0  0  0  0  0  0  0  0  0  0  0
    1.3845   68.1484   64.5762 H   0  0  0  0  0  0  0  0  0  0  0  0
    1.6740   67.9005   62.1199 H   0  0  0  0  0  0  0  0  0  0  0  0
    3.8068   68.6249   61.0475 H   0  0  0  0  0  0  0  0  0  0  0  0
    5.6250   69.5697   62.4455 H   0  0  0  0  0  0  0  0  0  0  0  0
    0.1776   68.4515   68.6317 H   0  0  0  0  0  0  0  0  0  0  0  0
   -0.6328   67.8041   67.1361 H   0  0  0  0  0  0  0  0  0  0  0  0
   -0.8273   65.7348   68.1746 H   0  0  0  0  0  0  0  0  0  0  0  0
   -0.8870   64.5170   70.1257 H   0  0  0  0  0  0  0  0  0  0  0  0
    2.8293   63.9153   71.0521 H   0  0  0  0  0  0  0  0  0  0  0  0
    3.0602   63.0454   69.4976 H   0  0  0  0  0  0  0  0  0  0  0  0
    2.7130   64.8078   69.4976 H   0  0  0  0  0  0  0  0  0  0  0  0
    0.8569   62.7436   70.5393 H   0  0  0  0  0  0  0  0  0  0  0  0
    0.8167   63.4058   68.9544 H   0  0  0  0  0  0  0  0  0  0  0  0
    1.0305   65.4078   72.2669 H   0  0  0  0  0  0  0  0  0  0  0  0
   -0.7797   65.2211   72.2831 H   0  0  0  0  0  0  0  0  0  0  0  0
   -1.4460   62.6103   71.6217 H   0  0  0  0  0  0  0  0  0  0  0  0
   -1.2756   60.3967   72.7561 H   0  0  0  0  0  0  0  0  0  0  0  0
    0.5715   59.9608   74.3721 H   0  0  0  0  0  0  0  0  0  0  0  0
    2.2662   61.7264   74.8359 H   0  0  0  0  0  0  0  0  0  0  0  0
    2.1069   63.9403   73.7030 H   0  0  0  0  0  0  0  0  0  0  0  0
  2  1  2  0
  3  1  1  0
  4  3  1  0
  5  4  1  0
  6  5  1  0
  7  6  1  0
  8  7  1  0
  9  8  1  0
 10  9  1  0
 10  5  2  0
 11 10  1  0
 12 11  2  0
 13 12  1  0
 13  4  2  0
 14 13  1  0
 15 14  2  0
 16 15  1  0
 17 12  1  0
 17 16  2  0
 18  1  1  0
 20 19  2  0
 21 19  1  0
 21 18  1  0
 22 19  1  0
 24 22  1  0
 24 23  1  0
 25 22  1  0
 26 25  1  0
 27 26  2  0
 28 27  1  0
 29 28  2  0
 30 29  1  0
 31 30  2  0
 31 26  1  0
  3 32  1  0
  6 33  1  0
  6 34  1  0
  7 35  1  0
  7 36  1  0
  8 37  1  0
  8 38  1  0
  9 39  1  0
  9 40  1  0
 14 41  1  0
 15 42  1  0
 16 43  1  0
 17 44  1  0
 18 45  1  0
 18 46  1  0
 21 47  1  0
 22 48  1  1
 23 49  1  0
 23 50  1  0
 23 51  1  0
 24 52  1  0
 24 53  1  0
 25 54  1  0
 25 55  1  0
 27 56  1  0
 28 57  1  0
 29 58  1  0
 30 59  1  0
 31 60  1  0
M  CHG  1  24   1
M  END
>  <score>  (6) 
-11.079

$$$$
=
     RDKit          3D

 60 63  0  0  0  0  0  0  0  0999 V2000
    0.6650   65.7380   70.0040 C   0  0  0  0  0  0  0  0  0  0  0  0
    1.6180   66.4030   70.3940 O   0  0  0  0  0  0  0  0  0  0  0  0
    0.3020   64.4790   70.4540 N   0  0  0  0  0  0  0  0  0  0  0  0
    1.0220   63.6770   71.3840 C   0  0  0  0  0  0  0  0  0  0  0  0
    0.8120   63.7680   72.7770 C   0  0  0  0  0  0  0  0  0  0  0  0
   -0.1990   64.6920   73.4160 C   0  0  0  0  0  0  0  0  0  0  0  0
    0.0970   65.0220   74.8790 C   0  0  0  0  0  0  0  0  0  0  0  0
    0.3190   63.7330   75.6520 C   0  0  0  0  0  0  0  0  0  0  0  0
    1.5400   63.0090   75.1030 C   0  0  0  0  0  0  0  0  0  0  0  0
    1.6170   62.9690   73.5970 C   0  0  0  0  0  0  0  0  0  0  0  0
    2.5970   62.1700   73.1170 N   0  0  0  0  0  0  0  0  0  0  0  0
    2.8130   62.1050   71.8030 C   0  0  0  0  0  0  0  0  0  0  0  0
    2.0610   62.8400   70.8660 C   0  0  0  0  0  0  0  0  0  0  0  0
    2.3760   62.6650   69.4880 C   0  0  0  0  0  0  0  0  0  0  0  0
    3.4060   61.8190   69.0700 C   0  0  0  0  0  0  0  0  0  0  0  0
    4.1400   61.1210   70.0140 C   0  0  0  0  0  0  0  0  0  0  0  0
    3.8330   61.2710   71.3650 C   0  0  0  0  0  0  0  0  0  0  0  0
   -0.3370   66.3230   68.9990 C   0  0  0  0  0  0  0  0  0  0  0  0
   -0.3230   67.3380   66.7450 C   0  0  0  0  0  0  0  0  0  0  0  0
   -1.4850   66.9750   66.5580 O   0  0  0  0  0  0  0  0  0  0  0  0
    0.3160   67.1000   67.9390 N   0  0  0  0  0  0  0  0  0  0  0  0
    0.4000   68.2030   65.6880 C   0  0  1  0  0  0  0  0  0  0  0  0
   -0.3630   68.8730   63.3600 C   0  0  0  0  0  0  0  0  0  0  0  0
   -0.6000   68.9740   64.8280 N   0  0  0  0  0  4  0  0  0  0  0  0
    1.4350   69.1750   66.2820 C   0  0  0  0  0  0  0  0  0  0  0  0
    2.7580   69.1290   65.5570 C   0  0  0  0  0  0  0  0  0  0  0  0
    3.9420   69.4860   66.2170 C   0  0  0  0  0  0  0  0  0  0  0  0
    5.1590   69.4860   65.5320 C   0  0  0  0  0  0  0  0  0  0  0  0
    5.2030   69.1260   64.1870 C   0  0  0  0  0  0  0  0  0  0  0  0
    4.0350   68.7540   63.5270 C   0  0  0  0  0  0  0  0  0  0  0  0
    2.8160   68.7520   64.2070 C   0  0  0  0  0  0  0  0  0  0  0  0
   -0.5731   64.0854   70.0796 H   0  0  0  0  0  0  0  0  0  0  0  0
   -0.2165   65.6327   72.8460 H   0  0  0  0  0  0  0  0  0  0  0  0
   -1.1656   64.1673   73.3976 H   0  0  0  0  0  0  0  0  0  0  0  0
    1.0008   65.6461   74.9388 H   0  0  0  0  0  0  0  0  0  0  0  0
   -0.7540   65.5682   75.3120 H   0  0  0  0  0  0  0  0  0  0  0  0
    0.4799   63.9671   76.7147 H   0  0  0  0  0  0  0  0  0  0  0  0
   -0.5654   63.0877   75.5455 H   0  0  0  0  0  0  0  0  0  0  0  0
    2.4396   63.5175   75.4799 H   0  0  0  0  0  0  0  0  0  0  0  0
    1.4637   61.9650   75.4409 H   0  0  0  0  0  0  0  0  0  0  0  0
    1.7922   63.2110   68.7323 H   0  0  0  0  0  0  0  0  0  0  0  0
    3.6322   61.7082   67.9992 H   0  0  0  0  0  0  0  0  0  0  0  0
    4.9573   60.4547   69.7007 H   0  0  0  0  0  0  0  0  0  0  0  0
    4.4180   60.7102   72.1089 H   0  0  0  0  0  0  0  0  0  0  0  0
   -0.8958   65.4960   68.5365 H   0  0  0  0  0  0  0  0  0  0  0  0
   -1.0025   67.0040   69.5497 H   0  0  0  0  0  0  0  0  0  0  0  0
    1.2645   67.4716   68.0913 H   0  0  0  0  0  0  0  0  0  0  0  0
    0.9562   67.4904   65.0613 H   0  0  0  0  0  0  0  0  0  0  0  0
    0.6350   68.4477   63.1781 H   0  0  0  0  0  0  0  0  0  0  0  0
   -1.1267   68.2221   62.9092 H   0  0  0  0  0  0  0  0  0  0  0  0
   -0.4224   69.8746   62.9092 H   0  0  0  0  0  0  0  0  0  0  0  0
   -1.5427   68.6100   65.0271 H   0  0  0  0  0  0  0  0  0  0  0  0
   -0.4908   69.9683   65.0737 H   0  0  0  0  0  0  0  0  0  0  0  0
    1.0344   70.1975   66.2194 H   0  0  0  0  0  0  0  0  0  0  0  0
    1.6157   68.8729   67.3242 H   0  0  0  0  0  0  0  0  0  0  0  0
    3.9124   69.7676   67.2799 H   0  0  0  0  0  0  0  0  0  0  0  0
    6.0839   69.7706   66.0551 H   0  0  0  0  0  0  0  0  0  0  0  0
    6.1609   69.1357   63.6463 H   0  0  0  0  0  0  0  0  0  0  0  0
    4.0729   68.4610   62.4674 H   0  0  0  0  0  0  0  0  0  0  0  0
    1.8967   68.4535   63.6819 H   0  0  0  0  0  0  0  0  0  0  0  0
  2  1  2  0
  3  1  1  0
  4  3  1  0
  5  4  1  0
  6  5  1  0
  7  6  1  0
  8  7  1  0
  9  8  1  0
 10  9  1  0
 10  5  2  0
 11 10  1  0
 12 11  2  0
 13 12  1  0
 13  4  2  0
 14 13  1  0
 15 14  2  0
 16 15  1  0
 17 12  1  0
 17 16  2  0
 18  1  1  0
 20 19  2  0
 21 19  1  0
 21 18  1  0
 22 19  1  0
 24 22  1  0
 24 23  1  0
 25 22  1  0
 26 25  1  0
 27 26  2  0
 28 27  1  0
 29 28  2  0
 30 29  1  0
 31 30  2  0
 31 26  1  0
  3 32  1  0
  6 33  1  0
  6 34  1  0
  7 35  1  0
  7 36  1  0
  8 37  1  0
  8 38  1  0
  9 39  1  0
  9 40  1  0
 14 41  1  0
 15 42  1  0
 16 43  1  0
 17 44  1  0
 18 45  1  0
 18 46  1  0
 21 47  1  0
 22 48  1  6
 23 49  1  0
 23 50  1  0
 23 51  1  0
 24 52  1  0
 24 53  1  0
 25 54  1  0
 25 55  1  0
 27 56  1  0
 28 57  1  0
 29 58  1  0
 30 59  1  0
 31 60  1  0
M  CHG  1  24   1
M  END
>  <score>  (7) 
-10.824

$$$$
=
     RDKit          3D

 60 63  0  0  0  0  0  0  0  0999 V2000
    0.7940   65.8870   69.9090 C   0  0  0  0  0  0  0  0  0  0  0  0
    1.7210   66.5880   70.2980 O   0  0  0  0  0  0  0  0  0  0  0  0
    0.4770   64.6170   70.3600 N   0  0  0  0  0  0  0  0  0  0  0  0
    1.2260   63.8430   71.2930 C   0  0  0  0  0  0  0  0  0  0  0  0
    2.1740   62.8810   70.8810 C   0  0  0  0  0  0  0  0  0  0  0  0
    2.5070   62.5940   69.4350 C   0  0  0  0  0  0  0  0  0  0  0  0
    3.1210   61.2140   69.2000 C   0  0  0  0  0  0  0  0  0  0  0  0
    4.2930   61.0150   70.1470 C   0  0  0  0  0  0  0  0  0  0  0  0
    3.8010   61.0440   71.5860 C   0  0  0  0  0  0  0  0  0  0  0  0
    2.8100   62.1430   71.8860 C   0  0  0  0  0  0  0  0  0  0  0  0
    2.5200   62.2790   73.1990 N   0  0  0  0  0  0  0  0  0  0  0  0
    1.6040   63.1690   73.5840 C   0  0  0  0  0  0  0  0  0  0  0  0
    0.9060   63.9910   72.6790 C   0  0  0  0  0  0  0  0  0  0  0  0
   -0.0310   64.9170   73.2210 C   0  0  0  0  0  0  0  0  0  0  0  0
   -0.2760   64.9990   74.5930 C   0  0  0  0  0  0  0  0  0  0  0  0
    0.4130   64.1670   75.4590 C   0  0  0  0  0  0  0  0  0  0  0  0
    1.3440   63.2660   74.9450 C   0  0  0  0  0  0  0  0  0  0  0  0
   -0.2270   66.4330   68.9010 C   0  0  0  0  0  0  0  0  0  0  0  0
   -0.3310   67.3610   66.6120 C   0  0  0  0  0  0  0  0  0  0  0  0
   -1.5550   67.2220   66.5950 O   0  0  0  0  0  0  0  0  0  0  0  0
    0.4090   67.0390   67.7250 N   0  0  0  0  0  0  0  0  0  0  0  0
    0.3900   68.0410   65.4260 C   0  0  1  0  0  0  0  0  0  0  0  0
   -0.3540   68.8950   63.1530 C   0  0  0  0  0  0  0  0  0  0  0  0
   -0.5700   68.9210   64.6280 N   0  0  0  0  0  4  0  0  0  0  0  0
    1.6270   68.8590   65.8370 C   0  0  0  0  0  0  0  0  0  0  0  0
    2.8670   68.4580   65.0740 C   0  0  0  0  0  0  0  0  0  0  0  0
    3.9220   69.3660   64.9070 C   0  0  0  0  0  0  0  0  0  0  0  0
    5.0490   69.0100   64.1630 C   0  0  0  0  0  0  0  0  0  0  0  0
    5.1330   67.7440   63.5870 C   0  0  0  0  0  0  0  0  0  0  0  0
    4.0970   66.8290   63.7610 C   0  0  0  0  0  0  0  0  0  0  0  0
    2.9700   67.1810   64.5040 C   0  0  0  0  0  0  0  0  0  0  0  0
   -0.3825   64.1908   69.9852 H   0  0  0  0  0  0  0  0  0  0  0  0
    1.5806   62.6652   68.8461 H   0  0  0  0  0  0  0  0  0  0  0  0
    3.2614   63.3340   69.1294 H   0  0  0  0  0  0  0  0  0  0  0  0
    2.3632   60.4387   69.3859 H   0  0  0  0  0  0  0  0  0  0  0  0
    3.4722   61.1403   68.1602 H   0  0  0  0  0  0  0  0  0  0  0  0
    4.7674   60.0439   69.9424 H   0  0  0  0  0  0  0  0  0  0  0  0
    5.0242   61.8228   69.9960 H   0  0  0  0  0  0  0  0  0  0  0  0
    3.3206   60.0789   71.8045 H   0  0  0  0  0  0  0  0  0  0  0  0
    4.6827   61.2372   72.2147 H   0  0  0  0  0  0  0  0  0  0  0  0
   -0.5767   65.5861   72.5395 H   0  0  0  0  0  0  0  0  0  0  0  0
   -1.0106   65.7189   74.9829 H   0  0  0  0  0  0  0  0  0  0  0  0
    0.2275   64.2166   76.5421 H   0  0  0  0  0  0  0  0  0  0  0  0
    1.8903   62.6108   75.6394 H   0  0  0  0  0  0  0  0  0  0  0  0
   -0.8693   65.6050   68.5666 H   0  0  0  0  0  0  0  0  0  0  0  0
   -0.8077   67.2182   69.4073 H   0  0  0  0  0  0  0  0  0  0  0  0
    1.4220   67.2252   67.7338 H   0  0  0  0  0  0  0  0  0  0  0  0
    0.7498   67.2160   64.7935 H   0  0  0  0  0  0  0  0  0  0  0  0
    0.7178   68.7660   62.9416 H   0  0  0  0  0  0  0  0  0  0  0  0
   -0.9175   68.0582   62.7146 H   0  0  0  0  0  0  0  0  0  0  0  0
   -0.7029   69.8416   62.7146 H   0  0  0  0  0  0  0  0  0  0  0  0
   -1.5310   68.6026   64.8178 H   0  0  0  0  0  0  0  0  0  0  0  0
   -0.3987   69.8903   64.9314 H   0  0  0  0  0  0  0  0  0  0  0  0
    1.4249   69.9234   65.6467 H   0  0  0  0  0  0  0  0  0  0  0  0
    1.8148   68.6666   66.9036 H   0  0  0  0  0  0  0  0  0  0  0  0
    3.8618   70.3645   65.3646 H   0  0  0  0  0  0  0  0  0  0  0  0
    5.8707   69.7294   64.0316 H   0  0  0  0  0  0  0  0  0  0  0  0
    6.0176   67.4670   62.9947 H   0  0  0  0  0  0  0  0  0  0  0  0
    4.1678   65.8274   63.3118 H   0  0  0  0  0  0  0  0  0  0  0  0
    2.1575   66.4527   64.6435 H   0  0  0  0  0  0  0  0  0  0  0  0
  2  1  2  0
  3  1  1  0
  4  3  1  0
  5  4  1  0
  6  5  1  0
  7  6  1  0
  8  7  1  0
  9  8  1  0
 10  9  1  0
 10  5  2  0
 11 10  1  0
 12 11  2  0
 13 12  1  0
 13  4  2  0
 14 13  1  0
 15 14  2  0
 16 15  1  0
 17 12  1  0
 17 16  2  0
 18  1  1  0
 20 19  2  0
 21 19  1  0
 21 18  1  0
 22 19  1  0
 24 22  1  0
 24 23  1  0
 25 22  1  0
 26 25  1  0
 27 26  2  0
 28 27  1  0
 29 28  2  0
 30 29  1  0
 31 30  2  0
 31 26  1  0
  3 32  1  0
  6 33  1  0
  6 34  1  0
  7 35  1  0
  7 36  1  0
  8 37  1  0
  8 38  1  0
  9 39  1  0
  9 40  1  0
 14 41  1  0
 15 42  1  0
 16 43  1  0
 17 44  1  0
 18 45  1  0
 18 46  1  0
 21 47  1  0
 22 48  1  6
 23 49  1  0
 23 50  1  0
 23 51  1  0
 24 52  1  0
 24 53  1  0
 25 54  1  0
 25 55  1  0
 27 56  1  0
 28 57  1  0
 29 58  1  0
 30 59  1  0
 31 60  1  0
M  CHG  1  24   1
M  END
>  <score>  (8) 
-10.578

$$$$
=
     RDKit          3D

 60 63  0  0  0  0  0  0  0  0999 V2000
    0.5810   66.9220   68.7240 C   0  0  0  0  0  0  0  0  0  0  0  0
   -0.3330   66.1550   68.4420 O   0  0  0  0  0  0  0  0  0  0  0  0
    1.0230   67.9900   67.9600 N   0  0  0  0  0  0  0  0  0  0  0  0
    0.5670   68.3400   66.6570 C   0  0  0  0  0  0  0  0  0  0  0  0
   -0.8050   68.4650   66.3490 C   0  0  0  0  0  0  0  0  0  0  0  0
   -1.9140   68.2690   67.3570 C   0  0  0  0  0  0  0  0  0  0  0  0
   -3.2670   67.9280   66.7350 C   0  0  0  0  0  0  0  0  0  0  0  0
   -3.5970   68.9440   65.6550 C   0  0  0  0  0  0  0  0  0  0  0  0
   -2.5620   68.8650   64.5410 C   0  0  0  0  0  0  0  0  0  0  0  0
   -1.1360   68.7610   65.0220 C   0  0  0  0  0  0  0  0  0  0  0  0
   -0.2140   68.8780   64.0400 N   0  0  0  0  0  0  0  0  0  0  0  0
    1.0800   68.7320   64.3270 C   0  0  0  0  0  0  0  0  0  0  0  0
    1.5510   68.4550   65.6240 C   0  0  0  0  0  0  0  0  0  0  0  0
    2.9590   68.3450   65.8030 C   0  0  0  0  0  0  0  0  0  0  0  0
    3.8500   68.4800   64.7350 C   0  0  0  0  0  0  0  0  0  0  0  0
    3.3580   68.7350   63.4660 C   0  0  0  0  0  0  0  0  0  0  0  0
    1.9830   68.8610   63.2790 C   0  0  0  0  0  0  0  0  0  0  0  0
    1.2860   66.8290   70.0840 C   0  0  0  0  0  0  0  0  0  0  0  0
    0.6900   64.9080   71.5220 C   0  0  0  0  0  0  0  0  0  0  0  0
   -0.2410   65.5470   72.0150 O   0  0  0  0  0  0  0  0  0  0  0  0
    1.4750   65.4430   70.5280 N   0  0  0  0  0  0  0  0  0  0  0  0
    0.9070   63.4280   71.9090 C   0  0  1  0  0  0  0  0  0  0  0  0
   -0.3580   61.3680   72.6870 C   0  0  0  0  0  0  0  0  0  0  0  0
   -0.3210   62.8560   72.6160 N   0  0  0  0  0  4  0  0  0  0  0  0
    1.2940   62.5250   70.7240 C   0  0  0  0  0  0  0  0  0  0  0  0
    2.7090   62.0100   70.8250 C   0  0  0  0  0  0  0  0  0  0  0  0
    2.9600   60.6320   70.8940 C   0  0  0  0  0  0  0  0  0  0  0  0
    4.2660   60.1580   71.0330 C   0  0  0  0  0  0  0  0  0  0  0  0
    5.3300   61.0550   71.0970 C   0  0  0  0  0  0  0  0  0  0  0  0
    5.0930   62.4240   71.0130 C   0  0  0  0  0  0  0  0  0  0  0  0
    3.7890   62.9020   70.8740 C   0  0  0  0  0  0  0  0  0  0  0  0
    1.7517   68.5885   68.3744 H   0  0  0  0  0  0  0  0  0  0  0  0
   -1.6271   67.4489   68.0316 H   0  0  0  0  0  0  0  0  0  0  0  0
   -2.0384   69.2270   67.8831 H   0  0  0  0  0  0  0  0  0  0  0  0
   -3.2239   66.9222   66.2917 H   0  0  0  0  0  0  0  0  0  0  0  0
   -4.0450   67.9525   67.5122 H   0  0  0  0  0  0  0  0  0  0  0  0
   -4.5941   68.7289   65.2433 H   0  0  0  0  0  0  0  0  0  0  0  0
   -3.5865   69.9541   66.0904 H   0  0  0  0  0  0  0  0  0  0  0  0
   -2.7837   67.9793   63.9275 H   0  0  0  0  0  0  0  0  0  0  0  0
   -2.6353   69.8064   63.9768 H   0  0  0  0  0  0  0  0  0  0  0  0
    3.3565   68.1483   66.8096 H   0  0  0  0  0  0  0  0  0  0  0  0
    4.9332   68.3845   64.9010 H   0  0  0  0  0  0  0  0  0  0  0  0
    4.0460   68.8371   62.6138 H   0  0  0  0  0  0  0  0  0  0  0  0
    1.6001   69.0693   62.2691 H   0  0  0  0  0  0  0  0  0  0  0  0
    2.2716   67.3107   70.0036 H   0  0  0  0  0  0  0  0  0  0  0  0
    0.6478   67.3323   70.8252 H   0  0  0  0  0  0  0  0  0  0  0  0
    2.2050   64.8637   70.0894 H   0  0  0  0  0  0  0  0  0  0  0  0
    1.7638   63.4318   72.5988 H   0  0  0  0  0  0  0  0  0  0  0  0
   -0.3659   61.0513   73.7404 H   0  0  0  0  0  0  0  0  0  0  0  0
   -1.2656   60.9995   72.1865 H   0  0  0  0  0  0  0  0  0  0  0  0
    0.5301   60.9548   72.1865 H   0  0  0  0  0  0  0  0  0  0  0  0
   -0.3387   63.2242   73.5778 H   0  0  0  0  0  0  0  0  0  0  0  0
   -1.1387   63.1424   72.0590 H   0  0  0  0  0  0  0  0  0  0  0  0
    0.6075   61.6660   70.6967 H   0  0  0  0  0  0  0  0  0  0  0  0
    1.2239   63.1294   69.8076 H   0  0  0  0  0  0  0  0  0  0  0  0
    2.1231   59.9203   70.8383 H   0  0  0  0  0  0  0  0  0  0  0  0
    4.4548   59.0759   71.0920 H   0  0  0  0  0  0  0  0  0  0  0  0
    6.3579   60.6812   71.2140 H   0  0  0  0  0  0  0  0  0  0  0  0
    5.9350   63.1305   71.0562 H   0  0  0  0  0  0  0  0  0  0  0  0
    3.6080   63.9846   70.8025 H   0  0  0  0  0  0  0  0  0  0  0  0
  2  1  2  0
  3  1  1  0
  4  3  1  0
  5  4  1  0
  6  5  1  0
  7  6  1  0
  8  7  1  0
  9  8  1  0
 10  9  1  0
 10  5  2  0
 11 10  1  0
 12 11  2  0
 13 12  1  0
 13  4  2  0
 14 13  1  0
 15 14  2  0
 16 15  1  0
 17 12  1  0
 17 16  2  0
 18  1  1  0
 20 19  2  0
 21 19  1  0
 21 18  1  0
 22 19  1  0
 24 22  1  0
 24 23  1  0
 25 22  1  0
 26 25  1  0
 27 26  2  0
 28 27  1  0
 29 28  2  0
 30 29  1  0
 31 30  2  0
 31 26  1  0
  3 32  1  0
  6 33  1  0
  6 34  1  0
  7 35  1  0
  7 36  1  0
  8 37  1  0
  8 38  1  0
  9 39  1  0
  9 40  1  0
 14 41  1  0
 15 42  1  0
 16 43  1  0
 17 44  1  0
 18 45  1  0
 18 46  1  0
 21 47  1  0
 22 48  1  1
 23 49  1  0
 23 50  1  0
 23 51  1  0
 24 52  1  0
 24 53  1  0
 25 54  1  0
 25 55  1  0
 27 56  1  0
 28 57  1  0
 29 58  1  0
 30 59  1  0
 31 60  1  0
M  CHG  1  24   1
M  END
>  <score>  (9) 
-9.73

$$$$
