=
     RDKit          3D

 22 21  0  0  0  0  0  0  0  0999 V2000
    5.5350   68.7760   64.5750 C   0  0  0  0  0  0  0  0  0  0  0  0
    5.5650   69.1710   63.0960 C   0  0  0  0  0  0  0  0  0  0  0  0
    5.3230   68.0340   62.2130 N   0  0  0  0  0  4  0  0  0  0  0  0
    4.3430   69.3170   65.3890 C   0  0  0  0  0  0  0  0  0  0  0  0
    4.7270   69.8430   66.7890 C   0  0  0  0  0  0  0  0  0  0  0  0
    6.1220   70.4690   66.8910 C   0  0  0  0  0  0  0  0  0  0  0  0
    6.2160   71.2980   68.1400 C   0  0  0  0  0  0  0  0  0  0  0  0
    5.8670   72.5150   68.0470 O   0  0  0  0  0  0  0  0  0  0  0  0
    6.8950   70.8460   69.1100 O   0  0  0  0  0  1  0  0  0  0  0  0
    5.5112   67.6777   64.6307 H   0  0  0  0  0  0  0  0  0  0  0  0
    6.4326   69.2270   65.0233 H   0  0  0  0  0  0  0  0  0  0  0  0
    4.7887   69.9294   62.9168 H   0  0  0  0  0  0  0  0  0  0  0  0
    6.5686   69.5622   62.8729 H   0  0  0  0  0  0  0  0  0  0  0  0
    5.1438   67.1921   62.7786 H   0  0  0  0  0  0  0  0  0  0  0  0
    4.5047   68.2289   61.6187 H   0  0  0  0  0  0  0  0  0  0  0  0
    6.1498   67.8788   61.6187 H   0  0  0  0  0  0  0  0  0  0  0  0
    3.8834   70.1412   64.8237 H   0  0  0  0  0  0  0  0  0  0  0  0
    3.6536   68.4739   65.5434 H   0  0  0  0  0  0  0  0  0  0  0  0
    3.9897   70.6057   67.0799 H   0  0  0  0  0  0  0  0  0  0  0  0
    4.7370   68.9657   67.4525 H   0  0  0  0  0  0  0  0  0  0  0  0
    6.8789   69.6715   66.9239 H   0  0  0  0  0  0  0  0  0  0  0  0
    6.2980   71.1102   66.0147 H   0  0  0  0  0  0  0  0  0  0  0  0
  2  1  1  0
  3  2  1  0
  4  1  1  0
  5  4  1  0
  6  5  1  0
  7  6  1  0
  8  7  2  0
  9  7  1  0
  1 10  1  0
  1 11  1  0
  2 12  1  0
  2 13  1  0
  3 14  1  0
  3 15  1  0
  3 16  1  0
  4 17  1  0
  4 18  1  0
  5 19  1  0
  5 20  1  0
  6 21  1  0
  6 22  1  0
M  CHG  2   3   1   9  -1
M  END
>  <score>  (1) 
-5.223

$$$$
=
     RDKit          3D

 22 21  0  0  0  0  0  0  0  0999 V2000
    2.2710   68.8720   66.3300 C   0  0  0  0  0  0  0  0  0  0  0  0
    1.8450   68.8340   67.8000 C   0  0  0  0  0  0  0  0  0  0  0  0
    0.7960   69.8050   68.1000 N   0  0  0  0  0  4  0  0  0  0  0  0
    3.7190   69.3280   66.0630 C   0  0  0  0  0  0  0  0  0  0  0  0
    4.4280   69.9190   67.3000 C   0  0  0  0  0  0  0  0  0  0  0  0
    5.8880   70.3310   67.0830 C   0  0  0  0  0  0  0  0  0  0  0  0
    6.3030   71.3080   68.1460 C   0  0  0  0  0  0  0  0  0  0  0  0
    6.7550   70.8190   69.2280 O   0  0  0  0  0  0  0  0  0  0  0  0
    5.9180   72.5100   68.0390 O   0  0  0  0  0  1  0  0  0  0  0  0
    2.1550   67.8584   65.9187 H   0  0  0  0  0  0  0  0  0  0  0  0
    1.6275   69.6251   65.8518 H   0  0  0  0  0  0  0  0  0  0  0  0
    1.4711   67.8262   68.0337 H   0  0  0  0  0  0  0  0  0  0  0  0
    2.7235   69.0892   68.4109 H   0  0  0  0  0  0  0  0  0  0  0  0
    0.6958   69.8978   69.1209 H   0  0  0  0  0  0  0  0  0  0  0  0
    1.0475   70.7182   67.6953 H   0  0  0  0  0  0  0  0  0  0  0  0
   -0.0951   69.4838   67.6953 H   0  0  0  0  0  0  0  0  0  0  0  0
    4.2969   68.4591   65.7150 H   0  0  0  0  0  0  0  0  0  0  0  0
    3.6673   70.1299   65.3118 H   0  0  0  0  0  0  0  0  0  0  0  0
    3.8674   70.8097   67.6198 H   0  0  0  0  0  0  0  0  0  0  0  0
    4.4468   69.1167   68.0523 H   0  0  0  0  0  0  0  0  0  0  0  0
    6.5307   69.4398   67.1347 H   0  0  0  0  0  0  0  0  0  0  0  0
    5.9896   70.8036   66.0949 H   0  0  0  0  0  0  0  0  0  0  0  0
  2  1  1  0
  3  2  1  0
  4  1  1  0
  5  4  1  0
  6  5  1  0
  7  6  1  0
  8  7  2  0
  9  7  1  0
  1 10  1  0
  1 11  1  0
  2 12  1  0
  2 13  1  0
  3 14  1  0
  3 15  1  0
  3 16  1  0
  4 17  1  0
  4 18  1  0
  5 19  1  0
  5 20  1  0
  6 21  1  0
  6 22  1  0
M  CHG  2   3   1   9  -1
M  END
>  <score>  (2) 
-5.096

$$$$
=
     RDKit          3D

 22 21  0  0  0  0  0  0  0  0999 V2000
    3.2330   69.2130   66.1770 C   0  0  0  0  0  0  0  0  0  0  0  0
    2.1430   68.4980   65.3740 C   0  0  0  0  0  0  0  0  0  0  0  0
    2.1610   68.8680   63.9620 N   0  0  0  0  0  4  0  0  0  0  0  0
    4.5490   69.4890   65.4230 C   0  0  0  0  0  0  0  0  0  0  0  0
    5.6300   70.1770   66.2830 C   0  0  0  0  0  0  0  0  0  0  0  0
    5.3320   70.2360   67.7850 C   0  0  0  0  0  0  0  0  0  0  0  0
    6.1550   71.3170   68.4250 C   0  0  0  0  0  0  0  0  0  0  0  0
    5.9310   72.5080   68.0450 O   0  0  0  0  0  0  0  0  0  0  0  0
    7.1970   70.9800   69.0620 O   0  0  0  0  0  1  0  0  0  0  0  0
    2.8269   70.1788   66.5120 H   0  0  0  0  0  0  0  0  0  0  0  0
    3.4964   68.5298   66.9979 H   0  0  0  0  0  0  0  0  0  0  0  0
    2.2976   67.4121   65.4569 H   0  0  0  0  0  0  0  0  0  0  0  0
    1.1691   68.7984   65.7878 H   0  0  0  0  0  0  0  0  0  0  0  0
    2.2109   69.8932   63.8763 H   0  0  0  0  0  0  0  0  0  0  0  0
    2.9824   68.4451   63.5067 H   0  0  0  0  0  0  0  0  0  0  0  0
    1.3024   68.5268   63.5067 H   0  0  0  0  0  0  0  0  0  0  0  0
    4.9504   68.5297   65.0644 H   0  0  0  0  0  0  0  0  0  0  0  0
    4.3075   70.1794   64.6014 H   0  0  0  0  0  0  0  0  0  0  0  0
    6.5738   69.6290   66.1450 H   0  0  0  0  0  0  0  0  0  0  0  0
    5.6727   71.2213   65.9400 H   0  0  0  0  0  0  0  0  0  0  0  0
    4.2641   70.4516   67.9372 H   0  0  0  0  0  0  0  0  0  0  0  0
    5.5839   69.2683   68.2435 H   0  0  0  0  0  0  0  0  0  0  0  0
  2  1  1  0
  3  2  1  0
  4  1  1  0
  5  4  1  0
  6  5  1  0
  7  6  1  0
  8  7  2  0
  9  7  1  0
  1 10  1  0
  1 11  1  0
  2 12  1  0
  2 13  1  0
  3 14  1  0
  3 15  1  0
  3 16  1  0
  4 17  1  0
  4 18  1  0
  5 19  1  0
  5 20  1  0
  6 21  1  0
  6 22  1  0
M  CHG  2   3   1   9  -1
M  END
>  <score>  (3) 
-5.044

$$$$
=
     RDKit          3D

 22 21  0  0  0  0  0  0  0  0999 V2000
    4.5750   69.6950   66.5120 C   0  0  0  0  0  0  0  0  0  0  0  0
    5.5340   70.4370   67.4470 C   0  0  0  0  0  0  0  0  0  0  0  0
    6.9340   70.1730   67.1290 N   0  0  0  0  0  4  0  0  0  0  0  0
    5.1610   69.2720   65.1490 C   0  0  0  0  0  0  0  0  0  0  0  0
    4.1050   69.1290   64.0320 C   0  0  0  0  0  0  0  0  0  0  0  0
    4.6500   69.2270   62.6030 C   0  0  0  0  0  0  0  0  0  0  0  0
    3.8330   68.3590   61.6880 C   0  0  0  0  0  0  0  0  0  0  0  0
    3.0500   68.9520   60.8830 O   0  0  0  0  0  0  0  0  0  0  0  0
    3.7420   67.1240   61.9570 O   0  0  0  0  0  1  0  0  0  0  0  0
    4.2341   68.7863   67.0297 H   0  0  0  0  0  0  0  0  0  0  0  0
    3.7690   70.4077   66.2830 H   0  0  0  0  0  0  0  0  0  0  0  0
    5.3489   71.5177   67.3582 H   0  0  0  0  0  0  0  0  0  0  0  0
    5.3487   70.0800   68.4708 H   0  0  0  0  0  0  0  0  0  0  0  0
    7.4712   70.0717   68.0020 H   0  0  0  0  0  0  0  0  0  0  0  0
    7.0035   69.3041   66.5803 H   0  0  0  0  0  0  0  0  0  0  0  0
    7.3152   70.9569   66.5803 H   0  0  0  0  0  0  0  0  0  0  0  0
    5.8948   70.0299   64.8371 H   0  0  0  0  0  0  0  0  0  0  0  0
    5.6135   68.2793   65.2899 H   0  0  0  0  0  0  0  0  0  0  0  0
    3.6207   68.1479   64.1450 H   0  0  0  0  0  0  0  0  0  0  0  0
    3.4144   69.9764   64.1543 H   0  0  0  0  0  0  0  0  0  0  0  0
    4.5951   70.2713   62.2617 H   0  0  0  0  0  0  0  0  0  0  0  0
    5.6963   68.8878   62.5884 H   0  0  0  0  0  0  0  0  0  0  0  0
  2  1  1  0
  3  2  1  0
  4  1  1  0
  5  4  1  0
  6  5  1  0
  7  6  1  0
  8  7  2  0
  9  7  1  0
  1 10  1  0
  1 11  1  0
  2 12  1  0
  2 13  1  0
  3 14  1  0
  3 15  1  0
  3 16  1  0
  4 17  1  0
  4 18  1  0
  5 19  1  0
  5 20  1  0
  6 21  1  0
  6 22  1  0
M  CHG  2   3   1   9  -1
M  END
>  <score>  (4) 
-4.725

$$$$
=
     RDKit          3D

 22 21  0  0  0  0  0  0  0  0999 V2000
    5.5280   69.8690   66.2480 C   0  0  0  0  0  0  0  0  0  0  0  0
    5.1140   70.2580   67.6700 C   0  0  0  0  0  0  0  0  0  0  0  0
    5.9280   71.3440   68.2070 N   0  0  0  0  0  4  0  0  0  0  0  0
    4.3820   69.4310   65.3130 C   0  0  0  0  0  0  0  0  0  0  0  0
    3.0910   69.0230   66.0540 C   0  0  0  0  0  0  0  0  0  0  0  0
    1.9640   68.4930   65.1600 C   0  0  0  0  0  0  0  0  0  0  0  0
    1.4330   67.2060   65.7240 C   0  0  0  0  0  0  0  0  0  0  0  0
    1.4360   67.0890   66.9890 O   0  0  0  0  0  0  0  0  0  0  0  0
    1.2940   66.2200   64.9400 O   0  0  0  0  0  1  0  0  0  0  0  0
    6.0236   70.7381   65.7908 H   0  0  0  0  0  0  0  0  0  0  0  0
    6.1794   68.9892   66.3558 H   0  0  0  0  0  0  0  0  0  0  0  0
    4.0617   70.5780   67.6569 H   0  0  0  0  0  0  0  0  0  0  0  0
    5.2588   69.3787   68.3148 H   0  0  0  0  0  0  0  0  0  0  0  0
    5.9052   71.3136   69.2363 H   0  0  0  0  0  0  0  0  0  0  0  0
    6.8996   71.2380   67.8818 H   0  0  0  0  0  0  0  0  0  0  0  0
    5.5537   72.2468   67.8818 H   0  0  0  0  0  0  0  0  0  0  0  0
    4.1451   70.2682   64.6400 H   0  0  0  0  0  0  0  0  0  0  0  0
    4.7343   68.5405   64.7719 H   0  0  0  0  0  0  0  0  0  0  0  0
    3.3488   68.2365   66.7786 H   0  0  0  0  0  0  0  0  0  0  0  0
    2.7041   69.9410   66.5204 H   0  0  0  0  0  0  0  0  0  0  0  0
    1.1530   69.2349   65.1155 H   0  0  0  0  0  0  0  0  0  0  0  0
    2.3559   68.3130   64.1481 H   0  0  0  0  0  0  0  0  0  0  0  0
  2  1  1  0
  3  2  1  0
  4  1  1  0
  5  4  1  0
  6  5  1  0
  7  6  1  0
  8  7  2  0
  9  7  1  0
  1 10  1  0
  1 11  1  0
  2 12  1  0
  2 13  1  0
  3 14  1  0
  3 15  1  0
  3 16  1  0
  4 17  1  0
  4 18  1  0
  5 19  1  0
  5 20  1  0
  6 21  1  0
  6 22  1  0
M  CHG  2   3   1   9  -1
M  END
>  <score>  (5) 
-4.689

$$$$
=
     RDKit          3D

 22 21  0  0  0  0  0  0  0  0999 V2000
    4.5170   63.1990   70.2670 C   0  0  0  0  0  0  0  0  0  0  0  0
    3.0680   63.6420   70.4820 C   0  0  0  0  0  0  0  0  0  0  0  0
    2.1300   62.9000   69.6430 N   0  0  0  0  0  4  0  0  0  0  0  0
    5.1600   62.4220   71.4340 C   0  0  0  0  0  0  0  0  0  0  0  0
    5.3780   60.9230   71.1420 C   0  0  0  0  0  0  0  0  0  0  0  0
    4.2380   59.9980   71.5830 C   0  0  0  0  0  0  0  0  0  0  0  0
    3.6280   59.3350   70.3810 C   0  0  0  0  0  0  0  0  0  0  0  0
    3.8740   58.0990   70.2240 O   0  0  0  0  0  0  0  0  0  0  0  0
    3.1690   60.0710   69.4580 O   0  0  0  0  0  1  0  0  0  0  0  0
    4.5445   62.5543   69.3762 H   0  0  0  0  0  0  0  0  0  0  0  0
    5.1015   64.1254   70.1660 H   0  0  0  0  0  0  0  0  0  0  0  0
    2.8020   63.4812   71.5372 H   0  0  0  0  0  0  0  0  0  0  0  0
    2.9971   64.7046   70.2067 H   0  0  0  0  0  0  0  0  0  0  0  0
    1.4722   62.3796   70.2408 H   0  0  0  0  0  0  0  0  0  0  0  0
    1.6065   63.5582   69.0483 H   0  0  0  0  0  0  0  0  0  0  0  0
    2.6500   62.2390   69.0483 H   0  0  0  0  0  0  0  0  0  0  0  0
    6.1364   62.8770   71.6568 H   0  0  0  0  0  0  0  0  0  0  0  0
    4.4619   62.4839   72.2819 H   0  0  0  0  0  0  0  0  0  0  0  0
    5.5119   60.8040   70.0567 H   0  0  0  0  0  0  0  0  0  0  0  0
    6.2582   60.6231   71.7297 H   0  0  0  0  0  0  0  0  0  0  0  0
    4.6336   59.2291   72.2629 H   0  0  0  0  0  0  0  0  0  0  0  0
    3.4691   60.5900   72.1010 H   0  0  0  0  0  0  0  0  0  0  0  0
  2  1  1  0
  3  2  1  0
  4  1  1  0
  5  4  1  0
  6  5  1  0
  7  6  1  0
  8  7  2  0
  9  7  1  0
  1 10  1  0
  1 11  1  0
  2 12  1  0
  2 13  1  0
  3 14  1  0
  3 15  1  0
  3 16  1  0
  4 17  1  0
  4 18  1  0
  5 19  1  0
  5 20  1  0
  6 21  1  0
  6 22  1  0
M  CHG  2   3   1   9  -1
M  END
>  <score>  (6) 
-4.548

$$$$
=
     RDKit          3D

 22 21  0  0  0  0  0  0  0  0999 V2000
    4.6550   69.8610   67.1480 C   0  0  0  0  0  0  0  0  0  0  0  0
    4.5320   69.5060   65.6640 C   0  0  0  0  0  0  0  0  0  0  0  0
    5.7130   69.8970   64.9000 N   0  0  0  0  0  4  0  0  0  0  0  0
    3.3380   69.8600   67.9500 C   0  0  0  0  0  0  0  0  0  0  0  0
    2.1140   69.3800   67.1410 C   0  0  0  0  0  0  0  0  0  0  0  0
    1.3220   68.2300   67.7740 C   0  0  0  0  0  0  0  0  0  0  0  0
    1.0420   67.1780   66.7390 C   0  0  0  0  0  0  0  0  0  0  0  0
    2.0260   66.7890   66.0370 O   0  0  0  0  0  0  0  0  0  0  0  0
   -0.1640   66.9540   66.4220 O   0  0  0  0  0  1  0  0  0  0  0  0
    5.3345   69.1322   67.6141 H   0  0  0  0  0  0  0  0  0  0  0  0
    5.0219   70.8976   67.1776 H   0  0  0  0  0  0  0  0  0  0  0  0
    4.3947   68.4186   65.5708 H   0  0  0  0  0  0  0  0  0  0  0  0
    3.6710   70.0565   65.2570 H   0  0  0  0  0  0  0  0  0  0  0  0
    6.4732   70.1487   65.5478 H   0  0  0  0  0  0  0  0  0  0  0  0
    6.0138   69.1107   64.3066 H   0  0  0  0  0  0  0  0  0  0  0  0
    5.4852   70.7075   64.3066 H   0  0  0  0  0  0  0  0  0  0  0  0
    3.4616   69.1959   68.8182 H   0  0  0  0  0  0  0  0  0  0  0  0
    3.1401   70.9023   68.2407 H   0  0  0  0  0  0  0  0  0  0  0  0
    1.4323   70.2343   67.0165 H   0  0  0  0  0  0  0  0  0  0  0  0
    2.5099   68.9909   66.1913 H   0  0  0  0  0  0  0  0  0  0  0  0
    1.9088   67.7896   68.5936 H   0  0  0  0  0  0  0  0  0  0  0  0
    0.3702   68.6164   68.1673 H   0  0  0  0  0  0  0  0  0  0  0  0
  2  1  1  0
  3  2  1  0
  4  1  1  0
  5  4  1  0
  6  5  1  0
  7  6  1  0
  8  7  2  0
  9  7  1  0
  1 10  1  0
  1 11  1  0
  2 12  1  0
  2 13  1  0
  3 14  1  0
  3 15  1  0
  3 16  1  0
  4 17  1  0
  4 18  1  0
  5 19  1  0
  5 20  1  0
  6 21  1  0
  6 22  1  0
M  CHG  2   3   1   9  -1
M  END
>  <score>  (7) 
-4.398

$$$$
=
     RDKit          3D

 22 21  0  0  0  0  0  0  0  0999 V2000
    2.2420   63.1100   71.6720 C   0  0  0  0  0  0  0  0  0  0  0  0
    0.7500   63.0110   71.3460 C   0  0  0  0  0  0  0  0  0  0  0  0
    0.4160   63.6450   70.0740 N   0  0  0  0  0  4  0  0  0  0  0  0
    3.1030   63.8740   70.6450 C   0  0  0  0  0  0  0  0  0  0  0  0
    4.2110   63.0180   69.9970 C   0  0  0  0  0  0  0  0  0  0  0  0
    3.7180   61.7990   69.2090 C   0  0  0  0  0  0  0  0  0  0  0  0
    4.2510   60.5410   69.8350 C   0  0  0  0  0  0  0  0  0  0  0  0
    5.2630   60.6620   70.5920 O   0  0  0  0  0  0  0  0  0  0  0  0
    3.8710   59.4290   69.3620 O   0  0  0  0  0  1  0  0  0  0  0  0
    2.3427   63.6186   72.6421 H   0  0  0  0  0  0  0  0  0  0  0  0
    2.6184   62.0764   71.6683 H   0  0  0  0  0  0  0  0  0  0  0  0
    0.4689   61.9487   71.2960 H   0  0  0  0  0  0  0  0  0  0  0  0
    0.1974   63.5368   72.1386 H   0  0  0  0  0  0  0  0  0  0  0  0
   -0.0569   64.5426   70.2515 H   0  0  0  0  0  0  0  0  0  0  0  0
    1.2787   63.8118   69.5365 H   0  0  0  0  0  0  0  0  0  0  0  0
   -0.2094   63.0278   69.5365 H   0  0  0  0  0  0  0  0  0  0  0  0
    2.4424   64.2462   69.8481 H   0  0  0  0  0  0  0  0  0  0  0  0
    3.6055   64.6859   71.1912 H   0  0  0  0  0  0  0  0  0  0  0  0
    4.7789   63.6611   69.3086 H   0  0  0  0  0  0  0  0  0  0  0  0
    4.8144   62.6212   70.8267 H   0  0  0  0  0  0  0  0  0  0  0  0
    2.6183   61.7760   69.2215 H   0  0  0  0  0  0  0  0  0  0  0  0
    4.0745   61.8682   68.1707 H   0  0  0  0  0  0  0  0  0  0  0  0
  2  1  1  0
  3  2  1  0
  4  1  1  0
  5  4  1  0
  6  5  1  0
  7  6  1  0
  8  7  2  0
  9  7  1  0
  1 10  1  0
  1 11  1  0
  2 12  1  0
  2 13  1  0
  3 14  1  0
  3 15  1  0
  3 16  1  0
  4 17  1  0
  4 18  1  0
  5 19  1  0
  5 20  1  0
  6 21  1  0
  6 22  1  0
M  CHG  2   3   1   9  -1
M  END
>  <score>  (8) 
-4.343

$$$$
=
     RDKit          3D

 22 21  0  0  0  0  0  0  0  0999 V2000
    2.3150   69.0620   66.5140 C   0  0  0  0  0  0  0  0  0  0  0  0
    1.9080   69.1570   67.9870 C   0  0  0  0  0  0  0  0  0  0  0  0
    1.6510   70.5330   68.4040 N   0  0  0  0  0  4  0  0  0  0  0  0
    3.7680   69.4650   66.1930 C   0  0  0  0  0  0  0  0  0  0  0  0
    4.2150   69.1070   64.7600 C   0  0  0  0  0  0  0  0  0  0  0  0
    3.7990   67.7140   64.2740 C   0  0  0  0  0  0  0  0  0  0  0  0
    3.1990   67.8150   62.9010 C   0  0  0  0  0  0  0  0  0  0  0  0
    3.8190   67.2270   61.9600 O   0  0  0  0  0  0  0  0  0  0  0  0
    2.3080   68.6920   62.6980 O   0  0  0  0  0  1  0  0  0  0  0  0
    2.1745   68.0198   66.1914 H   0  0  0  0  0  0  0  0  0  0  0  0
    1.6795   69.7844   65.9809 H   0  0  0  0  0  0  0  0  0  0  0  0
    0.9940   68.5645   68.1403 H   0  0  0  0  0  0  0  0  0  0  0  0
    2.7425   68.7726   68.5919 H   0  0  0  0  0  0  0  0  0  0  0  0
    1.6415   70.5839   69.4327 H   0  0  0  0  0  0  0  0  0  0  0  0
    2.3918   71.1471   68.0367 H   0  0  0  0  0  0  0  0  0  0  0  0
    0.7384   70.8383   68.0367 H   0  0  0  0  0  0  0  0  0  0  0  0
    3.8623   70.5532   66.3234 H   0  0  0  0  0  0  0  0  0  0  0  0
    4.4150   68.8993   66.8796 H   0  0  0  0  0  0  0  0  0  0  0  0
    3.7828   69.8498   64.0734 H   0  0  0  0  0  0  0  0  0  0  0  0
    5.3149   69.1087   64.7746 H   0  0  0  0  0  0  0  0  0  0  0  0
    4.6826   67.0598   64.2396 H   0  0  0  0  0  0  0  0  0  0  0  0
    3.0549   67.2938   64.9666 H   0  0  0  0  0  0  0  0  0  0  0  0
  2  1  1  0
  3  2  1  0
  4  1  1  0
  5  4  1  0
  6  5  1  0
  7  6  1  0
  8  7  2  0
  9  7  1  0
  1 10  1  0
  1 11  1  0
  2 12  1  0
  2 13  1  0
  3 14  1  0
  3 15  1  0
  3 16  1  0
  4 17  1  0
  4 18  1  0
  5 19  1  0
  5 20  1  0
  6 21  1  0
  6 22  1  0
M  CHG  2   3   1   9  -1
M  END
>  <score>  (9) 
-4.3

$$$$
