=
     RDKit          3D

 95100  0  0  0  0  0  0  0  0999 V2000
    1.0100   65.9850   69.9590 C   0  0  0  0  0  0  0  0  0  0  0  0
    1.5390   67.0880   69.8890 O   0  0  0  0  0  0  0  0  0  0  0  0
   -0.2470   65.7120   69.4570 N   0  0  0  0  0  0  0  0  0  0  0  0
    2.2700   61.6460   73.7690 C   0  0  0  0  0  0  0  0  0  0  0  0
    1.3330   62.5480   73.5450 N   0  0  0  0  0  0  0  0  0  0  0  0
    1.7320   63.2460   72.4370 C   0  0  0  0  0  0  0  0  0  0  0  0
    2.9430   62.7620   71.9550 C   0  0  0  0  0  0  0  0  0  0  0  0
    3.2700   61.7440   72.8240 N   0  0  0  0  0  0  0  0  0  0  0  0
    3.5730   63.2980   70.8240 C   0  0  0  0  0  0  0  0  0  0  0  0
    2.9290   64.3600   70.1780 C   0  0  0  0  0  0  0  0  0  0  0  0
    1.7020   64.8570   70.6420 C   0  0  0  0  0  0  0  0  0  0  0  0
    1.0980   64.3120   71.7840 C   0  0  0  0  0  0  0  0  0  0  0  0
    2.2420   60.6460   74.8870 C   0  0  0  0  0  0  0  0  0  0  0  0
    0.4970   56.8230   73.8290 C   0  0  0  0  0  0  0  0  0  0  0  0
   -0.2360   58.0020   73.6880 C   0  0  0  0  0  0  0  0  0  0  0  0
    0.3240   59.2370   74.0280 C   0  0  0  0  0  0  0  0  0  0  0  0
    1.6390   59.3110   74.5070 C   0  0  0  0  0  0  0  0  0  0  0  0
    2.3640   58.1200   74.6630 C   0  0  0  0  0  0  0  0  0  0  0  0
    1.8000   56.8860   74.3200 C   0  0  0  0  0  0  0  0  0  0  0  0
   -0.1700   55.6880   73.4560 O   0  0  0  0  0  0  0  0  0  0  0  0
    0.3770   53.4620   74.1050 C   0  0  0  0  0  0  0  0  0  0  0  0
   -0.4030   54.7120   74.4700 C   0  0  0  0  0  0  0  0  0  0  0  0
    4.4760   60.9340   72.7460 C   0  0  0  0  0  0  0  0  0  0  0  0
    4.6760   60.3410   71.3490 C   0  0  0  0  0  0  0  0  0  0  0  0
    3.4460   59.6200   70.7660 C   0  0  0  0  0  0  0  0  0  0  0  0
    3.3640   58.1620   71.2170 C   0  0  0  0  0  0  0  0  0  0  0  0
    3.3860   59.7150   69.2420 C   0  0  0  0  0  0  0  0  0  0  0  0
   -1.0870   66.7870   68.9560 C   0  0  0  0  0  0  0  0  0  0  0  0
   -1.7720   66.4410   67.6350 C   0  0  0  0  0  0  0  0  0  0  0  0
   -2.4240   67.8970   66.7260 S   0  0  0  0  0  0  0  0  0  0  0  0
   -0.7640   68.6910   65.8090 S   0  0  0  0  0  0  0  0  0  0  0  0
    0.4500   67.3230   65.8160 C   0  0  0  0  0  0  0  0  0  0  0  0
    1.7640   67.6590   66.5220 C   0  0  0  0  0  0  0  0  0  0  0  0
    2.0080   69.1120   66.4510 N   0  0  0  0  0  0  0  0  0  0  0  0
    3.3300   69.3910   65.9960 C   0  0  0  0  0  0  0  0  0  0  0  0
    4.2960   69.7840   66.9330 C   0  0  0  0  0  0  0  0  0  0  0  0
    4.0180   70.0020   68.3970 C   0  0  0  0  0  0  0  0  0  0  0  0
    4.7230   71.2570   68.9240 C   0  0  0  0  0  0  0  0  0  0  0  0
    6.1550   71.4580   68.4080 C   0  0  0  0  0  0  0  0  0  0  0  0
    6.6570   70.3370   67.5020 C   0  0  0  0  0  0  0  0  0  0  0  0
    5.6060   69.9590   66.4920 C   0  0  0  0  0  0  0  0  0  0  0  0
    5.9960   69.7770   65.2130 N   0  0  0  0  0  0  0  0  0  0  0  0
    5.0750   69.4060   64.3140 C   0  0  0  0  0  0  0  0  0  0  0  0
    3.7180   69.1850   64.6410 C   0  0  0  0  0  0  0  0  0  0  0  0
    2.8380   68.7680   63.6080 C   0  0  0  0  0  0  0  0  0  0  0  0
    3.2850   68.5880   62.2990 C   0  0  0  0  0  0  0  0  0  0  0  0
    4.6170   68.8170   61.9940 C   0  0  0  0  0  0  0  0  0  0  0  0
    5.4940   69.2210   63.0030 C   0  0  0  0  0  0  0  0  0  0  0  0
   -0.5912   64.7414   69.4375 H   0  0  0  0  0  0  0  0  0  0  0  0
    4.5321   62.9015   70.4595 H   0  0  0  0  0  0  0  0  0  0  0  0
    3.3938   64.8132   69.2900 H   0  0  0  0  0  0  0  0  0  0  0  0
    0.1453   64.7131   72.1601 H   0  0  0  0  0  0  0  0  0  0  0  0
    3.2752   60.4751   75.2235 H   0  0  0  0  0  0  0  0  0  0  0  0
    1.6029   61.0698   75.6756 H   0  0  0  0  0  0  0  0  0  0  0  0
   -1.2663   57.9592   73.3049 H   0  0  0  0  0  0  0  0  0  0  0  0
   -0.2708   60.1558   73.9189 H   0  0  0  0  0  0  0  0  0  0  0  0
    3.3892   58.1566   75.0601 H   0  0  0  0  0  0  0  0  0  0  0  0
    2.3867   55.9631   74.4382 H   0  0  0  0  0  0  0  0  0  0  0  0
    0.6974   52.9485   75.0235 H   0  0  0  0  0  0  0  0  0  0  0  0
   -0.2626   52.7904   73.5135 H   0  0  0  0  0  0  0  0  0  0  0  0
    1.2614   53.7413   73.5135 H   0  0  0  0  0  0  0  0  0  0  0  0
   -1.4767   54.4794   74.5248 H   0  0  0  0  0  0  0  0  0  0  0  0
   -0.0782   55.0931   75.4494 H   0  0  0  0  0  0  0  0  0  0  0  0
    5.3437   61.5634   72.9927 H   0  0  0  0  0  0  0  0  0  0  0  0
    4.3744   60.1019   73.4582 H   0  0  0  0  0  0  0  0  0  0  0  0
    4.9470   61.1598   70.6663 H   0  0  0  0  0  0  0  0  0  0  0  0
    5.4615   59.5774   71.4486 H   0  0  0  0  0  0  0  0  0  0  0  0
    2.5684   60.1470   71.1686 H   0  0  0  0  0  0  0  0  0  0  0  0
    3.3615   58.1178   72.3161 H   0  0  0  0  0  0  0  0  0  0  0  0
    2.4390   57.7099   70.8297 H   0  0  0  0  0  0  0  0  0  0  0  0
    4.2325   57.6090   70.8297 H   0  0  0  0  0  0  0  0  0  0  0  0
    2.8193   60.6123   68.9526 H   0  0  0  0  0  0  0  0  0  0  0  0
    4.4071   59.7802   68.8382 H   0  0  0  0  0  0  0  0  0  0  0  0
    2.8884   58.8210   68.8382 H   0  0  0  0  0  0  0  0  0  0  0  0
   -1.8614   67.0057   69.7060 H   0  0  0  0  0  0  0  0  0  0  0  0
   -0.4370   67.6553   68.7728 H   0  0  0  0  0  0  0  0  0  0  0  0
   -1.0417   65.9298   66.9905 H   0  0  0  0  0  0  0  0  0  0  0  0
   -2.6367   65.8075   67.8820 H   0  0  0  0  0  0  0  0  0  0  0  0
   -0.0047   66.4601   66.3245 H   0  0  0  0  0  0  0  0  0  0  0  0
    0.6987   67.1138   64.7651 H   0  0  0  0  0  0  0  0  0  0  0  0
    1.7027   67.3494   67.5758 H   0  0  0  0  0  0  0  0  0  0  0  0
    2.5899   67.1259   66.0283 H   0  0  0  0  0  0  0  0  0  0  0  0
    1.3136   69.8315   66.6980 H   0  0  0  0  0  0  0  0  0  0  0  0
    2.9334   70.1145   68.5416 H   0  0  0  0  0  0  0  0  0  0  0  0
    4.4002   69.1333   68.9531 H   0  0  0  0  0  0  0  0  0  0  0  0
    4.1271   72.1332   68.6288 H   0  0  0  0  0  0  0  0  0  0  0  0
    4.8022   71.1320   70.0140 H   0  0  0  0  0  0  0  0  0  0  0  0
    6.1884   72.4004   67.8416 H   0  0  0  0  0  0  0  0  0  0  0  0
    6.8106   71.4679   69.2912 H   0  0  0  0  0  0  0  0  0  0  0  0
    7.5601   70.6766   66.9737 H   0  0  0  0  0  0  0  0  0  0  0  0
    6.8857   69.4570   68.1212 H   0  0  0  0  0  0  0  0  0  0  0  0
    1.7800   68.5827   63.8452 H   0  0  0  0  0  0  0  0  0  0  0  0
    2.5847   68.2664   61.5141 H   0  0  0  0  0  0  0  0  0  0  0  0
    4.9810   68.6816   60.9648 H   0  0  0  0  0  0  0  0  0  0  0  0
    6.5500   69.3983   62.7513 H   0  0  0  0  0  0  0  0  0  0  0  0
  2  1  2  0
  3  1  1  0
  5  4  2  0
  6  5  1  0
  7  6  2  0
  8  7  1  0
  8  4  1  0
  9  7  1  0
 10  9  2  0
 11 10  1  0
 11  1  1  0
 12 11  2  0
 12  6  1  0
 13  4  1  0
 15 14  2  0
 16 15  1  0
 17 16  2  0
 17 13  1  0
 18 17  1  0
 19 18  2  0
 19 14  1  0
 20 14  1  0
 22 21  1  0
 22 20  1  0
 23  8  1  0
 24 23  1  0
 25 24  1  0
 26 25  1  0
 27 25  1  0
 28  3  1  0
 29 28  1  0
 30 29  1  0
 31 30  1  0
 32 31  1  0
 33 32  1  0
 34 33  1  0
 35 34  1  0
 36 35  1  0
 37 36  1  0
 38 37  1  0
 39 38  1  0
 40 39  1  0
 41 36  2  0
 41 40  1  0
 42 41  1  0
 43 42  2  0
 44 43  1  0
 44 35  2  0
 45 44  1  0
 46 45  2  0
 47 46  1  0
 48 47  2  0
 48 43  1  0
  3 49  1  0
  9 50  1  0
 10 51  1  0
 12 52  1  0
 13 53  1  0
 13 54  1  0
 15 55  1  0
 16 56  1  0
 18 57  1  0
 19 58  1  0
 21 59  1  0
 21 60  1  0
 21 61  1  0
 22 62  1  0
 22 63  1  0
 23 64  1  0
 23 65  1  0
 24 66  1  0
 24 67  1  0
 25 68  1  0
 26 69  1  0
 26 70  1  0
 26 71  1  0
 27 72  1  0
 27 73  1  0
 27 74  1  0
 28 75  1  0
 28 76  1  0
 29 77  1  0
 29 78  1  0
 32 79  1  0
 32 80  1  0
 33 81  1  0
 33 82  1  0
 34 83  1  0
 37 84  1  0
 37 85  1  0
 38 86  1  0
 38 87  1  0
 39 88  1  0
 39 89  1  0
 40 90  1  0
 40 91  1  0
 45 92  1  0
 46 93  1  0
 47 94  1  0
 48 95  1  0
M  END
>  <score>  (1) 
-11.457

$$$$
=
     RDKit          3D

 95100  0  0  0  0  0  0  0  0999 V2000
    0.8090   66.2170   69.8130 C   0  0  0  0  0  0  0  0  0  0  0  0
    1.4950   67.2250   69.6920 O   0  0  0  0  0  0  0  0  0  0  0  0
   -0.4400   66.0740   69.2420 N   0  0  0  0  0  0  0  0  0  0  0  0
    1.1670   62.0890   74.0280 C   0  0  0  0  0  0  0  0  0  0  0  0
    0.3790   63.0790   73.6540 N   0  0  0  0  0  0  0  0  0  0  0  0
    0.9570   63.6260   72.5400 C   0  0  0  0  0  0  0  0  0  0  0  0
    2.1280   62.9560   72.2070 C   0  0  0  0  0  0  0  0  0  0  0  0
    2.2460   61.9810   73.1740 N   0  0  0  0  0  0  0  0  0  0  0  0
    2.9150   63.3110   71.1040 C   0  0  0  0  0  0  0  0  0  0  0  0
    2.4720   64.3880   70.3250 C   0  0  0  0  0  0  0  0  0  0  0  0
    1.2880   65.0710   70.6370 C   0  0  0  0  0  0  0  0  0  0  0  0
    0.5250   64.7050   71.7550 C   0  0  0  0  0  0  0  0  0  0  0  0
    0.9160   61.1980   75.2080 C   0  0  0  0  0  0  0  0  0  0  0  0
    0.6020   56.9970   74.1890 C   0  0  0  0  0  0  0  0  0  0  0  0
    1.5340   57.4320   75.1320 C   0  0  0  0  0  0  0  0  0  0  0  0
    1.6380   58.7860   75.4630 C   0  0  0  0  0  0  0  0  0  0  0  0
    0.7960   59.7290   74.8600 C   0  0  0  0  0  0  0  0  0  0  0  0
   -0.1270   59.2880   73.9000 C   0  0  0  0  0  0  0  0  0  0  0  0
   -0.2280   57.9320   73.5710 C   0  0  0  0  0  0  0  0  0  0  0  0
    0.6050   55.6480   73.9630 O   0  0  0  0  0  0  0  0  0  0  0  0
   -0.2270   53.4360   74.2590 C   0  0  0  0  0  0  0  0  0  0  0  0
   -0.5350   54.9140   74.4060 C   0  0  0  0  0  0  0  0  0  0  0  0
    3.3370   61.0230   73.2670 C   0  0  0  0  0  0  0  0  0  0  0  0
    3.1970   59.8980   72.2380 C   0  0  0  0  0  0  0  0  0  0  0  0
    4.3160   59.8410   71.1810 C   0  0  0  0  0  0  0  0  0  0  0  0
    5.4210   60.8610   71.4530 C   0  0  0  0  0  0  0  0  0  0  0  0
    3.7790   59.9990   69.7590 C   0  0  0  0  0  0  0  0  0  0  0  0
   -1.0830   67.2030   68.5930 C   0  0  0  0  0  0  0  0  0  0  0  0
   -2.2500   66.7890   67.6960 C   0  0  0  0  0  0  0  0  0  0  0  0
   -2.6720   68.0210   66.4020 S   0  0  0  0  0  0  0  0  0  0  0  0
   -0.8580   68.8450   65.8930 S   0  0  0  0  0  0  0  0  0  0  0  0
    0.2600   67.4060   65.7330 C   0  0  0  0  0  0  0  0  0  0  0  0
    1.6620   67.6400   66.2980 C   0  0  0  0  0  0  0  0  0  0  0  0
    1.9670   69.0830   66.2870 N   0  0  0  0  0  0  0  0  0  0  0  0
    3.3420   69.3160   65.9940 C   0  0  0  0  0  0  0  0  0  0  0  0
    3.7930   69.1170   64.6810 C   0  0  0  0  0  0  0  0  0  0  0  0
    2.9330   68.6030   63.5570 C   0  0  0  0  0  0  0  0  0  0  0  0
    3.6800   67.5770   62.6980 C   0  0  0  0  0  0  0  0  0  0  0  0
    5.1460   67.9270   62.4030 C   0  0  0  0  0  0  0  0  0  0  0  0
    5.5940   69.2720   62.9670 C   0  0  0  0  0  0  0  0  0  0  0  0
    5.1160   69.4400   64.3850 C   0  0  0  0  0  0  0  0  0  0  0  0
    5.9880   69.9280   65.2910 N   0  0  0  0  0  0  0  0  0  0  0  0
    5.5620   70.1150   66.5480 C   0  0  0  0  0  0  0  0  0  0  0  0
    4.2420   69.8370   66.9680 C   0  0  0  0  0  0  0  0  0  0  0  0
    3.8970   70.0990   68.3190 C   0  0  0  0  0  0  0  0  0  0  0  0
    4.8310   70.6090   69.2230 C   0  0  0  0  0  0  0  0  0  0  0  0
    6.1240   70.8680   68.7960 C   0  0  0  0  0  0  0  0  0  0  0  0
    6.4720   70.6200   67.4680 C   0  0  0  0  0  0  0  0  0  0  0  0
   -0.9180   65.1623   69.2765 H   0  0  0  0  0  0  0  0  0  0  0  0
    3.8401   62.7681   70.8601 H   0  0  0  0  0  0  0  0  0  0  0  0
    3.0637   64.7033   69.4530 H   0  0  0  0  0  0  0  0  0  0  0  0
   -0.3937   65.2530   72.0112 H   0  0  0  0  0  0  0  0  0  0  0  0
    1.7499   61.3183   75.9151 H   0  0  0  0  0  0  0  0  0  0  0  0
   -0.0509   61.5025   75.6350 H   0  0  0  0  0  0  0  0  0  0  0  0
    2.1946   56.7007   75.6206 H   0  0  0  0  0  0  0  0  0  0  0  0
    2.3852   59.1128   76.2011 H   0  0  0  0  0  0  0  0  0  0  0  0
   -0.7800   60.0181   73.3993 H   0  0  0  0  0  0  0  0  0  0  0  0
   -0.9640   57.6024   72.8229 H   0  0  0  0  0  0  0  0  0  0  0  0
   -0.1320   52.9803   75.2557 H   0  0  0  0  0  0  0  0  0  0  0  0
   -1.0421   52.9447   73.7074 H   0  0  0  0  0  0  0  0  0  0  0  0
    0.7165   53.3112   73.7074 H   0  0  0  0  0  0  0  0  0  0  0  0
   -1.4093   55.1760   73.7921 H   0  0  0  0  0  0  0  0  0  0  0  0
   -0.7604   55.1548   75.4554 H   0  0  0  0  0  0  0  0  0  0  0  0
    4.2876   61.5483   73.0927 H   0  0  0  0  0  0  0  0  0  0  0  0
    3.3114   60.5729   74.2704 H   0  0  0  0  0  0  0  0  0  0  0  0
    3.1888   58.9400   72.7785 H   0  0  0  0  0  0  0  0  0  0  0  0
    2.2648   60.0971   71.6890 H   0  0  0  0  0  0  0  0  0  0  0  0
    4.7571   58.8367   71.2634 H   0  0  0  0  0  0  0  0  0  0  0  0
    5.5505   60.9805   72.5388 H   0  0  0  0  0  0  0  0  0  0  0  0
    6.3631   60.5084   71.0080 H   0  0  0  0  0  0  0  0  0  0  0  0
    5.1448   61.8283   71.0080 H   0  0  0  0  0  0  0  0  0  0  0  0
    2.7244   60.3093   69.7977 H   0  0  0  0  0  0  0  0  0  0  0  0
    4.3666   60.7623   69.2279 H   0  0  0  0  0  0  0  0  0  0  0  0
    3.8595   59.0391   69.2279 H   0  0  0  0  0  0  0  0  0  0  0  0
   -1.4615   67.8848   69.3688 H   0  0  0  0  0  0  0  0  0  0  0  0
   -0.3310   67.6877   67.9531 H   0  0  0  0  0  0  0  0  0  0  0  0
   -1.9863   65.8432   67.2001 H   0  0  0  0  0  0  0  0  0  0  0  0
   -3.1327   66.6953   68.3457 H   0  0  0  0  0  0  0  0  0  0  0  0
   -0.1908   66.5569   66.2676 H   0  0  0  0  0  0  0  0  0  0  0  0
    0.3792   67.2145   64.6564 H   0  0  0  0  0  0  0  0  0  0  0  0
    1.7075   67.2643   67.3309 H   0  0  0  0  0  0  0  0  0  0  0  0
    2.3984   67.1069   65.6787 H   0  0  0  0  0  0  0  0  0  0  0  0
    1.2763   69.8254   66.4675 H   0  0  0  0  0  0  0  0  0  0  0  0
    2.0368   68.1276   63.9821 H   0  0  0  0  0  0  0  0  0  0  0  0
    2.6600   69.4543   62.9161 H   0  0  0  0  0  0  0  0  0  0  0  0
    3.6582   66.6107   63.2232 H   0  0  0  0  0  0  0  0  0  0  0  0
    3.1659   67.5552   61.7258 H   0  0  0  0  0  0  0  0  0  0  0  0
    5.7822   67.1417   62.8373 H   0  0  0  0  0  0  0  0  0  0  0  0
    5.2404   67.9959   61.3092 H   0  0  0  0  0  0  0  0  0  0  0  0
    6.6926   69.3238   62.9477 H   0  0  0  0  0  0  0  0  0  0  0  0
    5.1633   70.0751   62.3510 H   0  0  0  0  0  0  0  0  0  0  0  0
    2.8716   69.8960   68.6617 H   0  0  0  0  0  0  0  0  0  0  0  0
    4.5428   70.8038   70.2665 H   0  0  0  0  0  0  0  0  0  0  0  0
    6.8703   71.2662   69.4992 H   0  0  0  0  0  0  0  0  0  0  0  0
    7.5001   70.8312   67.1388 H   0  0  0  0  0  0  0  0  0  0  0  0
  2  1  2  0
  3  1  1  0
  5  4  2  0
  6  5  1  0
  7  6  2  0
  8  7  1  0
  8  4  1  0
  9  7  1  0
 10  9  2  0
 11 10  1  0
 11  1  1  0
 12 11  2  0
 12  6  1  0
 13  4  1  0
 15 14  2  0
 16 15  1  0
 17 16  2  0
 17 13  1  0
 18 17  1  0
 19 18  2  0
 19 14  1  0
 20 14  1  0
 22 21  1  0
 22 20  1  0
 23  8  1  0
 24 23  1  0
 25 24  1  0
 26 25  1  0
 27 25  1  0
 28  3  1  0
 29 28  1  0
 30 29  1  0
 31 30  1  0
 32 31  1  0
 33 32  1  0
 34 33  1  0
 35 34  1  0
 36 35  1  0
 37 36  1  0
 38 37  1  0
 39 38  1  0
 40 39  1  0
 41 36  2  0
 41 40  1  0
 42 41  1  0
 43 42  2  0
 44 43  1  0
 44 35  2  0
 45 44  1  0
 46 45  2  0
 47 46  1  0
 48 47  2  0
 48 43  1  0
  3 49  1  0
  9 50  1  0
 10 51  1  0
 12 52  1  0
 13 53  1  0
 13 54  1  0
 15 55  1  0
 16 56  1  0
 18 57  1  0
 19 58  1  0
 21 59  1  0
 21 60  1  0
 21 61  1  0
 22 62  1  0
 22 63  1  0
 23 64  1  0
 23 65  1  0
 24 66  1  0
 24 67  1  0
 25 68  1  0
 26 69  1  0
 26 70  1  0
 26 71  1  0
 27 72  1  0
 27 73  1  0
 27 74  1  0
 28 75  1  0
 28 76  1  0
 29 77  1  0
 29 78  1  0
 32 79  1  0
 32 80  1  0
 33 81  1  0
 33 82  1  0
 34 83  1  0
 37 84  1  0
 37 85  1  0
 38 86  1  0
 38 87  1  0
 39 88  1  0
 39 89  1  0
 40 90  1  0
 40 91  1  0
 45 92  1  0
 46 93  1  0
 47 94  1  0
 48 95  1  0
M  END
>  <score>  (2) 
-11.266

$$$$
=
     RDKit          3D

 95100  0  0  0  0  0  0  0  0999 V2000
    0.6260   65.8440   69.5990 C   0  0  0  0  0  0  0  0  0  0  0  0
    1.5740   66.4590   69.1280 O   0  0  0  0  0  0  0  0  0  0  0  0
   -0.6510   65.8960   69.0750 N   0  0  0  0  0  0  0  0  0  0  0  0
    2.5680   61.7160   73.3570 C   0  0  0  0  0  0  0  0  0  0  0  0
    2.7790   62.1320   72.1230 N   0  0  0  0  0  0  0  0  0  0  0  0
    1.9200   63.1790   71.9210 C   0  0  0  0  0  0  0  0  0  0  0  0
    1.1600   63.4250   73.0590 C   0  0  0  0  0  0  0  0  0  0  0  0
    1.5870   62.4750   73.9620 N   0  0  0  0  0  0  0  0  0  0  0  0
    0.2040   64.4470   73.1230 C   0  0  0  0  0  0  0  0  0  0  0  0
    0.0350   65.2340   71.9760 C   0  0  0  0  0  0  0  0  0  0  0  0
    0.7980   65.0090   70.8210 C   0  0  0  0  0  0  0  0  0  0  0  0
    1.7390   63.9710   70.7790 C   0  0  0  0  0  0  0  0  0  0  0  0
    3.3010   60.5840   74.0140 C   0  0  0  0  0  0  0  0  0  0  0  0
    1.0060   56.9250   74.3770 C   0  0  0  0  0  0  0  0  0  0  0  0
    1.5720   57.5250   75.5040 C   0  0  0  0  0  0  0  0  0  0  0  0
    2.3130   58.7050   75.3900 C   0  0  0  0  0  0  0  0  0  0  0  0
    2.4890   59.3130   74.1400 C   0  0  0  0  0  0  0  0  0  0  0  0
    1.9330   58.6950   73.0100 C   0  0  0  0  0  0  0  0  0  0  0  0
    1.1920   57.5150   73.1280 C   0  0  0  0  0  0  0  0  0  0  0  0
    0.3060   55.7790   74.6320 O   0  0  0  0  0  0  0  0  0  0  0  0
    1.9410   54.1110   74.1630 C   0  0  0  0  0  0  0  0  0  0  0  0
    1.0250   54.6970   75.2220 C   0  0  0  0  0  0  0  0  0  0  0  0
    1.0670   62.3120   75.3110 C   0  0  0  0  0  0  0  0  0  0  0  0
   -0.4190   61.9500   75.3110 C   0  0  0  0  0  0  0  0  0  0  0  0
   -0.7790   60.6760   74.5240 C   0  0  0  0  0  0  0  0  0  0  0  0
   -1.6000   60.9820   73.2720 C   0  0  0  0  0  0  0  0  0  0  0  0
   -1.4900   59.6390   75.3930 C   0  0  0  0  0  0  0  0  0  0  0  0
   -0.9700   66.8350   68.0130 C   0  0  0  0  0  0  0  0  0  0  0  0
   -2.4650   66.8910   67.6980 C   0  0  0  0  0  0  0  0  0  0  0  0
   -2.9250   68.1950   66.4900 S   0  0  0  0  0  0  0  0  0  0  0  0
   -1.1190   68.9730   65.8890 S   0  0  0  0  0  0  0  0  0  0  0  0
   -0.5970   70.0290   67.2890 C   0  0  0  0  0  0  0  0  0  0  0  0
    0.8900   69.9220   67.6290 C   0  0  0  0  0  0  0  0  0  0  0  0
    1.4870   68.7880   66.8980 N   0  0  0  0  0  0  0  0  0  0  0  0
    2.7370   69.1510   66.3170 C   0  0  0  0  0  0  0  0  0  0  0  0
    3.7670   69.5910   67.1600 C   0  0  0  0  0  0  0  0  0  0  0  0
    3.6260   69.7760   68.6480 C   0  0  0  0  0  0  0  0  0  0  0  0
    4.3050   71.0650   69.1230 C   0  0  0  0  0  0  0  0  0  0  0  0
    5.6640   71.3580   68.4700 C   0  0  0  0  0  0  0  0  0  0  0  0
    6.1370   70.2800   67.4990 C   0  0  0  0  0  0  0  0  0  0  0  0
    5.0140   69.8510   66.5930 C   0  0  0  0  0  0  0  0  0  0  0  0
    5.2830   69.7070   65.2790 N   0  0  0  0  0  0  0  0  0  0  0  0
    4.3000   69.2900   64.4690 C   0  0  0  0  0  0  0  0  0  0  0  0
    2.9980   68.9840   64.9270 C   0  0  0  0  0  0  0  0  0  0  0  0
    2.0440   68.5260   63.9800 C   0  0  0  0  0  0  0  0  0  0  0  0
    2.3670   68.3880   62.6290 C   0  0  0  0  0  0  0  0  0  0  0  0
    3.6460   68.7010   62.1980 C   0  0  0  0  0  0  0  0  0  0  0  0
    4.5940   69.1460   63.1200 C   0  0  0  0  0  0  0  0  0  0  0  0
   -1.3804   65.2663   69.4387 H   0  0  0  0  0  0  0  0  0  0  0  0
   -0.3877   64.6238   74.0333 H   0  0  0  0  0  0  0  0  0  0  0  0
   -0.7100   66.0433   71.9816 H   0  0  0  0  0  0  0  0  0  0  0  0
    2.3243   63.7816   69.8671 H   0  0  0  0  0  0  0  0  0  0  0  0
    4.1993   60.3625   73.4191 H   0  0  0  0  0  0  0  0  0  0  0  0
    3.5391   60.9112   75.0369 H   0  0  0  0  0  0  0  0  0  0  0  0
    1.4331   57.0637   76.4929 H   0  0  0  0  0  0  0  0  0  0  0  0
    2.7604   59.1587   76.2867 H   0  0  0  0  0  0  0  0  0  0  0  0
    2.0820   59.1449   72.0173 H   0  0  0  0  0  0  0  0  0  0  0  0
    0.7543   57.0508   72.2319 H   0  0  0  0  0  0  0  0  0  0  0  0
    2.7718   53.5795   74.6502 H   0  0  0  0  0  0  0  0  0  0  0  0
    1.3735   53.4078   73.5357 H   0  0  0  0  0  0  0  0  0  0  0  0
    2.3415   54.9210   73.5357 H   0  0  0  0  0  0  0  0  0  0  0  0
    0.3210   53.9284   75.5736 H   0  0  0  0  0  0  0  0  0  0  0  0
    1.6122   55.0516   76.0819 H   0  0  0  0  0  0  0  0  0  0  0  0
    1.6280   61.5104   75.8137 H   0  0  0  0  0  0  0  0  0  0  0  0
    1.1839   63.2700   75.8389 H   0  0  0  0  0  0  0  0  0  0  0  0
   -0.7353   61.8070   76.3548 H   0  0  0  0  0  0  0  0  0  0  0  0
   -0.9372   62.7792   74.8071 H   0  0  0  0  0  0  0  0  0  0  0  0
    0.1782   60.2415   74.1999 H   0  0  0  0  0  0  0  0  0  0  0  0
   -2.5932   61.3522   73.5662 H   0  0  0  0  0  0  0  0  0  0  0  0
   -1.0852   61.7486   72.6743 H   0  0  0  0  0  0  0  0  0  0  0  0
   -1.7126   60.0655   72.6743 H   0  0  0  0  0  0  0  0  0  0  0  0
   -1.3271   59.8765   76.4546 H   0  0  0  0  0  0  0  0  0  0  0  0
   -2.5680   59.6549   75.1749 H   0  0  0  0  0  0  0  0  0  0  0  0
   -1.0865   58.6392   75.1749 H   0  0  0  0  0  0  0  0  0  0  0  0
   -0.6381   67.8379   68.3197 H   0  0  0  0  0  0  0  0  0  0  0  0
   -0.4535   66.4933   67.1039 H   0  0  0  0  0  0  0  0  0  0  0  0
   -2.7688   65.9166   67.2877 H   0  0  0  0  0  0  0  0  0  0  0  0
   -2.9799   67.1332   68.6394 H   0  0  0  0  0  0  0  0  0  0  0  0
   -0.8189   71.0758   67.0341 H   0  0  0  0  0  0  0  0  0  0  0  0
   -1.1512   69.6814   68.1733 H   0  0  0  0  0  0  0  0  0  0  0  0
    1.3993   70.8528   67.3389 H   0  0  0  0  0  0  0  0  0  0  0  0
    1.0055   69.7594   68.7108 H   0  0  0  0  0  0  0  0  0  0  0  0
    1.0567   67.8556   66.8179 H   0  0  0  0  0  0  0  0  0  0  0  0
    2.5568   69.8211   68.9024 H   0  0  0  0  0  0  0  0  0  0  0  0
    4.1133   68.9260   69.1481 H   0  0  0  0  0  0  0  0  0  0  0  0
    3.6318   71.9068   68.9036 H   0  0  0  0  0  0  0  0  0  0  0  0
    4.5008   70.9330   70.1974 H   0  0  0  0  0  0  0  0  0  0  0  0
    5.5848   72.3072   67.9197 H   0  0  0  0  0  0  0  0  0  0  0  0
    6.4035   71.3972   69.2834 H   0  0  0  0  0  0  0  0  0  0  0  0
    6.9606   70.6795   66.8891 H   0  0  0  0  0  0  0  0  0  0  0  0
    6.4783   69.4084   68.0767 H   0  0  0  0  0  0  0  0  0  0  0  0
    1.0281   68.2744   64.3185 H   0  0  0  0  0  0  0  0  0  0  0  0
    1.6118   68.0335   61.9121 H   0  0  0  0  0  0  0  0  0  0  0  0
    3.9124   68.5993   61.1356 H   0  0  0  0  0  0  0  0  0  0  0  0
    5.6066   69.3905   62.7666 H   0  0  0  0  0  0  0  0  0  0  0  0
  2  1  2  0
  3  1  1  0
  5  4  2  0
  6  5  1  0
  7  6  2  0
  8  7  1  0
  8  4  1  0
  9  7  1  0
 10  9  2  0
 11 10  1  0
 11  1  1  0
 12 11  2  0
 12  6  1  0
 13  4  1  0
 15 14  2  0
 16 15  1  0
 17 16  2  0
 17 13  1  0
 18 17  1  0
 19 18  2  0
 19 14  1  0
 20 14  1  0
 22 21  1  0
 22 20  1  0
 23  8  1  0
 24 23  1  0
 25 24  1  0
 26 25  1  0
 27 25  1  0
 28  3  1  0
 29 28  1  0
 30 29  1  0
 31 30  1  0
 32 31  1  0
 33 32  1  0
 34 33  1  0
 35 34  1  0
 36 35  1  0
 37 36  1  0
 38 37  1  0
 39 38  1  0
 40 39  1  0
 41 36  2  0
 41 40  1  0
 42 41  1  0
 43 42  2  0
 44 43  1  0
 44 35  2  0
 45 44  1  0
 46 45  2  0
 47 46  1  0
 48 47  2  0
 48 43  1  0
  3 49  1  0
  9 50  1  0
 10 51  1  0
 12 52  1  0
 13 53  1  0
 13 54  1  0
 15 55  1  0
 16 56  1  0
 18 57  1  0
 19 58  1  0
 21 59  1  0
 21 60  1  0
 21 61  1  0
 22 62  1  0
 22 63  1  0
 23 64  1  0
 23 65  1  0
 24 66  1  0
 24 67  1  0
 25 68  1  0
 26 69  1  0
 26 70  1  0
 26 71  1  0
 27 72  1  0
 27 73  1  0
 27 74  1  0
 28 75  1  0
 28 76  1  0
 29 77  1  0
 29 78  1  0
 32 79  1  0
 32 80  1  0
 33 81  1  0
 33 82  1  0
 34 83  1  0
 37 84  1  0
 37 85  1  0
 38 86  1  0
 38 87  1  0
 39 88  1  0
 39 89  1  0
 40 90  1  0
 40 91  1  0
 45 92  1  0
 46 93  1  0
 47 94  1  0
 48 95  1  0
M  END
>  <score>  (3) 
-10.638

$$$$
=
     RDKit          3D

 95100  0  0  0  0  0  0  0  0999 V2000
    1.1190   62.1320   71.8200 C   0  0  0  0  0  0  0  0  0  0  0  0
    2.3320   61.9680   71.7740 O   0  0  0  0  0  0  0  0  0  0  0  0
    0.4610   63.1370   71.1370 N   0  0  0  0  0  0  0  0  0  0  0  0
   -3.5070   59.9460   74.7800 C   0  0  0  0  0  0  0  0  0  0  0  0
   -3.1960   60.9780   74.0180 N   0  0  0  0  0  0  0  0  0  0  0  0
   -1.8790   60.8200   73.6800 C   0  0  0  0  0  0  0  0  0  0  0  0
   -1.3590   59.6580   74.2380 C   0  0  0  0  0  0  0  0  0  0  0  0
   -2.4140   59.1190   74.9410 N   0  0  0  0  0  0  0  0  0  0  0  0
   -0.0310   59.2560   74.0450 C   0  0  0  0  0  0  0  0  0  0  0  0
    0.7750   60.0800   73.2490 C   0  0  0  0  0  0  0  0  0  0  0  0
    0.2680   61.2510   72.6680 C   0  0  0  0  0  0  0  0  0  0  0  0
   -1.0610   61.6390   72.8890 C   0  0  0  0  0  0  0  0  0  0  0  0
   -4.8620   59.7020   75.3760 C   0  0  0  0  0  0  0  0  0  0  0  0
   -8.0290   61.9650   73.4700 C   0  0  0  0  0  0  0  0  0  0  0  0
   -7.5750   60.7680   72.9130 C   0  0  0  0  0  0  0  0  0  0  0  0
   -6.5540   60.0360   73.5240 C   0  0  0  0  0  0  0  0  0  0  0  0
   -5.9760   60.4880   74.7180 C   0  0  0  0  0  0  0  0  0  0  0  0
   -6.4240   61.7000   75.2640 C   0  0  0  0  0  0  0  0  0  0  0  0
   -7.4470   62.4300   74.6480 C   0  0  0  0  0  0  0  0  0  0  0  0
   -9.0330   62.5760   72.7710 O   0  0  0  0  0  0  0  0  0  0  0  0
   -8.6710   64.6550   71.6670 C   0  0  0  0  0  0  0  0  0  0  0  0
   -9.1710   63.9870   72.9340 C   0  0  0  0  0  0  0  0  0  0  0  0
   -2.3590   57.8930   75.7220 C   0  0  0  0  0  0  0  0  0  0  0  0
   -2.3940   56.6480   74.8340 C   0  0  0  0  0  0  0  0  0  0  0  0
   -1.1680   55.7250   74.9570 C   0  0  0  0  0  0  0  0  0  0  0  0
   -0.2390   56.1460   76.0950 C   0  0  0  0  0  0  0  0  0  0  0  0
   -0.3920   55.6130   73.6440 C   0  0  0  0  0  0  0  0  0  0  0  0
    1.2150   64.1700   70.4480 C   0  0  0  0  0  0  0  0  0  0  0  0
    0.6930   65.5780   70.7340 C   0  0  0  0  0  0  0  0  0  0  0  0
    1.0640   66.7960   69.4110 S   0  0  0  0  0  0  0  0  0  0  0  0
   -0.6710   66.8750   68.3110 S   0  0  0  0  0  0  0  0  0  0  0  0
   -0.1200   67.3720   66.6390 C   0  0  0  0  0  0  0  0  0  0  0  0
    1.3880   67.6000   66.5220 C   0  0  0  0  0  0  0  0  0  0  0  0
    1.6680   69.0470   66.4590 N   0  0  0  0  0  0  0  0  0  0  0  0
    2.9690   69.2970   65.9340 C   0  0  0  0  0  0  0  0  0  0  0  0
    3.9900   69.6730   66.8180 C   0  0  0  0  0  0  0  0  0  0  0  0
    3.7940   69.9020   68.2930 C   0  0  0  0  0  0  0  0  0  0  0  0
    4.5510   71.1440   68.7770 C   0  0  0  0  0  0  0  0  0  0  0  0
    5.9580   71.3140   68.1860 C   0  0  0  0  0  0  0  0  0  0  0  0
    6.3890   70.1810   67.2590 C   0  0  0  0  0  0  0  0  0  0  0  0
    5.2790   69.8210   66.3080 C   0  0  0  0  0  0  0  0  0  0  0  0
    5.5980   69.6270   65.0110 N   0  0  0  0  0  0  0  0  0  0  0  0
    4.6230   69.2710   64.1630 C   0  0  0  0  0  0  0  0  0  0  0  0
    3.2810   69.0790   64.5610 C   0  0  0  0  0  0  0  0  0  0  0  0
    2.3400   68.6770   63.5780 C   0  0  0  0  0  0  0  0  0  0  0  0
    2.7140   68.4840   62.2470 C   0  0  0  0  0  0  0  0  0  0  0  0
    4.0330   68.6850   61.8730 C   0  0  0  0  0  0  0  0  0  0  0  0
    4.9690   69.0740   62.8320 C   0  0  0  0  0  0  0  0  0  0  0  0
   -0.5687   63.1538   71.1163 H   0  0  0  0  0  0  0  0  0  0  0  0
    0.3615   58.3339   74.4985 H   0  0  0  0  0  0  0  0  0  0  0  0
    1.8255   59.8031   73.0765 H   0  0  0  0  0  0  0  0  0  0  0  0
   -1.4543   62.5679   72.4503 H   0  0  0  0  0  0  0  0  0  0  0  0
   -5.0929   58.6306   75.2824 H   0  0  0  0  0  0  0  0  0  0  0  0
   -4.8133   60.0356   76.4231 H   0  0  0  0  0  0  0  0  0  0  0  0
   -8.0269   60.3966   71.9814 H   0  0  0  0  0  0  0  0  0  0  0  0
   -6.2019   59.1001   73.0656 H   0  0  0  0  0  0  0  0  0  0  0  0
   -5.9654   62.0816   76.1882 H   0  0  0  0  0  0  0  0  0  0  0  0
   -7.7928   63.3737   75.0950 H   0  0  0  0  0  0  0  0  0  0  0  0
   -8.0311   65.5099   71.9312 H   0  0  0  0  0  0  0  0  0  0  0  0
   -8.0906   63.9316   71.0756 H   0  0  0  0  0  0  0  0  0  0  0  0
   -9.5287   65.0079   71.0756 H   0  0  0  0  0  0  0  0  0  0  0  0
   -8.5741   64.3238   73.7944 H   0  0  0  0  0  0  0  0  0  0  0  0
  -10.2235   64.2501   73.1156 H   0  0  0  0  0  0  0  0  0  0  0  0
   -1.4278   57.8860   76.3075 H   0  0  0  0  0  0  0  0  0  0  0  0
   -3.2410   57.8678   76.3788 H   0  0  0  0  0  0  0  0  0  0  0  0
   -3.2880   56.0647   75.0996 H   0  0  0  0  0  0  0  0  0  0  0  0
   -2.4015   57.0116   73.7959 H   0  0  0  0  0  0  0  0  0  0  0  0
   -1.5648   54.7278   75.1980 H   0  0  0  0  0  0  0  0  0  0  0  0
   -0.7195   55.9282   77.0602 H   0  0  0  0  0  0  0  0  0  0  0  0
    0.7063   55.5883   76.0220 H   0  0  0  0  0  0  0  0  0  0  0  0
   -0.0351   57.2245   76.0220 H   0  0  0  0  0  0  0  0  0  0  0  0
    0.6753   55.4590   73.8609 H   0  0  0  0  0  0  0  0  0  0  0  0
   -0.7749   54.7608   73.0633 H   0  0  0  0  0  0  0  0  0  0  0  0
   -0.5183   56.5387   73.0633 H   0  0  0  0  0  0  0  0  0  0  0  0
    2.2650   64.1126   70.7709 H   0  0  0  0  0  0  0  0  0  0  0  0
    1.1086   63.9915   69.3678 H   0  0  0  0  0  0  0  0  0  0  0  0
   -0.3987   65.5236   70.8576 H   0  0  0  0  0  0  0  0  0  0  0  0
    1.2055   65.9288   71.6419 H   0  0  0  0  0  0  0  0  0  0  0  0
   -0.4058   66.5800   65.9312 H   0  0  0  0  0  0  0  0  0  0  0  0
   -0.6050   68.3341   66.4174 H   0  0  0  0  0  0  0  0  0  0  0  0
    1.8924   67.1677   67.3987 H   0  0  0  0  0  0  0  0  0  0  0  0
    1.7599   67.1165   65.6066 H   0  0  0  0  0  0  0  0  0  0  0  0
    1.0091   69.7809   66.7558 H   0  0  0  0  0  0  0  0  0  0  0  0
    2.7210   70.0373   68.4937 H   0  0  0  0  0  0  0  0  0  0  0  0
    4.1875   69.0276   68.8321 H   0  0  0  0  0  0  0  0  0  0  0  0
    3.9584   72.0313   68.5095 H   0  0  0  0  0  0  0  0  0  0  0  0
    4.6846   71.0209   69.8619 H   0  0  0  0  0  0  0  0  0  0  0  0
    5.9810   72.2541   67.6153 H   0  0  0  0  0  0  0  0  0  0  0  0
    6.6589   71.3123   69.0338 H   0  0  0  0  0  0  0  0  0  0  0  0
    7.2692   70.5013   66.6822 H   0  0  0  0  0  0  0  0  0  0  0  0
    6.6330   69.2984   67.8685 H   0  0  0  0  0  0  0  0  0  0  0  0
    1.2925   68.5138   63.8713 H   0  0  0  0  0  0  0  0  0  0  0  0
    1.9673   68.1747   61.5008 H   0  0  0  0  0  0  0  0  0  0  0  0
    4.3402   68.5389   60.8269 H   0  0  0  0  0  0  0  0  0  0  0  0
    6.0136   69.2296   62.5245 H   0  0  0  0  0  0  0  0  0  0  0  0
  2  1  2  0
  3  1  1  0
  5  4  2  0
  6  5  1  0
  7  6  2  0
  8  7  1  0
  8  4  1  0
  9  7  1  0
 10  9  2  0
 11 10  1  0
 11  1  1  0
 12 11  2  0
 12  6  1  0
 13  4  1  0
 15 14  2  0
 16 15  1  0
 17 16  2  0
 17 13  1  0
 18 17  1  0
 19 18  2  0
 19 14  1  0
 20 14  1  0
 22 21  1  0
 22 20  1  0
 23  8  1  0
 24 23  1  0
 25 24  1  0
 26 25  1  0
 27 25  1  0
 28  3  1  0
 29 28  1  0
 30 29  1  0
 31 30  1  0
 32 31  1  0
 33 32  1  0
 34 33  1  0
 35 34  1  0
 36 35  1  0
 37 36  1  0
 38 37  1  0
 39 38  1  0
 40 39  1  0
 41 36  2  0
 41 40  1  0
 42 41  1  0
 43 42  2  0
 44 43  1  0
 44 35  2  0
 45 44  1  0
 46 45  2  0
 47 46  1  0
 48 47  2  0
 48 43  1  0
  3 49  1  0
  9 50  1  0
 10 51  1  0
 12 52  1  0
 13 53  1  0
 13 54  1  0
 15 55  1  0
 16 56  1  0
 18 57  1  0
 19 58  1  0
 21 59  1  0
 21 60  1  0
 21 61  1  0
 22 62  1  0
 22 63  1  0
 23 64  1  0
 23 65  1  0
 24 66  1  0
 24 67  1  0
 25 68  1  0
 26 69  1  0
 26 70  1  0
 26 71  1  0
 27 72  1  0
 27 73  1  0
 27 74  1  0
 28 75  1  0
 28 76  1  0
 29 77  1  0
 29 78  1  0
 32 79  1  0
 32 80  1  0
 33 81  1  0
 33 82  1  0
 34 83  1  0
 37 84  1  0
 37 85  1  0
 38 86  1  0
 38 87  1  0
 39 88  1  0
 39 89  1  0
 40 90  1  0
 40 91  1  0
 45 92  1  0
 46 93  1  0
 47 94  1  0
 48 95  1  0
M  END
>  <score>  (4) 
-10.587

$$$$
=
     RDKit          3D

 95100  0  0  0  0  0  0  0  0999 V2000
    0.7620   65.9810   69.9830 C   0  0  0  0  0  0  0  0  0  0  0  0
    1.4990   66.9570   69.9170 O   0  0  0  0  0  0  0  0  0  0  0  0
   -0.3390   65.8030   69.1690 N   0  0  0  0  0  0  0  0  0  0  0  0
    3.1090   61.3820   72.8610 C   0  0  0  0  0  0  0  0  0  0  0  0
    3.3050   62.0890   71.7630 N   0  0  0  0  0  0  0  0  0  0  0  0
    2.3210   63.0400   71.7410 C   0  0  0  0  0  0  0  0  0  0  0  0
    1.4960   62.9280   72.8550 C   0  0  0  0  0  0  0  0  0  0  0  0
    2.0150   61.8590   73.5530 N   0  0  0  0  0  0  0  0  0  0  0  0
    0.4110   63.7840   73.0810 C   0  0  0  0  0  0  0  0  0  0  0  0
    0.1780   64.7830   72.1260 C   0  0  0  0  0  0  0  0  0  0  0  0
    1.0030   64.9200   71.0010 C   0  0  0  0  0  0  0  0  0  0  0  0
    2.0750   64.0420   70.7920 C   0  0  0  0  0  0  0  0  0  0  0  0
    3.9650   60.2300   73.2980 C   0  0  0  0  0  0  0  0  0  0  0  0
    1.7790   56.5790   74.1220 C   0  0  0  0  0  0  0  0  0  0  0  0
    2.6310   57.1300   75.0810 C   0  0  0  0  0  0  0  0  0  0  0  0
    3.3380   58.3070   74.8190 C   0  0  0  0  0  0  0  0  0  0  0  0
    3.1920   58.9620   73.5880 C   0  0  0  0  0  0  0  0  0  0  0  0
    2.3470   58.3940   72.6230 C   0  0  0  0  0  0  0  0  0  0  0  0
    1.6420   57.2150   72.8900 C   0  0  0  0  0  0  0  0  0  0  0  0
    1.1490   55.4300   74.5120 O   0  0  0  0  0  0  0  0  0  0  0  0
    1.2180   53.0560   74.6940 C   0  0  0  0  0  0  0  0  0  0  0  0
    1.9780   54.3470   74.9330 C   0  0  0  0  0  0  0  0  0  0  0  0
    1.4760   61.3330   74.7980 C   0  0  0  0  0  0  0  0  0  0  0  0
    0.1480   60.6050   74.5830 C   0  0  0  0  0  0  0  0  0  0  0  0
   -0.1200   59.4410   75.5550 C   0  0  0  0  0  0  0  0  0  0  0  0
   -1.4520   58.7460   75.2710 C   0  0  0  0  0  0  0  0  0  0  0  0
   -0.0440   59.8760   77.0180 C   0  0  0  0  0  0  0  0  0  0  0  0
   -0.7790   66.8700   68.2870 C   0  0  0  0  0  0  0  0  0  0  0  0
   -2.1630   66.6140   67.6880 C   0  0  0  0  0  0  0  0  0  0  0  0
   -2.8740   68.0590   66.8070 S   0  0  0  0  0  0  0  0  0  0  0  0
   -1.2390   69.2320   66.3800 S   0  0  0  0  0  0  0  0  0  0  0  0
   -0.8250   68.8110   64.6490 C   0  0  0  0  0  0  0  0  0  0  0  0
    0.6690   68.8870   64.3300 C   0  0  0  0  0  0  0  0  0  0  0  0
    1.4410   68.2400   65.4090 N   0  0  0  0  0  0  0  0  0  0  0  0
    2.7840   68.7180   65.4390 C   0  0  0  0  0  0  0  0  0  0  0  0
    3.5460   68.6570   64.2640 C   0  0  0  0  0  0  0  0  0  0  0  0
    3.0650   68.0530   62.9700 C   0  0  0  0  0  0  0  0  0  0  0  0
    4.1560   67.2080   62.3020 C   0  0  0  0  0  0  0  0  0  0  0  0
    5.5650   67.8160   62.3520 C   0  0  0  0  0  0  0  0  0  0  0  0
    5.6300   69.1920   63.0080 C   0  0  0  0  0  0  0  0  0  0  0  0
    4.8230   69.2140   64.2800 C   0  0  0  0  0  0  0  0  0  0  0  0
    5.3690   69.8040   65.3630 N   0  0  0  0  0  0  0  0  0  0  0  0
    4.6450   69.8600   66.4890 C   0  0  0  0  0  0  0  0  0  0  0  0
    3.3340   69.3420   66.5940 C   0  0  0  0  0  0  0  0  0  0  0  0
    2.6540   69.4820   67.8320 C   0  0  0  0  0  0  0  0  0  0  0  0
    3.2550   70.1040   68.9280 C   0  0  0  0  0  0  0  0  0  0  0  0
    4.5440   70.5990   68.8090 C   0  0  0  0  0  0  0  0  0  0  0  0
    5.2210   70.4730   67.5950 C   0  0  0  0  0  0  0  0  0  0  0  0
   -0.8508   64.9093   69.1873 H   0  0  0  0  0  0  0  0  0  0  0  0
   -0.2299   63.6771   73.9686 H   0  0  0  0  0  0  0  0  0  0  0  0
   -0.6682   65.4726   72.2618 H   0  0  0  0  0  0  0  0  0  0  0  0
    2.7115   64.1373   69.9000 H   0  0  0  0  0  0  0  0  0  0  0  0
    4.6914   60.0170   72.4999 H   0  0  0  0  0  0  0  0  0  0  0  0
    4.4458   60.5313   74.2404 H   0  0  0  0  0  0  0  0  0  0  0  0
    2.7473   56.6317   76.0548 H   0  0  0  0  0  0  0  0  0  0  0  0
    4.0125   58.7215   75.5827 H   0  0  0  0  0  0  0  0  0  0  0  0
    2.2371   58.8819   71.6433 H   0  0  0  0  0  0  0  0  0  0  0  0
    0.9772   56.7888   72.1243 H   0  0  0  0  0  0  0  0  0  0  0  0
    0.9514   52.6032   75.6604 H   0  0  0  0  0  0  0  0  0  0  0  0
    0.3018   53.2700   74.1242 H   0  0  0  0  0  0  0  0  0  0  0  0
    1.8497   52.3587   74.1242 H   0  0  0  0  0  0  0  0  0  0  0  0
    2.2123   54.4499   76.0028 H   0  0  0  0  0  0  0  0  0  0  0  0
    2.9218   54.3456   74.3680 H   0  0  0  0  0  0  0  0  0  0  0  0
    2.2018   60.6283   75.2300 H   0  0  0  0  0  0  0  0  0  0  0  0
    1.2941   62.1804   75.4753 H   0  0  0  0  0  0  0  0  0  0  0  0
   -0.6649   61.3375   74.6952 H   0  0  0  0  0  0  0  0  0  0  0  0
    0.1996   60.1610   73.5779 H   0  0  0  0  0  0  0  0  0  0  0  0
    0.6852   58.7122   75.3804 H   0  0  0  0  0  0  0  0  0  0  0  0
   -1.9422   58.4902   76.2219 H   0  0  0  0  0  0  0  0  0  0  0  0
   -2.1015   59.4202   74.6934 H   0  0  0  0  0  0  0  0  0  0  0  0
   -1.2706   57.8276   74.6934 H   0  0  0  0  0  0  0  0  0  0  0  0
   -0.1966   59.0023   77.6687 H   0  0  0  0  0  0  0  0  0  0  0  0
    0.9444   60.3148   77.2192 H   0  0  0  0  0  0  0  0  0  0  0  0
   -0.8251   60.6240   77.2192 H   0  0  0  0  0  0  0  0  0  0  0  0
   -0.8127   67.8081   68.8605 H   0  0  0  0  0  0  0  0  0  0  0  0
   -0.0635   66.9256   67.4534 H   0  0  0  0  0  0  0  0  0  0  0  0
   -2.0827   65.7797   66.9756 H   0  0  0  0  0  0  0  0  0  0  0  0
   -2.8370   66.3902   68.5280 H   0  0  0  0  0  0  0  0  0  0  0  0
   -1.1692   67.7852   64.4508 H   0  0  0  0  0  0  0  0  0  0  0  0
   -1.3245   69.5561   64.0123 H   0  0  0  0  0  0  0  0  0  0  0  0
    0.8666   68.3710   63.3788 H   0  0  0  0  0  0  0  0  0  0  0  0
    0.9710   69.9415   64.2475 H   0  0  0  0  0  0  0  0  0  0  0  0
    1.0593   67.5352   66.0559 H   0  0  0  0  0  0  0  0  0  0  0  0
    2.1943   67.4133   63.1765 H   0  0  0  0  0  0  0  0  0  0  0  0
    2.7972   68.8721   62.2864 H   0  0  0  0  0  0  0  0  0  0  0  0
    4.1875   66.2305   62.8054 H   0  0  0  0  0  0  0  0  0  0  0  0
    3.8863   67.1408   61.2377 H   0  0  0  0  0  0  0  0  0  0  0  0
    6.2155   67.1330   62.9181 H   0  0  0  0  0  0  0  0  0  0  0  0
    5.8895   67.9476   61.3092 H   0  0  0  0  0  0  0  0  0  0  0  0
    6.6779   69.4318   63.2410 H   0  0  0  0  0  0  0  0  0  0  0  0
    5.2140   69.9356   62.3123 H   0  0  0  0  0  0  0  0  0  0  0  0
    1.6303   69.0916   67.9302 H   0  0  0  0  0  0  0  0  0  0  0  0
    2.7097   70.2004   69.8785 H   0  0  0  0  0  0  0  0  0  0  0  0
    5.0304   71.0881   69.6659 H   0  0  0  0  0  0  0  0  0  0  0  0
    6.2428   70.8716   67.5111 H   0  0  0  0  0  0  0  0  0  0  0  0
  2  1  2  0
  3  1  1  0
  5  4  2  0
  6  5  1  0
  7  6  2  0
  8  7  1  0
  8  4  1  0
  9  7  1  0
 10  9  2  0
 11 10  1  0
 11  1  1  0
 12 11  2  0
 12  6  1  0
 13  4  1  0
 15 14  2  0
 16 15  1  0
 17 16  2  0
 17 13  1  0
 18 17  1  0
 19 18  2  0
 19 14  1  0
 20 14  1  0
 22 21  1  0
 22 20  1  0
 23  8  1  0
 24 23  1  0
 25 24  1  0
 26 25  1  0
 27 25  1  0
 28  3  1  0
 29 28  1  0
 30 29  1  0
 31 30  1  0
 32 31  1  0
 33 32  1  0
 34 33  1  0
 35 34  1  0
 36 35  1  0
 37 36  1  0
 38 37  1  0
 39 38  1  0
 40 39  1  0
 41 36  2  0
 41 40  1  0
 42 41  1  0
 43 42  2  0
 44 43  1  0
 44 35  2  0
 45 44  1  0
 46 45  2  0
 47 46  1  0
 48 47  2  0
 48 43  1  0
  3 49  1  0
  9 50  1  0
 10 51  1  0
 12 52  1  0
 13 53  1  0
 13 54  1  0
 15 55  1  0
 16 56  1  0
 18 57  1  0
 19 58  1  0
 21 59  1  0
 21 60  1  0
 21 61  1  0
 22 62  1  0
 22 63  1  0
 23 64  1  0
 23 65  1  0
 24 66  1  0
 24 67  1  0
 25 68  1  0
 26 69  1  0
 26 70  1  0
 26 71  1  0
 27 72  1  0
 27 73  1  0
 27 74  1  0
 28 75  1  0
 28 76  1  0
 29 77  1  0
 29 78  1  0
 32 79  1  0
 32 80  1  0
 33 81  1  0
 33 82  1  0
 34 83  1  0
 37 84  1  0
 37 85  1  0
 38 86  1  0
 38 87  1  0
 39 88  1  0
 39 89  1  0
 40 90  1  0
 40 91  1  0
 45 92  1  0
 46 93  1  0
 47 94  1  0
 48 95  1  0
M  END
>  <score>  (5) 
-10.561

$$$$
=
     RDKit          3D

 95100  0  0  0  0  0  0  0  0999 V2000
    1.1810   62.2950   71.7710 C   0  0  0  0  0  0  0  0  0  0  0  0
    2.3740   62.1010   71.5720 O   0  0  0  0  0  0  0  0  0  0  0  0
    0.4970   63.3900   71.2800 N   0  0  0  0  0  0  0  0  0  0  0  0
   -3.2850   59.7900   74.7230 C   0  0  0  0  0  0  0  0  0  0  0  0
   -3.0410   60.8520   73.9780 N   0  0  0  0  0  0  0  0  0  0  0  0
   -1.7200   60.7770   73.6280 C   0  0  0  0  0  0  0  0  0  0  0  0
   -1.1290   59.6370   74.1600 C   0  0  0  0  0  0  0  0  0  0  0  0
   -2.1450   59.0240   74.8600 N   0  0  0  0  0  0  0  0  0  0  0  0
    0.2190   59.3170   73.9490 C   0  0  0  0  0  0  0  0  0  0  0  0
    0.9690   60.2010   73.1630 C   0  0  0  0  0  0  0  0  0  0  0  0
    0.3900   61.3510   72.6090 C   0  0  0  0  0  0  0  0  0  0  0  0
   -0.9580   61.6570   72.8460 C   0  0  0  0  0  0  0  0  0  0  0  0
   -4.6190   59.4560   75.3230 C   0  0  0  0  0  0  0  0  0  0  0  0
   -7.8510   62.0690   74.0930 C   0  0  0  0  0  0  0  0  0  0  0  0
   -7.1280   62.3320   75.2580 C   0  0  0  0  0  0  0  0  0  0  0  0
   -6.0850   61.4910   75.6580 C   0  0  0  0  0  0  0  0  0  0  0  0
   -5.7400   60.3740   74.8860 C   0  0  0  0  0  0  0  0  0  0  0  0
   -6.4820   60.1060   73.7250 C   0  0  0  0  0  0  0  0  0  0  0  0
   -7.5250   60.9500   73.3290 C   0  0  0  0  0  0  0  0  0  0  0  0
   -8.8400   62.9720   73.8190 O   0  0  0  0  0  0  0  0  0  0  0  0
   -8.4640   64.7330   72.2590 C   0  0  0  0  0  0  0  0  0  0  0  0
   -9.0250   63.3360   72.4520 C   0  0  0  0  0  0  0  0  0  0  0  0
   -2.0120   57.7890   75.6170 C   0  0  0  0  0  0  0  0  0  0  0  0
   -1.9060   56.5670   74.7030 C   0  0  0  0  0  0  0  0  0  0  0  0
   -0.5850   55.7830   74.8150 C   0  0  0  0  0  0  0  0  0  0  0  0
    0.2450   56.2190   76.0220 C   0  0  0  0  0  0  0  0  0  0  0  0
    0.2470   55.8590   73.5350 C   0  0  0  0  0  0  0  0  0  0  0  0
    1.2160   64.4710   70.6270 C   0  0  0  0  0  0  0  0  0  0  0  0
    0.4220   65.7770   70.5900 C   0  0  0  0  0  0  0  0  0  0  0  0
    0.8800   66.8920   69.2050 S   0  0  0  0  0  0  0  0  0  0  0  0
   -0.8650   67.0990   68.1380 S   0  0  0  0  0  0  0  0  0  0  0  0
   -0.3090   67.3550   66.4140 C   0  0  0  0  0  0  0  0  0  0  0  0
    1.2020   67.5440   66.2690 C   0  0  0  0  0  0  0  0  0  0  0  0
    1.4900   68.9280   65.8470 N   0  0  0  0  0  0  0  0  0  0  0  0
    2.8940   69.1570   65.7580 C   0  0  0  0  0  0  0  0  0  0  0  0
    3.5280   68.9810   64.5200 C   0  0  0  0  0  0  0  0  0  0  0  0
    2.8360   68.4950   63.2740 C   0  0  0  0  0  0  0  0  0  0  0  0
    3.6950   67.4800   62.5110 C   0  0  0  0  0  0  0  0  0  0  0  0
    5.1890   67.8250   62.4370 C   0  0  0  0  0  0  0  0  0  0  0  0
    5.5570   69.1560   63.0860 C   0  0  0  0  0  0  0  0  0  0  0  0
    4.8810   69.3010   64.4240 C   0  0  0  0  0  0  0  0  0  0  0  0
    5.6160   69.7650   65.4550 N   0  0  0  0  0  0  0  0  0  0  0  0
    5.0150   69.9310   66.6410 C   0  0  0  0  0  0  0  0  0  0  0  0
    3.6470   69.6540   66.8620 C   0  0  0  0  0  0  0  0  0  0  0  0
    3.1130   69.8920   68.1550 C   0  0  0  0  0  0  0  0  0  0  0  0
    3.9090   70.3780   69.1930 C   0  0  0  0  0  0  0  0  0  0  0  0
    5.2510   70.6360   68.9610 C   0  0  0  0  0  0  0  0  0  0  0  0
    5.7860   70.4120   67.6920 C   0  0  0  0  0  0  0  0  0  0  0  0
   -0.5272   63.4406   71.3771 H   0  0  0  0  0  0  0  0  0  0  0  0
    0.6684   58.4111   74.3818 H   0  0  0  0  0  0  0  0  0  0  0  0
    2.0322   59.9888   72.9770 H   0  0  0  0  0  0  0  0  0  0  0  0
   -1.4085   62.5689   72.4270 H   0  0  0  0  0  0  0  0  0  0  0  0
   -4.8810   58.4280   75.0322 H   0  0  0  0  0  0  0  0  0  0  0  0
   -4.5164   59.5763   76.4116 H   0  0  0  0  0  0  0  0  0  0  0  0
   -7.3819   63.2112   75.8684 H   0  0  0  0  0  0  0  0  0  0  0  0
   -5.5323   61.7076   76.5840 H   0  0  0  0  0  0  0  0  0  0  0  0
   -6.2402   59.2207   73.1186 H   0  0  0  0  0  0  0  0  0  0  0  0
   -8.0899   60.7296   72.4112 H   0  0  0  0  0  0  0  0  0  0  0  0
   -8.2793   65.1929   73.2410 H   0  0  0  0  0  0  0  0  0  0  0  0
   -7.5196   64.6746   71.6980 H   0  0  0  0  0  0  0  0  0  0  0  0
   -9.1865   65.3440   71.6980 H   0  0  0  0  0  0  0  0  0  0  0  0
  -10.0968   63.3266   72.2049 H   0  0  0  0  0  0  0  0  0  0  0  0
   -8.5087   62.6223   71.7931 H   0  0  0  0  0  0  0  0  0  0  0  0
   -1.1057   57.8484   76.2376 H   0  0  0  0  0  0  0  0  0  0  0  0
   -2.9120   57.6721   76.2386 H   0  0  0  0  0  0  0  0  0  0  0  0
   -2.7309   55.8829   74.9509 H   0  0  0  0  0  0  0  0  0  0  0  0
   -1.9503   56.9491   73.6725 H   0  0  0  0  0  0  0  0  0  0  0  0
   -0.8712   54.7315   74.9650 H   0  0  0  0  0  0  0  0  0  0  0  0
   -0.2810   55.9427   76.9478 H   0  0  0  0  0  0  0  0  0  0  0  0
    1.2243   55.7189   75.9935 H   0  0  0  0  0  0  0  0  0  0  0  0
    0.3890   57.3092   75.9935 H   0  0  0  0  0  0  0  0  0  0  0  0
    1.3114   55.9562   73.7948 H   0  0  0  0  0  0  0  0  0  0  0  0
    0.0959   54.9433   72.9445 H   0  0  0  0  0  0  0  0  0  0  0  0
   -0.0676   56.7322   72.9445 H   0  0  0  0  0  0  0  0  0  0  0  0
    2.1555   64.6468   71.1715 H   0  0  0  0  0  0  0  0  0  0  0  0
    1.3970   64.1653   69.5860 H   0  0  0  0  0  0  0  0  0  0  0  0
   -0.6458   65.5299   70.4962 H   0  0  0  0  0  0  0  0  0  0  0  0
    0.6526   66.3155   71.5210 H   0  0  0  0  0  0  0  0  0  0  0  0
   -0.6063   66.4777   65.8208 H   0  0  0  0  0  0  0  0  0  0  0  0
   -0.7811   68.2841   66.0621 H   0  0  0  0  0  0  0  0  0  0  0  0
    1.6898   67.3469   67.2350 H   0  0  0  0  0  0  0  0  0  0  0  0
    1.5865   66.8442   65.5124 H   0  0  0  0  0  0  0  0  0  0  0  0
    0.7705   69.6363   65.6433 H   0  0  0  0  0  0  0  0  0  0  0  0
    1.8859   68.0179   63.5563 H   0  0  0  0  0  0  0  0  0  0  0  0
    2.6613   69.3603   62.6177 H   0  0  0  0  0  0  0  0  0  0  0  0
    3.5937   66.5041   63.0083 H   0  0  0  0  0  0  0  0  0  0  0  0
    3.3262   67.4804   61.4747 H   0  0  0  0  0  0  0  0  0  0  0  0
    5.7526   67.0272   62.9428 H   0  0  0  0  0  0  0  0  0  0  0  0
    5.4402   67.9139   61.3698 H   0  0  0  0  0  0  0  0  0  0  0  0
    6.6472   69.2004   63.2256 H   0  0  0  0  0  0  0  0  0  0  0  0
    5.2224   69.9735   62.4304 H   0  0  0  0  0  0  0  0  0  0  0  0
    2.0484   69.6890   68.3432 H   0  0  0  0  0  0  0  0  0  0  0  0
    3.4747   70.5551   70.1880 H   0  0  0  0  0  0  0  0  0  0  0  0
    5.8901   71.0149   69.7722 H   0  0  0  0  0  0  0  0  0  0  0  0
    6.8515   70.6228   67.5182 H   0  0  0  0  0  0  0  0  0  0  0  0
  2  1  2  0
  3  1  1  0
  5  4  2  0
  6  5  1  0
  7  6  2  0
  8  7  1  0
  8  4  1  0
  9  7  1  0
 10  9  2  0
 11 10  1  0
 11  1  1  0
 12 11  2  0
 12  6  1  0
 13  4  1  0
 15 14  2  0
 16 15  1  0
 17 16  2  0
 17 13  1  0
 18 17  1  0
 19 18  2  0
 19 14  1  0
 20 14  1  0
 22 21  1  0
 22 20  1  0
 23  8  1  0
 24 23  1  0
 25 24  1  0
 26 25  1  0
 27 25  1  0
 28  3  1  0
 29 28  1  0
 30 29  1  0
 31 30  1  0
 32 31  1  0
 33 32  1  0
 34 33  1  0
 35 34  1  0
 36 35  1  0
 37 36  1  0
 38 37  1  0
 39 38  1  0
 40 39  1  0
 41 36  2  0
 41 40  1  0
 42 41  1  0
 43 42  2  0
 44 43  1  0
 44 35  2  0
 45 44  1  0
 46 45  2  0
 47 46  1  0
 48 47  2  0
 48 43  1  0
  3 49  1  0
  9 50  1  0
 10 51  1  0
 12 52  1  0
 13 53  1  0
 13 54  1  0
 15 55  1  0
 16 56  1  0
 18 57  1  0
 19 58  1  0
 21 59  1  0
 21 60  1  0
 21 61  1  0
 22 62  1  0
 22 63  1  0
 23 64  1  0
 23 65  1  0
 24 66  1  0
 24 67  1  0
 25 68  1  0
 26 69  1  0
 26 70  1  0
 26 71  1  0
 27 72  1  0
 27 73  1  0
 27 74  1  0
 28 75  1  0
 28 76  1  0
 29 77  1  0
 29 78  1  0
 32 79  1  0
 32 80  1  0
 33 81  1  0
 33 82  1  0
 34 83  1  0
 37 84  1  0
 37 85  1  0
 38 86  1  0
 38 87  1  0
 39 88  1  0
 39 89  1  0
 40 90  1  0
 40 91  1  0
 45 92  1  0
 46 93  1  0
 47 94  1  0
 48 95  1  0
M  END
>  <score>  (6) 
-10.472

$$$$
=
     RDKit          3D

 95100  0  0  0  0  0  0  0  0999 V2000
    1.0240   62.0530   71.7890 C   0  0  0  0  0  0  0  0  0  0  0  0
    2.2060   61.7690   71.6360 O   0  0  0  0  0  0  0  0  0  0  0  0
    0.4400   63.1880   71.2620 N   0  0  0  0  0  0  0  0  0  0  0  0
   -3.6710   59.9880   74.7270 C   0  0  0  0  0  0  0  0  0  0  0  0
   -3.3120   61.0410   74.0170 N   0  0  0  0  0  0  0  0  0  0  0  0
   -2.0130   60.8230   73.6410 C   0  0  0  0  0  0  0  0  0  0  0  0
   -1.5550   59.6010   74.1220 C   0  0  0  0  0  0  0  0  0  0  0  0
   -2.6290   59.0880   74.8180 N   0  0  0  0  0  0  0  0  0  0  0  0
   -0.2590   59.1310   73.8770 C   0  0  0  0  0  0  0  0  0  0  0  0
    0.5810   59.9480   73.1100 C   0  0  0  0  0  0  0  0  0  0  0  0
    0.1360   61.1790   72.6070 C   0  0  0  0  0  0  0  0  0  0  0  0
   -1.1620   61.6330   72.8780 C   0  0  0  0  0  0  0  0  0  0  0  0
   -5.0270   59.7940   75.3390 C   0  0  0  0  0  0  0  0  0  0  0  0
   -8.1240   62.3440   73.6980 C   0  0  0  0  0  0  0  0  0  0  0  0
   -7.4170   62.7280   74.8390 C   0  0  0  0  0  0  0  0  0  0  0  0
   -6.4180   61.9080   75.3710 C   0  0  0  0  0  0  0  0  0  0  0  0
   -6.1010   60.6890   74.7570 C   0  0  0  0  0  0  0  0  0  0  0  0
   -6.8260   60.3010   73.6210 C   0  0  0  0  0  0  0  0  0  0  0  0
   -7.8260   61.1250   73.0920 C   0  0  0  0  0  0  0  0  0  0  0  0
   -9.0700   63.2410   73.2840 O   0  0  0  0  0  0  0  0  0  0  0  0
  -10.0380   65.4160   73.2240 C   0  0  0  0  0  0  0  0  0  0  0  0
   -8.7610   64.6250   73.4360 C   0  0  0  0  0  0  0  0  0  0  0  0
   -2.6340   57.8190   75.5290 C   0  0  0  0  0  0  0  0  0  0  0  0
   -2.0230   57.9450   76.9260 C   0  0  0  0  0  0  0  0  0  0  0  0
   -1.9100   59.3850   77.4600 C   0  0  0  0  0  0  0  0  0  0  0  0
   -0.4950   59.7180   77.9310 C   0  0  0  0  0  0  0  0  0  0  0  0
   -2.9260   59.6760   78.5650 C   0  0  0  0  0  0  0  0  0  0  0  0
    1.2580   64.2050   70.6250 C   0  0  0  0  0  0  0  0  0  0  0  0
    0.7220   65.6210   70.8400 C   0  0  0  0  0  0  0  0  0  0  0  0
    1.0860   66.7750   69.4600 S   0  0  0  0  0  0  0  0  0  0  0  0
   -0.6630   66.8210   68.3790 S   0  0  0  0  0  0  0  0  0  0  0  0
   -0.1430   67.3480   66.7060 C   0  0  0  0  0  0  0  0  0  0  0  0
    1.3600   67.6000   66.5710 C   0  0  0  0  0  0  0  0  0  0  0  0
    1.6120   69.0490   66.4580 N   0  0  0  0  0  0  0  0  0  0  0  0
    2.9210   69.3050   65.9550 C   0  0  0  0  0  0  0  0  0  0  0  0
    3.9270   69.6820   66.8570 C   0  0  0  0  0  0  0  0  0  0  0  0
    3.7060   69.9040   68.3300 C   0  0  0  0  0  0  0  0  0  0  0  0
    4.4500   71.1470   68.8310 C   0  0  0  0  0  0  0  0  0  0  0  0
    5.8660   71.3240   68.2640 C   0  0  0  0  0  0  0  0  0  0  0  0
    6.3160   70.1960   67.3400 C   0  0  0  0  0  0  0  0  0  0  0  0
    5.2230   69.8360   66.3690 C   0  0  0  0  0  0  0  0  0  0  0  0
    5.5640   69.6480   65.0770 N   0  0  0  0  0  0  0  0  0  0  0  0
    4.6050   69.2920   64.2110 C   0  0  0  0  0  0  0  0  0  0  0  0
    3.2570   69.0930   64.5870 C   0  0  0  0  0  0  0  0  0  0  0  0
    2.3330   68.6920   63.5870 C   0  0  0  0  0  0  0  0  0  0  0  0
    2.7290   68.5050   62.2620 C   0  0  0  0  0  0  0  0  0  0  0  0
    4.0540   68.7120   61.9100 C   0  0  0  0  0  0  0  0  0  0  0  0
    4.9730   69.1010   62.8860 C   0  0  0  0  0  0  0  0  0  0  0  0
   -0.5806   63.3139   71.3210 H   0  0  0  0  0  0  0  0  0  0  0  0
    0.0843   58.1625   74.2697 H   0  0  0  0  0  0  0  0  0  0  0  0
    1.6087   59.6180   72.8982 H   0  0  0  0  0  0  0  0  0  0  0  0
   -1.5059   62.6066   72.4989 H   0  0  0  0  0  0  0  0  0  0  0  0
   -5.3288   58.7474   75.1857 H   0  0  0  0  0  0  0  0  0  0  0  0
   -4.9359   60.0580   76.4030 H   0  0  0  0  0  0  0  0  0  0  0  0
   -7.6489   63.6872   75.3250 H   0  0  0  0  0  0  0  0  0  0  0  0
   -5.8777   62.2212   76.2765 H   0  0  0  0  0  0  0  0  0  0  0  0
   -6.6059   59.3367   73.1396 H   0  0  0  0  0  0  0  0  0  0  0  0
   -8.3786   60.8093   72.1948 H   0  0  0  0  0  0  0  0  0  0  0  0
  -10.4699   65.6835   74.1997 H   0  0  0  0  0  0  0  0  0  0  0  0
   -9.8121   66.3326   72.6593 H   0  0  0  0  0  0  0  0  0  0  0  0
  -10.7580   64.8055   72.6593 H   0  0  0  0  0  0  0  0  0  0  0  0
   -8.0088   64.9236   72.6910 H   0  0  0  0  0  0  0  0  0  0  0  0
   -8.3540   64.8179   74.4395 H   0  0  0  0  0  0  0  0  0  0  0  0
   -3.6725   57.4695   75.6253 H   0  0  0  0  0  0  0  0  0  0  0  0
   -2.0265   57.1042   74.9546 H   0  0  0  0  0  0  0  0  0  0  0  0
   -2.6483   57.3701   77.6249 H   0  0  0  0  0  0  0  0  0  0  0  0
   -0.9937   57.5652   76.8465 H   0  0  0  0  0  0  0  0  0  0  0  0
   -2.1442   60.0407   76.6084 H   0  0  0  0  0  0  0  0  0  0  0  0
   -0.4666   59.7247   79.0306 H   0  0  0  0  0  0  0  0  0  0  0  0
    0.2059   58.9603   77.5507 H   0  0  0  0  0  0  0  0  0  0  0  0
   -0.2056   60.7088   77.5507 H   0  0  0  0  0  0  0  0  0  0  0  0
   -2.4491   59.5394   79.5468 H   0  0  0  0  0  0  0  0  0  0  0  0
   -3.2826   60.7124   78.4716 H   0  0  0  0  0  0  0  0  0  0  0  0
   -3.7772   58.9855   78.4716 H   0  0  0  0  0  0  0  0  0  0  0  0
    2.2751   64.1480   71.0400 H   0  0  0  0  0  0  0  0  0  0  0  0
    1.2457   64.0083   69.5428 H   0  0  0  0  0  0  0  0  0  0  0  0
   -0.3695   65.5626   70.9632 H   0  0  0  0  0  0  0  0  0  0  0  0
    1.2282   66.0209   71.7310 H   0  0  0  0  0  0  0  0  0  0  0  0
   -0.4271   66.5611   65.9918 H   0  0  0  0  0  0  0  0  0  0  0  0
   -0.6452   68.3056   66.5040 H   0  0  0  0  0  0  0  0  0  0  0  0
    1.8780   67.2067   67.4581 H   0  0  0  0  0  0  0  0  0  0  0  0
    1.7353   67.0932   65.6697 H   0  0  0  0  0  0  0  0  0  0  0  0
    0.9314   69.7800   66.7096 H   0  0  0  0  0  0  0  0  0  0  0  0
    2.6293   70.0341   68.5138 H   0  0  0  0  0  0  0  0  0  0  0  0
    4.0941   69.0289   68.8719 H   0  0  0  0  0  0  0  0  0  0  0  0
    3.8587   72.0331   68.5568 H   0  0  0  0  0  0  0  0  0  0  0  0
    4.5658   71.0207   69.9176 H   0  0  0  0  0  0  0  0  0  0  0  0
    5.8953   72.2664   67.6974 H   0  0  0  0  0  0  0  0  0  0  0  0
    6.5528   71.3214   69.1232 H   0  0  0  0  0  0  0  0  0  0  0  0
    7.2046   70.5213   66.7792 H   0  0  0  0  0  0  0  0  0  0  0  0
    6.5526   69.3119   67.9502 H   0  0  0  0  0  0  0  0  0  0  0  0
    1.2813   68.5249   63.8626 H   0  0  0  0  0  0  0  0  0  0  0  0
    1.9956   68.1958   61.5027 H   0  0  0  0  0  0  0  0  0  0  0  0
    4.3788   68.5706   60.8686 H   0  0  0  0  0  0  0  0  0  0  0  0
    6.0220   69.2613   62.5962 H   0  0  0  0  0  0  0  0  0  0  0  0
  2  1  2  0
  3  1  1  0
  5  4  2  0
  6  5  1  0
  7  6  2  0
  8  7  1  0
  8  4  1  0
  9  7  1  0
 10  9  2  0
 11 10  1  0
 11  1  1  0
 12 11  2  0
 12  6  1  0
 13  4  1  0
 15 14  2  0
 16 15  1  0
 17 16  2  0
 17 13  1  0
 18 17  1  0
 19 18  2  0
 19 14  1  0
 20 14  1  0
 22 21  1  0
 22 20  1  0
 23  8  1  0
 24 23  1  0
 25 24  1  0
 26 25  1  0
 27 25  1  0
 28  3  1  0
 29 28  1  0
 30 29  1  0
 31 30  1  0
 32 31  1  0
 33 32  1  0
 34 33  1  0
 35 34  1  0
 36 35  1  0
 37 36  1  0
 38 37  1  0
 39 38  1  0
 40 39  1  0
 41 36  2  0
 41 40  1  0
 42 41  1  0
 43 42  2  0
 44 43  1  0
 44 35  2  0
 45 44  1  0
 46 45  2  0
 47 46  1  0
 48 47  2  0
 48 43  1  0
  3 49  1  0
  9 50  1  0
 10 51  1  0
 12 52  1  0
 13 53  1  0
 13 54  1  0
 15 55  1  0
 16 56  1  0
 18 57  1  0
 19 58  1  0
 21 59  1  0
 21 60  1  0
 21 61  1  0
 22 62  1  0
 22 63  1  0
 23 64  1  0
 23 65  1  0
 24 66  1  0
 24 67  1  0
 25 68  1  0
 26 69  1  0
 26 70  1  0
 26 71  1  0
 27 72  1  0
 27 73  1  0
 27 74  1  0
 28 75  1  0
 28 76  1  0
 29 77  1  0
 29 78  1  0
 32 79  1  0
 32 80  1  0
 33 81  1  0
 33 82  1  0
 34 83  1  0
 37 84  1  0
 37 85  1  0
 38 86  1  0
 38 87  1  0
 39 88  1  0
 39 89  1  0
 40 90  1  0
 40 91  1  0
 45 92  1  0
 46 93  1  0
 47 94  1  0
 48 95  1  0
M  END
>  <score>  (7) 
-10.071

$$$$
=
     RDKit          3D

 95100  0  0  0  0  0  0  0  0999 V2000
    2.9840   61.5000   70.7070 C   0  0  0  0  0  0  0  0  0  0  0  0
    4.1630   61.4550   70.3780 O   0  0  0  0  0  0  0  0  0  0  0  0
    2.1250   62.5100   70.3210 N   0  0  0  0  0  0  0  0  0  0  0  0
   -0.4050   58.7720   74.7080 C   0  0  0  0  0  0  0  0  0  0  0  0
   -0.2630   59.9610   74.1530 N   0  0  0  0  0  0  0  0  0  0  0  0
    0.7810   59.8490   73.2740 C   0  0  0  0  0  0  0  0  0  0  0  0
    1.2970   58.5580   73.2760 C   0  0  0  0  0  0  0  0  0  0  0  0
    0.5280   57.8880   74.2040 N   0  0  0  0  0  0  0  0  0  0  0  0
    2.3690   58.1710   72.4630 C   0  0  0  0  0  0  0  0  0  0  0  0
    2.9180   59.1500   71.6240 C   0  0  0  0  0  0  0  0  0  0  0  0
    2.4070   60.4550   71.5980 C   0  0  0  0  0  0  0  0  0  0  0  0
    1.3410   60.8200   72.4320 C   0  0  0  0  0  0  0  0  0  0  0  0
   -1.4430   58.4280   75.7350 C   0  0  0  0  0  0  0  0  0  0  0  0
   -5.4740   59.5250   74.5800 C   0  0  0  0  0  0  0  0  0  0  0  0
   -5.2050   58.2610   75.1090 C   0  0  0  0  0  0  0  0  0  0  0  0
   -3.9060   57.9040   75.4820 C   0  0  0  0  0  0  0  0  0  0  0  0
   -2.8520   58.8170   75.3420 C   0  0  0  0  0  0  0  0  0  0  0  0
   -3.1270   60.0790   74.7940 C   0  0  0  0  0  0  0  0  0  0  0  0
   -4.4280   60.4320   74.4220 C   0  0  0  0  0  0  0  0  0  0  0  0
   -6.7860   59.7420   74.2610 O   0  0  0  0  0  0  0  0  0  0  0  0
   -8.3190   61.5360   73.9370 C   0  0  0  0  0  0  0  0  0  0  0  0
   -7.4520   60.8030   74.9440 C   0  0  0  0  0  0  0  0  0  0  0  0
    0.6980   56.4930   74.5800 C   0  0  0  0  0  0  0  0  0  0  0  0
   -0.4220   55.6120   74.0240 C   0  0  0  0  0  0  0  0  0  0  0  0
   -0.8420   54.4420   74.9330 C   0  0  0  0  0  0  0  0  0  0  0  0
   -0.5550   53.0830   74.2960 C   0  0  0  0  0  0  0  0  0  0  0  0
   -2.3070   54.5360   75.3600 C   0  0  0  0  0  0  0  0  0  0  0  0
    2.6340   63.6800   69.6250 C   0  0  0  0  0  0  0  0  0  0  0  0
    2.2240   64.9940   70.2910 C   0  0  0  0  0  0  0  0  0  0  0  0
    0.4190   65.1510   70.5850 S   0  0  0  0  0  0  0  0  0  0  0  0
   -0.2030   66.4810   69.1460 S   0  0  0  0  0  0  0  0  0  0  0  0
    1.2920   67.4670   68.7710 C   0  0  0  0  0  0  0  0  0  0  0  0
    1.5310   67.6920   67.2770 C   0  0  0  0  0  0  0  0  0  0  0  0
    1.7870   69.1230   67.0250 N   0  0  0  0  0  0  0  0  0  0  0  0
    3.1230   69.3360   66.5760 C   0  0  0  0  0  0  0  0  0  0  0  0
    3.4200   69.1270   65.2220 C   0  0  0  0  0  0  0  0  0  0  0  0
    2.4310   68.6210   64.2050 C   0  0  0  0  0  0  0  0  0  0  0  0
    3.0620   67.5820   63.2720 C   0  0  0  0  0  0  0  0  0  0  0  0
    4.4890   67.9100   62.8110 C   0  0  0  0  0  0  0  0  0  0  0  0
    5.0170   69.2510   63.3140 C   0  0  0  0  0  0  0  0  0  0  0  0
    4.7050   69.4300   64.7770 C   0  0  0  0  0  0  0  0  0  0  0  0
    5.6810   69.9090   65.5760 N   0  0  0  0  0  0  0  0  0  0  0  0
    5.4020   70.1060   66.8720 C   0  0  0  0  0  0  0  0  0  0  0  0
    4.1340   69.8480   67.4400 C   0  0  0  0  0  0  0  0  0  0  0  0
    3.9490   70.1190   68.8200 C   0  0  0  0  0  0  0  0  0  0  0  0
    4.9850   70.6190   69.6100 C   0  0  0  0  0  0  0  0  0  0  0  0
    6.2250   70.8580   69.0380 C   0  0  0  0  0  0  0  0  0  0  0  0
    6.4170   70.6020   67.6800 C   0  0  0  0  0  0  0  0  0  0  0  0
    1.1188   62.4338   70.5273 H   0  0  0  0  0  0  0  0  0  0  0  0
    2.7628   57.1441   72.4819 H   0  0  0  0  0  0  0  0  0  0  0  0
    3.7660   58.8895   70.9735 H   0  0  0  0  0  0  0  0  0  0  0  0
    0.9514   61.8487   72.4259 H   0  0  0  0  0  0  0  0  0  0  0  0
   -1.4181   57.3409   75.9010 H   0  0  0  0  0  0  0  0  0  0  0  0
   -1.1960   59.0012   76.6408 H   0  0  0  0  0  0  0  0  0  0  0  0
   -6.0246   57.5380   75.2336 H   0  0  0  0  0  0  0  0  0  0  0  0
   -3.7099   56.9006   75.8878 H   0  0  0  0  0  0  0  0  0  0  0  0
   -2.3083   60.8004   74.6551 H   0  0  0  0  0  0  0  0  0  0  0  0
   -4.6264   61.4295   74.0030 H   0  0  0  0  0  0  0  0  0  0  0  0
   -9.0540   62.1574   74.4696 H   0  0  0  0  0  0  0  0  0  0  0  0
   -7.6859   62.1768   73.3058 H   0  0  0  0  0  0  0  0  0  0  0  0
   -8.8456   60.8051   73.3058 H   0  0  0  0  0  0  0  0  0  0  0  0
   -6.7114   61.4943   75.3725 H   0  0  0  0  0  0  0  0  0  0  0  0
   -8.0698   60.4034   75.7617 H   0  0  0  0  0  0  0  0  0  0  0  0
    1.6609   56.1338   74.1879 H   0  0  0  0  0  0  0  0  0  0  0  0
    0.6685   56.4297   75.6778 H   0  0  0  0  0  0  0  0  0  0  0  0
   -1.3042   56.2472   73.8559 H   0  0  0  0  0  0  0  0  0  0  0  0
   -0.0279   55.1590   73.1023 H   0  0  0  0  0  0  0  0  0  0  0  0
   -0.2229   54.5267   75.8383 H   0  0  0  0  0  0  0  0  0  0  0  0
   -0.3968   52.3339   75.0858 H   0  0  0  0  0  0  0  0  0  0  0  0
   -1.4096   52.7828   73.6718 H   0  0  0  0  0  0  0  0  0  0  0  0
    0.3480   53.1540   73.6718 H   0  0  0  0  0  0  0  0  0  0  0  0
   -2.3693   54.5400   76.4582 H   0  0  0  0  0  0  0  0  0  0  0  0
   -2.7454   55.4641   74.9645 H   0  0  0  0  0  0  0  0  0  0  0  0
   -2.8604   53.6715   74.9645 H   0  0  0  0  0  0  0  0  0  0  0  0
    3.7324   63.6253   69.6034 H   0  0  0  0  0  0  0  0  0  0  0  0
    2.2038   63.6749   68.6126 H   0  0  0  0  0  0  0  0  0  0  0  0
    2.7398   65.0663   71.2599 H   0  0  0  0  0  0  0  0  0  0  0  0
    2.5052   65.8022   69.5999 H   0  0  0  0  0  0  0  0  0  0  0  0
    1.1895   68.4487   69.2565 H   0  0  0  0  0  0  0  0  0  0  0  0
    2.1528   66.8954   69.1482 H   0  0  0  0  0  0  0  0  0  0  0  0
    2.4011   67.1022   66.9529 H   0  0  0  0  0  0  0  0  0  0  0  0
    0.6405   67.3762   66.7137 H   0  0  0  0  0  0  0  0  0  0  0  0
    1.0909   69.8708   67.1564 H   0  0  0  0  0  0  0  0  0  0  0  0
    1.5825   68.1594   64.7313 H   0  0  0  0  0  0  0  0  0  0  0  0
    2.0984   69.4738   63.5950 H   0  0  0  0  0  0  0  0  0  0  0  0
    3.0869   66.6179   63.8011 H   0  0  0  0  0  0  0  0  0  0  0  0
    2.4408   67.5645   62.3644 H   0  0  0  0  0  0  0  0  0  0  0  0
    5.1595   67.1172   63.1742 H   0  0  0  0  0  0  0  0  0  0  0  0
    4.4594   67.9739   61.7133 H   0  0  0  0  0  0  0  0  0  0  0  0
    6.1069   69.2871   63.1700 H   0  0  0  0  0  0  0  0  0  0  0  0
    4.5307   70.0583   62.7468 H   0  0  0  0  0  0  0  0  0  0  0  0
    2.9667   69.9308   69.2778 H   0  0  0  0  0  0  0  0  0  0  0  0
    4.8190   70.8219   70.6783 H   0  0  0  0  0  0  0  0  0  0  0  0
    7.0518   71.2468   69.6506 H   0  0  0  0  0  0  0  0  0  0  0  0
    7.4035   70.7992   67.2351 H   0  0  0  0  0  0  0  0  0  0  0  0
  2  1  2  0
  3  1  1  0
  5  4  2  0
  6  5  1  0
  7  6  2  0
  8  7  1  0
  8  4  1  0
  9  7  1  0
 10  9  2  0
 11 10  1  0
 11  1  1  0
 12 11  2  0
 12  6  1  0
 13  4  1  0
 15 14  2  0
 16 15  1  0
 17 16  2  0
 17 13  1  0
 18 17  1  0
 19 18  2  0
 19 14  1  0
 20 14  1  0
 22 21  1  0
 22 20  1  0
 23  8  1  0
 24 23  1  0
 25 24  1  0
 26 25  1  0
 27 25  1  0
 28  3  1  0
 29 28  1  0
 30 29  1  0
 31 30  1  0
 32 31  1  0
 33 32  1  0
 34 33  1  0
 35 34  1  0
 36 35  1  0
 37 36  1  0
 38 37  1  0
 39 38  1  0
 40 39  1  0
 41 36  2  0
 41 40  1  0
 42 41  1  0
 43 42  2  0
 44 43  1  0
 44 35  2  0
 45 44  1  0
 46 45  2  0
 47 46  1  0
 48 47  2  0
 48 43  1  0
  3 49  1  0
  9 50  1  0
 10 51  1  0
 12 52  1  0
 13 53  1  0
 13 54  1  0
 15 55  1  0
 16 56  1  0
 18 57  1  0
 19 58  1  0
 21 59  1  0
 21 60  1  0
 21 61  1  0
 22 62  1  0
 22 63  1  0
 23 64  1  0
 23 65  1  0
 24 66  1  0
 24 67  1  0
 25 68  1  0
 26 69  1  0
 26 70  1  0
 26 71  1  0
 27 72  1  0
 27 73  1  0
 27 74  1  0
 28 75  1  0
 28 76  1  0
 29 77  1  0
 29 78  1  0
 32 79  1  0
 32 80  1  0
 33 81  1  0
 33 82  1  0
 34 83  1  0
 37 84  1  0
 37 85  1  0
 38 86  1  0
 38 87  1  0
 39 88  1  0
 39 89  1  0
 40 90  1  0
 40 91  1  0
 45 92  1  0
 46 93  1  0
 47 94  1  0
 48 95  1  0
M  END
>  <score>  (8) 
-10.026

$$$$
=
     RDKit          3D

 95100  0  0  0  0  0  0  0  0999 V2000
    3.9170   63.0980   69.2660 C   0  0  0  0  0  0  0  0  0  0  0  0
    5.0670   63.4400   69.5140 O   0  0  0  0  0  0  0  0  0  0  0  0
    3.3950   63.0540   67.9880 N   0  0  0  0  0  0  0  0  0  0  0  0
    1.5520   60.4260   73.9780 C   0  0  0  0  0  0  0  0  0  0  0  0
    2.6360   60.3680   73.2270 N   0  0  0  0  0  0  0  0  0  0  0  0
    2.4870   61.3330   72.2680 C   0  0  0  0  0  0  0  0  0  0  0  0
    1.2860   62.0140   72.4300 C   0  0  0  0  0  0  0  0  0  0  0  0
    0.7020   61.4140   73.5250 N   0  0  0  0  0  0  0  0  0  0  0  0
    0.8880   63.0560   71.5830 C   0  0  0  0  0  0  0  0  0  0  0  0
    1.7620   63.4020   70.5430 C   0  0  0  0  0  0  0  0  0  0  0  0
    2.9820   62.7350   70.3680 C   0  0  0  0  0  0  0  0  0  0  0  0
    3.3510   61.6850   71.2220 C   0  0  0  0  0  0  0  0  0  0  0  0
    1.2890   59.5480   75.1660 C   0  0  0  0  0  0  0  0  0  0  0  0
    0.0860   55.5130   74.1370 C   0  0  0  0  0  0  0  0  0  0  0  0
    0.8120   55.7640   75.3030 C   0  0  0  0  0  0  0  0  0  0  0  0
    1.2010   57.0630   75.6380 C   0  0  0  0  0  0  0  0  0  0  0  0
    0.8580   58.1410   74.8110 C   0  0  0  0  0  0  0  0  0  0  0  0
    0.1440   57.8810   73.6320 C   0  0  0  0  0  0  0  0  0  0  0  0
   -0.2440   56.5780   73.3000 C   0  0  0  0  0  0  0  0  0  0  0  0
   -0.2320   54.1990   73.9330 O   0  0  0  0  0  0  0  0  0  0  0  0
   -0.0520   51.8590   74.3410 C   0  0  0  0  0  0  0  0  0  0  0  0
    0.4560   53.2350   74.7290 C   0  0  0  0  0  0  0  0  0  0  0  0
   -0.5940   61.7700   74.0810 C   0  0  0  0  0  0  0  0  0  0  0  0
   -1.7330   60.9960   73.4150 C   0  0  0  0  0  0  0  0  0  0  0  0
   -2.6710   60.2550   74.3860 C   0  0  0  0  0  0  0  0  0  0  0  0
   -4.0820   60.8430   74.3890 C   0  0  0  0  0  0  0  0  0  0  0  0
   -2.1100   60.1990   75.8070 C   0  0  0  0  0  0  0  0  0  0  0  0
    4.1550   63.5820   66.8680 C   0  0  0  0  0  0  0  0  0  0  0  0
    3.4060   63.4760   65.5390 C   0  0  0  0  0  0  0  0  0  0  0  0
    3.0420   65.0960   64.7550 S   0  0  0  0  0  0  0  0  0  0  0  0
    4.5180   65.3030   63.3380 S   0  0  0  0  0  0  0  0  0  0  0  0
    4.5950   67.1050   63.0310 C   0  0  0  0  0  0  0  0  0  0  0  0
    4.9630   67.9310   64.2640 C   0  0  0  0  0  0  0  0  0  0  0  0
    4.0890   69.1170   64.3470 N   0  0  0  0  0  0  0  0  0  0  0  0
    3.6340   69.3290   65.6810 C   0  0  0  0  0  0  0  0  0  0  0  0
    2.3450   68.9020   66.0290 C   0  0  0  0  0  0  0  0  0  0  0  0
    1.3650   68.2880   65.0640 C   0  0  0  0  0  0  0  0  0  0  0  0
   -0.0520   68.8330   65.2750 C   0  0  0  0  0  0  0  0  0  0  0  0
   -0.4690   68.9960   66.7430 C   0  0  0  0  0  0  0  0  0  0  0  0
    0.5810   68.5300   67.7480 C   0  0  0  0  0  0  0  0  0  0  0  0
    1.9480   69.0280   67.3590 C   0  0  0  0  0  0  0  0  0  0  0  0
    2.7320   69.5410   68.3290 N   0  0  0  0  0  0  0  0  0  0  0  0
    3.9640   69.9540   68.0000 C   0  0  0  0  0  0  0  0  0  0  0  0
    4.4850   69.8680   66.6890 C   0  0  0  0  0  0  0  0  0  0  0  0
    5.8130   70.3140   66.4640 C   0  0  0  0  0  0  0  0  0  0  0  0
    6.5920   70.8350   67.4980 C   0  0  0  0  0  0  0  0  0  0  0  0
    6.0620   70.9200   68.7760 C   0  0  0  0  0  0  0  0  0  0  0  0
    4.7590   70.4790   69.0110 C   0  0  0  0  0  0  0  0  0  0  0  0
    2.4632   62.6452   67.8283 H   0  0  0  0  0  0  0  0  0  0  0  0
   -0.0684   63.5799   71.7275 H   0  0  0  0  0  0  0  0  0  0  0  0
    1.4852   64.2117   69.8518 H   0  0  0  0  0  0  0  0  0  0  0  0
    4.2998   61.1485   71.0736 H   0  0  0  0  0  0  0  0  0  0  0  0
    2.2119   59.4868   75.7614 H   0  0  0  0  0  0  0  0  0  0  0  0
    0.4557   60.0049   75.7200 H   0  0  0  0  0  0  0  0  0  0  0  0
    1.0809   54.9284   75.9659 H   0  0  0  0  0  0  0  0  0  0  0  0
    1.7799   57.2408   76.5563 H   0  0  0  0  0  0  0  0  0  0  0  0
   -0.1144   58.7122   72.9595 H   0  0  0  0  0  0  0  0  0  0  0  0
   -0.8111   56.3935   72.3757 H   0  0  0  0  0  0  0  0  0  0  0  0
   -0.2666   51.2777   75.2498 H   0  0  0  0  0  0  0  0  0  0  0  0
   -0.9714   51.9619   73.7459 H   0  0  0  0  0  0  0  0  0  0  0  0
    0.7137   51.3398   73.7459 H   0  0  0  0  0  0  0  0  0  0  0  0
    0.2564   53.4199   75.7948 H   0  0  0  0  0  0  0  0  0  0  0  0
    1.5408   53.3038   74.5602 H   0  0  0  0  0  0  0  0  0  0  0  0
   -0.5930   61.5447   75.1577 H   0  0  0  0  0  0  0  0  0  0  0  0
   -0.7594   62.8424   73.9001 H   0  0  0  0  0  0  0  0  0  0  0  0
   -2.3368   61.7093   72.8348 H   0  0  0  0  0  0  0  0  0  0  0  0
   -1.2574   60.2214   72.7955 H   0  0  0  0  0  0  0  0  0  0  0  0
   -2.7369   59.2229   74.0114 H   0  0  0  0  0  0  0  0  0  0  0  0
   -4.4186   60.9833   75.4268 H   0  0  0  0  0  0  0  0  0  0  0  0
   -4.0759   61.8135   73.8712 H   0  0  0  0  0  0  0  0  0  0  0  0
   -4.7669   60.1554   73.8712 H   0  0  0  0  0  0  0  0  0  0  0  0
   -2.9347   60.2813   76.5303 H   0  0  0  0  0  0  0  0  0  0  0  0
   -1.5850   59.2440   75.9566 H   0  0  0  0  0  0  0  0  0  0  0  0
   -1.4066   61.0314   75.9566 H   0  0  0  0  0  0  0  0  0  0  0  0
    4.3768   64.6417   67.0625 H   0  0  0  0  0  0  0  0  0  0  0  0
    5.0726   62.9819   66.7790 H   0  0  0  0  0  0  0  0  0  0  0  0
    4.0190   62.8848   64.8428 H   0  0  0  0  0  0  0  0  0  0  0  0
    2.4370   63.0032   65.7569 H   0  0  0  0  0  0  0  0  0  0  0  0
    5.3492   67.2912   62.2522 H   0  0  0  0  0  0  0  0  0  0  0  0
    3.5856   67.4194   62.7271 H   0  0  0  0  0  0  0  0  0  0  0  0
    4.8331   67.3171   65.1675 H   0  0  0  0  0  0  0  0  0  0  0  0
    6.0111   68.2556   64.1855 H   0  0  0  0  0  0  0  0  0  0  0  0
    3.8401   69.7139   63.5453 H   0  0  0  0  0  0  0  0  0  0  0  0
    1.6856   68.5155   64.0366 H   0  0  0  0  0  0  0  0  0  0  0  0
    1.3453   67.2021   65.2382 H   0  0  0  0  0  0  0  0  0  0  0  0
   -0.1149   69.8185   64.7903 H   0  0  0  0  0  0  0  0  0  0  0  0
   -0.7366   68.0898   64.8402 H   0  0  0  0  0  0  0  0  0  0  0  0
   -0.6738   70.0610   66.9271 H   0  0  0  0  0  0  0  0  0  0  0  0
   -1.3535   68.3594   66.8925 H   0  0  0  0  0  0  0  0  0  0  0  0
    0.3249   68.9192   68.7445 H   0  0  0  0  0  0  0  0  0  0  0  0
    0.5955   67.4302   67.7601 H   0  0  0  0  0  0  0  0  0  0  0  0
    6.2381   70.2476   65.4516 H   0  0  0  0  0  0  0  0  0  0  0  0
    7.6191   71.1757   67.3003 H   0  0  0  0  0  0  0  0  0  0  0  0
    6.6642   71.3321   69.5991 H   0  0  0  0  0  0  0  0  0  0  0  0
    4.3484   70.5493   70.0291 H   0  0  0  0  0  0  0  0  0  0  0  0
  2  1  2  0
  3  1  1  0
  5  4  2  0
  6  5  1  0
  7  6  2  0
  8  7  1  0
  8  4  1  0
  9  7  1  0
 10  9  2  0
 11 10  1  0
 11  1  1  0
 12 11  2  0
 12  6  1  0
 13  4  1  0
 15 14  2  0
 16 15  1  0
 17 16  2  0
 17 13  1  0
 18 17  1  0
 19 18  2  0
 19 14  1  0
 20 14  1  0
 22 21  1  0
 22 20  1  0
 23  8  1  0
 24 23  1  0
 25 24  1  0
 26 25  1  0
 27 25  1  0
 28  3  1  0
 29 28  1  0
 30 29  1  0
 31 30  1  0
 32 31  1  0
 33 32  1  0
 34 33  1  0
 35 34  1  0
 36 35  1  0
 37 36  1  0
 38 37  1  0
 39 38  1  0
 40 39  1  0
 41 36  2  0
 41 40  1  0
 42 41  1  0
 43 42  2  0
 44 43  1  0
 44 35  2  0
 45 44  1  0
 46 45  2  0
 47 46  1  0
 48 47  2  0
 48 43  1  0
  3 49  1  0
  9 50  1  0
 10 51  1  0
 12 52  1  0
 13 53  1  0
 13 54  1  0
 15 55  1  0
 16 56  1  0
 18 57  1  0
 19 58  1  0
 21 59  1  0
 21 60  1  0
 21 61  1  0
 22 62  1  0
 22 63  1  0
 23 64  1  0
 23 65  1  0
 24 66  1  0
 24 67  1  0
 25 68  1  0
 26 69  1  0
 26 70  1  0
 26 71  1  0
 27 72  1  0
 27 73  1  0
 27 74  1  0
 28 75  1  0
 28 76  1  0
 29 77  1  0
 29 78  1  0
 32 79  1  0
 32 80  1  0
 33 81  1  0
 33 82  1  0
 34 83  1  0
 37 84  1  0
 37 85  1  0
 38 86  1  0
 38 87  1  0
 39 88  1  0
 39 89  1  0
 40 90  1  0
 40 91  1  0
 45 92  1  0
 46 93  1  0
 47 94  1  0
 48 95  1  0
M  END
>  <score>  (9) 
-9.995

$$$$
