=
     RDKit          3D

 33 35  0  0  0  0  0  0  0  0999 V2000
    5.4550   70.8710   68.8260 C   0  0  0  0  0  0  0  0  0  0  0  0
    4.7870   70.3160   67.6650 N   0  0  0  0  0  0  0  0  0  0  0  0
    5.5440   70.2470   66.4780 C   0  0  0  0  0  0  0  0  0  0  0  0
    6.7140   70.6410   66.4460 O   0  0  0  0  0  0  0  0  0  0  0  0
    4.9170   69.7100   65.3530 N   0  0  0  0  0  0  0  0  0  0  0  0
    5.6210   69.6180   64.0880 C   0  0  0  0  0  0  0  0  0  0  0  0
    3.6250   69.2550   65.4570 C   0  0  0  0  0  0  0  0  0  0  0  0
    2.9360   69.2990   66.6320 C   0  0  0  0  0  0  0  0  0  0  0  0
    3.4940   69.8100   67.8380 C   0  0  0  0  0  0  0  0  0  0  0  0
    2.9080   69.7820   68.9170 O   0  0  0  0  0  0  0  0  0  0  0  0
    1.7060   68.7790   66.3350 N   0  0  0  0  0  0  0  0  0  0  0  0
    1.7300   68.4240   65.0100 C   0  0  0  0  0  0  0  0  0  0  0  0
    2.8880   68.7080   64.4510 N   0  0  0  0  0  0  0  0  0  0  0  0
    0.5720   68.6150   67.2200 C   0  0  0  0  0  0  0  0  0  0  0  0
   -0.3830   67.5140   66.7580 C   0  0  0  0  0  0  0  0  0  0  0  0
   -1.5070   68.0550   66.0480 O   0  0  0  0  0  0  0  0  0  0  0  0
   -2.5990   67.9410   66.9580 C   0  0  0  0  0  0  0  0  0  0  0  0
   -2.2620   66.6970   67.7340 C   0  0  0  0  0  0  0  0  0  0  0  0
   -0.8470   66.7880   67.9100 O   0  0  0  0  0  0  0  0  0  0  0  0
    4.9852   70.4807   69.7408 H   0  0  0  0  0  0  0  0  0  0  0  0
    6.5173   70.5859   68.8090 H   0  0  0  0  0  0  0  0  0  0  0  0
    5.3694   71.9675   68.8090 H   0  0  0  0  0  0  0  0  0  0  0  0
    6.6957   69.4776   64.2758 H   0  0  0  0  0  0  0  0  0  0  0  0
    5.2342   68.7628   63.5145 H   0  0  0  0  0  0  0  0  0  0  0  0
    5.4669   70.5439   63.5145 H   0  0  0  0  0  0  0  0  0  0  0  0
    0.8857   67.9593   64.4798 H   0  0  0  0  0  0  0  0  0  0  0  0
    0.9430   68.3606   68.2238 H   0  0  0  0  0  0  0  0  0  0  0  0
    0.0118   69.5617   67.2210 H   0  0  0  0  0  0  0  0  0  0  0  0
    0.1592   66.8463   66.0723 H   0  0  0  0  0  0  0  0  0  0  0  0
   -2.6552   68.8174   67.6204 H   0  0  0  0  0  0  0  0  0  0  0  0
   -3.5774   67.8891   66.4579 H   0  0  0  0  0  0  0  0  0  0  0  0
   -2.7793   66.6867   68.7047 H   0  0  0  0  0  0  0  0  0  0  0  0
   -2.5719   65.7745   67.2212 H   0  0  0  0  0  0  0  0  0  0  0  0
  2  1  1  0
  3  2  1  0
  4  3  2  0
  5  3  1  0
  6  5  1  0
  7  5  1  0
  8  7  2  0
  9  8  1  0
  9  2  1  0
 10  9  2  0
 11  8  1  0
 12 11  1  0
 13 12  2  0
 13  7  1  0
 14 11  1  0
 15 14  1  0
 16 15  1  0
 17 16  1  0
 18 17  1  0
 19 18  1  0
 19 15  1  0
  1 20  1  0
  1 21  1  0
  1 22  1  0
  6 23  1  0
  6 24  1  0
  6 25  1  0
 12 26  1  0
 14 27  1  0
 14 28  1  0
 15 29  1  0
 17 30  1  0
 17 31  1  0
 18 32  1  0
 18 33  1  0
M  END
>  <score>  (1) 
-8.089

$$$$
=
     RDKit          3D

 33 35  0  0  0  0  0  0  0  0999 V2000
   -0.5800   66.5430   68.9360 C   0  0  0  0  0  0  0  0  0  0  0  0
   -0.6550   67.1920   67.6420 N   0  0  0  0  0  0  0  0  0  0  0  0
   -1.9200   67.6790   67.2560 C   0  0  0  0  0  0  0  0  0  0  0  0
   -2.9020   67.5530   67.9930 O   0  0  0  0  0  0  0  0  0  0  0  0
   -2.0070   68.3120   66.0150 N   0  0  0  0  0  0  0  0  0  0  0  0
   -3.2770   68.8260   65.5370 C   0  0  0  0  0  0  0  0  0  0  0  0
   -0.8750   68.4540   65.2520 C   0  0  0  0  0  0  0  0  0  0  0  0
    0.3420   68.0080   65.6740 C   0  0  0  0  0  0  0  0  0  0  0  0
    0.5380   67.3680   66.9310 C   0  0  0  0  0  0  0  0  0  0  0  0
    1.6420   67.0330   67.3530 O   0  0  0  0  0  0  0  0  0  0  0  0
    1.2000   68.3150   64.6550 N   0  0  0  0  0  0  0  0  0  0  0  0
    0.4630   68.9530   63.6890 C   0  0  0  0  0  0  0  0  0  0  0  0
   -0.8060   69.0460   64.0280 N   0  0  0  0  0  0  0  0  0  0  0  0
    2.6190   68.0400   64.5720 C   0  0  0  0  0  0  0  0  0  0  0  0
    3.2680   68.6530   63.3310 C   0  0  0  0  0  0  0  0  0  0  0  0
    3.5750   67.6520   62.3490 O   0  0  0  0  0  0  0  0  0  0  0  0
    4.9910   67.5030   62.4130 C   0  0  0  0  0  0  0  0  0  0  0  0
    5.4590   68.8840   62.7840 C   0  0  0  0  0  0  0  0  0  0  0  0
    4.4780   69.3250   63.7240 O   0  0  0  0  0  0  0  0  0  0  0  0
   -0.6673   67.2985   69.7307 H   0  0  0  0  0  0  0  0  0  0  0  0
   -1.4001   65.8159   69.0296 H   0  0  0  0  0  0  0  0  0  0  0  0
    0.3843   66.0221   69.0296 H   0  0  0  0  0  0  0  0  0  0  0  0
   -3.9146   69.0840   66.3954 H   0  0  0  0  0  0  0  0  0  0  0  0
   -3.1026   69.7243   64.9266 H   0  0  0  0  0  0  0  0  0  0  0  0
   -3.7765   68.0593   64.9266 H   0  0  0  0  0  0  0  0  0  0  0  0
    0.8808   69.3391   62.7476 H   0  0  0  0  0  0  0  0  0  0  0  0
    3.1101   68.4523   65.4658 H   0  0  0  0  0  0  0  0  0  0  0  0
    2.7423   66.9489   64.5064 H   0  0  0  0  0  0  0  0  0  0  0  0
    2.5590   69.3630   62.8802 H   0  0  0  0  0  0  0  0  0  0  0  0
    5.2772   66.7689   63.1805 H   0  0  0  0  0  0  0  0  0  0  0  0
    5.4312   67.1329   61.4753 H   0  0  0  0  0  0  0  0  0  0  0  0
    6.4577   68.8508   63.2438 H   0  0  0  0  0  0  0  0  0  0  0  0
    5.5531   69.5530   61.9159 H   0  0  0  0  0  0  0  0  0  0  0  0
  2  1  1  0
  3  2  1  0
  4  3  2  0
  5  3  1  0
  6  5  1  0
  7  5  1  0
  8  7  2  0
  9  8  1  0
  9  2  1  0
 10  9  2  0
 11  8  1  0
 12 11  1  0
 13 12  2  0
 13  7  1  0
 14 11  1  0
 15 14  1  0
 16 15  1  0
 17 16  1  0
 18 17  1  0
 19 18  1  0
 19 15  1  0
  1 20  1  0
  1 21  1  0
  1 22  1  0
  6 23  1  0
  6 24  1  0
  6 25  1  0
 12 26  1  0
 14 27  1  0
 14 28  1  0
 15 29  1  0
 17 30  1  0
 17 31  1  0
 18 32  1  0
 18 33  1  0
M  END
>  <score>  (2) 
-7.83

$$$$
=
     RDKit          3D

 33 35  0  0  0  0  0  0  0  0999 V2000
    3.3900   68.1060   62.0770 C   0  0  0  0  0  0  0  0  0  0  0  0
    3.3850   68.4590   63.4830 N   0  0  0  0  0  0  0  0  0  0  0  0
    4.5030   69.1760   63.9540 C   0  0  0  0  0  0  0  0  0  0  0  0
    5.4290   69.4800   63.1960 O   0  0  0  0  0  0  0  0  0  0  0  0
    4.5100   69.5290   65.3040 N   0  0  0  0  0  0  0  0  0  0  0  0
    5.6320   70.2540   65.8710 C   0  0  0  0  0  0  0  0  0  0  0  0
    3.4370   69.1940   66.0920 C   0  0  0  0  0  0  0  0  0  0  0  0
    2.3520   68.5360   65.5940 C   0  0  0  0  0  0  0  0  0  0  0  0
    2.2410   68.1510   64.2280 C   0  0  0  0  0  0  0  0  0  0  0  0
    1.2360   67.6280   63.7540 O   0  0  0  0  0  0  0  0  0  0  0  0
    1.5180   68.3760   66.6660 N   0  0  0  0  0  0  0  0  0  0  0  0
    2.1300   68.9680   67.7410 C   0  0  0  0  0  0  0  0  0  0  0  0
    3.3030   69.4700   67.4180 N   0  0  0  0  0  0  0  0  0  0  0  0
    0.2300   67.7160   66.7000 C   0  0  0  0  0  0  0  0  0  0  0  0
   -0.9380   68.7020   66.7230 C   0  0  0  0  0  0  0  0  0  0  0  0
   -1.9580   68.2890   67.6440 O   0  0  0  0  0  0  0  0  0  0  0  0
   -3.0190   67.8110   66.8190 C   0  0  0  0  0  0  0  0  0  0  0  0
   -2.9050   68.6730   65.5920 C   0  0  0  0  0  0  0  0  0  0  0  0
   -1.4950   68.7940   65.4000 O   0  0  0  0  0  0  0  0  0  0  0  0
    3.4055   67.0109   61.9739 H   0  0  0  0  0  0  0  0  0  0  0  0
    2.4861   68.5069   61.5951 H   0  0  0  0  0  0  0  0  0  0  0  0
    4.2822   68.5323   61.5951 H   0  0  0  0  0  0  0  0  0  0  0  0
    5.5752   70.2173   66.9689 H   0  0  0  0  0  0  0  0  0  0  0  0
    6.5731   69.7928   65.5369 H   0  0  0  0  0  0  0  0  0  0  0  0
    5.5982   71.3015   65.5369 H   0  0  0  0  0  0  0  0  0  0  0  0
    1.6940   69.0173   68.7497 H   0  0  0  0  0  0  0  0  0  0  0  0
    0.1365   67.0806   65.8070 H   0  0  0  0  0  0  0  0  0  0  0  0
    0.1840   67.1250   67.6266 H   0  0  0  0  0  0  0  0  0  0  0  0
   -0.5615   69.6814   67.0533 H   0  0  0  0  0  0  0  0  0  0  0  0
   -2.8793   66.7486   66.5706 H   0  0  0  0  0  0  0  0  0  0  0  0
   -4.0055   67.8710   67.3019 H   0  0  0  0  0  0  0  0  0  0  0  0
   -3.3797   68.1889   64.7258 H   0  0  0  0  0  0  0  0  0  0  0  0
   -3.4075   69.6452   65.7030 H   0  0  0  0  0  0  0  0  0  0  0  0
  2  1  1  0
  3  2  1  0
  4  3  2  0
  5  3  1  0
  6  5  1  0
  7  5  1  0
  8  7  2  0
  9  8  1  0
  9  2  1  0
 10  9  2  0
 11  8  1  0
 12 11  1  0
 13 12  2  0
 13  7  1  0
 14 11  1  0
 15 14  1  0
 16 15  1  0
 17 16  1  0
 18 17  1  0
 19 18  1  0
 19 15  1  0
  1 20  1  0
  1 21  1  0
  1 22  1  0
  6 23  1  0
  6 24  1  0
  6 25  1  0
 12 26  1  0
 14 27  1  0
 14 28  1  0
 15 29  1  0
 17 30  1  0
 17 31  1  0
 18 32  1  0
 18 33  1  0
M  END
>  <score>  (3) 
-7.827

$$$$
=
     RDKit          3D

 33 35  0  0  0  0  0  0  0  0999 V2000
   -0.6560   66.4640   69.0010 C   0  0  0  0  0  0  0  0  0  0  0  0
   -0.6300   67.1090   67.7030 N   0  0  0  0  0  0  0  0  0  0  0  0
   -1.8360   67.6890   67.2650 C   0  0  0  0  0  0  0  0  0  0  0  0
   -2.8540   67.6430   67.9620 O   0  0  0  0  0  0  0  0  0  0  0  0
   -1.8250   68.3180   66.0190 N   0  0  0  0  0  0  0  0  0  0  0  0
   -3.0310   68.9260   65.4880 C   0  0  0  0  0  0  0  0  0  0  0  0
   -0.6550   68.3680   65.3020 C   0  0  0  0  0  0  0  0  0  0  0  0
    0.5060   67.8320   65.7750 C   0  0  0  0  0  0  0  0  0  0  0  0
    0.6010   67.1870   67.0410 C   0  0  0  0  0  0  0  0  0  0  0  0
    1.6580   66.7710   67.5080 O   0  0  0  0  0  0  0  0  0  0  0  0
    1.4250   68.0660   64.7900 N   0  0  0  0  0  0  0  0  0  0  0  0
    0.7790   68.7520   63.7930 C   0  0  0  0  0  0  0  0  0  0  0  0
   -0.4920   68.9450   64.0800 N   0  0  0  0  0  0  0  0  0  0  0  0
    2.8200   67.6810   64.7660 C   0  0  0  0  0  0  0  0  0  0  0  0
    3.0720   66.4250   63.9300 C   0  0  0  0  0  0  0  0  0  0  0  0
    2.4500   65.2710   64.5140 O   0  0  0  0  0  0  0  0  0  0  0  0
    3.5270   64.5210   65.0700 C   0  0  0  0  0  0  0  0  0  0  0  0
    4.6660   64.8230   64.1340 C   0  0  0  0  0  0  0  0  0  0  0  0
    4.4910   66.2080   63.8340 O   0  0  0  0  0  0  0  0  0  0  0  0
   -0.6252   67.2287   69.7911 H   0  0  0  0  0  0  0  0  0  0  0  0
   -1.5787   65.8731   69.0984 H   0  0  0  0  0  0  0  0  0  0  0  0
    0.2161   65.8008   69.0984 H   0  0  0  0  0  0  0  0  0  0  0  0
   -3.6745   69.2504   66.3190 H   0  0  0  0  0  0  0  0  0  0  0  0
   -2.7620   69.7962   64.8712 H   0  0  0  0  0  0  0  0  0  0  0  0
   -3.5706   68.1922   64.8712 H   0  0  0  0  0  0  0  0  0  0  0  0
    1.2628   69.0983   62.8678 H   0  0  0  0  0  0  0  0  0  0  0  0
    3.4064   68.5094   64.3419 H   0  0  0  0  0  0  0  0  0  0  0  0
    3.1205   67.4573   65.8002 H   0  0  0  0  0  0  0  0  0  0  0  0
    2.6350   66.5757   62.9318 H   0  0  0  0  0  0  0  0  0  0  0  0
    3.7558   64.8557   66.0926 H   0  0  0  0  0  0  0  0  0  0  0  0
    3.3089   63.4463   65.1559 H   0  0  0  0  0  0  0  0  0  0  0  0
    5.6350   64.6459   64.6235 H   0  0  0  0  0  0  0  0  0  0  0  0
    4.6644   64.1863   63.2370 H   0  0  0  0  0  0  0  0  0  0  0  0
  2  1  1  0
  3  2  1  0
  4  3  2  0
  5  3  1  0
  6  5  1  0
  7  5  1  0
  8  7  2  0
  9  8  1  0
  9  2  1  0
 10  9  2  0
 11  8  1  0
 12 11  1  0
 13 12  2  0
 13  7  1  0
 14 11  1  0
 15 14  1  0
 16 15  1  0
 17 16  1  0
 18 17  1  0
 19 18  1  0
 19 15  1  0
  1 20  1  0
  1 21  1  0
  1 22  1  0
  6 23  1  0
  6 24  1  0
  6 25  1  0
 12 26  1  0
 14 27  1  0
 14 28  1  0
 15 29  1  0
 17 30  1  0
 17 31  1  0
 18 32  1  0
 18 33  1  0
M  END
>  <score>  (4) 
-7.639

$$$$
=
     RDKit          3D

 33 35  0  0  0  0  0  0  0  0999 V2000
   -3.4570   68.7230   65.7790 C   0  0  0  0  0  0  0  0  0  0  0  0
   -2.1170   68.3330   66.1710 N   0  0  0  0  0  0  0  0  0  0  0  0
   -2.0020   67.5850   67.3590 C   0  0  0  0  0  0  0  0  0  0  0  0
   -3.0010   67.2850   68.0210 O   0  0  0  0  0  0  0  0  0  0  0  0
   -0.7190   67.1960   67.7460 N   0  0  0  0  0  0  0  0  0  0  0  0
   -0.5140   66.4380   68.9660 C   0  0  0  0  0  0  0  0  0  0  0  0
    0.3510   67.5280   66.9530 C   0  0  0  0  0  0  0  0  0  0  0  0
    0.2010   68.2180   65.7870 C   0  0  0  0  0  0  0  0  0  0  0  0
   -1.0670   68.6410   65.2970 C   0  0  0  0  0  0  0  0  0  0  0  0
   -1.2200   69.1930   64.2110 O   0  0  0  0  0  0  0  0  0  0  0  0
    1.4710   68.3640   65.3010 N   0  0  0  0  0  0  0  0  0  0  0  0
    2.3120   67.7330   66.1820 C   0  0  0  0  0  0  0  0  0  0  0  0
    1.6540   67.2190   67.2000 N   0  0  0  0  0  0  0  0  0  0  0  0
    1.8880   69.0450   64.0940 C   0  0  0  0  0  0  0  0  0  0  0  0
    2.4340   68.0860   63.0350 C   0  0  0  0  0  0  0  0  0  0  0  0
    3.8270   67.8130   63.2400 O   0  0  0  0  0  0  0  0  0  0  0  0
    4.4950   68.5450   62.2150 C   0  0  0  0  0  0  0  0  0  0  0  0
    3.5070   68.5160   61.0820 C   0  0  0  0  0  0  0  0  0  0  0  0
    2.2470   68.6750   61.7350 O   0  0  0  0  0  0  0  0  0  0  0  0
   -4.0652   68.9000   66.6783 H   0  0  0  0  0  0  0  0  0  0  0  0
   -3.4103   69.6448   65.1806 H   0  0  0  0  0  0  0  0  0  0  0  0
   -3.9123   67.9201   65.1806 H   0  0  0  0  0  0  0  0  0  0  0  0
   -0.6899   67.0883   69.8356 H   0  0  0  0  0  0  0  0  0  0  0  0
   -1.2154   65.5910   68.9937 H   0  0  0  0  0  0  0  0  0  0  0  0
    0.5186   66.0600   68.9937 H   0  0  0  0  0  0  0  0  0  0  0  0
    3.4024   67.6648   66.0537 H   0  0  0  0  0  0  0  0  0  0  0  0
    1.0225   69.5781   63.6736 H   0  0  0  0  0  0  0  0  0  0  0  0
    2.6987   69.7371   64.3657 H   0  0  0  0  0  0  0  0  0  0  0  0
    1.8887   67.1337   63.1114 H   0  0  0  0  0  0  0  0  0  0  0  0
    4.6995   69.5773   62.5352 H   0  0  0  0  0  0  0  0  0  0  0  0
    5.4746   68.1220   61.9476 H   0  0  0  0  0  0  0  0  0  0  0  0
    3.6918   69.3406   60.3778 H   0  0  0  0  0  0  0  0  0  0  0  0
    3.5669   67.5944   60.4845 H   0  0  0  0  0  0  0  0  0  0  0  0
  2  1  1  0
  3  2  1  0
  4  3  2  0
  5  3  1  0
  6  5  1  0
  7  5  1  0
  8  7  2  0
  9  8  1  0
  9  2  1  0
 10  9  2  0
 11  8  1  0
 12 11  1  0
 13 12  2  0
 13  7  1  0
 14 11  1  0
 15 14  1  0
 16 15  1  0
 17 16  1  0
 18 17  1  0
 19 18  1  0
 19 15  1  0
  1 20  1  0
  1 21  1  0
  1 22  1  0
  6 23  1  0
  6 24  1  0
  6 25  1  0
 12 26  1  0
 14 27  1  0
 14 28  1  0
 15 29  1  0
 17 30  1  0
 17 31  1  0
 18 32  1  0
 18 33  1  0
M  END
>  <score>  (5) 
-7.388

$$$$
=
     RDKit          3D

 33 35  0  0  0  0  0  0  0  0999 V2000
    5.4990   70.5790   68.4280 C   0  0  0  0  0  0  0  0  0  0  0  0
    4.4360   70.0420   67.6020 N   0  0  0  0  0  0  0  0  0  0  0  0
    3.1940   69.8330   68.2330 C   0  0  0  0  0  0  0  0  0  0  0  0
    3.0350   70.0990   69.4280 O   0  0  0  0  0  0  0  0  0  0  0  0
    2.1580   69.3220   67.4490 N   0  0  0  0  0  0  0  0  0  0  0  0
    0.8530   69.0620   68.0270 C   0  0  0  0  0  0  0  0  0  0  0  0
    2.3830   69.0770   66.1170 C   0  0  0  0  0  0  0  0  0  0  0  0
    3.5860   69.3300   65.5280 C   0  0  0  0  0  0  0  0  0  0  0  0
    4.6960   69.8690   66.2370 C   0  0  0  0  0  0  0  0  0  0  0  0
    5.7580   70.1720   65.6990 O   0  0  0  0  0  0  0  0  0  0  0  0
    3.4230   68.9520   64.2240 N   0  0  0  0  0  0  0  0  0  0  0  0
    2.1280   68.5200   64.0900 C   0  0  0  0  0  0  0  0  0  0  0  0
    1.4740   68.5820   65.2310 N   0  0  0  0  0  0  0  0  0  0  0  0
    4.4030   68.9860   63.1580 C   0  0  0  0  0  0  0  0  0  0  0  0
    5.2240   67.6990   63.0700 C   0  0  0  0  0  0  0  0  0  0  0  0
    4.7380   66.8340   62.0340 O   0  0  0  0  0  0  0  0  0  0  0  0
    4.0720   65.7800   62.7260 C   0  0  0  0  0  0  0  0  0  0  0  0
    4.8620   65.6610   64.0000 C   0  0  0  0  0  0  0  0  0  0  0  0
    5.1570   67.0180   64.3350 O   0  0  0  0  0  0  0  0  0  0  0  0
    5.2404   70.4483   69.4891 H   0  0  0  0  0  0  0  0  0  0  0  0
    6.4367   70.0464   68.2109 H   0  0  0  0  0  0  0  0  0  0  0  0
    5.6267   71.6498   68.2109 H   0  0  0  0  0  0  0  0  0  0  0  0
    0.9284   69.0770   69.1243 H   0  0  0  0  0  0  0  0  0  0  0  0
    0.1451   69.8368   67.6975 H   0  0  0  0  0  0  0  0  0  0  0  0
    0.4961   68.0751   67.6975 H   0  0  0  0  0  0  0  0  0  0  0  0
    1.6898   68.1654   63.1454 H   0  0  0  0  0  0  0  0  0  0  0  0
    3.8787   69.1350   62.2026 H   0  0  0  0  0  0  0  0  0  0  0  0
    5.0991   69.8102   63.3728 H   0  0  0  0  0  0  0  0  0  0  0  0
    6.2638   67.9638   62.8277 H   0  0  0  0  0  0  0  0  0  0  0  0
    3.0243   66.0431   62.9334 H   0  0  0  0  0  0  0  0  0  0  0  0
    4.0304   64.8425   62.1521 H   0  0  0  0  0  0  0  0  0  0  0  0
    4.2652   65.1815   64.7898 H   0  0  0  0  0  0  0  0  0  0  0  0
    5.7634   65.0403   63.8898 H   0  0  0  0  0  0  0  0  0  0  0  0
  2  1  1  0
  3  2  1  0
  4  3  2  0
  5  3  1  0
  6  5  1  0
  7  5  1  0
  8  7  2  0
  9  8  1  0
  9  2  1  0
 10  9  2  0
 11  8  1  0
 12 11  1  0
 13 12  2  0
 13  7  1  0
 14 11  1  0
 15 14  1  0
 16 15  1  0
 17 16  1  0
 18 17  1  0
 19 18  1  0
 19 15  1  0
  1 20  1  0
  1 21  1  0
  1 22  1  0
  6 23  1  0
  6 24  1  0
  6 25  1  0
 12 26  1  0
 14 27  1  0
 14 28  1  0
 15 29  1  0
 17 30  1  0
 17 31  1  0
 18 32  1  0
 18 33  1  0
M  END
>  <score>  (6) 
-7.315

$$$$
=
     RDKit          3D

 33 35  0  0  0  0  0  0  0  0999 V2000
    4.7220   70.4980   67.4950 C   0  0  0  0  0  0  0  0  0  0  0  0
    3.7800   69.5310   66.9660 N   0  0  0  0  0  0  0  0  0  0  0  0
    2.4720   69.5800   67.4860 C   0  0  0  0  0  0  0  0  0  0  0  0
    2.1590   70.4100   68.3460 O   0  0  0  0  0  0  0  0  0  0  0  0
    1.5510   68.6590   66.9830 N   0  0  0  0  0  0  0  0  0  0  0  0
    0.1880   68.6330   67.4780 C   0  0  0  0  0  0  0  0  0  0  0  0
    1.9460   67.7820   66.0030 C   0  0  0  0  0  0  0  0  0  0  0  0
    3.2100   67.7890   65.4920 C   0  0  0  0  0  0  0  0  0  0  0  0
    4.2130   68.7020   65.9250 C   0  0  0  0  0  0  0  0  0  0  0  0
    5.3290   68.7670   65.4170 O   0  0  0  0  0  0  0  0  0  0  0  0
    3.2180   66.7830   64.5670 N   0  0  0  0  0  0  0  0  0  0  0  0
    1.9570   66.2440   64.5490 C   0  0  0  0  0  0  0  0  0  0  0  0
    1.1640   66.8330   65.4190 N   0  0  0  0  0  0  0  0  0  0  0  0
    4.3240   66.3410   63.7430 C   0  0  0  0  0  0  0  0  0  0  0  0
    4.2700   66.9140   62.3260 C   0  0  0  0  0  0  0  0  0  0  0  0
    5.3610   67.8120   62.0790 O   0  0  0  0  0  0  0  0  0  0  0  0
    4.7730   69.1110   62.0980 C   0  0  0  0  0  0  0  0  0  0  0  0
    3.3890   68.8610   61.5630 C   0  0  0  0  0  0  0  0  0  0  0  0
    3.0240   67.6130   62.1550 O   0  0  0  0  0  0  0  0  0  0  0  0
    4.6962   70.4715   68.5944 H   0  0  0  0  0  0  0  0  0  0  0  0
    5.7356   70.2513   67.1460 H   0  0  0  0  0  0  0  0  0  0  0  0
    4.4489   71.5048   67.1460 H   0  0  0  0  0  0  0  0  0  0  0  0
    0.1973   68.6332   68.5780 H   0  0  0  0  0  0  0  0  0  0  0  0
   -0.3507   69.5210   67.1157 H   0  0  0  0  0  0  0  0  0  0  0  0
   -0.3164   67.7251   67.1157 H   0  0  0  0  0  0  0  0  0  0  0  0
    1.6465   65.4208   63.8888 H   0  0  0  0  0  0  0  0  0  0  0  0
    5.2646   66.6598   64.2159 H   0  0  0  0  0  0  0  0  0  0  0  0
    4.2606   65.2459   63.6613 H   0  0  0  0  0  0  0  0  0  0  0  0
    4.3490   66.0830   61.6096 H   0  0  0  0  0  0  0  0  0  0  0  0
    4.7352   69.5134   63.1211 H   0  0  0  0  0  0  0  0  0  0  0  0
    5.3376   69.8521   61.5132 H   0  0  0  0  0  0  0  0  0  0  0  0
    2.6980   69.6595   61.8711 H   0  0  0  0  0  0  0  0  0  0  0  0
    3.3512   68.8416   60.4638 H   0  0  0  0  0  0  0  0  0  0  0  0
  2  1  1  0
  3  2  1  0
  4  3  2  0
  5  3  1  0
  6  5  1  0
  7  5  1  0
  8  7  2  0
  9  8  1  0
  9  2  1  0
 10  9  2  0
 11  8  1  0
 12 11  1  0
 13 12  2  0
 13  7  1  0
 14 11  1  0
 15 14  1  0
 16 15  1  0
 17 16  1  0
 18 17  1  0
 19 18  1  0
 19 15  1  0
  1 20  1  0
  1 21  1  0
  1 22  1  0
  6 23  1  0
  6 24  1  0
  6 25  1  0
 12 26  1  0
 14 27  1  0
 14 28  1  0
 15 29  1  0
 17 30  1  0
 17 31  1  0
 18 32  1  0
 18 33  1  0
M  END
>  <score>  (7) 
-7.096

$$$$
=
     RDKit          3D

 33 35  0  0  0  0  0  0  0  0999 V2000
    3.5200   58.9150   71.4610 C   0  0  0  0  0  0  0  0  0  0  0  0
    3.0320   60.2260   71.0790 N   0  0  0  0  0  0  0  0  0  0  0  0
    3.6040   60.7980   69.9260 C   0  0  0  0  0  0  0  0  0  0  0  0
    4.4740   60.2010   69.2850 O   0  0  0  0  0  0  0  0  0  0  0  0
    3.1400   62.0570   69.5420 N   0  0  0  0  0  0  0  0  0  0  0  0
    3.6900   62.7220   68.3760 C   0  0  0  0  0  0  0  0  0  0  0  0
    2.1470   62.6590   70.2740 C   0  0  0  0  0  0  0  0  0  0  0  0
    1.5850   62.0590   71.3620 C   0  0  0  0  0  0  0  0  0  0  0  0
    1.9760   60.7690   71.8210 C   0  0  0  0  0  0  0  0  0  0  0  0
    1.4220   60.1880   72.7510 O   0  0  0  0  0  0  0  0  0  0  0  0
    0.6620   62.9580   71.8190 N   0  0  0  0  0  0  0  0  0  0  0  0
    0.6960   64.0340   70.9700 C   0  0  0  0  0  0  0  0  0  0  0  0
    1.5960   63.8790   70.0220 N   0  0  0  0  0  0  0  0  0  0  0  0
   -0.2050   62.8340   72.9720 C   0  0  0  0  0  0  0  0  0  0  0  0
    0.2610   63.6840   74.1550 C   0  0  0  0  0  0  0  0  0  0  0  0
    1.4190   63.1170   74.7860 O   0  0  0  0  0  0  0  0  0  0  0  0
    0.9320   62.5650   76.0070 C   0  0  0  0  0  0  0  0  0  0  0  0
   -0.1960   63.4910   76.3690 C   0  0  0  0  0  0  0  0  0  0  0  0
   -0.8100   63.7760   75.1110 O   0  0  0  0  0  0  0  0  0  0  0  0
    3.5481   58.8395   72.5580 H   0  0  0  0  0  0  0  0  0  0  0  0
    2.8493   58.1422   71.0574 H   0  0  0  0  0  0  0  0  0  0  0  0
    4.5328   58.7688   71.0574 H   0  0  0  0  0  0  0  0  0  0  0  0
    4.3603   63.5325   68.6982 H   0  0  0  0  0  0  0  0  0  0  0  0
    4.2555   61.9965   67.7728 H   0  0  0  0  0  0  0  0  0  0  0  0
    2.8713   63.1413   67.7728 H   0  0  0  0  0  0  0  0  0  0  0  0
    0.0500   64.9188   71.0690 H   0  0  0  0  0  0  0  0  0  0  0  0
   -1.2181   63.1536   72.6865 H   0  0  0  0  0  0  0  0  0  0  0  0
   -0.1852   61.7814   73.2909 H   0  0  0  0  0  0  0  0  0  0  0  0
    0.5340   64.6824   73.7827 H   0  0  0  0  0  0  0  0  0  0  0  0
    0.5684   61.5374   75.8593 H   0  0  0  0  0  0  0  0  0  0  0  0
    1.7026   62.4932   76.7887 H   0  0  0  0  0  0  0  0  0  0  0  0
   -0.9056   62.9988   77.0503 H   0  0  0  0  0  0  0  0  0  0  0  0
    0.1440   64.3955   76.8946 H   0  0  0  0  0  0  0  0  0  0  0  0
  2  1  1  0
  3  2  1  0
  4  3  2  0
  5  3  1  0
  6  5  1  0
  7  5  1  0
  8  7  2  0
  9  8  1  0
  9  2  1  0
 10  9  2  0
 11  8  1  0
 12 11  1  0
 13 12  2  0
 13  7  1  0
 14 11  1  0
 15 14  1  0
 16 15  1  0
 17 16  1  0
 18 17  1  0
 19 18  1  0
 19 15  1  0
  1 20  1  0
  1 21  1  0
  1 22  1  0
  6 23  1  0
  6 24  1  0
  6 25  1  0
 12 26  1  0
 14 27  1  0
 14 28  1  0
 15 29  1  0
 17 30  1  0
 17 31  1  0
 18 32  1  0
 18 33  1  0
M  END
>  <score>  (8) 
-6.668

$$$$
=
     RDKit          3D

 33 35  0  0  0  0  0  0  0  0999 V2000
   -0.3460   62.6060   73.6730 C   0  0  0  0  0  0  0  0  0  0  0  0
    0.4440   62.8720   72.4870 N   0  0  0  0  0  0  0  0  0  0  0  0
    0.4250   64.1940   72.0020 C   0  0  0  0  0  0  0  0  0  0  0  0
   -0.2340   65.0700   72.5700 O   0  0  0  0  0  0  0  0  0  0  0  0
    1.1860   64.4670   70.8650 N   0  0  0  0  0  0  0  0  0  0  0  0
    1.2070   65.8000   70.2930 C   0  0  0  0  0  0  0  0  0  0  0  0
    1.9270   63.4610   70.2950 C   0  0  0  0  0  0  0  0  0  0  0  0
    1.9550   62.2010   70.8140 C   0  0  0  0  0  0  0  0  0  0  0  0
    1.2300   61.8290   71.9810 C   0  0  0  0  0  0  0  0  0  0  0  0
    1.3110   60.7190   72.5000 O   0  0  0  0  0  0  0  0  0  0  0  0
    2.7770   61.4970   69.9780 N   0  0  0  0  0  0  0  0  0  0  0  0
    3.2200   62.3740   69.0200 C   0  0  0  0  0  0  0  0  0  0  0  0
    2.7130   63.5770   69.1890 N   0  0  0  0  0  0  0  0  0  0  0  0
    3.1360   60.0970   70.0550 C   0  0  0  0  0  0  0  0  0  0  0  0
    4.4590   59.8670   70.7860 C   0  0  0  0  0  0  0  0  0  0  0  0
    4.2460   59.3850   72.1210 O   0  0  0  0  0  0  0  0  0  0  0  0
    4.5430   60.5000   72.9600 C   0  0  0  0  0  0  0  0  0  0  0  0
    5.6140   61.2240   72.1910 C   0  0  0  0  0  0  0  0  0  0  0  0
    5.1860   61.1080   70.8340 O   0  0  0  0  0  0  0  0  0  0  0  0
    0.2583   62.8095   74.5693 H   0  0  0  0  0  0  0  0  0  0  0  0
   -1.2345   63.2545   73.6748 H   0  0  0  0  0  0  0  0  0  0  0  0
   -0.6613   61.5522   73.6748 H   0  0  0  0  0  0  0  0  0  0  0  0
    1.2187   66.5458   71.1015 H   0  0  0  0  0  0  0  0  0  0  0  0
    2.1071   65.9183   69.6719 H   0  0  0  0  0  0  0  0  0  0  0  0
    0.3111   65.9466   69.6719 H   0  0  0  0  0  0  0  0  0  0  0  0
    3.9138   62.1047   68.2100 H   0  0  0  0  0  0  0  0  0  0  0  0
    2.3400   59.5584   70.5900 H   0  0  0  0  0  0  0  0  0  0  0  0
    3.2561   59.7275   69.0259 H   0  0  0  0  0  0  0  0  0  0  0  0
    5.0322   59.1040   70.2389 H   0  0  0  0  0  0  0  0  0  0  0  0
    3.6572   61.1370   73.0999 H   0  0  0  0  0  0  0  0  0  0  0  0
    4.8572   60.2094   73.9733 H   0  0  0  0  0  0  0  0  0  0  0  0
    5.6720   62.2792   72.4962 H   0  0  0  0  0  0  0  0  0  0  0  0
    6.6183   60.8086   72.3605 H   0  0  0  0  0  0  0  0  0  0  0  0
  2  1  1  0
  3  2  1  0
  4  3  2  0
  5  3  1  0
  6  5  1  0
  7  5  1  0
  8  7  2  0
  9  8  1  0
  9  2  1  0
 10  9  2  0
 11  8  1  0
 12 11  1  0
 13 12  2  0
 13  7  1  0
 14 11  1  0
 15 14  1  0
 16 15  1  0
 17 16  1  0
 18 17  1  0
 19 18  1  0
 19 15  1  0
  1 20  1  0
  1 21  1  0
  1 22  1  0
  6 23  1  0
  6 24  1  0
  6 25  1  0
 12 26  1  0
 14 27  1  0
 14 28  1  0
 15 29  1  0
 17 30  1  0
 17 31  1  0
 18 32  1  0
 18 33  1  0
M  END
>  <score>  (9) 
-6.631

$$$$
