=
     RDKit          3D

 32 33  0  0  0  0  0  0  0  0999 V2000
    1.8870   67.1590   64.6300 C   0  0  0  0  0  0  0  0  0  0  0  0
    1.5050   65.9920   64.6240 O   0  0  0  0  0  0  0  0  0  0  0  0
    0.4180   68.8860   62.9620 Br  0  0  0  0  0  0  0  0  0  0  0  0
    1.0180   68.3850   64.7590 C   0  0  1  0  0  0  0  0  0  0  0  0
   -0.1730   68.1920   65.6640 C   0  0  0  0  0  0  0  0  0  0  0  0
   -1.4320   68.7400   65.3660 C   0  0  0  0  0  0  0  0  0  0  0  0
   -2.5200   68.5300   66.2140 C   0  0  0  0  0  0  0  0  0  0  0  0
   -2.3700   67.7650   67.3680 C   0  0  0  0  0  0  0  0  0  0  0  0
   -1.1300   67.2100   67.6750 C   0  0  0  0  0  0  0  0  0  0  0  0
   -0.0390   67.4190   66.8300 C   0  0  0  0  0  0  0  0  0  0  0  0
    3.3730   67.4240   64.5360 C   0  0  0  0  0  0  0  0  0  0  0  0
    4.1380   66.4680   64.5940 O   0  0  0  0  0  0  0  0  0  0  0  0
    3.7500   68.8840   64.4610 C   0  0  2  0  0  0  0  0  0  0  0  0
    5.0750   69.1390   63.0410 Br  0  0  0  0  0  0  0  0  0  0  0  0
    4.2950   69.4060   65.7670 C   0  0  0  0  0  0  0  0  0  0  0  0
    5.6400   69.8020   65.8500 C   0  0  0  0  0  0  0  0  0  0  0  0
    6.1560   70.3230   67.0380 C   0  0  0  0  0  0  0  0  0  0  0  0
    5.3380   70.4580   68.1570 C   0  0  0  0  0  0  0  0  0  0  0  0
    4.0010   70.0740   68.0900 C   0  0  0  0  0  0  0  0  0  0  0  0
    3.4800   69.5540   66.9040 C   0  0  0  0  0  0  0  0  0  0  0  0
    1.6201   69.1788   65.2253 H   0  0  0  0  0  0  0  0  0  0  0  0
   -1.5614   69.3413   64.4540 H   0  0  0  0  0  0  0  0  0  0  0  0
   -3.4984   68.9697   65.9704 H   0  0  0  0  0  0  0  0  0  0  0  0
   -3.2286   67.5995   68.0353 H   0  0  0  0  0  0  0  0  0  0  0  0
   -1.0102   66.6052   68.5860 H   0  0  0  0  0  0  0  0  0  0  0  0
    0.9357   66.9741   67.0792 H   0  0  0  0  0  0  0  0  0  0  0  0
    2.8354   69.4536   64.2398 H   0  0  0  0  0  0  0  0  0  0  0  0
    6.2930   69.7007   64.9706 H   0  0  0  0  0  0  0  0  0  0  0  0
    7.2116   70.6277   67.0904 H   0  0  0  0  0  0  0  0  0  0  0  0
    5.7473   70.8673   69.0924 H   0  0  0  0  0  0  0  0  0  0  0  0
    3.3543   70.1807   68.9734 H   0  0  0  0  0  0  0  0  0  0  0  0
    2.4218   69.2571   66.8580 H   0  0  0  0  0  0  0  0  0  0  0  0
  2  1  2  0
  4  3  1  0
  4  1  1  0
  5  4  1  0
  6  5  2  0
  7  6  1  0
  8  7  2  0
  9  8  1  0
 10  9  2  0
 10  5  1  0
 11  1  1  0
 12 11  2  0
 13 11  1  0
 14 13  1  0
 15 13  1  0
 16 15  2  0
 17 16  1  0
 18 17  2  0
 19 18  1  0
 20 19  2  0
 20 15  1  0
  4 21  1  1
  6 22  1  0
  7 23  1  0
  8 24  1  0
  9 25  1  0
 10 26  1  0
 13 27  1  6
 16 28  1  0
 17 29  1  0
 18 30  1  0
 19 31  1  0
 20 32  1  0
M  END
>  <score>  (1) 
-9.723

$$$$
=
     RDKit          3D

 32 33  0  0  0  0  0  0  0  0999 V2000
    1.8230   67.1830   64.6960 C   0  0  0  0  0  0  0  0  0  0  0  0
    1.4350   66.0200   64.6450 O   0  0  0  0  0  0  0  0  0  0  0  0
    0.4110   69.0350   63.1150 Br  0  0  0  0  0  0  0  0  0  0  0  0
    0.9640   68.4080   64.8870 C   0  0  1  0  0  0  0  0  0  0  0  0
   -0.2510   68.1670   65.7500 C   0  0  0  0  0  0  0  0  0  0  0  0
   -0.1870   67.4070   66.9290 C   0  0  0  0  0  0  0  0  0  0  0  0
   -1.3240   67.2160   67.7160 C   0  0  0  0  0  0  0  0  0  0  0  0
   -2.5380   67.7840   67.3410 C   0  0  0  0  0  0  0  0  0  0  0  0
   -2.6170   68.5450   66.1770 C   0  0  0  0  0  0  0  0  0  0  0  0
   -1.4820   68.7380   65.3870 C   0  0  0  0  0  0  0  0  0  0  0  0
    3.3100   67.4440   64.5940 C   0  0  0  0  0  0  0  0  0  0  0  0
    4.0730   66.4880   64.6660 O   0  0  0  0  0  0  0  0  0  0  0  0
    3.6890   68.9030   64.4930 C   0  0  2  0  0  0  0  0  0  0  0  0
    4.9500   69.1440   63.0140 Br  0  0  0  0  0  0  0  0  0  0  0  0
    4.2950   69.4290   65.7710 C   0  0  0  0  0  0  0  0  0  0  0  0
    5.6460   69.8110   65.7930 C   0  0  0  0  0  0  0  0  0  0  0  0
    6.2180   70.3370   66.9530 C   0  0  0  0  0  0  0  0  0  0  0  0
    5.4500   70.4890   68.1050 C   0  0  0  0  0  0  0  0  0  0  0  0
    4.1070   70.1190   68.0980 C   0  0  0  0  0  0  0  0  0  0  0  0
    3.5310   69.5940   66.9400 C   0  0  0  0  0  0  0  0  0  0  0  0
    1.5629   69.1622   65.4186 H   0  0  0  0  0  0  0  0  0  0  0  0
    0.7690   66.9575   67.2356 H   0  0  0  0  0  0  0  0  0  0  0  0
   -1.2603   66.6149   68.6351 H   0  0  0  0  0  0  0  0  0  0  0  0
   -3.4330   67.6323   67.9623 H   0  0  0  0  0  0  0  0  0  0  0  0
   -3.5757   68.9949   65.8795 H   0  0  0  0  0  0  0  0  0  0  0  0
   -1.5525   69.3433   64.4712 H   0  0  0  0  0  0  0  0  0  0  0  0
    2.7680   69.4757   64.3092 H   0  0  0  0  0  0  0  0  0  0  0  0
    6.2597   69.6947   64.8875 H   0  0  0  0  0  0  0  0  0  0  0  0
    7.2777   70.6321   66.9571 H   0  0  0  0  0  0  0  0  0  0  0  0
    5.9032   70.9006   69.0189 H   0  0  0  0  0  0  0  0  0  0  0  0
    3.4993   70.2408   69.0068 H   0  0  0  0  0  0  0  0  0  0  0  0
    2.4692   69.3066   66.9419 H   0  0  0  0  0  0  0  0  0  0  0  0
  2  1  2  0
  4  3  1  0
  4  1  1  0
  5  4  1  0
  6  5  2  0
  7  6  1  0
  8  7  2  0
  9  8  1  0
 10  9  2  0
 10  5  1  0
 11  1  1  0
 12 11  2  0
 13 11  1  0
 14 13  1  0
 15 13  1  0
 16 15  2  0
 17 16  1  0
 18 17  2  0
 19 18  1  0
 20 19  2  0
 20 15  1  0
  4 21  1  1
  6 22  1  0
  7 23  1  0
  8 24  1  0
  9 25  1  0
 10 26  1  0
 13 27  1  6
 16 28  1  0
 17 29  1  0
 18 30  1  0
 19 31  1  0
 20 32  1  0
M  END
>  <score>  (2) 
-9.704

$$$$
=
     RDKit          3D

 32 33  0  0  0  0  0  0  0  0999 V2000
    2.6460   68.5960   65.2650 C   0  0  0  0  0  0  0  0  0  0  0  0
    1.9770   69.3490   64.5630 O   0  0  0  0  0  0  0  0  0  0  0  0
    4.9040   69.0880   63.6570 Br  0  0  0  0  0  0  0  0  0  0  0  0
    4.1490   68.5910   65.3960 C   0  0  1  0  0  0  0  0  0  0  0  0
    4.6670   69.5200   66.4660 C   0  0  0  0  0  0  0  0  0  0  0  0
    3.8920   69.8750   67.5830 C   0  0  0  0  0  0  0  0  0  0  0  0
    4.4040   70.7220   68.5660 C   0  0  0  0  0  0  0  0  0  0  0  0
    5.6990   71.2230   68.4520 C   0  0  0  0  0  0  0  0  0  0  0  0
    6.4820   70.8760   67.3550 C   0  0  0  0  0  0  0  0  0  0  0  0
    5.9730   70.0290   66.3690 C   0  0  0  0  0  0  0  0  0  0  0  0
    1.9180   67.5840   66.1210 C   0  0  0  0  0  0  0  0  0  0  0  0
    2.0120   66.3990   65.8260 O   0  0  0  0  0  0  0  0  0  0  0  0
    1.0720   68.1810   67.2220 C   0  0  2  0  0  0  0  0  0  0  0  0
    1.4520   67.2560   68.9060 Br  0  0  0  0  0  0  0  0  0  0  0  0
   -0.4040   68.1050   66.9190 C   0  0  0  0  0  0  0  0  0  0  0  0
   -1.2040   67.1680   67.5930 C   0  0  0  0  0  0  0  0  0  0  0  0
   -2.5780   67.1050   67.3560 C   0  0  0  0  0  0  0  0  0  0  0  0
   -3.1720   67.9770   66.4470 C   0  0  0  0  0  0  0  0  0  0  0  0
   -2.3940   68.9150   65.7730 C   0  0  0  0  0  0  0  0  0  0  0  0
   -1.0200   68.9820   66.0080 C   0  0  0  0  0  0  0  0  0  0  0  0
    4.4588   67.5810   65.7026 H   0  0  0  0  0  0  0  0  0  0  0  0
    2.8701   69.4806   67.6834 H   0  0  0  0  0  0  0  0  0  0  0  0
    3.7841   70.9949   69.4328 H   0  0  0  0  0  0  0  0  0  0  0  0
    6.1017   71.8914   69.2273 H   0  0  0  0  0  0  0  0  0  0  0  0
    7.5049   71.2703   67.2646 H   0  0  0  0  0  0  0  0  0  0  0  0
    6.6007   69.7573   65.5075 H   0  0  0  0  0  0  0  0  0  0  0  0
    1.3328   69.2466   67.3027 H   0  0  0  0  0  0  0  0  0  0  0  0
   -0.7434   66.4772   68.3145 H   0  0  0  0  0  0  0  0  0  0  0  0
   -3.1932   66.3648   67.8885 H   0  0  0  0  0  0  0  0  0  0  0  0
   -4.2550   67.9249   66.2615 H   0  0  0  0  0  0  0  0  0  0  0  0
   -2.8629   69.6037   65.0548 H   0  0  0  0  0  0  0  0  0  0  0  0
   -0.4124   69.7284   65.4753 H   0  0  0  0  0  0  0  0  0  0  0  0
  2  1  2  0
  4  3  1  0
  4  1  1  0
  5  4  1  0
  6  5  2  0
  7  6  1  0
  8  7  2  0
  9  8  1  0
 10  9  2  0
 10  5  1  0
 11  1  1  0
 12 11  2  0
 13 11  1  0
 14 13  1  0
 15 13  1  0
 16 15  2  0
 17 16  1  0
 18 17  2  0
 19 18  1  0
 20 19  2  0
 20 15  1  0
  4 21  1  1
  6 22  1  0
  7 23  1  0
  8 24  1  0
  9 25  1  0
 10 26  1  0
 13 27  1  1
 16 28  1  0
 17 29  1  0
 18 30  1  0
 19 31  1  0
 20 32  1  0
M  END
>  <score>  (3) 
-9.273

$$$$
=
     RDKit          3D

 32 33  0  0  0  0  0  0  0  0999 V2000
    0.7470   68.0730   65.4790 C   0  0  0  0  0  0  0  0  0  0  0  0
    0.0870   67.7230   64.5050 O   0  0  0  0  0  0  0  0  0  0  0  0
   -1.6450   69.1910   66.4520 Br  0  0  0  0  0  0  0  0  0  0  0  0
    0.2110   68.6490   66.7660 C   0  0  1  0  0  0  0  0  0  0  0  0
    0.2790   67.6930   67.9310 C   0  0  0  0  0  0  0  0  0  0  0  0
    1.3790   67.6590   68.8040 C   0  0  0  0  0  0  0  0  0  0  0  0
    1.4050   66.7760   69.8840 C   0  0  0  0  0  0  0  0  0  0  0  0
    0.3320   65.9180   70.1120 C   0  0  0  0  0  0  0  0  0  0  0  0
   -0.7690   65.9420   69.2590 C   0  0  0  0  0  0  0  0  0  0  0  0
   -0.7980   66.8240   68.1770 C   0  0  0  0  0  0  0  0  0  0  0  0
    2.2480   67.8890   65.4260 C   0  0  0  0  0  0  0  0  0  0  0  0
    2.7110   66.8010   65.7490 O   0  0  0  0  0  0  0  0  0  0  0  0
    3.0240   69.1290   65.0490 C   0  0  2  0  0  0  0  0  0  0  0  0
    4.0200   68.7920   63.3970 Br  0  0  0  0  0  0  0  0  0  0  0  0
    3.9720   69.5680   66.1370 C   0  0  0  0  0  0  0  0  0  0  0  0
    5.3410   69.7030   65.8520 C   0  0  0  0  0  0  0  0  0  0  0  0
    6.2310   70.1440   66.8320 C   0  0  0  0  0  0  0  0  0  0  0  0
    5.7690   70.4570   68.1080 C   0  0  0  0  0  0  0  0  0  0  0  0
    4.4140   70.3310   68.4060 C   0  0  0  0  0  0  0  0  0  0  0  0
    3.5200   69.8920   67.4280 C   0  0  0  0  0  0  0  0  0  0  0  0
    0.8441   69.5041   67.0452 H   0  0  0  0  0  0  0  0  0  0  0  0
    2.2292   68.3360   68.6343 H   0  0  0  0  0  0  0  0  0  0  0  0
    2.2750   66.7575   70.5569 H   0  0  0  0  0  0  0  0  0  0  0  0
    0.3539   65.2227   70.9641 H   0  0  0  0  0  0  0  0  0  0  0  0
   -1.6171   65.2648   69.4382 H   0  0  0  0  0  0  0  0  0  0  0  0
   -1.6727   66.8389   67.5102 H   0  0  0  0  0  0  0  0  0  0  0  0
    2.3002   69.9440   64.9012 H   0  0  0  0  0  0  0  0  0  0  0  0
    5.7149   69.4587   64.8467 H   0  0  0  0  0  0  0  0  0  0  0  0
    7.3007   70.2447   66.5960 H   0  0  0  0  0  0  0  0  0  0  0  0
    6.4728   70.8031   68.8792 H   0  0  0  0  0  0  0  0  0  0  0  0
    4.0480   70.5778   69.4135 H   0  0  0  0  0  0  0  0  0  0  0  0
    2.4510   69.7987   67.6700 H   0  0  0  0  0  0  0  0  0  0  0  0
  2  1  2  0
  4  3  1  0
  4  1  1  0
  5  4  1  0
  6  5  2  0
  7  6  1  0
  8  7  2  0
  9  8  1  0
 10  9  2  0
 10  5  1  0
 11  1  1  0
 12 11  2  0
 13 11  1  0
 14 13  1  0
 15 13  1  0
 16 15  2  0
 17 16  1  0
 18 17  2  0
 19 18  1  0
 20 19  2  0
 20 15  1  0
  4 21  1  1
  6 22  1  0
  7 23  1  0
  8 24  1  0
  9 25  1  0
 10 26  1  0
 13 27  1  6
 16 28  1  0
 17 29  1  0
 18 30  1  0
 19 31  1  0
 20 32  1  0
M  END
>  <score>  (4) 
-9.267

$$$$
=
     RDKit          3D

 32 33  0  0  0  0  0  0  0  0999 V2000
    1.7180   67.8790   66.6210 C   0  0  0  0  0  0  0  0  0  0  0  0
    1.7970   66.9890   67.4620 O   0  0  0  0  0  0  0  0  0  0  0  0
    0.2570   69.8960   67.9320 Br  0  0  0  0  0  0  0  0  0  0  0  0
    1.8160   69.3630   66.8720 C   0  0  1  0  0  0  0  0  0  0  0  0
    3.0840   69.7750   67.5790 C   0  0  0  0  0  0  0  0  0  0  0  0
    4.3330   69.7600   66.9360 C   0  0  0  0  0  0  0  0  0  0  0  0
    5.4870   70.1630   67.6110 C   0  0  0  0  0  0  0  0  0  0  0  0
    5.4090   70.5920   68.9340 C   0  0  0  0  0  0  0  0  0  0  0  0
    4.1780   70.6180   69.5830 C   0  0  0  0  0  0  0  0  0  0  0  0
    3.0220   70.2140   68.9120 C   0  0  0  0  0  0  0  0  0  0  0  0
    1.5380   67.4770   65.1730 C   0  0  0  0  0  0  0  0  0  0  0  0
    1.2100   66.3230   64.9280 O   0  0  0  0  0  0  0  0  0  0  0  0
    1.8740   68.5570   64.1720 C   0  0  2  0  0  0  0  0  0  0  0  0
    0.5930   68.4910   62.6920 Br  0  0  0  0  0  0  0  0  0  0  0  0
    3.2790   68.4300   63.6370 C   0  0  0  0  0  0  0  0  0  0  0  0
    3.6060   67.3550   62.7940 C   0  0  0  0  0  0  0  0  0  0  0  0
    4.8900   67.2380   62.2570 C   0  0  0  0  0  0  0  0  0  0  0  0
    5.8610   68.1910   62.5520 C   0  0  0  0  0  0  0  0  0  0  0  0
    5.5520   69.2650   63.3830 C   0  0  0  0  0  0  0  0  0  0  0  0
    4.2700   69.3870   63.9210 C   0  0  0  0  0  0  0  0  0  0  0  0
    1.8397   69.8707   65.8965 H   0  0  0  0  0  0  0  0  0  0  0  0
    4.4026   69.4273   65.8898 H   0  0  0  0  0  0  0  0  0  0  0  0
    6.4594   70.1417   67.0971 H   0  0  0  0  0  0  0  0  0  0  0  0
    6.3186   70.9096   69.4648 H   0  0  0  0  0  0  0  0  0  0  0  0
    4.1156   70.9577   70.6274 H   0  0  0  0  0  0  0  0  0  0  0  0
    2.0532   70.2397   69.4323 H   0  0  0  0  0  0  0  0  0  0  0  0
    1.8105   69.5244   64.6918 H   0  0  0  0  0  0  0  0  0  0  0  0
    2.8440   66.5986   62.5547 H   0  0  0  0  0  0  0  0  0  0  0  0
    5.1346   66.3908   61.5994 H   0  0  0  0  0  0  0  0  0  0  0  0
    6.8719   68.0957   62.1289 H   0  0  0  0  0  0  0  0  0  0  0  0
    6.3193   70.0181   63.6156 H   0  0  0  0  0  0  0  0  0  0  0  0
    4.0322   70.2400   64.5736 H   0  0  0  0  0  0  0  0  0  0  0  0
  2  1  2  0
  4  3  1  0
  4  1  1  0
  5  4  1  0
  6  5  2  0
  7  6  1  0
  8  7  2  0
  9  8  1  0
 10  9  2  0
 10  5  1  0
 11  1  1  0
 12 11  2  0
 13 11  1  0
 14 13  1  0
 15 13  1  0
 16 15  2  0
 17 16  1  0
 18 17  2  0
 19 18  1  0
 20 19  2  0
 20 15  1  0
  4 21  1  6
  6 22  1  0
  7 23  1  0
  8 24  1  0
  9 25  1  0
 10 26  1  0
 13 27  1  1
 16 28  1  0
 17 29  1  0
 18 30  1  0
 19 31  1  0
 20 32  1  0
M  END
>  <score>  (5) 
-8.89

$$$$
=
     RDKit          3D

 32 33  0  0  0  0  0  0  0  0999 V2000
    2.0150   66.9540   65.0840 C   0  0  0  0  0  0  0  0  0  0  0  0
    1.1130   66.1280   64.9830 O   0  0  0  0  0  0  0  0  0  0  0  0
    3.7010   64.8490   64.2760 Br  0  0  0  0  0  0  0  0  0  0  0  0
    3.4720   66.7330   64.7610 C   0  0  1  0  0  0  0  0  0  0  0  0
    3.9870   67.6170   63.6510 C   0  0  0  0  0  0  0  0  0  0  0  0
    3.2600   67.8240   62.4660 C   0  0  0  0  0  0  0  0  0  0  0  0
    3.7530   68.6610   61.4640 C   0  0  0  0  0  0  0  0  0  0  0  0
    4.9750   69.3070   61.6320 C   0  0  0  0  0  0  0  0  0  0  0  0
    5.7060   69.1170   62.8020 C   0  0  0  0  0  0  0  0  0  0  0  0
    5.2160   68.2790   63.8060 C   0  0  0  0  0  0  0  0  0  0  0  0
    1.6570   68.3500   65.5440 C   0  0  0  0  0  0  0  0  0  0  0  0
    1.4490   69.2050   64.6920 O   0  0  0  0  0  0  0  0  0  0  0  0
    1.6790   68.5460   67.0410 C   0  0  2  0  0  0  0  0  0  0  0  0
   -0.0010   69.3770   67.6110 Br  0  0  0  0  0  0  0  0  0  0  0  0
    2.8450   69.3900   67.4940 C   0  0  0  0  0  0  0  0  0  0  0  0
    2.7810   70.0580   68.7280 C   0  0  0  0  0  0  0  0  0  0  0  0
    3.8630   70.8140   69.1850 C   0  0  0  0  0  0  0  0  0  0  0  0
    5.0210   70.9120   68.4180 C   0  0  0  0  0  0  0  0  0  0  0  0
    5.1020   70.2520   67.1940 C   0  0  0  0  0  0  0  0  0  0  0  0
    4.0240   69.4950   66.7340 C   0  0  0  0  0  0  0  0  0  0  0  0
    4.0602   66.9991   65.6516 H   0  0  0  0  0  0  0  0  0  0  0  0
    2.2918   67.3207   62.3269 H   0  0  0  0  0  0  0  0  0  0  0  0
    3.1753   68.8106   60.5400 H   0  0  0  0  0  0  0  0  0  0  0  0
    5.3625   69.9666   60.8416 H   0  0  0  0  0  0  0  0  0  0  0  0
    6.6710   69.6278   62.9356 H   0  0  0  0  0  0  0  0  0  0  0  0
    5.7987   68.1359   64.7279 H   0  0  0  0  0  0  0  0  0  0  0  0
    1.7944   67.5555   67.5054 H   0  0  0  0  0  0  0  0  0  0  0  0
    1.8701   69.9851   69.3403 H   0  0  0  0  0  0  0  0  0  0  0  0
    3.8001   71.3330   70.1528 H   0  0  0  0  0  0  0  0  0  0  0  0
    5.8710   71.5100   68.7783 H   0  0  0  0  0  0  0  0  0  0  0  0
    6.0175   70.3278   66.5890 H   0  0  0  0  0  0  0  0  0  0  0  0
    4.0968   68.9751   65.7674 H   0  0  0  0  0  0  0  0  0  0  0  0
  2  1  2  0
  4  3  1  0
  4  1  1  0
  5  4  1  0
  6  5  2  0
  7  6  1  0
  8  7  2  0
  9  8  1  0
 10  9  2  0
 10  5  1  0
 11  1  1  0
 12 11  2  0
 13 11  1  0
 14 13  1  0
 15 13  1  0
 16 15  2  0
 17 16  1  0
 18 17  2  0
 19 18  1  0
 20 19  2  0
 20 15  1  0
  4 21  1  1
  6 22  1  0
  7 23  1  0
  8 24  1  0
  9 25  1  0
 10 26  1  0
 13 27  1  1
 16 28  1  0
 17 29  1  0
 18 30  1  0
 19 31  1  0
 20 32  1  0
M  END
>  <score>  (6) 
-8.739

$$$$
=
     RDKit          3D

 32 33  0  0  0  0  0  0  0  0999 V2000
    1.5400   67.8150   64.7520 C   0  0  0  0  0  0  0  0  0  0  0  0
    1.5960   66.8160   64.0420 O   0  0  0  0  0  0  0  0  0  0  0  0
   -0.1960   69.1170   62.9600 Br  0  0  0  0  0  0  0  0  0  0  0  0
    0.4180   68.8220   64.7970 C   0  0  1  0  0  0  0  0  0  0  0  0
   -0.7410   68.4000   65.6660 C   0  0  0  0  0  0  0  0  0  0  0  0
   -2.0450   68.8760   65.4510 C   0  0  0  0  0  0  0  0  0  0  0  0
   -3.1000   68.4540   66.2610 C   0  0  0  0  0  0  0  0  0  0  0  0
   -2.8710   67.5480   67.2930 C   0  0  0  0  0  0  0  0  0  0  0  0
   -1.5850   67.0620   67.5160 C   0  0  0  0  0  0  0  0  0  0  0  0
   -0.5270   67.4830   66.7080 C   0  0  0  0  0  0  0  0  0  0  0  0
    2.6790   68.0700   65.7140 C   0  0  0  0  0  0  0  0  0  0  0  0
    2.7490   67.3830   66.7260 O   0  0  0  0  0  0  0  0  0  0  0  0
    3.5730   69.2290   65.3410 C   0  0  2  0  0  0  0  0  0  0  0  0
    4.8060   68.6670   63.9260 Br  0  0  0  0  0  0  0  0  0  0  0  0
    4.3550   69.7560   66.5190 C   0  0  0  0  0  0  0  0  0  0  0  0
    3.6910   70.0290   67.7260 C   0  0  0  0  0  0  0  0  0  0  0  0
    4.3990   70.4820   68.8410 C   0  0  0  0  0  0  0  0  0  0  0  0
    5.7780   70.6660   68.7660 C   0  0  0  0  0  0  0  0  0  0  0  0
    6.4520   70.3960   67.5780 C   0  0  0  0  0  0  0  0  0  0  0  0
    5.7470   69.9430   66.4610 C   0  0  0  0  0  0  0  0  0  0  0  0
    0.8091   69.7448   65.2504 H   0  0  0  0  0  0  0  0  0  0  0  0
   -2.2365   69.5889   64.6355 H   0  0  0  0  0  0  0  0  0  0  0  0
   -4.1153   68.8382   66.0836 H   0  0  0  0  0  0  0  0  0  0  0  0
   -3.7038   67.2168   67.9308 H   0  0  0  0  0  0  0  0  0  0  0  0
   -1.4025   66.3452   68.3302 H   0  0  0  0  0  0  0  0  0  0  0  0
    0.4851   67.0922   66.8895 H   0  0  0  0  0  0  0  0  0  0  0  0
    2.9283   70.0468   64.9867 H   0  0  0  0  0  0  0  0  0  0  0  0
    2.6026   69.8846   67.7937 H   0  0  0  0  0  0  0  0  0  0  0  0
    3.8671   70.6940   69.7802 H   0  0  0  0  0  0  0  0  0  0  0  0
    6.3340   71.0244   69.6449 H   0  0  0  0  0  0  0  0  0  0  0  0
    7.5410   70.5397   67.5193 H   0  0  0  0  0  0  0  0  0  0  0  0
    6.2864   69.7303   65.5262 H   0  0  0  0  0  0  0  0  0  0  0  0
  2  1  2  0
  4  3  1  0
  4  1  1  0
  5  4  1  0
  6  5  2  0
  7  6  1  0
  8  7  2  0
  9  8  1  0
 10  9  2  0
 10  5  1  0
 11  1  1  0
 12 11  2  0
 13 11  1  0
 14 13  1  0
 15 13  1  0
 16 15  2  0
 17 16  1  0
 18 17  2  0
 19 18  1  0
 20 19  2  0
 20 15  1  0
  4 21  1  1
  6 22  1  0
  7 23  1  0
  8 24  1  0
  9 25  1  0
 10 26  1  0
 13 27  1  6
 16 28  1  0
 17 29  1  0
 18 30  1  0
 19 31  1  0
 20 32  1  0
M  END
>  <score>  (7) 
-8.43

$$$$
=
     RDKit          3D

 32 33  0  0  0  0  0  0  0  0999 V2000
    0.6410   63.0090   73.7510 C   0  0  0  0  0  0  0  0  0  0  0  0
    0.6540   63.9300   74.5630 O   0  0  0  0  0  0  0  0  0  0  0  0
   -0.7700   60.5790   73.5950 Br  0  0  0  0  0  0  0  0  0  0  0  0
    0.8710   61.5480   74.0480 C   0  0  1  0  0  0  0  0  0  0  0  0
    2.0410   60.9550   73.3020 C   0  0  0  0  0  0  0  0  0  0  0  0
    3.3540   61.4230   73.4840 C   0  0  0  0  0  0  0  0  0  0  0  0
    4.4190   60.8430   72.7930 C   0  0  0  0  0  0  0  0  0  0  0  0
    4.1910   59.7860   71.9160 C   0  0  0  0  0  0  0  0  0  0  0  0
    2.8960   59.3070   71.7290 C   0  0  0  0  0  0  0  0  0  0  0  0
    1.8280   59.8850   72.4170 C   0  0  0  0  0  0  0  0  0  0  0  0
    0.3330   63.3370   72.3070 C   0  0  0  0  0  0  0  0  0  0  0  0
   -0.6300   62.7910   71.7810 O   0  0  0  0  0  0  0  0  0  0  0  0
    1.3250   64.2620   71.6430 C   0  0  2  0  0  0  0  0  0  0  0  0
    0.3580   65.6420   70.6450 Br  0  0  0  0  0  0  0  0  0  0  0  0
    2.2670   63.5290   70.7190 C   0  0  0  0  0  0  0  0  0  0  0  0
    3.6340   63.8500   70.7250 C   0  0  0  0  0  0  0  0  0  0  0  0
    4.5300   63.1590   69.9060 C   0  0  0  0  0  0  0  0  0  0  0  0
    4.0740   62.1400   69.0740 C   0  0  0  0  0  0  0  0  0  0  0  0
    2.7210   61.8070   69.0590 C   0  0  0  0  0  0  0  0  0  0  0  0
    1.8230   62.4940   69.8770 C   0  0  0  0  0  0  0  0  0  0  0  0
    1.1196   61.4545   75.1154 H   0  0  0  0  0  0  0  0  0  0  0  0
    3.5440   62.2549   74.1782 H   0  0  0  0  0  0  0  0  0  0  0  0
    5.4409   61.2219   72.9417 H   0  0  0  0  0  0  0  0  0  0  0  0
    5.0313   59.3301   71.3720 H   0  0  0  0  0  0  0  0  0  0  0  0
    2.7149   58.4711   71.0373 H   0  0  0  0  0  0  0  0  0  0  0  0
    0.8093   59.4988   72.2647 H   0  0  0  0  0  0  0  0  0  0  0  0
    1.9365   64.7189   72.4350 H   0  0  0  0  0  0  0  0  0  0  0  0
    4.0025   64.6528   71.3805 H   0  0  0  0  0  0  0  0  0  0  0  0
    5.5984   63.4205   69.9184 H   0  0  0  0  0  0  0  0  0  0  0  0
    4.7813   61.5982   68.4289 H   0  0  0  0  0  0  0  0  0  0  0  0
    2.3605   61.0019   68.4018 H   0  0  0  0  0  0  0  0  0  0  0  0
    0.7570   62.2231   69.8630 H   0  0  0  0  0  0  0  0  0  0  0  0
  2  1  2  0
  4  3  1  0
  4  1  1  0
  5  4  1  0
  6  5  2  0
  7  6  1  0
  8  7  2  0
  9  8  1  0
 10  9  2  0
 10  5  1  0
 11  1  1  0
 12 11  2  0
 13 11  1  0
 14 13  1  0
 15 13  1  0
 16 15  2  0
 17 16  1  0
 18 17  2  0
 19 18  1  0
 20 19  2  0
 20 15  1  0
  4 21  1  1
  6 22  1  0
  7 23  1  0
  8 24  1  0
  9 25  1  0
 10 26  1  0
 13 27  1  1
 16 28  1  0
 17 29  1  0
 18 30  1  0
 19 31  1  0
 20 32  1  0
M  END
>  <score>  (8) 
-8.261

$$$$
=
     RDKit          3D

 32 33  0  0  0  0  0  0  0  0999 V2000
    0.4680   63.4100   72.5160 C   0  0  0  0  0  0  0  0  0  0  0  0
    0.8420   64.1740   73.4000 O   0  0  0  0  0  0  0  0  0  0  0  0
    0.3690   65.5000   70.6330 Br  0  0  0  0  0  0  0  0  0  0  0  0
    0.6460   63.6020   71.0300 C   0  0  1  0  0  0  0  0  0  0  0  0
    1.9950   63.1600   70.5190 C   0  0  0  0  0  0  0  0  0  0  0  0
    2.1370   62.0930   69.6160 C   0  0  0  0  0  0  0  0  0  0  0  0
    3.3970   61.7190   69.1470 C   0  0  0  0  0  0  0  0  0  0  0  0
    4.5320   62.4060   69.5680 C   0  0  0  0  0  0  0  0  0  0  0  0
    4.4080   63.4700   70.4590 C   0  0  0  0  0  0  0  0  0  0  0  0
    3.1500   63.8470   70.9300 C   0  0  0  0  0  0  0  0  0  0  0  0
   -0.2110   62.1220   72.9260 C   0  0  0  0  0  0  0  0  0  0  0  0
   -1.3360   61.8970   72.4970 O   0  0  0  0  0  0  0  0  0  0  0  0
    0.5700   61.2820   73.9100 C   0  0  2  0  0  0  0  0  0  0  0  0
    0.9550   62.3470   75.5080 Br  0  0  0  0  0  0  0  0  0  0  0  0
    1.8570   60.7570   73.3230 C   0  0  0  0  0  0  0  0  0  0  0  0
    1.8190   59.6910   72.4100 C   0  0  0  0  0  0  0  0  0  0  0  0
    2.9940   59.2140   71.8260 C   0  0  0  0  0  0  0  0  0  0  0  0
    4.2200   59.7940   72.1440 C   0  0  0  0  0  0  0  0  0  0  0  0
    4.2730   60.8540   73.0450 C   0  0  0  0  0  0  0  0  0  0  0  0
    3.1010   61.3350   73.6300 C   0  0  0  0  0  0  0  0  0  0  0  0
   -0.0897   62.9659   70.5160 H   0  0  0  0  0  0  0  0  0  0  0  0
    1.2453   61.5465   69.2750 H   0  0  0  0  0  0  0  0  0  0  0  0
    3.4934   60.8793   68.4430 H   0  0  0  0  0  0  0  0  0  0  0  0
    5.5246   62.1096   69.1981 H   0  0  0  0  0  0  0  0  0  0  0  0
    5.3042   64.0141   70.7919 H   0  0  0  0  0  0  0  0  0  0  0  0
    3.0613   64.6907   71.6303 H   0  0  0  0  0  0  0  0  0  0  0  0
   -0.0480   60.4100   74.1702 H   0  0  0  0  0  0  0  0  0  0  0  0
    0.8551   59.2277   72.1526 H   0  0  0  0  0  0  0  0  0  0  0  0
    2.9516   58.3777   71.1127 H   0  0  0  0  0  0  0  0  0  0  0  0
    5.1446   59.4151   71.6840 H   0  0  0  0  0  0  0  0  0  0  0  0
    5.2405   61.3132   73.2962 H   0  0  0  0  0  0  0  0  0  0  0  0
    3.1511   62.1749   74.3385 H   0  0  0  0  0  0  0  0  0  0  0  0
  2  1  2  0
  4  3  1  0
  4  1  1  0
  5  4  1  0
  6  5  2  0
  7  6  1  0
  8  7  2  0
  9  8  1  0
 10  9  2  0
 10  5  1  0
 11  1  1  0
 12 11  2  0
 13 11  1  0
 14 13  1  0
 15 13  1  0
 16 15  2  0
 17 16  1  0
 18 17  2  0
 19 18  1  0
 20 19  2  0
 20 15  1  0
  4 21  1  6
  6 22  1  0
  7 23  1  0
  8 24  1  0
  9 25  1  0
 10 26  1  0
 13 27  1  1
 16 28  1  0
 17 29  1  0
 18 30  1  0
 19 31  1  0
 20 32  1  0
M  END
>  <score>  (9) 
-7.908

$$$$
