=
     RDKit          3D

 18 17  0  0  0  0  0  0  0  0999 V2000
    5.0870   70.4420   68.0830 C   0  0  0  0  0  0  0  0  0  0  0  0
    5.2100   69.6750   67.1350 O   0  0  0  0  0  0  0  0  0  0  0  0
    2.6670   69.8770   68.2970 C   0  0  0  0  0  0  0  0  0  0  0  0
    3.8870   70.4410   68.9980 C   0  0  0  0  0  0  0  0  0  0  0  0
    6.1700   71.4770   68.3610 C   0  0  0  0  0  0  0  0  0  0  0  0
    5.9760   72.6510   68.0690 O   0  0  0  0  0  0  0  0  0  0  0  0
    7.4340   70.9860   69.0220 C   0  0  0  0  0  0  0  0  0  0  0  0
    7.1600   70.4900   70.4270 C   0  0  0  0  0  0  0  0  0  0  0  0
    1.9366   69.5393   69.0470 H   0  0  0  0  0  0  0  0  0  0  0  0
    2.2127   70.6564   67.6677 H   0  0  0  0  0  0  0  0  0  0  0  0
    2.9664   69.0260   67.6677 H   0  0  0  0  0  0  0  0  0  0  0  0
    3.6749   71.4732   69.3136 H   0  0  0  0  0  0  0  0  0  0  0  0
    4.1126   69.8090   69.8696 H   0  0  0  0  0  0  0  0  0  0  0  0
    7.8539   70.1622   68.4261 H   0  0  0  0  0  0  0  0  0  0  0  0
    8.1446   71.8236   69.0805 H   0  0  0  0  0  0  0  0  0  0  0  0
    7.5588   71.2118   71.1550 H   0  0  0  0  0  0  0  0  0  0  0  0
    6.0750   70.3833   70.5731 H   0  0  0  0  0  0  0  0  0  0  0  0
    7.6473   69.5147   70.5731 H   0  0  0  0  0  0  0  0  0  0  0  0
  2  1  2  0
  4  3  1  0
  4  1  1  0
  5  1  1  0
  6  5  2  0
  7  5  1  0
  8  7  1  0
  3  9  1  0
  3 10  1  0
  3 11  1  0
  4 12  1  0
  4 13  1  0
  7 14  1  0
  7 15  1  0
  8 16  1  0
  8 17  1  0
  8 18  1  0
M  END
>  <score>  (1) 
-5.222

$$$$
=
     RDKit          3D

 18 17  0  0  0  0  0  0  0  0999 V2000
    4.6230   70.0110   67.3170 C   0  0  0  0  0  0  0  0  0  0  0  0
    3.4460   69.6710   67.3300 O   0  0  0  0  0  0  0  0  0  0  0  0
    4.7240   69.4430   64.8900 C   0  0  0  0  0  0  0  0  0  0  0  0
    5.5220   69.8350   66.1180 C   0  0  0  0  0  0  0  0  0  0  0  0
    5.2460   70.6210   68.5670 C   0  0  0  0  0  0  0  0  0  0  0  0
    4.6550   70.5440   69.6380 O   0  0  0  0  0  0  0  0  0  0  0  0
    6.5980   71.2720   68.4120 C   0  0  0  0  0  0  0  0  0  0  0  0
    7.5170   70.9020   69.5580 C   0  0  0  0  0  0  0  0  0  0  0  0
    3.7770   68.9778   65.2012 H   0  0  0  0  0  0  0  0  0  0  0  0
    4.5120   70.3395   64.2889 H   0  0  0  0  0  0  0  0  0  0  0  0
    5.3040   68.7272   64.2889 H   0  0  0  0  0  0  0  0  0  0  0  0
    6.2589   69.0474   66.3341 H   0  0  0  0  0  0  0  0  0  0  0  0
    6.0263   70.7915   65.9162 H   0  0  0  0  0  0  0  0  0  0  0  0
    7.0508   70.9386   67.4666 H   0  0  0  0  0  0  0  0  0  0  0  0
    6.4619   72.3635   68.4122 H   0  0  0  0  0  0  0  0  0  0  0  0
    7.0116   71.1055   70.5136 H   0  0  0  0  0  0  0  0  0  0  0  0
    7.7679   69.8328   69.4963 H   0  0  0  0  0  0  0  0  0  0  0  0
    8.4388   71.4991   69.4963 H   0  0  0  0  0  0  0  0  0  0  0  0
  2  1  2  0
  4  3  1  0
  4  1  1  0
  5  1  1  0
  6  5  2  0
  7  5  1  0
  8  7  1  0
  3  9  1  0
  3 10  1  0
  3 11  1  0
  4 12  1  0
  4 13  1  0
  7 14  1  0
  7 15  1  0
  8 16  1  0
  8 17  1  0
  8 18  1  0
M  END
>  <score>  (2) 
-5.15

$$$$
=
     RDKit          3D

 18 17  0  0  0  0  0  0  0  0999 V2000
    4.6560   70.6310   68.7240 C   0  0  0  0  0  0  0  0  0  0  0  0
    4.2240   70.6270   69.8700 O   0  0  0  0  0  0  0  0  0  0  0  0
    7.0950   70.8940   69.1770 C   0  0  0  0  0  0  0  0  0  0  0  0
    5.9260   71.3380   68.3200 C   0  0  0  0  0  0  0  0  0  0  0  0
    3.8810   69.9160   67.6230 C   0  0  0  0  0  0  0  0  0  0  0  0
    2.7240   69.5670   67.8260 O   0  0  0  0  0  0  0  0  0  0  0  0
    4.5930   69.7020   66.3110 C   0  0  0  0  0  0  0  0  0  0  0  0
    3.6460   69.1660   65.2560 C   0  0  0  0  0  0  0  0  0  0  0  0
    6.8297   70.9948   70.2398 H   0  0  0  0  0  0  0  0  0  0  0  0
    7.3329   69.8429   68.9565 H   0  0  0  0  0  0  0  0  0  0  0  0
    7.9707   71.5221   68.9565 H   0  0  0  0  0  0  0  0  0  0  0  0
    5.7861   72.4227   68.4375 H   0  0  0  0  0  0  0  0  0  0  0  0
    6.1466   71.0876   67.2719 H   0  0  0  0  0  0  0  0  0  0  0  0
    5.0080   70.6609   65.9671 H   0  0  0  0  0  0  0  0  0  0  0  0
    5.3957   68.9659   66.4657 H   0  0  0  0  0  0  0  0  0  0  0  0
    2.7887   68.6807   65.7454 H   0  0  0  0  0  0  0  0  0  0  0  0
    3.2886   69.9958   64.6285 H   0  0  0  0  0  0  0  0  0  0  0  0
    4.1734   68.4325   64.6285 H   0  0  0  0  0  0  0  0  0  0  0  0
  2  1  2  0
  4  3  1  0
  4  1  1  0
  5  1  1  0
  6  5  2  0
  7  5  1  0
  8  7  1  0
  3  9  1  0
  3 10  1  0
  3 11  1  0
  4 12  1  0
  4 13  1  0
  7 14  1  0
  7 15  1  0
  8 16  1  0
  8 17  1  0
  8 18  1  0
M  END
>  <score>  (3) 
-5.032

$$$$
=
     RDKit          3D

 18 17  0  0  0  0  0  0  0  0999 V2000
    2.7950   68.4980   61.8710 C   0  0  0  0  0  0  0  0  0  0  0  0
    2.9600   69.0290   60.7790 O   0  0  0  0  0  0  0  0  0  0  0  0
    0.4720   69.4060   61.9200 C   0  0  0  0  0  0  0  0  0  0  0  0
    1.5540   68.6920   62.7070 C   0  0  0  0  0  0  0  0  0  0  0  0
    3.8910   67.6140   62.4530 C   0  0  0  0  0  0  0  0  0  0  0  0
    4.2520   66.6150   61.8430 O   0  0  0  0  0  0  0  0  0  0  0  0
    4.4990   68.0490   63.7630 C   0  0  0  0  0  0  0  0  0  0  0  0
    5.1580   69.4080   63.6350 C   0  0  0  0  0  0  0  0  0  0  0  0
   -0.2388   69.8751   62.6162 H   0  0  0  0  0  0  0  0  0  0  0  0
    0.9297   70.1801   61.2865 H   0  0  0  0  0  0  0  0  0  0  0  0
   -0.0597   68.6808   61.2865 H   0  0  0  0  0  0  0  0  0  0  0  0
    1.8082   69.2913   63.5937 H   0  0  0  0  0  0  0  0  0  0  0  0
    1.1749   67.7032   63.0045 H   0  0  0  0  0  0  0  0  0  0  0  0
    3.7080   68.1038   64.5254 H   0  0  0  0  0  0  0  0  0  0  0  0
    5.2656   67.3152   64.0528 H   0  0  0  0  0  0  0  0  0  0  0  0
    5.3556   69.8155   64.6374 H   0  0  0  0  0  0  0  0  0  0  0  0
    6.1065   69.3055   63.0873 H   0  0  0  0  0  0  0  0  0  0  0  0
    4.4902   70.0892   63.0873 H   0  0  0  0  0  0  0  0  0  0  0  0
  2  1  2  0
  4  3  1  0
  4  1  1  0
  5  1  1  0
  6  5  2  0
  7  5  1  0
  8  7  1  0
  3  9  1  0
  3 10  1  0
  3 11  1  0
  4 12  1  0
  4 13  1  0
  7 14  1  0
  7 15  1  0
  8 16  1  0
  8 17  1  0
  8 18  1  0
M  END
>  <score>  (4) 
-4.53

$$$$
=
     RDKit          3D

 18 17  0  0  0  0  0  0  0  0999 V2000
    3.5610   69.5750   66.8500 C   0  0  0  0  0  0  0  0  0  0  0  0
    3.2220   69.2090   65.7310 O   0  0  0  0  0  0  0  0  0  0  0  0
    1.2260   69.1780   67.6320 C   0  0  0  0  0  0  0  0  0  0  0  0
    2.6030   69.6850   68.0110 C   0  0  0  0  0  0  0  0  0  0  0  0
    5.0100   69.9720   67.1060 C   0  0  0  0  0  0  0  0  0  0  0  0
    5.8680   69.7050   66.2740 O   0  0  0  0  0  0  0  0  0  0  0  0
    5.3010   70.7130   68.3880 C   0  0  0  0  0  0  0  0  0  0  0  0
    6.7930   70.8130   68.6340 C   0  0  0  0  0  0  0  0  0  0  0  0
    0.6495   68.9657   68.5444 H   0  0  0  0  0  0  0  0  0  0  0  0
    0.7042   69.9430   67.0382 H   0  0  0  0  0  0  0  0  0  0  0  0
    1.3249   68.2573   67.0382 H   0  0  0  0  0  0  0  0  0  0  0  0
    2.5265   70.7394   68.3150 H   0  0  0  0  0  0  0  0  0  0  0  0
    2.9858   69.0706   68.8393 H   0  0  0  0  0  0  0  0  0  0  0  0
    4.8793   71.7267   68.3206 H   0  0  0  0  0  0  0  0  0  0  0  0
    4.8457   70.1594   69.2224 H   0  0  0  0  0  0  0  0  0  0  0  0
    6.9860   70.8259   69.7169 H   0  0  0  0  0  0  0  0  0  0  0  0
    7.2980   69.9467   68.1819 H   0  0  0  0  0  0  0  0  0  0  0  0
    7.1779   71.7390   68.1819 H   0  0  0  0  0  0  0  0  0  0  0  0
  2  1  2  0
  4  3  1  0
  4  1  1  0
  5  1  1  0
  6  5  2  0
  7  5  1  0
  8  7  1  0
  3  9  1  0
  3 10  1  0
  3 11  1  0
  4 12  1  0
  4 13  1  0
  7 14  1  0
  7 15  1  0
  8 16  1  0
  8 17  1  0
  8 18  1  0
M  END
>  <score>  (5) 
-4.463

$$$$
=
     RDKit          3D

 18 17  0  0  0  0  0  0  0  0999 V2000
    4.3130   65.4370   63.6290 C   0  0  0  0  0  0  0  0  0  0  0  0
    5.1390   64.6610   63.1630 O   0  0  0  0  0  0  0  0  0  0  0  0
    3.7260   63.7970   65.4140 C   0  0  0  0  0  0  0  0  0  0  0  0
    3.2840   65.0340   64.6560 C   0  0  0  0  0  0  0  0  0  0  0  0
    4.2810   66.8830   63.1470 C   0  0  0  0  0  0  0  0  0  0  0  0
    3.7990   67.1460   62.0510 O   0  0  0  0  0  0  0  0  0  0  0  0
    4.8320   67.9300   64.0810 C   0  0  0  0  0  0  0  0  0  0  0  0
    3.8230   69.0350   64.3200 C   0  0  0  0  0  0  0  0  0  0  0  0
    3.6584   63.9861   66.4955 H   0  0  0  0  0  0  0  0  0  0  0  0
    3.0743   62.9517   65.1481 H   0  0  0  0  0  0  0  0  0  0  0  0
    4.7658   63.5561   65.1481 H   0  0  0  0  0  0  0  0  0  0  0  0
    2.3319   64.8227   64.1472 H   0  0  0  0  0  0  0  0  0  0  0  0
    3.1637   65.8593   65.3732 H   0  0  0  0  0  0  0  0  0  0  0  0
    5.0817   67.4577   65.0425 H   0  0  0  0  0  0  0  0  0  0  0  0
    5.7291   68.3702   63.6212 H   0  0  0  0  0  0  0  0  0  0  0  0
    3.6891   69.1816   65.4019 H   0  0  0  0  0  0  0  0  0  0  0  0
    4.1869   69.9684   63.8658 H   0  0  0  0  0  0  0  0  0  0  0  0
    2.8605   68.7572   63.8658 H   0  0  0  0  0  0  0  0  0  0  0  0
  2  1  2  0
  4  3  1  0
  4  1  1  0
  5  1  1  0
  6  5  2  0
  7  5  1  0
  8  7  1  0
  3  9  1  0
  3 10  1  0
  3 11  1  0
  4 12  1  0
  4 13  1  0
  7 14  1  0
  7 15  1  0
  8 16  1  0
  8 17  1  0
  8 18  1  0
M  END
>  <score>  (6) 
-4.447

$$$$
=
     RDKit          3D

 18 17  0  0  0  0  0  0  0  0999 V2000
    3.5500   62.0990   69.6020 C   0  0  0  0  0  0  0  0  0  0  0  0
    2.6430   61.9990   68.7850 O   0  0  0  0  0  0  0  0  0  0  0  0
    2.7450   64.2060   70.6660 C   0  0  0  0  0  0  0  0  0  0  0  0
    3.9590   63.4080   70.2310 C   0  0  0  0  0  0  0  0  0  0  0  0
    4.3440   60.8600   70.0030 C   0  0  0  0  0  0  0  0  0  0  0  0
    4.1420   59.7980   69.4260 O   0  0  0  0  0  0  0  0  0  0  0  0
    5.3730   61.0280   71.0930 C   0  0  0  0  0  0  0  0  0  0  0  0
    4.8170   60.6080   72.4390 C   0  0  0  0  0  0  0  0  0  0  0  0
    2.7001   64.2355   71.7647 H   0  0  0  0  0  0  0  0  0  0  0  0
    2.8205   65.2312   70.2744 H   0  0  0  0  0  0  0  0  0  0  0  0
    1.8338   63.7301   70.2744 H   0  0  0  0  0  0  0  0  0  0  0  0
    4.5317   63.9955   69.4983 H   0  0  0  0  0  0  0  0  0  0  0  0
    4.5729   63.1933   71.1181 H   0  0  0  0  0  0  0  0  0  0  0  0
    6.2502   60.4075   70.8574 H   0  0  0  0  0  0  0  0  0  0  0  0
    5.6535   62.0902   71.1474 H   0  0  0  0  0  0  0  0  0  0  0  0
    5.4174   61.0615   73.2414 H   0  0  0  0  0  0  0  0  0  0  0  0
    3.7737   60.9455   72.5262 H   0  0  0  0  0  0  0  0  0  0  0  0
    4.8564   59.5122   72.5262 H   0  0  0  0  0  0  0  0  0  0  0  0
  2  1  2  0
  4  3  1  0
  4  1  1  0
  5  1  1  0
  6  5  2  0
  7  5  1  0
  8  7  1  0
  3  9  1  0
  3 10  1  0
  3 11  1  0
  4 12  1  0
  4 13  1  0
  7 14  1  0
  7 15  1  0
  8 16  1  0
  8 17  1  0
  8 18  1  0
M  END
>  <score>  (7) 
-4.392

$$$$
=
     RDKit          3D

 18 17  0  0  0  0  0  0  0  0999 V2000
    4.7210   60.3750   71.1450 C   0  0  0  0  0  0  0  0  0  0  0  0
    5.8930   60.7120   71.0240 O   0  0  0  0  0  0  0  0  0  0  0  0
    3.7500   61.3840   73.2100 C   0  0  0  0  0  0  0  0  0  0  0  0
    4.0730   60.0950   72.4780 C   0  0  0  0  0  0  0  0  0  0  0  0
    3.8560   60.1960   69.9030 C   0  0  0  0  0  0  0  0  0  0  0  0
    3.9160   59.1500   69.2680 O   0  0  0  0  0  0  0  0  0  0  0  0
    2.9360   61.3340   69.5380 C   0  0  0  0  0  0  0  0  0  0  0  0
    3.6890   62.4380   68.8220 C   0  0  0  0  0  0  0  0  0  0  0  0
    3.7936   61.2101   74.2953 H   0  0  0  0  0  0  0  0  0  0  0  0
    4.4823   62.1565   72.9327 H   0  0  0  0  0  0  0  0  0  0  0  0
    2.7399   61.7199   72.9327 H   0  0  0  0  0  0  0  0  0  0  0  0
    4.7604   59.4954   73.0927 H   0  0  0  0  0  0  0  0  0  0  0  0
    3.1346   59.5485   72.3023 H   0  0  0  0  0  0  0  0  0  0  0  0
    2.1409   60.9556   68.8787 H   0  0  0  0  0  0  0  0  0  0  0  0
    2.5079   61.7470   70.4633 H   0  0  0  0  0  0  0  0  0  0  0  0
    4.1471   63.1096   69.5630 H   0  0  0  0  0  0  0  0  0  0  0  0
    4.4751   61.9966   68.1918 H   0  0  0  0  0  0  0  0  0  0  0  0
    2.9911   63.0088   68.1918 H   0  0  0  0  0  0  0  0  0  0  0  0
  2  1  2  0
  4  3  1  0
  4  1  1  0
  5  1  1  0
  6  5  2  0
  7  5  1  0
  8  7  1  0
  3  9  1  0
  3 10  1  0
  3 11  1  0
  4 12  1  0
  4 13  1  0
  7 14  1  0
  7 15  1  0
  8 16  1  0
  8 17  1  0
  8 18  1  0
M  END
>  <score>  (8) 
-4.392

$$$$
=
     RDKit          3D

 18 17  0  0  0  0  0  0  0  0999 V2000
    4.1570   69.1200   63.7230 C   0  0  0  0  0  0  0  0  0  0  0  0
    5.2150   69.4890   63.2260 O   0  0  0  0  0  0  0  0  0  0  0  0
    5.0530   69.7490   65.9630 C   0  0  0  0  0  0  0  0  0  0  0  0
    3.8660   69.1940   65.2010 C   0  0  0  0  0  0  0  0  0  0  0  0
    3.0720   68.5260   62.8320 C   0  0  0  0  0  0  0  0  0  0  0  0
    3.3140   68.2960   61.6530 O   0  0  0  0  0  0  0  0  0  0  0  0
    1.7440   68.2240   63.4780 C   0  0  0  0  0  0  0  0  0  0  0  0
    0.6430   69.0880   62.8960 C   0  0  0  0  0  0  0  0  0  0  0  0
    4.8679   69.6624   67.0438 H   0  0  0  0  0  0  0  0  0  0  0  0
    5.9567   69.1801   65.6991 H   0  0  0  0  0  0  0  0  0  0  0  0
    5.1959   70.8073   65.6991 H   0  0  0  0  0  0  0  0  0  0  0  0
    3.6399   68.1841   65.5738 H   0  0  0  0  0  0  0  0  0  0  0  0
    3.0072   69.8639   65.3552 H   0  0  0  0  0  0  0  0  0  0  0  0
    1.4959   67.1655   63.3107 H   0  0  0  0  0  0  0  0  0  0  0  0
    1.8231   68.4381   64.5541 H   0  0  0  0  0  0  0  0  0  0  0  0
    0.0634   69.5428   63.7128 H   0  0  0  0  0  0  0  0  0  0  0  0
    1.0878   69.8807   62.2764 H   0  0  0  0  0  0  0  0  0  0  0  0
   -0.0212   68.4675   62.2764 H   0  0  0  0  0  0  0  0  0  0  0  0
  2  1  2  0
  4  3  1  0
  4  1  1  0
  5  1  1  0
  6  5  2  0
  7  5  1  0
  8  7  1  0
  3  9  1  0
  3 10  1  0
  3 11  1  0
  4 12  1  0
  4 13  1  0
  7 14  1  0
  7 15  1  0
  8 16  1  0
  8 17  1  0
  8 18  1  0
M  END
>  <score>  (9) 
-4.319

$$$$
