=
     RDKit          3D

 29 30  0  0  0  0  0  0  0  0999 V2000
    1.6830   69.5350   67.7180 N   0  0  0  0  0  0  0  0  0  0  0  0
    2.9970   69.6140   67.1810 C   0  0  0  0  0  0  0  0  0  0  0  0
    3.2910   69.1420   65.8880 C   0  0  0  0  0  0  0  0  0  0  0  0
    2.0760   68.4730   64.8540 Cl  0  0  0  0  0  0  0  0  0  0  0  0
    4.5920   69.1950   65.3820 C   0  0  0  0  0  0  0  0  0  0  0  0
    5.6290   69.7130   66.1550 C   0  0  0  0  0  0  0  0  0  0  0  0
    5.3790   70.1870   67.4500 C   0  0  0  0  0  0  0  0  0  0  0  0
    4.0610   70.1310   67.9560 C   0  0  0  0  0  0  0  0  0  0  0  0
    3.7520   70.7290   69.5630 Cl  0  0  0  0  0  0  0  0  0  0  0  0
    6.5200   70.7410   68.2570 C   0  0  0  0  0  0  0  0  0  0  0  0
   -0.2000   67.9400   67.8060 C   0  0  0  0  0  0  0  0  0  0  0  0
   -0.7890   66.8050   68.4030 C   0  0  0  0  0  0  0  0  0  0  0  0
   -0.1330   66.0850   69.4020 C   0  0  0  0  0  0  0  0  0  0  0  0
    1.1240   66.4910   69.8310 C   0  0  0  0  0  0  0  0  0  0  0  0
    1.7250   67.6140   69.2590 C   0  0  0  0  0  0  0  0  0  0  0  0
    1.0890   68.3400   68.2360 C   0  0  0  0  0  0  0  0  0  0  0  0
   -1.2230   68.0120   65.6460 O   0  0  0  0  0  1  0  0  0  0  0  0
   -0.9510   68.6650   66.7040 C   0  0  0  0  0  0  0  0  0  0  0  0
   -1.2430   69.8900   66.9130 O   0  0  0  0  0  0  0  0  0  0  0  0
    1.1196   70.3971   67.7355 H   0  0  0  0  0  0  0  0  0  0  0  0
    4.7990   68.8254   64.3668 H   0  0  0  0  0  0  0  0  0  0  0  0
    6.6497   69.7501   65.7466 H   0  0  0  0  0  0  0  0  0  0  0  0
    6.2975   70.6330   69.3288 H   0  0  0  0  0  0  0  0  0  0  0  0
    7.4410   70.1898   68.0163 H   0  0  0  0  0  0  0  0  0  0  0  0
    6.6564   71.8056   68.0163 H   0  0  0  0  0  0  0  0  0  0  0  0
   -1.7872   66.4808   68.0735 H   0  0  0  0  0  0  0  0  0  0  0  0
   -0.6094   65.1995   69.8480 H   0  0  0  0  0  0  0  0  0  0  0  0
    1.6451   65.9289   70.6200 H   0  0  0  0  0  0  0  0  0  0  0  0
    2.7144   67.9369   69.6151 H   0  0  0  0  0  0  0  0  0  0  0  0
  2  1  1  0
  3  2  2  0
  4  3  1  0
  5  3  1  0
  6  5  2  0
  7  6  1  0
  8  7  2  0
  8  2  1  0
  9  8  1  0
 10  7  1  0
 12 11  2  0
 13 12  1  0
 14 13  2  0
 15 14  1  0
 16 15  2  0
 16 11  1  0
 16  1  1  0
 18 17  1  0
 18 11  1  0
 19 18  2  0
  1 20  1  0
  5 21  1  0
  6 22  1  0
 10 23  1  0
 10 24  1  0
 10 25  1  0
 12 26  1  0
 13 27  1  0
 14 28  1  0
 15 29  1  0
M  CHG  1  17  -1
M  END
>  <score>  (1) 
-9.538

$$$$
=
     RDKit          3D

 29 30  0  0  0  0  0  0  0  0999 V2000
    1.6040   69.5490   67.5000 N   0  0  0  0  0  0  0  0  0  0  0  0
    2.9700   69.6130   67.1090 C   0  0  0  0  0  0  0  0  0  0  0  0
    3.9560   70.1280   67.9700 C   0  0  0  0  0  0  0  0  0  0  0  0
    3.5870   70.6780   69.5680 Cl  0  0  0  0  0  0  0  0  0  0  0  0
    5.2900   70.2170   67.5630 C   0  0  0  0  0  0  0  0  0  0  0  0
    5.6680   69.8010   66.2880 C   0  0  0  0  0  0  0  0  0  0  0  0
    4.7140   69.2900   65.3980 C   0  0  0  0  0  0  0  0  0  0  0  0
    3.3670   69.2010   65.8150 C   0  0  0  0  0  0  0  0  0  0  0  0
    2.1860   68.5560   64.7100 Cl  0  0  0  0  0  0  0  0  0  0  0  0
    5.1550   68.8480   64.0300 C   0  0  0  0  0  0  0  0  0  0  0  0
   -0.3290   68.0150   67.5790 C   0  0  0  0  0  0  0  0  0  0  0  0
   -0.9640   66.9080   68.1830 C   0  0  0  0  0  0  0  0  0  0  0  0
   -0.3480   66.1840   69.2030 C   0  0  0  0  0  0  0  0  0  0  0  0
    0.9140   66.5570   69.6480 C   0  0  0  0  0  0  0  0  0  0  0  0
    1.5590   67.6520   69.0700 C   0  0  0  0  0  0  0  0  0  0  0  0
    0.9640   68.3820   68.0260 C   0  0  0  0  0  0  0  0  0  0  0  0
   -1.4910   69.9100   66.6980 O   0  0  0  0  0  1  0  0  0  0  0  0
   -1.0380   68.7460   66.4530 C   0  0  0  0  0  0  0  0  0  0  0  0
   -1.1420   68.1300   65.3400 O   0  0  0  0  0  0  0  0  0  0  0  0
    1.0358   70.4020   67.3974 H   0  0  0  0  0  0  0  0  0  0  0  0
    6.0464   70.6180   68.2536 H   0  0  0  0  0  0  0  0  0  0  0  0
    6.7210   69.8741   65.9785 H   0  0  0  0  0  0  0  0  0  0  0  0
    5.9289   68.0723   64.1271 H   0  0  0  0  0  0  0  0  0  0  0  0
    4.2935   68.4398   63.4811 H   0  0  0  0  0  0  0  0  0  0  0  0
    5.5651   69.7085   63.4811 H   0  0  0  0  0  0  0  0  0  0  0  0
   -1.9664   66.6103   67.8415 H   0  0  0  0  0  0  0  0  0  0  0  0
   -0.8594   65.3207   69.6537 H   0  0  0  0  0  0  0  0  0  0  0  0
    1.4040   65.9909   70.4539 H   0  0  0  0  0  0  0  0  0  0  0  0
    2.5519   67.9494   69.4385 H   0  0  0  0  0  0  0  0  0  0  0  0
  2  1  1  0
  3  2  2  0
  4  3  1  0
  5  3  1  0
  6  5  2  0
  7  6  1  0
  8  7  2  0
  8  2  1  0
  9  8  1  0
 10  7  1  0
 12 11  2  0
 13 12  1  0
 14 13  2  0
 15 14  1  0
 16 15  2  0
 16 11  1  0
 16  1  1  0
 18 17  1  0
 18 11  1  0
 19 18  2  0
  1 20  1  0
  5 21  1  0
  6 22  1  0
 10 23  1  0
 10 24  1  0
 10 25  1  0
 12 26  1  0
 13 27  1  0
 14 28  1  0
 15 29  1  0
M  CHG  1  17  -1
M  END
>  <score>  (2) 
-9.42

$$$$
=
     RDKit          3D

 29 30  0  0  0  0  0  0  0  0999 V2000
    2.9480   68.6050   64.8760 N   0  0  0  0  0  0  0  0  0  0  0  0
    3.0470   69.1160   66.1980 C   0  0  0  0  0  0  0  0  0  0  0  0
    1.9370   69.1350   67.0630 C   0  0  0  0  0  0  0  0  0  0  0  0
    0.3960   68.5050   66.5950 Cl  0  0  0  0  0  0  0  0  0  0  0  0
    2.0370   69.6710   68.3500 C   0  0  0  0  0  0  0  0  0  0  0  0
    3.2430   70.2040   68.8000 C   0  0  0  0  0  0  0  0  0  0  0  0
    4.3700   70.2110   67.9660 C   0  0  0  0  0  0  0  0  0  0  0  0
    4.2630   69.6680   66.6670 C   0  0  0  0  0  0  0  0  0  0  0  0
    5.6680   69.6700   65.6370 Cl  0  0  0  0  0  0  0  0  0  0  0  0
    5.6560   70.7940   68.4840 C   0  0  0  0  0  0  0  0  0  0  0  0
    4.1490   67.1340   63.2970 C   0  0  0  0  0  0  0  0  0  0  0  0
    4.4830   65.8260   62.8870 C   0  0  0  0  0  0  0  0  0  0  0  0
    4.0670   64.7080   63.6100 C   0  0  0  0  0  0  0  0  0  0  0  0
    3.3000   64.8760   64.7570 C   0  0  0  0  0  0  0  0  0  0  0  0
    2.9520   66.1610   65.1790 C   0  0  0  0  0  0  0  0  0  0  0  0
    3.3800   67.3010   64.4740 C   0  0  0  0  0  0  0  0  0  0  0  0
    5.9070   68.5400   62.4900 O   0  0  0  0  0  1  0  0  0  0  0  0
    4.6550   68.3130   62.4830 C   0  0  0  0  0  0  0  0  0  0  0  0
    3.7810   69.0020   61.8600 O   0  0  0  0  0  0  0  0  0  0  0  0
    2.5363   69.2160   64.1562 H   0  0  0  0  0  0  0  0  0  0  0  0
    1.1582   69.6720   69.0116 H   0  0  0  0  0  0  0  0  0  0  0  0
    3.3114   70.6217   69.8153 H   0  0  0  0  0  0  0  0  0  0  0  0
    5.6442   70.7886   69.5839 H   0  0  0  0  0  0  0  0  0  0  0  0
    6.5030   70.1919   68.1235 H   0  0  0  0  0  0  0  0  0  0  0  0
    5.7613   71.8279   68.1235 H   0  0  0  0  0  0  0  0  0  0  0  0
    5.0848   65.6847   61.9771 H   0  0  0  0  0  0  0  0  0  0  0  0
    4.3446   63.6980   63.2740 H   0  0  0  0  0  0  0  0  0  0  0  0
    2.9678   63.9985   65.3312 H   0  0  0  0  0  0  0  0  0  0  0  0
    2.3319   66.2842   66.0791 H   0  0  0  0  0  0  0  0  0  0  0  0
  2  1  1  0
  3  2  2  0
  4  3  1  0
  5  3  1  0
  6  5  2  0
  7  6  1  0
  8  7  2  0
  8  2  1  0
  9  8  1  0
 10  7  1  0
 12 11  2  0
 13 12  1  0
 14 13  2  0
 15 14  1  0
 16 15  2  0
 16 11  1  0
 16  1  1  0
 18 17  1  0
 18 11  1  0
 19 18  2  0
  1 20  1  0
  5 21  1  0
  6 22  1  0
 10 23  1  0
 10 24  1  0
 10 25  1  0
 12 26  1  0
 13 27  1  0
 14 28  1  0
 15 29  1  0
M  CHG  1  17  -1
M  END
>  <score>  (3) 
-8.986

$$$$
=
     RDKit          3D

 29 30  0  0  0  0  0  0  0  0999 V2000
    2.4560   68.1460   65.3100 N   0  0  0  0  0  0  0  0  0  0  0  0
    3.4590   68.9100   65.9670 C   0  0  0  0  0  0  0  0  0  0  0  0
    4.7470   69.0550   65.4200 C   0  0  0  0  0  0  0  0  0  0  0  0
    5.1860   68.3530   63.9010 Cl  0  0  0  0  0  0  0  0  0  0  0  0
    5.7360   69.7800   66.0900 C   0  0  0  0  0  0  0  0  0  0  0  0
    5.4640   70.3710   67.3220 C   0  0  0  0  0  0  0  0  0  0  0  0
    4.1960   70.2430   67.9050 C   0  0  0  0  0  0  0  0  0  0  0  0
    3.2000   69.5090   67.2230 C   0  0  0  0  0  0  0  0  0  0  0  0
    1.6220   69.3600   67.9450 Cl  0  0  0  0  0  0  0  0  0  0  0  0
    3.9350   70.8940   69.2350 C   0  0  0  0  0  0  0  0  0  0  0  0
    0.2500   68.6910   64.3420 C   0  0  0  0  0  0  0  0  0  0  0  0
   -0.5070   69.0790   63.2170 C   0  0  0  0  0  0  0  0  0  0  0  0
    0.1010   69.3820   61.9990 C   0  0  0  0  0  0  0  0  0  0  0  0
    1.4820   69.2950   61.8790 C   0  0  0  0  0  0  0  0  0  0  0  0
    2.2530   68.9080   62.9770 C   0  0  0  0  0  0  0  0  0  0  0  0
    1.6590   68.6190   64.2190 C   0  0  0  0  0  0  0  0  0  0  0  0
   -1.1780   69.3290   66.1510 O   0  0  0  0  0  1  0  0  0  0  0  0
   -0.4670   68.4010   65.6490 C   0  0  0  0  0  0  0  0  0  0  0  0
   -0.2920   67.2450   66.1600 O   0  0  0  0  0  0  0  0  0  0  0  0
    2.2913   67.1851   65.6422 H   0  0  0  0  0  0  0  0  0  0  0  0
    6.7352   69.8847   65.6421 H   0  0  0  0  0  0  0  0  0  0  0  0
    6.2490   70.9414   67.8401 H   0  0  0  0  0  0  0  0  0  0  0  0
    4.2127   70.2013   70.0431 H   0  0  0  0  0  0  0  0  0  0  0  0
    4.5343   71.8127   69.3175 H   0  0  0  0  0  0  0  0  0  0  0  0
    2.8670   71.1443   69.3175 H   0  0  0  0  0  0  0  0  0  0  0  0
   -1.6018   69.1441   63.3022 H   0  0  0  0  0  0  0  0  0  0  0  0
   -0.5103   69.6885   61.1374 H   0  0  0  0  0  0  0  0  0  0  0  0
    1.9676   69.5306   60.9205 H   0  0  0  0  0  0  0  0  0  0  0  0
    3.3447   68.8277   62.8688 H   0  0  0  0  0  0  0  0  0  0  0  0
  2  1  1  0
  3  2  2  0
  4  3  1  0
  5  3  1  0
  6  5  2  0
  7  6  1  0
  8  7  2  0
  8  2  1  0
  9  8  1  0
 10  7  1  0
 12 11  2  0
 13 12  1  0
 14 13  2  0
 15 14  1  0
 16 15  2  0
 16 11  1  0
 16  1  1  0
 18 17  1  0
 18 11  1  0
 19 18  2  0
  1 20  1  0
  5 21  1  0
  6 22  1  0
 10 23  1  0
 10 24  1  0
 10 25  1  0
 12 26  1  0
 13 27  1  0
 14 28  1  0
 15 29  1  0
M  CHG  1  17  -1
M  END
>  <score>  (4) 
-8.977

$$$$
=
     RDKit          3D

 29 30  0  0  0  0  0  0  0  0999 V2000
    3.0510   68.0190   64.4330 N   0  0  0  0  0  0  0  0  0  0  0  0
    3.7410   68.8370   65.3680 C   0  0  0  0  0  0  0  0  0  0  0  0
    4.9900   69.4100   65.0610 C   0  0  0  0  0  0  0  0  0  0  0  0
    5.7470   69.1940   63.5210 Cl  0  0  0  0  0  0  0  0  0  0  0  0
    5.6760   70.1850   66.0000 C   0  0  0  0  0  0  0  0  0  0  0  0
    5.1360   70.4000   67.2670 C   0  0  0  0  0  0  0  0  0  0  0  0
    3.8990   69.8410   67.6140 C   0  0  0  0  0  0  0  0  0  0  0  0
    3.2090   69.0580   66.6610 C   0  0  0  0  0  0  0  0  0  0  0  0
    1.6680   68.3720   67.0920 Cl  0  0  0  0  0  0  0  0  0  0  0  0
    3.3440   70.0940   68.9880 C   0  0  0  0  0  0  0  0  0  0  0  0
    2.0180   68.6900   62.2930 C   0  0  0  0  0  0  0  0  0  0  0  0
    0.8890   69.1800   61.6020 C   0  0  0  0  0  0  0  0  0  0  0  0
   -0.3180   69.4190   62.2590 C   0  0  0  0  0  0  0  0  0  0  0  0
   -0.4180   69.1810   63.6240 C   0  0  0  0  0  0  0  0  0  0  0  0
    0.6870   68.7010   64.3290 C   0  0  0  0  0  0  0  0  0  0  0  0
    1.9060   68.4340   63.6810 C   0  0  0  0  0  0  0  0  0  0  0  0
    3.8480   67.2850   61.6630 O   0  0  0  0  0  1  0  0  0  0  0  0
    3.2960   68.4220   61.5170 C   0  0  0  0  0  0  0  0  0  0  0  0
    3.7350   69.3690   60.7820 O   0  0  0  0  0  0  0  0  0  0  0  0
    3.3991   67.0608   64.2862 H   0  0  0  0  0  0  0  0  0  0  0  0
    6.6480   70.6281   65.7377 H   0  0  0  0  0  0  0  0  0  0  0  0
    5.6841   71.0120   67.9985 H   0  0  0  0  0  0  0  0  0  0  0  0
    4.0711   69.7625   69.7439 H   0  0  0  0  0  0  0  0  0  0  0  0
    3.1499   71.1695   69.1127 H   0  0  0  0  0  0  0  0  0  0  0  0
    2.4048   69.5351   69.1127 H   0  0  0  0  0  0  0  0  0  0  0  0
    0.9626   69.3776   60.5224 H   0  0  0  0  0  0  0  0  0  0  0  0
   -1.1870   69.7943   61.6987 H   0  0  0  0  0  0  0  0  0  0  0  0
   -1.3663   69.3705   64.1483 H   0  0  0  0  0  0  0  0  0  0  0  0
    0.6026   68.5283   65.4121 H   0  0  0  0  0  0  0  0  0  0  0  0
  2  1  1  0
  3  2  2  0
  4  3  1  0
  5  3  1  0
  6  5  2  0
  7  6  1  0
  8  7  2  0
  8  2  1  0
  9  8  1  0
 10  7  1  0
 12 11  2  0
 13 12  1  0
 14 13  2  0
 15 14  1  0
 16 15  2  0
 16 11  1  0
 16  1  1  0
 18 17  1  0
 18 11  1  0
 19 18  2  0
  1 20  1  0
  5 21  1  0
  6 22  1  0
 10 23  1  0
 10 24  1  0
 10 25  1  0
 12 26  1  0
 13 27  1  0
 14 28  1  0
 15 29  1  0
M  CHG  1  17  -1
M  END
>  <score>  (5) 
-8.735

$$$$
=
     RDKit          3D

 29 30  0  0  0  0  0  0  0  0999 V2000
    2.5670   67.8190   64.7500 N   0  0  0  0  0  0  0  0  0  0  0  0
    2.7590   68.4800   65.9930 C   0  0  0  0  0  0  0  0  0  0  0  0
    1.7920   68.4190   67.0140 C   0  0  0  0  0  0  0  0  0  0  0  0
    0.3300   67.5090   66.8430 Cl  0  0  0  0  0  0  0  0  0  0  0  0
    1.9760   69.0990   68.2200 C   0  0  0  0  0  0  0  0  0  0  0  0
    3.1240   69.8600   68.4330 C   0  0  0  0  0  0  0  0  0  0  0  0
    4.1070   69.9520   67.4390 C   0  0  0  0  0  0  0  0  0  0  0  0
    3.9160   69.2620   66.2210 C   0  0  0  0  0  0  0  0  0  0  0  0
    5.1440   69.3710   64.9910 Cl  0  0  0  0  0  0  0  0  0  0  0  0
    5.3340   70.7810   67.7010 C   0  0  0  0  0  0  0  0  0  0  0  0
    2.4970   68.4860   62.3730 C   0  0  0  0  0  0  0  0  0  0  0  0
    1.8010   69.1180   61.3210 C   0  0  0  0  0  0  0  0  0  0  0  0
    0.5180   69.6340   61.5030 C   0  0  0  0  0  0  0  0  0  0  0  0
   -0.0940   69.5350   62.7460 C   0  0  0  0  0  0  0  0  0  0  0  0
    0.5770   68.9190   63.8040 C   0  0  0  0  0  0  0  0  0  0  0  0
    1.8630   68.3750   63.6340 C   0  0  0  0  0  0  0  0  0  0  0  0
    4.0240   66.6570   62.1740 O   0  0  0  0  0  1  0  0  0  0  0  0
    3.8800   67.9190   62.1060 C   0  0  0  0  0  0  0  0  0  0  0  0
    4.8070   68.7570   61.8450 O   0  0  0  0  0  0  0  0  0  0  0  0
    2.9619   66.8736   64.6443 H   0  0  0  0  0  0  0  0  0  0  0  0
    1.2100   69.0335   69.0067 H   0  0  0  0  0  0  0  0  0  0  0  0
    3.2590   70.3913   69.3867 H   0  0  0  0  0  0  0  0  0  0  0  0
    5.4835   70.8820   68.7861 H   0  0  0  0  0  0  0  0  0  0  0  0
    6.2108   70.2895   67.2543 H   0  0  0  0  0  0  0  0  0  0  0  0
    5.2052   71.7779   67.2543 H   0  0  0  0  0  0  0  0  0  0  0  0
    2.2810   69.2058   60.3351 H   0  0  0  0  0  0  0  0  0  0  0  0
   -0.0069   70.1173   60.6658 H   0  0  0  0  0  0  0  0  0  0  0  0
   -1.1052   69.9411   62.8964 H   0  0  0  0  0  0  0  0  0  0  0  0
    0.0910   68.8579   64.7889 H   0  0  0  0  0  0  0  0  0  0  0  0
  2  1  1  0
  3  2  2  0
  4  3  1  0
  5  3  1  0
  6  5  2  0
  7  6  1  0
  8  7  2  0
  8  2  1  0
  9  8  1  0
 10  7  1  0
 12 11  2  0
 13 12  1  0
 14 13  2  0
 15 14  1  0
 16 15  2  0
 16 11  1  0
 16  1  1  0
 18 17  1  0
 18 11  1  0
 19 18  2  0
  1 20  1  0
  5 21  1  0
  6 22  1  0
 10 23  1  0
 10 24  1  0
 10 25  1  0
 12 26  1  0
 13 27  1  0
 14 28  1  0
 15 29  1  0
M  CHG  1  17  -1
M  END
>  <score>  (6) 
-8.712

$$$$
=
     RDKit          3D

 29 30  0  0  0  0  0  0  0  0999 V2000
    2.3330   67.7120   65.1750 N   0  0  0  0  0  0  0  0  0  0  0  0
    2.3460   68.1040   63.8080 C   0  0  0  0  0  0  0  0  0  0  0  0
    3.4730   67.8910   62.9940 C   0  0  0  0  0  0  0  0  0  0  0  0
    4.8980   67.1060   63.5810 Cl  0  0  0  0  0  0  0  0  0  0  0  0
    3.4860   68.3110   61.6610 C   0  0  0  0  0  0  0  0  0  0  0  0
    2.3800   68.9570   61.1140 C   0  0  0  0  0  0  0  0  0  0  0  0
    1.2410   69.1950   61.8940 C   0  0  0  0  0  0  0  0  0  0  0  0
    1.2320   68.7680   63.2410 C   0  0  0  0  0  0  0  0  0  0  0  0
   -0.1890   69.0570   64.2050 Cl  0  0  0  0  0  0  0  0  0  0  0  0
    0.0630   69.8930   61.2720 C   0  0  0  0  0  0  0  0  0  0  0  0
    1.9870   68.7790   67.3740 C   0  0  0  0  0  0  0  0  0  0  0  0
    2.4640   69.6480   68.3790 C   0  0  0  0  0  0  0  0  0  0  0  0
    3.7190   70.2490   68.2860 C   0  0  0  0  0  0  0  0  0  0  0  0
    4.5210   70.0000   67.1790 C   0  0  0  0  0  0  0  0  0  0  0  0
    4.0680   69.1490   66.1690 C   0  0  0  0  0  0  0  0  0  0  0  0
    2.8150   68.5170   66.2550 C   0  0  0  0  0  0  0  0  0  0  0  0
    0.5750   66.8620   67.5900 O   0  0  0  0  0  1  0  0  0  0  0  0
    0.6230   68.1320   67.5460 C   0  0  0  0  0  0  0  0  0  0  0  0
   -0.3820   68.9150   67.6190 O   0  0  0  0  0  0  0  0  0  0  0  0
    1.9498   66.7836   65.4035 H   0  0  0  0  0  0  0  0  0  0  0  0
    4.3756   68.1301   61.0398 H   0  0  0  0  0  0  0  0  0  0  0  0
    2.4010   69.2822   60.0634 H   0  0  0  0  0  0  0  0  0  0  0  0
   -0.5932   70.2818   62.0646 H   0  0  0  0  0  0  0  0  0  0  0  0
    0.4181   70.7265   60.6482 H   0  0  0  0  0  0  0  0  0  0  0  0
   -0.4975   69.1812   60.6482 H   0  0  0  0  0  0  0  0  0  0  0  0
    1.8318   69.8557   69.2549 H   0  0  0  0  0  0  0  0  0  0  0  0
    4.0723   70.9171   69.0853 H   0  0  0  0  0  0  0  0  0  0  0  0
    5.5111   70.4725   67.0985 H   0  0  0  0  0  0  0  0  0  0  0  0
    4.7035   68.9696   65.2893 H   0  0  0  0  0  0  0  0  0  0  0  0
  2  1  1  0
  3  2  2  0
  4  3  1  0
  5  3  1  0
  6  5  2  0
  7  6  1  0
  8  7  2  0
  8  2  1  0
  9  8  1  0
 10  7  1  0
 12 11  2  0
 13 12  1  0
 14 13  2  0
 15 14  1  0
 16 15  2  0
 16 11  1  0
 16  1  1  0
 18 17  1  0
 18 11  1  0
 19 18  2  0
  1 20  1  0
  5 21  1  0
  6 22  1  0
 10 23  1  0
 10 24  1  0
 10 25  1  0
 12 26  1  0
 13 27  1  0
 14 28  1  0
 15 29  1  0
M  CHG  1  17  -1
M  END
>  <score>  (7) 
-8.535

$$$$
=
     RDKit          3D

 29 30  0  0  0  0  0  0  0  0999 V2000
    2.6660   67.9830   65.4280 N   0  0  0  0  0  0  0  0  0  0  0  0
    1.3820   68.3210   64.9190 C   0  0  0  0  0  0  0  0  0  0  0  0
    1.2040   68.7100   63.5780 C   0  0  0  0  0  0  0  0  0  0  0  0
    2.5170   68.7650   62.4540 Cl  0  0  0  0  0  0  0  0  0  0  0  0
   -0.0560   69.0730   63.0960 C   0  0  0  0  0  0  0  0  0  0  0  0
   -1.1640   69.0620   63.9410 C   0  0  0  0  0  0  0  0  0  0  0  0
   -1.0270   68.6880   65.2850 C   0  0  0  0  0  0  0  0  0  0  0  0
    0.2490   68.3210   65.7660 C   0  0  0  0  0  0  0  0  0  0  0  0
    0.4140   67.8480   67.4340 Cl  0  0  0  0  0  0  0  0  0  0  0  0
   -2.2440   68.6850   66.1690 C   0  0  0  0  0  0  0  0  0  0  0  0
    4.8230   69.1800   65.5280 C   0  0  0  0  0  0  0  0  0  0  0  0
    5.6990   70.0230   66.2440 C   0  0  0  0  0  0  0  0  0  0  0  0
    5.3380   70.5730   67.4740 C   0  0  0  0  0  0  0  0  0  0  0  0
    4.0930   70.2830   68.0190 C   0  0  0  0  0  0  0  0  0  0  0  0
    3.2110   69.4470   67.3310 C   0  0  0  0  0  0  0  0  0  0  0  0
    3.5490   68.9010   66.0800 C   0  0  0  0  0  0  0  0  0  0  0  0
    5.1950   67.3780   64.0020 O   0  0  0  0  0  1  0  0  0  0  0  0
    5.2620   68.6350   64.1800 C   0  0  0  0  0  0  0  0  0  0  0  0
    5.6840   69.4840   63.3250 O   0  0  0  0  0  0  0  0  0  0  0  0
    2.9827   67.0089   65.3198 H   0  0  0  0  0  0  0  0  0  0  0  0
   -0.1742   69.3692   62.0433 H   0  0  0  0  0  0  0  0  0  0  0  0
   -2.1519   69.3485   63.5511 H   0  0  0  0  0  0  0  0  0  0  0  0
   -1.9312   68.6858   67.2236 H   0  0  0  0  0  0  0  0  0  0  0  0
   -2.8476   69.5817   65.9649 H   0  0  0  0  0  0  0  0  0  0  0  0
   -2.8432   67.7854   65.9649 H   0  0  0  0  0  0  0  0  0  0  0  0
    6.6891   70.2517   65.8227 H   0  0  0  0  0  0  0  0  0  0  0  0
    6.0356   71.2332   68.0101 H   0  0  0  0  0  0  0  0  0  0  0  0
    3.8030   70.7109   68.9900 H   0  0  0  0  0  0  0  0  0  0  0  0
    2.2332   69.2111   67.7762 H   0  0  0  0  0  0  0  0  0  0  0  0
  2  1  1  0
  3  2  2  0
  4  3  1  0
  5  3  1  0
  6  5  2  0
  7  6  1  0
  8  7  2  0
  8  2  1  0
  9  8  1  0
 10  7  1  0
 12 11  2  0
 13 12  1  0
 14 13  2  0
 15 14  1  0
 16 15  2  0
 16 11  1  0
 16  1  1  0
 18 17  1  0
 18 11  1  0
 19 18  2  0
  1 20  1  0
  5 21  1  0
  6 22  1  0
 10 23  1  0
 10 24  1  0
 10 25  1  0
 12 26  1  0
 13 27  1  0
 14 28  1  0
 15 29  1  0
M  CHG  1  17  -1
M  END
>  <score>  (8) 
-8.458

$$$$
=
     RDKit          3D

 29 30  0  0  0  0  0  0  0  0999 V2000
    2.7480   68.0740   65.4070 N   0  0  0  0  0  0  0  0  0  0  0  0
    1.4590   68.4400   64.9320 C   0  0  0  0  0  0  0  0  0  0  0  0
    0.3240   68.3670   65.7600 C   0  0  0  0  0  0  0  0  0  0  0  0
    0.4210   67.8700   67.4130 Cl  0  0  0  0  0  0  0  0  0  0  0  0
   -0.9440   68.6970   65.2730 C   0  0  0  0  0  0  0  0  0  0  0  0
   -1.1080   69.1000   63.9490 C   0  0  0  0  0  0  0  0  0  0  0  0
   -0.0030   69.1780   63.0900 C   0  0  0  0  0  0  0  0  0  0  0  0
    1.2760   68.8440   63.5880 C   0  0  0  0  0  0  0  0  0  0  0  0
    2.6480   68.9510   62.5200 Cl  0  0  0  0  0  0  0  0  0  0  0  0
   -0.2150   69.6190   61.6680 C   0  0  0  0  0  0  0  0  0  0  0  0
    4.9380   69.2050   65.5470 C   0  0  0  0  0  0  0  0  0  0  0  0
    5.8290   70.0170   66.2810 C   0  0  0  0  0  0  0  0  0  0  0  0
    5.4660   70.5690   67.5090 C   0  0  0  0  0  0  0  0  0  0  0  0
    4.2040   70.3140   68.0330 C   0  0  0  0  0  0  0  0  0  0  0  0
    3.3080   69.5100   67.3270 C   0  0  0  0  0  0  0  0  0  0  0  0
    3.6490   68.9610   66.0780 C   0  0  0  0  0  0  0  0  0  0  0  0
    5.7800   69.4880   63.3260 O   0  0  0  0  0  1  0  0  0  0  0  0
    5.3820   68.6550   64.2020 C   0  0  0  0  0  0  0  0  0  0  0  0
    5.3070   67.3910   64.0420 O   0  0  0  0  0  0  0  0  0  0  0  0
    3.0551   67.1022   65.2578 H   0  0  0  0  0  0  0  0  0  0  0  0
   -1.8177   68.6383   65.9388 H   0  0  0  0  0  0  0  0  0  0  0  0
   -2.1101   69.3583   63.5760 H   0  0  0  0  0  0  0  0  0  0  0  0
   -0.6916   70.6104   61.6587 H   0  0  0  0  0  0  0  0  0  0  0  0
    0.7552   69.6737   61.1526 H   0  0  0  0  0  0  0  0  0  0  0  0
   -0.8637   68.8955   61.1526 H   0  0  0  0  0  0  0  0  0  0  0  0
    6.8315   70.2188   65.8756 H   0  0  0  0  0  0  0  0  0  0  0  0
    6.1753   71.2035   68.0607 H   0  0  0  0  0  0  0  0  0  0  0  0
    3.9122   70.7450   69.0021 H   0  0  0  0  0  0  0  0  0  0  0  0
    2.3165   69.3018   67.7555 H   0  0  0  0  0  0  0  0  0  0  0  0
  2  1  1  0
  3  2  2  0
  4  3  1  0
  5  3  1  0
  6  5  2  0
  7  6  1  0
  8  7  2  0
  8  2  1  0
  9  8  1  0
 10  7  1  0
 12 11  2  0
 13 12  1  0
 14 13  2  0
 15 14  1  0
 16 15  2  0
 16 11  1  0
 16  1  1  0
 18 17  1  0
 18 11  1  0
 19 18  2  0
  1 20  1  0
  5 21  1  0
  6 22  1  0
 10 23  1  0
 10 24  1  0
 10 25  1  0
 12 26  1  0
 13 27  1  0
 14 28  1  0
 15 29  1  0
M  CHG  1  17  -1
M  END
>  <score>  (9) 
-8.391

$$$$
