=
     RDKit          3D

 55 57  0  0  0  0  0  0  0  0999 V2000
    0.5810   66.0280   69.1800 C   0  0  1  0  0  0  0  0  0  0  0  0
   -0.7440   66.5200   68.6190 C   0  0  0  0  0  0  0  0  0  0  0  0
   -0.3550   67.5560   67.5730 C   0  0  0  0  0  0  0  0  0  0  0  0
    1.0490   67.9930   67.9500 N   0  0  2  0  0  4  0  0  0  0  0  0
    1.4000   67.3040   69.2470 C   0  0  0  0  0  0  0  0  0  0  0  0
    0.4570   65.3470   70.5350 C   0  0  0  0  0  0  0  0  0  0  0  0
    0.0680   63.9900   70.3050 O   0  0  0  0  0  0  0  0  0  0  0  0
    3.1440   61.3070   70.8900 C   0  0  0  0  0  0  0  0  0  0  0  0
    2.1990   61.5130   71.8970 C   0  0  0  0  0  0  0  0  0  0  0  0
    1.1650   62.4280   71.6880 C   0  0  0  0  0  0  0  0  0  0  0  0
    1.1130   63.1020   70.4780 C   0  0  0  0  0  0  0  0  0  0  0  0
    1.9970   62.9170   69.4780 N   0  0  0  0  0  0  0  0  0  0  0  0
    2.9940   62.0230   69.7080 C   0  0  0  0  0  0  0  0  0  0  0  0
    4.2700   60.3590   70.9990 C   0  0  0  0  0  0  0  0  0  0  0  0
    5.4310   60.7450   70.9330 O   0  0  0  0  0  0  0  0  0  0  0  0
    3.7200   58.1550   70.1470 N   0  0  0  0  0  0  0  0  0  0  0  0
    4.0470   58.8870   71.1610 C   0  0  0  0  0  0  0  0  0  0  0  0
    3.5740   56.8330   70.5820 O   0  0  0  0  0  0  0  0  0  0  0  0
    1.2820   69.4770   67.9650 C   0  0  0  0  0  0  0  0  0  0  0  0
    2.7440   69.8230   67.9900 C   0  0  0  0  0  0  0  0  0  0  0  0
    3.3390   70.3520   69.1390 C   0  0  0  0  0  0  0  0  0  0  0  0
    4.7130   70.6210   69.1680 C   0  0  0  0  0  0  0  0  0  0  0  0
    5.5250   70.3680   68.0540 C   0  0  0  0  0  0  0  0  0  0  0  0
    4.9290   69.8540   66.8900 C   0  0  0  0  0  0  0  0  0  0  0  0
    3.5530   69.5810   66.8750 C   0  0  0  0  0  0  0  0  0  0  0  0
    5.5340   69.5250   65.7050 O   0  0  0  0  0  0  0  0  0  0  0  0
    4.7130   69.4380   64.5450 C   0  0  0  0  0  0  0  0  0  0  0  0
    6.8790   70.5600   68.0510 O   0  0  0  0  0  0  0  0  0  0  0  0
    7.5050   71.0060   69.2480 C   0  0  0  0  0  0  0  0  0  0  0  0
    1.0345   65.2414   68.5591 H   0  0  0  0  0  0  0  0  0  0  0  0
   -1.3020   65.6921   68.1573 H   0  0  0  0  0  0  0  0  0  0  0  0
   -1.3983   66.9381   69.3982 H   0  0  0  0  0  0  0  0  0  0  0  0
   -0.3636   67.1109   66.5671 H   0  0  0  0  0  0  0  0  0  0  0  0
   -1.0574   68.4023   67.5509 H   0  0  0  0  0  0  0  0  0  0  0  0
    1.6954   67.6999   67.2035 H   0  0  0  0  0  0  0  0  0  0  0  0
    2.4761   67.0822   69.2996 H   0  0  0  0  0  0  0  0  0  0  0  0
    1.1854   67.9139   70.1369 H   0  0  0  0  0  0  0  0  0  0  0  0
    1.4238   65.3761   71.0589 H   0  0  0  0  0  0  0  0  0  0  0  0
   -0.2891   65.8616   71.1583 H   0  0  0  0  0  0  0  0  0  0  0  0
    2.2683   60.9601   72.8454 H   0  0  0  0  0  0  0  0  0  0  0  0
    0.4089   62.6097   72.4660 H   0  0  0  0  0  0  0  0  0  0  0  0
    3.7296   61.8551   68.9076 H   0  0  0  0  0  0  0  0  0  0  0  0
    4.1626   58.4243   72.1522 H   0  0  0  0  0  0  0  0  0  0  0  0
    3.3236   56.1246   69.9374 H   0  0  0  0  0  0  0  0  0  0  0  0
    0.8298   69.9155   67.0632 H   0  0  0  0  0  0  0  0  0  0  0  0
    0.8242   69.8809   68.8800 H   0  0  0  0  0  0  0  0  0  0  0  0
    2.7234   70.5585   70.0269 H   0  0  0  0  0  0  0  0  0  0  0  0
    5.1628   71.0381   70.0810 H   0  0  0  0  0  0  0  0  0  0  0  0
    3.0988   69.1661   65.9631 H   0  0  0  0  0  0  0  0  0  0  0  0
    3.6613   69.3266   64.8476 H   0  0  0  0  0  0  0  0  0  0  0  0
    4.8270   70.3533   63.9456 H   0  0  0  0  0  0  0  0  0  0  0  0
    5.0163   68.5670   63.9456 H   0  0  0  0  0  0  0  0  0  0  0  0
    6.9556   70.6146   70.1169 H   0  0  0  0  0  0  0  0  0  0  0  0
    8.5429   70.6427   69.2764 H   0  0  0  0  0  0  0  0  0  0  0  0
    7.5006   72.1056   69.2764 H   0  0  0  0  0  0  0  0  0  0  0  0
  2  1  1  0
  3  2  1  0
  4  3  1  0
  5  4  1  0
  5  1  1  0
  6  1  1  0
  7  6  1  0
  9  8  2  0
 10  9  1  0
 11  7  1  0
 11 10  2  0
 12 11  1  0
 13 12  2  0
 13  8  1  0
 14  8  1  0
 15 14  2  0
 17 16  2  0
 17 14  1  0
 18 16  1  0
 19  4  1  0
 20 19  1  0
 21 20  2  0
 22 21  1  0
 23 22  2  0
 24 23  1  0
 25 24  2  0
 25 20  1  0
 26 24  1  0
 27 26  1  0
 28 23  1  0
 29 28  1  0
  1 30  1  6
  2 31  1  0
  2 32  1  0
  3 33  1  0
  3 34  1  0
  4 35  1  6
  5 36  1  0
  5 37  1  0
  6 38  1  0
  6 39  1  0
  9 40  1  0
 10 41  1  0
 13 42  1  0
 17 43  1  0
 18 44  1  0
 19 45  1  0
 19 46  1  0
 21 47  1  0
 22 48  1  0
 25 49  1  0
 27 50  1  0
 27 51  1  0
 27 52  1  0
 29 53  1  0
 29 54  1  0
 29 55  1  0
M  CHG  1   4   1
M  END
>  <score>  (1) 
-10.049

$$$$
=
     RDKit          3D

 55 57  0  0  0  0  0  0  0  0999 V2000
    0.4740   66.0490   69.3950 C   0  0  1  0  0  0  0  0  0  0  0  0
   -0.8310   66.5900   68.8350 C   0  0  0  0  0  0  0  0  0  0  0  0
   -0.4250   67.3440   67.5760 C   0  0  0  0  0  0  0  0  0  0  0  0
    1.0480   67.6610   67.7620 N   0  0  2  0  0  4  0  0  0  0  0  0
    1.4350   67.1980   69.1460 C   0  0  0  0  0  0  0  0  0  0  0  0
    0.3990   65.6670   70.8660 C   0  0  0  0  0  0  0  0  0  0  0  0
   -0.0600   64.3140   70.9390 O   0  0  0  0  0  0  0  0  0  0  0  0
    3.0620   61.7040   71.6070 C   0  0  0  0  0  0  0  0  0  0  0  0
    3.2880   62.8970   70.9190 C   0  0  0  0  0  0  0  0  0  0  0  0
    2.2210   63.7700   70.6950 C   0  0  0  0  0  0  0  0  0  0  0  0
    0.9670   63.4180   71.1690 C   0  0  0  0  0  0  0  0  0  0  0  0
    0.7150   62.2840   71.8520 N   0  0  0  0  0  0  0  0  0  0  0  0
    1.7700   61.4510   72.0540 C   0  0  0  0  0  0  0  0  0  0  0  0
    4.1150   60.7140   71.9080 C   0  0  0  0  0  0  0  0  0  0  0  0
    5.1440   61.0410   72.4880 O   0  0  0  0  0  0  0  0  0  0  0  0
    3.8970   58.9640   70.2420 N   0  0  0  0  0  0  0  0  0  0  0  0
    3.9900   59.2810   71.4920 C   0  0  0  0  0  0  0  0  0  0  0  0
    3.7910   57.5720   70.1430 O   0  0  0  0  0  0  0  0  0  0  0  0
    1.4470   69.0770   67.4580 C   0  0  0  0  0  0  0  0  0  0  0  0
    2.5620   69.1510   66.4520 C   0  0  0  0  0  0  0  0  0  0  0  0
    2.3610   68.7540   65.1270 C   0  0  0  0  0  0  0  0  0  0  0  0
    3.3920   68.8770   64.1850 C   0  0  0  0  0  0  0  0  0  0  0  0
    4.6430   69.3980   64.5430 C   0  0  0  0  0  0  0  0  0  0  0  0
    4.8550   69.7800   65.8780 C   0  0  0  0  0  0  0  0  0  0  0  0
    3.8130   69.6610   66.8120 C   0  0  0  0  0  0  0  0  0  0  0  0
    5.9860   70.3190   66.4340 O   0  0  0  0  0  0  0  0  0  0  0  0
    6.0480   70.4080   67.8540 C   0  0  0  0  0  0  0  0  0  0  0  0
    5.6610   69.5890   63.6510 O   0  0  0  0  0  0  0  0  0  0  0  0
    5.5840   68.9470   62.3840 C   0  0  0  0  0  0  0  0  0  0  0  0
    0.7757   65.1044   68.9189 H   0  0  0  0  0  0  0  0  0  0  0  0
   -1.5192   65.7675   68.5902 H   0  0  0  0  0  0  0  0  0  0  0  0
   -1.3591   67.2330   69.5545 H   0  0  0  0  0  0  0  0  0  0  0  0
   -0.5754   66.7168   66.6849 H   0  0  0  0  0  0  0  0  0  0  0  0
   -1.0266   68.2530   67.4282 H   0  0  0  0  0  0  0  0  0  0  0  0
    1.5871   67.1474   67.0504 H   0  0  0  0  0  0  0  0  0  0  0  0
    2.4795   66.8540   69.1715 H   0  0  0  0  0  0  0  0  0  0  0  0
    1.3722   67.9917   69.9051 H   0  0  0  0  0  0  0  0  0  0  0  0
    1.3945   65.7507   71.3264 H   0  0  0  0  0  0  0  0  0  0  0  0
   -0.2872   66.3372   71.4045 H   0  0  0  0  0  0  0  0  0  0  0  0
    4.2961   63.1472   70.5569 H   0  0  0  0  0  0  0  0  0  0  0  0
    2.3725   64.7159   70.1544 H   0  0  0  0  0  0  0  0  0  0  0  0
    1.5900   60.5170   72.6065 H   0  0  0  0  0  0  0  0  0  0  0  0
    3.9772   58.4907   72.2570 H   0  0  0  0  0  0  0  0  0  0  0  0
    3.7102   57.1437   69.2541 H   0  0  0  0  0  0  0  0  0  0  0  0
    0.5735   69.6128   67.0582 H   0  0  0  0  0  0  0  0  0  0  0  0
    1.8051   69.5342   68.3922 H   0  0  0  0  0  0  0  0  0  0  0  0
    1.3877   68.3425   64.8214 H   0  0  0  0  0  0  0  0  0  0  0  0
    3.2161   68.5591   63.1467 H   0  0  0  0  0  0  0  0  0  0  0  0
    3.9852   69.9766   67.8516 H   0  0  0  0  0  0  0  0  0  0  0  0
    5.4729   69.5824   68.2986 H   0  0  0  0  0  0  0  0  0  0  0  0
    7.0965   70.3418   68.1801 H   0  0  0  0  0  0  0  0  0  0  0  0
    5.6226   71.3685   68.1801 H   0  0  0  0  0  0  0  0  0  0  0  0
    5.4541   67.8643   62.5288 H   0  0  0  0  0  0  0  0  0  0  0  0
    4.7274   69.3471   61.8217 H   0  0  0  0  0  0  0  0  0  0  0  0
    6.5109   69.1331   61.8217 H   0  0  0  0  0  0  0  0  0  0  0  0
  2  1  1  0
  3  2  1  0
  4  3  1  0
  5  4  1  0
  5  1  1  0
  6  1  1  0
  7  6  1  0
  9  8  2  0
 10  9  1  0
 11  7  1  0
 11 10  2  0
 12 11  1  0
 13 12  2  0
 13  8  1  0
 14  8  1  0
 15 14  2  0
 17 16  2  0
 17 14  1  0
 18 16  1  0
 19  4  1  0
 20 19  1  0
 21 20  2  0
 22 21  1  0
 23 22  2  0
 24 23  1  0
 25 24  2  0
 25 20  1  0
 26 24  1  0
 27 26  1  0
 28 23  1  0
 29 28  1  0
  1 30  1  6
  2 31  1  0
  2 32  1  0
  3 33  1  0
  3 34  1  0
  4 35  1  6
  5 36  1  0
  5 37  1  0
  6 38  1  0
  6 39  1  0
  9 40  1  0
 10 41  1  0
 13 42  1  0
 17 43  1  0
 18 44  1  0
 19 45  1  0
 19 46  1  0
 21 47  1  0
 22 48  1  0
 25 49  1  0
 27 50  1  0
 27 51  1  0
 27 52  1  0
 29 53  1  0
 29 54  1  0
 29 55  1  0
M  CHG  1   4   1
M  END
>  <score>  (2) 
-9.445

$$$$
=
     RDKit          3D

 55 57  0  0  0  0  0  0  0  0999 V2000
    0.0440   67.5320   68.3020 C   0  0  1  0  0  0  0  0  0  0  0  0
    1.5270   67.8660   68.2740 C   0  0  0  0  0  0  0  0  0  0  0  0
    1.6730   68.8680   67.1370 C   0  0  0  0  0  0  0  0  0  0  0  0
    0.4530   68.6510   66.2590 N   0  0  2  0  0  4  0  0  0  0  0  0
   -0.3040   67.4740   66.8260 C   0  0  0  0  0  0  0  0  0  0  0  0
   -0.2790   66.2320   69.0240 C   0  0  0  0  0  0  0  0  0  0  0  0
    0.3100   66.3010   70.3250 O   0  0  0  0  0  0  0  0  0  0  0  0
    2.3400   62.8600   71.3470 C   0  0  0  0  0  0  0  0  0  0  0  0
    1.2280   63.2590   72.0910 C   0  0  0  0  0  0  0  0  0  0  0  0
    0.5530   64.4290   71.7380 C   0  0  0  0  0  0  0  0  0  0  0  0
    1.0120   65.1570   70.6510 C   0  0  0  0  0  0  0  0  0  0  0  0
    2.0700   64.7930   69.9000 N   0  0  0  0  0  0  0  0  0  0  0  0
    2.7120   63.6520   70.2660 C   0  0  0  0  0  0  0  0  0  0  0  0
    3.1210   61.6390   71.6240 C   0  0  0  0  0  0  0  0  0  0  0  0
    3.8510   61.5630   72.6050 O   0  0  0  0  0  0  0  0  0  0  0  0
    4.1220   60.1310   70.0080 N   0  0  0  0  0  0  0  0  0  0  0  0
    3.0830   60.4560   70.7070 C   0  0  0  0  0  0  0  0  0  0  0  0
    3.8090   58.9990   69.2460 O   0  0  0  0  0  0  0  0  0  0  0  0
    0.7280   68.5480   64.7850 C   0  0  0  0  0  0  0  0  0  0  0  0
    1.8610   67.6090   64.4830 C   0  0  0  0  0  0  0  0  0  0  0  0
    1.8410   66.2880   64.9380 C   0  0  0  0  0  0  0  0  0  0  0  0
    2.8780   65.4060   64.6050 C   0  0  0  0  0  0  0  0  0  0  0  0
    3.9560   65.8200   63.8100 C   0  0  0  0  0  0  0  0  0  0  0  0
    3.9900   67.1520   63.3660 C   0  0  0  0  0  0  0  0  0  0  0  0
    2.9420   68.0260   63.6980 C   0  0  0  0  0  0  0  0  0  0  0  0
    4.9330   67.7570   62.5770 O   0  0  0  0  0  0  0  0  0  0  0  0
    5.2390   69.1220   62.8380 C   0  0  0  0  0  0  0  0  0  0  0  0
    4.9610   64.9840   63.4120 O   0  0  0  0  0  0  0  0  0  0  0  0
    4.9380   63.6340   63.8560 C   0  0  0  0  0  0  0  0  0  0  0  0
   -0.5419   68.2705   68.8689 H   0  0  0  0  0  0  0  0  0  0  0  0
    1.8426   68.3127   69.2284 H   0  0  0  0  0  0  0  0  0  0  0  0
    2.1531   66.9736   68.1269 H   0  0  0  0  0  0  0  0  0  0  0  0
    1.6894   69.8960   67.5280 H   0  0  0  0  0  0  0  0  0  0  0  0
    2.6114   68.7263   66.5808 H   0  0  0  0  0  0  0  0  0  0  0  0
   -0.1304   69.4992   66.2916 H   0  0  0  0  0  0  0  0  0  0  0  0
   -1.3870   67.5864   66.6693 H   0  0  0  0  0  0  0  0  0  0  0  0
   -0.0398   66.5167   66.3529 H   0  0  0  0  0  0  0  0  0  0  0  0
   -1.3690   66.1127   69.1118 H   0  0  0  0  0  0  0  0  0  0  0  0
    0.1183   65.3715   68.4657 H   0  0  0  0  0  0  0  0  0  0  0  0
    0.8872   62.6576   72.9467 H   0  0  0  0  0  0  0  0  0  0  0  0
   -0.3241   64.7660   72.3100 H   0  0  0  0  0  0  0  0  0  0  0  0
    3.5803   63.3352   69.6696 H   0  0  0  0  0  0  0  0  0  0  0  0
    2.1634   59.8578   70.6269 H   0  0  0  0  0  0  0  0  0  0  0  0
    4.4887   58.6038   68.6444 H   0  0  0  0  0  0  0  0  0  0  0  0
   -0.1786   68.1830   64.2802 H   0  0  0  0  0  0  0  0  0  0  0  0
    1.0126   69.5474   64.4241 H   0  0  0  0  0  0  0  0  0  0  0  0
    1.0055   65.9379   65.5619 H   0  0  0  0  0  0  0  0  0  0  0  0
    2.8455   64.3703   64.9740 H   0  0  0  0  0  0  0  0  0  0  0  0
    2.9715   69.0630   63.3323 H   0  0  0  0  0  0  0  0  0  0  0  0
    5.2762   69.2881   63.9247 H   0  0  0  0  0  0  0  0  0  0  0  0
    6.2150   69.3701   62.3955 H   0  0  0  0  0  0  0  0  0  0  0  0
    4.4623   69.7630   62.3955 H   0  0  0  0  0  0  0  0  0  0  0  0
    4.9376   63.6097   64.9557 H   0  0  0  0  0  0  0  0  0  0  0  0
    4.0313   63.1391   63.4779 H   0  0  0  0  0  0  0  0  0  0  0  0
    5.8273   63.1085   63.4779 H   0  0  0  0  0  0  0  0  0  0  0  0
  2  1  1  0
  3  2  1  0
  4  3  1  0
  5  4  1  0
  5  1  1  0
  6  1  1  0
  7  6  1  0
  9  8  2  0
 10  9  1  0
 11  7  1  0
 11 10  2  0
 12 11  1  0
 13 12  2  0
 13  8  1  0
 14  8  1  0
 15 14  2  0
 17 16  2  0
 17 14  1  0
 18 16  1  0
 19  4  1  0
 20 19  1  0
 21 20  2  0
 22 21  1  0
 23 22  2  0
 24 23  1  0
 25 24  2  0
 25 20  1  0
 26 24  1  0
 27 26  1  0
 28 23  1  0
 29 28  1  0
  1 30  1  1
  2 31  1  0
  2 32  1  0
  3 33  1  0
  3 34  1  0
  4 35  1  6
  5 36  1  0
  5 37  1  0
  6 38  1  0
  6 39  1  0
  9 40  1  0
 10 41  1  0
 13 42  1  0
 17 43  1  0
 18 44  1  0
 19 45  1  0
 19 46  1  0
 21 47  1  0
 22 48  1  0
 25 49  1  0
 27 50  1  0
 27 51  1  0
 27 52  1  0
 29 53  1  0
 29 54  1  0
 29 55  1  0
M  CHG  1   4   1
M  END
>  <score>  (3) 
-9.276

$$$$
=
     RDKit          3D

 55 57  0  0  0  0  0  0  0  0999 V2000
    0.4790   66.0330   69.5250 C   0  0  1  0  0  0  0  0  0  0  0  0
   -0.8190   66.5600   68.9330 C   0  0  0  0  0  0  0  0  0  0  0  0
   -0.3970   67.2590   67.6480 C   0  0  0  0  0  0  0  0  0  0  0  0
    1.0770   67.5730   67.8330 N   0  0  2  0  0  4  0  0  0  0  0  0
    1.4500   67.1630   69.2370 C   0  0  0  0  0  0  0  0  0  0  0  0
    0.3890   65.7110   71.0090 C   0  0  0  0  0  0  0  0  0  0  0  0
   -0.0470   64.3540   71.1330 O   0  0  0  0  0  0  0  0  0  0  0  0
    3.1090   61.7420   71.5970 C   0  0  0  0  0  0  0  0  0  0  0  0
    2.6940   62.1110   70.3160 C   0  0  0  0  0  0  0  0  0  0  0  0
    1.6210   62.9920   70.1730 C   0  0  0  0  0  0  0  0  0  0  0  0
    1.0030   63.4740   71.3160 C   0  0  0  0  0  0  0  0  0  0  0  0
    1.3870   63.1540   72.5670 N   0  0  0  0  0  0  0  0  0  0  0  0
    2.4320   62.2920   72.6790 C   0  0  0  0  0  0  0  0  0  0  0  0
    4.2350   60.8260   71.8650 C   0  0  0  0  0  0  0  0  0  0  0  0
    5.2820   61.2360   72.3540 O   0  0  0  0  0  0  0  0  0  0  0  0
    3.8100   58.9860   70.3420 N   0  0  0  0  0  0  0  0  0  0  0  0
    4.1640   59.3700   71.5250 C   0  0  0  0  0  0  0  0  0  0  0  0
    3.8280   57.5870   70.3040 O   0  0  0  0  0  0  0  0  0  0  0  0
    1.4890   68.9730   67.4750 C   0  0  0  0  0  0  0  0  0  0  0  0
    2.2820   69.0240   66.1990 C   0  0  0  0  0  0  0  0  0  0  0  0
    3.6340   69.3810   66.2060 C   0  0  0  0  0  0  0  0  0  0  0  0
    4.3770   69.3730   65.0180 C   0  0  0  0  0  0  0  0  0  0  0  0
    3.7900   69.0080   63.7980 C   0  0  0  0  0  0  0  0  0  0  0  0
    2.4270   68.6670   63.7830 C   0  0  0  0  0  0  0  0  0  0  0  0
    1.6940   68.6700   64.9800 C   0  0  0  0  0  0  0  0  0  0  0  0
    1.6670   68.2720   62.7140 O   0  0  0  0  0  0  0  0  0  0  0  0
    0.7680   69.2230   62.1520 C   0  0  0  0  0  0  0  0  0  0  0  0
    4.4850   68.9300   62.6230 O   0  0  0  0  0  0  0  0  0  0  0  0
    5.8520   68.5410   62.6670 C   0  0  0  0  0  0  0  0  0  0  0  0
    0.7783   65.0680   69.0900 H   0  0  0  0  0  0  0  0  0  0  0  0
   -1.5113   65.7331   68.7163 H   0  0  0  0  0  0  0  0  0  0  0  0
   -1.3485   67.2351   69.6214 H   0  0  0  0  0  0  0  0  0  0  0  0
   -0.5449   66.5970   66.7820 H   0  0  0  0  0  0  0  0  0  0  0  0
   -0.9905   68.1656   67.4584 H   0  0  0  0  0  0  0  0  0  0  0  0
    1.6179   67.0275   67.1469 H   0  0  0  0  0  0  0  0  0  0  0  0
    2.4916   66.8124   69.2841 H   0  0  0  0  0  0  0  0  0  0  0  0
    1.3877   67.9871   69.9630 H   0  0  0  0  0  0  0  0  0  0  0  0
    1.3760   65.8320   71.4793 H   0  0  0  0  0  0  0  0  0  0  0  0
   -0.3172   66.3902   71.5089 H   0  0  0  0  0  0  0  0  0  0  0  0
    3.2073   61.7116   69.4289 H   0  0  0  0  0  0  0  0  0  0  0  0
    1.2734   63.2971   69.1749 H   0  0  0  0  0  0  0  0  0  0  0  0
    2.7628   62.0120   73.6900 H   0  0  0  0  0  0  0  0  0  0  0  0
    4.4154   58.6194   72.2888 H   0  0  0  0  0  0  0  0  0  0  0  0
    3.5831   57.1113   69.4711 H   0  0  0  0  0  0  0  0  0  0  0  0
    0.5851   69.5883   67.3549 H   0  0  0  0  0  0  0  0  0  0  0  0
    2.1285   69.3538   68.2849 H   0  0  0  0  0  0  0  0  0  0  0  0
    4.1176   69.6701   67.1507 H   0  0  0  0  0  0  0  0  0  0  0  0
    5.4391   69.6580   65.0429 H   0  0  0  0  0  0  0  0  0  0  0  0
    0.6312   68.3871   64.9591 H   0  0  0  0  0  0  0  0  0  0  0  0
    0.2554   69.7652   62.9603 H   0  0  0  0  0  0  0  0  0  0  0  0
    1.3298   69.9361   61.5308 H   0  0  0  0  0  0  0  0  0  0  0  0
    0.0244   68.7022   61.5308 H   0  0  0  0  0  0  0  0  0  0  0  0
    6.1736   68.4495   63.7149 H   0  0  0  0  0  0  0  0  0  0  0  0
    5.9741   67.5724   62.1600 H   0  0  0  0  0  0  0  0  0  0  0  0
    6.4658   69.3001   62.1600 H   0  0  0  0  0  0  0  0  0  0  0  0
  2  1  1  0
  3  2  1  0
  4  3  1  0
  5  4  1  0
  5  1  1  0
  6  1  1  0
  7  6  1  0
  9  8  2  0
 10  9  1  0
 11  7  1  0
 11 10  2  0
 12 11  1  0
 13 12  2  0
 13  8  1  0
 14  8  1  0
 15 14  2  0
 17 16  2  0
 17 14  1  0
 18 16  1  0
 19  4  1  0
 20 19  1  0
 21 20  2  0
 22 21  1  0
 23 22  2  0
 24 23  1  0
 25 24  2  0
 25 20  1  0
 26 24  1  0
 27 26  1  0
 28 23  1  0
 29 28  1  0
  1 30  1  6
  2 31  1  0
  2 32  1  0
  3 33  1  0
  3 34  1  0
  4 35  1  6
  5 36  1  0
  5 37  1  0
  6 38  1  0
  6 39  1  0
  9 40  1  0
 10 41  1  0
 13 42  1  0
 17 43  1  0
 18 44  1  0
 19 45  1  0
 19 46  1  0
 21 47  1  0
 22 48  1  0
 25 49  1  0
 27 50  1  0
 27 51  1  0
 27 52  1  0
 29 53  1  0
 29 54  1  0
 29 55  1  0
M  CHG  1   4   1
M  END
>  <score>  (4) 
-9.036

$$$$
=
     RDKit          3D

 55 57  0  0  0  0  0  0  0  0999 V2000
    0.1680   66.4480   70.0610 C   0  0  1  0  0  0  0  0  0  0  0  0
    1.6000   66.7390   69.6440 C   0  0  0  0  0  0  0  0  0  0  0  0
    1.4730   67.7720   68.5330 C   0  0  0  0  0  0  0  0  0  0  0  0
    0.0560   67.6200   68.0100 N   0  0  2  0  0  4  0  0  0  0  0  0
   -0.5650   66.4480   68.7320 C   0  0  0  0  0  0  0  0  0  0  0  0
    0.0020   65.1350   70.8130 C   0  0  0  0  0  0  0  0  0  0  0  0
    0.2880   64.0740   69.8980 O   0  0  0  0  0  0  0  0  0  0  0  0
    2.4700   61.0530   71.6640 C   0  0  0  0  0  0  0  0  0  0  0  0
    1.3130   61.5290   72.2830 C   0  0  0  0  0  0  0  0  0  0  0  0
    0.5860   62.5560   71.6770 C   0  0  0  0  0  0  0  0  0  0  0  0
    1.0420   63.0680   70.4720 C   0  0  0  0  0  0  0  0  0  0  0  0
    2.1440   62.6210   69.8380 N   0  0  0  0  0  0  0  0  0  0  0  0
    2.8350   61.6240   70.4500 C   0  0  0  0  0  0  0  0  0  0  0  0
    3.3090   59.9680   72.2090 C   0  0  0  0  0  0  0  0  0  0  0  0
    3.6450   59.9580   73.3870 O   0  0  0  0  0  0  0  0  0  0  0  0
    3.1120   57.7770   71.1850 N   0  0  0  0  0  0  0  0  0  0  0  0
    3.8110   58.8520   71.3450 C   0  0  0  0  0  0  0  0  0  0  0  0
    3.8150   56.9110   70.3400 O   0  0  0  0  0  0  0  0  0  0  0  0
   -0.0780   67.5570   66.5150 C   0  0  0  0  0  0  0  0  0  0  0  0
    1.2550   67.6160   65.8220 C   0  0  0  0  0  0  0  0  0  0  0  0
    2.0240   68.7830   65.8400 C   0  0  0  0  0  0  0  0  0  0  0  0
    3.2880   68.8100   65.2370 C   0  0  0  0  0  0  0  0  0  0  0  0
    3.8140   67.6750   64.6040 C   0  0  0  0  0  0  0  0  0  0  0  0
    3.0370   66.5060   64.5660 C   0  0  0  0  0  0  0  0  0  0  0  0
    1.7750   66.4870   65.1810 C   0  0  0  0  0  0  0  0  0  0  0  0
    3.3610   65.2930   64.0170 O   0  0  0  0  0  0  0  0  0  0  0  0
    3.7050   64.2340   64.9040 C   0  0  0  0  0  0  0  0  0  0  0  0
    5.0640   67.6340   64.0500 O   0  0  0  0  0  0  0  0  0  0  0  0
    5.3860   68.5720   63.0300 C   0  0  0  0  0  0  0  0  0  0  0  0
   -0.2167   67.1849   70.7814 H   0  0  0  0  0  0  0  0  0  0  0  0
    2.1756   67.1456   70.4886 H   0  0  0  0  0  0  0  0  0  0  0  0
    2.1309   65.8339   69.3139 H   0  0  0  0  0  0  0  0  0  0  0  0
    1.6316   68.7860   68.9288 H   0  0  0  0  0  0  0  0  0  0  0  0
    2.2222   67.6201   67.7421 H   0  0  0  0  0  0  0  0  0  0  0  0
   -0.4651   68.4839   68.2176 H   0  0  0  0  0  0  0  0  0  0  0  0
   -1.6454   66.5975   68.8750 H   0  0  0  0  0  0  0  0  0  0  0  0
   -0.4735   65.4991   68.1832 H   0  0  0  0  0  0  0  0  0  0  0  0
    0.7013   65.0975   71.6613 H   0  0  0  0  0  0  0  0  0  0  0  0
   -1.0212   65.0413   71.2058 H   0  0  0  0  0  0  0  0  0  0  0  0
    0.9772   61.0996   73.2384 H   0  0  0  0  0  0  0  0  0  0  0  0
   -0.3281   62.9499   72.1453 H   0  0  0  0  0  0  0  0  0  0  0  0
    3.7404   61.2446   69.9537 H   0  0  0  0  0  0  0  0  0  0  0  0
    4.7843   58.9486   70.8417 H   0  0  0  0  0  0  0  0  0  0  0  0
    3.4301   56.0303   70.1027 H   0  0  0  0  0  0  0  0  0  0  0  0
   -0.5770   66.6150   66.2435 H   0  0  0  0  0  0  0  0  0  0  0  0
   -0.6654   68.4290   66.1917 H   0  0  0  0  0  0  0  0  0  0  0  0
    1.6338   69.6866   66.3312 H   0  0  0  0  0  0  0  0  0  0  0  0
    3.8782   69.7379   65.2605 H   0  0  0  0  0  0  0  0  0  0  0  0
    1.1808   65.5616   65.1581 H   0  0  0  0  0  0  0  0  0  0  0  0
    3.5940   64.5758   65.9436 H   0  0  0  0  0  0  0  0  0  0  0  0
    3.0392   63.3765   64.7269 H   0  0  0  0  0  0  0  0  0  0  0  0
    4.7476   63.9314   64.7269 H   0  0  0  0  0  0  0  0  0  0  0  0
    5.7104   69.5170   63.4901 H   0  0  0  0  0  0  0  0  0  0  0  0
    6.1978   68.1705   62.4056 H   0  0  0  0  0  0  0  0  0  0  0  0
    4.4988   68.7537   62.4056 H   0  0  0  0  0  0  0  0  0  0  0  0
  2  1  1  0
  3  2  1  0
  4  3  1  0
  5  4  1  0
  5  1  1  0
  6  1  1  0
  7  6  1  0
  9  8  2  0
 10  9  1  0
 11  7  1  0
 11 10  2  0
 12 11  1  0
 13 12  2  0
 13  8  1  0
 14  8  1  0
 15 14  2  0
 17 16  2  0
 17 14  1  0
 18 16  1  0
 19  4  1  0
 20 19  1  0
 21 20  2  0
 22 21  1  0
 23 22  2  0
 24 23  1  0
 25 24  2  0
 25 20  1  0
 26 24  1  0
 27 26  1  0
 28 23  1  0
 29 28  1  0
  1 30  1  1
  2 31  1  0
  2 32  1  0
  3 33  1  0
  3 34  1  0
  4 35  1  1
  5 36  1  0
  5 37  1  0
  6 38  1  0
  6 39  1  0
  9 40  1  0
 10 41  1  0
 13 42  1  0
 17 43  1  0
 18 44  1  0
 19 45  1  0
 19 46  1  0
 21 47  1  0
 22 48  1  0
 25 49  1  0
 27 50  1  0
 27 51  1  0
 27 52  1  0
 29 53  1  0
 29 54  1  0
 29 55  1  0
M  CHG  1   4   1
M  END
>  <score>  (5) 
-8.798

$$$$
=
     RDKit          3D

 55 57  0  0  0  0  0  0  0  0999 V2000
   -0.0070   66.3910   68.7590 C   0  0  1  0  0  0  0  0  0  0  0  0
   -1.4540   66.8440   68.6520 C   0  0  0  0  0  0  0  0  0  0  0  0
   -1.6420   67.1820   67.1790 C   0  0  0  0  0  0  0  0  0  0  0  0
   -0.2420   67.4320   66.6490 N   0  0  2  0  0  4  0  0  0  0  0  0
    0.7040   67.3510   67.8220 C   0  0  0  0  0  0  0  0  0  0  0  0
    0.5500   66.4450   70.1740 C   0  0  0  0  0  0  0  0  0  0  0  0
    0.1230   65.2600   70.8520 O   0  0  0  0  0  0  0  0  0  0  0  0
    2.9860   62.2940   70.9680 C   0  0  0  0  0  0  0  0  0  0  0  0
    1.7780   62.1220   71.6460 C   0  0  0  0  0  0  0  0  0  0  0  0
    0.8190   63.1360   71.6030 C   0  0  0  0  0  0  0  0  0  0  0  0
    1.1020   64.2850   70.8810 C   0  0  0  0  0  0  0  0  0  0  0  0
    2.2490   64.4780   70.2010 N   0  0  0  0  0  0  0  0  0  0  0  0
    3.1670   63.4770   70.2610 C   0  0  0  0  0  0  0  0  0  0  0  0
    4.0640   61.2860   70.9380 C   0  0  0  0  0  0  0  0  0  0  0  0
    5.2430   61.6190   70.9260 O   0  0  0  0  0  0  0  0  0  0  0  0
    4.0710   59.1220   69.8410 N   0  0  0  0  0  0  0  0  0  0  0  0
    3.7680   59.8190   70.8870 C   0  0  0  0  0  0  0  0  0  0  0  0
    3.6840   57.7950   70.0630 O   0  0  0  0  0  0  0  0  0  0  0  0
   -0.0790   68.6730   65.8170 C   0  0  0  0  0  0  0  0  0  0  0  0
    0.8160   68.4490   64.6310 C   0  0  0  0  0  0  0  0  0  0  0  0
    0.4690   68.9340   63.3660 C   0  0  0  0  0  0  0  0  0  0  0  0
    1.3360   68.7660   62.2790 C   0  0  0  0  0  0  0  0  0  0  0  0
    2.5680   68.1130   62.4280 C   0  0  0  0  0  0  0  0  0  0  0  0
    2.9130   67.6080   63.6920 C   0  0  0  0  0  0  0  0  0  0  0  0
    2.0410   67.7890   64.7770 C   0  0  0  0  0  0  0  0  0  0  0  0
    4.0610   66.9550   64.0580 O   0  0  0  0  0  0  0  0  0  0  0  0
    4.1390   65.5570   63.8010 C   0  0  0  0  0  0  0  0  0  0  0  0
    3.4730   67.9730   61.4120 O   0  0  0  0  0  0  0  0  0  0  0  0
    3.9020   69.1390   60.7200 C   0  0  0  0  0  0  0  0  0  0  0  0
    0.1220   65.3314   68.4931 H   0  0  0  0  0  0  0  0  0  0  0  0
   -2.1371   66.0371   68.9557 H   0  0  0  0  0  0  0  0  0  0  0  0
   -1.6732   67.6994   69.3079 H   0  0  0  0  0  0  0  0  0  0  0  0
   -2.1121   66.3418   66.6469 H   0  0  0  0  0  0  0  0  0  0  0  0
   -2.2983   68.0532   67.0365 H   0  0  0  0  0  0  0  0  0  0  0  0
   -0.0167   66.7009   65.9593 H   0  0  0  0  0  0  0  0  0  0  0  0
    1.6829   66.9539   67.5153 H   0  0  0  0  0  0  0  0  0  0  0  0
    0.9176   68.3287   68.2787 H   0  0  0  0  0  0  0  0  0  0  0  0
    1.6489   66.4844   70.1434 H   0  0  0  0  0  0  0  0  0  0  0  0
    0.1878   67.3418   70.6980 H   0  0  0  0  0  0  0  0  0  0  0  0
    1.5835   61.1969   72.2085 H   0  0  0  0  0  0  0  0  0  0  0  0
   -0.1399   63.0255   72.1304 H   0  0  0  0  0  0  0  0  0  0  0  0
    4.1127   63.6118   69.7156 H   0  0  0  0  0  0  0  0  0  0  0  0
    3.2883   59.3297   71.7475 H   0  0  0  0  0  0  0  0  0  0  0  0
    3.8385   57.1108   69.3643 H   0  0  0  0  0  0  0  0  0  0  0  0
   -1.0690   68.9914   65.4584 H   0  0  0  0  0  0  0  0  0  0  0  0
    0.3855   69.4442   66.4491 H   0  0  0  0  0  0  0  0  0  0  0  0
   -0.4915   69.4510   63.2238 H   0  0  0  0  0  0  0  0  0  0  0  0
    1.0455   69.1530   61.2912 H   0  0  0  0  0  0  0  0  0  0  0  0
    2.3278   67.4025   65.7661 H   0  0  0  0  0  0  0  0  0  0  0  0
    4.1695   65.0100   64.7549 H   0  0  0  0  0  0  0  0  0  0  0  0
    3.2571   65.2404   63.2248 H   0  0  0  0  0  0  0  0  0  0  0  0
    5.0506   65.3404   63.2248 H   0  0  0  0  0  0  0  0  0  0  0  0
    4.1869   69.9132   61.4476 H   0  0  0  0  0  0  0  0  0  0  0  0
    4.7684   68.8927   60.0886 H   0  0  0  0  0  0  0  0  0  0  0  0
    3.0826   69.5130   60.0886 H   0  0  0  0  0  0  0  0  0  0  0  0
  2  1  1  0
  3  2  1  0
  4  3  1  0
  5  4  1  0
  5  1  1  0
  6  1  1  0
  7  6  1  0
  9  8  2  0
 10  9  1  0
 11  7  1  0
 11 10  2  0
 12 11  1  0
 13 12  2  0
 13  8  1  0
 14  8  1  0
 15 14  2  0
 17 16  2  0
 17 14  1  0
 18 16  1  0
 19  4  1  0
 20 19  1  0
 21 20  2  0
 22 21  1  0
 23 22  2  0
 24 23  1  0
 25 24  2  0
 25 20  1  0
 26 24  1  0
 27 26  1  0
 28 23  1  0
 29 28  1  0
  1 30  1  6
  2 31  1  0
  2 32  1  0
  3 33  1  0
  3 34  1  0
  4 35  1  6
  5 36  1  0
  5 37  1  0
  6 38  1  0
  6 39  1  0
  9 40  1  0
 10 41  1  0
 13 42  1  0
 17 43  1  0
 18 44  1  0
 19 45  1  0
 19 46  1  0
 21 47  1  0
 22 48  1  0
 25 49  1  0
 27 50  1  0
 27 51  1  0
 27 52  1  0
 29 53  1  0
 29 54  1  0
 29 55  1  0
M  CHG  1   4   1
M  END
>  <score>  (6) 
-8.588

$$$$
=
     RDKit          3D

 55 57  0  0  0  0  0  0  0  0999 V2000
    0.5940   66.1260   69.3070 C   0  0  1  0  0  0  0  0  0  0  0  0
   -0.7360   66.5650   68.7170 C   0  0  0  0  0  0  0  0  0  0  0  0
   -0.3590   67.5110   67.5840 C   0  0  0  0  0  0  0  0  0  0  0  0
    1.0450   67.9830   67.9140 N   0  0  2  0  0  4  0  0  0  0  0  0
    1.4080   67.4070   69.2620 C   0  0  0  0  0  0  0  0  0  0  0  0
    0.4840   65.5610   70.7160 C   0  0  0  0  0  0  0  0  0  0  0  0
   -0.0380   64.2340   70.6100 O   0  0  0  0  0  0  0  0  0  0  0  0
    1.4120   61.7260   73.5450 C   0  0  0  0  0  0  0  0  0  0  0  0
    1.8660   61.5950   72.2320 C   0  0  0  0  0  0  0  0  0  0  0  0
    1.3640   62.4480   71.2460 C   0  0  0  0  0  0  0  0  0  0  0  0
    0.4270   63.4010   71.6110 C   0  0  0  0  0  0  0  0  0  0  0  0
   -0.0210   63.5680   72.8710 N   0  0  0  0  0  0  0  0  0  0  0  0
    0.4810   62.7240   73.8110 C   0  0  0  0  0  0  0  0  0  0  0  0
    1.8810   60.8880   74.6660 C   0  0  0  0  0  0  0  0  0  0  0  0
    1.3670   60.9670   75.7750 O   0  0  0  0  0  0  0  0  0  0  0  0
    3.2120   58.9850   75.3690 N   0  0  0  0  0  0  0  0  0  0  0  0
    3.0230   59.9310   74.5090 C   0  0  0  0  0  0  0  0  0  0  0  0
    4.3390   58.2510   74.9820 O   0  0  0  0  0  0  0  0  0  0  0  0
    1.2710   69.4650   67.8020 C   0  0  0  0  0  0  0  0  0  0  0  0
    2.7290   69.8230   67.8600 C   0  0  0  0  0  0  0  0  0  0  0  0
    3.2770   70.4280   68.9960 C   0  0  0  0  0  0  0  0  0  0  0  0
    4.6480   70.7090   69.0600 C   0  0  0  0  0  0  0  0  0  0  0  0
    5.5030   70.3930   67.9950 C   0  0  0  0  0  0  0  0  0  0  0  0
    4.9550   69.8030   66.8440 C   0  0  0  0  0  0  0  0  0  0  0  0
    3.5810   69.5180   66.7940 C   0  0  0  0  0  0  0  0  0  0  0  0
    5.6060   69.4050   65.7060 O   0  0  0  0  0  0  0  0  0  0  0  0
    4.8480   68.7160   64.7160 C   0  0  0  0  0  0  0  0  0  0  0  0
    6.8550   70.5950   68.0310 O   0  0  0  0  0  0  0  0  0  0  0  0
    7.4570   70.9490   69.2700 C   0  0  0  0  0  0  0  0  0  0  0  0
    1.0449   65.2914   68.7502 H   0  0  0  0  0  0  0  0  0  0  0  0
   -1.2944   65.6995   68.3309 H   0  0  0  0  0  0  0  0  0  0  0  0
   -1.3857   67.0454   69.4634 H   0  0  0  0  0  0  0  0  0  0  0  0
   -0.3721   66.9827   66.6193 H   0  0  0  0  0  0  0  0  0  0  0  0
   -1.0654   68.3494   67.4947 H   0  0  0  0  0  0  0  0  0  0  0  0
    1.6882   67.6299   67.1912 H   0  0  0  0  0  0  0  0  0  0  0  0
    2.4855   67.1949   69.3257 H   0  0  0  0  0  0  0  0  0  0  0  0
    1.1968   68.0884   70.0993 H   0  0  0  0  0  0  0  0  0  0  0  0
    1.4768   65.5369   71.1890 H   0  0  0  0  0  0  0  0  0  0  0  0
   -0.1764   66.1878   71.3332 H   0  0  0  0  0  0  0  0  0  0  0  0
    2.6116   60.8279   71.9759 H   0  0  0  0  0  0  0  0  0  0  0  0
    1.7050   62.3648   70.2035 H   0  0  0  0  0  0  0  0  0  0  0  0
    0.1287   62.8376   74.8468 H   0  0  0  0  0  0  0  0  0  0  0  0
    3.7070   60.0345   73.6538 H   0  0  0  0  0  0  0  0  0  0  0  0
    4.6385   57.4802   75.5262 H   0  0  0  0  0  0  0  0  0  0  0  0
    0.8582   69.8149   66.8443 H   0  0  0  0  0  0  0  0  0  0  0  0
    0.7706   69.9481   68.6542 H   0  0  0  0  0  0  0  0  0  0  0  0
    2.6267   70.6850   69.8452 H   0  0  0  0  0  0  0  0  0  0  0  0
    5.0606   71.1857   69.9614 H   0  0  0  0  0  0  0  0  0  0  0  0
    3.1644   69.0429   65.8936 H   0  0  0  0  0  0  0  0  0  0  0  0
    4.1196   68.0539   65.2069 H   0  0  0  0  0  0  0  0  0  0  0  0
    4.3154   69.4457   64.0883 H   0  0  0  0  0  0  0  0  0  0  0  0
    5.5237   68.1164   64.0883 H   0  0  0  0  0  0  0  0  0  0  0  0
    6.8334   70.5823   70.0987 H   0  0  0  0  0  0  0  0  0  0  0  0
    8.4569   70.4950   69.3348 H   0  0  0  0  0  0  0  0  0  0  0  0
    7.5463   72.0435   69.3348 H   0  0  0  0  0  0  0  0  0  0  0  0
  2  1  1  0
  3  2  1  0
  4  3  1  0
  5  4  1  0
  5  1  1  0
  6  1  1  0
  7  6  1  0
  9  8  2  0
 10  9  1  0
 11  7  1  0
 11 10  2  0
 12 11  1  0
 13 12  2  0
 13  8  1  0
 14  8  1  0
 15 14  2  0
 17 16  2  0
 17 14  1  0
 18 16  1  0
 19  4  1  0
 20 19  1  0
 21 20  2  0
 22 21  1  0
 23 22  2  0
 24 23  1  0
 25 24  2  0
 25 20  1  0
 26 24  1  0
 27 26  1  0
 28 23  1  0
 29 28  1  0
  1 30  1  6
  2 31  1  0
  2 32  1  0
  3 33  1  0
  3 34  1  0
  4 35  1  6
  5 36  1  0
  5 37  1  0
  6 38  1  0
  6 39  1  0
  9 40  1  0
 10 41  1  0
 13 42  1  0
 17 43  1  0
 18 44  1  0
 19 45  1  0
 19 46  1  0
 21 47  1  0
 22 48  1  0
 25 49  1  0
 27 50  1  0
 27 51  1  0
 27 52  1  0
 29 53  1  0
 29 54  1  0
 29 55  1  0
M  CHG  1   4   1
M  END
>  <score>  (7) 
-8.559

$$$$
=
     RDKit          3D

 55 57  0  0  0  0  0  0  0  0999 V2000
    2.6340   62.8260   70.6730 C   0  0  1  0  0  0  0  0  0  0  0  0
    1.4300   62.8270   71.6010 C   0  0  0  0  0  0  0  0  0  0  0  0
    0.4560   63.8090   70.9640 C   0  0  0  0  0  0  0  0  0  0  0  0
    1.3100   64.6920   70.0720 N   0  0  2  0  0  4  0  0  0  0  0  0
    2.7500   64.2910   70.2900 C   0  0  0  0  0  0  0  0  0  0  0  0
    3.9060   62.2950   71.3190 C   0  0  0  0  0  0  0  0  0  0  0  0
    4.1020   60.9580   70.8520 O   0  0  0  0  0  0  0  0  0  0  0  0
    2.5950   58.0800   73.3910 C   0  0  0  0  0  0  0  0  0  0  0  0
    2.5370   57.8880   72.0100 C   0  0  0  0  0  0  0  0  0  0  0  0
    3.0460   58.8730   71.1610 C   0  0  0  0  0  0  0  0  0  0  0  0
    3.5980   60.0120   71.7250 C   0  0  0  0  0  0  0  0  0  0  0  0
    3.6870   60.2230   73.0520 N   0  0  0  0  0  0  0  0  0  0  0  0
    3.1820   59.2520   73.8570 C   0  0  0  0  0  0  0  0  0  0  0  0
    2.0980   57.1030   74.3800 C   0  0  0  0  0  0  0  0  0  0  0  0
    1.8480   57.4390   75.5320 O   0  0  0  0  0  0  0  0  0  0  0  0
    2.6580   54.7500   74.5620 N   0  0  0  0  0  0  0  0  0  0  0  0
    1.9070   55.6590   74.0330 C   0  0  0  0  0  0  0  0  0  0  0  0
    2.2650   53.5020   74.0630 O   0  0  0  0  0  0  0  0  0  0  0  0
    1.0620   66.1690   70.1970 C   0  0  0  0  0  0  0  0  0  0  0  0
    0.4120   66.7420   68.9690 C   0  0  0  0  0  0  0  0  0  0  0  0
   -0.9340   66.4930   68.6860 C   0  0  0  0  0  0  0  0  0  0  0  0
   -1.5430   67.0760   67.5670 C   0  0  0  0  0  0  0  0  0  0  0  0
   -0.8260   67.9200   66.7080 C   0  0  0  0  0  0  0  0  0  0  0  0
    0.5310   68.1580   66.9770 C   0  0  0  0  0  0  0  0  0  0  0  0
    1.1300   67.5760   68.1060 C   0  0  0  0  0  0  0  0  0  0  0  0
    1.4050   68.9520   66.2820 O   0  0  0  0  0  0  0  0  0  0  0  0
    2.6420   69.2810   66.9070 C   0  0  0  0  0  0  0  0  0  0  0  0
   -1.3890   68.5560   65.6360 O   0  0  0  0  0  0  0  0  0  0  0  0
   -2.7930   68.7850   65.6420 C   0  0  0  0  0  0  0  0  0  0  0  0
    2.5025   62.1502   69.8151 H   0  0  0  0  0  0  0  0  0  0  0  0
    0.9853   61.8227   71.6615 H   0  0  0  0  0  0  0  0  0  0  0  0
    1.6961   63.1109   72.6299 H   0  0  0  0  0  0  0  0  0  0  0  0
   -0.2982   63.2734   70.3687 H   0  0  0  0  0  0  0  0  0  0  0  0
   -0.0922   64.3929   71.7180 H   0  0  0  0  0  0  0  0  0  0  0  0
    1.0386   64.5288   69.0919 H   0  0  0  0  0  0  0  0  0  0  0  0
    3.3400   64.4150   69.3699 H   0  0  0  0  0  0  0  0  0  0  0  0
    3.2632   64.9011   71.0479 H   0  0  0  0  0  0  0  0  0  0  0  0
    4.7628   62.9222   71.0315 H   0  0  0  0  0  0  0  0  0  0  0  0
    3.8190   62.3125   72.4154 H   0  0  0  0  0  0  0  0  0  0  0  0
    2.0950   56.9704   71.5945 H   0  0  0  0  0  0  0  0  0  0  0  0
    3.0096   58.7475   70.0688 H   0  0  0  0  0  0  0  0  0  0  0  0
    3.2410   59.4019   74.9451 H   0  0  0  0  0  0  0  0  0  0  0  0
    1.1201   55.3692   73.3211 H   0  0  0  0  0  0  0  0  0  0  0  0
    2.7323   52.6810   74.3592 H   0  0  0  0  0  0  0  0  0  0  0  0
    0.4045   66.3458   71.0610 H   0  0  0  0  0  0  0  0  0  0  0  0
    2.0354   66.6649   70.3262 H   0  0  0  0  0  0  0  0  0  0  0  0
   -1.5187   65.8353   69.3459 H   0  0  0  0  0  0  0  0  0  0  0  0
   -2.6028   66.8676   67.3589 H   0  0  0  0  0  0  0  0  0  0  0  0
    2.1900   67.7811   68.3167 H   0  0  0  0  0  0  0  0  0  0  0  0
    2.5207   69.2487   67.9998 H   0  0  0  0  0  0  0  0  0  0  0  0
    3.4111   68.5562   66.6019 H   0  0  0  0  0  0  0  0  0  0  0  0
    2.9494   70.2921   66.6019 H   0  0  0  0  0  0  0  0  0  0  0  0
   -3.1506   68.8433   66.6806 H   0  0  0  0  0  0  0  0  0  0  0  0
   -3.0125   69.7308   65.1250 H   0  0  0  0  0  0  0  0  0  0  0  0
   -3.3016   67.9579   65.1250 H   0  0  0  0  0  0  0  0  0  0  0  0
  2  1  1  0
  3  2  1  0
  4  3  1  0
  5  4  1  0
  5  1  1  0
  6  1  1  0
  7  6  1  0
  9  8  2  0
 10  9  1  0
 11  7  1  0
 11 10  2  0
 12 11  1  0
 13 12  2  0
 13  8  1  0
 14  8  1  0
 15 14  2  0
 17 16  2  0
 17 14  1  0
 18 16  1  0
 19  4  1  0
 20 19  1  0
 21 20  2  0
 22 21  1  0
 23 22  2  0
 24 23  1  0
 25 24  2  0
 25 20  1  0
 26 24  1  0
 27 26  1  0
 28 23  1  0
 29 28  1  0
  1 30  1  6
  2 31  1  0
  2 32  1  0
  3 33  1  0
  3 34  1  0
  4 35  1  6
  5 36  1  0
  5 37  1  0
  6 38  1  0
  6 39  1  0
  9 40  1  0
 10 41  1  0
 13 42  1  0
 17 43  1  0
 18 44  1  0
 19 45  1  0
 19 46  1  0
 21 47  1  0
 22 48  1  0
 25 49  1  0
 27 50  1  0
 27 51  1  0
 27 52  1  0
 29 53  1  0
 29 54  1  0
 29 55  1  0
M  CHG  1   4   1
M  END
>  <score>  (8) 
-8.499

$$$$
=
     RDKit          3D

 55 57  0  0  0  0  0  0  0  0999 V2000
    0.0420   67.6870   67.5520 C   0  0  1  0  0  0  0  0  0  0  0  0
    1.1110   68.3390   68.4140 C   0  0  0  0  0  0  0  0  0  0  0  0
    1.5480   67.2430   69.3770 C   0  0  0  0  0  0  0  0  0  0  0  0
    0.3960   66.2540   69.3990 N   0  0  2  0  0  4  0  0  0  0  0  0
   -0.7130   66.8370   68.5580 C   0  0  0  0  0  0  0  0  0  0  0  0
   -0.8630   68.6820   66.8400 C   0  0  0  0  0  0  0  0  0  0  0  0
   -0.8580   68.3540   65.4480 O   0  0  0  0  0  0  0  0  0  0  0  0
    2.9010   67.3330   64.0950 C   0  0  0  0  0  0  0  0  0  0  0  0
    2.4460   68.6450   63.9600 C   0  0  0  0  0  0  0  0  0  0  0  0
    1.1690   68.9770   64.4190 C   0  0  0  0  0  0  0  0  0  0  0  0
    0.3940   67.9830   64.9960 C   0  0  0  0  0  0  0  0  0  0  0  0
    0.8070   66.7110   65.1580 N   0  0  0  0  0  0  0  0  0  0  0  0
    2.0520   66.4140   64.7020 C   0  0  0  0  0  0  0  0  0  0  0  0
    4.2330   66.8740   63.6560 C   0  0  0  0  0  0  0  0  0  0  0  0
    5.0250   67.6440   63.1260 O   0  0  0  0  0  0  0  0  0  0  0  0
    4.3220   64.5600   62.9330 N   0  0  0  0  0  0  0  0  0  0  0  0
    4.6640   65.4480   63.8080 C   0  0  0  0  0  0  0  0  0  0  0  0
    4.8540   63.3250   63.3210 O   0  0  0  0  0  0  0  0  0  0  0  0
   -0.0440   65.8060   70.7650 C   0  0  0  0  0  0  0  0  0  0  0  0
    0.6490   64.5460   71.2000 C   0  0  0  0  0  0  0  0  0  0  0  0
    1.8930   64.1890   70.6710 C   0  0  0  0  0  0  0  0  0  0  0  0
    2.5550   63.0400   71.1230 C   0  0  0  0  0  0  0  0  0  0  0  0
    1.9930   62.2220   72.1140 C   0  0  0  0  0  0  0  0  0  0  0  0
    0.7350   62.5660   72.6350 C   0  0  0  0  0  0  0  0  0  0  0  0
    0.0840   63.7240   72.1810 C   0  0  0  0  0  0  0  0  0  0  0  0
    0.0180   61.9200   73.6080 O   0  0  0  0  0  0  0  0  0  0  0  0
   -1.1970   61.2840   73.2240 C   0  0  0  0  0  0  0  0  0  0  0  0
    2.6230   61.1230   72.6280 O   0  0  0  0  0  0  0  0  0  0  0  0
    2.7900   59.9830   71.7940 C   0  0  0  0  0  0  0  0  0  0  0  0
    0.4686   67.1133   66.7160 H   0  0  0  0  0  0  0  0  0  0  0  0
    1.9575   68.6736   67.7963 H   0  0  0  0  0  0  0  0  0  0  0  0
    0.7378   69.2311   68.9383 H   0  0  0  0  0  0  0  0  0  0  0  0
    2.4673   66.7573   69.0179 H   0  0  0  0  0  0  0  0  0  0  0  0
    1.7707   67.6390   70.3788 H   0  0  0  0  0  0  0  0  0  0  0  0
    0.7196   65.3640   68.9938 H   0  0  0  0  0  0  0  0  0  0  0  0
   -1.2880   66.0451   68.0558 H   0  0  0  0  0  0  0  0  0  0  0  0
   -1.4512   67.4055   69.1427 H   0  0  0  0  0  0  0  0  0  0  0  0
   -1.8858   68.6101   67.2384 H   0  0  0  0  0  0  0  0  0  0  0  0
   -0.5036   69.7100   66.9953 H   0  0  0  0  0  0  0  0  0  0  0  0
    3.0863   69.4102   63.4969 H   0  0  0  0  0  0  0  0  0  0  0  0
    0.7870   70.0042   64.3247 H   0  0  0  0  0  0  0  0  0  0  0  0
    2.4111   65.3811   64.8205 H   0  0  0  0  0  0  0  0  0  0  0  0
    5.2773   65.1533   64.6723 H   0  0  0  0  0  0  0  0  0  0  0  0
    4.6936   62.5207   62.7664 H   0  0  0  0  0  0  0  0  0  0  0  0
    0.1823   66.6027   71.4890 H   0  0  0  0  0  0  0  0  0  0  0  0
   -1.1235   65.5995   70.7210 H   0  0  0  0  0  0  0  0  0  0  0  0
    2.3556   64.8152   69.8939 H   0  0  0  0  0  0  0  0  0  0  0  0
    3.5323   62.7749   70.6933 H   0  0  0  0  0  0  0  0  0  0  0  0
   -0.8942   63.9916   72.6070 H   0  0  0  0  0  0  0  0  0  0  0  0
   -1.7576   60.9906   74.1238 H   0  0  0  0  0  0  0  0  0  0  0  0
   -1.8025   61.9808   72.6258 H   0  0  0  0  0  0  0  0  0  0  0  0
   -0.9694   60.3894   72.6258 H   0  0  0  0  0  0  0  0  0  0  0  0
    2.9212   59.0874   72.4191 H   0  0  0  0  0  0  0  0  0  0  0  0
    1.9003   59.8598   71.1590 H   0  0  0  0  0  0  0  0  0  0  0  0
    3.6776   60.1201   71.1590 H   0  0  0  0  0  0  0  0  0  0  0  0
  2  1  1  0
  3  2  1  0
  4  3  1  0
  5  4  1  0
  5  1  1  0
  6  1  1  0
  7  6  1  0
  9  8  2  0
 10  9  1  0
 11  7  1  0
 11 10  2  0
 12 11  1  0
 13 12  2  0
 13  8  1  0
 14  8  1  0
 15 14  2  0
 17 16  2  0
 17 14  1  0
 18 16  1  0
 19  4  1  0
 20 19  1  0
 21 20  2  0
 22 21  1  0
 23 22  2  0
 24 23  1  0
 25 24  2  0
 25 20  1  0
 26 24  1  0
 27 26  1  0
 28 23  1  0
 29 28  1  0
  1 30  1  6
  2 31  1  0
  2 32  1  0
  3 33  1  0
  3 34  1  0
  4 35  1  6
  5 36  1  0
  5 37  1  0
  6 38  1  0
  6 39  1  0
  9 40  1  0
 10 41  1  0
 13 42  1  0
 17 43  1  0
 18 44  1  0
 19 45  1  0
 19 46  1  0
 21 47  1  0
 22 48  1  0
 25 49  1  0
 27 50  1  0
 27 51  1  0
 27 52  1  0
 29 53  1  0
 29 54  1  0
 29 55  1  0
M  CHG  1   4   1
M  END
>  <score>  (9) 
-8.318

$$$$
