=
     RDKit          3D

 40 41  0  0  0  0  0  0  0  0999 V2000
    1.2460   63.3560   71.4430 C   0  0  0  0  0  0  0  0  0  0  0  0
    1.4260   63.8140   72.5680 O   0  0  0  0  0  0  0  0  0  0  0  0
    1.5350   62.0970   70.9920 N   0  0  0  0  0  0  0  0  0  0  0  0
    2.0410   60.9780   71.6860 C   0  0  0  0  0  0  0  0  0  0  0  0
    1.3170   60.3350   72.6970 C   0  0  0  0  0  0  0  0  0  0  0  0
    1.8480   59.2300   73.3650 C   0  0  0  0  0  0  0  0  0  0  0  0
    3.1110   58.7530   73.0280 C   0  0  0  0  0  0  0  0  0  0  0  0
    3.8400   59.3830   72.0200 C   0  0  0  0  0  0  0  0  0  0  0  0
    3.3270   60.4990   71.3300 C   0  0  0  0  0  0  0  0  0  0  0  0
    4.1660   61.1370   70.2310 C   0  0  0  0  0  0  0  0  0  0  0  0
    4.4890   60.3990   69.2380 O   0  0  0  0  0  0  0  0  0  0  0  0
    4.4940   62.3570   70.3700 O   0  0  0  0  0  1  0  0  0  0  0  0
    0.9660   65.5840   70.3350 C   0  0  0  0  0  0  0  0  0  0  0  0
    0.6990   64.2710   70.3980 C   0  0  0  0  0  0  0  0  0  0  0  0
    0.7390   68.4270   67.8820 C   0  0  0  0  0  0  0  0  0  0  0  0
    1.2080   67.5430   68.8610 C   0  0  0  0  0  0  0  0  0  0  0  0
    0.4060   66.4900   69.3260 C   0  0  0  0  0  0  0  0  0  0  0  0
   -0.8680   66.3160   68.7810 C   0  0  0  0  0  0  0  0  0  0  0  0
   -1.3460   67.1910   67.8020 C   0  0  0  0  0  0  0  0  0  0  0  0
   -0.5530   68.2500   67.3470 C   0  0  0  0  0  0  0  0  0  0  0  0
    2.6440   69.1790   66.6550 C   0  0  0  0  0  0  0  0  0  0  0  0
    1.4610   69.4860   67.3830 O   0  0  0  0  0  0  0  0  0  0  0  0
   -0.9440   69.1560   66.3910 O   0  0  0  0  0  0  0  0  0  0  0  0
   -2.1570   68.9010   65.7010 C   0  0  0  0  0  0  0  0  0  0  0  0
    1.3551   61.9422   69.9897 H   0  0  0  0  0  0  0  0  0  0  0  0
    0.3173   60.7050   72.9685 H   0  0  0  0  0  0  0  0  0  0  0  0
    1.2676   58.7361   74.1582 H   0  0  0  0  0  0  0  0  0  0  0  0
    3.5321   57.8835   73.5540 H   0  0  0  0  0  0  0  0  0  0  0  0
    4.8374   59.0003   71.7579 H   0  0  0  0  0  0  0  0  0  0  0  0
    1.6476   66.0081   71.0870 H   0  0  0  0  0  0  0  0  0  0  0  0
    0.0360   63.8420   69.6323 H   0  0  0  0  0  0  0  0  0  0  0  0
    2.2198   67.6759   69.2715 H   0  0  0  0  0  0  0  0  0  0  0  0
   -1.4999   65.4839   69.1250 H   0  0  0  0  0  0  0  0  0  0  0  0
   -2.3538   67.0460   67.3857 H   0  0  0  0  0  0  0  0  0  0  0  0
    3.4626   68.9666   67.3584 H   0  0  0  0  0  0  0  0  0  0  0  0
    2.4665   68.2972   66.0219 H   0  0  0  0  0  0  0  0  0  0  0  0
    2.9177   70.0359   66.0219 H   0  0  0  0  0  0  0  0  0  0  0  0
   -2.9642   68.7313   66.4288 H   0  0  0  0  0  0  0  0  0  0  0  0
   -2.4085   69.7659   65.0696 H   0  0  0  0  0  0  0  0  0  0  0  0
   -2.0389   68.0080   65.0696 H   0  0  0  0  0  0  0  0  0  0  0  0
  2  1  2  0
  3  1  1  0
  4  3  1  0
  5  4  2  0
  6  5  1  0
  7  6  2  0
  8  7  1  0
  9  8  2  0
  9  4  1  0
 10  9  1  0
 11 10  2  0
 12 10  1  0
 14  1  1  0
 14 13  2  0
 16 15  2  0
 17 16  1  0
 17 13  1  0
 18 17  2  0
 19 18  1  0
 20 19  2  0
 20 15  1  0
 22 21  1  0
 22 15  1  0
 23 20  1  0
 24 23  1  0
  3 25  1  0
  5 26  1  0
  6 27  1  0
  7 28  1  0
  8 29  1  0
 13 30  1  0
 14 31  1  0
 16 32  1  0
 18 33  1  0
 19 34  1  0
 21 35  1  0
 21 36  1  0
 21 37  1  0
 24 38  1  0
 24 39  1  0
 24 40  1  0
M  CHG  1  12  -1
M  END
>  <score>  (1) 
-8.3

$$$$
=
     RDKit          3D

 40 41  0  0  0  0  0  0  0  0999 V2000
    0.1790   63.9830   71.8390 C   0  0  0  0  0  0  0  0  0  0  0  0
   -0.0280   64.5570   72.9050 O   0  0  0  0  0  0  0  0  0  0  0  0
    0.1540   62.6380   71.5900 N   0  0  0  0  0  0  0  0  0  0  0  0
   -0.1760   61.5630   72.4410 C   0  0  0  0  0  0  0  0  0  0  0  0
   -1.4440   61.4290   73.0190 C   0  0  0  0  0  0  0  0  0  0  0  0
   -1.7370   60.3520   73.8590 C   0  0  0  0  0  0  0  0  0  0  0  0
   -0.7650   59.3950   74.1300 C   0  0  0  0  0  0  0  0  0  0  0  0
    0.5010   59.5150   73.5570 C   0  0  0  0  0  0  0  0  0  0  0  0
    0.8220   60.5910   72.7050 C   0  0  0  0  0  0  0  0  0  0  0  0
    2.2190   60.6630   72.1010 C   0  0  0  0  0  0  0  0  0  0  0  0
    2.6230   59.6450   71.4410 O   0  0  0  0  0  0  0  0  0  0  0  0
    2.8920   61.7230   72.2930 O   0  0  0  0  0  1  0  0  0  0  0  0
    0.0870   66.0490   70.4280 C   0  0  0  0  0  0  0  0  0  0  0  0
    0.5640   64.8170   70.6630 C   0  0  0  0  0  0  0  0  0  0  0  0
   -0.1860   67.6760   67.0470 C   0  0  0  0  0  0  0  0  0  0  0  0
   -0.4580   66.9030   68.1820 C   0  0  0  0  0  0  0  0  0  0  0  0
    0.4430   66.8590   69.2570 C   0  0  0  0  0  0  0  0  0  0  0  0
    1.6120   67.6190   69.1940 C   0  0  0  0  0  0  0  0  0  0  0  0
    1.8940   68.3960   68.0670 C   0  0  0  0  0  0  0  0  0  0  0  0
    1.0030   68.4300   66.9870 C   0  0  0  0  0  0  0  0  0  0  0  0
   -2.1450   68.6180   66.0600 C   0  0  0  0  0  0  0  0  0  0  0  0
   -1.0130   67.7630   65.9520 O   0  0  0  0  0  0  0  0  0  0  0  0
    1.2010   69.1640   65.8430 O   0  0  0  0  0  0  0  0  0  0  0  0
    2.2770   68.7870   64.9990 C   0  0  0  0  0  0  0  0  0  0  0  0
    0.4173   62.3685   70.6314 H   0  0  0  0  0  0  0  0  0  0  0  0
   -2.2190   62.1809   72.8092 H   0  0  0  0  0  0  0  0  0  0  0  0
   -2.7377   60.2608   74.3066 H   0  0  0  0  0  0  0  0  0  0  0  0
   -0.9935   58.5475   74.7930 H   0  0  0  0  0  0  0  0  0  0  0  0
    1.2649   58.7540   73.7746 H   0  0  0  0  0  0  0  0  0  0  0  0
   -0.6144   66.4786   71.1584 H   0  0  0  0  0  0  0  0  0  0  0  0
    1.2829   64.3960   69.9447 H   0  0  0  0  0  0  0  0  0  0  0  0
   -1.3908   66.3221   68.2319 H   0  0  0  0  0  0  0  0  0  0  0  0
    2.3171   67.6063   70.0382 H   0  0  0  0  0  0  0  0  0  0  0  0
    2.8222   68.9849   68.0280 H   0  0  0  0  0  0  0  0  0  0  0  0
   -2.3739   68.7909   67.1219 H   0  0  0  0  0  0  0  0  0  0  0  0
   -1.9268   69.5788   65.5708 H   0  0  0  0  0  0  0  0  0  0  0  0
   -3.0095   68.1454   65.5708 H   0  0  0  0  0  0  0  0  0  0  0  0
    3.1375   68.4855   65.6144 H   0  0  0  0  0  0  0  0  0  0  0  0
    1.9670   67.9439   64.3641 H   0  0  0  0  0  0  0  0  0  0  0  0
    2.5609   69.6392   64.3641 H   0  0  0  0  0  0  0  0  0  0  0  0
  2  1  2  0
  3  1  1  0
  4  3  1  0
  5  4  2  0
  6  5  1  0
  7  6  2  0
  8  7  1  0
  9  8  2  0
  9  4  1  0
 10  9  1  0
 11 10  2  0
 12 10  1  0
 14  1  1  0
 14 13  2  0
 16 15  2  0
 17 16  1  0
 17 13  1  0
 18 17  2  0
 19 18  1  0
 20 19  2  0
 20 15  1  0
 22 21  1  0
 22 15  1  0
 23 20  1  0
 24 23  1  0
  3 25  1  0
  5 26  1  0
  6 27  1  0
  7 28  1  0
  8 29  1  0
 13 30  1  0
 14 31  1  0
 16 32  1  0
 18 33  1  0
 19 34  1  0
 21 35  1  0
 21 36  1  0
 21 37  1  0
 24 38  1  0
 24 39  1  0
 24 40  1  0
M  CHG  1  12  -1
M  END
>  <score>  (2) 
-8.195

$$$$
=
     RDKit          3D

 40 41  0  0  0  0  0  0  0  0999 V2000
    0.1280   67.9770   67.1430 C   0  0  0  0  0  0  0  0  0  0  0  0
   -0.1570   69.1470   67.3820 O   0  0  0  0  0  0  0  0  0  0  0  0
    0.4720   67.4240   65.9400 N   0  0  0  0  0  0  0  0  0  0  0  0
    0.6610   68.0330   64.6820 C   0  0  0  0  0  0  0  0  0  0  0  0
   -0.3010   68.8710   64.1050 C   0  0  0  0  0  0  0  0  0  0  0  0
   -0.0820   69.4570   62.8560 C   0  0  0  0  0  0  0  0  0  0  0  0
    1.1040   69.2130   62.1710 C   0  0  0  0  0  0  0  0  0  0  0  0
    2.0710   68.3830   62.7370 C   0  0  0  0  0  0  0  0  0  0  0  0
    1.8760   67.7810   63.9960 C   0  0  0  0  0  0  0  0  0  0  0  0
    2.9730   66.8930   64.5680 C   0  0  0  0  0  0  0  0  0  0  0  0
    2.6100   65.8030   65.1280 O   0  0  0  0  0  0  0  0  0  0  0  0
    4.1740   67.2920   64.4550 O   0  0  0  0  0  1  0  0  0  0  0  0
    1.0400   66.7610   69.1330 C   0  0  0  0  0  0  0  0  0  0  0  0
    0.0440   66.9970   68.2670 C   0  0  0  0  0  0  0  0  0  0  0  0
    1.9220   63.7940   71.2730 C   0  0  0  0  0  0  0  0  0  0  0  0
    1.9240   64.7490   70.2490 C   0  0  0  0  0  0  0  0  0  0  0  0
    0.9700   65.7770   70.2200 C   0  0  0  0  0  0  0  0  0  0  0  0
    0.0250   65.8550   71.2450 C   0  0  0  0  0  0  0  0  0  0  0  0
    0.0140   64.9090   72.2740 C   0  0  0  0  0  0  0  0  0  0  0  0
    0.9570   63.8740   72.2960 C   0  0  0  0  0  0  0  0  0  0  0  0
    2.7410   61.7430   70.3660 C   0  0  0  0  0  0  0  0  0  0  0  0
    2.8170   62.7540   71.3640 O   0  0  0  0  0  0  0  0  0  0  0  0
    1.0180   62.9030   73.2660 O   0  0  0  0  0  0  0  0  0  0  0  0
    1.3510   63.3110   74.5830 C   0  0  0  0  0  0  0  0  0  0  0  0
    0.6153   66.4041   65.9553 H   0  0  0  0  0  0  0  0  0  0  0  0
   -1.2403   69.0702   64.6416 H   0  0  0  0  0  0  0  0  0  0  0  0
   -0.8476   70.1116   62.4140 H   0  0  0  0  0  0  0  0  0  0  0  0
    1.2782   69.6729   61.1870 H   0  0  0  0  0  0  0  0  0  0  0  0
    3.0059   68.1942   62.1890 H   0  0  0  0  0  0  0  0  0  0  0  0
    1.9679   67.3412   69.0219 H   0  0  0  0  0  0  0  0  0  0  0  0
   -0.8928   66.4342   68.3920 H   0  0  0  0  0  0  0  0  0  0  0  0
    2.6844   64.6923   69.4561 H   0  0  0  0  0  0  0  0  0  0  0  0
   -0.7167   66.6673   71.2427 H   0  0  0  0  0  0  0  0  0  0  0  0
   -0.7403   64.9780   73.0717 H   0  0  0  0  0  0  0  0  0  0  0  0
    2.6669   60.7569   70.8479 H   0  0  0  0  0  0  0  0  0  0  0  0
    1.8531   61.9125   69.7392 H   0  0  0  0  0  0  0  0  0  0  0  0
    3.6443   61.7778   69.7392 H   0  0  0  0  0  0  0  0  0  0  0  0
    0.8282   62.6705   75.3085 H   0  0  0  0  0  0  0  0  0  0  0  0
    2.4373   63.2216   74.7309 H   0  0  0  0  0  0  0  0  0  0  0  0
    1.0457   64.3574   74.7309 H   0  0  0  0  0  0  0  0  0  0  0  0
  2  1  2  0
  3  1  1  0
  4  3  1  0
  5  4  2  0
  6  5  1  0
  7  6  2  0
  8  7  1  0
  9  8  2  0
  9  4  1  0
 10  9  1  0
 11 10  2  0
 12 10  1  0
 14  1  1  0
 14 13  2  0
 16 15  2  0
 17 16  1  0
 17 13  1  0
 18 17  2  0
 19 18  1  0
 20 19  2  0
 20 15  1  0
 22 21  1  0
 22 15  1  0
 23 20  1  0
 24 23  1  0
  3 25  1  0
  5 26  1  0
  6 27  1  0
  7 28  1  0
  8 29  1  0
 13 30  1  0
 14 31  1  0
 16 32  1  0
 18 33  1  0
 19 34  1  0
 21 35  1  0
 21 36  1  0
 21 37  1  0
 24 38  1  0
 24 39  1  0
 24 40  1  0
M  CHG  1  12  -1
M  END
>  <score>  (3) 
-8.122

$$$$
=
     RDKit          3D

 40 41  0  0  0  0  0  0  0  0999 V2000
    1.1000   66.8110   69.2190 C   0  0  0  0  0  0  0  0  0  0  0  0
    1.4440   67.9520   69.5150 O   0  0  0  0  0  0  0  0  0  0  0  0
    0.1250   66.4290   68.3400 N   0  0  0  0  0  0  0  0  0  0  0  0
   -0.6920   67.2080   67.4950 C   0  0  0  0  0  0  0  0  0  0  0  0
   -2.0720   67.3350   67.6990 C   0  0  0  0  0  0  0  0  0  0  0  0
   -2.8520   68.1130   66.8410 C   0  0  0  0  0  0  0  0  0  0  0  0
   -2.2620   68.7750   65.7700 C   0  0  0  0  0  0  0  0  0  0  0  0
   -0.8880   68.6590   65.5590 C   0  0  0  0  0  0  0  0  0  0  0  0
   -0.0780   67.8810   66.4090 C   0  0  0  0  0  0  0  0  0  0  0  0
    1.4180   67.8020   66.1340 C   0  0  0  0  0  0  0  0  0  0  0  0
    2.0900   68.8850   66.2360 O   0  0  0  0  0  0  0  0  0  0  0  0
    1.9020   66.6700   65.8200 O   0  0  0  0  0  1  0  0  0  0  0  0
    1.1120   64.7450   70.6350 C   0  0  0  0  0  0  0  0  0  0  0  0
    1.7660   65.6790   69.9270 C   0  0  0  0  0  0  0  0  0  0  0  0
    3.4850   61.9170   71.3550 C   0  0  0  0  0  0  0  0  0  0  0  0
    2.8060   62.9580   70.7120 C   0  0  0  0  0  0  0  0  0  0  0  0
    1.7680   63.6480   71.3550 C   0  0  0  0  0  0  0  0  0  0  0  0
    1.4320   63.3000   72.6650 C   0  0  0  0  0  0  0  0  0  0  0  0
    2.1040   62.2640   73.3190 C   0  0  0  0  0  0  0  0  0  0  0  0
    3.1300   61.5650   72.6720 C   0  0  0  0  0  0  0  0  0  0  0  0
    4.2200   60.5150   69.5680 C   0  0  0  0  0  0  0  0  0  0  0  0
    4.5050   61.1890   70.7870 O   0  0  0  0  0  0  0  0  0  0  0  0
    3.8410   60.5340   73.2390 O   0  0  0  0  0  0  0  0  0  0  0  0
    3.2030   59.2710   73.3350 C   0  0  0  0  0  0  0  0  0  0  0  0
   -0.0383   65.4134   68.2867 H   0  0  0  0  0  0  0  0  0  0  0  0
   -2.5467   66.8159   68.5447 H   0  0  0  0  0  0  0  0  0  0  0  0
   -3.9349   68.2023   67.0126 H   0  0  0  0  0  0  0  0  0  0  0  0
   -2.8756   69.3871   65.0926 H   0  0  0  0  0  0  0  0  0  0  0  0
   -0.4273   69.1864   64.7107 H   0  0  0  0  0  0  0  0  0  0  0  0
    0.0145   64.8059   70.6781 H   0  0  0  0  0  0  0  0  0  0  0  0
    2.8618   65.6053   69.8648 H   0  0  0  0  0  0  0  0  0  0  0  0
    3.0905   63.2392   69.6873 H   0  0  0  0  0  0  0  0  0  0  0  0
    0.6318   63.8459   73.1863 H   0  0  0  0  0  0  0  0  0  0  0  0
    1.8251   61.9960   74.3487 H   0  0  0  0  0  0  0  0  0  0  0  0
    3.8002   59.5222   69.7874 H   0  0  0  0  0  0  0  0  0  0  0  0
    3.4924   61.1005   68.9867 H   0  0  0  0  0  0  0  0  0  0  0  0
    5.1469   60.4009   68.9867 H   0  0  0  0  0  0  0  0  0  0  0  0
    3.0697   59.0071   74.3945 H   0  0  0  0  0  0  0  0  0  0  0  0
    2.2206   59.3181   72.8425 H   0  0  0  0  0  0  0  0  0  0  0  0
    3.8239   58.5082   72.8425 H   0  0  0  0  0  0  0  0  0  0  0  0
  2  1  2  0
  3  1  1  0
  4  3  1  0
  5  4  2  0
  6  5  1  0
  7  6  2  0
  8  7  1  0
  9  8  2  0
  9  4  1  0
 10  9  1  0
 11 10  2  0
 12 10  1  0
 14  1  1  0
 14 13  2  0
 16 15  2  0
 17 16  1  0
 17 13  1  0
 18 17  2  0
 19 18  1  0
 20 19  2  0
 20 15  1  0
 22 21  1  0
 22 15  1  0
 23 20  1  0
 24 23  1  0
  3 25  1  0
  5 26  1  0
  6 27  1  0
  7 28  1  0
  8 29  1  0
 13 30  1  0
 14 31  1  0
 16 32  1  0
 18 33  1  0
 19 34  1  0
 21 35  1  0
 21 36  1  0
 21 37  1  0
 24 38  1  0
 24 39  1  0
 24 40  1  0
M  CHG  1  12  -1
M  END
>  <score>  (4) 
-8.115

$$$$
=
     RDKit          3D

 40 41  0  0  0  0  0  0  0  0999 V2000
    1.4250   67.3300   68.8200 C   0  0  0  0  0  0  0  0  0  0  0  0
    1.8870   68.4090   69.1810 O   0  0  0  0  0  0  0  0  0  0  0  0
    1.0990   66.9380   67.5510 N   0  0  0  0  0  0  0  0  0  0  0  0
    1.2610   67.6110   66.3220 C   0  0  0  0  0  0  0  0  0  0  0  0
    2.5080   67.7390   65.6990 C   0  0  0  0  0  0  0  0  0  0  0  0
    2.6340   68.4140   64.4830 C   0  0  0  0  0  0  0  0  0  0  0  0
    1.5120   68.9660   63.8740 C   0  0  0  0  0  0  0  0  0  0  0  0
    0.2630   68.8410   64.4830 C   0  0  0  0  0  0  0  0  0  0  0  0
    0.1090   68.1650   65.7090 C   0  0  0  0  0  0  0  0  0  0  0  0
   -1.2820   68.0520   66.3200 C   0  0  0  0  0  0  0  0  0  0  0  0
   -2.0270   69.0900   66.2710 O   0  0  0  0  0  0  0  0  0  0  0  0
   -1.6110   66.9400   66.8380 O   0  0  0  0  0  1  0  0  0  0  0  0
    1.8500   65.2210   70.1020 C   0  0  0  0  0  0  0  0  0  0  0  0
    1.1140   66.3200   69.8740 C   0  0  0  0  0  0  0  0  0  0  0  0
    2.1660   62.1450   72.2450 C   0  0  0  0  0  0  0  0  0  0  0  0
    2.4060   63.1280   71.2770 C   0  0  0  0  0  0  0  0  0  0  0  0
    1.5300   64.2120   71.1180 C   0  0  0  0  0  0  0  0  0  0  0  0
    0.4190   64.3160   71.9580 C   0  0  0  0  0  0  0  0  0  0  0  0
    0.1710   63.3420   72.9290 C   0  0  0  0  0  0  0  0  0  0  0  0
    1.0360   62.2520   73.0800 C   0  0  0  0  0  0  0  0  0  0  0  0
    4.2770   61.2940   72.9650 C   0  0  0  0  0  0  0  0  0  0  0  0
    2.9730   61.0510   72.4540 O   0  0  0  0  0  0  0  0  0  0  0  0
    0.8680   61.2510   74.0060 O   0  0  0  0  0  0  0  0  0  0  0  0
   -0.2880   60.4360   73.8890 C   0  0  0  0  0  0  0  0  0  0  0  0
    0.6676   66.0052   67.4819 H   0  0  0  0  0  0  0  0  0  0  0  0
    3.3995   67.3026   66.1731 H   0  0  0  0  0  0  0  0  0  0  0  0
    3.6209   68.5092   64.0067 H   0  0  0  0  0  0  0  0  0  0  0  0
    1.6089   69.4987   62.9165 H   0  0  0  0  0  0  0  0  0  0  0  0
   -0.6201   69.2796   63.9954 H   0  0  0  0  0  0  0  0  0  0  0  0
    2.7499   65.0671   69.4884 H   0  0  0  0  0  0  0  0  0  0  0  0
    0.2269   66.4866   70.5027 H   0  0  0  0  0  0  0  0  0  0  0  0
    3.2938   63.0490   70.6323 H   0  0  0  0  0  0  0  0  0  0  0  0
   -0.2657   65.1707   71.8545 H   0  0  0  0  0  0  0  0  0  0  0  0
   -0.7111   63.4327   73.5799 H   0  0  0  0  0  0  0  0  0  0  0  0
    4.2469   61.2884   74.0646 H   0  0  0  0  0  0  0  0  0  0  0  0
    4.9612   60.5079   72.6129 H   0  0  0  0  0  0  0  0  0  0  0  0
    4.6321   62.2738   72.6129 H   0  0  0  0  0  0  0  0  0  0  0  0
   -0.6565   60.1762   74.8923 H   0  0  0  0  0  0  0  0  0  0  0  0
   -1.0692   60.9841   73.3420 H   0  0  0  0  0  0  0  0  0  0  0  0
   -0.0342   59.5160   73.3420 H   0  0  0  0  0  0  0  0  0  0  0  0
  2  1  2  0
  3  1  1  0
  4  3  1  0
  5  4  2  0
  6  5  1  0
  7  6  2  0
  8  7  1  0
  9  8  2  0
  9  4  1  0
 10  9  1  0
 11 10  2  0
 12 10  1  0
 14  1  1  0
 14 13  2  0
 16 15  2  0
 17 16  1  0
 17 13  1  0
 18 17  2  0
 19 18  1  0
 20 19  2  0
 20 15  1  0
 22 21  1  0
 22 15  1  0
 23 20  1  0
 24 23  1  0
  3 25  1  0
  5 26  1  0
  6 27  1  0
  7 28  1  0
  8 29  1  0
 13 30  1  0
 14 31  1  0
 16 32  1  0
 18 33  1  0
 19 34  1  0
 21 35  1  0
 21 36  1  0
 21 37  1  0
 24 38  1  0
 24 39  1  0
 24 40  1  0
M  CHG  1  12  -1
M  END
>  <score>  (5) 
-8.014

$$$$
=
     RDKit          3D

 40 41  0  0  0  0  0  0  0  0999 V2000
    1.2520   66.5400   69.3170 C   0  0  0  0  0  0  0  0  0  0  0  0
    1.4350   67.4540   70.1160 O   0  0  0  0  0  0  0  0  0  0  0  0
    1.2040   65.1970   69.5720 N   0  0  0  0  0  0  0  0  0  0  0  0
    1.2780   64.5030   70.7980 C   0  0  0  0  0  0  0  0  0  0  0  0
    0.3130   64.6540   71.8020 C   0  0  0  0  0  0  0  0  0  0  0  0
    0.4170   63.9520   73.0050 C   0  0  0  0  0  0  0  0  0  0  0  0
    1.4870   63.0890   73.2170 C   0  0  0  0  0  0  0  0  0  0  0  0
    2.4520   62.9270   72.2230 C   0  0  0  0  0  0  0  0  0  0  0  0
    2.3700   63.6220   71.0000 C   0  0  0  0  0  0  0  0  0  0  0  0
    3.4480   63.3950   69.9490 C   0  0  0  0  0  0  0  0  0  0  0  0
    4.6640   63.4330   70.3420 O   0  0  0  0  0  0  0  0  0  0  0  0
    3.0730   63.1870   68.7530 O   0  0  0  0  0  1  0  0  0  0  0  0
    1.6140   68.0130   67.3250 C   0  0  0  0  0  0  0  0  0  0  0  0
    1.1180   66.8940   67.8730 C   0  0  0  0  0  0  0  0  0  0  0  0
    2.5290   68.8170   63.7650 C   0  0  0  0  0  0  0  0  0  0  0  0
    2.6140   68.4950   65.1250 C   0  0  0  0  0  0  0  0  0  0  0  0
    1.4590   68.3770   65.9120 C   0  0  0  0  0  0  0  0  0  0  0  0
    0.2100   68.5610   65.3150 C   0  0  0  0  0  0  0  0  0  0  0  0
    0.1120   68.8810   63.9580 C   0  0  0  0  0  0  0  0  0  0  0  0
    1.2640   69.0140   63.1750 C   0  0  0  0  0  0  0  0  0  0  0  0
    4.9030   68.8100   63.5160 C   0  0  0  0  0  0  0  0  0  0  0  0
    3.6140   68.9590   62.9330 O   0  0  0  0  0  0  0  0  0  0  0  0
    1.2600   69.3260   61.8370 O   0  0  0  0  0  0  0  0  0  0  0  0
    0.0550   69.8290   61.2840 C   0  0  0  0  0  0  0  0  0  0  0  0
    1.0973   64.5997   68.7397 H   0  0  0  0  0  0  0  0  0  0  0  0
   -0.5369   65.3336   71.6411 H   0  0  0  0  0  0  0  0  0  0  0  0
   -0.3476   64.0817   73.7851 H   0  0  0  0  0  0  0  0  0  0  0  0
    1.5718   62.5366   74.1645 H   0  0  0  0  0  0  0  0  0  0  0  0
    3.2949   62.2422   72.3975 H   0  0  0  0  0  0  0  0  0  0  0  0
    2.1725   68.7017   67.9761 H   0  0  0  0  0  0  0  0  0  0  0  0
    0.5791   66.1937   67.2179 H   0  0  0  0  0  0  0  0  0  0  0  0
    3.6009   68.3322   65.5828 H   0  0  0  0  0  0  0  0  0  0  0  0
   -0.7040   68.4532   65.9176 H   0  0  0  0  0  0  0  0  0  0  0  0
   -0.8781   69.0294   63.5022 H   0  0  0  0  0  0  0  0  0  0  0  0
    4.8130   68.8204   64.6123 H   0  0  0  0  0  0  0  0  0  0  0  0
    5.3432   67.8550   63.1933 H   0  0  0  0  0  0  0  0  0  0  0  0
    5.5495   69.6394   63.1933 H   0  0  0  0  0  0  0  0  0  0  0  0
   -0.6298   70.1149   62.0960 H   0  0  0  0  0  0  0  0  0  0  0  0
    0.2760   70.7100   60.6635 H   0  0  0  0  0  0  0  0  0  0  0  0
   -0.4159   69.0523   60.6635 H   0  0  0  0  0  0  0  0  0  0  0  0
  2  1  2  0
  3  1  1  0
  4  3  1  0
  5  4  2  0
  6  5  1  0
  7  6  2  0
  8  7  1  0
  9  8  2  0
  9  4  1  0
 10  9  1  0
 11 10  2  0
 12 10  1  0
 14  1  1  0
 14 13  2  0
 16 15  2  0
 17 16  1  0
 17 13  1  0
 18 17  2  0
 19 18  1  0
 20 19  2  0
 20 15  1  0
 22 21  1  0
 22 15  1  0
 23 20  1  0
 24 23  1  0
  3 25  1  0
  5 26  1  0
  6 27  1  0
  7 28  1  0
  8 29  1  0
 13 30  1  0
 14 31  1  0
 16 32  1  0
 18 33  1  0
 19 34  1  0
 21 35  1  0
 21 36  1  0
 21 37  1  0
 24 38  1  0
 24 39  1  0
 24 40  1  0
M  CHG  1  12  -1
M  END
>  <score>  (6) 
-7.711

$$$$
=
     RDKit          3D

 40 41  0  0  0  0  0  0  0  0999 V2000
    1.3260   68.1580   68.0860 C   0  0  0  0  0  0  0  0  0  0  0  0
    1.2430   69.3580   68.3320 O   0  0  0  0  0  0  0  0  0  0  0  0
    1.1910   67.5360   66.8750 N   0  0  0  0  0  0  0  0  0  0  0  0
    0.9940   68.0840   65.5900 C   0  0  0  0  0  0  0  0  0  0  0  0
    2.0490   68.2680   64.6870 C   0  0  0  0  0  0  0  0  0  0  0  0
    1.8190   68.8150   63.4230 C   0  0  0  0  0  0  0  0  0  0  0  0
    0.5320   69.1820   63.0460 C   0  0  0  0  0  0  0  0  0  0  0  0
   -0.5270   68.9990   63.9350 C   0  0  0  0  0  0  0  0  0  0  0  0
   -0.3230   68.4490   65.2160 C   0  0  0  0  0  0  0  0  0  0  0  0
   -1.5200   68.2650   66.1390 C   0  0  0  0  0  0  0  0  0  0  0  0
   -2.3300   69.2480   66.2490 O   0  0  0  0  0  0  0  0  0  0  0  0
   -1.6380   67.1510   66.7390 O   0  0  0  0  0  1  0  0  0  0  0  0
    1.0130   65.9980   69.3140 C   0  0  0  0  0  0  0  0  0  0  0  0
    1.5440   67.2270   69.2330 C   0  0  0  0  0  0  0  0  0  0  0  0
    0.4270   64.3370   72.6380 C   0  0  0  0  0  0  0  0  0  0  0  0
    0.3110   65.1880   71.5330 C   0  0  0  0  0  0  0  0  0  0  0  0
    1.2020   65.0930   70.4530 C   0  0  0  0  0  0  0  0  0  0  0  0
    2.2000   64.1160   70.4810 C   0  0  0  0  0  0  0  0  0  0  0  0
    2.3240   63.2590   71.5790 C   0  0  0  0  0  0  0  0  0  0  0  0
    1.4450   63.3630   72.6630 C   0  0  0  0  0  0  0  0  0  0  0  0
   -0.2520   65.4770   74.6230 C   0  0  0  0  0  0  0  0  0  0  0  0
   -0.4010   64.3760   73.7360 O   0  0  0  0  0  0  0  0  0  0  0  0
    1.4950   62.5640   73.7800 O   0  0  0  0  0  0  0  0  0  0  0  0
    2.6110   61.7000   73.9190 C   0  0  0  0  0  0  0  0  0  0  0  0
    1.2410   66.5077   66.9063 H   0  0  0  0  0  0  0  0  0  0  0  0
    3.0698   67.9784   64.9768 H   0  0  0  0  0  0  0  0  0  0  0  0
    2.6571   68.9557   62.7246 H   0  0  0  0  0  0  0  0  0  0  0  0
    0.3499   69.6147   62.0512 H   0  0  0  0  0  0  0  0  0  0  0  0
   -1.5428   69.2902   63.6296 H   0  0  0  0  0  0  0  0  0  0  0  0
    0.3969   65.6465   68.4733 H   0  0  0  0  0  0  0  0  0  0  0  0
    2.1793   67.5703   70.0627 H   0  0  0  0  0  0  0  0  0  0  0  0
   -0.4898   65.9418   71.5107 H   0  0  0  0  0  0  0  0  0  0  0  0
    2.8937   64.0201   69.6327 H   0  0  0  0  0  0  0  0  0  0  0  0
    3.1180   62.4978   71.5908 H   0  0  0  0  0  0  0  0  0  0  0  0
   -0.3003   65.1198   75.6622 H   0  0  0  0  0  0  0  0  0  0  0  0
    0.7198   65.9611   74.4465 H   0  0  0  0  0  0  0  0  0  0  0  0
   -1.0602   66.2020   74.4465 H   0  0  0  0  0  0  0  0  0  0  0  0
    2.8192   61.5388   74.9870 H   0  0  0  0  0  0  0  0  0  0  0  0
    2.3899   60.7353   73.4389 H   0  0  0  0  0  0  0  0  0  0  0  0
    3.4895   62.1557   73.4389 H   0  0  0  0  0  0  0  0  0  0  0  0
  2  1  2  0
  3  1  1  0
  4  3  1  0
  5  4  2  0
  6  5  1  0
  7  6  2  0
  8  7  1  0
  9  8  2  0
  9  4  1  0
 10  9  1  0
 11 10  2  0
 12 10  1  0
 14  1  1  0
 14 13  2  0
 16 15  2  0
 17 16  1  0
 17 13  1  0
 18 17  2  0
 19 18  1  0
 20 19  2  0
 20 15  1  0
 22 21  1  0
 22 15  1  0
 23 20  1  0
 24 23  1  0
  3 25  1  0
  5 26  1  0
  6 27  1  0
  7 28  1  0
  8 29  1  0
 13 30  1  0
 14 31  1  0
 16 32  1  0
 18 33  1  0
 19 34  1  0
 21 35  1  0
 21 36  1  0
 21 37  1  0
 24 38  1  0
 24 39  1  0
 24 40  1  0
M  CHG  1  12  -1
M  END
>  <score>  (7) 
-7.691

$$$$
=
     RDKit          3D

 40 41  0  0  0  0  0  0  0  0999 V2000
    2.7800   63.7520   71.0230 C   0  0  0  0  0  0  0  0  0  0  0  0
    3.9670   63.4630   70.8970 O   0  0  0  0  0  0  0  0  0  0  0  0
    1.8860   63.2580   71.9330 N   0  0  0  0  0  0  0  0  0  0  0  0
    2.0810   62.3560   72.9990 C   0  0  0  0  0  0  0  0  0  0  0  0
    2.8910   61.2200   72.8790 C   0  0  0  0  0  0  0  0  0  0  0  0
    3.0600   60.3460   73.9550 C   0  0  0  0  0  0  0  0  0  0  0  0
    2.4230   60.5990   75.1650 C   0  0  0  0  0  0  0  0  0  0  0  0
    1.6170   61.7300   75.2980 C   0  0  0  0  0  0  0  0  0  0  0  0
    1.4300   62.6280   74.2290 C   0  0  0  0  0  0  0  0  0  0  0  0
    0.5470   63.8500   74.4380 C   0  0  0  0  0  0  0  0  0  0  0  0
    0.7590   64.5520   75.4860 O   0  0  0  0  0  0  0  0  0  0  0  0
   -0.3420   64.0940   73.5640 O   0  0  0  0  0  1  0  0  0  0  0  0
    1.1580   65.5250   70.3180 C   0  0  0  0  0  0  0  0  0  0  0  0
    2.1920   64.7150   70.0450 C   0  0  0  0  0  0  0  0  0  0  0  0
    0.8350   68.4220   67.9390 C   0  0  0  0  0  0  0  0  0  0  0  0
    1.3410   67.5190   68.8810 C   0  0  0  0  0  0  0  0  0  0  0  0
    0.5600   66.4510   69.3490 C   0  0  0  0  0  0  0  0  0  0  0  0
   -0.7300   66.2820   68.8430 C   0  0  0  0  0  0  0  0  0  0  0  0
   -1.2460   67.1770   67.9010 C   0  0  0  0  0  0  0  0  0  0  0  0
   -0.4730   68.2510   67.4450 C   0  0  0  0  0  0  0  0  0  0  0  0
    2.7600   69.8270   68.0850 C   0  0  0  0  0  0  0  0  0  0  0  0
    1.5350   69.4960   67.4420 O   0  0  0  0  0  0  0  0  0  0  0  0
   -0.9000   69.1760   66.5230 O   0  0  0  0  0  0  0  0  0  0  0  0
   -2.0710   68.8720   65.7820 C   0  0  0  0  0  0  0  0  0  0  0  0
    0.9200   63.5979   71.8222 H   0  0  0  0  0  0  0  0  0  0  0  0
    3.4001   61.0137   71.9260 H   0  0  0  0  0  0  0  0  0  0  0  0
    3.6977   59.4564   73.8453 H   0  0  0  0  0  0  0  0  0  0  0  0
    2.5540   59.9108   76.0131 H   0  0  0  0  0  0  0  0  0  0  0  0
    1.1169   61.9246   76.2582 H   0  0  0  0  0  0  0  0  0  0  0  0
    0.7317   65.4931   71.3315 H   0  0  0  0  0  0  0  0  0  0  0  0
    2.6338   64.7632   69.0388 H   0  0  0  0  0  0  0  0  0  0  0  0
    2.3655   67.6482   69.2600 H   0  0  0  0  0  0  0  0  0  0  0  0
   -1.3453   65.4381   69.1881 H   0  0  0  0  0  0  0  0  0  0  0  0
   -2.2666   67.0361   67.5156 H   0  0  0  0  0  0  0  0  0  0  0  0
    2.6232   69.7900   69.1758 H   0  0  0  0  0  0  0  0  0  0  0  0
    3.5363   69.1064   67.7882 H   0  0  0  0  0  0  0  0  0  0  0  0
    3.0677   70.8405   67.7882 H   0  0  0  0  0  0  0  0  0  0  0  0
   -2.8979   68.6573   66.4749 H   0  0  0  0  0  0  0  0  0  0  0  0
   -2.3372   69.7308   65.1483 H   0  0  0  0  0  0  0  0  0  0  0  0
   -1.8858   67.9922   65.1483 H   0  0  0  0  0  0  0  0  0  0  0  0
  2  1  2  0
  3  1  1  0
  4  3  1  0
  5  4  2  0
  6  5  1  0
  7  6  2  0
  8  7  1  0
  9  8  2  0
  9  4  1  0
 10  9  1  0
 11 10  2  0
 12 10  1  0
 14  1  1  0
 14 13  2  0
 16 15  2  0
 17 16  1  0
 17 13  1  0
 18 17  2  0
 19 18  1  0
 20 19  2  0
 20 15  1  0
 22 21  1  0
 22 15  1  0
 23 20  1  0
 24 23  1  0
  3 25  1  0
  5 26  1  0
  6 27  1  0
  7 28  1  0
  8 29  1  0
 13 30  1  0
 14 31  1  0
 16 32  1  0
 18 33  1  0
 19 34  1  0
 21 35  1  0
 21 36  1  0
 21 37  1  0
 24 38  1  0
 24 39  1  0
 24 40  1  0
M  CHG  1  12  -1
M  END
>  <score>  (8) 
-7.549

$$$$
=
     RDKit          3D

 40 41  0  0  0  0  0  0  0  0999 V2000
    3.1350   58.4510   70.9970 C   0  0  0  0  0  0  0  0  0  0  0  0
    4.0680   58.1600   70.2540 O   0  0  0  0  0  0  0  0  0  0  0  0
    2.6270   59.6940   71.2600 N   0  0  0  0  0  0  0  0  0  0  0  0
    2.9710   60.9500   70.7170 C   0  0  0  0  0  0  0  0  0  0  0  0
    3.1420   61.1480   69.3420 C   0  0  0  0  0  0  0  0  0  0  0  0
    3.4850   62.4040   68.8370 C   0  0  0  0  0  0  0  0  0  0  0  0
    3.6590   63.4780   69.7040 C   0  0  0  0  0  0  0  0  0  0  0  0
    3.4880   63.2940   71.0760 C   0  0  0  0  0  0  0  0  0  0  0  0
    3.1420   62.0370   71.6100 C   0  0  0  0  0  0  0  0  0  0  0  0
    2.9590   61.9010   73.1160 C   0  0  0  0  0  0  0  0  0  0  0  0
    3.6460   61.0010   73.7090 O   0  0  0  0  0  0  0  0  0  0  0  0
    2.1370   62.6850   73.6850 O   0  0  0  0  0  1  0  0  0  0  0  0
    1.5740   57.5400   72.7300 C   0  0  0  0  0  0  0  0  0  0  0  0
    2.4880   57.3490   71.7670 C   0  0  0  0  0  0  0  0  0  0  0  0
   -1.0370   55.5820   74.6010 C   0  0  0  0  0  0  0  0  0  0  0  0
   -0.3880   56.5900   73.8780 C   0  0  0  0  0  0  0  0  0  0  0  0
    0.9590   56.4590   73.5080 C   0  0  0  0  0  0  0  0  0  0  0  0
    1.6460   55.2920   73.8500 C   0  0  0  0  0  0  0  0  0  0  0  0
    1.0080   54.2780   74.5690 C   0  0  0  0  0  0  0  0  0  0  0  0
   -0.3320   54.4140   74.9510 C   0  0  0  0  0  0  0  0  0  0  0  0
   -2.6880   56.6360   75.9650 C   0  0  0  0  0  0  0  0  0  0  0  0
   -2.3500   55.6420   75.0060 O   0  0  0  0  0  0  0  0  0  0  0  0
   -1.0350   53.4690   75.6590 O   0  0  0  0  0  0  0  0  0  0  0  0
   -1.3410   52.2490   75.0030 C   0  0  0  0  0  0  0  0  0  0  0  0
    1.8760   59.7163   71.9646 H   0  0  0  0  0  0  0  0  0  0  0  0
    3.0045   60.3037   68.6505 H   0  0  0  0  0  0  0  0  0  0  0  0
    3.6176   62.5441   67.7540 H   0  0  0  0  0  0  0  0  0  0  0  0
    3.9303   64.4682   69.3091 H   0  0  0  0  0  0  0  0  0  0  0  0
    3.6262   64.1481   71.7553 H   0  0  0  0  0  0  0  0  0  0  0  0
    1.2661   58.5728   72.9503 H   0  0  0  0  0  0  0  0  0  0  0  0
    2.7788   56.3149   71.5301 H   0  0  0  0  0  0  0  0  0  0  0  0
   -0.9420   57.4975   73.5960 H   0  0  0  0  0  0  0  0  0  0  0  0
    2.6975   55.1703   73.5510 H   0  0  0  0  0  0  0  0  0  0  0  0
    1.5624   53.3665   74.8368 H   0  0  0  0  0  0  0  0  0  0  0  0
   -2.5500   56.2301   76.9780 H   0  0  0  0  0  0  0  0  0  0  0  0
   -2.0374   57.5126   75.8294 H   0  0  0  0  0  0  0  0  0  0  0  0
   -3.7381   56.9343   75.8294 H   0  0  0  0  0  0  0  0  0  0  0  0
   -1.5368   51.4685   75.7530 H   0  0  0  0  0  0  0  0  0  0  0  0
   -2.2329   52.3848   74.3737 H   0  0  0  0  0  0  0  0  0  0  0  0
   -0.4906   51.9477   74.3737 H   0  0  0  0  0  0  0  0  0  0  0  0
  2  1  2  0
  3  1  1  0
  4  3  1  0
  5  4  2  0
  6  5  1  0
  7  6  2  0
  8  7  1  0
  9  8  2  0
  9  4  1  0
 10  9  1  0
 11 10  2  0
 12 10  1  0
 14  1  1  0
 14 13  2  0
 16 15  2  0
 17 16  1  0
 17 13  1  0
 18 17  2  0
 19 18  1  0
 20 19  2  0
 20 15  1  0
 22 21  1  0
 22 15  1  0
 23 20  1  0
 24 23  1  0
  3 25  1  0
  5 26  1  0
  6 27  1  0
  7 28  1  0
  8 29  1  0
 13 30  1  0
 14 31  1  0
 16 32  1  0
 18 33  1  0
 19 34  1  0
 21 35  1  0
 21 36  1  0
 21 37  1  0
 24 38  1  0
 24 39  1  0
 24 40  1  0
M  CHG  1  12  -1
M  END
>  <score>  (9) 
-7.485

$$$$
