=
     RDKit          3D

 58 60  0  0  0  0  0  0  0  0999 V2000
    4.0620   59.7430   71.5150 C   0  0  0  0  0  0  0  0  0  0  0  0
    3.5400   58.8000   70.6150 C   0  0  0  0  0  0  0  0  0  0  0  0
    2.7070   57.7650   71.0450 C   0  0  0  0  0  0  0  0  0  0  0  0
    2.3930   57.6490   72.3960 C   0  0  0  0  0  0  0  0  0  0  0  0
    2.8810   58.5840   73.3080 C   0  0  0  0  0  0  0  0  0  0  0  0
    3.7180   59.6220   72.8730 C   0  0  0  0  0  0  0  0  0  0  0  0
    2.4610   58.4650   74.7190 C   0  0  0  0  0  0  0  0  0  0  0  0
    2.8820   59.2610   75.5560 O   0  0  0  0  0  0  0  0  0  0  0  0
    1.4680   57.3880   75.0460 C   0  0  0  0  0  0  0  0  0  0  0  0
    1.7250   56.2110   74.1170 C   0  0  2  0  0  0  0  0  0  0  0  0
    1.5780   56.6040   72.7420 O   0  0  0  0  0  0  0  0  0  0  0  0
    0.7560   55.0800   74.4090 C   0  0  0  0  0  0  0  0  0  0  0  0
   -0.5060   55.3610   74.9550 C   0  0  0  0  0  0  0  0  0  0  0  0
   -1.4170   54.3330   75.2050 C   0  0  0  0  0  0  0  0  0  0  0  0
   -1.0730   53.0200   74.9070 C   0  0  0  0  0  0  0  0  0  0  0  0
    0.1690   52.7160   74.3610 C   0  0  0  0  0  0  0  0  0  0  0  0
    1.0800   53.7450   74.1090 C   0  0  0  0  0  0  0  0  0  0  0  0
   -1.9930   52.0480   75.1670 O   0  0  0  0  0  0  0  0  0  0  0  0
    3.8520   58.9030   69.2880 O   0  0  0  0  0  0  0  0  0  0  0  0
    4.2200   60.5530   73.7470 O   0  0  0  0  0  0  0  0  0  0  0  0
    4.9930   60.8400   71.0440 C   0  0  0  0  0  0  0  0  0  0  0  0
    3.3840   62.3030   68.7650 C   0  0  0  0  0  0  0  0  0  0  0  0
    3.6390   62.8400   70.1470 C   0  0  0  0  0  0  0  0  0  0  0  0
    4.3490   62.2030   71.1000 C   0  0  0  0  0  0  0  0  0  0  0  0
    3.0640   64.2210   70.4210 C   0  0  0  0  0  0  0  0  0  0  0  0
    1.5460   64.2510   70.6470 C   0  0  0  0  0  0  0  0  0  0  0  0
    0.9860   62.9190   71.0700 C   0  0  0  0  0  0  0  0  0  0  0  0
    0.9610   62.3840   72.3060 C   0  0  0  0  0  0  0  0  0  0  0  0
    1.5430   63.0190   73.5380 C   0  0  0  0  0  0  0  0  0  0  0  0
    0.3320   61.0350   72.5430 C   0  0  0  0  0  0  0  0  0  0  0  0
    2.3009   57.0448   70.3195 H   0  0  0  0  0  0  0  0  0  0  0  0
    1.5921   57.0714   76.0921 H   0  0  0  0  0  0  0  0  0  0  0  0
    0.4421   57.7620   74.9128 H   0  0  0  0  0  0  0  0  0  0  0  0
    2.7559   55.8689   74.2909 H   0  0  0  0  0  0  0  0  0  0  0  0
   -0.7798   56.4006   75.1881 H   0  0  0  0  0  0  0  0  0  0  0  0
   -2.4029   54.5614   75.6360 H   0  0  0  0  0  0  0  0  0  0  0  0
    0.4324   51.6735   74.1292 H   0  0  0  0  0  0  0  0  0  0  0  0
    2.0610   53.5082   73.6713 H   0  0  0  0  0  0  0  0  0  0  0  0
   -1.7828   51.1014   74.9676 H   0  0  0  0  0  0  0  0  0  0  0  0
    3.4911   58.2452   68.6421 H   0  0  0  0  0  0  0  0  0  0  0  0
    4.8089   61.2764   73.4153 H   0  0  0  0  0  0  0  0  0  0  0  0
    5.8866   60.8447   71.6854 H   0  0  0  0  0  0  0  0  0  0  0  0
    5.2515   60.6336   69.9949 H   0  0  0  0  0  0  0  0  0  0  0  0
    2.9132   61.3115   68.8380 H   0  0  0  0  0  0  0  0  0  0  0  0
    2.7149   62.9877   68.2233 H   0  0  0  0  0  0  0  0  0  0  0  0
    4.3375   62.2172   68.2233 H   0  0  0  0  0  0  0  0  0  0  0  0
    4.4757   62.7509   72.0454 H   0  0  0  0  0  0  0  0  0  0  0  0
    3.5523   64.6230   71.3210 H   0  0  0  0  0  0  0  0  0  0  0  0
    3.2556   64.8215   69.5195 H   0  0  0  0  0  0  0  0  0  0  0  0
    1.3232   64.9895   71.4312 H   0  0  0  0  0  0  0  0  0  0  0  0
    1.0765   64.5148   69.6879 H   0  0  0  0  0  0  0  0  0  0  0  0
    0.5424   62.3070   70.2709 H   0  0  0  0  0  0  0  0  0  0  0  0
    1.1107   62.5473   74.4328 H   0  0  0  0  0  0  0  0  0  0  0  0
    2.6342   62.8803   73.5414 H   0  0  0  0  0  0  0  0  0  0  0  0
    1.3100   64.0940   73.5414 H   0  0  0  0  0  0  0  0  0  0  0  0
    0.2479   60.8546   73.6248 H   0  0  0  0  0  0  0  0  0  0  0  0
   -0.6695   61.0125   72.0886 H   0  0  0  0  0  0  0  0  0  0  0  0
    0.9585   60.2534   72.0886 H   0  0  0  0  0  0  0  0  0  0  0  0
  2  1  2  0
  3  2  1  0
  4  3  2  0
  5  4  1  0
  6  5  2  0
  6  1  1  0
  7  5  1  0
  8  7  2  0
  9  7  1  0
 10  9  1  0
 11 10  1  0
 11  4  1  0
 12 10  1  0
 13 12  2  0
 14 13  1  0
 15 14  2  0
 16 15  1  0
 17 16  2  0
 17 12  1  0
 18 15  1  0
 19  2  1  0
 20  6  1  0
 21  1  1  0
 23 22  1  0
 24 23  2  0
 24 21  1  0
 25 23  1  0
 26 25  1  0
 27 26  1  0
 28 27  2  3
 29 28  1  0
 30 28  1  0
  3 31  1  0
  9 32  1  0
  9 33  1  0
 10 34  1  6
 13 35  1  0
 14 36  1  0
 16 37  1  0
 17 38  1  0
 18 39  1  0
 19 40  1  0
 20 41  1  0
 21 42  1  0
 21 43  1  0
 22 44  1  0
 22 45  1  0
 22 46  1  0
 24 47  1  0
 25 48  1  0
 25 49  1  0
 26 50  1  0
 26 51  1  0
 27 52  1  0
 29 53  1  0
 29 54  1  0
 29 55  1  0
 30 56  1  0
 30 57  1  0
 30 58  1  0
M  END
>  <score>  (1) 
-9.142

$$$$
=
     RDKit          3D

 58 60  0  0  0  0  0  0  0  0999 V2000
    3.3260   62.2300   72.2430 C   0  0  0  0  0  0  0  0  0  0  0  0
    3.9290   62.5950   71.0290 C   0  0  0  0  0  0  0  0  0  0  0  0
    3.3820   63.5850   70.2110 C   0  0  0  0  0  0  0  0  0  0  0  0
    2.2050   64.2210   70.5920 C   0  0  0  0  0  0  0  0  0  0  0  0
    1.5950   63.8940   71.8030 C   0  0  0  0  0  0  0  0  0  0  0  0
    2.1480   62.8980   72.6220 C   0  0  0  0  0  0  0  0  0  0  0  0
    0.3890   64.6470   72.2020 C   0  0  0  0  0  0  0  0  0  0  0  0
   -0.1850   64.3770   73.2550 O   0  0  0  0  0  0  0  0  0  0  0  0
   -0.0400   65.7710   71.3050 C   0  0  0  0  0  0  0  0  0  0  0  0
    0.3100   65.3930   69.8740 C   0  0  2  0  0  0  0  0  0  0  0  0
    1.7240   65.1750   69.7350 O   0  0  0  0  0  0  0  0  0  0  0  0
   -0.1130   66.4890   68.9130 C   0  0  0  0  0  0  0  0  0  0  0  0
    0.8100   67.4730   68.5220 C   0  0  0  0  0  0  0  0  0  0  0  0
    0.4420   68.4720   67.6200 C   0  0  0  0  0  0  0  0  0  0  0  0
   -0.8470   68.4930   67.1010 C   0  0  0  0  0  0  0  0  0  0  0  0
   -1.7770   67.5280   67.4680 C   0  0  0  0  0  0  0  0  0  0  0  0
   -1.4090   66.5260   68.3710 C   0  0  0  0  0  0  0  0  0  0  0  0
   -1.1630   69.4870   66.2240 O   0  0  0  0  0  0  0  0  0  0  0  0
    5.0820   61.9670   70.6440 O   0  0  0  0  0  0  0  0  0  0  0  0
    1.5670   62.5480   73.8160 O   0  0  0  0  0  0  0  0  0  0  0  0
    3.9080   61.1300   73.1060 C   0  0  0  0  0  0  0  0  0  0  0  0
    3.4690   58.8200   71.0100 C   0  0  0  0  0  0  0  0  0  0  0  0
    2.7960   58.9330   72.3510 C   0  0  0  0  0  0  0  0  0  0  0  0
    2.9850   59.9430   73.2230 C   0  0  0  0  0  0  0  0  0  0  0  0
    1.8130   57.8200   72.6770 C   0  0  0  0  0  0  0  0  0  0  0  0
    0.7250   58.2010   73.6930 C   0  0  0  0  0  0  0  0  0  0  0  0
   -0.0210   59.4530   73.3150 C   0  0  0  0  0  0  0  0  0  0  0  0
   -1.1740   59.9190   73.8320 C   0  0  0  0  0  0  0  0  0  0  0  0
   -1.9880   59.2360   74.8950 C   0  0  0  0  0  0  0  0  0  0  0  0
   -1.7650   61.2150   73.3370 C   0  0  0  0  0  0  0  0  0  0  0  0
    3.8794   63.8609   69.2695 H   0  0  0  0  0  0  0  0  0  0  0  0
   -1.1253   65.9264   71.3949 H   0  0  0  0  0  0  0  0  0  0  0  0
    0.4718   66.7022   71.5894 H   0  0  0  0  0  0  0  0  0  0  0  0
   -0.2285   64.4642   69.6347 H   0  0  0  0  0  0  0  0  0  0  0  0
    1.8313   67.4559   68.9302 H   0  0  0  0  0  0  0  0  0  0  0  0
    1.1699   69.2405   67.3207 H   0  0  0  0  0  0  0  0  0  0  0  0
   -2.7948   67.5522   67.0514 H   0  0  0  0  0  0  0  0  0  0  0  0
   -2.1418   65.7584   68.6603 H   0  0  0  0  0  0  0  0  0  0  0  0
   -2.0720   69.5329   65.8344 H   0  0  0  0  0  0  0  0  0  0  0  0
    5.5188   62.2137   69.7905 H   0  0  0  0  0  0  0  0  0  0  0  0
    1.9755   61.8421   74.3771 H   0  0  0  0  0  0  0  0  0  0  0  0
    4.8574   60.7969   72.6614 H   0  0  0  0  0  0  0  0  0  0  0  0
    4.0580   61.5394   74.1159 H   0  0  0  0  0  0  0  0  0  0  0  0
    4.5445   58.6394   71.1536 H   0  0  0  0  0  0  0  0  0  0  0  0
    3.0285   57.9832   70.4480 H   0  0  0  0  0  0  0  0  0  0  0  0
    3.3260   59.7547   70.4480 H   0  0  0  0  0  0  0  0  0  0  0  0
    2.3854   59.8952   74.1440 H   0  0  0  0  0  0  0  0  0  0  0  0
    1.3180   57.5156   71.7430 H   0  0  0  0  0  0  0  0  0  0  0  0
    2.4001   57.0126   73.1389 H   0  0  0  0  0  0  0  0  0  0  0  0
    0.0054   57.3720   73.7633 H   0  0  0  0  0  0  0  0  0  0  0  0
    1.2251   58.3935   74.6537 H   0  0  0  0  0  0  0  0  0  0  0  0
    0.4314   60.0621   72.5185 H   0  0  0  0  0  0  0  0  0  0  0  0
   -1.6247   59.5408   75.8875 H   0  0  0  0  0  0  0  0  0  0  0  0
   -3.0448   59.5217   74.7877 H   0  0  0  0  0  0  0  0  0  0  0  0
   -1.8902   58.1456   74.7877 H   0  0  0  0  0  0  0  0  0  0  0  0
   -2.0500   61.8399   74.1963 H   0  0  0  0  0  0  0  0  0  0  0  0
   -1.0209   61.7479   72.7268 H   0  0  0  0  0  0  0  0  0  0  0  0
   -2.6553   61.0026   72.7268 H   0  0  0  0  0  0  0  0  0  0  0  0
  2  1  2  0
  3  2  1  0
  4  3  2  0
  5  4  1  0
  6  5  2  0
  6  1  1  0
  7  5  1  0
  8  7  2  0
  9  7  1  0
 10  9  1  0
 11 10  1  0
 11  4  1  0
 12 10  1  0
 13 12  2  0
 14 13  1  0
 15 14  2  0
 16 15  1  0
 17 16  2  0
 17 12  1  0
 18 15  1  0
 19  2  1  0
 20  6  1  0
 21  1  1  0
 23 22  1  0
 24 23  2  0
 24 21  1  0
 25 23  1  0
 26 25  1  0
 27 26  1  0
 28 27  2  3
 29 28  1  0
 30 28  1  0
  3 31  1  0
  9 32  1  0
  9 33  1  0
 10 34  1  6
 13 35  1  0
 14 36  1  0
 16 37  1  0
 17 38  1  0
 18 39  1  0
 19 40  1  0
 20 41  1  0
 21 42  1  0
 21 43  1  0
 22 44  1  0
 22 45  1  0
 22 46  1  0
 24 47  1  0
 25 48  1  0
 25 49  1  0
 26 50  1  0
 26 51  1  0
 27 52  1  0
 29 53  1  0
 29 54  1  0
 29 55  1  0
 30 56  1  0
 30 57  1  0
 30 58  1  0
M  END
>  <score>  (2) 
-9.003

$$$$
=
     RDKit          3D

 58 60  0  0  0  0  0  0  0  0999 V2000
    0.6720   64.3520   71.1850 C   0  0  0  0  0  0  0  0  0  0  0  0
    0.3570   64.5420   72.5390 C   0  0  0  0  0  0  0  0  0  0  0  0
    0.8510   63.6910   73.5300 C   0  0  0  0  0  0  0  0  0  0  0  0
    1.6620   62.6180   73.1740 C   0  0  0  0  0  0  0  0  0  0  0  0
    2.0090   62.4180   71.8380 C   0  0  0  0  0  0  0  0  0  0  0  0
    1.5100   63.2750   70.8460 C   0  0  0  0  0  0  0  0  0  0  0  0
    2.9330   61.3120   71.5170 C   0  0  0  0  0  0  0  0  0  0  0  0
    3.2500   61.0940   70.3490 O   0  0  0  0  0  0  0  0  0  0  0  0
    3.4970   60.5370   72.6720 C   0  0  0  0  0  0  0  0  0  0  0  0
    2.4460   60.4940   73.7700 C   0  0  2  0  0  0  0  0  0  0  0  0
    2.1020   61.8220   74.1990 O   0  0  0  0  0  0  0  0  0  0  0  0
    2.9540   59.7100   74.9650 C   0  0  0  0  0  0  0  0  0  0  0  0
    2.5910   60.0990   76.2650 C   0  0  0  0  0  0  0  0  0  0  0  0
    3.0320   59.3730   77.3720 C   0  0  0  0  0  0  0  0  0  0  0  0
    3.8310   58.2520   77.1890 C   0  0  0  0  0  0  0  0  0  0  0  0
    4.1990   57.8420   75.9120 C   0  0  0  0  0  0  0  0  0  0  0  0
    3.7580   58.5680   74.8030 C   0  0  0  0  0  0  0  0  0  0  0  0
    4.2370   57.5720   78.2980 O   0  0  0  0  0  0  0  0  0  0  0  0
   -0.4480   65.5890   72.8950 O   0  0  0  0  0  0  0  0  0  0  0  0
    1.8270   63.1000   69.5220 O   0  0  0  0  0  0  0  0  0  0  0  0
    0.1030   65.2600   70.1150 C   0  0  0  0  0  0  0  0  0  0  0  0
   -0.1180   67.3320   67.7530 C   0  0  0  0  0  0  0  0  0  0  0  0
    0.8850   67.3770   68.8730 C   0  0  0  0  0  0  0  0  0  0  0  0
    0.9730   66.4650   69.8630 C   0  0  0  0  0  0  0  0  0  0  0  0
    1.8710   68.5330   68.8130 C   0  0  0  0  0  0  0  0  0  0  0  0
    2.0730   69.1330   67.4140 C   0  0  0  0  0  0  0  0  0  0  0  0
    3.5000   69.5280   67.1430 C   0  0  0  0  0  0  0  0  0  0  0  0
    4.1570   69.5120   65.9660 C   0  0  0  0  0  0  0  0  0  0  0  0
    3.5830   69.0430   64.6590 C   0  0  0  0  0  0  0  0  0  0  0  0
    5.5910   69.9690   65.8850 C   0  0  0  0  0  0  0  0  0  0  0  0
    0.6003   63.8681   74.5863 H   0  0  0  0  0  0  0  0  0  0  0  0
    3.7423   59.5141   72.3504 H   0  0  0  0  0  0  0  0  0  0  0  0
    4.4149   61.0176   73.0416 H   0  0  0  0  0  0  0  0  0  0  0  0
    1.5539   60.0004   73.3571 H   0  0  0  0  0  0  0  0  0  0  0  0
    1.9537   60.9835   76.4116 H   0  0  0  0  0  0  0  0  0  0  0  0
    2.7475   59.6878   78.3869 H   0  0  0  0  0  0  0  0  0  0  0  0
    4.8324   56.9530   75.7763 H   0  0  0  0  0  0  0  0  0  0  0  0
    4.0430   58.2426   73.7916 H   0  0  0  0  0  0  0  0  0  0  0  0
    4.8074   56.7683   78.2046 H   0  0  0  0  0  0  0  0  0  0  0  0
   -0.6784   65.7350   73.8467 H   0  0  0  0  0  0  0  0  0  0  0  0
    1.4625   63.7180   68.8399 H   0  0  0  0  0  0  0  0  0  0  0  0
    0.0105   64.6890   69.1794 H   0  0  0  0  0  0  0  0  0  0  0  0
   -0.8756   65.6198   70.4655 H   0  0  0  0  0  0  0  0  0  0  0  0
   -1.1340   67.2864   68.1722 H   0  0  0  0  0  0  0  0  0  0  0  0
   -0.0170   68.2356   67.1338 H   0  0  0  0  0  0  0  0  0  0  0  0
    0.0635   66.4411   67.1338 H   0  0  0  0  0  0  0  0  0  0  0  0
    1.7894   66.6217   70.5833 H   0  0  0  0  0  0  0  0  0  0  0  0
    1.5057   69.3296   69.4778 H   0  0  0  0  0  0  0  0  0  0  0  0
    2.8457   68.1258   69.1198 H   0  0  0  0  0  0  0  0  0  0  0  0
    1.7677   68.3871   66.6654 H   0  0  0  0  0  0  0  0  0  0  0  0
    1.4626   70.0463   67.3568 H   0  0  0  0  0  0  0  0  0  0  0  0
    4.0783   69.8723   68.0131 H   0  0  0  0  0  0  0  0  0  0  0  0
    2.7444   68.3578   64.8517 H   0  0  0  0  0  0  0  0  0  0  0  0
    3.2239   69.9094   64.0842 H   0  0  0  0  0  0  0  0  0  0  0  0
    4.3605   68.5184   64.0842 H   0  0  0  0  0  0  0  0  0  0  0  0
    5.9929   70.0971   66.9009 H   0  0  0  0  0  0  0  0  0  0  0  0
    6.1860   69.2160   65.3475 H   0  0  0  0  0  0  0  0  0  0  0  0
    5.6406   70.9275   65.3475 H   0  0  0  0  0  0  0  0  0  0  0  0
  2  1  2  0
  3  2  1  0
  4  3  2  0
  5  4  1  0
  6  5  2  0
  6  1  1  0
  7  5  1  0
  8  7  2  0
  9  7  1  0
 10  9  1  0
 11 10  1  0
 11  4  1  0
 12 10  1  0
 13 12  2  0
 14 13  1  0
 15 14  2  0
 16 15  1  0
 17 16  2  0
 17 12  1  0
 18 15  1  0
 19  2  1  0
 20  6  1  0
 21  1  1  0
 23 22  1  0
 24 23  2  0
 24 21  1  0
 25 23  1  0
 26 25  1  0
 27 26  1  0
 28 27  2  3
 29 28  1  0
 30 28  1  0
  3 31  1  0
  9 32  1  0
  9 33  1  0
 10 34  1  6
 13 35  1  0
 14 36  1  0
 16 37  1  0
 17 38  1  0
 18 39  1  0
 19 40  1  0
 20 41  1  0
 21 42  1  0
 21 43  1  0
 22 44  1  0
 22 45  1  0
 22 46  1  0
 24 47  1  0
 25 48  1  0
 25 49  1  0
 26 50  1  0
 26 51  1  0
 27 52  1  0
 29 53  1  0
 29 54  1  0
 29 55  1  0
 30 56  1  0
 30 57  1  0
 30 58  1  0
M  END
>  <score>  (3) 
-8.879

$$$$
=
     RDKit          3D

 58 60  0  0  0  0  0  0  0  0999 V2000
    3.2340   62.0120   72.2630 C   0  0  0  0  0  0  0  0  0  0  0  0
    3.8680   62.3860   71.0680 C   0  0  0  0  0  0  0  0  0  0  0  0
    3.3650   63.4120   70.2650 C   0  0  0  0  0  0  0  0  0  0  0  0
    2.2020   64.0750   70.6430 C   0  0  0  0  0  0  0  0  0  0  0  0
    1.5640   63.7390   71.8360 C   0  0  0  0  0  0  0  0  0  0  0  0
    2.0710   62.7080   72.6400 C   0  0  0  0  0  0  0  0  0  0  0  0
    0.3750   64.5200   72.2350 C   0  0  0  0  0  0  0  0  0  0  0  0
   -0.2230   64.2440   73.2720 O   0  0  0  0  0  0  0  0  0  0  0  0
   -0.0040   65.6780   71.3580 C   0  0  0  0  0  0  0  0  0  0  0  0
    0.3560   65.3230   69.9240 C   0  0  2  0  0  0  0  0  0  0  0  0
    1.7650   65.0640   69.8010 O   0  0  0  0  0  0  0  0  0  0  0  0
   -0.0170   66.4530   68.9830 C   0  0  0  0  0  0  0  0  0  0  0  0
   -1.2930   66.4870   68.3990 C   0  0  0  0  0  0  0  0  0  0  0  0
   -1.6580   67.5340   67.5510 C   0  0  0  0  0  0  0  0  0  0  0  0
   -0.7540   68.5540   67.2860 C   0  0  0  0  0  0  0  0  0  0  0  0
    0.5140   68.5470   67.8560 C   0  0  0  0  0  0  0  0  0  0  0  0
    0.8800   67.4990   68.7050 C   0  0  0  0  0  0  0  0  0  0  0  0
   -1.1530   69.5560   66.4530 O   0  0  0  0  0  0  0  0  0  0  0  0
    5.0060   61.7310   70.6850 O   0  0  0  0  0  0  0  0  0  0  0  0
    1.4620   62.3480   73.8160 O   0  0  0  0  0  0  0  0  0  0  0  0
    3.7680   60.8750   73.1090 C   0  0  0  0  0  0  0  0  0  0  0  0
    3.7180   58.6800   70.8500 C   0  0  0  0  0  0  0  0  0  0  0  0
    2.8700   58.6840   72.0930 C   0  0  0  0  0  0  0  0  0  0  0  0
    2.8950   59.6470   73.0360 C   0  0  0  0  0  0  0  0  0  0  0  0
    1.9070   57.5150   72.2240 C   0  0  0  0  0  0  0  0  0  0  0  0
    0.9380   57.6120   73.4110 C   0  0  0  0  0  0  0  0  0  0  0  0
    0.1430   56.3520   73.6270 C   0  0  0  0  0  0  0  0  0  0  0  0
    0.5700   55.1750   74.1250 C   0  0  0  0  0  0  0  0  0  0  0  0
    1.9820   54.8700   74.5420 C   0  0  0  0  0  0  0  0  0  0  0  0
   -0.3860   54.0220   74.2890 C   0  0  0  0  0  0  0  0  0  0  0  0
    3.8859   63.6944   69.3382 H   0  0  0  0  0  0  0  0  0  0  0  0
   -1.0851   65.8659   71.4353 H   0  0  0  0  0  0  0  0  0  0  0  0
    0.5329   66.5853   71.6720 H   0  0  0  0  0  0  0  0  0  0  0  0
   -0.2080   64.4177   69.6549 H   0  0  0  0  0  0  0  0  0  0  0  0
   -2.0115   65.6816   68.6114 H   0  0  0  0  0  0  0  0  0  0  0  0
   -2.6585   67.5509   67.0942 H   0  0  0  0  0  0  0  0  0  0  0  0
    1.2233   69.3596   67.6405 H   0  0  0  0  0  0  0  0  0  0  0  0
    1.8811   67.4926   69.1608 H   0  0  0  0  0  0  0  0  0  0  0  0
   -0.5347   70.2997   66.2416 H   0  0  0  0  0  0  0  0  0  0  0  0
    5.4638   61.9842   69.8445 H   0  0  0  0  0  0  0  0  0  0  0  0
    1.8401   61.6165   74.3655 H   0  0  0  0  0  0  0  0  0  0  0  0
    4.7760   60.6138   72.7546 H   0  0  0  0  0  0  0  0  0  0  0  0
    3.7848   61.2138   74.1554 H   0  0  0  0  0  0  0  0  0  0  0  0
    4.7813   58.6750   71.1316 H   0  0  0  0  0  0  0  0  0  0  0  0
    3.4921   57.7829   70.2549 H   0  0  0  0  0  0  0  0  0  0  0  0
    3.5005   59.5792   70.2549 H   0  0  0  0  0  0  0  0  0  0  0  0
    2.1824   59.5202   73.8643 H   0  0  0  0  0  0  0  0  0  0  0  0
    1.3125   57.4556   71.3004 H   0  0  0  0  0  0  0  0  0  0  0  0
    2.5246   56.6218   72.3993 H   0  0  0  0  0  0  0  0  0  0  0  0
    1.5191   57.8201   74.3215 H   0  0  0  0  0  0  0  0  0  0  0  0
    0.2230   58.4173   73.1866 H   0  0  0  0  0  0  0  0  0  0  0  0
   -0.9187   56.3979   73.3429 H   0  0  0  0  0  0  0  0  0  0  0  0
    2.0452   54.8564   75.6401 H   0  0  0  0  0  0  0  0  0  0  0  0
    2.2773   53.8874   74.1455 H   0  0  0  0  0  0  0  0  0  0  0  0
    2.6565   55.6432   74.1455 H   0  0  0  0  0  0  0  0  0  0  0  0
   -0.5466   53.8283   75.3598 H   0  0  0  0  0  0  0  0  0  0  0  0
   -1.3461   54.2712   73.8134 H   0  0  0  0  0  0  0  0  0  0  0  0
    0.0367   53.1247   73.8134 H   0  0  0  0  0  0  0  0  0  0  0  0
  2  1  2  0
  3  2  1  0
  4  3  2  0
  5  4  1  0
  6  5  2  0
  6  1  1  0
  7  5  1  0
  8  7  2  0
  9  7  1  0
 10  9  1  0
 11 10  1  0
 11  4  1  0
 12 10  1  0
 13 12  2  0
 14 13  1  0
 15 14  2  0
 16 15  1  0
 17 16  2  0
 17 12  1  0
 18 15  1  0
 19  2  1  0
 20  6  1  0
 21  1  1  0
 23 22  1  0
 24 23  2  0
 24 21  1  0
 25 23  1  0
 26 25  1  0
 27 26  1  0
 28 27  2  3
 29 28  1  0
 30 28  1  0
  3 31  1  0
  9 32  1  0
  9 33  1  0
 10 34  1  6
 13 35  1  0
 14 36  1  0
 16 37  1  0
 17 38  1  0
 18 39  1  0
 19 40  1  0
 20 41  1  0
 21 42  1  0
 21 43  1  0
 22 44  1  0
 22 45  1  0
 22 46  1  0
 24 47  1  0
 25 48  1  0
 25 49  1  0
 26 50  1  0
 26 51  1  0
 27 52  1  0
 29 53  1  0
 29 54  1  0
 29 55  1  0
 30 56  1  0
 30 57  1  0
 30 58  1  0
M  END
>  <score>  (4) 
-8.791

$$$$
=
     RDKit          3D

 58 60  0  0  0  0  0  0  0  0999 V2000
    1.2690   64.2620   70.9690 C   0  0  0  0  0  0  0  0  0  0  0  0
    1.9830   63.2800   70.2640 C   0  0  0  0  0  0  0  0  0  0  0  0
    1.9170   61.9320   70.6220 C   0  0  0  0  0  0  0  0  0  0  0  0
    1.1420   61.5460   71.7110 C   0  0  0  0  0  0  0  0  0  0  0  0
    0.4060   62.4980   72.4160 C   0  0  0  0  0  0  0  0  0  0  0  0
    0.4740   63.8510   72.0530 C   0  0  0  0  0  0  0  0  0  0  0  0
   -0.4620   62.0320   73.5170 C   0  0  0  0  0  0  0  0  0  0  0  0
   -1.1140   62.8430   74.1710 O   0  0  0  0  0  0  0  0  0  0  0  0
   -0.5480   60.5500   73.7360 C   0  0  0  0  0  0  0  0  0  0  0  0
    0.7990   59.9410   73.3800 C   0  0  2  0  0  0  0  0  0  0  0  0
    1.1340   60.2090   72.0080 O   0  0  0  0  0  0  0  0  0  0  0  0
    0.7800   58.4390   73.5940 C   0  0  0  0  0  0  0  0  0  0  0  0
   -0.3880   57.8120   74.0590 C   0  0  0  0  0  0  0  0  0  0  0  0
   -0.4270   56.4280   74.2370 C   0  0  0  0  0  0  0  0  0  0  0  0
    0.6960   55.6630   73.9490 C   0  0  0  0  0  0  0  0  0  0  0  0
    1.8620   56.2590   73.4830 C   0  0  0  0  0  0  0  0  0  0  0  0
    1.9020   57.6440   73.3030 C   0  0  0  0  0  0  0  0  0  0  0  0
    0.6120   54.3150   74.1370 O   0  0  0  0  0  0  0  0  0  0  0  0
    2.7550   63.6540   69.1980 O   0  0  0  0  0  0  0  0  0  0  0  0
   -0.2320   64.8130   72.7320 O   0  0  0  0  0  0  0  0  0  0  0  0
    1.3750   65.7250   70.5930 C   0  0  0  0  0  0  0  0  0  0  0  0
    1.5700   68.1390   68.5780 C   0  0  0  0  0  0  0  0  0  0  0  0
    0.4540   67.1310   68.6400 C   0  0  0  0  0  0  0  0  0  0  0  0
    0.3830   66.1170   69.5270 C   0  0  0  0  0  0  0  0  0  0  0  0
   -0.6660   67.3420   67.6340 C   0  0  0  0  0  0  0  0  0  0  0  0
   -0.7440   68.7590   67.0470 C   0  0  0  0  0  0  0  0  0  0  0  0
   -0.8200   68.7710   65.5440 C   0  0  0  0  0  0  0  0  0  0  0  0
    0.1960   68.7270   64.6600 C   0  0  0  0  0  0  0  0  0  0  0  0
    1.6560   68.6950   65.0170 C   0  0  0  0  0  0  0  0  0  0  0  0
   -0.0790   68.7260   63.1780 C   0  0  0  0  0  0  0  0  0  0  0  0
    2.4749   61.1791   70.0459 H   0  0  0  0  0  0  0  0  0  0  0  0
   -0.7844   60.3419   74.7900 H   0  0  0  0  0  0  0  0  0  0  0  0
   -1.3401   60.1172   73.1073 H   0  0  0  0  0  0  0  0  0  0  0  0
    1.5536   60.3980   74.0370 H   0  0  0  0  0  0  0  0  0  0  0  0
   -1.2789   58.4165   74.2846 H   0  0  0  0  0  0  0  0  0  0  0  0
   -1.3444   55.9447   74.6042 H   0  0  0  0  0  0  0  0  0  0  0  0
    2.7465   55.6450   73.2577 H   0  0  0  0  0  0  0  0  0  0  0  0
    2.8219   58.1175   72.9294 H   0  0  0  0  0  0  0  0  0  0  0  0
    1.3928   53.7384   73.9421 H   0  0  0  0  0  0  0  0  0  0  0  0
    3.2638   62.9721   68.6918 H   0  0  0  0  0  0  0  0  0  0  0  0
   -0.1672   65.7616   72.4562 H   0  0  0  0  0  0  0  0  0  0  0  0
    1.1897   66.3347   71.4896 H   0  0  0  0  0  0  0  0  0  0  0  0
    2.3847   65.8962   70.1914 H   0  0  0  0  0  0  0  0  0  0  0  0
    1.8736   68.4132   69.5991 H   0  0  0  0  0  0  0  0  0  0  0  0
    2.4280   67.7037   68.0448 H   0  0  0  0  0  0  0  0  0  0  0  0
    1.2240   69.0368   68.0448 H   0  0  0  0  0  0  0  0  0  0  0  0
   -0.5200   65.4920   69.4642 H   0  0  0  0  0  0  0  0  0  0  0  0
   -0.5186   66.6352   66.8041 H   0  0  0  0  0  0  0  0  0  0  0  0
   -1.6075   67.1798   68.1793 H   0  0  0  0  0  0  0  0  0  0  0  0
   -1.6407   69.2550   67.4470 H   0  0  0  0  0  0  0  0  0  0  0  0
    0.1790   69.2844   67.3334 H   0  0  0  0  0  0  0  0  0  0  0  0
   -1.8309   68.8221   65.1134 H   0  0  0  0  0  0  0  0  0  0  0  0
    1.7659   68.6926   66.1115 H   0  0  0  0  0  0  0  0  0  0  0  0
    2.1155   67.7866   64.6004 H   0  0  0  0  0  0  0  0  0  0  0  0
    2.1549   69.5824   64.6004 H   0  0  0  0  0  0  0  0  0  0  0  0
   -1.1656   68.7220   63.0067 H   0  0  0  0  0  0  0  0  0  0  0  0
    0.3607   69.6257   62.7229 H   0  0  0  0  0  0  0  0  0  0  0  0
    0.3672   67.8295   62.7229 H   0  0  0  0  0  0  0  0  0  0  0  0
  2  1  2  0
  3  2  1  0
  4  3  2  0
  5  4  1  0
  6  5  2  0
  6  1  1  0
  7  5  1  0
  8  7  2  0
  9  7  1  0
 10  9  1  0
 11 10  1  0
 11  4  1  0
 12 10  1  0
 13 12  2  0
 14 13  1  0
 15 14  2  0
 16 15  1  0
 17 16  2  0
 17 12  1  0
 18 15  1  0
 19  2  1  0
 20  6  1  0
 21  1  1  0
 23 22  1  0
 24 23  2  0
 24 21  1  0
 25 23  1  0
 26 25  1  0
 27 26  1  0
 28 27  2  3
 29 28  1  0
 30 28  1  0
  3 31  1  0
  9 32  1  0
  9 33  1  0
 10 34  1  1
 13 35  1  0
 14 36  1  0
 16 37  1  0
 17 38  1  0
 18 39  1  0
 19 40  1  0
 20 41  1  0
 21 42  1  0
 21 43  1  0
 22 44  1  0
 22 45  1  0
 22 46  1  0
 24 47  1  0
 25 48  1  0
 25 49  1  0
 26 50  1  0
 26 51  1  0
 27 52  1  0
 29 53  1  0
 29 54  1  0
 29 55  1  0
 30 56  1  0
 30 57  1  0
 30 58  1  0
M  END
>  <score>  (5) 
-8.555

$$$$
=
     RDKit          3D

 58 60  0  0  0  0  0  0  0  0999 V2000
    0.7800   63.8750   70.9730 C   0  0  0  0  0  0  0  0  0  0  0  0
    1.6030   62.8490   70.4830 C   0  0  0  0  0  0  0  0  0  0  0  0
    2.0950   61.8460   71.3210 C   0  0  0  0  0  0  0  0  0  0  0  0
    1.7790   61.8640   72.6760 C   0  0  0  0  0  0  0  0  0  0  0  0
    0.9460   62.8590   73.1860 C   0  0  0  0  0  0  0  0  0  0  0  0
    0.4540   63.8650   72.3410 C   0  0  0  0  0  0  0  0  0  0  0  0
    0.5770   62.7940   74.6140 C   0  0  0  0  0  0  0  0  0  0  0  0
   -0.1430   63.6620   75.1030 O   0  0  0  0  0  0  0  0  0  0  0  0
    1.0640   61.6060   75.3910 C   0  0  0  0  0  0  0  0  0  0  0  0
    2.4160   61.1950   74.8280 C   0  0  2  0  0  0  0  0  0  0  0  0
    2.3060   60.8520   73.4360 O   0  0  0  0  0  0  0  0  0  0  0  0
    2.9700   60.0020   75.5830 C   0  0  0  0  0  0  0  0  0  0  0  0
    2.8050   59.9160   76.9750 C   0  0  0  0  0  0  0  0  0  0  0  0
    3.2870   58.8120   77.6800 C   0  0  0  0  0  0  0  0  0  0  0  0
    3.9320   57.7860   76.9990 C   0  0  0  0  0  0  0  0  0  0  0  0
    4.1030   57.8450   75.6210 C   0  0  0  0  0  0  0  0  0  0  0  0
    3.6200   58.9500   74.9140 C   0  0  0  0  0  0  0  0  0  0  0  0
    4.3870   56.7280   77.7270 O   0  0  0  0  0  0  0  0  0  0  0  0
    1.9250   62.8310   69.1550 O   0  0  0  0  0  0  0  0  0  0  0  0
   -0.3620   64.8620   72.8140 O   0  0  0  0  0  0  0  0  0  0  0  0
    0.2800   64.9770   70.0640 C   0  0  0  0  0  0  0  0  0  0  0  0
    0.2260   67.4180   68.0730 C   0  0  0  0  0  0  0  0  0  0  0  0
    1.1920   67.2300   69.2100 C   0  0  0  0  0  0  0  0  0  0  0  0
    1.2090   66.1650   70.0370 C   0  0  0  0  0  0  0  0  0  0  0  0
    2.2290   68.3320   69.3680 C   0  0  0  0  0  0  0  0  0  0  0  0
    2.2580   69.3550   68.2230 C   0  0  0  0  0  0  0  0  0  0  0  0
    3.6510   69.7960   67.8620 C   0  0  0  0  0  0  0  0  0  0  0  0
    4.2690   69.7010   66.6690 C   0  0  0  0  0  0  0  0  0  0  0  0
    3.6800   69.0790   65.4330 C   0  0  0  0  0  0  0  0  0  0  0  0
    5.6730   70.2220   66.4900 C   0  0  0  0  0  0  0  0  0  0  0  0
    2.7292   61.0457   70.9119 H   0  0  0  0  0  0  0  0  0  0  0  0
    1.1678   61.8723   76.4532 H   0  0  0  0  0  0  0  0  0  0  0  0
    0.3476   60.7756   75.3064 H   0  0  0  0  0  0  0  0  0  0  0  0
    3.0968   62.0515   74.9417 H   0  0  0  0  0  0  0  0  0  0  0  0
    2.2915   60.7256   77.5143 H   0  0  0  0  0  0  0  0  0  0  0  0
    3.1569   58.7540   78.7707 H   0  0  0  0  0  0  0  0  0  0  0  0
    4.6146   57.0283   75.0907 H   0  0  0  0  0  0  0  0  0  0  0  0
    3.7499   58.9969   73.8227 H   0  0  0  0  0  0  0  0  0  0  0  0
    4.8511   55.9792   77.2752 H   0  0  0  0  0  0  0  0  0  0  0  0
    2.5046   62.1132   68.7959 H   0  0  0  0  0  0  0  0  0  0  0  0
   -0.6969   65.5613   72.1985 H   0  0  0  0  0  0  0  0  0  0  0  0
    0.1868   64.5780   69.0432 H   0  0  0  0  0  0  0  0  0  0  0  0
   -0.6905   65.3186   70.4530 H   0  0  0  0  0  0  0  0  0  0  0  0
   -0.7793   67.6136   68.4745 H   0  0  0  0  0  0  0  0  0  0  0  0
    0.5469   68.2705   67.4564 H   0  0  0  0  0  0  0  0  0  0  0  0
    0.2037   66.5073   67.4564 H   0  0  0  0  0  0  0  0  0  0  0  0
    2.0076   66.1623   70.7935 H   0  0  0  0  0  0  0  0  0  0  0  0
    2.0168   68.8706   70.3034 H   0  0  0  0  0  0  0  0  0  0  0  0
    3.2112   67.8367   69.3670 H   0  0  0  0  0  0  0  0  0  0  0  0
    1.7933   68.9007   67.3355 H   0  0  0  0  0  0  0  0  0  0  0  0
    1.7095   70.2454   68.5640 H   0  0  0  0  0  0  0  0  0  0  0  0
    4.2371   70.2526   68.6732 H   0  0  0  0  0  0  0  0  0  0  0  0
    2.9503   68.3084   65.7224 H   0  0  0  0  0  0  0  0  0  0  0  0
    3.1773   69.8544   64.8363 H   0  0  0  0  0  0  0  0  0  0  0  0
    4.4816   68.6193   64.8363 H   0  0  0  0  0  0  0  0  0  0  0  0
    6.1297   70.3915   67.4762 H   0  0  0  0  0  0  0  0  0  0  0  0
    6.2691   69.4852   65.9316 H   0  0  0  0  0  0  0  0  0  0  0  0
    5.6442   71.1693   65.9316 H   0  0  0  0  0  0  0  0  0  0  0  0
  2  1  2  0
  3  2  1  0
  4  3  2  0
  5  4  1  0
  6  5  2  0
  6  1  1  0
  7  5  1  0
  8  7  2  0
  9  7  1  0
 10  9  1  0
 11 10  1  0
 11  4  1  0
 12 10  1  0
 13 12  2  0
 14 13  1  0
 15 14  2  0
 16 15  1  0
 17 16  2  0
 17 12  1  0
 18 15  1  0
 19  2  1  0
 20  6  1  0
 21  1  1  0
 23 22  1  0
 24 23  2  0
 24 21  1  0
 25 23  1  0
 26 25  1  0
 27 26  1  0
 28 27  2  3
 29 28  1  0
 30 28  1  0
  3 31  1  0
  9 32  1  0
  9 33  1  0
 10 34  1  6
 13 35  1  0
 14 36  1  0
 16 37  1  0
 17 38  1  0
 18 39  1  0
 19 40  1  0
 20 41  1  0
 21 42  1  0
 21 43  1  0
 22 44  1  0
 22 45  1  0
 22 46  1  0
 24 47  1  0
 25 48  1  0
 25 49  1  0
 26 50  1  0
 26 51  1  0
 27 52  1  0
 29 53  1  0
 29 54  1  0
 29 55  1  0
 30 56  1  0
 30 57  1  0
 30 58  1  0
M  END
>  <score>  (6) 
-8.103

$$$$
=
     RDKit          3D

 58 60  0  0  0  0  0  0  0  0999 V2000
    3.7400   59.2100   72.1900 C   0  0  0  0  0  0  0  0  0  0  0  0
    3.2970   58.1310   71.4080 C   0  0  0  0  0  0  0  0  0  0  0  0
    2.2700   57.2910   71.8410 C   0  0  0  0  0  0  0  0  0  0  0  0
    1.6760   57.5110   73.0810 C   0  0  0  0  0  0  0  0  0  0  0  0
    2.0820   58.5880   73.8680 C   0  0  0  0  0  0  0  0  0  0  0  0
    3.1150   59.4300   73.4300 C   0  0  0  0  0  0  0  0  0  0  0  0
    1.3720   58.8270   75.1410 C   0  0  0  0  0  0  0  0  0  0  0  0
    1.7120   59.7570   75.8690 O   0  0  0  0  0  0  0  0  0  0  0  0
    0.2050   57.9350   75.4480 C   0  0  0  0  0  0  0  0  0  0  0  0
    0.4940   56.5600   74.8640 C   0  0  2  0  0  0  0  0  0  0  0  0
    0.6810   56.6400   73.4410 O   0  0  0  0  0  0  0  0  0  0  0  0
   -0.6480   55.6050   75.1550 C   0  0  0  0  0  0  0  0  0  0  0  0
   -0.5230   54.2440   74.8340 C   0  0  0  0  0  0  0  0  0  0  0  0
   -1.5570   53.3500   75.1180 C   0  0  0  0  0  0  0  0  0  0  0  0
   -2.7180   53.8090   75.7270 C   0  0  0  0  0  0  0  0  0  0  0  0
   -2.8640   55.1510   76.0600 C   0  0  0  0  0  0  0  0  0  0  0  0
   -1.8300   56.0460   75.7760 C   0  0  0  0  0  0  0  0  0  0  0  0
   -3.7010   52.9010   75.9860 O   0  0  0  0  0  0  0  0  0  0  0  0
    3.8830   57.9040   70.1940 O   0  0  0  0  0  0  0  0  0  0  0  0
    3.5420   60.4930   74.1850 O   0  0  0  0  0  0  0  0  0  0  0  0
    4.8790   60.0950   71.7260 C   0  0  0  0  0  0  0  0  0  0  0  0
    4.1090   60.6650   68.7250 C   0  0  0  0  0  0  0  0  0  0  0  0
    4.0380   61.6540   69.8560 C   0  0  0  0  0  0  0  0  0  0  0  0
    4.3930   61.3920   71.1300 C   0  0  0  0  0  0  0  0  0  0  0  0
    3.5610   63.0450   69.4700 C   0  0  0  0  0  0  0  0  0  0  0  0
    3.1970   63.9510   70.6550 C   0  0  0  0  0  0  0  0  0  0  0  0
    2.1360   64.9650   70.3190 C   0  0  0  0  0  0  0  0  0  0  0  0
    0.8460   64.9760   70.7070 C   0  0  0  0  0  0  0  0  0  0  0  0
    0.1840   63.9210   71.5480 C   0  0  0  0  0  0  0  0  0  0  0  0
   -0.0700   66.0960   70.2840 C   0  0  0  0  0  0  0  0  0  0  0  0
    1.9315   56.4592   71.2058 H   0  0  0  0  0  0  0  0  0  0  0  0
    0.0718   57.8569   76.5371 H   0  0  0  0  0  0  0  0  0  0  0  0
   -0.7159   58.3486   75.0110 H   0  0  0  0  0  0  0  0  0  0  0  0
    1.4157   56.1861   75.3338 H   0  0  0  0  0  0  0  0  0  0  0  0
    0.3973   53.8790   74.3547 H   0  0  0  0  0  0  0  0  0  0  0  0
   -1.4527   52.2857   74.8604 H   0  0  0  0  0  0  0  0  0  0  0  0
   -3.7865   55.5051   76.5433 H   0  0  0  0  0  0  0  0  0  0  0  0
   -1.9416   57.1077   76.0411 H   0  0  0  0  0  0  0  0  0  0  0  0
   -4.5423   53.1922   76.4191 H   0  0  0  0  0  0  0  0  0  0  0  0
    3.5807   57.1470   69.6322 H   0  0  0  0  0  0  0  0  0  0  0  0
    4.2730   61.0731   73.8544 H   0  0  0  0  0  0  0  0  0  0  0  0
    5.5237   60.3219   72.5879 H   0  0  0  0  0  0  0  0  0  0  0  0
    5.4288   59.5515   70.9435 H   0  0  0  0  0  0  0  0  0  0  0  0
    4.1821   59.6461   69.1330 H   0  0  0  0  0  0  0  0  0  0  0  0
    3.2025   60.7485   68.1074 H   0  0  0  0  0  0  0  0  0  0  0  0
    4.9942   60.8771   68.1074 H   0  0  0  0  0  0  0  0  0  0  0  0
    4.3180   62.2383   71.8287 H   0  0  0  0  0  0  0  0  0  0  0  0
    4.3622   63.5352   68.8975 H   0  0  0  0  0  0  0  0  0  0  0  0
    2.6367   62.9063   68.8900 H   0  0  0  0  0  0  0  0  0  0  0  0
    2.8303   63.3203   71.4782 H   0  0  0  0  0  0  0  0  0  0  0  0
    4.1046   64.5062   70.9344 H   0  0  0  0  0  0  0  0  0  0  0  0
    2.4534   65.8002   69.6773 H   0  0  0  0  0  0  0  0  0  0  0  0
    0.3310   64.1552   72.6127 H   0  0  0  0  0  0  0  0  0  0  0  0
   -0.8925   63.8952   71.3234 H   0  0  0  0  0  0  0  0  0  0  0  0
    0.6290   62.9404   71.3234 H   0  0  0  0  0  0  0  0  0  0  0  0
   -0.4770   66.5937   71.1765 H   0  0  0  0  0  0  0  0  0  0  0  0
    0.4945   66.8244   69.6834 H   0  0  0  0  0  0  0  0  0  0  0  0
   -0.8959   65.6872   69.6834 H   0  0  0  0  0  0  0  0  0  0  0  0
  2  1  2  0
  3  2  1  0
  4  3  2  0
  5  4  1  0
  6  5  2  0
  6  1  1  0
  7  5  1  0
  8  7  2  0
  9  7  1  0
 10  9  1  0
 11 10  1  0
 11  4  1  0
 12 10  1  0
 13 12  2  0
 14 13  1  0
 15 14  2  0
 16 15  1  0
 17 16  2  0
 17 12  1  0
 18 15  1  0
 19  2  1  0
 20  6  1  0
 21  1  1  0
 23 22  1  0
 24 23  2  0
 24 21  1  0
 25 23  1  0
 26 25  1  0
 27 26  1  0
 28 27  2  3
 29 28  1  0
 30 28  1  0
  3 31  1  0
  9 32  1  0
  9 33  1  0
 10 34  1  1
 13 35  1  0
 14 36  1  0
 16 37  1  0
 17 38  1  0
 18 39  1  0
 19 40  1  0
 20 41  1  0
 21 42  1  0
 21 43  1  0
 22 44  1  0
 22 45  1  0
 22 46  1  0
 24 47  1  0
 25 48  1  0
 25 49  1  0
 26 50  1  0
 26 51  1  0
 27 52  1  0
 29 53  1  0
 29 54  1  0
 29 55  1  0
 30 56  1  0
 30 57  1  0
 30 58  1  0
M  END
>  <score>  (7) 
-7.979

$$$$
=
     RDKit          3D

 58 60  0  0  0  0  0  0  0  0999 V2000
    1.1630   61.7910   73.4330 C   0  0  0  0  0  0  0  0  0  0  0  0
   -0.1750   61.3960   73.2770 C   0  0  0  0  0  0  0  0  0  0  0  0
   -0.5830   60.0840   73.5290 C   0  0  0  0  0  0  0  0  0  0  0  0
    0.3540   59.1370   73.9300 C   0  0  0  0  0  0  0  0  0  0  0  0
    1.6860   59.5070   74.1140 C   0  0  0  0  0  0  0  0  0  0  0  0
    2.0920   60.8260   73.8600 C   0  0  0  0  0  0  0  0  0  0  0  0
    2.6300   58.4870   74.6140 C   0  0  0  0  0  0  0  0  0  0  0  0
    3.8150   58.7710   74.7740 O   0  0  0  0  0  0  0  0  0  0  0  0
    2.0580   57.1450   74.9670 C   0  0  0  0  0  0  0  0  0  0  0  0
    0.8980   56.8620   74.0240 C   0  0  2  0  0  0  0  0  0  0  0  0
   -0.1190   57.8700   74.1510 O   0  0  0  0  0  0  0  0  0  0  0  0
    0.2840   55.5070   74.3230 C   0  0  0  0  0  0  0  0  0  0  0  0
   -0.9960   55.4290   74.8940 C   0  0  0  0  0  0  0  0  0  0  0  0
   -1.5830   54.1890   75.1520 C   0  0  0  0  0  0  0  0  0  0  0  0
   -0.8980   53.0220   74.8370 C   0  0  0  0  0  0  0  0  0  0  0  0
    0.3690   53.0730   74.2660 C   0  0  0  0  0  0  0  0  0  0  0  0
    0.9570   54.3140   74.0070 C   0  0  0  0  0  0  0  0  0  0  0  0
   -1.5090   51.8340   75.1060 O   0  0  0  0  0  0  0  0  0  0  0  0
   -1.0990   62.3200   72.8730 O   0  0  0  0  0  0  0  0  0  0  0  0
    3.3960   61.2190   74.0240 O   0  0  0  0  0  0  0  0  0  0  0  0
    1.6010   63.2070   73.1230 C   0  0  0  0  0  0  0  0  0  0  0  0
    0.4220   64.0140   70.3160 C   0  0  0  0  0  0  0  0  0  0  0  0
    1.8580   63.6700   70.6020 C   0  0  0  0  0  0  0  0  0  0  0  0
    2.3350   63.3070   71.8100 C   0  0  0  0  0  0  0  0  0  0  0  0
    2.7860   63.7130   69.3990 C   0  0  0  0  0  0  0  0  0  0  0  0
    3.9600   62.7240   69.4580 C   0  0  0  0  0  0  0  0  0  0  0  0
    3.5220   61.3040   69.6970 C   0  0  0  0  0  0  0  0  0  0  0  0
    4.0530   60.4040   70.5480 C   0  0  0  0  0  0  0  0  0  0  0  0
    5.2500   60.6400   71.4260 C   0  0  0  0  0  0  0  0  0  0  0  0
    3.4610   59.0230   70.6680 C   0  0  0  0  0  0  0  0  0  0  0  0
   -1.6394   59.8011   73.4110 H   0  0  0  0  0  0  0  0  0  0  0  0
    2.8294   56.3692   74.8524 H   0  0  0  0  0  0  0  0  0  0  0  0
    1.7100   57.1419   76.0105 H   0  0  0  0  0  0  0  0  0  0  0  0
    1.2944   56.8686   72.9979 H   0  0  0  0  0  0  0  0  0  0  0  0
   -1.5408   56.3524   75.1401 H   0  0  0  0  0  0  0  0  0  0  0  0
   -2.5848   54.1360   75.6033 H   0  0  0  0  0  0  0  0  0  0  0  0
    0.9041   52.1439   74.0202 H   0  0  0  0  0  0  0  0  0  0  0  0
    1.9571   54.3578   73.5510 H   0  0  0  0  0  0  0  0  0  0  0  0
   -1.0504   50.9825   74.8947 H   0  0  0  0  0  0  0  0  0  0  0  0
   -2.0462   62.0556   72.7588 H   0  0  0  0  0  0  0  0  0  0  0  0
    3.6578   62.1555   73.8383 H   0  0  0  0  0  0  0  0  0  0  0  0
    0.7102   63.8509   73.0797 H   0  0  0  0  0  0  0  0  0  0  0  0
    2.2908   63.5264   73.9181 H   0  0  0  0  0  0  0  0  0  0  0  0
   -0.1198   64.1438   71.2644 H   0  0  0  0  0  0  0  0  0  0  0  0
    0.3770   64.9483   69.7372 H   0  0  0  0  0  0  0  0  0  0  0  0
   -0.0414   63.2015   69.7372 H   0  0  0  0  0  0  0  0  0  0  0  0
    3.4039   63.0491   71.8416 H   0  0  0  0  0  0  0  0  0  0  0  0
    2.1928   63.4874   68.5005 H   0  0  0  0  0  0  0  0  0  0  0  0
    3.2286   64.7199   69.3840 H   0  0  0  0  0  0  0  0  0  0  0  0
    4.5029   62.7671   68.5023 H   0  0  0  0  0  0  0  0  0  0  0  0
    4.5961   63.0189   70.3056 H   0  0  0  0  0  0  0  0  0  0  0  0
    2.6625   60.9582   69.1039 H   0  0  0  0  0  0  0  0  0  0  0  0
    4.9476   60.5804   72.4819 H   0  0  0  0  0  0  0  0  0  0  0  0
    6.0129   59.8750   71.2193 H   0  0  0  0  0  0  0  0  0  0  0  0
    5.6654   61.6373   71.2193 H   0  0  0  0  0  0  0  0  0  0  0  0
    3.3495   58.7630   71.7310 H   0  0  0  0  0  0  0  0  0  0  0  0
    2.4752   59.0030   70.1803 H   0  0  0  0  0  0  0  0  0  0  0  0
    4.1262   58.2952   70.1803 H   0  0  0  0  0  0  0  0  0  0  0  0
  2  1  2  0
  3  2  1  0
  4  3  2  0
  5  4  1  0
  6  5  2  0
  6  1  1  0
  7  5  1  0
  8  7  2  0
  9  7  1  0
 10  9  1  0
 11 10  1  0
 11  4  1  0
 12 10  1  0
 13 12  2  0
 14 13  1  0
 15 14  2  0
 16 15  1  0
 17 16  2  0
 17 12  1  0
 18 15  1  0
 19  2  1  0
 20  6  1  0
 21  1  1  0
 23 22  1  0
 24 23  2  0
 24 21  1  0
 25 23  1  0
 26 25  1  0
 27 26  1  0
 28 27  2  3
 29 28  1  0
 30 28  1  0
  3 31  1  0
  9 32  1  0
  9 33  1  0
 10 34  1  6
 13 35  1  0
 14 36  1  0
 16 37  1  0
 17 38  1  0
 18 39  1  0
 19 40  1  0
 20 41  1  0
 21 42  1  0
 21 43  1  0
 22 44  1  0
 22 45  1  0
 22 46  1  0
 24 47  1  0
 25 48  1  0
 25 49  1  0
 26 50  1  0
 26 51  1  0
 27 52  1  0
 29 53  1  0
 29 54  1  0
 29 55  1  0
 30 56  1  0
 30 57  1  0
 30 58  1  0
M  END
>  <score>  (8) 
-7.908

$$$$
=
     RDKit          3D

 58 60  0  0  0  0  0  0  0  0999 V2000
    3.1170   59.4400   73.0010 C   0  0  0  0  0  0  0  0  0  0  0  0
    2.5000   58.2720   72.5240 C   0  0  0  0  0  0  0  0  0  0  0  0
    1.1940   57.9360   72.8870 C   0  0  0  0  0  0  0  0  0  0  0  0
    0.4860   58.7640   73.7530 C   0  0  0  0  0  0  0  0  0  0  0  0
    1.0660   59.9410   74.2250 C   0  0  0  0  0  0  0  0  0  0  0  0
    2.3780   60.2750   73.8580 C   0  0  0  0  0  0  0  0  0  0  0  0
    0.2500   60.8260   75.0800 C   0  0  0  0  0  0  0  0  0  0  0  0
    0.7310   61.8640   75.5280 O   0  0  0  0  0  0  0  0  0  0  0  0
   -1.1790   60.4260   75.3070 C   0  0  0  0  0  0  0  0  0  0  0  0
   -1.2480   58.9060   75.3190 C   0  0  2  0  0  0  0  0  0  0  0  0
   -0.7860   58.3650   74.0700 O   0  0  0  0  0  0  0  0  0  0  0  0
   -2.6720   58.4380   75.5580 C   0  0  0  0  0  0  0  0  0  0  0  0
   -2.9110   57.2750   76.3060 C   0  0  0  0  0  0  0  0  0  0  0  0
   -4.2160   56.8460   76.5550 C   0  0  0  0  0  0  0  0  0  0  0  0
   -5.2880   57.5790   76.0610 C   0  0  0  0  0  0  0  0  0  0  0  0
   -5.0780   58.7370   75.3220 C   0  0  0  0  0  0  0  0  0  0  0  0
   -3.7720   59.1670   75.0740 C   0  0  0  0  0  0  0  0  0  0  0  0
   -6.5450   57.1230   76.3280 O   0  0  0  0  0  0  0  0  0  0  0  0
    3.1950   57.4500   71.6810 O   0  0  0  0  0  0  0  0  0  0  0  0
    2.9800   61.4220   74.3120 O   0  0  0  0  0  0  0  0  0  0  0  0
    4.5450   59.7770   72.6290 C   0  0  0  0  0  0  0  0  0  0  0  0
    3.7870   60.0970   69.5880 C   0  0  0  0  0  0  0  0  0  0  0  0
    4.3020   61.1880   70.4870 C   0  0  0  0  0  0  0  0  0  0  0  0
    4.6400   61.0210   71.7820 C   0  0  0  0  0  0  0  0  0  0  0  0
    4.4720   62.5460   69.8250 C   0  0  0  0  0  0  0  0  0  0  0  0
    4.0260   63.7390   70.6830 C   0  0  0  0  0  0  0  0  0  0  0  0
    2.6830   64.2870   70.2790 C   0  0  0  0  0  0  0  0  0  0  0  0
    1.5090   64.1680   70.9290 C   0  0  0  0  0  0  0  0  0  0  0  0
    1.2970   63.4070   72.2080 C   0  0  0  0  0  0  0  0  0  0  0  0
    0.2610   64.8090   70.3770 C   0  0  0  0  0  0  0  0  0  0  0  0
    0.7275   57.0220   72.4907 H   0  0  0  0  0  0  0  0  0  0  0  0
   -1.5286   60.8228   76.2716 H   0  0  0  0  0  0  0  0  0  0  0  0
   -1.8193   60.8303   74.5092 H   0  0  0  0  0  0  0  0  0  0  0  0
   -0.6006   58.5500   76.1340 H   0  0  0  0  0  0  0  0  0  0  0  0
   -2.0625   56.6962   76.6997 H   0  0  0  0  0  0  0  0  0  0  0  0
   -4.3948   55.9316   77.1398 H   0  0  0  0  0  0  0  0  0  0  0  0
   -5.9333   59.3106   74.9353 H   0  0  0  0  0  0  0  0  0  0  0  0
   -3.6028   60.0860   74.4937 H   0  0  0  0  0  0  0  0  0  0  0  0
   -7.3332   57.6191   75.9923 H   0  0  0  0  0  0  0  0  0  0  0  0
    2.7732   56.6232   71.3366 H   0  0  0  0  0  0  0  0  0  0  0  0
    3.9072   61.6359   74.0388 H   0  0  0  0  0  0  0  0  0  0  0  0
    5.1231   59.9329   73.5518 H   0  0  0  0  0  0  0  0  0  0  0  0
    4.9449   58.9386   72.0397 H   0  0  0  0  0  0  0  0  0  0  0  0
    3.3970   59.2707   70.2005 H   0  0  0  0  0  0  0  0  0  0  0  0
    2.9816   60.4947   68.9531 H   0  0  0  0  0  0  0  0  0  0  0  0
    4.6060   59.7279   68.9531 H   0  0  0  0  0  0  0  0  0  0  0  0
    5.0387   61.9123   72.2885 H   0  0  0  0  0  0  0  0  0  0  0  0
    5.5367   62.6778   69.5821 H   0  0  0  0  0  0  0  0  0  0  0  0
    3.8226   62.5421   68.9372 H   0  0  0  0  0  0  0  0  0  0  0  0
    3.9704   63.4142   71.7325 H   0  0  0  0  0  0  0  0  0  0  0  0
    4.7647   64.5413   70.5391 H   0  0  0  0  0  0  0  0  0  0  0  0
    2.6573   64.8545   69.3370 H   0  0  0  0  0  0  0  0  0  0  0  0
    1.4821   64.0714   73.0649 H   0  0  0  0  0  0  0  0  0  0  0  0
    0.2617   63.0374   72.2475 H   0  0  0  0  0  0  0  0  0  0  0  0
    1.9921   62.5554   72.2475 H   0  0  0  0  0  0  0  0  0  0  0  0
   -0.3803   65.1384   71.2078 H   0  0  0  0  0  0  0  0  0  0  0  0
    0.5367   65.6771   69.7602 H   0  0  0  0  0  0  0  0  0  0  0  0
   -0.2840   64.0792   69.7602 H   0  0  0  0  0  0  0  0  0  0  0  0
  2  1  2  0
  3  2  1  0
  4  3  2  0
  5  4  1  0
  6  5  2  0
  6  1  1  0
  7  5  1  0
  8  7  2  0
  9  7  1  0
 10  9  1  0
 11 10  1  0
 11  4  1  0
 12 10  1  0
 13 12  2  0
 14 13  1  0
 15 14  2  0
 16 15  1  0
 17 16  2  0
 17 12  1  0
 18 15  1  0
 19  2  1  0
 20  6  1  0
 21  1  1  0
 23 22  1  0
 24 23  2  0
 24 21  1  0
 25 23  1  0
 26 25  1  0
 27 26  1  0
 28 27  2  3
 29 28  1  0
 30 28  1  0
  3 31  1  0
  9 32  1  0
  9 33  1  0
 10 34  1  1
 13 35  1  0
 14 36  1  0
 16 37  1  0
 17 38  1  0
 18 39  1  0
 19 40  1  0
 20 41  1  0
 21 42  1  0
 21 43  1  0
 22 44  1  0
 22 45  1  0
 22 46  1  0
 24 47  1  0
 25 48  1  0
 25 49  1  0
 26 50  1  0
 26 51  1  0
 27 52  1  0
 29 53  1  0
 29 54  1  0
 29 55  1  0
 30 56  1  0
 30 57  1  0
 30 58  1  0
M  END
>  <score>  (9) 
-7.57

$$$$
