=
     RDKit          3D

 59 62  0  0  0  0  0  0  0  0999 V2000
    4.6890   69.7900   65.6820 N   0  0  0  0  0  0  0  0  0  0  0  0
    3.8640   69.1380   66.6550 C   0  0  0  0  0  0  0  0  0  0  0  0
    2.6080   68.7840   65.8650 C   0  0  1  0  0  0  0  0  0  0  0  0
    3.1580   68.3870   64.4350 C   0  0  0  0  0  0  0  0  0  0  0  0
    4.4420   69.2850   64.3960 C   0  0  0  0  0  0  0  0  0  0  0  0
    5.1770   69.4680   63.4360 O   0  0  0  0  0  0  0  0  0  0  0  0
    2.2220   68.7790   63.2630 C   0  0  0  0  0  0  0  0  0  0  0  0
    0.8980   69.1760   63.5470 C   0  0  0  0  0  0  0  0  0  0  0  0
    0.0160   69.5620   62.5370 C   0  0  0  0  0  0  0  0  0  0  0  0
    0.4350   69.5690   61.2130 C   0  0  0  0  0  0  0  0  0  0  0  0
    1.7360   69.1910   60.9020 C   0  0  0  0  0  0  0  0  0  0  0  0
    2.6220   68.8050   61.9150 C   0  0  0  0  0  0  0  0  0  0  0  0
    3.5250   66.8750   64.3930 C   0  0  0  0  0  0  0  0  0  0  0  0
    4.8150   66.4590   64.0000 C   0  0  0  0  0  0  0  0  0  0  0  0
    5.1510   65.1060   63.9200 C   0  0  0  0  0  0  0  0  0  0  0  0
    4.2070   64.1340   64.2290 C   0  0  0  0  0  0  0  0  0  0  0  0
    2.9290   64.5150   64.6240 C   0  0  0  0  0  0  0  0  0  0  0  0
    2.5910   65.8690   64.7060 C   0  0  0  0  0  0  0  0  0  0  0  0
    6.2030   70.5410   67.5080 C   0  0  0  0  0  0  0  0  0  0  0  0
    5.9880   70.3610   66.0150 C   0  0  0  0  0  0  0  0  0  0  0  0
    1.7210   67.7450   66.5770 C   0  0  0  0  0  0  0  0  0  0  0  0
    1.4120   68.1230   68.0250 C   0  0  0  0  0  0  0  0  0  0  0  0
   -0.0850   68.2300   68.2370 N   0  0  0  0  0  4  0  0  0  0  0  0
   -0.8490   66.9540   67.8520 C   0  0  0  0  0  0  0  0  0  0  0  0
   -2.3030   67.2890   67.5120 C   0  0  0  0  0  0  0  0  0  0  0  0
   -2.4200   68.1620   66.3850 O   0  0  0  0  0  0  0  0  0  0  0  0
   -1.3390   69.0870   66.2300 C   0  0  0  0  0  0  0  0  0  0  0  0
   -0.6870   69.4700   67.5600 C   0  0  0  0  0  0  0  0  0  0  0  0
    4.3533   68.2331   67.0444 H   0  0  0  0  0  0  0  0  0  0  0  0
    3.6579   69.7643   67.5355 H   0  0  0  0  0  0  0  0  0  0  0  0
    1.8940   69.6157   65.7731 H   0  0  0  0  0  0  0  0  0  0  0  0
    0.5524   69.1813   64.5913 H   0  0  0  0  0  0  0  0  0  0  0  0
   -1.0120   69.8610   62.7897 H   0  0  0  0  0  0  0  0  0  0  0  0
   -0.2587   69.8720   60.4149 H   0  0  0  0  0  0  0  0  0  0  0  0
    2.0712   69.1952   59.8543 H   0  0  0  0  0  0  0  0  0  0  0  0
    3.6503   68.5166   61.6516 H   0  0  0  0  0  0  0  0  0  0  0  0
    5.5723   67.2171   63.7513 H   0  0  0  0  0  0  0  0  0  0  0  0
    6.1644   64.8091   63.6119 H   0  0  0  0  0  0  0  0  0  0  0  0
    4.4694   63.0679   64.1615 H   0  0  0  0  0  0  0  0  0  0  0  0
    2.1811   63.7477   64.8729 H   0  0  0  0  0  0  0  0  0  0  0  0
    1.5763   66.1538   65.0210 H   0  0  0  0  0  0  0  0  0  0  0  0
    5.4734   69.9301   68.0598 H   0  0  0  0  0  0  0  0  0  0  0  0
    7.2222   70.2229   67.7727 H   0  0  0  0  0  0  0  0  0  0  0  0
    6.0691   71.6003   67.7727 H   0  0  0  0  0  0  0  0  0  0  0  0
    6.7719   69.6935   65.6278 H   0  0  0  0  0  0  0  0  0  0  0  0
    6.0301   71.3607   65.5580 H   0  0  0  0  0  0  0  0  0  0  0  0
    0.7726   67.6566   66.0268 H   0  0  0  0  0  0  0  0  0  0  0  0
    2.2733   66.7939   66.5937 H   0  0  0  0  0  0  0  0  0  0  0  0
    1.8184   67.3513   68.6953 H   0  0  0  0  0  0  0  0  0  0  0  0
    1.8733   69.0971   68.2449 H   0  0  0  0  0  0  0  0  0  0  0  0
   -0.2052   68.3446   69.2535 H   0  0  0  0  0  0  0  0  0  0  0  0
   -0.3683   66.4932   66.9764 H   0  0  0  0  0  0  0  0  0  0  0  0
   -0.8315   66.2558   68.7018 H   0  0  0  0  0  0  0  0  0  0  0  0
   -2.8367   66.3533   67.2891 H   0  0  0  0  0  0  0  0  0  0  0  0
   -2.7358   67.8078   68.3801 H   0  0  0  0  0  0  0  0  0  0  0  0
   -0.5754   68.6293   65.5839 H   0  0  0  0  0  0  0  0  0  0  0  0
   -1.7520   70.0059   65.7884 H   0  0  0  0  0  0  0  0  0  0  0  0
    0.1102   70.2049   67.3746 H   0  0  0  0  0  0  0  0  0  0  0  0
   -1.4523   69.9019   68.2216 H   0  0  0  0  0  0  0  0  0  0  0  0
  2  1  1  0
  3  2  1  0
  4  3  1  0
  5  4  1  0
  5  1  1  0
  6  5  2  0
  7  4  1  0
  8  7  2  0
  9  8  1  0
 10  9  2  0
 11 10  1  0
 12 11  2  0
 12  7  1  0
 13  4  1  0
 14 13  2  0
 15 14  1  0
 16 15  2  0
 17 16  1  0
 18 17  2  0
 18 13  1  0
 20  1  1  0
 20 19  1  0
 21  3  1  0
 22 21  1  0
 23 22  1  0
 24 23  1  0
 25 24  1  0
 26 25  1  0
 27 26  1  0
 28 27  1  0
 28 23  1  0
  2 29  1  0
  2 30  1  0
  3 31  1  6
  8 32  1  0
  9 33  1  0
 10 34  1  0
 11 35  1  0
 12 36  1  0
 14 37  1  0
 15 38  1  0
 16 39  1  0
 17 40  1  0
 18 41  1  0
 19 42  1  0
 19 43  1  0
 19 44  1  0
 20 45  1  0
 20 46  1  0
 21 47  1  0
 21 48  1  0
 22 49  1  0
 22 50  1  0
 23 51  1  0
 24 52  1  0
 24 53  1  0
 25 54  1  0
 25 55  1  0
 27 56  1  0
 27 57  1  0
 28 58  1  0
 28 59  1  0
M  CHG  1  23   1
M  END
>  <score>  (1) 
-10.328

$$$$
=
     RDKit          3D

 59 62  0  0  0  0  0  0  0  0999 V2000
    3.9250   65.4830   64.0240 N   0  0  0  0  0  0  0  0  0  0  0  0
    2.6300   65.4590   64.6360 C   0  0  0  0  0  0  0  0  0  0  0  0
    2.6020   66.7540   65.4420 C   0  0  1  0  0  0  0  0  0  0  0  0
    3.3750   67.7880   64.5260 C   0  0  0  0  0  0  0  0  0  0  0  0
    4.3430   66.8020   63.7870 C   0  0  0  0  0  0  0  0  0  0  0  0
    5.2700   67.1030   63.0490 O   0  0  0  0  0  0  0  0  0  0  0  0
    4.2080   68.8330   65.3120 C   0  0  0  0  0  0  0  0  0  0  0  0
    3.7890   69.2120   66.6050 C   0  0  0  0  0  0  0  0  0  0  0  0
    4.5090   70.1300   67.3700 C   0  0  0  0  0  0  0  0  0  0  0  0
    5.6760   70.6910   66.8650 C   0  0  0  0  0  0  0  0  0  0  0  0
    6.1200   70.3310   65.5980 C   0  0  0  0  0  0  0  0  0  0  0  0
    5.3980   69.4090   64.8310 C   0  0  0  0  0  0  0  0  0  0  0  0
    2.3950   68.4720   63.5290 C   0  0  0  0  0  0  0  0  0  0  0  0
    1.1400   68.9470   63.9660 C   0  0  0  0  0  0  0  0  0  0  0  0
    0.2330   69.5300   63.0780 C   0  0  0  0  0  0  0  0  0  0  0  0
    0.5550   69.6510   61.7320 C   0  0  0  0  0  0  0  0  0  0  0  0
    1.7870   69.1950   61.2740 C   0  0  0  0  0  0  0  0  0  0  0  0
    2.6970   68.6130   62.1610 C   0  0  0  0  0  0  0  0  0  0  0  0
    4.8360   63.1680   63.9930 C   0  0  0  0  0  0  0  0  0  0  0  0
    4.4180   64.3910   63.1940 C   0  0  0  0  0  0  0  0  0  0  0  0
    1.1840   67.1550   65.8910 C   0  0  0  0  0  0  0  0  0  0  0  0
    1.1380   67.6570   67.3340 C   0  0  0  0  0  0  0  0  0  0  0  0
   -0.2940   67.9070   67.7620 N   0  0  0  0  0  4  0  0  0  0  0  0
   -1.2510   66.7630   67.3920 C   0  0  0  0  0  0  0  0  0  0  0  0
   -2.6850   67.2850   67.2880 C   0  0  0  0  0  0  0  0  0  0  0  0
   -2.8430   68.2670   66.2590 O   0  0  0  0  0  0  0  0  0  0  0  0
   -1.6880   69.0790   66.0240 C   0  0  0  0  0  0  0  0  0  0  0  0
   -0.8250   69.2620   67.2740 C   0  0  0  0  0  0  0  0  0  0  0  0
    1.8346   65.4499   63.8762 H   0  0  0  0  0  0  0  0  0  0  0  0
    2.4602   64.5635   65.2519 H   0  0  0  0  0  0  0  0  0  0  0  0
    3.0985   66.6764   66.4205 H   0  0  0  0  0  0  0  0  0  0  0  0
    2.8705   68.7721   67.0207 H   0  0  0  0  0  0  0  0  0  0  0  0
    4.1532   70.4097   68.3726 H   0  0  0  0  0  0  0  0  0  0  0  0
    6.2454   71.4162   67.4649 H   0  0  0  0  0  0  0  0  0  0  0  0
    7.0436   70.7729   65.1959 H   0  0  0  0  0  0  0  0  0  0  0  0
    5.7681   69.1296   63.8335 H   0  0  0  0  0  0  0  0  0  0  0  0
    0.8703   68.8562   65.0286 H   0  0  0  0  0  0  0  0  0  0  0  0
   -0.7380   69.8940   63.4451 H   0  0  0  0  0  0  0  0  0  0  0  0
   -0.1610   70.1054   61.0314 H   0  0  0  0  0  0  0  0  0  0  0  0
    2.0460   69.2929   60.2094 H   0  0  0  0  0  0  0  0  0  0  0  0
    3.6674   68.2585   61.7832 H   0  0  0  0  0  0  0  0  0  0  0  0
    4.7605   63.3889   65.0679 H   0  0  0  0  0  0  0  0  0  0  0  0
    4.1752   62.3244   63.7447 H   0  0  0  0  0  0  0  0  0  0  0  0
    5.8749   62.9053   63.7447 H   0  0  0  0  0  0  0  0  0  0  0  0
    3.6206   64.0959   62.4961 H   0  0  0  0  0  0  0  0  0  0  0  0
    5.3129   64.7589   62.6707 H   0  0  0  0  0  0  0  0  0  0  0  0
    0.8189   67.9543   65.2293 H   0  0  0  0  0  0  0  0  0  0  0  0
    0.5524   66.2563   65.8333 H   0  0  0  0  0  0  0  0  0  0  0  0
    1.5869   66.9010   67.9950 H   0  0  0  0  0  0  0  0  0  0  0  0
    1.6999   68.6003   67.4013 H   0  0  0  0  0  0  0  0  0  0  0  0
   -0.2650   67.9396   68.7911 H   0  0  0  0  0  0  0  0  0  0  0  0
   -0.9491   66.3356   66.4244 H   0  0  0  0  0  0  0  0  0  0  0  0
   -1.2064   65.9912   68.1745 H   0  0  0  0  0  0  0  0  0  0  0  0
   -3.3528   66.4381   67.0715 H   0  0  0  0  0  0  0  0  0  0  0  0
   -2.9336   67.7652   68.2459 H   0  0  0  0  0  0  0  0  0  0  0  0
   -1.0775   68.6032   65.2425 H   0  0  0  0  0  0  0  0  0  0  0  0
   -2.0411   70.0748   65.7178 H   0  0  0  0  0  0  0  0  0  0  0  0
    0.0242   69.9190   67.0349 H   0  0  0  0  0  0  0  0  0  0  0  0
   -1.4391   69.7111   68.0684 H   0  0  0  0  0  0  0  0  0  0  0  0
  2  1  1  0
  3  2  1  0
  4  3  1  0
  5  4  1  0
  5  1  1  0
  6  5  2  0
  7  4  1  0
  8  7  2  0
  9  8  1  0
 10  9  2  0
 11 10  1  0
 12 11  2  0
 12  7  1  0
 13  4  1  0
 14 13  2  0
 15 14  1  0
 16 15  2  0
 17 16  1  0
 18 17  2  0
 18 13  1  0
 20  1  1  0
 20 19  1  0
 21  3  1  0
 22 21  1  0
 23 22  1  0
 24 23  1  0
 25 24  1  0
 26 25  1  0
 27 26  1  0
 28 27  1  0
 28 23  1  0
  2 29  1  0
  2 30  1  0
  3 31  1  1
  8 32  1  0
  9 33  1  0
 10 34  1  0
 11 35  1  0
 12 36  1  0
 14 37  1  0
 15 38  1  0
 16 39  1  0
 17 40  1  0
 18 41  1  0
 19 42  1  0
 19 43  1  0
 19 44  1  0
 20 45  1  0
 20 46  1  0
 21 47  1  0
 21 48  1  0
 22 49  1  0
 22 50  1  0
 23 51  1  0
 24 52  1  0
 24 53  1  0
 25 54  1  0
 25 55  1  0
 27 56  1  0
 27 57  1  0
 28 58  1  0
 28 59  1  0
M  CHG  1  23   1
M  END
>  <score>  (2) 
-10.001

$$$$
=
     RDKit          3D

 59 62  0  0  0  0  0  0  0  0999 V2000
    1.5930   68.7110   62.4880 N   0  0  0  0  0  0  0  0  0  0  0  0
    1.0320   69.0540   63.7600 C   0  0  0  0  0  0  0  0  0  0  0  0
    1.5910   67.9790   64.6880 C   0  0  1  0  0  0  0  0  0  0  0  0
    3.0620   67.7450   64.1540 C   0  0  0  0  0  0  0  0  0  0  0  0
    2.8440   68.0940   62.6410 C   0  0  0  0  0  0  0  0  0  0  0  0
    3.6480   67.9420   61.7330 O   0  0  0  0  0  0  0  0  0  0  0  0
    3.5560   66.2810   64.2760 C   0  0  0  0  0  0  0  0  0  0  0  0
    2.6480   65.2850   64.6950 C   0  0  0  0  0  0  0  0  0  0  0  0
    3.0280   63.9460   64.8030 C   0  0  0  0  0  0  0  0  0  0  0  0
    4.3250   63.5630   64.4860 C   0  0  0  0  0  0  0  0  0  0  0  0
    5.2400   64.5200   64.0620 C   0  0  0  0  0  0  0  0  0  0  0  0
    4.8600   65.8630   63.9530 C   0  0  0  0  0  0  0  0  0  0  0  0
    4.0520   68.7410   64.8260 C   0  0  0  0  0  0  0  0  0  0  0  0
    5.0950   69.3290   64.0800 C   0  0  0  0  0  0  0  0  0  0  0  0
    6.0160   70.1960   64.6750 C   0  0  0  0  0  0  0  0  0  0  0  0
    5.9180   70.4940   66.0280 C   0  0  0  0  0  0  0  0  0  0  0  0
    4.8960   69.9320   66.7870 C   0  0  0  0  0  0  0  0  0  0  0  0
    3.9730   69.0660   66.1930 C   0  0  0  0  0  0  0  0  0  0  0  0
   -0.1450   69.9870   61.2440 C   0  0  0  0  0  0  0  0  0  0  0  0
    1.2750   69.4460   61.2700 C   0  0  0  0  0  0  0  0  0  0  0  0
    1.4470   68.3370   66.1800 C   0  0  0  0  0  0  0  0  0  0  0  0
    0.7090   67.2620   66.9780 C   0  0  0  0  0  0  0  0  0  0  0  0
   -0.6180   67.7940   67.4810 N   0  0  0  0  0  4  0  0  0  0  0  0
   -1.7710   66.7880   67.3440 C   0  0  0  0  0  0  0  0  0  0  0  0
   -3.1120   67.5240   67.2840 C   0  0  0  0  0  0  0  0  0  0  0  0
   -3.2180   68.3890   66.1500 O   0  0  0  0  0  0  0  0  0  0  0  0
   -1.9810   68.9650   65.7190 C   0  0  0  0  0  0  0  0  0  0  0  0
   -0.9800   69.1510   66.8600 C   0  0  0  0  0  0  0  0  0  0  0  0
    1.3561   70.0563   64.0769 H   0  0  0  0  0  0  0  0  0  0  0  0
   -0.0674   69.0882   63.7519 H   0  0  0  0  0  0  0  0  0  0  0  0
    1.0282   67.0343   64.6609 H   0  0  0  0  0  0  0  0  0  0  0  0
    1.6151   65.5709   64.9427 H   0  0  0  0  0  0  0  0  0  0  0  0
    2.2996   63.1935   65.1395 H   0  0  0  0  0  0  0  0  0  0  0  0
    4.6265   62.5085   64.5700 H   0  0  0  0  0  0  0  0  0  0  0  0
    6.2681   64.2203   63.8108 H   0  0  0  0  0  0  0  0  0  0  0  0
    5.5948   66.6054   63.6083 H   0  0  0  0  0  0  0  0  0  0  0  0
    5.1854   69.1005   63.0078 H   0  0  0  0  0  0  0  0  0  0  0  0
    6.8194   70.6428   64.0709 H   0  0  0  0  0  0  0  0  0  0  0  0
    6.6457   71.1719   66.4980 H   0  0  0  0  0  0  0  0  0  0  0  0
    4.8140   70.1699   67.8578 H   0  0  0  0  0  0  0  0  0  0  0  0
    3.1699   68.6305   66.8057 H   0  0  0  0  0  0  0  0  0  0  0  0
   -0.5042   70.1238   62.2747 H   0  0  0  0  0  0  0  0  0  0  0  0
   -0.1595   70.9537   60.7193 H   0  0  0  0  0  0  0  0  0  0  0  0
   -0.7991   69.2751   60.7193 H   0  0  0  0  0  0  0  0  0  0  0  0
    1.9721   70.2923   61.1816 H   0  0  0  0  0  0  0  0  0  0  0  0
    1.3687   68.7403   60.4314 H   0  0  0  0  0  0  0  0  0  0  0  0
    2.4516   68.4659   66.6092 H   0  0  0  0  0  0  0  0  0  0  0  0
    0.8548   69.2618   66.2433 H   0  0  0  0  0  0  0  0  0  0  0  0
    0.5284   66.3907   66.3313 H   0  0  0  0  0  0  0  0  0  0  0  0
    1.3266   66.9714   67.8406 H   0  0  0  0  0  0  0  0  0  0  0  0
   -0.4826   67.9435   68.4911 H   0  0  0  0  0  0  0  0  0  0  0  0
   -1.6357   66.2040   66.4217 H   0  0  0  0  0  0  0  0  0  0  0  0
   -1.7683   66.1186   68.2169 H   0  0  0  0  0  0  0  0  0  0  0  0
   -3.9200   66.7792   67.2349 H   0  0  0  0  0  0  0  0  0  0  0  0
   -3.1880   68.1489   68.1861 H   0  0  0  0  0  0  0  0  0  0  0  0
   -1.5316   68.3051   64.9623 H   0  0  0  0  0  0  0  0  0  0  0  0
   -2.2058   69.9620   65.3122 H   0  0  0  0  0  0  0  0  0  0  0  0
   -0.0680   69.6252   66.4684 H   0  0  0  0  0  0  0  0  0  0  0  0
   -1.4347   69.7874   67.6334 H   0  0  0  0  0  0  0  0  0  0  0  0
  2  1  1  0
  3  2  1  0
  4  3  1  0
  5  4  1  0
  5  1  1  0
  6  5  2  0
  7  4  1  0
  8  7  2  0
  9  8  1  0
 10  9  2  0
 11 10  1  0
 12 11  2  0
 12  7  1  0
 13  4  1  0
 14 13  2  0
 15 14  1  0
 16 15  2  0
 17 16  1  0
 18 17  2  0
 18 13  1  0
 20  1  1  0
 20 19  1  0
 21  3  1  0
 22 21  1  0
 23 22  1  0
 24 23  1  0
 25 24  1  0
 26 25  1  0
 27 26  1  0
 28 27  1  0
 28 23  1  0
  2 29  1  0
  2 30  1  0
  3 31  1  1
  8 32  1  0
  9 33  1  0
 10 34  1  0
 11 35  1  0
 12 36  1  0
 14 37  1  0
 15 38  1  0
 16 39  1  0
 17 40  1  0
 18 41  1  0
 19 42  1  0
 19 43  1  0
 19 44  1  0
 20 45  1  0
 20 46  1  0
 21 47  1  0
 21 48  1  0
 22 49  1  0
 22 50  1  0
 23 51  1  0
 24 52  1  0
 24 53  1  0
 25 54  1  0
 25 55  1  0
 27 56  1  0
 27 57  1  0
 28 58  1  0
 28 59  1  0
M  CHG  1  23   1
M  END
>  <score>  (3) 
-9.8

$$$$
=
     RDKit          3D

 59 62  0  0  0  0  0  0  0  0999 V2000
    1.6170   68.7400   62.2980 N   0  0  0  0  0  0  0  0  0  0  0  0
    1.0100   69.1230   63.5370 C   0  0  0  0  0  0  0  0  0  0  0  0
    1.4920   68.0480   64.5070 C   0  0  1  0  0  0  0  0  0  0  0  0
    2.9770   67.7590   64.0450 C   0  0  0  0  0  0  0  0  0  0  0  0
    2.8390   68.0870   62.5180 C   0  0  0  0  0  0  0  0  0  0  0  0
    3.6780   67.8940   61.6510 O   0  0  0  0  0  0  0  0  0  0  0  0
    3.4190   66.2820   64.2140 C   0  0  0  0  0  0  0  0  0  0  0  0
    4.7000   65.8960   63.7680 C   0  0  0  0  0  0  0  0  0  0  0  0
    5.1640   64.5870   63.9140 C   0  0  0  0  0  0  0  0  0  0  0  0
    4.3600   63.6290   64.5180 C   0  0  0  0  0  0  0  0  0  0  0  0
    3.0960   63.9810   64.9760 C   0  0  0  0  0  0  0  0  0  0  0  0
    2.6310   65.2940   64.8320 C   0  0  0  0  0  0  0  0  0  0  0  0
    3.9670   68.7350   64.7460 C   0  0  0  0  0  0  0  0  0  0  0  0
    4.9960   69.3630   64.0120 C   0  0  0  0  0  0  0  0  0  0  0  0
    5.9160   70.2130   64.6300 C   0  0  0  0  0  0  0  0  0  0  0  0
    5.8320   70.4550   65.9960 C   0  0  0  0  0  0  0  0  0  0  0  0
    4.8250   69.8540   66.7430 C   0  0  0  0  0  0  0  0  0  0  0  0
    3.9020   69.0040   66.1260 C   0  0  0  0  0  0  0  0  0  0  0  0
    0.0020   70.1020   60.9830 C   0  0  0  0  0  0  0  0  0  0  0  0
    1.3780   69.4620   61.0540 C   0  0  0  0  0  0  0  0  0  0  0  0
    1.2910   68.4370   65.9850 C   0  0  0  0  0  0  0  0  0  0  0  0
   -0.0560   67.9770   66.5410 C   0  0  0  0  0  0  0  0  0  0  0  0
    0.1300   66.7910   67.4660 N   0  0  0  0  0  4  0  0  0  0  0  0
   -0.9900   66.6480   68.5080 C   0  0  0  0  0  0  0  0  0  0  0  0
   -0.4830   65.8730   69.7270 C   0  0  0  0  0  0  0  0  0  0  0  0
    0.5880   66.5400   70.4010 O   0  0  0  0  0  0  0  0  0  0  0  0
    1.4370   67.3190   69.5510 C   0  0  0  0  0  0  0  0  0  0  0  0
    1.5160   66.7710   68.1250 C   0  0  0  0  0  0  0  0  0  0  0  0
    1.3510   70.1203   63.8519 H   0  0  0  0  0  0  0  0  0  0  0  0
   -0.0863   69.1912   63.4779 H   0  0  0  0  0  0  0  0  0  0  0  0
    0.9018   67.1205   64.4697 H   0  0  0  0  0  0  0  0  0  0  0  0
    5.3503   66.6452   63.2929 H   0  0  0  0  0  0  0  0  0  0  0  0
    6.1660   64.3147   63.5507 H   0  0  0  0  0  0  0  0  0  0  0  0
    4.7219   62.5967   64.6333 H   0  0  0  0  0  0  0  0  0  0  0  0
    2.4572   63.2239   65.4543 H   0  0  0  0  0  0  0  0  0  0  0  0
    1.6317   65.5576   65.2088 H   0  0  0  0  0  0  0  0  0  0  0  0
    5.0751   69.1791   62.9304 H   0  0  0  0  0  0  0  0  0  0  0  0
    6.7079   70.6914   64.0349 H   0  0  0  0  0  0  0  0  0  0  0  0
    6.5597   71.1197   66.4845 H   0  0  0  0  0  0  0  0  0  0  0  0
    4.7542   70.0480   67.8234 H   0  0  0  0  0  0  0  0  0  0  0  0
    3.1104   68.5369   66.7303 H   0  0  0  0  0  0  0  0  0  0  0  0
   -0.3740   70.2769   62.0018 H   0  0  0  0  0  0  0  0  0  0  0  0
    0.0706   71.0606   60.4479 H   0  0  0  0  0  0  0  0  0  0  0  0
   -0.6869   69.4319   60.4479 H   0  0  0  0  0  0  0  0  0  0  0  0
    2.1360   70.2534   60.9589 H   0  0  0  0  0  0  0  0  0  0  0  0
    1.4378   68.7288   60.2362 H   0  0  0  0  0  0  0  0  0  0  0  0
    2.0928   67.9773   66.5815 H   0  0  0  0  0  0  0  0  0  0  0  0
    1.3161   69.5351   66.0446 H   0  0  0  0  0  0  0  0  0  0  0  0
   -0.5183   68.8036   67.1004 H   0  0  0  0  0  0  0  0  0  0  0  0
   -0.7035   67.6776   65.7037 H   0  0  0  0  0  0  0  0  0  0  0  0
    0.0671   65.9626   66.8571 H   0  0  0  0  0  0  0  0  0  0  0  0
   -1.3209   67.6480   68.8252 H   0  0  0  0  0  0  0  0  0  0  0  0
   -1.8305   66.0991   68.0582 H   0  0  0  0  0  0  0  0  0  0  0  0
   -1.3165   65.7439   70.4331 H   0  0  0  0  0  0  0  0  0  0  0  0
   -0.0985   64.9066   69.3689 H   0  0  0  0  0  0  0  0  0  0  0  0
    1.0462   68.3465   69.5110 H   0  0  0  0  0  0  0  0  0  0  0  0
    2.4513   67.2831   69.9751 H   0  0  0  0  0  0  0  0  0  0  0  0
    2.2064   67.3924   67.5357 H   0  0  0  0  0  0  0  0  0  0  0  0
    1.8786   65.7331   68.1614 H   0  0  0  0  0  0  0  0  0  0  0  0
  2  1  1  0
  3  2  1  0
  4  3  1  0
  5  4  1  0
  5  1  1  0
  6  5  2  0
  7  4  1  0
  8  7  2  0
  9  8  1  0
 10  9  2  0
 11 10  1  0
 12 11  2  0
 12  7  1  0
 13  4  1  0
 14 13  2  0
 15 14  1  0
 16 15  2  0
 17 16  1  0
 18 17  2  0
 18 13  1  0
 20  1  1  0
 20 19  1  0
 21  3  1  0
 22 21  1  0
 23 22  1  0
 24 23  1  0
 25 24  1  0
 26 25  1  0
 27 26  1  0
 28 27  1  0
 28 23  1  0
  2 29  1  0
  2 30  1  0
  3 31  1  6
  8 32  1  0
  9 33  1  0
 10 34  1  0
 11 35  1  0
 12 36  1  0
 14 37  1  0
 15 38  1  0
 16 39  1  0
 17 40  1  0
 18 41  1  0
 19 42  1  0
 19 43  1  0
 19 44  1  0
 20 45  1  0
 20 46  1  0
 21 47  1  0
 21 48  1  0
 22 49  1  0
 22 50  1  0
 23 51  1  0
 24 52  1  0
 24 53  1  0
 25 54  1  0
 25 55  1  0
 27 56  1  0
 27 57  1  0
 28 58  1  0
 28 59  1  0
M  CHG  1  23   1
M  END
>  <score>  (4) 
-9.13

$$$$
=
     RDKit          3D

 59 62  0  0  0  0  0  0  0  0999 V2000
   -0.5970   68.2950   66.0340 N   0  0  0  0  0  0  0  0  0  0  0  0
   -0.3770   67.7830   67.3540 C   0  0  0  0  0  0  0  0  0  0  0  0
    0.9170   66.9870   67.2060 C   0  0  1  0  0  0  0  0  0  0  0  0
    1.7780   67.8470   66.1950 C   0  0  0  0  0  0  0  0  0  0  0  0
    0.6210   68.5060   65.3690 C   0  0  0  0  0  0  0  0  0  0  0  0
    0.7380   69.1730   64.3510 O   0  0  0  0  0  0  0  0  0  0  0  0
    2.6710   67.0060   65.2470 C   0  0  0  0  0  0  0  0  0  0  0  0
    2.6440   65.5990   65.3490 C   0  0  0  0  0  0  0  0  0  0  0  0
    3.4070   64.7880   64.5090 C   0  0  0  0  0  0  0  0  0  0  0  0
    4.2160   65.3620   63.5350 C   0  0  0  0  0  0  0  0  0  0  0  0
    4.2570   66.7450   63.4040 C   0  0  0  0  0  0  0  0  0  0  0  0
    3.4910   67.5590   64.2460 C   0  0  0  0  0  0  0  0  0  0  0  0
    2.6080   68.9200   66.9600 C   0  0  0  0  0  0  0  0  0  0  0  0
    3.9370   69.2050   66.5800 C   0  0  0  0  0  0  0  0  0  0  0  0
    4.7090   70.1380   67.2770 C   0  0  0  0  0  0  0  0  0  0  0  0
    4.1740   70.8060   68.3710 C   0  0  0  0  0  0  0  0  0  0  0  0
    2.8660   70.5480   68.7650 C   0  0  0  0  0  0  0  0  0  0  0  0
    2.0900   69.6160   68.0680 C   0  0  0  0  0  0  0  0  0  0  0  0
   -3.0780   68.4480   66.1460 C   0  0  0  0  0  0  0  0  0  0  0  0
   -1.7750   69.0800   65.6860 C   0  0  0  0  0  0  0  0  0  0  0  0
    1.5730   66.6490   68.5580 C   0  0  0  0  0  0  0  0  0  0  0  0
    0.5520   66.3230   69.6480 C   0  0  0  0  0  0  0  0  0  0  0  0
    1.1940   65.4990   70.7460 N   0  0  0  0  0  4  0  0  0  0  0  0
    2.3230   64.5850   70.2430 C   0  0  0  0  0  0  0  0  0  0  0  0
    2.5100   63.4010   71.1950 C   0  0  0  0  0  0  0  0  0  0  0  0
    1.3490   62.5690   71.2760 O   0  0  0  0  0  0  0  0  0  0  0  0
    0.1060   63.2580   71.1070 C   0  0  0  0  0  0  0  0  0  0  0  0
    0.1630   64.7140   71.5710 C   0  0  0  0  0  0  0  0  0  0  0  0
   -0.2566   68.6009   68.0797 H   0  0  0  0  0  0  0  0  0  0  0  0
   -1.2161   67.1781   67.7283 H   0  0  0  0  0  0  0  0  0  0  0  0
    0.7704   65.9737   66.8038 H   0  0  0  0  0  0  0  0  0  0  0  0
    2.0045   65.1294   66.1109 H   0  0  0  0  0  0  0  0  0  0  0  0
    3.3686   63.6940   64.6173 H   0  0  0  0  0  0  0  0  0  0  0  0
    4.8201   64.7253   62.8719 H   0  0  0  0  0  0  0  0  0  0  0  0
    4.8954   67.2025   62.6338 H   0  0  0  0  0  0  0  0  0  0  0  0
    3.5306   68.6514   64.1231 H   0  0  0  0  0  0  0  0  0  0  0  0
    4.3743   68.6816   65.7169 H   0  0  0  0  0  0  0  0  0  0  0  0
    5.7417   70.3438   66.9589 H   0  0  0  0  0  0  0  0  0  0  0  0
    4.7831   71.5365   68.9236 H   0  0  0  0  0  0  0  0  0  0  0  0
    2.4394   71.0791   69.6287 H   0  0  0  0  0  0  0  0  0  0  0  0
    1.0565   69.4237   68.3917 H   0  0  0  0  0  0  0  0  0  0  0  0
   -3.1099   68.4325   67.2454 H   0  0  0  0  0  0  0  0  0  0  0  0
   -3.9256   69.0351   65.7628 H   0  0  0  0  0  0  0  0  0  0  0  0
   -3.1417   67.4189   65.7628 H   0  0  0  0  0  0  0  0  0  0  0  0
   -1.6841   70.0715   66.1536 H   0  0  0  0  0  0  0  0  0  0  0  0
   -1.8127   69.1403   64.5883 H   0  0  0  0  0  0  0  0  0  0  0  0
    2.2309   65.7781   68.4212 H   0  0  0  0  0  0  0  0  0  0  0  0
    2.1335   67.5373   68.8849 H   0  0  0  0  0  0  0  0  0  0  0  0
    0.1677   67.2605   70.0763 H   0  0  0  0  0  0  0  0  0  0  0  0
   -0.2711   65.7443   69.2034 H   0  0  0  0  0  0  0  0  0  0  0  0
    1.6343   66.1856   71.3749 H   0  0  0  0  0  0  0  0  0  0  0  0
    2.0667   64.2088   69.2416 H   0  0  0  0  0  0  0  0  0  0  0  0
    3.2587   65.1617   70.2001 H   0  0  0  0  0  0  0  0  0  0  0  0
    3.3546   62.7929   70.8387 H   0  0  0  0  0  0  0  0  0  0  0  0
    2.6974   63.8086   72.1994 H   0  0  0  0  0  0  0  0  0  0  0  0
   -0.1627   63.2401   70.0405 H   0  0  0  0  0  0  0  0  0  0  0  0
   -0.6427   62.7436   71.7273 H   0  0  0  0  0  0  0  0  0  0  0  0
   -0.8283   65.1738   71.4446 H   0  0  0  0  0  0  0  0  0  0  0  0
    0.4593   64.7397   72.6300 H   0  0  0  0  0  0  0  0  0  0  0  0
  2  1  1  0
  3  2  1  0
  4  3  1  0
  5  4  1  0
  5  1  1  0
  6  5  2  0
  7  4  1  0
  8  7  2  0
  9  8  1  0
 10  9  2  0
 11 10  1  0
 12 11  2  0
 12  7  1  0
 13  4  1  0
 14 13  2  0
 15 14  1  0
 16 15  2  0
 17 16  1  0
 18 17  2  0
 18 13  1  0
 20  1  1  0
 20 19  1  0
 21  3  1  0
 22 21  1  0
 23 22  1  0
 24 23  1  0
 25 24  1  0
 26 25  1  0
 27 26  1  0
 28 27  1  0
 28 23  1  0
  2 29  1  0
  2 30  1  0
  3 31  1  6
  8 32  1  0
  9 33  1  0
 10 34  1  0
 11 35  1  0
 12 36  1  0
 14 37  1  0
 15 38  1  0
 16 39  1  0
 17 40  1  0
 18 41  1  0
 19 42  1  0
 19 43  1  0
 19 44  1  0
 20 45  1  0
 20 46  1  0
 21 47  1  0
 21 48  1  0
 22 49  1  0
 22 50  1  0
 23 51  1  0
 24 52  1  0
 24 53  1  0
 25 54  1  0
 25 55  1  0
 27 56  1  0
 27 57  1  0
 28 58  1  0
 28 59  1  0
M  CHG  1  23   1
M  END
>  <score>  (5) 
-9.12

$$$$
=
     RDKit          3D

 59 62  0  0  0  0  0  0  0  0999 V2000
    2.2930   56.9100   74.0790 N   0  0  0  0  0  0  0  0  0  0  0  0
    2.2450   57.7640   75.2280 C   0  0  0  0  0  0  0  0  0  0  0  0
    2.8420   59.0710   74.7160 C   0  0  1  0  0  0  0  0  0  0  0  0
    2.3020   59.1790   73.2330 C   0  0  0  0  0  0  0  0  0  0  0  0
    2.1700   57.6540   72.8950 C   0  0  0  0  0  0  0  0  0  0  0  0
    1.9160   57.1660   71.8040 O   0  0  0  0  0  0  0  0  0  0  0  0
    3.2950   59.8390   72.2410 C   0  0  0  0  0  0  0  0  0  0  0  0
    4.4650   60.4460   72.7470 C   0  0  0  0  0  0  0  0  0  0  0  0
    5.4080   61.0360   71.9030 C   0  0  0  0  0  0  0  0  0  0  0  0
    5.2110   61.0290   70.5280 C   0  0  0  0  0  0  0  0  0  0  0  0
    4.0730   60.4310   70.0000 C   0  0  0  0  0  0  0  0  0  0  0  0
    3.1270   59.8380   70.8450 C   0  0  0  0  0  0  0  0  0  0  0  0
    0.9150   59.8860   73.2070 C   0  0  0  0  0  0  0  0  0  0  0  0
    0.7730   61.1680   72.6330 C   0  0  0  0  0  0  0  0  0  0  0  0
   -0.4550   61.8330   72.6340 C   0  0  0  0  0  0  0  0  0  0  0  0
   -1.5700   61.2360   73.2090 C   0  0  0  0  0  0  0  0  0  0  0  0
   -1.4600   59.9720   73.7770 C   0  0  0  0  0  0  0  0  0  0  0  0
   -0.2320   59.3030   73.7760 C   0  0  0  0  0  0  0  0  0  0  0  0
    0.3730   55.3440   74.3090 C   0  0  0  0  0  0  0  0  0  0  0  0
    1.8710   55.5150   74.1220 C   0  0  0  0  0  0  0  0  0  0  0  0
    2.5590   60.2670   75.6430 C   0  0  0  0  0  0  0  0  0  0  0  0
    1.7310   59.8830   76.8690 C   0  0  0  0  0  0  0  0  0  0  0  0
    0.7720   61.0010   77.2310 N   0  0  0  0  0  4  0  0  0  0  0  0
    0.7850   62.1650   76.2300 C   0  0  0  0  0  0  0  0  0  0  0  0
    0.3060   63.4520   76.9060 C   0  0  0  0  0  0  0  0  0  0  0  0
    1.1570   63.8600   77.9820 O   0  0  0  0  0  0  0  0  0  0  0  0
    1.7900   62.7860   78.6850 C   0  0  0  0  0  0  0  0  0  0  0  0
    0.9660   61.4970   78.6720 C   0  0  0  0  0  0  0  0  0  0  0  0
    1.2091   57.9100   75.5680 H   0  0  0  0  0  0  0  0  0  0  0  0
    2.7850   57.3531   76.0938 H   0  0  0  0  0  0  0  0  0  0  0  0
    3.9419   59.0850   74.7156 H   0  0  0  0  0  0  0  0  0  0  0  0
    4.6380   60.4543   73.8333 H   0  0  0  0  0  0  0  0  0  0  0  0
    6.3073   61.5065   72.3272 H   0  0  0  0  0  0  0  0  0  0  0  0
    5.9516   61.4942   69.8608 H   0  0  0  0  0  0  0  0  0  0  0  0
    3.9145   60.4235   68.9115 H   0  0  0  0  0  0  0  0  0  0  0  0
    2.2361   59.3627   70.4087 H   0  0  0  0  0  0  0  0  0  0  0  0
    1.6478   61.6531   72.1755 H   0  0  0  0  0  0  0  0  0  0  0  0
   -0.5396   62.8309   72.1789 H   0  0  0  0  0  0  0  0  0  0  0  0
   -2.5363   61.7616   73.2148 H   0  0  0  0  0  0  0  0  0  0  0  0
   -2.3426   59.4960   74.2291 H   0  0  0  0  0  0  0  0  0  0  0  0
   -0.1616   58.3028   74.2283 H   0  0  0  0  0  0  0  0  0  0  0  0
    0.1383   55.3172   75.3833 H   0  0  0  0  0  0  0  0  0  0  0  0
   -0.1538   56.1878   73.8395 H   0  0  0  0  0  0  0  0  0  0  0  0
    0.0499   54.4031   73.8395 H   0  0  0  0  0  0  0  0  0  0  0  0
    2.1618   55.0333   73.1768 H   0  0  0  0  0  0  0  0  0  0  0  0
    2.3619   55.0536   74.9916 H   0  0  0  0  0  0  0  0  0  0  0  0
    3.5189   60.6828   75.9833 H   0  0  0  0  0  0  0  0  0  0  0  0
    1.9772   61.0019   75.0673 H   0  0  0  0  0  0  0  0  0  0  0  0
    1.1573   58.9709   76.6477 H   0  0  0  0  0  0  0  0  0  0  0  0
    2.4095   59.7066   77.7167 H   0  0  0  0  0  0  0  0  0  0  0  0
   -0.1663   60.5802   77.1731 H   0  0  0  0  0  0  0  0  0  0  0  0
    1.8092   62.3109   75.8563 H   0  0  0  0  0  0  0  0  0  0  0  0
    0.1097   61.9266   75.3950 H   0  0  0  0  0  0  0  0  0  0  0  0
    0.2788   64.2551   76.1548 H   0  0  0  0  0  0  0  0  0  0  0  0
   -0.6910   63.2552   77.3270 H   0  0  0  0  0  0  0  0  0  0  0  0
    2.7638   62.5846   78.2147 H   0  0  0  0  0  0  0  0  0  0  0  0
    1.8982   63.0975   79.7344 H   0  0  0  0  0  0  0  0  0  0  0  0
    1.4912   60.7250   79.2536 H   0  0  0  0  0  0  0  0  0  0  0  0
   -0.0199   61.6988   79.1161 H   0  0  0  0  0  0  0  0  0  0  0  0
  2  1  1  0
  3  2  1  0
  4  3  1  0
  5  4  1  0
  5  1  1  0
  6  5  2  0
  7  4  1  0
  8  7  2  0
  9  8  1  0
 10  9  2  0
 11 10  1  0
 12 11  2  0
 12  7  1  0
 13  4  1  0
 14 13  2  0
 15 14  1  0
 16 15  2  0
 17 16  1  0
 18 17  2  0
 18 13  1  0
 20  1  1  0
 20 19  1  0
 21  3  1  0
 22 21  1  0
 23 22  1  0
 24 23  1  0
 25 24  1  0
 26 25  1  0
 27 26  1  0
 28 27  1  0
 28 23  1  0
  2 29  1  0
  2 30  1  0
  3 31  1  6
  8 32  1  0
  9 33  1  0
 10 34  1  0
 11 35  1  0
 12 36  1  0
 14 37  1  0
 15 38  1  0
 16 39  1  0
 17 40  1  0
 18 41  1  0
 19 42  1  0
 19 43  1  0
 19 44  1  0
 20 45  1  0
 20 46  1  0
 21 47  1  0
 21 48  1  0
 22 49  1  0
 22 50  1  0
 23 51  1  0
 24 52  1  0
 24 53  1  0
 25 54  1  0
 25 55  1  0
 27 56  1  0
 27 57  1  0
 28 58  1  0
 28 59  1  0
M  CHG  1  23   1
M  END
>  <score>  (6) 
-8.206

$$$$
=
     RDKit          3D

 59 62  0  0  0  0  0  0  0  0999 V2000
    4.0490   59.8560   71.6680 N   0  0  0  0  0  0  0  0  0  0  0  0
    3.2080   58.7560   71.3000 C   0  0  0  0  0  0  0  0  0  0  0  0
    2.7440   58.2080   72.6460 C   0  0  1  0  0  0  0  0  0  0  0  0
    2.5490   59.5010   73.5360 C   0  0  0  0  0  0  0  0  0  0  0  0
    3.6220   60.4320   72.8740 C   0  0  0  0  0  0  0  0  0  0  0  0
    3.9870   61.5280   73.2760 O   0  0  0  0  0  0  0  0  0  0  0  0
    2.8970   59.3000   75.0330 C   0  0  0  0  0  0  0  0  0  0  0  0
    3.6860   58.1920   75.4100 C   0  0  0  0  0  0  0  0  0  0  0  0
    4.0520   57.9700   76.7380 C   0  0  0  0  0  0  0  0  0  0  0  0
    3.6450   58.8560   77.7280 C   0  0  0  0  0  0  0  0  0  0  0  0
    2.8760   59.9620   77.3870 C   0  0  0  0  0  0  0  0  0  0  0  0
    2.5090   60.1860   76.0550 C   0  0  0  0  0  0  0  0  0  0  0  0
    1.1140   60.0770   73.3560 C   0  0  0  0  0  0  0  0  0  0  0  0
    0.8950   61.2250   72.5640 C   0  0  0  0  0  0  0  0  0  0  0  0
   -0.3810   61.7770   72.4210 C   0  0  0  0  0  0  0  0  0  0  0  0
   -1.4670   61.1990   73.0650 C   0  0  0  0  0  0  0  0  0  0  0  0
   -1.2810   60.0640   73.8480 C   0  0  0  0  0  0  0  0  0  0  0  0
   -0.0060   59.5080   73.9920 C   0  0  0  0  0  0  0  0  0  0  0  0
    3.9150   61.0720   69.5010 C   0  0  0  0  0  0  0  0  0  0  0  0
    4.7720   60.6510   70.6830 C   0  0  0  0  0  0  0  0  0  0  0  0
    1.5330   57.2630   72.5260 C   0  0  0  0  0  0  0  0  0  0  0  0
    1.6960   55.9830   73.3450 C   0  0  0  0  0  0  0  0  0  0  0  0
    0.8570   56.0500   74.6060 N   0  0  0  0  0  4  0  0  0  0  0  0
    1.4830   55.3070   75.7960 C   0  0  0  0  0  0  0  0  0  0  0  0
    0.3970   54.8960   76.7940 C   0  0  0  0  0  0  0  0  0  0  0  0
   -0.5560   53.9890   76.2320 O   0  0  0  0  0  0  0  0  0  0  0  0
   -0.7960   54.1650   74.8320 C   0  0  0  0  0  0  0  0  0  0  0  0
   -0.5950   55.6090   74.3690 C   0  0  0  0  0  0  0  0  0  0  0  0
    2.3535   59.0970   70.6970 H   0  0  0  0  0  0  0  0  0  0  0  0
    3.7238   58.0056   70.6829 H   0  0  0  0  0  0  0  0  0  0  0  0
    3.4696   57.5325   73.1227 H   0  0  0  0  0  0  0  0  0  0  0  0
    4.0211   57.4851   74.6367 H   0  0  0  0  0  0  0  0  0  0  0  0
    4.6626   57.0937   77.0012 H   0  0  0  0  0  0  0  0  0  0  0  0
    3.9301   58.6828   78.7762 H   0  0  0  0  0  0  0  0  0  0  0  0
    2.5537   60.6657   78.1686 H   0  0  0  0  0  0  0  0  0  0  0  0
    1.9062   61.0708   75.8025 H   0  0  0  0  0  0  0  0  0  0  0  0
    1.7460   61.6946   72.0490 H   0  0  0  0  0  0  0  0  0  0  0  0
   -0.5253   62.6713   71.7969 H   0  0  0  0  0  0  0  0  0  0  0  0
   -2.4703   61.6367   72.9566 H   0  0  0  0  0  0  0  0  0  0  0  0
   -2.1405   59.6021   74.3559 H   0  0  0  0  0  0  0  0  0  0  0  0
    0.1244   58.6098   74.6134 H   0  0  0  0  0  0  0  0  0  0  0  0
    2.9841   61.5293   69.8675 H   0  0  0  0  0  0  0  0  0  0  0  0
    4.4663   61.8019   68.8899 H   0  0  0  0  0  0  0  0  0  0  0  0
    3.6742   60.1896   68.8899 H   0  0  0  0  0  0  0  0  0  0  0  0
    5.1531   61.5566   71.1776 H   0  0  0  0  0  0  0  0  0  0  0  0
    5.5825   60.0206   70.2884 H   0  0  0  0  0  0  0  0  0  0  0  0
    0.6367   57.7941   72.8789 H   0  0  0  0  0  0  0  0  0  0  0  0
    1.4451   56.9706   71.4692 H   0  0  0  0  0  0  0  0  0  0  0  0
    1.3730   55.1227   72.7404 H   0  0  0  0  0  0  0  0  0  0  0  0
    2.7536   55.8726   73.6264 H   0  0  0  0  0  0  0  0  0  0  0  0
    0.8380   57.0468   74.8646 H   0  0  0  0  0  0  0  0  0  0  0  0
    2.0003   54.4074   75.4311 H   0  0  0  0  0  0  0  0  0  0  0  0
    2.1986   55.9740   76.2991 H   0  0  0  0  0  0  0  0  0  0  0  0
    0.8774   54.4114   77.6568 H   0  0  0  0  0  0  0  0  0  0  0  0
   -0.1452   55.8068   77.0881 H   0  0  0  0  0  0  0  0  0  0  0  0
   -0.1036   53.5180   74.2734 H   0  0  0  0  0  0  0  0  0  0  0  0
   -1.8470   53.9014   74.6422 H   0  0  0  0  0  0  0  0  0  0  0  0
   -0.8250   55.6808   73.2957 H   0  0  0  0  0  0  0  0  0  0  0  0
   -1.2654   56.2647   74.9440 H   0  0  0  0  0  0  0  0  0  0  0  0
  2  1  1  0
  3  2  1  0
  4  3  1  0
  5  4  1  0
  5  1  1  0
  6  5  2  0
  7  4  1  0
  8  7  2  0
  9  8  1  0
 10  9  2  0
 11 10  1  0
 12 11  2  0
 12  7  1  0
 13  4  1  0
 14 13  2  0
 15 14  1  0
 16 15  2  0
 17 16  1  0
 18 17  2  0
 18 13  1  0
 20  1  1  0
 20 19  1  0
 21  3  1  0
 22 21  1  0
 23 22  1  0
 24 23  1  0
 25 24  1  0
 26 25  1  0
 27 26  1  0
 28 27  1  0
 28 23  1  0
  2 29  1  0
  2 30  1  0
  3 31  1  1
  8 32  1  0
  9 33  1  0
 10 34  1  0
 11 35  1  0
 12 36  1  0
 14 37  1  0
 15 38  1  0
 16 39  1  0
 17 40  1  0
 18 41  1  0
 19 42  1  0
 19 43  1  0
 19 44  1  0
 20 45  1  0
 20 46  1  0
 21 47  1  0
 21 48  1  0
 22 49  1  0
 22 50  1  0
 23 51  1  0
 24 52  1  0
 24 53  1  0
 25 54  1  0
 25 55  1  0
 27 56  1  0
 27 57  1  0
 28 58  1  0
 28 59  1  0
M  CHG  1  23   1
M  END
>  <score>  (7) 
-8.021

$$$$
=
     RDKit          3D

 59 62  0  0  0  0  0  0  0  0999 V2000
    2.1490   56.7540   74.0990 N   0  0  0  0  0  0  0  0  0  0  0  0
    2.0460   57.5510   75.2850 C   0  0  0  0  0  0  0  0  0  0  0  0
    2.6660   58.8800   74.8650 C   0  0  1  0  0  0  0  0  0  0  0  0
    2.1950   59.0610   73.3660 C   0  0  0  0  0  0  0  0  0  0  0  0
    2.0800   57.5540   72.9490 C   0  0  0  0  0  0  0  0  0  0  0  0
    1.8780   57.1200   71.8240 O   0  0  0  0  0  0  0  0  0  0  0  0
    3.2320   59.7670   72.4550 C   0  0  0  0  0  0  0  0  0  0  0  0
    4.3470   60.3960   73.0480 C   0  0  0  0  0  0  0  0  0  0  0  0
    5.3270   61.0280   72.2800 C   0  0  0  0  0  0  0  0  0  0  0  0
    5.2220   61.0430   70.8940 C   0  0  0  0  0  0  0  0  0  0  0  0
    4.1390   60.4240   70.2810 C   0  0  0  0  0  0  0  0  0  0  0  0
    3.1570   59.7880   71.0500 C   0  0  0  0  0  0  0  0  0  0  0  0
    0.8100   59.7700   73.3100 C   0  0  0  0  0  0  0  0  0  0  0  0
    0.6850   61.0580   72.7480 C   0  0  0  0  0  0  0  0  0  0  0  0
   -0.5430   61.7250   72.7220 C   0  0  0  0  0  0  0  0  0  0  0  0
   -1.6740   61.1220   73.2590 C   0  0  0  0  0  0  0  0  0  0  0  0
   -1.5810   59.8510   73.8150 C   0  0  0  0  0  0  0  0  0  0  0  0
   -0.3540   59.1810   73.8400 C   0  0  0  0  0  0  0  0  0  0  0  0
    0.2340   55.1730   74.2630 C   0  0  0  0  0  0  0  0  0  0  0  0
    1.7280   55.3590   74.0560 C   0  0  0  0  0  0  0  0  0  0  0  0
    2.3380   60.0310   75.8360 C   0  0  0  0  0  0  0  0  0  0  0  0
    3.1110   59.9360   77.1500 C   0  0  0  0  0  0  0  0  0  0  0  0
    3.0760   61.2630   77.8820 N   0  0  0  0  0  4  0  0  0  0  0  0
    3.7210   61.2090   79.2760 C   0  0  0  0  0  0  0  0  0  0  0  0
    3.1520   62.3170   80.1650 C   0  0  0  0  0  0  0  0  0  0  0  0
    1.7450   62.1810   80.3870 O   0  0  0  0  0  0  0  0  0  0  0  0
    1.0230   61.5920   79.3010 C   0  0  0  0  0  0  0  0  0  0  0  0
    1.6650   61.8650   77.9400 C   0  0  0  0  0  0  0  0  0  0  0  0
    0.9951   57.6822   75.5823 H   0  0  0  0  0  0  0  0  0  0  0  0
    2.5441   57.0977   76.1547 H   0  0  0  0  0  0  0  0  0  0  0  0
    3.7648   58.8919   74.9158 H   0  0  0  0  0  0  0  0  0  0  0  0
    4.4468   60.3883   74.1434 H   0  0  0  0  0  0  0  0  0  0  0  0
    6.1824   61.5142   72.7719 H   0  0  0  0  0  0  0  0  0  0  0  0
    5.9913   61.5417   70.2861 H   0  0  0  0  0  0  0  0  0  0  0  0
    4.0529   60.4339   69.1844 H   0  0  0  0  0  0  0  0  0  0  0  0
    2.3116   59.2959   70.5468 H   0  0  0  0  0  0  0  0  0  0  0  0
    1.5728   61.5477   72.3213 H   0  0  0  0  0  0  0  0  0  0  0  0
   -0.6142   62.7280   72.2761 H   0  0  0  0  0  0  0  0  0  0  0  0
   -2.6397   61.6485   73.2442 H   0  0  0  0  0  0  0  0  0  0  0  0
   -2.4762   59.3707   74.2368 H   0  0  0  0  0  0  0  0  0  0  0  0
   -0.2970   58.1753   74.2818 H   0  0  0  0  0  0  0  0  0  0  0  0
    0.0137   55.1456   75.3404 H   0  0  0  0  0  0  0  0  0  0  0  0
   -0.3075   56.0107   73.7992 H   0  0  0  0  0  0  0  0  0  0  0  0
   -0.0856   54.2281   73.7992 H   0  0  0  0  0  0  0  0  0  0  0  0
    1.9984   54.9432   73.0742 H   0  0  0  0  0  0  0  0  0  0  0  0
    2.2374   54.8404   74.8816 H   0  0  0  0  0  0  0  0  0  0  0  0
    2.5896   60.9844   75.3485 H   0  0  0  0  0  0  0  0  0  0  0  0
    1.2667   59.9657   76.0768 H   0  0  0  0  0  0  0  0  0  0  0  0
    2.6550   59.1608   77.7833 H   0  0  0  0  0  0  0  0  0  0  0  0
    4.1574   59.6778   76.9300 H   0  0  0  0  0  0  0  0  0  0  0  0
    3.6587   61.8971   77.3170 H   0  0  0  0  0  0  0  0  0  0  0  0
    3.5123   60.2315   79.7353 H   0  0  0  0  0  0  0  0  0  0  0  0
    4.8069   61.3523   79.1748 H   0  0  0  0  0  0  0  0  0  0  0  0
    3.6659   62.2866   81.1371 H   0  0  0  0  0  0  0  0  0  0  0  0
    3.3151   63.2739   79.6475 H   0  0  0  0  0  0  0  0  0  0  0  0
    0.9809   60.5039   79.4570 H   0  0  0  0  0  0  0  0  0  0  0  0
    0.0201   62.0437   79.2887 H   0  0  0  0  0  0  0  0  0  0  0  0
    1.0460   61.4139   77.1505 H   0  0  0  0  0  0  0  0  0  0  0  0
    1.7353   62.9526   77.7910 H   0  0  0  0  0  0  0  0  0  0  0  0
  2  1  1  0
  3  2  1  0
  4  3  1  0
  5  4  1  0
  5  1  1  0
  6  5  2  0
  7  4  1  0
  8  7  2  0
  9  8  1  0
 10  9  2  0
 11 10  1  0
 12 11  2  0
 12  7  1  0
 13  4  1  0
 14 13  2  0
 15 14  1  0
 16 15  2  0
 17 16  1  0
 18 17  2  0
 18 13  1  0
 20  1  1  0
 20 19  1  0
 21  3  1  0
 22 21  1  0
 23 22  1  0
 24 23  1  0
 25 24  1  0
 26 25  1  0
 27 26  1  0
 28 27  1  0
 28 23  1  0
  2 29  1  0
  2 30  1  0
  3 31  1  6
  8 32  1  0
  9 33  1  0
 10 34  1  0
 11 35  1  0
 12 36  1  0
 14 37  1  0
 15 38  1  0
 16 39  1  0
 17 40  1  0
 18 41  1  0
 19 42  1  0
 19 43  1  0
 19 44  1  0
 20 45  1  0
 20 46  1  0
 21 47  1  0
 21 48  1  0
 22 49  1  0
 22 50  1  0
 23 51  1  0
 24 52  1  0
 24 53  1  0
 25 54  1  0
 25 55  1  0
 27 56  1  0
 27 57  1  0
 28 58  1  0
 28 59  1  0
M  CHG  1  23   1
M  END
>  <score>  (8) 
-7.949

$$$$
=
     RDKit          3D

 59 62  0  0  0  0  0  0  0  0999 V2000
   -0.1140   60.8740   73.7010 N   0  0  0  0  0  0  0  0  0  0  0  0
   -0.2350   59.4470   73.6690 C   0  0  0  0  0  0  0  0  0  0  0  0
    1.0560   59.0040   72.9860 C   0  0  1  0  0  0  0  0  0  0  0  0
    2.1430   60.0110   73.5410 C   0  0  0  0  0  0  0  0  0  0  0  0
    1.2320   61.2620   73.7880 C   0  0  0  0  0  0  0  0  0  0  0  0
    1.6020   62.3870   74.0930 O   0  0  0  0  0  0  0  0  0  0  0  0
    3.2500   60.3770   72.5180 C   0  0  0  0  0  0  0  0  0  0  0  0
    3.0180   60.1430   71.1460 C   0  0  0  0  0  0  0  0  0  0  0  0
    3.9660   60.4720   70.1750 C   0  0  0  0  0  0  0  0  0  0  0  0
    5.1710   61.0530   70.5500 C   0  0  0  0  0  0  0  0  0  0  0  0
    5.4250   61.3050   71.8930 C   0  0  0  0  0  0  0  0  0  0  0  0
    4.4740   60.9750   72.8670 C   0  0  0  0  0  0  0  0  0  0  0  0
    2.7500   59.4810   74.8730 C   0  0  0  0  0  0  0  0  0  0  0  0
    3.6870   58.4260   74.8650 C   0  0  0  0  0  0  0  0  0  0  0  0
    4.2140   57.9120   76.0530 C   0  0  0  0  0  0  0  0  0  0  0  0
    3.8170   58.4380   77.2760 C   0  0  0  0  0  0  0  0  0  0  0  0
    2.8980   59.4820   77.3130 C   0  0  0  0  0  0  0  0  0  0  0  0
    2.3710   59.9990   76.1260 C   0  0  0  0  0  0  0  0  0  0  0  0
   -2.5630   61.1700   74.0250 C   0  0  0  0  0  0  0  0  0  0  0  0
   -1.1670   61.7370   74.2220 C   0  0  0  0  0  0  0  0  0  0  0  0
    1.3490   57.5030   73.1680 C   0  0  0  0  0  0  0  0  0  0  0  0
    0.1370   56.7190   73.6710 C   0  0  0  0  0  0  0  0  0  0  0  0
    0.4700   55.2450   73.7870 N   0  0  0  0  0  4  0  0  0  0  0  0
   -0.3570   54.5140   74.8550 C   0  0  0  0  0  0  0  0  0  0  0  0
    0.3870   53.2680   75.3410 C   0  0  0  0  0  0  0  0  0  0  0  0
    1.6360   53.5790   75.9670 O   0  0  0  0  0  0  0  0  0  0  0  0
    2.2930   54.7390   75.4480 C   0  0  0  0  0  0  0  0  0  0  0  0
    1.9740   54.9960   73.9740 C   0  0  0  0  0  0  0  0  0  0  0  0
   -0.3052   59.0340   74.6861 H   0  0  0  0  0  0  0  0  0  0  0  0
   -1.1399   59.1019   73.1474 H   0  0  0  0  0  0  0  0  0  0  0  0
    1.0184   59.0614   71.8881 H   0  0  0  0  0  0  0  0  0  0  0  0
    2.0658   59.6897   70.8333 H   0  0  0  0  0  0  0  0  0  0  0  0
    3.7588   60.2712   69.1135 H   0  0  0  0  0  0  0  0  0  0  0  0
    5.9204   61.3123   69.7877 H   0  0  0  0  0  0  0  0  0  0  0  0
    6.3778   61.7660   72.1926 H   0  0  0  0  0  0  0  0  0  0  0  0
    4.6886   61.1876   73.9247 H   0  0  0  0  0  0  0  0  0  0  0  0
    4.0094   57.9993   73.9038 H   0  0  0  0  0  0  0  0  0  0  0  0
    4.9441   57.0899   76.0196 H   0  0  0  0  0  0  0  0  0  0  0  0
    4.2277   58.0306   78.2116 H   0  0  0  0  0  0  0  0  0  0  0  0
    2.5849   59.9022   78.2802 H   0  0  0  0  0  0  0  0  0  0  0  0
    1.6469   60.8258   76.1718 H   0  0  0  0  0  0  0  0  0  0  0  0
   -3.0244   60.9826   75.0058 H   0  0  0  0  0  0  0  0  0  0  0  0
   -3.1755   61.8906   73.4633 H   0  0  0  0  0  0  0  0  0  0  0  0
   -2.4996   60.2264   73.4633 H   0  0  0  0  0  0  0  0  0  0  0  0
   -0.9981   61.8820   75.2992 H   0  0  0  0  0  0  0  0  0  0  0  0
   -1.1184   62.6832   73.6631 H   0  0  0  0  0  0  0  0  0  0  0  0
    1.6599   57.0857   72.1989 H   0  0  0  0  0  0  0  0  0  0  0  0
    2.1410   57.4099   73.9257 H   0  0  0  0  0  0  0  0  0  0  0  0
   -0.1578   57.1025   74.6590 H   0  0  0  0  0  0  0  0  0  0  0  0
   -0.6889   56.8422   72.9549 H   0  0  0  0  0  0  0  0  0  0  0  0
    0.1996   54.8359   72.8812 H   0  0  0  0  0  0  0  0  0  0  0  0
   -0.5289   55.1893   75.7062 H   0  0  0  0  0  0  0  0  0  0  0  0
   -1.3185   54.2087   74.4165 H   0  0  0  0  0  0  0  0  0  0  0  0
   -0.2484   52.7396   76.0669 H   0  0  0  0  0  0  0  0  0  0  0  0
    0.6030   52.6455   74.4602 H   0  0  0  0  0  0  0  0  0  0  0  0
    1.9744   55.6140   76.0335 H   0  0  0  0  0  0  0  0  0  0  0  0
    3.3766   54.5663   75.5254 H   0  0  0  0  0  0  0  0  0  0  0  0
    2.5330   55.8791   73.6309 H   0  0  0  0  0  0  0  0  0  0  0  0
    2.2651   54.1126   73.3867 H   0  0  0  0  0  0  0  0  0  0  0  0
  2  1  1  0
  3  2  1  0
  4  3  1  0
  5  4  1  0
  5  1  1  0
  6  5  2  0
  7  4  1  0
  8  7  2  0
  9  8  1  0
 10  9  2  0
 11 10  1  0
 12 11  2  0
 12  7  1  0
 13  4  1  0
 14 13  2  0
 15 14  1  0
 16 15  2  0
 17 16  1  0
 18 17  2  0
 18 13  1  0
 20  1  1  0
 20 19  1  0
 21  3  1  0
 22 21  1  0
 23 22  1  0
 24 23  1  0
 25 24  1  0
 26 25  1  0
 27 26  1  0
 28 27  1  0
 28 23  1  0
  2 29  1  0
  2 30  1  0
  3 31  1  6
  8 32  1  0
  9 33  1  0
 10 34  1  0
 11 35  1  0
 12 36  1  0
 14 37  1  0
 15 38  1  0
 16 39  1  0
 17 40  1  0
 18 41  1  0
 19 42  1  0
 19 43  1  0
 19 44  1  0
 20 45  1  0
 20 46  1  0
 21 47  1  0
 21 48  1  0
 22 49  1  0
 22 50  1  0
 23 51  1  0
 24 52  1  0
 24 53  1  0
 25 54  1  0
 25 55  1  0
 27 56  1  0
 27 57  1  0
 28 58  1  0
 28 59  1  0
M  CHG  1  23   1
M  END
>  <score>  (9) 
-7.618

$$$$
