=
     RDKit          3D

 66 67  0  0  0  0  0  0  0  0999 V2000
    3.0280   60.4190   73.3150 C   0  0  0  0  0  0  0  0  0  0  0  0
    2.6130   61.6590   72.7580 C   0  0  0  0  0  0  0  0  0  0  0  0
    1.8050   62.5300   73.5330 C   0  0  0  0  0  0  0  0  0  0  0  0
    1.4720   62.1470   74.8390 C   0  0  0  0  0  0  0  0  0  0  0  0
    1.9000   60.9760   75.3760 N   0  0  0  0  0  0  0  0  0  0  0  0
    2.6760   60.1410   74.6430 C   0  0  0  0  0  0  0  0  0  0  0  0
    3.0340   62.0450   71.3920 C   0  0  0  0  0  0  0  0  0  0  0  0
    2.3030   61.6060   70.2720 C   0  0  0  0  0  0  0  0  0  0  0  0
    2.6880   61.9710   68.9810 C   0  0  0  0  0  0  0  0  0  0  0  0
    3.8090   62.7710   68.8020 C   0  0  0  0  0  0  0  0  0  0  0  0
    4.5520   63.2150   69.8890 C   0  0  0  0  0  0  0  0  0  0  0  0
    4.1630   62.8560   71.1810 C   0  0  0  0  0  0  0  0  0  0  0  0
    4.1760   63.1220   67.5620 F   0  0  0  0  0  0  0  0  0  0  0  0
    3.0950   58.8660   75.3590 C   0  0  0  0  0  0  0  0  0  0  0  0
    3.4280   59.1240   76.8340 C   0  0  0  0  0  0  0  0  0  0  0  0
    1.9940   57.8100   75.2400 C   0  0  0  0  0  0  0  0  0  0  0  0
    0.6040   62.9990   75.7530 C   0  0  0  0  0  0  0  0  0  0  0  0
    0.1490   62.1850   76.9660 C   0  0  0  0  0  0  0  0  0  0  0  0
    1.3470   64.2630   76.2060 C   0  0  0  0  0  0  0  0  0  0  0  0
    1.3330   63.8030   72.9590 C   0  0  0  0  0  0  0  0  0  0  0  0
    0.3100   63.8500   72.0920 C   0  0  0  0  0  0  0  0  0  0  0  0
   -0.2070   65.1120   71.4570 C   0  0  1  0  0  0  0  0  0  0  0  0
   -0.3640   66.0810   72.4870 O   0  0  0  0  0  0  0  0  0  0  0  0
    0.6960   65.6220   70.3210 C   0  0  0  0  0  0  0  0  0  0  0  0
    0.1950   66.8640   69.5660 C   0  0  1  0  0  0  0  0  0  0  0  0
    1.3080   67.5450   68.9750 O   0  0  0  0  0  0  0  0  0  0  0  0
   -0.8200   66.4760   68.4960 C   0  0  0  0  0  0  0  0  0  0  0  0
   -0.5900   67.3200   67.2450 C   0  0  0  0  0  0  0  0  0  0  0  0
    0.0240   66.7260   66.3100 O   0  0  0  0  0  0  0  0  0  0  0  0
   -1.0480   68.4930   67.2950 O   0  0  0  0  0  1  0  0  0  0  0  0
    3.8280   59.4310   72.5010 C   0  0  0  0  0  0  0  0  0  0  0  0
    3.4570   58.0160   70.6570 C   0  0  0  0  0  0  0  0  0  0  0  0
    2.9340   58.5060   71.8840 O   0  0  0  0  0  0  0  0  0  0  0  0
    1.4184   60.9681   70.4158 H   0  0  0  0  0  0  0  0  0  0  0  0
    2.1078   61.6276   68.1118 H   0  0  0  0  0  0  0  0  0  0  0  0
    5.4402   63.8448   69.7328 H   0  0  0  0  0  0  0  0  0  0  0  0
    4.7462   63.2115   72.0432 H   0  0  0  0  0  0  0  0  0  0  0  0
    4.0093   58.4942   74.8734 H   0  0  0  0  0  0  0  0  0  0  0  0
    2.7193   58.5749   77.4714 H   0  0  0  0  0  0  0  0  0  0  0  0
    4.4518   58.7811   77.0442 H   0  0  0  0  0  0  0  0  0  0  0  0
    3.3517   60.2010   77.0442 H   0  0  0  0  0  0  0  0  0  0  0  0
    1.6720   57.5011   76.2454 H   0  0  0  0  0  0  0  0  0  0  0  0
    1.1376   58.2331   74.6945 H   0  0  0  0  0  0  0  0  0  0  0  0
    2.3810   56.9367   74.6945 H   0  0  0  0  0  0  0  0  0  0  0  0
   -0.2826   63.3131   75.1826 H   0  0  0  0  0  0  0  0  0  0  0  0
    0.4411   62.7076   77.8888 H   0  0  0  0  0  0  0  0  0  0  0  0
   -0.9446   62.0693   76.9406 H   0  0  0  0  0  0  0  0  0  0  0  0
    0.6234   61.1929   76.9406 H   0  0  0  0  0  0  0  0  0  0  0  0
    1.3694   64.3011   77.3051 H   0  0  0  0  0  0  0  0  0  0  0  0
    2.3764   64.2418   75.8188 H   0  0  0  0  0  0  0  0  0  0  0  0
    0.8278   65.1521   75.8188 H   0  0  0  0  0  0  0  0  0  0  0  0
    1.8326   64.7391   73.2491 H   0  0  0  0  0  0  0  0  0  0  0  0
   -0.1833   62.9029   71.8280 H   0  0  0  0  0  0  0  0  0  0  0  0
   -1.1749   64.9071   70.9763 H   0  0  0  0  0  0  0  0  0  0  0  0
   -0.2923   65.6388   73.3698 H   0  0  0  0  0  0  0  0  0  0  0  0
    1.6772   65.8652   70.7548 H   0  0  0  0  0  0  0  0  0  0  0  0
    0.7203   64.8128   69.5763 H   0  0  0  0  0  0  0  0  0  0  0  0
   -0.3055   67.5356   70.2791 H   0  0  0  0  0  0  0  0  0  0  0  0
    1.8929   67.9029   69.6891 H   0  0  0  0  0  0  0  0  0  0  0  0
   -0.7008   65.4113   68.2467 H   0  0  0  0  0  0  0  0  0  0  0  0
   -1.8374   66.6528   68.8751 H   0  0  0  0  0  0  0  0  0  0  0  0
    4.3972   59.9663   71.7267 H   0  0  0  0  0  0  0  0  0  0  0  0
    4.5283   58.8911   73.1553 H   0  0  0  0  0  0  0  0  0  0  0  0
    4.2455   57.2773   70.8635 H   0  0  0  0  0  0  0  0  0  0  0  0
    2.6511   57.5403   70.0789 H   0  0  0  0  0  0  0  0  0  0  0  0
    3.8793   58.8511   70.0789 H   0  0  0  0  0  0  0  0  0  0  0  0
  2  1  2  0
  3  2  1  0
  4  3  2  0
  5  4  1  0
  6  5  2  0
  6  1  1  0
  7  2  1  0
  8  7  2  0
  9  8  1  0
 10  9  2  0
 11 10  1  0
 12 11  2  0
 12  7  1  0
 13 10  1  0
 14  6  1  0
 15 14  1  0
 16 14  1  0
 17  4  1  0
 18 17  1  0
 19 17  1  0
 20  3  1  0
 21 20  2  0
 22 21  1  0
 23 22  1  0
 24 22  1  0
 25 24  1  0
 26 25  1  0
 27 25  1  0
 28 27  1  0
 29 28  2  0
 30 28  1  0
 31  1  1  0
 33 32  1  0
 33 31  1  0
  8 34  1  0
  9 35  1  0
 11 36  1  0
 12 37  1  0
 14 38  1  0
 15 39  1  0
 15 40  1  0
 15 41  1  0
 16 42  1  0
 16 43  1  0
 16 44  1  0
 17 45  1  0
 18 46  1  0
 18 47  1  0
 18 48  1  0
 19 49  1  0
 19 50  1  0
 19 51  1  0
 20 52  1  0
 21 53  1  0
 22 54  1  6
 23 55  1  0
 24 56  1  0
 24 57  1  0
 25 58  1  1
 26 59  1  0
 27 60  1  0
 27 61  1  0
 31 62  1  0
 31 63  1  0
 32 64  1  0
 32 65  1  0
 32 66  1  0
M  CHG  1  30  -1
M  END
>  <score>  (1) 
-7.994

$$$$
=
     RDKit          3D

 66 67  0  0  0  0  0  0  0  0999 V2000
   -0.9320   58.8080   74.9470 C   0  0  0  0  0  0  0  0  0  0  0  0
    0.2590   58.9690   74.1890 C   0  0  0  0  0  0  0  0  0  0  0  0
    1.0510   57.8300   73.8910 C   0  0  0  0  0  0  0  0  0  0  0  0
    0.6060   56.5750   74.3300 C   0  0  0  0  0  0  0  0  0  0  0  0
   -0.5500   56.4250   75.0260 N   0  0  0  0  0  0  0  0  0  0  0  0
   -1.3130   57.5080   75.3100 C   0  0  0  0  0  0  0  0  0  0  0  0
    0.6610   60.3080   73.7000 C   0  0  0  0  0  0  0  0  0  0  0  0
    1.6010   61.0740   74.4150 C   0  0  0  0  0  0  0  0  0  0  0  0
    1.9910   62.3340   73.9580 C   0  0  0  0  0  0  0  0  0  0  0  0
    1.4390   62.8370   72.7870 C   0  0  0  0  0  0  0  0  0  0  0  0
    0.5050   62.1050   72.0630 C   0  0  0  0  0  0  0  0  0  0  0  0
    0.1200   60.8420   72.5170 C   0  0  0  0  0  0  0  0  0  0  0  0
    1.8150   64.0460   72.3480 F   0  0  0  0  0  0  0  0  0  0  0  0
   -2.5850   57.2070   76.0870 C   0  0  0  0  0  0  0  0  0  0  0  0
   -3.3270   55.9920   75.5150 C   0  0  0  0  0  0  0  0  0  0  0  0
   -2.2580   56.9830   77.5650 C   0  0  0  0  0  0  0  0  0  0  0  0
    1.3810   55.2900   74.0760 C   0  0  0  0  0  0  0  0  0  0  0  0
    2.4160   55.0660   75.1800 C   0  0  0  0  0  0  0  0  0  0  0  0
    0.4380   54.0840   73.9750 C   0  0  0  0  0  0  0  0  0  0  0  0
    2.3090   57.9820   73.1390 C   0  0  0  0  0  0  0  0  0  0  0  0
    2.3330   57.9870   71.7970 C   0  0  0  0  0  0  0  0  0  0  0  0
    3.5840   58.1180   70.9720 C   0  0  1  0  0  0  0  0  0  0  0  0
    3.8510   56.8500   70.3870 O   0  0  0  0  0  0  0  0  0  0  0  0
    3.4870   59.2310   69.9150 C   0  0  0  0  0  0  0  0  0  0  0  0
    4.0070   60.6130   70.3410 C   0  0  1  0  0  0  0  0  0  0  0  0
    5.3870   60.5130   70.7120 O   0  0  0  0  0  0  0  0  0  0  0  0
    3.8330   61.6290   69.2160 C   0  0  0  0  0  0  0  0  0  0  0  0
    3.6960   63.0290   69.8080 C   0  0  0  0  0  0  0  0  0  0  0  0
    4.6290   63.3650   70.5960 O   0  0  0  0  0  0  0  0  0  0  0  0
    2.6810   63.6750   69.4330 O   0  0  0  0  0  1  0  0  0  0  0  0
   -1.7660   60.0020   75.3470 C   0  0  0  0  0  0  0  0  0  0  0  0
   -4.0310   60.4560   74.9050 C   0  0  0  0  0  0  0  0  0  0  0  0
   -2.7460   60.2400   74.3390 O   0  0  0  0  0  0  0  0  0  0  0  0
    2.0332   60.6751   75.3446 H   0  0  0  0  0  0  0  0  0  0  0  0
    2.7296   62.9238   74.5208 H   0  0  0  0  0  0  0  0  0  0  0  0
    0.0726   62.5176   71.1395 H   0  0  0  0  0  0  0  0  0  0  0  0
   -0.6146   60.2583   71.9429 H   0  0  0  0  0  0  0  0  0  0  0  0
   -3.2509   58.0772   75.9905 H   0  0  0  0  0  0  0  0  0  0  0  0
   -3.7058   55.3717   76.3406 H   0  0  0  0  0  0  0  0  0  0  0  0
   -4.1701   56.3347   74.8971 H   0  0  0  0  0  0  0  0  0  0  0  0
   -2.6371   55.3985   74.8971 H   0  0  0  0  0  0  0  0  0  0  0  0
   -3.0060   57.4954   78.1878 H   0  0  0  0  0  0  0  0  0  0  0  0
   -2.2740   55.9053   77.7848 H   0  0  0  0  0  0  0  0  0  0  0  0
   -1.2589   57.3872   77.7848 H   0  0  0  0  0  0  0  0  0  0  0  0
    1.9041   55.3931   73.1138 H   0  0  0  0  0  0  0  0  0  0  0  0
    1.9326   55.1706   76.1625 H   0  0  0  0  0  0  0  0  0  0  0  0
    2.8398   54.0553   75.0857 H   0  0  0  0  0  0  0  0  0  0  0  0
    3.2198   55.8110   75.0857 H   0  0  0  0  0  0  0  0  0  0  0  0
    0.1706   53.7420   74.9857 H   0  0  0  0  0  0  0  0  0  0  0  0
   -0.4739   54.3759   73.4334 H   0  0  0  0  0  0  0  0  0  0  0  0
    0.9412   53.2694   73.4334 H   0  0  0  0  0  0  0  0  0  0  0  0
    3.2533   58.0943   73.6920 H   0  0  0  0  0  0  0  0  0  0  0  0
    1.3749   57.8889   71.2656 H   0  0  0  0  0  0  0  0  0  0  0  0
    4.4188   58.4195   71.6218 H   0  0  0  0  0  0  0  0  0  0  0  0
    3.9921   56.1799   71.1019 H   0  0  0  0  0  0  0  0  0  0  0  0
    4.0646   58.9108   69.0353 H   0  0  0  0  0  0  0  0  0  0  0  0
    2.4121   59.3650   69.7239 H   0  0  0  0  0  0  0  0  0  0  0  0
    3.4222   60.9600   71.2057 H   0  0  0  0  0  0  0  0  0  0  0  0
    5.4638   60.5074   71.6990 H   0  0  0  0  0  0  0  0  0  0  0  0
    4.7106   61.5958   68.5536 H   0  0  0  0  0  0  0  0  0  0  0  0
    2.9280   61.3854   68.6402 H   0  0  0  0  0  0  0  0  0  0  0  0
   -2.2648   59.7992   76.3062 H   0  0  0  0  0  0  0  0  0  0  0  0
   -1.1215   60.8867   75.4562 H   0  0  0  0  0  0  0  0  0  0  0  0
   -3.9552   60.4433   76.0023 H   0  0  0  0  0  0  0  0  0  0  0  0
   -4.4175   61.4317   74.5755 H   0  0  0  0  0  0  0  0  0  0  0  0
   -4.7153   59.6603   74.5755 H   0  0  0  0  0  0  0  0  0  0  0  0
  2  1  2  0
  3  2  1  0
  4  3  2  0
  5  4  1  0
  6  5  2  0
  6  1  1  0
  7  2  1  0
  8  7  2  0
  9  8  1  0
 10  9  2  0
 11 10  1  0
 12 11  2  0
 12  7  1  0
 13 10  1  0
 14  6  1  0
 15 14  1  0
 16 14  1  0
 17  4  1  0
 18 17  1  0
 19 17  1  0
 20  3  1  0
 21 20  2  0
 22 21  1  0
 23 22  1  0
 24 22  1  0
 25 24  1  0
 26 25  1  0
 27 25  1  0
 28 27  1  0
 29 28  2  0
 30 28  1  0
 31  1  1  0
 33 32  1  0
 33 31  1  0
  8 34  1  0
  9 35  1  0
 11 36  1  0
 12 37  1  0
 14 38  1  0
 15 39  1  0
 15 40  1  0
 15 41  1  0
 16 42  1  0
 16 43  1  0
 16 44  1  0
 17 45  1  0
 18 46  1  0
 18 47  1  0
 18 48  1  0
 19 49  1  0
 19 50  1  0
 19 51  1  0
 20 52  1  0
 21 53  1  0
 22 54  1  1
 23 55  1  0
 24 56  1  0
 24 57  1  0
 25 58  1  1
 26 59  1  0
 27 60  1  0
 27 61  1  0
 31 62  1  0
 31 63  1  0
 32 64  1  0
 32 65  1  0
 32 66  1  0
M  CHG  1  30  -1
M  END
>  <score>  (2) 
-7.618

$$$$
=
     RDKit          3D

 66 67  0  0  0  0  0  0  0  0999 V2000
    2.9980   60.4630   71.8210 C   0  0  0  0  0  0  0  0  0  0  0  0
    1.9400   60.2260   72.7390 C   0  0  0  0  0  0  0  0  0  0  0  0
    0.9810   61.2460   72.9680 C   0  0  0  0  0  0  0  0  0  0  0  0
    1.0950   62.4440   72.2490 C   0  0  0  0  0  0  0  0  0  0  0  0
    2.0900   62.6490   71.3490 N   0  0  0  0  0  0  0  0  0  0  0  0
    3.0070   61.6780   71.1220 C   0  0  0  0  0  0  0  0  0  0  0  0
    1.8290   58.9240   73.4360 C   0  0  0  0  0  0  0  0  0  0  0  0
    2.6050   58.6620   74.5810 C   0  0  0  0  0  0  0  0  0  0  0  0
    2.5020   57.4410   75.2490 C   0  0  0  0  0  0  0  0  0  0  0  0
    1.6270   56.4730   74.7720 C   0  0  0  0  0  0  0  0  0  0  0  0
    0.8530   56.7030   73.6420 C   0  0  0  0  0  0  0  0  0  0  0  0
    0.9510   57.9270   72.9770 C   0  0  0  0  0  0  0  0  0  0  0  0
    1.5280   55.3020   75.4150 F   0  0  0  0  0  0  0  0  0  0  0  0
    4.0660   62.0280   70.0870 C   0  0  0  0  0  0  0  0  0  0  0  0
    3.4470   62.2930   68.7080 C   0  0  0  0  0  0  0  0  0  0  0  0
    4.8730   63.2420   70.5500 C   0  0  0  0  0  0  0  0  0  0  0  0
    0.1290   63.6060   72.4230 C   0  0  0  0  0  0  0  0  0  0  0  0
    0.3420   64.2760   73.7820 C   0  0  0  0  0  0  0  0  0  0  0  0
    0.2840   64.6310   71.2920 C   0  0  0  0  0  0  0  0  0  0  0  0
   -0.1020   61.0350   73.9450 C   0  0  0  0  0  0  0  0  0  0  0  0
   -1.3450   60.7060   73.5610 C   0  0  0  0  0  0  0  0  0  0  0  0
   -2.4970   60.4960   74.5050 C   0  0  1  0  0  0  0  0  0  0  0  0
   -3.6640   61.0300   73.8900 O   0  0  0  0  0  0  0  0  0  0  0  0
   -2.6810   59.0220   74.9040 C   0  0  0  0  0  0  0  0  0  0  0  0
   -3.8160   58.7290   75.8980 C   0  0  1  0  0  0  0  0  0  0  0  0
   -4.3150   59.9610   76.4320 O   0  0  0  0  0  0  0  0  0  0  0  0
   -4.9390   57.9480   75.2240 C   0  0  0  0  0  0  0  0  0  0  0  0
   -6.1860   58.8250   75.1330 C   0  0  0  0  0  0  0  0  0  0  0  0
   -6.2180   59.5970   74.1290 O   0  0  0  0  0  0  0  0  0  0  0  0
   -7.0270   58.6630   76.0570 O   0  0  0  0  0  1  0  0  0  0  0  0
    4.0800   59.4320   71.6010 C   0  0  0  0  0  0  0  0  0  0  0  0
    3.4760   57.3660   70.6510 C   0  0  0  0  0  0  0  0  0  0  0  0
    3.8070   58.7240   70.3940 O   0  0  0  0  0  0  0  0  0  0  0  0
    3.3005   59.4285   74.9534 H   0  0  0  0  0  0  0  0  0  0  0  0
    3.1086   57.2466   76.1458 H   0  0  0  0  0  0  0  0  0  0  0  0
    0.1672   55.9260   73.2732 H   0  0  0  0  0  0  0  0  0  0  0  0
    0.3348   58.1128   72.0849 H   0  0  0  0  0  0  0  0  0  0  0  0
    4.7379   61.1627   69.9879 H   0  0  0  0  0  0  0  0  0  0  0  0
    2.4424   62.7231   68.8336 H   0  0  0  0  0  0  0  0  0  0  0  0
    4.0809   62.9986   68.1510 H   0  0  0  0  0  0  0  0  0  0  0  0
    3.3740   61.3473   68.1510 H   0  0  0  0  0  0  0  0  0  0  0  0
    4.8927   63.2716   71.6494 H   0  0  0  0  0  0  0  0  0  0  0  0
    5.9013   63.1665   70.1668 H   0  0  0  0  0  0  0  0  0  0  0  0
    4.4054   64.1610   70.1668 H   0  0  0  0  0  0  0  0  0  0  0  0
   -0.8948   63.2059   72.3802 H   0  0  0  0  0  0  0  0  0  0  0  0
    0.1140   63.5587   74.5842 H   0  0  0  0  0  0  0  0  0  0  0  0
    1.3885   64.6034   73.8694 H   0  0  0  0  0  0  0  0  0  0  0  0
   -0.3234   65.1476   73.8694 H   0  0  0  0  0  0  0  0  0  0  0  0
    0.4354   65.6319   71.7225 H   0  0  0  0  0  0  0  0  0  0  0  0
    1.1519   64.3637   70.6713 H   0  0  0  0  0  0  0  0  0  0  0  0
   -0.6242   64.6323   70.6713 H   0  0  0  0  0  0  0  0  0  0  0  0
    0.1143   61.1502   75.0174 H   0  0  0  0  0  0  0  0  0  0  0  0
   -1.5339   60.5816   72.4845 H   0  0  0  0  0  0  0  0  0  0  0  0
   -2.2918   61.0198   75.4503 H   0  0  0  0  0  0  0  0  0  0  0  0
   -4.3014   61.3217   74.5891 H   0  0  0  0  0  0  0  0  0  0  0  0
   -2.8801   58.4476   73.9872 H   0  0  0  0  0  0  0  0  0  0  0  0
   -1.7531   58.7371   75.4215 H   0  0  0  0  0  0  0  0  0  0  0  0
   -3.4194   58.1122   76.7180 H   0  0  0  0  0  0  0  0  0  0  0  0
   -4.2993   59.9223   77.4211 H   0  0  0  0  0  0  0  0  0  0  0  0
   -4.6241   57.6524   74.2123 H   0  0  0  0  0  0  0  0  0  0  0  0
   -5.1659   57.0485   75.8151 H   0  0  0  0  0  0  0  0  0  0  0  0
    5.0562   59.9328   71.5222 H   0  0  0  0  0  0  0  0  0  0  0  0
    4.1022   58.7297   72.4473 H   0  0  0  0  0  0  0  0  0  0  0  0
    3.4350   57.1978   71.7373 H   0  0  0  0  0  0  0  0  0  0  0  0
    2.4958   57.1372   70.2073 H   0  0  0  0  0  0  0  0  0  0  0  0
    4.2410   56.7118   70.2073 H   0  0  0  0  0  0  0  0  0  0  0  0
  2  1  2  0
  3  2  1  0
  4  3  2  0
  5  4  1  0
  6  5  2  0
  6  1  1  0
  7  2  1  0
  8  7  2  0
  9  8  1  0
 10  9  2  0
 11 10  1  0
 12 11  2  0
 12  7  1  0
 13 10  1  0
 14  6  1  0
 15 14  1  0
 16 14  1  0
 17  4  1  0
 18 17  1  0
 19 17  1  0
 20  3  1  0
 21 20  2  0
 22 21  1  0
 23 22  1  0
 24 22  1  0
 25 24  1  0
 26 25  1  0
 27 25  1  0
 28 27  1  0
 29 28  2  0
 30 28  1  0
 31  1  1  0
 33 32  1  0
 33 31  1  0
  8 34  1  0
  9 35  1  0
 11 36  1  0
 12 37  1  0
 14 38  1  0
 15 39  1  0
 15 40  1  0
 15 41  1  0
 16 42  1  0
 16 43  1  0
 16 44  1  0
 17 45  1  0
 18 46  1  0
 18 47  1  0
 18 48  1  0
 19 49  1  0
 19 50  1  0
 19 51  1  0
 20 52  1  0
 21 53  1  0
 22 54  1  1
 23 55  1  0
 24 56  1  0
 24 57  1  0
 25 58  1  1
 26 59  1  0
 27 60  1  0
 27 61  1  0
 31 62  1  0
 31 63  1  0
 32 64  1  0
 32 65  1  0
 32 66  1  0
M  CHG  1  30  -1
M  END
>  <score>  (3) 
-7.263

$$$$
=
     RDKit          3D

 66 67  0  0  0  0  0  0  0  0999 V2000
    0.4980   62.1290   71.9600 C   0  0  0  0  0  0  0  0  0  0  0  0
    0.1550   61.2120   72.9900 C   0  0  0  0  0  0  0  0  0  0  0  0
    0.9550   60.0570   73.1830 C   0  0  0  0  0  0  0  0  0  0  0  0
    2.0810   59.8800   72.3670 C   0  0  0  0  0  0  0  0  0  0  0  0
    2.4200   60.7780   71.4060 N   0  0  0  0  0  0  0  0  0  0  0  0
    1.6640   61.8860   71.2200 C   0  0  0  0  0  0  0  0  0  0  0  0
   -1.0120   61.4690   73.8640 C   0  0  0  0  0  0  0  0  0  0  0  0
   -2.2670   60.9090   73.5570 C   0  0  0  0  0  0  0  0  0  0  0  0
   -3.3720   61.1390   74.3780 C   0  0  0  0  0  0  0  0  0  0  0  0
   -3.2300   61.9340   75.5080 C   0  0  0  0  0  0  0  0  0  0  0  0
   -2.0050   62.5040   75.8320 C   0  0  0  0  0  0  0  0  0  0  0  0
   -0.8980   62.2680   75.0150 C   0  0  0  0  0  0  0  0  0  0  0  0
   -4.2910   62.1530   76.2960 F   0  0  0  0  0  0  0  0  0  0  0  0
    2.1530   62.8160   70.1200 C   0  0  0  0  0  0  0  0  0  0  0  0
    3.1530   63.8500   70.6520 C   0  0  0  0  0  0  0  0  0  0  0  0
    2.7810   62.0030   68.9860 C   0  0  0  0  0  0  0  0  0  0  0  0
    3.0010   58.6730   72.4800 C   0  0  0  0  0  0  0  0  0  0  0  0
    3.4050   58.1800   71.0890 C   0  0  0  0  0  0  0  0  0  0  0  0
    4.2460   59.0010   73.3140 C   0  0  0  0  0  0  0  0  0  0  0  0
    0.5940   59.0740   74.2200 C   0  0  0  0  0  0  0  0  0  0  0  0
    1.2070   59.0500   75.4140 C   0  0  0  0  0  0  0  0  0  0  0  0
    0.8990   58.0630   76.5060 C   0  0  1  0  0  0  0  0  0  0  0  0
   -0.4210   57.5770   76.2910 O   0  0  0  0  0  0  0  0  0  0  0  0
    1.9270   56.9210   76.5850 C   0  0  0  0  0  0  0  0  0  0  0  0
    2.4800   56.4170   75.2430 C   0  0  1  0  0  0  0  0  0  0  0  0
    3.6550   55.6310   75.4760 O   0  0  0  0  0  0  0  0  0  0  0  0
    1.4330   55.5980   74.4970 C   0  0  0  0  0  0  0  0  0  0  0  0
    1.9670   54.1890   74.2500 C   0  0  0  0  0  0  0  0  0  0  0  0
    2.6330   54.0550   73.1810 O   0  0  0  0  0  0  0  0  0  0  0  0
    1.6880   53.3430   75.1420 O   0  0  0  0  0  1  0  0  0  0  0  0
   -0.3660   63.3350   71.6740 C   0  0  0  0  0  0  0  0  0  0  0  0
   -0.0480   65.6660   71.7050 C   0  0  0  0  0  0  0  0  0  0  0  0
    0.1330   64.4480   72.4140 O   0  0  0  0  0  0  0  0  0  0  0  0
   -2.3778   60.2828   72.6594 H   0  0  0  0  0  0  0  0  0  0  0  0
   -4.3475   60.6942   74.1321 H   0  0  0  0  0  0  0  0  0  0  0  0
   -1.9081   63.1370   76.7264 H   0  0  0  0  0  0  0  0  0  0  0  0
    0.0743   62.7121   75.2747 H   0  0  0  0  0  0  0  0  0  0  0  0
    1.2825   63.3664   69.7336 H   0  0  0  0  0  0  0  0  0  0  0  0
    3.1420   63.8386   71.7519 H   0  0  0  0  0  0  0  0  0  0  0  0
    4.1627   63.6021   70.2928 H   0  0  0  0  0  0  0  0  0  0  0  0
    2.8715   64.8509   70.2928 H   0  0  0  0  0  0  0  0  0  0  0  0
    3.4013   61.1999   69.4105 H   0  0  0  0  0  0  0  0  0  0  0  0
    1.9858   61.5633   68.3661 H   0  0  0  0  0  0  0  0  0  0  0  0
    3.4073   62.6614   68.3661 H   0  0  0  0  0  0  0  0  0  0  0  0
    2.4499   57.8720   72.9944 H   0  0  0  0  0  0  0  0  0  0  0  0
    4.0994   57.3326   71.1877 H   0  0  0  0  0  0  0  0  0  0  0  0
    2.5083   57.8572   70.5396 H   0  0  0  0  0  0  0  0  0  0  0  0
    3.8977   58.9958   70.5396 H   0  0  0  0  0  0  0  0  0  0  0  0
    3.9983   58.9358   74.3838 H   0  0  0  0  0  0  0  0  0  0  0  0
    5.0450   58.2827   73.0781 H   0  0  0  0  0  0  0  0  0  0  0  0
    4.5874   60.0197   73.0781 H   0  0  0  0  0  0  0  0  0  0  0  0
   -0.1986   58.3407   74.0101 H   0  0  0  0  0  0  0  0  0  0  0  0
    1.9863   59.8021   75.6064 H   0  0  0  0  0  0  0  0  0  0  0  0
    0.9636   58.5678   77.4812 H   0  0  0  0  0  0  0  0  0  0  0  0
   -0.8595   57.4156   77.1638 H   0  0  0  0  0  0  0  0  0  0  0  0
    2.7768   57.2745   77.1875 H   0  0  0  0  0  0  0  0  0  0  0  0
    1.3883   56.0675   77.0225 H   0  0  0  0  0  0  0  0  0  0  0  0
    2.7393   57.2840   74.6176 H   0  0  0  0  0  0  0  0  0  0  0  0
    3.7995   55.5344   76.4506 H   0  0  0  0  0  0  0  0  0  0  0  0
    0.5147   55.5412   75.0998 H   0  0  0  0  0  0  0  0  0  0  0  0
    1.2109   56.0792   73.5331 H   0  0  0  0  0  0  0  0  0  0  0  0
   -0.3362   63.5637   70.5984 H   0  0  0  0  0  0  0  0  0  0  0  0
   -1.4050   63.1271   71.9695 H   0  0  0  0  0  0  0  0  0  0  0  0
   -0.1708   66.4922   72.4208 H   0  0  0  0  0  0  0  0  0  0  0  0
    0.8317   65.8564   71.0727 H   0  0  0  0  0  0  0  0  0  0  0  0
   -0.9451   65.5924   71.0727 H   0  0  0  0  0  0  0  0  0  0  0  0
  2  1  2  0
  3  2  1  0
  4  3  2  0
  5  4  1  0
  6  5  2  0
  6  1  1  0
  7  2  1  0
  8  7  2  0
  9  8  1  0
 10  9  2  0
 11 10  1  0
 12 11  2  0
 12  7  1  0
 13 10  1  0
 14  6  1  0
 15 14  1  0
 16 14  1  0
 17  4  1  0
 18 17  1  0
 19 17  1  0
 20  3  1  0
 21 20  2  0
 22 21  1  0
 23 22  1  0
 24 22  1  0
 25 24  1  0
 26 25  1  0
 27 25  1  0
 28 27  1  0
 29 28  2  0
 30 28  1  0
 31  1  1  0
 33 32  1  0
 33 31  1  0
  8 34  1  0
  9 35  1  0
 11 36  1  0
 12 37  1  0
 14 38  1  0
 15 39  1  0
 15 40  1  0
 15 41  1  0
 16 42  1  0
 16 43  1  0
 16 44  1  0
 17 45  1  0
 18 46  1  0
 18 47  1  0
 18 48  1  0
 19 49  1  0
 19 50  1  0
 19 51  1  0
 20 52  1  0
 21 53  1  0
 22 54  1  1
 23 55  1  0
 24 56  1  0
 24 57  1  0
 25 58  1  6
 26 59  1  0
 27 60  1  0
 27 61  1  0
 31 62  1  0
 31 63  1  0
 32 64  1  0
 32 65  1  0
 32 66  1  0
M  CHG  1  30  -1
M  END
>  <score>  (4) 
-7.253

$$$$
=
     RDKit          3D

 66 67  0  0  0  0  0  0  0  0999 V2000
    2.3550   59.6520   72.6430 C   0  0  0  0  0  0  0  0  0  0  0  0
    1.0310   59.6830   73.1590 C   0  0  0  0  0  0  0  0  0  0  0  0
    0.2040   60.8010   72.8770 C   0  0  0  0  0  0  0  0  0  0  0  0
    0.7170   61.8240   72.0670 C   0  0  0  0  0  0  0  0  0  0  0  0
    1.9720   61.7710   71.5520 N   0  0  0  0  0  0  0  0  0  0  0  0
    2.7650   60.7040   71.8120 C   0  0  0  0  0  0  0  0  0  0  0  0
    0.5130   58.5530   73.9640 C   0  0  0  0  0  0  0  0  0  0  0  0
   -0.0270   57.4180   73.3320 C   0  0  0  0  0  0  0  0  0  0  0  0
   -0.5110   56.3450   74.0820 C   0  0  0  0  0  0  0  0  0  0  0  0
   -0.4620   56.4040   75.4690 C   0  0  0  0  0  0  0  0  0  0  0  0
    0.0620   57.5150   76.1200 C   0  0  0  0  0  0  0  0  0  0  0  0
    0.5520   58.5850   75.3690 C   0  0  0  0  0  0  0  0  0  0  0  0
   -0.9240   55.3730   76.1890 F   0  0  0  0  0  0  0  0  0  0  0  0
    4.1440   60.7610   71.1720 C   0  0  0  0  0  0  0  0  0  0  0  0
    4.0580   60.8220   69.6420 C   0  0  0  0  0  0  0  0  0  0  0  0
    4.9230   61.9630   71.7100 C   0  0  0  0  0  0  0  0  0  0  0  0
   -0.0780   63.0710   71.7110 C   0  0  0  0  0  0  0  0  0  0  0  0
    0.2430   64.2030   72.6880 C   0  0  0  0  0  0  0  0  0  0  0  0
    0.2020   63.5140   70.2690 C   0  0  0  0  0  0  0  0  0  0  0  0
   -1.1590   60.8700   73.4330 C   0  0  0  0  0  0  0  0  0  0  0  0
   -1.4090   61.4450   74.6200 C   0  0  0  0  0  0  0  0  0  0  0  0
   -2.7710   61.5300   75.2510 C   0  0  1  0  0  0  0  0  0  0  0  0
   -3.0300   62.8990   75.5380 O   0  0  0  0  0  0  0  0  0  0  0  0
   -3.8730   60.9070   74.3790 C   0  0  0  0  0  0  0  0  0  0  0  0
   -5.2900   60.9110   74.9750 C   0  0  1  0  0  0  0  0  0  0  0  0
   -5.7290   62.2620   75.1550 O   0  0  0  0  0  0  0  0  0  0  0  0
   -6.2600   60.1520   74.0760 C   0  0  0  0  0  0  0  0  0  0  0  0
   -7.5750   60.9220   73.9790 C   0  0  0  0  0  0  0  0  0  0  0  0
   -8.2820   60.8960   75.0290 O   0  0  0  0  0  0  0  0  0  0  0  0
   -7.7850   61.4920   72.8750 O   0  0  0  0  0  1  0  0  0  0  0  0
    3.2910   58.5160   72.9780 C   0  0  0  0  0  0  0  0  0  0  0  0
    4.0570   58.2310   75.1840 C   0  0  0  0  0  0  0  0  0  0  0  0
    4.2160   58.9540   73.9720 O   0  0  0  0  0  0  0  0  0  0  0  0
   -0.0683   57.3757   72.2336 H   0  0  0  0  0  0  0  0  0  0  0  0
   -0.9278   55.4600   73.5789 H   0  0  0  0  0  0  0  0  0  0  0  0
    0.0903   57.5507   77.2191 H   0  0  0  0  0  0  0  0  0  0  0  0
    0.9730   59.4623   75.8819 H   0  0  0  0  0  0  0  0  0  0  0  0
    4.6765   59.8356   71.4367 H   0  0  0  0  0  0  0  0  0  0  0  0
    3.1935   61.4352   69.3475 H   0  0  0  0  0  0  0  0  0  0  0  0
    4.9790   61.2699   69.2405 H   0  0  0  0  0  0  0  0  0  0  0  0
    3.9398   59.8047   69.2405 H   0  0  0  0  0  0  0  0  0  0  0  0
    4.9114   61.9450   72.8098 H   0  0  0  0  0  0  0  0  0  0  0  0
    5.9625   61.9156   71.3535 H   0  0  0  0  0  0  0  0  0  0  0  0
    4.4551   62.8925   71.3535 H   0  0  0  0  0  0  0  0  0  0  0  0
   -1.1476   62.8266   71.7893 H   0  0  0  0  0  0  0  0  0  0  0  0
    0.1392   63.8370   73.7201 H   0  0  0  0  0  0  0  0  0  0  0  0
    1.2744   64.5481   72.5233 H   0  0  0  0  0  0  0  0  0  0  0  0
   -0.4537   65.0381   72.5233 H   0  0  0  0  0  0  0  0  0  0  0  0
    0.7897   64.4438   70.2786 H   0  0  0  0  0  0  0  0  0  0  0  0
    0.7677   62.7280   69.7473 H   0  0  0  0  0  0  0  0  0  0  0  0
   -0.7507   63.6878   69.7473 H   0  0  0  0  0  0  0  0  0  0  0  0
   -1.9935   60.4390   72.8603 H   0  0  0  0  0  0  0  0  0  0  0  0
   -0.5612   61.8830   75.1672 H   0  0  0  0  0  0  0  0  0  0  0  0
   -2.7792   60.9387   76.1785 H   0  0  0  0  0  0  0  0  0  0  0  0
   -3.0551   63.0315   76.5188 H   0  0  0  0  0  0  0  0  0  0  0  0
   -3.9057   61.4632   73.4305 H   0  0  0  0  0  0  0  0  0  0  0  0
   -3.6006   59.8467   74.2714 H   0  0  0  0  0  0  0  0  0  0  0  0
   -5.2660   60.4033   75.9505 H   0  0  0  0  0  0  0  0  0  0  0  0
   -5.7939   62.4618   76.1225 H   0  0  0  0  0  0  0  0  0  0  0  0
   -5.8227   60.0458   73.0723 H   0  0  0  0  0  0  0  0  0  0  0  0
   -6.4498   59.1555   74.5013 H   0  0  0  0  0  0  0  0  0  0  0  0
    2.7128   57.6629   73.3626 H   0  0  0  0  0  0  0  0  0  0  0  0
    3.8360   58.2048   72.0746 H   0  0  0  0  0  0  0  0  0  0  0  0
    4.2060   58.9087   76.0375 H   0  0  0  0  0  0  0  0  0  0  0  0
    3.0437   57.8050   75.2266 H   0  0  0  0  0  0  0  0  0  0  0  0
    4.7981   57.4192   75.2266 H   0  0  0  0  0  0  0  0  0  0  0  0
  2  1  2  0
  3  2  1  0
  4  3  2  0
  5  4  1  0
  6  5  2  0
  6  1  1  0
  7  2  1  0
  8  7  2  0
  9  8  1  0
 10  9  2  0
 11 10  1  0
 12 11  2  0
 12  7  1  0
 13 10  1  0
 14  6  1  0
 15 14  1  0
 16 14  1  0
 17  4  1  0
 18 17  1  0
 19 17  1  0
 20  3  1  0
 21 20  2  0
 22 21  1  0
 23 22  1  0
 24 22  1  0
 25 24  1  0
 26 25  1  0
 27 25  1  0
 28 27  1  0
 29 28  2  0
 30 28  1  0
 31  1  1  0
 33 32  1  0
 33 31  1  0
  8 34  1  0
  9 35  1  0
 11 36  1  0
 12 37  1  0
 14 38  1  0
 15 39  1  0
 15 40  1  0
 15 41  1  0
 16 42  1  0
 16 43  1  0
 16 44  1  0
 17 45  1  0
 18 46  1  0
 18 47  1  0
 18 48  1  0
 19 49  1  0
 19 50  1  0
 19 51  1  0
 20 52  1  0
 21 53  1  0
 22 54  1  1
 23 55  1  0
 24 56  1  0
 24 57  1  0
 25 58  1  1
 26 59  1  0
 27 60  1  0
 27 61  1  0
 31 62  1  0
 31 63  1  0
 32 64  1  0
 32 65  1  0
 32 66  1  0
M  CHG  1  30  -1
M  END
>  <score>  (5) 
-7.239

$$$$
=
     RDKit          3D

 66 67  0  0  0  0  0  0  0  0999 V2000
   -2.2050   60.3110   74.7610 C   0  0  0  0  0  0  0  0  0  0  0  0
   -0.9850   60.3570   74.0350 C   0  0  0  0  0  0  0  0  0  0  0  0
   -0.2330   59.1650   73.8690 C   0  0  0  0  0  0  0  0  0  0  0  0
   -0.7430   57.9740   74.4030 C   0  0  0  0  0  0  0  0  0  0  0  0
   -1.9260   57.9320   75.0670 N   0  0  0  0  0  0  0  0  0  0  0  0
   -2.6520   59.0650   75.2250 C   0  0  0  0  0  0  0  0  0  0  0  0
   -0.5120   61.6290   73.4430 C   0  0  0  0  0  0  0  0  0  0  0  0
   -0.7070   61.8900   72.0730 C   0  0  0  0  0  0  0  0  0  0  0  0
   -0.2720   63.0890   71.5070 C   0  0  0  0  0  0  0  0  0  0  0  0
    0.3650   64.0310   72.3050 C   0  0  0  0  0  0  0  0  0  0  0  0
    0.5750   63.7970   73.6580 C   0  0  0  0  0  0  0  0  0  0  0  0
    0.1340   62.6000   74.2270 C   0  0  0  0  0  0  0  0  0  0  0  0
    0.7810   65.1820   71.7600 F   0  0  0  0  0  0  0  0  0  0  0  0
   -3.9600   58.8850   75.9800 C   0  0  0  0  0  0  0  0  0  0  0  0
   -4.6770   57.5910   75.5770 C   0  0  0  0  0  0  0  0  0  0  0  0
   -3.7030   58.9040   77.4880 C   0  0  0  0  0  0  0  0  0  0  0  0
   -0.0150   56.6420   74.2920 C   0  0  0  0  0  0  0  0  0  0  0  0
    0.9120   56.4420   75.4920 C   0  0  0  0  0  0  0  0  0  0  0  0
   -1.0060   55.4750   74.1820 C   0  0  0  0  0  0  0  0  0  0  0  0
    1.0540   59.1990   73.1520 C   0  0  0  0  0  0  0  0  0  0  0  0
    2.2000   59.5240   73.7720 C   0  0  0  0  0  0  0  0  0  0  0  0
    3.5400   59.5960   73.0940 C   0  0  1  0  0  0  0  0  0  0  0  0
    4.3260   58.5110   73.5730 O   0  0  0  0  0  0  0  0  0  0  0  0
    3.4340   59.5960   71.5600 C   0  0  0  0  0  0  0  0  0  0  0  0
    4.0590   60.8010   70.8400 C   0  0  1  0  0  0  0  0  0  0  0  0
    5.4300   60.5190   70.5350 O   0  0  0  0  0  0  0  0  0  0  0  0
    3.2900   61.1310   69.5650 C   0  0  0  0  0  0  0  0  0  0  0  0
    3.3940   62.6260   69.2780 C   0  0  0  0  0  0  0  0  0  0  0  0
    3.5710   62.9210   68.0580 O   0  0  0  0  0  0  0  0  0  0  0  0
    3.2820   63.3770   70.2840 O   0  0  0  0  0  1  0  0  0  0  0  0
   -3.0010   61.5670   75.0230 C   0  0  0  0  0  0  0  0  0  0  0  0
   -3.1820   63.3890   76.5010 C   0  0  0  0  0  0  0  0  0  0  0  0
   -2.6230   62.1000   76.2910 O   0  0  0  0  0  0  0  0  0  0  0  0
   -1.2076   61.1407   71.4422 H   0  0  0  0  0  0  0  0  0  0  0  0
   -0.4323   63.2868   70.4369 H   0  0  0  0  0  0  0  0  0  0  0  0
    1.0852   64.5494   74.2773 H   0  0  0  0  0  0  0  0  0  0  0  0
    0.2940   62.4156   75.2996 H   0  0  0  0  0  0  0  0  0  0  0  0
   -4.6194   59.7242   75.7135 H   0  0  0  0  0  0  0  0  0  0  0  0
   -4.9806   57.0431   76.4813 H   0  0  0  0  0  0  0  0  0  0  0  0
   -5.5680   57.8361   74.9803 H   0  0  0  0  0  0  0  0  0  0  0  0
   -3.9968   56.9655   74.9803 H   0  0  0  0  0  0  0  0  0  0  0  0
   -4.6609   58.8332   78.0241 H   0  0  0  0  0  0  0  0  0  0  0  0
   -3.0654   58.0505   77.7621 H   0  0  0  0  0  0  0  0  0  0  0  0
   -3.1979   59.8419   77.7621 H   0  0  0  0  0  0  0  0  0  0  0  0
    0.5902   56.6606   73.3736 H   0  0  0  0  0  0  0  0  0  0  0  0
    0.3389   56.5657   76.4227 H   0  0  0  0  0  0  0  0  0  0  0  0
    1.3425   55.4303   75.4582 H   0  0  0  0  0  0  0  0  0  0  0  0
    1.7213   57.1862   75.4582 H   0  0  0  0  0  0  0  0  0  0  0  0
   -1.2908   55.1396   75.1901 H   0  0  0  0  0  0  0  0  0  0  0  0
   -1.9033   55.8059   73.6385 H   0  0  0  0  0  0  0  0  0  0  0  0
   -0.5341   54.6432   73.6385 H   0  0  0  0  0  0  0  0  0  0  0  0
    1.0766   58.9516   72.0804 H   0  0  0  0  0  0  0  0  0  0  0  0
    2.1554   59.7527   74.8470 H   0  0  0  0  0  0  0  0  0  0  0  0
    4.0217   60.5533   73.3421 H   0  0  0  0  0  0  0  0  0  0  0  0
    4.3240   58.5138   74.5630 H   0  0  0  0  0  0  0  0  0  0  0  0
    3.9309   58.6876   71.1886 H   0  0  0  0  0  0  0  0  0  0  0  0
    2.3577   59.6443   71.3378 H   0  0  0  0  0  0  0  0  0  0  0  0
    4.0063   61.6762   71.5042 H   0  0  0  0  0  0  0  0  0  0  0  0
    5.9405   60.4140   71.3767 H   0  0  0  0  0  0  0  0  0  0  0  0
    3.7168   60.5659   68.7233 H   0  0  0  0  0  0  0  0  0  0  0  0
    2.2328   60.8561   69.6941 H   0  0  0  0  0  0  0  0  0  0  0  0
   -2.7934   62.3063   74.2354 H   0  0  0  0  0  0  0  0  0  0  0  0
   -4.0757   61.3326   75.0237 H   0  0  0  0  0  0  0  0  0  0  0  0
   -3.2653   63.5810   77.5809 H   0  0  0  0  0  0  0  0  0  0  0  0
   -2.5328   64.1494   76.0424 H   0  0  0  0  0  0  0  0  0  0  0  0
   -4.1808   63.4347   76.0424 H   0  0  0  0  0  0  0  0  0  0  0  0
  2  1  2  0
  3  2  1  0
  4  3  2  0
  5  4  1  0
  6  5  2  0
  6  1  1  0
  7  2  1  0
  8  7  2  0
  9  8  1  0
 10  9  2  0
 11 10  1  0
 12 11  2  0
 12  7  1  0
 13 10  1  0
 14  6  1  0
 15 14  1  0
 16 14  1  0
 17  4  1  0
 18 17  1  0
 19 17  1  0
 20  3  1  0
 21 20  2  0
 22 21  1  0
 23 22  1  0
 24 22  1  0
 25 24  1  0
 26 25  1  0
 27 25  1  0
 28 27  1  0
 29 28  2  0
 30 28  1  0
 31  1  1  0
 33 32  1  0
 33 31  1  0
  8 34  1  0
  9 35  1  0
 11 36  1  0
 12 37  1  0
 14 38  1  0
 15 39  1  0
 15 40  1  0
 15 41  1  0
 16 42  1  0
 16 43  1  0
 16 44  1  0
 17 45  1  0
 18 46  1  0
 18 47  1  0
 18 48  1  0
 19 49  1  0
 19 50  1  0
 19 51  1  0
 20 52  1  0
 21 53  1  0
 22 54  1  1
 23 55  1  0
 24 56  1  0
 24 57  1  0
 25 58  1  1
 26 59  1  0
 27 60  1  0
 27 61  1  0
 31 62  1  0
 31 63  1  0
 32 64  1  0
 32 65  1  0
 32 66  1  0
M  CHG  1  30  -1
M  END
>  <score>  (6) 
-6.78

$$$$
=
     RDKit          3D

 66 67  0  0  0  0  0  0  0  0999 V2000
    1.8190   60.5360   73.4720 C   0  0  0  0  0  0  0  0  0  0  0  0
    1.3580   61.8690   73.3040 C   0  0  0  0  0  0  0  0  0  0  0  0
    1.6710   62.5650   72.1080 C   0  0  0  0  0  0  0  0  0  0  0  0
    2.3990   61.8940   71.1160 C   0  0  0  0  0  0  0  0  0  0  0  0
    2.8080   60.6080   71.2700 N   0  0  0  0  0  0  0  0  0  0  0  0
    2.5080   59.9360   72.4080 C   0  0  0  0  0  0  0  0  0  0  0  0
    0.5450   62.5190   74.3570 C   0  0  0  0  0  0  0  0  0  0  0  0
    1.1380   63.4280   75.2540 C   0  0  0  0  0  0  0  0  0  0  0  0
    0.3790   64.0510   76.2450 C   0  0  0  0  0  0  0  0  0  0  0  0
   -0.9770   63.7640   76.3490 C   0  0  0  0  0  0  0  0  0  0  0  0
   -1.5870   62.8680   75.4810 C   0  0  0  0  0  0  0  0  0  0  0  0
   -0.8290   62.2500   74.4850 C   0  0  0  0  0  0  0  0  0  0  0  0
   -1.7050   64.3650   77.3000 F   0  0  0  0  0  0  0  0  0  0  0  0
    3.0160   58.5030   72.4550 C   0  0  0  0  0  0  0  0  0  0  0  0
    1.8760   57.4900   72.2950 C   0  0  0  0  0  0  0  0  0  0  0  0
    4.0780   58.2860   71.3760 C   0  0  0  0  0  0  0  0  0  0  0  0
    2.7980   62.5470   69.8010 C   0  0  0  0  0  0  0  0  0  0  0  0
    4.1830   63.1870   69.9240 C   0  0  0  0  0  0  0  0  0  0  0  0
    2.7770   61.5340   68.6490 C   0  0  0  0  0  0  0  0  0  0  0  0
    1.2350   63.9610   71.9310 C   0  0  0  0  0  0  0  0  0  0  0  0
    0.5420   64.3530   70.8510 C   0  0  0  0  0  0  0  0  0  0  0  0
    0.0850   65.7640   70.6020 C   0  0  1  0  0  0  0  0  0  0  0  0
   -0.2510   66.3390   71.8590 O   0  0  0  0  0  0  0  0  0  0  0  0
    1.1280   66.6050   69.8460 C   0  0  0  0  0  0  0  0  0  0  0  0
    0.5720   67.6170   68.8310 C   0  0  1  0  0  0  0  0  0  0  0  0
    1.6440   68.1330   68.0340 O   0  0  0  0  0  0  0  0  0  0  0  0
   -0.4860   66.9700   67.9430 C   0  0  0  0  0  0  0  0  0  0  0  0
   -0.3000   67.4390   66.5030 C   0  0  0  0  0  0  0  0  0  0  0  0
   -0.7850   68.5810   66.2500 O   0  0  0  0  0  0  0  0  0  0  0  0
    0.3190   66.6380   65.7510 O   0  0  0  0  0  1  0  0  0  0  0  0
    1.5700   59.7830   74.7570 C   0  0  0  0  0  0  0  0  0  0  0  0
    0.3320   57.9250   75.4970 C   0  0  0  0  0  0  0  0  0  0  0  0
    0.3480   59.0570   74.6400 O   0  0  0  0  0  0  0  0  0  0  0  0
    2.2124   63.6495   75.1724 H   0  0  0  0  0  0  0  0  0  0  0  0
    0.8498   64.7635   76.9383 H   0  0  0  0  0  0  0  0  0  0  0  0
   -2.6602   62.6468   75.5776 H   0  0  0  0  0  0  0  0  0  0  0  0
   -1.3120   61.5448   73.7927 H   0  0  0  0  0  0  0  0  0  0  0  0
    3.4669   58.3387   73.4448 H   0  0  0  0  0  0  0  0  0  0  0  0
    1.5225   57.1759   73.2882 H   0  0  0  0  0  0  0  0  0  0  0  0
    1.0473   57.9551   71.7410 H   0  0  0  0  0  0  0  0  0  0  0  0
    2.2404   56.6123   71.7410 H   0  0  0  0  0  0  0  0  0  0  0  0
    5.0494   58.0875   71.8523 H   0  0  0  0  0  0  0  0  0  0  0  0
    3.7944   57.4273   70.7498 H   0  0  0  0  0  0  0  0  0  0  0  0
    4.1540   59.1872   70.7498 H   0  0  0  0  0  0  0  0  0  0  0  0
    2.0621   63.3326   69.5743 H   0  0  0  0  0  0  0  0  0  0  0  0
    4.4391   63.3054   70.9872 H   0  0  0  0  0  0  0  0  0  0  0  0
    4.9293   62.5425   69.4366 H   0  0  0  0  0  0  0  0  0  0  0  0
    4.1759   64.1731   69.4366 H   0  0  0  0  0  0  0  0  0  0  0  0
    2.7558   60.5133   69.0586 H   0  0  0  0  0  0  0  0  0  0  0  0
    1.8821   61.6998   68.0312 H   0  0  0  0  0  0  0  0  0  0  0  0
    3.6780   61.6626   68.0312 H   0  0  0  0  0  0  0  0  0  0  0  0
    1.4843   64.7018   72.7050 H   0  0  0  0  0  0  0  0  0  0  0  0
    0.2915   63.5917   70.0976 H   0  0  0  0  0  0  0  0  0  0  0  0
   -0.7957   65.7490   69.9432 H   0  0  0  0  0  0  0  0  0  0  0  0
    0.0872   65.7603   72.5876 H   0  0  0  0  0  0  0  0  0  0  0  0
    1.7140   67.1632   70.5910 H   0  0  0  0  0  0  0  0  0  0  0  0
    1.7162   65.8867   69.2560 H   0  0  0  0  0  0  0  0  0  0  0  0
    0.0952   68.4433   69.3786 H   0  0  0  0  0  0  0  0  0  0  0  0
    2.3591   68.4772   68.6258 H   0  0  0  0  0  0  0  0  0  0  0  0
   -0.3829   65.8758   67.9881 H   0  0  0  0  0  0  0  0  0  0  0  0
   -1.4868   67.2597   68.2958 H   0  0  0  0  0  0  0  0  0  0  0  0
    2.3986   59.0833   74.9410 H   0  0  0  0  0  0  0  0  0  0  0  0
    1.5028   60.4913   75.5959 H   0  0  0  0  0  0  0  0  0  0  0  0
    0.3367   58.2586   76.5452 H   0  0  0  0  0  0  0  0  0  0  0  0
   -0.5746   57.3324   75.3049 H   0  0  0  0  0  0  0  0  0  0  0  0
    1.2215   57.3070   75.3049 H   0  0  0  0  0  0  0  0  0  0  0  0
  2  1  2  0
  3  2  1  0
  4  3  2  0
  5  4  1  0
  6  5  2  0
  6  1  1  0
  7  2  1  0
  8  7  2  0
  9  8  1  0
 10  9  2  0
 11 10  1  0
 12 11  2  0
 12  7  1  0
 13 10  1  0
 14  6  1  0
 15 14  1  0
 16 14  1  0
 17  4  1  0
 18 17  1  0
 19 17  1  0
 20  3  1  0
 21 20  2  0
 22 21  1  0
 23 22  1  0
 24 22  1  0
 25 24  1  0
 26 25  1  0
 27 25  1  0
 28 27  1  0
 29 28  2  0
 30 28  1  0
 31  1  1  0
 33 32  1  0
 33 31  1  0
  8 34  1  0
  9 35  1  0
 11 36  1  0
 12 37  1  0
 14 38  1  0
 15 39  1  0
 15 40  1  0
 15 41  1  0
 16 42  1  0
 16 43  1  0
 16 44  1  0
 17 45  1  0
 18 46  1  0
 18 47  1  0
 18 48  1  0
 19 49  1  0
 19 50  1  0
 19 51  1  0
 20 52  1  0
 21 53  1  0
 22 54  1  6
 23 55  1  0
 24 56  1  0
 24 57  1  0
 25 58  1  1
 26 59  1  0
 27 60  1  0
 27 61  1  0
 31 62  1  0
 31 63  1  0
 32 64  1  0
 32 65  1  0
 32 66  1  0
M  CHG  1  30  -1
M  END
>  <score>  (7) 
-6.709

$$$$
=
     RDKit          3D

 66 67  0  0  0  0  0  0  0  0999 V2000
    0.4450   61.6400   72.8980 C   0  0  0  0  0  0  0  0  0  0  0  0
    0.7440   60.3460   73.4050 C   0  0  0  0  0  0  0  0  0  0  0  0
    1.8510   59.6350   72.8750 C   0  0  0  0  0  0  0  0  0  0  0  0
    2.6320   60.2530   71.8890 C   0  0  0  0  0  0  0  0  0  0  0  0
    2.3590   61.5020   71.4340 N   0  0  0  0  0  0  0  0  0  0  0  0
    1.3060   62.1900   71.9390 C   0  0  0  0  0  0  0  0  0  0  0  0
   -0.0770   59.7560   74.4860 C   0  0  0  0  0  0  0  0  0  0  0  0
   -1.2900   59.1090   74.1840 C   0  0  0  0  0  0  0  0  0  0  0  0
   -2.0680   58.5430   75.1950 C   0  0  0  0  0  0  0  0  0  0  0  0
   -1.6400   58.6250   76.5140 C   0  0  0  0  0  0  0  0  0  0  0  0
   -0.4490   59.2620   76.8410 C   0  0  0  0  0  0  0  0  0  0  0  0
    0.3320   59.8220   75.8290 C   0  0  0  0  0  0  0  0  0  0  0  0
   -2.3870   58.0800   77.4840 F   0  0  0  0  0  0  0  0  0  0  0  0
    1.1100   63.5790   71.3520 C   0  0  0  0  0  0  0  0  0  0  0  0
    2.4200   64.1530   70.7990 C   0  0  0  0  0  0  0  0  0  0  0  0
    0.0420   63.5420   70.2580 C   0  0  0  0  0  0  0  0  0  0  0  0
    3.8340   59.5780   71.2450 C   0  0  0  0  0  0  0  0  0  0  0  0
    3.5550   59.2920   69.7680 C   0  0  0  0  0  0  0  0  0  0  0  0
    5.0980   60.4340   71.3940 C   0  0  0  0  0  0  0  0  0  0  0  0
    2.1560   58.2770   73.3600 C   0  0  0  0  0  0  0  0  0  0  0  0
    1.4850   57.2020   72.9180 C   0  0  0  0  0  0  0  0  0  0  0  0
    1.7340   55.7950   73.3860 C   0  0  1  0  0  0  0  0  0  0  0  0
    2.6810   55.2060   72.5020 O   0  0  0  0  0  0  0  0  0  0  0  0
    2.1950   55.7260   74.8510 C   0  0  0  0  0  0  0  0  0  0  0  0
    1.3090   54.9010   75.7990 C   0  0  1  0  0  0  0  0  0  0  0  0
   -0.0460   55.3550   75.7040 O   0  0  0  0  0  0  0  0  0  0  0  0
    1.3950   53.4150   75.4670 C   0  0  0  0  0  0  0  0  0  0  0  0
    0.0010   52.8810   75.1490 C   0  0  0  0  0  0  0  0  0  0  0  0
   -0.3070   52.9000   73.9200 O   0  0  0  0  0  0  0  0  0  0  0  0
   -0.6620   52.4810   76.1440 O   0  0  0  0  0  1  0  0  0  0  0  0
   -0.7650   62.4020   73.3830 C   0  0  0  0  0  0  0  0  0  0  0  0
   -1.0290   63.1690   75.5920 C   0  0  0  0  0  0  0  0  0  0  0  0
   -0.3510   63.3580   74.3580 O   0  0  0  0  0  0  0  0  0  0  0  0
   -1.6286   59.0488   73.1392 H   0  0  0  0  0  0  0  0  0  0  0  0
   -3.0127   58.0359   74.9493 H   0  0  0  0  0  0  0  0  0  0  0  0
   -0.1241   59.3244   77.8901 H   0  0  0  0  0  0  0  0  0  0  0  0
    1.2784   60.3207   76.0854 H   0  0  0  0  0  0  0  0  0  0  0  0
    0.7749   64.2416   72.1636 H   0  0  0  0  0  0  0  0  0  0  0  0
    3.0758   64.4404   71.6341 H   0  0  0  0  0  0  0  0  0  0  0  0
    2.9224   63.3926   70.1831 H   0  0  0  0  0  0  0  0  0  0  0  0
    2.2015   65.0378   70.1831 H   0  0  0  0  0  0  0  0  0  0  0  0
   -0.9555   63.5074   70.7204 H   0  0  0  0  0  0  0  0  0  0  0  0
    0.1256   64.4436   69.6334 H   0  0  0  0  0  0  0  0  0  0  0  0
    0.1878   62.6484   69.6334 H   0  0  0  0  0  0  0  0  0  0  0  0
    4.0074   58.6246   71.7656 H   0  0  0  0  0  0  0  0  0  0  0  0
    2.7891   58.5069   69.6849 H   0  0  0  0  0  0  0  0  0  0  0  0
    3.1948   60.2089   69.2786 H   0  0  0  0  0  0  0  0  0  0  0  0
    4.4806   58.9546   69.2786 H   0  0  0  0  0  0  0  0  0  0  0  0
    5.3167   60.5821   72.4618 H   0  0  0  0  0  0  0  0  0  0  0  0
    5.9455   59.9232   70.9135 H   0  0  0  0  0  0  0  0  0  0  0  0
    4.9383   61.4105   70.9135 H   0  0  0  0  0  0  0  0  0  0  0  0
    2.9548   58.1410   74.1040 H   0  0  0  0  0  0  0  0  0  0  0  0
    0.7008   57.3608   72.1632 H   0  0  0  0  0  0  0  0  0  0  0  0
    0.7895   55.2316   73.3618 H   0  0  0  0  0  0  0  0  0  0  0  0
    3.3929   54.7632   73.0285 H   0  0  0  0  0  0  0  0  0  0  0  0
    3.2035   55.2871   74.8660 H   0  0  0  0  0  0  0  0  0  0  0  0
    2.1477   56.7592   75.2254 H   0  0  0  0  0  0  0  0  0  0  0  0
    1.6678   55.0393   76.8296 H   0  0  0  0  0  0  0  0  0  0  0  0
   -0.4169   55.4793   76.6134 H   0  0  0  0  0  0  0  0  0  0  0  0
    2.0498   53.2719   74.5948 H   0  0  0  0  0  0  0  0  0  0  0  0
    1.8072   52.8708   76.3295 H   0  0  0  0  0  0  0  0  0  0  0  0
   -1.2385   62.9202   72.5361 H   0  0  0  0  0  0  0  0  0  0  0  0
   -1.4891   61.7048   73.8297 H   0  0  0  0  0  0  0  0  0  0  0  0
   -0.3362   63.3621   76.4243 H   0  0  0  0  0  0  0  0  0  0  0  0
   -1.8791   63.8644   75.6536 H   0  0  0  0  0  0  0  0  0  0  0  0
   -1.3967   62.1341   75.6536 H   0  0  0  0  0  0  0  0  0  0  0  0
  2  1  2  0
  3  2  1  0
  4  3  2  0
  5  4  1  0
  6  5  2  0
  6  1  1  0
  7  2  1  0
  8  7  2  0
  9  8  1  0
 10  9  2  0
 11 10  1  0
 12 11  2  0
 12  7  1  0
 13 10  1  0
 14  6  1  0
 15 14  1  0
 16 14  1  0
 17  4  1  0
 18 17  1  0
 19 17  1  0
 20  3  1  0
 21 20  2  0
 22 21  1  0
 23 22  1  0
 24 22  1  0
 25 24  1  0
 26 25  1  0
 27 25  1  0
 28 27  1  0
 29 28  2  0
 30 28  1  0
 31  1  1  0
 33 32  1  0
 33 31  1  0
  8 34  1  0
  9 35  1  0
 11 36  1  0
 12 37  1  0
 14 38  1  0
 15 39  1  0
 15 40  1  0
 15 41  1  0
 16 42  1  0
 16 43  1  0
 16 44  1  0
 17 45  1  0
 18 46  1  0
 18 47  1  0
 18 48  1  0
 19 49  1  0
 19 50  1  0
 19 51  1  0
 20 52  1  0
 21 53  1  0
 22 54  1  1
 23 55  1  0
 24 56  1  0
 24 57  1  0
 25 58  1  1
 26 59  1  0
 27 60  1  0
 27 61  1  0
 31 62  1  0
 31 63  1  0
 32 64  1  0
 32 65  1  0
 32 66  1  0
M  CHG  1  30  -1
M  END
>  <score>  (8) 
-6.682

$$$$
=
     RDKit          3D

 66 67  0  0  0  0  0  0  0  0999 V2000
    3.0090   60.2970   71.7260 C   0  0  0  0  0  0  0  0  0  0  0  0
    1.9110   60.0240   72.5850 C   0  0  0  0  0  0  0  0  0  0  0  0
    0.8980   61.0040   72.7460 C   0  0  0  0  0  0  0  0  0  0  0  0
    1.0030   62.1990   72.0200 C   0  0  0  0  0  0  0  0  0  0  0  0
    2.0390   62.4380   71.1760 N   0  0  0  0  0  0  0  0  0  0  0  0
    3.0080   61.5040   71.0130 C   0  0  0  0  0  0  0  0  0  0  0  0
    1.8150   58.7250   73.2900 C   0  0  0  0  0  0  0  0  0  0  0  0
    2.5920   58.4800   74.4370 C   0  0  0  0  0  0  0  0  0  0  0  0
    2.5040   57.2620   75.1130 C   0  0  0  0  0  0  0  0  0  0  0  0
    1.6420   56.2800   74.6410 C   0  0  0  0  0  0  0  0  0  0  0  0
    0.8660   56.4930   73.5080 C   0  0  0  0  0  0  0  0  0  0  0  0
    0.9500   57.7140   72.8360 C   0  0  0  0  0  0  0  0  0  0  0  0
    1.5560   55.1120   75.2910 F   0  0  0  0  0  0  0  0  0  0  0  0
    4.1080   61.8890   70.0360 C   0  0  0  0  0  0  0  0  0  0  0  0
    3.5440   62.2350   68.6520 C   0  0  0  0  0  0  0  0  0  0  0  0
    4.9160   63.0630   70.5910 C   0  0  0  0  0  0  0  0  0  0  0  0
   -0.0190   63.3210   72.1250 C   0  0  0  0  0  0  0  0  0  0  0  0
    0.2860   64.2060   73.3350 C   0  0  0  0  0  0  0  0  0  0  0  0
   -0.0540   64.1610   70.8420 C   0  0  0  0  0  0  0  0  0  0  0  0
   -0.2290   60.7560   73.6620 C   0  0  0  0  0  0  0  0  0  0  0  0
   -0.0950   60.8680   74.9930 C   0  0  0  0  0  0  0  0  0  0  0  0
   -1.1990   60.6100   75.9810 C   0  0  1  0  0  0  0  0  0  0  0  0
   -0.7830   59.5440   76.8270 O   0  0  0  0  0  0  0  0  0  0  0  0
   -1.5870   61.8630   76.7830 C   0  0  0  0  0  0  0  0  0  0  0  0
   -2.0750   63.0670   75.9610 C   0  0  1  0  0  0  0  0  0  0  0  0
   -3.4530   62.8830   75.6160 O   0  0  0  0  0  0  0  0  0  0  0  0
   -1.8920   64.3650   76.7390 C   0  0  0  0  0  0  0  0  0  0  0  0
   -3.1860   65.1730   76.6980 C   0  0  0  0  0  0  0  0  0  0  0  0
   -3.2880   65.9610   75.7110 O   0  0  0  0  0  0  0  0  0  0  0  0
   -3.9930   64.9470   77.6400 O   0  0  0  0  0  1  0  0  0  0  0  0
    4.1450   59.3110   71.5800 C   0  0  0  0  0  0  0  0  0  0  0  0
    3.5620   57.2180   70.6780 C   0  0  0  0  0  0  0  0  0  0  0  0
    3.9500   58.5530   70.3870 O   0  0  0  0  0  0  0  0  0  0  0  0
    3.2771   59.2577   74.8055 H   0  0  0  0  0  0  0  0  0  0  0  0
    3.1119   57.0812   76.0117 H   0  0  0  0  0  0  0  0  0  0  0  0
    0.1904   55.7053   73.1432 H   0  0  0  0  0  0  0  0  0  0  0  0
    0.3329   57.8867   71.9419 H   0  0  0  0  0  0  0  0  0  0  0  0
    4.7697   61.0187   69.9147 H   0  0  0  0  0  0  0  0  0  0  0  0
    2.6117   62.8070   68.7685 H   0  0  0  0  0  0  0  0  0  0  0  0
    4.2776   62.8386   68.0975 H   0  0  0  0  0  0  0  0  0  0  0  0
    3.3383   61.3075   68.0975 H   0  0  0  0  0  0  0  0  0  0  0  0
    4.8963   63.0344   71.6905 H   0  0  0  0  0  0  0  0  0  0  0  0
    5.9562   62.9903   70.2409 H   0  0  0  0  0  0  0  0  0  0  0  0
    4.4765   64.0087   70.2409 H   0  0  0  0  0  0  0  0  0  0  0  0
   -1.0116   62.8663   72.2590 H   0  0  0  0  0  0  0  0  0  0  0  0
    0.0918   63.6426   74.2596 H   0  0  0  0  0  0  0  0  0  0  0  0
    1.3419   64.5132   73.3077 H   0  0  0  0  0  0  0  0  0  0  0  0
   -0.3564   65.0985   73.3077 H   0  0  0  0  0  0  0  0  0  0  0  0
   -0.0985   65.2285   71.1037 H   0  0  0  0  0  0  0  0  0  0  0  0
    0.8531   63.9658   70.2511 H   0  0  0  0  0  0  0  0  0  0  0  0
   -0.9417   63.8911   70.2511 H   0  0  0  0  0  0  0  0  0  0  0  0
   -1.2060   60.4716   73.2442 H   0  0  0  0  0  0  0  0  0  0  0  0
    0.8871   61.1683   75.3870 H   0  0  0  0  0  0  0  0  0  0  0  0
   -2.1138   60.3294   75.4384 H   0  0  0  0  0  0  0  0  0  0  0  0
   -0.8883   59.8137   77.7737 H   0  0  0  0  0  0  0  0  0  0  0  0
   -2.3922   61.5816   77.4776 H   0  0  0  0  0  0  0  0  0  0  0  0
   -0.6621   62.1968   77.2760 H   0  0  0  0  0  0  0  0  0  0  0  0
   -1.4752   63.1357   75.0415 H   0  0  0  0  0  0  0  0  0  0  0  0
   -3.9933   62.8109   76.4424 H   0  0  0  0  0  0  0  0  0  0  0  0
   -1.6382   64.1329   77.7839 H   0  0  0  0  0  0  0  0  0  0  0  0
   -1.0802   64.9520   76.2847 H   0  0  0  0  0  0  0  0  0  0  0  0
    5.0997   59.8541   71.5202 H   0  0  0  0  0  0  0  0  0  0  0  0
    4.1674   58.6375   72.4494 H   0  0  0  0  0  0  0  0  0  0  0  0
    3.5211   57.0774   71.7682 H   0  0  0  0  0  0  0  0  0  0  0  0
    2.5697   57.0220   70.2456 H   0  0  0  0  0  0  0  0  0  0  0  0
    4.2946   56.5207   70.2456 H   0  0  0  0  0  0  0  0  0  0  0  0
  2  1  2  0
  3  2  1  0
  4  3  2  0
  5  4  1  0
  6  5  2  0
  6  1  1  0
  7  2  1  0
  8  7  2  0
  9  8  1  0
 10  9  2  0
 11 10  1  0
 12 11  2  0
 12  7  1  0
 13 10  1  0
 14  6  1  0
 15 14  1  0
 16 14  1  0
 17  4  1  0
 18 17  1  0
 19 17  1  0
 20  3  1  0
 21 20  2  0
 22 21  1  0
 23 22  1  0
 24 22  1  0
 25 24  1  0
 26 25  1  0
 27 25  1  0
 28 27  1  0
 29 28  2  0
 30 28  1  0
 31  1  1  0
 33 32  1  0
 33 31  1  0
  8 34  1  0
  9 35  1  0
 11 36  1  0
 12 37  1  0
 14 38  1  0
 15 39  1  0
 15 40  1  0
 15 41  1  0
 16 42  1  0
 16 43  1  0
 16 44  1  0
 17 45  1  0
 18 46  1  0
 18 47  1  0
 18 48  1  0
 19 49  1  0
 19 50  1  0
 19 51  1  0
 20 52  1  0
 21 53  1  0
 22 54  1  6
 23 55  1  0
 24 56  1  0
 24 57  1  0
 25 58  1  6
 26 59  1  0
 27 60  1  0
 27 61  1  0
 31 62  1  0
 31 63  1  0
 32 64  1  0
 32 65  1  0
 32 66  1  0
M  CHG  1  30  -1
M  END
>  <score>  (9) 
-6.642

$$$$
