=
     RDKit          3D

 34 34  0  0  0  0  0  0  0  0999 V2000
   -0.8300   68.2550   66.9550 C   0  0  0  0  0  0  0  0  0  0  0  0
   -1.0970   69.0250   63.2800 N   0  0  0  0  0  0  0  0  0  0  0  0
   -1.5190   68.8080   64.5520 C   0  0  0  0  0  0  0  0  0  0  0  0
   -0.6460   68.3630   65.4880 N   0  0  0  0  0  4  0  0  0  0  0  0
   -2.8360   69.0650   64.7900 N   0  0  0  0  0  0  0  0  0  0  0  0
   -3.6220   68.7110   65.9750 C   0  0  0  0  0  0  0  0  0  0  0  0
    1.3520   68.6730   62.5060 N   0  0  0  0  0  0  0  0  0  0  0  0
    0.2720   68.8360   62.8780 C   0  0  0  0  0  0  0  0  0  0  0  0
    0.4620   67.7910   67.6390 C   0  0  0  0  0  0  0  0  0  0  0  0
    1.7260   69.1140   67.7200 S   0  0  0  0  0  0  0  0  0  0  0  0
    2.6080   68.8580   66.1390 C   0  0  0  0  0  0  0  0  0  0  0  0
    3.9960   69.3970   66.1420 C   0  0  0  0  0  0  0  0  0  0  0  0
    4.5600   69.8590   67.3160 N   0  0  0  0  0  0  0  0  0  0  0  0
    5.7750   70.2410   66.9930 C   0  0  0  0  0  0  0  0  0  0  0  0
    6.0220   70.0610   65.6630 N   0  0  0  0  0  0  0  0  0  0  0  0
    4.8930   69.5240   65.0980 C   0  0  0  0  0  0  0  0  0  0  0  0
    4.7900   69.1940   63.6580 C   0  0  0  0  0  0  0  0  0  0  0  0
   -1.1152   69.2392   67.3551 H   0  0  0  0  0  0  0  0  0  0  0  0
   -1.6179   67.5141   67.1555 H   0  0  0  0  0  0  0  0  0  0  0  0
   -1.7819   69.3364   62.5766 H   0  0  0  0  0  0  0  0  0  0  0  0
    0.2709   68.0581   65.1314 H   0  0  0  0  0  0  0  0  0  0  0  0
   -3.3401   69.5693   64.0467 H   0  0  0  0  0  0  0  0  0  0  0  0
   -3.0540   68.9668   66.8816 H   0  0  0  0  0  0  0  0  0  0  0  0
   -4.5698   69.2691   65.9665 H   0  0  0  0  0  0  0  0  0  0  0  0
   -3.8322   67.6313   65.9665 H   0  0  0  0  0  0  0  0  0  0  0  0
    0.2229   67.4683   68.6630 H   0  0  0  0  0  0  0  0  0  0  0  0
    0.8788   66.9662   67.0423 H   0  0  0  0  0  0  0  0  0  0  0  0
    2.6539   67.7778   65.9363 H   0  0  0  0  0  0  0  0  0  0  0  0
    2.0497   69.4032   65.3638 H   0  0  0  0  0  0  0  0  0  0  0  0
    6.5030   70.6547   67.7064 H   0  0  0  0  0  0  0  0  0  0  0  0
    6.8985   70.2876   65.1717 H   0  0  0  0  0  0  0  0  0  0  0  0
    4.4640   68.1497   63.5436 H   0  0  0  0  0  0  0  0  0  0  0  0
    4.0574   69.8612   63.1804 H   0  0  0  0  0  0  0  0  0  0  0  0
    5.7721   69.3260   63.1804 H   0  0  0  0  0  0  0  0  0  0  0  0
  3  2  1  0
  4  3  2  0
  4  1  1  0
  5  3  1  0
  6  5  1  0
  8  7  3  0
  8  2  1  0
  9  1  1  0
 10  9  1  0
 11 10  1  0
 12 11  1  0
 13 12  1  0
 14 13  2  0
 15 14  1  0
 16 12  2  0
 16 15  1  0
 17 16  1  0
  1 18  1  0
  1 19  1  0
  2 20  1  0
  4 21  1  0
  5 22  1  0
  6 23  1  0
  6 24  1  0
  6 25  1  0
  9 26  1  0
  9 27  1  0
 11 28  1  0
 11 29  1  0
 14 30  1  0
 15 31  1  0
 17 32  1  0
 17 33  1  0
 17 34  1  0
M  CHG  1   4   1
M  END
>  <score>  (1) 
-7.079

$$$$
=
     RDKit          3D

 34 34  0  0  0  0  0  0  0  0999 V2000
    4.0370   69.4730   66.3930 C   0  0  0  0  0  0  0  0  0  0  0  0
    0.6760   69.6620   68.0780 N   0  0  0  0  0  0  0  0  0  0  0  0
    2.0190   69.8040   67.9330 C   0  0  0  0  0  0  0  0  0  0  0  0
    2.6430   69.2710   66.8540 N   0  0  0  0  0  4  0  0  0  0  0  0
    2.6500   70.4970   68.9210 N   0  0  0  0  0  0  0  0  0  0  0  0
    4.0910   70.6120   69.1620 C   0  0  0  0  0  0  0  0  0  0  0  0
   -0.8340   68.4580   66.3490 N   0  0  0  0  0  0  0  0  0  0  0  0
   -0.1390   68.9880   67.1010 C   0  0  0  0  0  0  0  0  0  0  0  0
    4.1220   69.4270   64.8620 C   0  0  0  0  0  0  0  0  0  0  0  0
    5.4600   68.3270   64.2660 S   0  0  0  0  0  0  0  0  0  0  0  0
    4.5430   67.2520   63.1060 C   0  0  0  0  0  0  0  0  0  0  0  0
    4.1720   65.9340   63.6900 C   0  0  0  0  0  0  0  0  0  0  0  0
    4.9770   64.8290   63.4840 N   0  0  0  0  0  0  0  0  0  0  0  0
    4.3960   63.8470   64.1350 C   0  0  0  0  0  0  0  0  0  0  0  0
    3.2450   64.2570   64.7430 N   0  0  0  0  0  0  0  0  0  0  0  0
    3.0820   65.5920   64.4680 C   0  0  0  0  0  0  0  0  0  0  0  0
    1.9320   66.3820   64.9650 C   0  0  0  0  0  0  0  0  0  0  0  0
    4.3934   70.4528   66.7438 H   0  0  0  0  0  0  0  0  0  0  0  0
    4.6621   68.6661   66.8030 H   0  0  0  0  0  0  0  0  0  0  0  0
    0.2239   70.0508   68.9178 H   0  0  0  0  0  0  0  0  0  0  0  0
    2.0703   68.6396   66.2758 H   0  0  0  0  0  0  0  0  0  0  0  0
    2.0399   71.0021   69.5794 H   0  0  0  0  0  0  0  0  0  0  0  0
    4.2815   70.6272   70.2453 H   0  0  0  0  0  0  0  0  0  0  0  0
    4.6080   69.7523   68.7108 H   0  0  0  0  0  0  0  0  0  0  0  0
    4.4651   71.5429   68.7108 H   0  0  0  0  0  0  0  0  0  0  0  0
    3.1628   69.0619   64.4663 H   0  0  0  0  0  0  0  0  0  0  0  0
    4.3442   70.4449   64.5090 H   0  0  0  0  0  0  0  0  0  0  0  0
    3.6217   67.7712   62.8035 H   0  0  0  0  0  0  0  0  0  0  0  0
    5.2076   67.0537   62.2522 H   0  0  0  0  0  0  0  0  0  0  0  0
    4.7888   62.8207   64.1840 H   0  0  0  0  0  0  0  0  0  0  0  0
    2.6128   63.6707   65.3064 H   0  0  0  0  0  0  0  0  0  0  0  0
    1.9342   66.3805   66.0650 H   0  0  0  0  0  0  0  0  0  0  0  0
    2.0124   67.4164   64.5996 H   0  0  0  0  0  0  0  0  0  0  0  0
    0.9953   65.9358   64.5996 H   0  0  0  0  0  0  0  0  0  0  0  0
  3  2  1  0
  4  3  2  0
  4  1  1  0
  5  3  1  0
  6  5  1  0
  8  7  3  0
  8  2  1  0
  9  1  1  0
 10  9  1  0
 11 10  1  0
 12 11  1  0
 13 12  1  0
 14 13  2  0
 15 14  1  0
 16 12  2  0
 16 15  1  0
 17 16  1  0
  1 18  1  0
  1 19  1  0
  2 20  1  0
  4 21  1  0
  5 22  1  0
  6 23  1  0
  6 24  1  0
  6 25  1  0
  9 26  1  0
  9 27  1  0
 11 28  1  0
 11 29  1  0
 14 30  1  0
 15 31  1  0
 17 32  1  0
 17 33  1  0
 17 34  1  0
M  CHG  1   4   1
M  END
>  <score>  (2) 
-7.069

$$$$
=
     RDKit          3D

 34 34  0  0  0  0  0  0  0  0999 V2000
    2.0400   67.9390   63.2460 C   0  0  0  0  0  0  0  0  0  0  0  0
   -1.2140   68.9160   64.8680 N   0  0  0  0  0  0  0  0  0  0  0  0
   -0.2540   68.8630   63.9090 C   0  0  0  0  0  0  0  0  0  0  0  0
    0.9430   68.2870   64.1800 N   0  0  0  0  0  4  0  0  0  0  0  0
   -0.5870   69.4140   62.7080 N   0  0  0  0  0  0  0  0  0  0  0  0
    0.2980   69.7130   61.5780 C   0  0  0  0  0  0  0  0  0  0  0  0
   -0.8790   67.9380   67.2450 N   0  0  0  0  0  0  0  0  0  0  0  0
   -1.0290   68.3460   66.1770 C   0  0  0  0  0  0  0  0  0  0  0  0
    2.9610   66.8730   63.8520 C   0  0  0  0  0  0  0  0  0  0  0  0
    4.6630   67.4900   64.1280 S   0  0  0  0  0  0  0  0  0  0  0  0
    4.3440   69.2540   64.4920 C   0  0  0  0  0  0  0  0  0  0  0  0
    4.0640   69.5190   65.9300 C   0  0  0  0  0  0  0  0  0  0  0  0
    2.7940   69.3250   66.4390 N   0  0  0  0  0  0  0  0  0  0  0  0
    2.8810   69.6200   67.7160 C   0  0  0  0  0  0  0  0  0  0  0  0
    4.1430   70.0110   68.0580 N   0  0  0  0  0  0  0  0  0  0  0  0
    4.9170   69.9560   66.9260 C   0  0  0  0  0  0  0  0  0  0  0  0
    6.3540   70.3150   66.9130 C   0  0  0  0  0  0  0  0  0  0  0  0
    1.6075   67.5516   62.3117 H   0  0  0  0  0  0  0  0  0  0  0  0
    2.6335   68.8442   63.0500 H   0  0  0  0  0  0  0  0  0  0  0  0
   -2.1071   69.3810   64.6509 H   0  0  0  0  0  0  0  0  0  0  0  0
    1.1133   68.0603   65.1702 H   0  0  0  0  0  0  0  0  0  0  0  0
   -1.5814   69.6490   62.5783 H   0  0  0  0  0  0  0  0  0  0  0  0
    1.2766   70.0436   61.9562 H   0  0  0  0  0  0  0  0  0  0  0  0
    0.4282   68.8090   60.9650 H   0  0  0  0  0  0  0  0  0  0  0  0
   -0.1468   70.5107   60.9650 H   0  0  0  0  0  0  0  0  0  0  0  0
    2.5416   66.5519   64.8169 H   0  0  0  0  0  0  0  0  0  0  0  0
    3.0202   66.0381   63.1382 H   0  0  0  0  0  0  0  0  0  0  0  0
    5.2286   69.8368   64.1957 H   0  0  0  0  0  0  0  0  0  0  0  0
    3.4463   69.5453   63.9270 H   0  0  0  0  0  0  0  0  0  0  0  0
    2.0402   69.5594   68.4227 H   0  0  0  0  0  0  0  0  0  0  0  0
    4.4578   70.2960   68.9964 H   0  0  0  0  0  0  0  0  0  0  0  0
    6.7185   70.4061   67.9468 H   0  0  0  0  0  0  0  0  0  0  0  0
    6.9230   69.5314   66.3913 H   0  0  0  0  0  0  0  0  0  0  0  0
    6.4876   71.2741   66.3913 H   0  0  0  0  0  0  0  0  0  0  0  0
  3  2  1  0
  4  3  2  0
  4  1  1  0
  5  3  1  0
  6  5  1  0
  8  7  3  0
  8  2  1  0
  9  1  1  0
 10  9  1  0
 11 10  1  0
 12 11  1  0
 13 12  1  0
 14 13  2  0
 15 14  1  0
 16 12  2  0
 16 15  1  0
 17 16  1  0
  1 18  1  0
  1 19  1  0
  2 20  1  0
  4 21  1  0
  5 22  1  0
  6 23  1  0
  6 24  1  0
  6 25  1  0
  9 26  1  0
  9 27  1  0
 11 28  1  0
 11 29  1  0
 14 30  1  0
 15 31  1  0
 17 32  1  0
 17 33  1  0
 17 34  1  0
M  CHG  1   4   1
M  END
>  <score>  (3) 
-7.006

$$$$
=
     RDKit          3D

 34 34  0  0  0  0  0  0  0  0999 V2000
    1.2710   67.1740   65.2340 C   0  0  0  0  0  0  0  0  0  0  0  0
   -0.6610   69.5920   63.0920 N   0  0  0  0  0  0  0  0  0  0  0  0
   -0.3920   68.7960   64.1590 C   0  0  0  0  0  0  0  0  0  0  0  0
    0.6780   67.9650   64.1300 N   0  0  0  0  0  4  0  0  0  0  0  0
   -1.2530   68.9040   65.2100 N   0  0  0  0  0  0  0  0  0  0  0  0
   -1.3610   68.0280   66.3790 C   0  0  0  0  0  0  0  0  0  0  0  0
    0.8080   69.6160   60.9570 N   0  0  0  0  0  0  0  0  0  0  0  0
    0.1740   69.6220   61.9210 C   0  0  0  0  0  0  0  0  0  0  0  0
    2.7850   67.4000   65.3210 C   0  0  0  0  0  0  0  0  0  0  0  0
    3.2720   69.0920   64.8160 S   0  0  0  0  0  0  0  0  0  0  0  0
    4.7630   69.3520   65.8430 C   0  0  0  0  0  0  0  0  0  0  0  0
    4.4610   69.8830   67.2000 C   0  0  0  0  0  0  0  0  0  0  0  0
    3.1730   69.8280   67.6990 N   0  0  0  0  0  0  0  0  0  0  0  0
    3.2410   70.3490   68.9030 C   0  0  0  0  0  0  0  0  0  0  0  0
    4.5100   70.7520   69.2050 N   0  0  0  0  0  0  0  0  0  0  0  0
    5.3070   70.4660   68.1250 C   0  0  0  0  0  0  0  0  0  0  0  0
    6.7560   70.7680   68.0900 C   0  0  0  0  0  0  0  0  0  0  0  0
    0.8069   67.4780   66.1838 H   0  0  0  0  0  0  0  0  0  0  0  0
    1.0868   66.1073   65.0388 H   0  0  0  0  0  0  0  0  0  0  0  0
   -1.4941   70.1969   63.1224 H   0  0  0  0  0  0  0  0  0  0  0  0
    1.1427   67.8702   63.2157 H   0  0  0  0  0  0  0  0  0  0  0  0
   -1.9076   69.6986   65.1784 H   0  0  0  0  0  0  0  0  0  0  0  0
   -1.2868   68.6302   67.2965 H   0  0  0  0  0  0  0  0  0  0  0  0
   -2.3301   67.5079   66.3592 H   0  0  0  0  0  0  0  0  0  0  0  0
   -0.5473   67.2881   66.3592 H   0  0  0  0  0  0  0  0  0  0  0  0
    3.1071   67.2355   66.3599 H   0  0  0  0  0  0  0  0  0  0  0  0
    3.2686   66.6931   64.6308 H   0  0  0  0  0  0  0  0  0  0  0  0
    5.2827   68.3888   65.9532 H   0  0  0  0  0  0  0  0  0  0  0  0
    5.3829   70.1029   65.3311 H   0  0  0  0  0  0  0  0  0  0  0  0
    2.3823   70.4482   69.5833 H   0  0  0  0  0  0  0  0  0  0  0  0
    4.8145   71.1917   70.0853 H   0  0  0  0  0  0  0  0  0  0  0  0
    7.1389   70.8478   69.1181 H   0  0  0  0  0  0  0  0  0  0  0  0
    7.2861   69.9610   67.5629 H   0  0  0  0  0  0  0  0  0  0  0  0
    6.9196   71.7195   67.5629 H   0  0  0  0  0  0  0  0  0  0  0  0
  3  2  1  0
  4  3  2  0
  4  1  1  0
  5  3  1  0
  6  5  1  0
  8  7  3  0
  8  2  1  0
  9  1  1  0
 10  9  1  0
 11 10  1  0
 12 11  1  0
 13 12  1  0
 14 13  2  0
 15 14  1  0
 16 12  2  0
 16 15  1  0
 17 16  1  0
  1 18  1  0
  1 19  1  0
  2 20  1  0
  4 21  1  0
  5 22  1  0
  6 23  1  0
  6 24  1  0
  6 25  1  0
  9 26  1  0
  9 27  1  0
 11 28  1  0
 11 29  1  0
 14 30  1  0
 15 31  1  0
 17 32  1  0
 17 33  1  0
 17 34  1  0
M  CHG  1   4   1
M  END
>  <score>  (4) 
-6.999

$$$$
=
     RDKit          3D

 34 34  0  0  0  0  0  0  0  0999 V2000
   -0.5270   68.7990   65.0550 C   0  0  0  0  0  0  0  0  0  0  0  0
   -1.3550   67.0410   68.2800 N   0  0  0  0  0  0  0  0  0  0  0  0
   -1.5770   67.7390   67.1360 C   0  0  0  0  0  0  0  0  0  0  0  0
   -0.5290   68.2040   66.4130 N   0  0  0  0  0  4  0  0  0  0  0  0
   -2.8850   67.9200   66.7980 N   0  0  0  0  0  0  0  0  0  0  0  0
   -3.4340   68.8110   65.7730 C   0  0  0  0  0  0  0  0  0  0  0  0
    1.0470   66.4820   69.0790 N   0  0  0  0  0  0  0  0  0  0  0  0
   -0.0300   66.7340   68.7520 C   0  0  0  0  0  0  0  0  0  0  0  0
    0.6490   68.2720   64.2250 C   0  0  0  0  0  0  0  0  0  0  0  0
    1.8690   67.3570   65.2390 S   0  0  0  0  0  0  0  0  0  0  0  0
    3.2530   68.5520   65.2910 C   0  0  0  0  0  0  0  0  0  0  0  0
    3.3650   69.2690   66.5910 C   0  0  0  0  0  0  0  0  0  0  0  0
    2.2680   69.3730   67.4260 N   0  0  0  0  0  0  0  0  0  0  0  0
    2.6930   70.0320   68.4800 C   0  0  0  0  0  0  0  0  0  0  0  0
    4.0100   70.3730   68.3640 N   0  0  0  0  0  0  0  0  0  0  0  0
    4.4590   69.8950   67.1580 C   0  0  0  0  0  0  0  0  0  0  0  0
    5.8500   70.0800   66.6860 C   0  0  0  0  0  0  0  0  0  0  0  0
   -1.4687   68.5414   64.5482 H   0  0  0  0  0  0  0  0  0  0  0  0
   -0.4264   69.8902   65.1511 H   0  0  0  0  0  0  0  0  0  0  0  0
   -2.1644   66.7196   68.8300 H   0  0  0  0  0  0  0  0  0  0  0  0
    0.3918   68.1345   66.8694 H   0  0  0  0  0  0  0  0  0  0  0  0
   -3.5705   67.3627   67.3275 H   0  0  0  0  0  0  0  0  0  0  0  0
   -3.9521   69.6518   66.2574 H   0  0  0  0  0  0  0  0  0  0  0  0
   -2.6164   69.1963   65.1460 H   0  0  0  0  0  0  0  0  0  0  0  0
   -4.1457   68.2540   65.1460 H   0  0  0  0  0  0  0  0  0  0  0  0
    0.2586   67.5973   63.4488 H   0  0  0  0  0  0  0  0  0  0  0  0
    1.1632   69.1395   63.7856 H   0  0  0  0  0  0  0  0  0  0  0  0
    4.1914   68.0071   65.1111 H   0  0  0  0  0  0  0  0  0  0  0  0
    3.0580   69.3094   64.5175 H   0  0  0  0  0  0  0  0  0  0  0  0
    2.0652   70.2787   69.3489 H   0  0  0  0  0  0  0  0  0  0  0  0
    4.5662   70.8947   69.0564 H   0  0  0  0  0  0  0  0  0  0  0  0
    6.5222   70.1694   67.5521 H   0  0  0  0  0  0  0  0  0  0  0  0
    6.1490   69.2137   66.0776 H   0  0  0  0  0  0  0  0  0  0  0  0
    5.9122   70.9943   66.0776 H   0  0  0  0  0  0  0  0  0  0  0  0
  3  2  1  0
  4  3  2  0
  4  1  1  0
  5  3  1  0
  6  5  1  0
  8  7  3  0
  8  2  1  0
  9  1  1  0
 10  9  1  0
 11 10  1  0
 12 11  1  0
 13 12  1  0
 14 13  2  0
 15 14  1  0
 16 12  2  0
 16 15  1  0
 17 16  1  0
  1 18  1  0
  1 19  1  0
  2 20  1  0
  4 21  1  0
  5 22  1  0
  6 23  1  0
  6 24  1  0
  6 25  1  0
  9 26  1  0
  9 27  1  0
 11 28  1  0
 11 29  1  0
 14 30  1  0
 15 31  1  0
 17 32  1  0
 17 33  1  0
 17 34  1  0
M  CHG  1   4   1
M  END
>  <score>  (5) 
-6.826

$$$$
=
     RDKit          3D

 34 34  0  0  0  0  0  0  0  0999 V2000
    2.9580   67.4290   64.3980 C   0  0  0  0  0  0  0  0  0  0  0  0
    1.9060   69.0550   61.1690 N   0  0  0  0  0  0  0  0  0  0  0  0
    2.7200   68.4090   62.0440 C   0  0  0  0  0  0  0  0  0  0  0  0
    2.3400   68.2590   63.3370 N   0  0  0  0  0  4  0  0  0  0  0  0
    3.8940   67.9470   61.5300 N   0  0  0  0  0  0  0  0  0  0  0  0
    5.0550   67.4300   62.2600 C   0  0  0  0  0  0  0  0  0  0  0  0
   -0.4300   69.9310   61.8710 N   0  0  0  0  0  0  0  0  0  0  0  0
    0.6160   69.5680   61.5490 C   0  0  0  0  0  0  0  0  0  0  0  0
    1.9000   66.9210   65.3850 C   0  0  0  0  0  0  0  0  0  0  0  0
    1.7460   67.9940   66.8620 S   0  0  0  0  0  0  0  0  0  0  0  0
    2.8390   69.3860   66.4010 C   0  0  0  0  0  0  0  0  0  0  0  0
    3.6250   69.9230   67.5460 C   0  0  0  0  0  0  0  0  0  0  0  0
    2.9960   70.2440   68.7340 N   0  0  0  0  0  0  0  0  0  0  0  0
    3.9510   70.6620   69.5330 C   0  0  0  0  0  0  0  0  0  0  0  0
    5.1680   70.6420   68.9170 N   0  0  0  0  0  0  0  0  0  0  0  0
    4.9810   70.1750   67.6400 C   0  0  0  0  0  0  0  0  0  0  0  0
    6.0880   70.0180   66.6690 C   0  0  0  0  0  0  0  0  0  0  0  0
    3.4600   66.5673   63.9339 H   0  0  0  0  0  0  0  0  0  0  0  0
    3.6827   68.0468   64.9486 H   0  0  0  0  0  0  0  0  0  0  0  0
    2.2238   69.1824   60.1976 H   0  0  0  0  0  0  0  0  0  0  0  0
    1.5077   68.7954   63.6207 H   0  0  0  0  0  0  0  0  0  0  0  0
    3.9757   67.9630   60.5034 H   0  0  0  0  0  0  0  0  0  0  0  0
    4.8736   67.5108   63.3419 H   0  0  0  0  0  0  0  0  0  0  0  0
    5.2160   66.3751   61.9930 H   0  0  0  0  0  0  0  0  0  0  0  0
    5.9468   68.0161   61.9930 H   0  0  0  0  0  0  0  0  0  0  0  0
    0.9275   66.8850   64.8722 H   0  0  0  0  0  0  0  0  0  0  0  0
    2.2137   65.9239   65.7275 H   0  0  0  0  0  0  0  0  0  0  0  0
    3.5407   69.0378   65.6288 H   0  0  0  0  0  0  0  0  0  0  0  0
    2.1940   70.2001   66.0388 H   0  0  0  0  0  0  0  0  0  0  0  0
    3.7894   70.9881   70.5711 H   0  0  0  0  0  0  0  0  0  0  0  0
    6.0655   70.9262   69.3349 H   0  0  0  0  0  0  0  0  0  0  0  0
    7.0354   69.8836   67.2116 H   0  0  0  0  0  0  0  0  0  0  0  0
    5.8993   69.1376   66.0371 H   0  0  0  0  0  0  0  0  0  0  0  0
    6.1516   70.9161   66.0371 H   0  0  0  0  0  0  0  0  0  0  0  0
  3  2  1  0
  4  3  2  0
  4  1  1  0
  5  3  1  0
  6  5  1  0
  8  7  3  0
  8  2  1  0
  9  1  1  0
 10  9  1  0
 11 10  1  0
 12 11  1  0
 13 12  1  0
 14 13  2  0
 15 14  1  0
 16 12  2  0
 16 15  1  0
 17 16  1  0
  1 18  1  0
  1 19  1  0
  2 20  1  0
  4 21  1  0
  5 22  1  0
  6 23  1  0
  6 24  1  0
  6 25  1  0
  9 26  1  0
  9 27  1  0
 11 28  1  0
 11 29  1  0
 14 30  1  0
 15 31  1  0
 17 32  1  0
 17 33  1  0
 17 34  1  0
M  CHG  1   4   1
M  END
>  <score>  (6) 
-6.64

$$$$
=
     RDKit          3D

 34 34  0  0  0  0  0  0  0  0999 V2000
    1.2860   69.3620   67.1630 C   0  0  0  0  0  0  0  0  0  0  0  0
   -0.7110   66.4620   68.4970 N   0  0  0  0  0  0  0  0  0  0  0  0
   -0.3830   67.4870   67.6680 C   0  0  0  0  0  0  0  0  0  0  0  0
    0.6330   68.3230   67.9940 N   0  0  0  0  0  4  0  0  0  0  0  0
   -1.1310   67.5930   66.5340 N   0  0  0  0  0  0  0  0  0  0  0  0
   -1.1720   68.7070   65.5830 C   0  0  0  0  0  0  0  0  0  0  0  0
    0.5720   65.9290   70.6850 N   0  0  0  0  0  0  0  0  0  0  0  0
    0.0080   66.1950   69.7150 C   0  0  0  0  0  0  0  0  0  0  0  0
    2.8110   69.1950   67.1730 C   0  0  0  0  0  0  0  0  0  0  0  0
    3.4940   68.8950   65.5000 S   0  0  0  0  0  0  0  0  0  0  0  0
    2.4050   67.5490   64.9100 C   0  0  0  0  0  0  0  0  0  0  0  0
    3.1510   66.3610   64.4120 C   0  0  0  0  0  0  0  0  0  0  0  0
    3.0020   65.1340   65.0300 N   0  0  0  0  0  0  0  0  0  0  0  0
    3.7630   64.3060   64.3520 C   0  0  0  0  0  0  0  0  0  0  0  0
    4.4100   64.9390   63.3310 N   0  0  0  0  0  0  0  0  0  0  0  0
    4.0350   66.2590   63.3540 C   0  0  0  0  0  0  0  0  0  0  0  0
    4.5430   67.2580   62.3860 C   0  0  0  0  0  0  0  0  0  0  0  0
    0.9215   69.2770   66.1286 H   0  0  0  0  0  0  0  0  0  0  0  0
    1.0387   70.3500   67.5785 H   0  0  0  0  0  0  0  0  0  0  0  0
   -1.5030   65.8538   68.2448 H   0  0  0  0  0  0  0  0  0  0  0  0
    1.0018   68.2223   68.9504 H   0  0  0  0  0  0  0  0  0  0  0  0
   -1.7422   66.7923   66.3191 H   0  0  0  0  0  0  0  0  0  0  0  0
   -1.2070   69.6584   66.1340 H   0  0  0  0  0  0  0  0  0  0  0  0
   -0.2723   68.6825   64.9505 H   0  0  0  0  0  0  0  0  0  0  0  0
   -2.0674   68.6164   64.9505 H   0  0  0  0  0  0  0  0  0  0  0  0
    3.2637   70.1113   67.5799 H   0  0  0  0  0  0  0  0  0  0  0  0
    3.0474   68.3177   67.7931 H   0  0  0  0  0  0  0  0  0  0  0  0
    1.7600   67.2319   65.7427 H   0  0  0  0  0  0  0  0  0  0  0  0
    1.8256   67.9470   64.0639 H   0  0  0  0  0  0  0  0  0  0  0  0
    3.8661   63.2346   64.5791 H   0  0  0  0  0  0  0  0  0  0  0  0
    5.0625   64.5043   62.6631 H   0  0  0  0  0  0  0  0  0  0  0  0
    4.9760   68.1096   62.9312 H   0  0  0  0  0  0  0  0  0  0  0  0
    5.3157   66.7961   61.7539 H   0  0  0  0  0  0  0  0  0  0  0  0
    3.7146   67.6103   61.7539 H   0  0  0  0  0  0  0  0  0  0  0  0
  3  2  1  0
  4  3  2  0
  4  1  1  0
  5  3  1  0
  6  5  1  0
  8  7  3  0
  8  2  1  0
  9  1  1  0
 10  9  1  0
 11 10  1  0
 12 11  1  0
 13 12  1  0
 14 13  2  0
 15 14  1  0
 16 12  2  0
 16 15  1  0
 17 16  1  0
  1 18  1  0
  1 19  1  0
  2 20  1  0
  4 21  1  0
  5 22  1  0
  6 23  1  0
  6 24  1  0
  6 25  1  0
  9 26  1  0
  9 27  1  0
 11 28  1  0
 11 29  1  0
 14 30  1  0
 15 31  1  0
 17 32  1  0
 17 33  1  0
 17 34  1  0
M  CHG  1   4   1
M  END
>  <score>  (7) 
-6.614

$$$$
=
     RDKit          3D

 34 34  0  0  0  0  0  0  0  0999 V2000
    4.9710   69.8350   65.8700 C   0  0  0  0  0  0  0  0  0  0  0  0
    2.1850   69.6520   68.3960 N   0  0  0  0  0  0  0  0  0  0  0  0
    3.4290   69.9040   67.9130 C   0  0  0  0  0  0  0  0  0  0  0  0
    3.7670   69.4970   66.6650 N   0  0  0  0  0  4  0  0  0  0  0  0
    4.2670   70.5720   68.7560 N   0  0  0  0  0  0  0  0  0  0  0  0
    5.7110   70.7770   68.6150 C   0  0  0  0  0  0  0  0  0  0  0  0
    0.3970   68.4590   66.9470 N   0  0  0  0  0  0  0  0  0  0  0  0
    1.1740   68.9890   67.6140 C   0  0  0  0  0  0  0  0  0  0  0  0
    5.3680   68.6740   64.9510 C   0  0  0  0  0  0  0  0  0  0  0  0
    5.2550   69.1130   63.1760 S   0  0  0  0  0  0  0  0  0  0  0  0
    4.1790   67.7740   62.5490 C   0  0  0  0  0  0  0  0  0  0  0  0
    2.7690   67.8830   63.0130 C   0  0  0  0  0  0  0  0  0  0  0  0
    1.8860   68.7280   62.3660 N   0  0  0  0  0  0  0  0  0  0  0  0
    0.7400   68.5830   62.9920 C   0  0  0  0  0  0  0  0  0  0  0  0
    0.8400   67.6940   64.0230 N   0  0  0  0  0  0  0  0  0  0  0  0
    2.1330   67.2360   64.0560 C   0  0  0  0  0  0  0  0  0  0  0  0
    2.6150   66.2520   65.0520 C   0  0  0  0  0  0  0  0  0  0  0  0
    4.7589   70.7229   65.2563 H   0  0  0  0  0  0  0  0  0  0  0  0
    5.8027   70.0336   66.5619 H   0  0  0  0  0  0  0  0  0  0  0  0
    1.9565   69.9458   69.3564 H   0  0  0  0  0  0  0  0  0  0  0  0
    3.0945   68.8660   66.2062 H   0  0  0  0  0  0  0  0  0  0  0  0
    3.8318   70.9827   69.5944 H   0  0  0  0  0  0  0  0  0  0  0  0
    6.1711   70.8423   69.6120 H   0  0  0  0  0  0  0  0  0  0  0  0
    6.1492   69.9321   68.0636 H   0  0  0  0  0  0  0  0  0  0  0  0
    5.8967   71.7105   68.0636 H   0  0  0  0  0  0  0  0  0  0  0  0
    6.4046   68.3838   65.1772 H   0  0  0  0  0  0  0  0  0  0  0  0
    4.6666   67.8470   65.1358 H   0  0  0  0  0  0  0  0  0  0  0  0
    4.1877   67.8056   61.4495 H   0  0  0  0  0  0  0  0  0  0  0  0
    4.5776   66.8266   62.9408 H   0  0  0  0  0  0  0  0  0  0  0  0
   -0.1850   69.1122   62.7192 H   0  0  0  0  0  0  0  0  0  0  0  0
    0.0810   67.4167   64.6617 H   0  0  0  0  0  0  0  0  0  0  0  0
    2.4275   66.6348   66.0661 H   0  0  0  0  0  0  0  0  0  0  0  0
    2.0812   65.3000   64.9149 H   0  0  0  0  0  0  0  0  0  0  0  0
    3.6944   66.0902   64.9149 H   0  0  0  0  0  0  0  0  0  0  0  0
  3  2  1  0
  4  3  2  0
  4  1  1  0
  5  3  1  0
  6  5  1  0
  8  7  3  0
  8  2  1  0
  9  1  1  0
 10  9  1  0
 11 10  1  0
 12 11  1  0
 13 12  1  0
 14 13  2  0
 15 14  1  0
 16 12  2  0
 16 15  1  0
 17 16  1  0
  1 18  1  0
  1 19  1  0
  2 20  1  0
  4 21  1  0
  5 22  1  0
  6 23  1  0
  6 24  1  0
  6 25  1  0
  9 26  1  0
  9 27  1  0
 11 28  1  0
 11 29  1  0
 14 30  1  0
 15 31  1  0
 17 32  1  0
 17 33  1  0
 17 34  1  0
M  CHG  1   4   1
M  END
>  <score>  (8) 
-6.595

$$$$
=
     RDKit          3D

 34 34  0  0  0  0  0  0  0  0999 V2000
    1.4400   67.7870   66.3190 C   0  0  0  0  0  0  0  0  0  0  0  0
   -0.6350   66.3050   69.0880 N   0  0  0  0  0  0  0  0  0  0  0  0
   -0.3570   67.0470   67.9850 C   0  0  0  0  0  0  0  0  0  0  0  0
    0.9270   67.2050   67.5810 N   0  0  0  0  0  4  0  0  0  0  0  0
   -1.4340   67.5910   67.3510 N   0  0  0  0  0  0  0  0  0  0  0  0
   -1.4390   68.6090   66.2970 C   0  0  0  0  0  0  0  0  0  0  0  0
    1.2100   65.0590   70.4160 N   0  0  0  0  0  0  0  0  0  0  0  0
    0.3890   65.6350   69.8450 C   0  0  0  0  0  0  0  0  0  0  0  0
    2.3390   68.9990   66.5960 C   0  0  0  0  0  0  0  0  0  0  0  0
    3.7400   69.1170   65.4220 S   0  0  0  0  0  0  0  0  0  0  0  0
    3.3230   67.7840   64.2410 C   0  0  0  0  0  0  0  0  0  0  0  0
    2.9830   68.2860   62.8810 C   0  0  0  0  0  0  0  0  0  0  0  0
    3.9300   68.2680   61.8750 N   0  0  0  0  0  0  0  0  0  0  0  0
    3.3220   68.7480   60.8140 C   0  0  0  0  0  0  0  0  0  0  0  0
    2.0290   69.0900   61.0870 N   0  0  0  0  0  0  0  0  0  0  0  0
    1.7920   68.8050   62.4080 C   0  0  0  0  0  0  0  0  0  0  0  0
    0.4870   69.0490   63.0640 C   0  0  0  0  0  0  0  0  0  0  0  0
    2.0215   67.0236   65.7814 H   0  0  0  0  0  0  0  0  0  0  0  0
    0.5837   68.1179   65.7130 H   0  0  0  0  0  0  0  0  0  0  0  0
   -1.6147   66.2187   69.3939 H   0  0  0  0  0  0  0  0  0  0  0  0
    1.6446   66.8752   68.2422 H   0  0  0  0  0  0  0  0  0  0  0  0
   -2.3569   67.2442   67.6491 H   0  0  0  0  0  0  0  0  0  0  0  0
   -1.4439   69.6097   66.7538 H   0  0  0  0  0  0  0  0  0  0  0  0
   -0.5403   68.4952   65.6730 H   0  0  0  0  0  0  0  0  0  0  0  0
   -2.3366   68.4863   65.6730 H   0  0  0  0  0  0  0  0  0  0  0  0
    1.7330   69.9134   66.5149 H   0  0  0  0  0  0  0  0  0  0  0  0
    2.7586   68.8797   67.6058 H   0  0  0  0  0  0  0  0  0  0  0  0
    4.1872   67.1086   64.1577 H   0  0  0  0  0  0  0  0  0  0  0  0
    2.4315   67.2710   64.6308 H   0  0  0  0  0  0  0  0  0  0  0  0
    3.7961   68.8604   59.8278 H   0  0  0  0  0  0  0  0  0  0  0  0
    1.3528   69.4901   60.4210 H   0  0  0  0  0  0  0  0  0  0  0  0
    0.6155   69.0250   64.1562 H   0  0  0  0  0  0  0  0  0  0  0  0
    0.1031   70.0345   62.7615 H   0  0  0  0  0  0  0  0  0  0  0  0
   -0.2270   68.2688   62.7615 H   0  0  0  0  0  0  0  0  0  0  0  0
  3  2  1  0
  4  3  2  0
  4  1  1  0
  5  3  1  0
  6  5  1  0
  8  7  3  0
  8  2  1  0
  9  1  1  0
 10  9  1  0
 11 10  1  0
 12 11  1  0
 13 12  1  0
 14 13  2  0
 15 14  1  0
 16 12  2  0
 16 15  1  0
 17 16  1  0
  1 18  1  0
  1 19  1  0
  2 20  1  0
  4 21  1  0
  5 22  1  0
  6 23  1  0
  6 24  1  0
  6 25  1  0
  9 26  1  0
  9 27  1  0
 11 28  1  0
 11 29  1  0
 14 30  1  0
 15 31  1  0
 17 32  1  0
 17 33  1  0
 17 34  1  0
M  CHG  1   4   1
M  END
>  <score>  (9) 
-6.483

$$$$
