=
     RDKit          3D

 57 60  0  0  0  0  0  0  0  0999 V2000
   -4.8070   57.8760   75.8470 O   0  0  0  0  0  0  0  0  0  0  0  0
   -3.8980   58.6290   75.5060 C   0  0  0  0  0  0  0  0  0  0  0  0
   -4.1690   59.9820   74.9090 C   0  0  0  0  0  0  0  0  0  0  0  0
   -3.0030   60.4430   74.0480 C   0  0  0  0  0  0  0  0  0  0  0  0
   -1.6310   60.3940   74.7780 C   0  0  1  0  0  0  0  0  0  0  0  0
   -1.4430   59.0090   75.4410 C   0  0  0  0  0  0  0  0  0  0  0  0
   -2.4940   58.2200   75.7420 C   0  0  0  0  0  0  0  0  0  0  0  0
   -0.0610   58.5890   75.7000 C   0  0  0  0  0  0  0  0  0  0  0  0
    1.0080   59.2560   75.2320 C   0  0  0  0  0  0  0  0  0  0  0  0
    0.9200   60.4890   74.3770 C   0  0  2  0  0  0  0  0  0  0  0  0
   -0.4870   60.6050   73.7230 C   0  0  2  0  0  0  0  0  0  0  0  0
   -0.5950   61.8870   72.8630 C   0  0  0  0  0  0  0  0  0  0  0  0
    0.5360   61.9930   71.8210 C   0  0  0  0  0  0  0  0  0  0  0  0
    1.9340   61.8640   72.4570 C   0  0  1  0  0  0  0  0  0  0  0  0
    1.9670   60.5320   73.2550 C   0  0  1  0  0  0  0  0  0  0  0  0
    3.4410   60.3780   73.6100 C   0  0  0  0  0  0  0  0  0  0  0  0
    4.2000   60.9770   72.4060 C   0  0  0  0  0  0  0  0  0  0  0  0
    3.1340   61.6200   71.4710 C   0  0  2  0  0  0  0  0  0  0  0  0
    2.2030   63.1150   73.3410 C   0  0  0  0  0  0  0  0  0  0  0  0
    0.2570   57.2070   76.7090 Cl  0  0  0  0  0  0  0  0  0  0  0  0
   -1.6080   61.4820   75.8780 C   0  0  0  0  0  0  0  0  0  0  0  0
    3.5180   62.9270   70.7320 C   0  0  0  0  0  0  0  0  0  0  0  0
    2.6650   63.5820   70.1210 O   0  0  0  0  0  0  0  0  0  0  0  0
    4.9460   63.4050   70.7740 C   0  0  0  0  0  0  0  0  0  0  0  0
    2.7010   60.6380   70.4910 O   0  0  0  0  0  0  0  0  0  0  0  0
    3.6430   59.8070   69.9720 C   0  0  0  0  0  0  0  0  0  0  0  0
    4.5370   60.1430   69.2080 O   0  0  0  0  0  0  0  0  0  0  0  0
    3.4430   58.4160   70.4890 C   0  0  0  0  0  0  0  0  0  0  0  0
   -5.0747   59.9257   74.2873 H   0  0  0  0  0  0  0  0  0  0  0  0
   -4.3066   60.7042   75.7272 H   0  0  0  0  0  0  0  0  0  0  0  0
   -2.9482   59.7945   73.1612 H   0  0  0  0  0  0  0  0  0  0  0  0
   -3.1915   61.4948   73.7870 H   0  0  0  0  0  0  0  0  0  0  0  0
   -2.3006   57.2304   76.1816 H   0  0  0  0  0  0  0  0  0  0  0  0
    2.0076   58.8765   75.4903 H   0  0  0  0  0  0  0  0  0  0  0  0
    1.1119   61.3301   75.0594 H   0  0  0  0  0  0  0  0  0  0  0  0
   -0.6282   59.7803   73.0089 H   0  0  0  0  0  0  0  0  0  0  0  0
   -1.5607   61.8788   72.3364 H   0  0  0  0  0  0  0  0  0  0  0  0
   -0.5111   62.7515   73.5380 H   0  0  0  0  0  0  0  0  0  0  0  0
    0.4097   61.1904   71.0795 H   0  0  0  0  0  0  0  0  0  0  0  0
    0.4701   62.9868   71.3540 H   0  0  0  0  0  0  0  0  0  0  0  0
    1.6429   59.6376   72.7026 H   0  0  0  0  0  0  0  0  0  0  0  0
    3.6777   60.9304   74.5313 H   0  0  0  0  0  0  0  0  0  0  0  0
    3.7166   59.3293   73.7953 H   0  0  0  0  0  0  0  0  0  0  0  0
    4.9113   61.7421   72.7504 H   0  0  0  0  0  0  0  0  0  0  0  0
    4.7706   60.2005   71.8755 H   0  0  0  0  0  0  0  0  0  0  0  0
    2.1425   62.8336   74.4027 H   0  0  0  0  0  0  0  0  0  0  0  0
    3.2065   63.5093   73.1228 H   0  0  0  0  0  0  0  0  0  0  0  0
    1.4503   63.8869   73.1228 H   0  0  0  0  0  0  0  0  0  0  0  0
   -1.6181   61.0027   76.8680 H   0  0  0  0  0  0  0  0  0  0  0  0
   -0.6968   62.0894   75.7740 H   0  0  0  0  0  0  0  0  0  0  0  0
   -2.4927   62.1274   75.7740 H   0  0  0  0  0  0  0  0  0  0  0  0
    5.2661   63.5122   71.8209 H   0  0  0  0  0  0  0  0  0  0  0  0
    5.5924   62.6742   70.2659 H   0  0  0  0  0  0  0  0  0  0  0  0
    5.0222   64.3776   70.2659 H   0  0  0  0  0  0  0  0  0  0  0  0
    3.4450   58.4298   71.5889 H   0  0  0  0  0  0  0  0  0  0  0  0
    2.4795   58.0260   70.1289 H   0  0  0  0  0  0  0  0  0  0  0  0
    4.2575   57.7703   70.1289 H   0  0  0  0  0  0  0  0  0  0  0  0
  2  1  2  0
  3  2  1  0
  4  3  1  0
  5  4  1  0
  6  5  1  0
  7  6  2  0
  7  2  1  0
  8  6  1  0
  9  8  2  0
 10  9  1  0
 11 10  1  0
 11  5  1  0
 12 11  1  0
 13 12  1  0
 14 13  1  0
 15 14  1  0
 15 10  1  0
 16 15  1  0
 17 16  1  0
 18 17  1  0
 18 14  1  0
 14 19  1  1
 20  8  1  0
  5 21  1  1
 22 18  1  0
 23 22  2  0
 24 22  1  0
 18 25  1  6
 26 25  1  0
 27 26  2  0
 28 26  1  0
  3 29  1  0
  3 30  1  0
  4 31  1  0
  4 32  1  0
  7 33  1  0
  9 34  1  0
 10 35  1  1
 11 36  1  6
 12 37  1  0
 12 38  1  0
 13 39  1  0
 13 40  1  0
 15 41  1  6
 16 42  1  0
 16 43  1  0
 17 44  1  0
 17 45  1  0
 19 46  1  0
 19 47  1  0
 19 48  1  0
 21 49  1  0
 21 50  1  0
 21 51  1  0
 24 52  1  0
 24 53  1  0
 24 54  1  0
 28 55  1  0
 28 56  1  0
 28 57  1  0
M  END
>  <score>  (1) 
-8.245

$$$$
=
     RDKit          3D

 57 60  0  0  0  0  0  0  0  0999 V2000
    2.8870   63.4270   69.1540 O   0  0  0  0  0  0  0  0  0  0  0  0
    2.9210   62.4800   69.9350 C   0  0  0  0  0  0  0  0  0  0  0  0
    3.5460   61.1650   69.5610 C   0  0  0  0  0  0  0  0  0  0  0  0
    2.9600   60.0270   70.3830 C   0  0  0  0  0  0  0  0  0  0  0  0
    3.0050   60.2770   71.9170 C   0  0  1  0  0  0  0  0  0  0  0  0
    2.4260   61.6760   72.2340 C   0  0  0  0  0  0  0  0  0  0  0  0
    2.3830   62.6510   71.3040 C   0  0  0  0  0  0  0  0  0  0  0  0
    1.9010   61.8750   73.5900 C   0  0  0  0  0  0  0  0  0  0  0  0
    1.7450   60.8720   74.4700 C   0  0  0  0  0  0  0  0  0  0  0  0
    2.0640   59.4350   74.1710 C   0  0  2  0  0  0  0  0  0  0  0  0
    2.1240   59.1940   72.6340 C   0  0  2  0  0  0  0  0  0  0  0  0
    2.4800   57.7210   72.3180 C   0  0  0  0  0  0  0  0  0  0  0  0
    1.5380   56.7240   73.0200 C   0  0  0  0  0  0  0  0  0  0  0  0
    1.4590   56.9650   74.5410 C   0  0  1  0  0  0  0  0  0  0  0  0
    1.0500   58.4450   74.7630 C   0  0  1  0  0  0  0  0  0  0  0  0
    0.7460   58.5000   76.2560 C   0  0  0  0  0  0  0  0  0  0  0  0
    0.1480   57.1160   76.5860 C   0  0  0  0  0  0  0  0  0  0  0  0
    0.2910   56.2410   75.3060 C   0  0  2  0  0  0  0  0  0  0  0  0
    2.8300   56.6040   75.1800 C   0  0  0  0  0  0  0  0  0  0  0  0
    1.5130   63.4780   74.1480 Cl  0  0  0  0  0  0  0  0  0  0  0  0
    4.4780   60.2270   72.3900 C   0  0  0  0  0  0  0  0  0  0  0  0
    0.5990   54.7340   75.4930 C   0  0  0  0  0  0  0  0  0  0  0  0
    0.9160   54.2880   76.6010 O   0  0  0  0  0  0  0  0  0  0  0  0
    0.4960   53.8080   74.3090 C   0  0  0  0  0  0  0  0  0  0  0  0
   -0.9100   56.3770   74.4980 O   0  0  0  0  0  0  0  0  0  0  0  0
   -2.1100   56.2830   75.1290 C   0  0  0  0  0  0  0  0  0  0  0  0
   -2.6150   55.2460   75.5330 O   0  0  0  0  0  0  0  0  0  0  0  0
   -2.7180   57.6420   75.2800 C   0  0  0  0  0  0  0  0  0  0  0  0
    3.3614   60.9699   68.4943 H   0  0  0  0  0  0  0  0  0  0  0  0
    4.6259   61.2215   69.7623 H   0  0  0  0  0  0  0  0  0  0  0  0
    1.9105   59.8874   70.0844 H   0  0  0  0  0  0  0  0  0  0  0  0
    3.5747   59.1367   70.1840 H   0  0  0  0  0  0  0  0  0  0  0  0
    1.9284   63.6157   71.5739 H   0  0  0  0  0  0  0  0  0  0  0  0
    1.3601   61.1181   75.4707 H   0  0  0  0  0  0  0  0  0  0  0  0
    3.0406   59.2508   74.6425 H   0  0  0  0  0  0  0  0  0  0  0  0
    1.1231   59.3359   72.2003 H   0  0  0  0  0  0  0  0  0  0  0  0
    2.4109   57.5665   71.2311 H   0  0  0  0  0  0  0  0  0  0  0  0
    3.4992   57.5361   72.6882 H   0  0  0  0  0  0  0  0  0  0  0  0
    0.5299   56.8288   72.5924 H   0  0  0  0  0  0  0  0  0  0  0  0
    1.9392   55.7123   72.8600 H   0  0  0  0  0  0  0  0  0  0  0  0
    0.1605   58.7805   74.2096 H   0  0  0  0  0  0  0  0  0  0  0  0
    1.6665   58.6723   76.8331 H   0  0  0  0  0  0  0  0  0  0  0  0
    0.0597   59.3211   76.5107 H   0  0  0  0  0  0  0  0  0  0  0  0
    0.6973   56.6565   77.4209 H   0  0  0  0  0  0  0  0  0  0  0  0
   -0.9070   57.2054   76.8844 H   0  0  0  0  0  0  0  0  0  0  0  0
    2.7412   56.6274   76.2762 H   0  0  0  0  0  0  0  0  0  0  0  0
    3.1306   55.5961   74.8579 H   0  0  0  0  0  0  0  0  0  0  0  0
    3.5880   57.3332   74.8579 H   0  0  0  0  0  0  0  0  0  0  0  0
    4.5102   60.2259   73.4895 H   0  0  0  0  0  0  0  0  0  0  0  0
    4.9548   59.3122   72.0083 H   0  0  0  0  0  0  0  0  0  0  0  0
    5.0158   61.1074   72.0083 H   0  0  0  0  0  0  0  0  0  0  0  0
    0.3808   52.7726   74.6622 H   0  0  0  0  0  0  0  0  0  0  0  0
   -0.3767   54.0869   73.7002 H   0  0  0  0  0  0  0  0  0  0  0  0
    1.4086   53.8884   73.7002 H   0  0  0  0  0  0  0  0  0  0  0  0
   -2.8242   57.8795   76.3488 H   0  0  0  0  0  0  0  0  0  0  0  0
   -2.0685   58.3895   74.8011 H   0  0  0  0  0  0  0  0  0  0  0  0
   -3.7082   57.6560   74.8011 H   0  0  0  0  0  0  0  0  0  0  0  0
  2  1  2  0
  3  2  1  0
  4  3  1  0
  5  4  1  0
  6  5  1  0
  7  6  2  0
  7  2  1  0
  8  6  1  0
  9  8  2  0
 10  9  1  0
 11 10  1  0
 11  5  1  0
 12 11  1  0
 13 12  1  0
 14 13  1  0
 15 14  1  0
 15 10  1  0
 16 15  1  0
 17 16  1  0
 18 17  1  0
 18 14  1  0
 14 19  1  1
 20  8  1  0
  5 21  1  1
 22 18  1  0
 23 22  2  0
 24 22  1  0
 18 25  1  6
 26 25  1  0
 27 26  2  0
 28 26  1  0
  3 29  1  0
  3 30  1  0
  4 31  1  0
  4 32  1  0
  7 33  1  0
  9 34  1  0
 10 35  1  1
 11 36  1  6
 12 37  1  0
 12 38  1  0
 13 39  1  0
 13 40  1  0
 15 41  1  6
 16 42  1  0
 16 43  1  0
 17 44  1  0
 17 45  1  0
 19 46  1  0
 19 47  1  0
 19 48  1  0
 21 49  1  0
 21 50  1  0
 21 51  1  0
 24 52  1  0
 24 53  1  0
 24 54  1  0
 28 55  1  0
 28 56  1  0
 28 57  1  0
M  END
>  <score>  (2) 
-7.775

$$$$
=
     RDKit          3D

 57 60  0  0  0  0  0  0  0  0999 V2000
    1.5600   67.2590   69.7320 O   0  0  0  0  0  0  0  0  0  0  0  0
    1.2550   66.1900   70.2540 C   0  0  0  0  0  0  0  0  0  0  0  0
    0.0240   66.0440   71.1060 C   0  0  0  0  0  0  0  0  0  0  0  0
    0.1720   64.8910   72.0870 C   0  0  0  0  0  0  0  0  0  0  0  0
    0.5760   63.5480   71.4160 C   0  0  1  0  0  0  0  0  0  0  0  0
    1.7940   63.7750   70.4890 C   0  0  0  0  0  0  0  0  0  0  0  0
    2.0880   64.9940   69.9930 C   0  0  0  0  0  0  0  0  0  0  0  0
    2.6270   62.6010   70.2030 C   0  0  0  0  0  0  0  0  0  0  0  0
    2.4800   61.4260   70.8380 C   0  0  0  0  0  0  0  0  0  0  0  0
    1.4710   61.1780   71.9240 C   0  0  2  0  0  0  0  0  0  0  0  0
    0.9800   62.5230   72.5340 C   0  0  2  0  0  0  0  0  0  0  0  0
   -0.0810   62.2770   73.6340 C   0  0  0  0  0  0  0  0  0  0  0  0
    0.4120   61.2990   74.7190 C   0  0  0  0  0  0  0  0  0  0  0  0
    0.9160   59.9690   74.1230 C   0  0  1  0  0  0  0  0  0  0  0  0
    2.0060   60.3080   73.0710 C   0  0  1  0  0  0  0  0  0  0  0  0
    2.6100   58.9470   72.7480 C   0  0  0  0  0  0  0  0  0  0  0  0
    2.5480   58.1640   74.0780 C   0  0  0  0  0  0  0  0  0  0  0  0
    1.7440   59.0400   75.0830 C   0  0  2  0  0  0  0  0  0  0  0  0
   -0.2930   59.1940   73.5260 C   0  0  0  0  0  0  0  0  0  0  0  0
    3.8270   62.6690   68.9440 Cl  0  0  0  0  0  0  0  0  0  0  0  0
   -0.6100   63.0350   70.5640 C   0  0  0  0  0  0  0  0  0  0  0  0
    0.8150   58.3140   76.0890 C   0  0  0  0  0  0  0  0  0  0  0  0
    0.1370   58.9560   76.8990 O   0  0  0  0  0  0  0  0  0  0  0  0
    0.7330   56.8100   76.0630 C   0  0  0  0  0  0  0  0  0  0  0  0
    2.6650   59.8870   75.8230 O   0  0  0  0  0  0  0  0  0  0  0  0
    3.4010   59.3090   76.8090 C   0  0  0  0  0  0  0  0  0  0  0  0
    4.0760   58.2960   76.6850 O   0  0  0  0  0  0  0  0  0  0  0  0
    3.2880   60.1080   78.0690 C   0  0  0  0  0  0  0  0  0  0  0  0
   -0.1367   66.9758   71.6681 H   0  0  0  0  0  0  0  0  0  0  0  0
   -0.8336   65.8366   70.4491 H   0  0  0  0  0  0  0  0  0  0  0  0
    0.9449   65.1580   72.8228 H   0  0  0  0  0  0  0  0  0  0  0  0
   -0.8130   64.7351   72.5511 H   0  0  0  0  0  0  0  0  0  0  0  0
    2.9858   65.1047   69.3672 H   0  0  0  0  0  0  0  0  0  0  0  0
    3.1383   60.5948   70.5451 H   0  0  0  0  0  0  0  0  0  0  0  0
    0.6468   60.6364   71.4368 H   0  0  0  0  0  0  0  0  0  0  0  0
    1.8135   63.0147   73.0570 H   0  0  0  0  0  0  0  0  0  0  0  0
   -0.3257   63.2381   74.1098 H   0  0  0  0  0  0  0  0  0  0  0  0
   -0.9632   61.8281   73.1542 H   0  0  0  0  0  0  0  0  0  0  0  0
    1.2353   61.7723   75.2741 H   0  0  0  0  0  0  0  0  0  0  0  0
   -0.4386   61.0713   75.3783 H   0  0  0  0  0  0  0  0  0  0  0  0
    2.8084   60.9768   73.4159 H   0  0  0  0  0  0  0  0  0  0  0  0
    2.0229   58.4370   71.9700 H   0  0  0  0  0  0  0  0  0  0  0  0
    3.6364   59.0288   72.3610 H   0  0  0  0  0  0  0  0  0  0  0  0
    2.0400   57.2003   73.9260 H   0  0  0  0  0  0  0  0  0  0  0  0
    3.5586   57.9556   74.4591 H   0  0  0  0  0  0  0  0  0  0  0  0
   -0.9132   58.7964   74.3429 H   0  0  0  0  0  0  0  0  0  0  0  0
   -0.8952   59.8748   72.9064 H   0  0  0  0  0  0  0  0  0  0  0  0
    0.0742   58.3626   72.9064 H   0  0  0  0  0  0  0  0  0  0  0  0
   -1.4149   62.6868   71.2280 H   0  0  0  0  0  0  0  0  0  0  0  0
   -0.9855   63.8511   69.9292 H   0  0  0  0  0  0  0  0  0  0  0  0
   -0.2724   62.2025   69.9292 H   0  0  0  0  0  0  0  0  0  0  0  0
    0.7121   56.4261   77.0936 H   0  0  0  0  0  0  0  0  0  0  0  0
   -0.1833   56.5018   75.5382 H   0  0  0  0  0  0  0  0  0  0  0  0
    1.6103   56.4040   75.5382 H   0  0  0  0  0  0  0  0  0  0  0  0
    3.3826   59.4391   78.9371 H   0  0  0  0  0  0  0  0  0  0  0  0
    4.0885   60.8619   78.0981 H   0  0  0  0  0  0  0  0  0  0  0  0
    2.3099   60.6104   78.0981 H   0  0  0  0  0  0  0  0  0  0  0  0
  2  1  2  0
  3  2  1  0
  4  3  1  0
  5  4  1  0
  6  5  1  0
  7  6  2  0
  7  2  1  0
  8  6  1  0
  9  8  2  0
 10  9  1  0
 11 10  1  0
 11  5  1  0
 12 11  1  0
 13 12  1  0
 14 13  1  0
 15 14  1  0
 15 10  1  0
 16 15  1  0
 17 16  1  0
 18 17  1  0
 18 14  1  0
 14 19  1  6
 20  8  1  0
  5 21  1  6
 22 18  1  0
 23 22  2  0
 24 22  1  0
 18 25  1  1
 26 25  1  0
 27 26  2  0
 28 26  1  0
  3 29  1  0
  3 30  1  0
  4 31  1  0
  4 32  1  0
  7 33  1  0
  9 34  1  0
 10 35  1  6
 11 36  1  1
 12 37  1  0
 12 38  1  0
 13 39  1  0
 13 40  1  0
 15 41  1  1
 16 42  1  0
 16 43  1  0
 17 44  1  0
 17 45  1  0
 19 46  1  0
 19 47  1  0
 19 48  1  0
 21 49  1  0
 21 50  1  0
 21 51  1  0
 24 52  1  0
 24 53  1  0
 24 54  1  0
 28 55  1  0
 28 56  1  0
 28 57  1  0
M  END
>  <score>  (3) 
-7.558

$$$$
=
     RDKit          3D

 57 60  0  0  0  0  0  0  0  0999 V2000
    3.3490   62.7070   68.0680 O   0  0  0  0  0  0  0  0  0  0  0  0
    3.0160   62.3270   69.1880 C   0  0  0  0  0  0  0  0  0  0  0  0
    3.5860   61.0800   69.8050 C   0  0  0  0  0  0  0  0  0  0  0  0
    2.6380   60.5040   70.8460 C   0  0  0  0  0  0  0  0  0  0  0  0
    2.1910   61.5340   71.9220 C   0  0  1  0  0  0  0  0  0  0  0  0
    1.6930   62.8250   71.2320 C   0  0  0  0  0  0  0  0  0  0  0  0
    2.0700   63.1480   69.9780 C   0  0  0  0  0  0  0  0  0  0  0  0
    0.7660   63.6630   72.0010 C   0  0  0  0  0  0  0  0  0  0  0  0
    0.2160   63.2710   73.1630 C   0  0  0  0  0  0  0  0  0  0  0  0
    0.4610   61.9320   73.7990 C   0  0  2  0  0  0  0  0  0  0  0  0
    1.0090   60.9190   72.7520 C   0  0  2  0  0  0  0  0  0  0  0  0
    1.2910   59.5450   73.4070 C   0  0  0  0  0  0  0  0  0  0  0  0
    0.0650   58.9890   74.1590 C   0  0  0  0  0  0  0  0  0  0  0  0
   -0.4950   59.9920   75.1880 C   0  0  1  0  0  0  0  0  0  0  0  0
   -0.7940   61.3180   74.4380 C   0  0  1  0  0  0  0  0  0  0  0  0
   -1.5740   62.1280   75.4660 C   0  0  0  0  0  0  0  0  0  0  0  0
   -2.3930   61.0820   76.2510 C   0  0  0  0  0  0  0  0  0  0  0  0
   -1.9220   59.6790   75.7670 C   0  0  2  0  0  0  0  0  0  0  0  0
    0.5350   60.1580   76.3420 C   0  0  0  0  0  0  0  0  0  0  0  0
    0.3870   65.2720   71.4560 Cl  0  0  0  0  0  0  0  0  0  0  0  0
    3.4040   61.8820   72.8170 C   0  0  0  0  0  0  0  0  0  0  0  0
   -1.8590   58.5390   76.8140 C   0  0  0  0  0  0  0  0  0  0  0  0
   -2.0380   58.7730   78.0140 O   0  0  0  0  0  0  0  0  0  0  0  0
   -1.5880   57.1300   76.3540 C   0  0  0  0  0  0  0  0  0  0  0  0
   -2.7590   59.2510   74.6580 O   0  0  0  0  0  0  0  0  0  0  0  0
   -4.0800   59.5680   74.7030 C   0  0  0  0  0  0  0  0  0  0  0  0
   -4.5690   60.6130   74.2980 O   0  0  0  0  0  0  0  0  0  0  0  0
   -4.8590   58.4390   75.3020 C   0  0  0  0  0  0  0  0  0  0  0  0
    3.7514   60.3316   69.0160 H   0  0  0  0  0  0  0  0  0  0  0  0
    4.5350   61.3358   70.2989 H   0  0  0  0  0  0  0  0  0  0  0  0
    1.7416   60.1296   70.3300 H   0  0  0  0  0  0  0  0  0  0  0  0
    3.1836   59.7063   71.3714 H   0  0  0  0  0  0  0  0  0  0  0  0
    1.6572   64.0602   69.5226 H   0  0  0  0  0  0  0  0  0  0  0  0
   -0.4544   63.9734   73.6799 H   0  0  0  0  0  0  0  0  0  0  0  0
    1.1964   62.1186   74.5955 H   0  0  0  0  0  0  0  0  0  0  0  0
    0.2344   60.7131   71.9986 H   0  0  0  0  0  0  0  0  0  0  0  0
    1.5767   58.8309   72.6206 H   0  0  0  0  0  0  0  0  0  0  0  0
    2.0996   59.6827   74.1399 H   0  0  0  0  0  0  0  0  0  0  0  0
   -0.7227   58.7557   73.4275 H   0  0  0  0  0  0  0  0  0  0  0  0
    0.3849   58.0896   74.7055 H   0  0  0  0  0  0  0  0  0  0  0  0
   -1.4044   61.2233   73.5278 H   0  0  0  0  0  0  0  0  0  0  0  0
   -0.8882   62.6664   76.1367 H   0  0  0  0  0  0  0  0  0  0  0  0
   -2.2137   62.8898   74.9965 H   0  0  0  0  0  0  0  0  0  0  0  0
   -2.2094   61.1907   77.3301 H   0  0  0  0  0  0  0  0  0  0  0  0
   -3.4709   61.2160   76.0770 H   0  0  0  0  0  0  0  0  0  0  0  0
    0.0183   60.0747   77.3095 H   0  0  0  0  0  0  0  0  0  0  0  0
    1.3004   59.3716   76.2662 H   0  0  0  0  0  0  0  0  0  0  0  0
    1.0146   61.1450   76.2662 H   0  0  0  0  0  0  0  0  0  0  0  0
    3.1148   61.7990   73.8750 H   0  0  0  0  0  0  0  0  0  0  0  0
    4.2275   61.1839   72.6062 H   0  0  0  0  0  0  0  0  0  0  0  0
    3.7322   62.9105   72.6062 H   0  0  0  0  0  0  0  0  0  0  0  0
   -1.4623   56.4762   77.2296 H   0  0  0  0  0  0  0  0  0  0  0  0
   -2.4339   56.7729   75.7483 H   0  0  0  0  0  0  0  0  0  0  0  0
   -0.6700   57.1122   75.7483 H   0  0  0  0  0  0  0  0  0  0  0  0
   -4.8141   58.5040   76.3992 H   0  0  0  0  0  0  0  0  0  0  0  0
   -5.9069   58.5017   74.9735 H   0  0  0  0  0  0  0  0  0  0  0  0
   -4.4284   57.4815   74.9735 H   0  0  0  0  0  0  0  0  0  0  0  0
  2  1  2  0
  3  2  1  0
  4  3  1  0
  5  4  1  0
  6  5  1  0
  7  6  2  0
  7  2  1  0
  8  6  1  0
  9  8  2  0
 10  9  1  0
 11 10  1  0
 11  5  1  0
 12 11  1  0
 13 12  1  0
 14 13  1  0
 15 14  1  0
 15 10  1  0
 16 15  1  0
 17 16  1  0
 18 17  1  0
 18 14  1  0
 14 19  1  1
 20  8  1  0
  5 21  1  1
 22 18  1  0
 23 22  2  0
 24 22  1  0
 18 25  1  6
 26 25  1  0
 27 26  2  0
 28 26  1  0
  3 29  1  0
  3 30  1  0
  4 31  1  0
  4 32  1  0
  7 33  1  0
  9 34  1  0
 10 35  1  1
 11 36  1  6
 12 37  1  0
 12 38  1  0
 13 39  1  0
 13 40  1  0
 15 41  1  6
 16 42  1  0
 16 43  1  0
 17 44  1  0
 17 45  1  0
 19 46  1  0
 19 47  1  0
 19 48  1  0
 21 49  1  0
 21 50  1  0
 21 51  1  0
 24 52  1  0
 24 53  1  0
 24 54  1  0
 28 55  1  0
 28 56  1  0
 28 57  1  0
M  END
>  <score>  (4) 
-7.422

$$$$
=
     RDKit          3D

 57 60  0  0  0  0  0  0  0  0999 V2000
    3.9710   59.4210   69.6150 O   0  0  0  0  0  0  0  0  0  0  0  0
    3.2900   59.3700   70.6360 C   0  0  0  0  0  0  0  0  0  0  0  0
    3.2550   58.1450   71.5070 C   0  0  0  0  0  0  0  0  0  0  0  0
    1.9630   58.0800   72.3070 C   0  0  0  0  0  0  0  0  0  0  0  0
    1.6620   59.3750   73.1140 C   0  0  1  0  0  0  0  0  0  0  0  0
    1.7940   60.6070   72.1880 C   0  0  0  0  0  0  0  0  0  0  0  0
    2.5260   60.5670   71.0560 C   0  0  0  0  0  0  0  0  0  0  0  0
    1.0570   61.8110   72.5910 C   0  0  0  0  0  0  0  0  0  0  0  0
    0.1640   61.8220   73.5950 C   0  0  0  0  0  0  0  0  0  0  0  0
   -0.2030   60.6110   74.4060 C   0  0  2  0  0  0  0  0  0  0  0  0
    0.1890   59.3060   73.6530 C   0  0  2  0  0  0  0  0  0  0  0  0
   -0.1600   58.0550   74.4940 C   0  0  0  0  0  0  0  0  0  0  0  0
   -1.6360   58.0410   74.9410 C   0  0  0  0  0  0  0  0  0  0  0  0
   -2.0390   59.3360   75.6740 C   0  0  1  0  0  0  0  0  0  0  0  0
   -1.6990   60.5300   74.7420 C   0  0  1  0  0  0  0  0  0  0  0  0
   -2.3690   61.7100   75.4340 C   0  0  0  0  0  0  0  0  0  0  0  0
   -3.6450   61.1200   76.0720 C   0  0  0  0  0  0  0  0  0  0  0  0
   -3.5790   59.5770   75.8760 C   0  0  2  0  0  0  0  0  0  0  0  0
   -1.2960   59.3930   77.0400 C   0  0  0  0  0  0  0  0  0  0  0  0
    1.3730   63.3310   71.8040 Cl  0  0  0  0  0  0  0  0  0  0  0  0
    2.6910   59.5020   74.2620 C   0  0  0  0  0  0  0  0  0  0  0  0
   -4.1360   58.6820   77.0120 C   0  0  0  0  0  0  0  0  0  0  0  0
   -4.0810   57.4500   76.9290 O   0  0  0  0  0  0  0  0  0  0  0  0
   -4.7370   59.3290   78.2330 C   0  0  0  0  0  0  0  0  0  0  0  0
   -4.2430   59.2240   74.6320 O   0  0  0  0  0  0  0  0  0  0  0  0
   -5.6000   59.2880   74.6000 C   0  0  0  0  0  0  0  0  0  0  0  0
   -6.2680   60.2600   74.9230 O   0  0  0  0  0  0  0  0  0  0  0  0
   -6.1630   58.0000   74.0860 C   0  0  0  0  0  0  0  0  0  0  0  0
    3.3299   57.2501   70.8718 H   0  0  0  0  0  0  0  0  0  0  0  0
    4.0998   58.1913   72.2100 H   0  0  0  0  0  0  0  0  0  0  0  0
    1.1309   57.9042   71.6093 H   0  0  0  0  0  0  0  0  0  0  0  0
    2.0775   57.2653   73.0372 H   0  0  0  0  0  0  0  0  0  0  0  0
    2.5569   61.4620   70.4172 H   0  0  0  0  0  0  0  0  0  0  0  0
   -0.3283   62.7752   73.8381 H   0  0  0  0  0  0  0  0  0  0  0  0
    0.3569   60.7108   75.3476 H   0  0  0  0  0  0  0  0  0  0  0  0
   -0.4233   59.2081   72.7444 H   0  0  0  0  0  0  0  0  0  0  0  0
    0.0346   57.1570   73.8892 H   0  0  0  0  0  0  0  0  0  0  0  0
    0.4647   58.0740   75.3992 H   0  0  0  0  0  0  0  0  0  0  0  0
   -2.2735   57.9249   74.0521 H   0  0  0  0  0  0  0  0  0  0  0  0
   -1.7668   57.2035   75.6421 H   0  0  0  0  0  0  0  0  0  0  0  0
   -2.0866   60.4584   73.7150 H   0  0  0  0  0  0  0  0  0  0  0  0
   -1.7091   62.1320   76.2063 H   0  0  0  0  0  0  0  0  0  0  0  0
   -2.5947   62.5283   74.7344 H   0  0  0  0  0  0  0  0  0  0  0  0
   -3.6789   61.3637   77.1441 H   0  0  0  0  0  0  0  0  0  0  0  0
   -4.5481   61.5375   75.6028 H   0  0  0  0  0  0  0  0  0  0  0  0
   -2.0287   59.3368   77.8585 H   0  0  0  0  0  0  0  0  0  0  0  0
   -0.5983   58.5457   77.1136 H   0  0  0  0  0  0  0  0  0  0  0  0
   -0.7357   60.3368   77.1136 H   0  0  0  0  0  0  0  0  0  0  0  0
    2.1710   59.4378   75.2292 H   0  0  0  0  0  0  0  0  0  0  0  0
    3.4269   58.6879   74.1866 H   0  0  0  0  0  0  0  0  0  0  0  0
    3.2068   60.4706   74.1866 H   0  0  0  0  0  0  0  0  0  0  0  0
   -4.3113   58.8707   79.1379 H   0  0  0  0  0  0  0  0  0  0  0  0
   -4.5112   60.4055   78.2262 H   0  0  0  0  0  0  0  0  0  0  0  0
   -5.8272   59.1830   78.2262 H   0  0  0  0  0  0  0  0  0  0  0  0
   -6.4436   57.3581   74.9341 H   0  0  0  0  0  0  0  0  0  0  0  0
   -7.0526   58.2074   73.4731 H   0  0  0  0  0  0  0  0  0  0  0  0
   -5.4066   57.4879   73.4731 H   0  0  0  0  0  0  0  0  0  0  0  0
  2  1  2  0
  3  2  1  0
  4  3  1  0
  5  4  1  0
  6  5  1  0
  7  6  2  0
  7  2  1  0
  8  6  1  0
  9  8  2  0
 10  9  1  0
 11 10  1  0
 11  5  1  0
 12 11  1  0
 13 12  1  0
 14 13  1  0
 15 14  1  0
 15 10  1  0
 16 15  1  0
 17 16  1  0
 18 17  1  0
 18 14  1  0
 14 19  1  1
 20  8  1  0
  5 21  1  1
 22 18  1  0
 23 22  2  0
 24 22  1  0
 18 25  1  6
 26 25  1  0
 27 26  2  0
 28 26  1  0
  3 29  1  0
  3 30  1  0
  4 31  1  0
  4 32  1  0
  7 33  1  0
  9 34  1  0
 10 35  1  1
 11 36  1  6
 12 37  1  0
 12 38  1  0
 13 39  1  0
 13 40  1  0
 15 41  1  6
 16 42  1  0
 16 43  1  0
 17 44  1  0
 17 45  1  0
 19 46  1  0
 19 47  1  0
 19 48  1  0
 21 49  1  0
 21 50  1  0
 21 51  1  0
 24 52  1  0
 24 53  1  0
 24 54  1  0
 28 55  1  0
 28 56  1  0
 28 57  1  0
M  END
>  <score>  (5) 
-6.92

$$$$
=
     RDKit          3D

 57 60  0  0  0  0  0  0  0  0999 V2000
    1.8360   65.3250   69.8820 O   0  0  0  0  0  0  0  0  0  0  0  0
    1.6320   64.4810   70.7510 C   0  0  0  0  0  0  0  0  0  0  0  0
    0.3960   64.5050   71.6070 C   0  0  0  0  0  0  0  0  0  0  0  0
    0.6350   63.7970   72.9320 C   0  0  0  0  0  0  0  0  0  0  0  0
    1.2070   62.3590   72.7770 C   0  0  1  0  0  0  0  0  0  0  0  0
    2.4240   62.3830   71.8220 C   0  0  0  0  0  0  0  0  0  0  0  0
    2.6000   63.3740   70.9250 C   0  0  0  0  0  0  0  0  0  0  0  0
    3.3900   61.2880   71.9650 C   0  0  0  0  0  0  0  0  0  0  0  0
    3.3510   60.4030   72.9760 C   0  0  0  0  0  0  0  0  0  0  0  0
    2.3380   60.4400   74.0860 C   0  0  2  0  0  0  0  0  0  0  0  0
    1.6810   61.8480   74.1830 C   0  0  2  0  0  0  0  0  0  0  0  0
    0.6170   61.8850   75.3060 C   0  0  0  0  0  0  0  0  0  0  0  0
    1.1760   61.4160   76.6630 C   0  0  0  0  0  0  0  0  0  0  0  0
    1.8430   60.0280   76.5740 C   0  0  1  0  0  0  0  0  0  0  0  0
    2.9250   60.0970   75.4630 C   0  0  1  0  0  0  0  0  0  0  0  0
    3.6850   58.7880   75.6390 C   0  0  0  0  0  0  0  0  0  0  0  0
    3.6630   58.5230   77.1600 C   0  0  0  0  0  0  0  0  0  0  0  0
    2.7340   59.5980   77.7960 C   0  0  2  0  0  0  0  0  0  0  0  0
    0.7470   58.9590   76.2980 C   0  0  0  0  0  0  0  0  0  0  0  0
    4.6180   61.0440   70.7560 Cl  0  0  0  0  0  0  0  0  0  0  0  0
    0.1150   61.4470   72.1700 C   0  0  0  0  0  0  0  0  0  0  0  0
    1.8560   59.1720   79.0000 C   0  0  0  0  0  0  0  0  0  0  0  0
    1.0330   59.9540   79.4890 O   0  0  0  0  0  0  0  0  0  0  0  0
    2.0030   57.7830   79.5640 C   0  0  0  0  0  0  0  0  0  0  0  0
    3.5310   60.7510   78.1810 O   0  0  0  0  0  0  0  0  0  0  0  0
    4.2270   60.6760   79.3470 C   0  0  0  0  0  0  0  0  0  0  0  0
    4.9980   59.7770   79.6520 O   0  0  0  0  0  0  0  0  0  0  0  0
    3.9330   61.8710   80.1980 C   0  0  0  0  0  0  0  0  0  0  0  0
    0.1151   65.5502   71.8035 H   0  0  0  0  0  0  0  0  0  0  0  0
   -0.4105   63.9826   71.0717 H   0  0  0  0  0  0  0  0  0  0  0  0
    1.3479   64.3929   73.5208 H   0  0  0  0  0  0  0  0  0  0  0  0
   -0.3425   63.7030   73.4277 H   0  0  0  0  0  0  0  0  0  0  0  0
    3.5017   63.3596   70.2951 H   0  0  0  0  0  0  0  0  0  0  0  0
    4.1061   59.6033   72.9920 H   0  0  0  0  0  0  0  0  0  0  0  0
    1.5952   59.6710   73.8276 H   0  0  0  0  0  0  0  0  0  0  0  0
    2.4358   62.5859   74.4923 H   0  0  0  0  0  0  0  0  0  0  0  0
    0.2520   62.9172   75.4124 H   0  0  0  0  0  0  0  0  0  0  0  0
   -0.1931   61.1972   75.0221 H   0  0  0  0  0  0  0  0  0  0  0  0
    1.9229   62.1457   77.0090 H   0  0  0  0  0  0  0  0  0  0  0  0
    0.3330   61.3395   77.3655 H   0  0  0  0  0  0  0  0  0  0  0  0
    3.6372   60.9314   75.5433 H   0  0  0  0  0  0  0  0  0  0  0  0
    3.1844   57.9728   75.0960 H   0  0  0  0  0  0  0  0  0  0  0  0
    4.7090   58.8448   75.2414 H   0  0  0  0  0  0  0  0  0  0  0  0
    3.2692   57.5160   77.3623 H   0  0  0  0  0  0  0  0  0  0  0  0
    4.6767   58.5804   77.5831 H   0  0  0  0  0  0  0  0  0  0  0  0
    0.3570   58.5786   77.2536 H   0  0  0  0  0  0  0  0  0  0  0  0
   -0.0726   59.4142   75.7226 H   0  0  0  0  0  0  0  0  0  0  0  0
    1.1817   58.1283   75.7226 H   0  0  0  0  0  0  0  0  0  0  0  0
   -0.4562   60.9699   72.9800 H   0  0  0  0  0  0  0  0  0  0  0  0
   -0.5634   62.0506   71.5492 H   0  0  0  0  0  0  0  0  0  0  0  0
    0.5881   60.6719   71.5492 H   0  0  0  0  0  0  0  0  0  0  0  0
    1.9979   57.8310   80.6629 H   0  0  0  0  0  0  0  0  0  0  0  0
    1.1661   57.1573   79.2205 H   0  0  0  0  0  0  0  0  0  0  0  0
    2.9524   57.3463   79.2205 H   0  0  0  0  0  0  0  0  0  0  0  0
    4.0019   61.5911   81.2596 H   0  0  0  0  0  0  0  0  0  0  0  0
    4.6626   62.6648   79.9800 H   0  0  0  0  0  0  0  0  0  0  0  0
    2.9184   62.2357   79.9800 H   0  0  0  0  0  0  0  0  0  0  0  0
  2  1  2  0
  3  2  1  0
  4  3  1  0
  5  4  1  0
  6  5  1  0
  7  6  2  0
  7  2  1  0
  8  6  1  0
  9  8  2  0
 10  9  1  0
 11 10  1  0
 11  5  1  0
 12 11  1  0
 13 12  1  0
 14 13  1  0
 15 14  1  0
 15 10  1  0
 16 15  1  0
 17 16  1  0
 18 17  1  0
 18 14  1  0
 14 19  1  6
 20  8  1  0
  5 21  1  6
 22 18  1  0
 23 22  2  0
 24 22  1  0
 18 25  1  1
 26 25  1  0
 27 26  2  0
 28 26  1  0
  3 29  1  0
  3 30  1  0
  4 31  1  0
  4 32  1  0
  7 33  1  0
  9 34  1  0
 10 35  1  6
 11 36  1  1
 12 37  1  0
 12 38  1  0
 13 39  1  0
 13 40  1  0
 15 41  1  1
 16 42  1  0
 16 43  1  0
 17 44  1  0
 17 45  1  0
 19 46  1  0
 19 47  1  0
 19 48  1  0
 21 49  1  0
 21 50  1  0
 21 51  1  0
 24 52  1  0
 24 53  1  0
 24 54  1  0
 28 55  1  0
 28 56  1  0
 28 57  1  0
M  END
>  <score>  (6) 
-6.744

$$$$
=
     RDKit          3D

 57 60  0  0  0  0  0  0  0  0999 V2000
    2.8660   64.1820   70.2300 O   0  0  0  0  0  0  0  0  0  0  0  0
    2.4300   63.3700   71.0430 C   0  0  0  0  0  0  0  0  0  0  0  0
    1.5070   63.7780   72.1570 C   0  0  0  0  0  0  0  0  0  0  0  0
    1.5930   62.8040   73.3220 C   0  0  0  0  0  0  0  0  0  0  0  0
    1.3850   61.3190   72.9110 C   0  0  1  0  0  0  0  0  0  0  0  0
    2.2980   60.9790   71.7100 C   0  0  0  0  0  0  0  0  0  0  0  0
    2.7740   61.9380   70.8890 C   0  0  0  0  0  0  0  0  0  0  0  0
    2.6410   59.5640   71.5270 C   0  0  0  0  0  0  0  0  0  0  0  0
    2.3520   58.6170   72.4360 C   0  0  0  0  0  0  0  0  0  0  0  0
    1.6690   58.8910   73.7470 C   0  0  2  0  0  0  0  0  0  0  0  0
    1.7800   60.3980   74.1190 C   0  0  2  0  0  0  0  0  0  0  0  0
    1.0550   60.6930   75.4540 C   0  0  0  0  0  0  0  0  0  0  0  0
    1.5360   59.7800   76.5990 C   0  0  0  0  0  0  0  0  0  0  0  0
    1.4450   58.2850   76.2340 C   0  0  1  0  0  0  0  0  0  0  0  0
    2.2370   58.0730   74.9160 C   0  0  1  0  0  0  0  0  0  0  0  0
    2.3070   56.5560   74.7940 C   0  0  0  0  0  0  0  0  0  0  0  0
    2.4060   56.0490   76.2490 C   0  0  0  0  0  0  0  0  0  0  0  0
    2.2100   57.2850   77.1760 C   0  0  2  0  0  0  0  0  0  0  0  0
   -0.0540   57.8840   76.1210 C   0  0  0  0  0  0  0  0  0  0  0  0
    3.3960   59.0320   70.0530 Cl  0  0  0  0  0  0  0  0  0  0  0  0
   -0.0900   61.1160   72.4900 C   0  0  0  0  0  0  0  0  0  0  0  0
    1.4410   57.0760   78.5050 C   0  0  0  0  0  0  0  0  0  0  0  0
    1.4260   57.9570   79.3710 O   0  0  0  0  0  0  0  0  0  0  0  0
    0.6950   55.7860   78.7290 C   0  0  0  0  0  0  0  0  0  0  0  0
    3.5070   57.8710   77.4720 O   0  0  0  0  0  0  0  0  0  0  0  0
    4.5780   57.0350   77.5380 C   0  0  0  0  0  0  0  0  0  0  0  0
    5.2480   56.6700   76.5830 O   0  0  0  0  0  0  0  0  0  0  0  0
    4.8350   56.6420   78.9590 C   0  0  0  0  0  0  0  0  0  0  0  0
    1.7876   64.7825   72.5067 H   0  0  0  0  0  0  0  0  0  0  0  0
    0.4754   63.7765   71.7750 H   0  0  0  0  0  0  0  0  0  0  0  0
    2.5870   62.9009   73.7831 H   0  0  0  0  0  0  0  0  0  0  0  0
    0.7810   63.0620   74.0177 H   0  0  0  0  0  0  0  0  0  0  0  0
    3.4466   61.6434   70.0700 H   0  0  0  0  0  0  0  0  0  0  0  0
    2.6323   57.5783   72.2068 H   0  0  0  0  0  0  0  0  0  0  0  0
    0.6205   58.5942   73.5968 H   0  0  0  0  0  0  0  0  0  0  0  0
    2.8325   60.6520   74.3132 H   0  0  0  0  0  0  0  0  0  0  0  0
    1.2433   61.7399   75.7343 H   0  0  0  0  0  0  0  0  0  0  0  0
   -0.0177   60.5028   75.3019 H   0  0  0  0  0  0  0  0  0  0  0  0
    2.5833   60.0245   76.8299 H   0  0  0  0  0  0  0  0  0  0  0  0
    0.8816   59.9548   77.4658 H   0  0  0  0  0  0  0  0  0  0  0  0
    3.2613   58.4739   74.9064 H   0  0  0  0  0  0  0  0  0  0  0  0
    1.4017   56.1639   74.3075 H   0  0  0  0  0  0  0  0  0  0  0  0
    3.1585   56.2271   74.1802 H   0  0  0  0  0  0  0  0  0  0  0  0
    1.6215   55.3028   76.4433 H   0  0  0  0  0  0  0  0  0  0  0  0
    3.3794   55.5708   76.4328 H   0  0  0  0  0  0  0  0  0  0  0  0
   -0.4800   57.7700   77.1287 H   0  0  0  0  0  0  0  0  0  0  0  0
   -0.6030   58.6669   75.5772 H   0  0  0  0  0  0  0  0  0  0  0  0
   -0.1388   56.9316   75.5772 H   0  0  0  0  0  0  0  0  0  0  0  0
   -0.7191   61.0294   73.3882 H   0  0  0  0  0  0  0  0  0  0  0  0
   -0.4222   61.9769   71.8913 H   0  0  0  0  0  0  0  0  0  0  0  0
   -0.1773   60.1974   71.8913 H   0  0  0  0  0  0  0  0  0  0  0  0
    0.5907   55.6056   79.8091 H   0  0  0  0  0  0  0  0  0  0  0  0
   -0.3026   55.8550   78.2707 H   0  0  0  0  0  0  0  0  0  0  0  0
    1.2524   54.9558   78.2707 H   0  0  0  0  0  0  0  0  0  0  0  0
    4.3590   57.3699   79.6325 H   0  0  0  0  0  0  0  0  0  0  0  0
    4.4158   55.6421   79.1445 H   0  0  0  0  0  0  0  0  0  0  0  0
    5.9191   56.6252   79.1445 H   0  0  0  0  0  0  0  0  0  0  0  0
  2  1  2  0
  3  2  1  0
  4  3  1  0
  5  4  1  0
  6  5  1  0
  7  6  2  0
  7  2  1  0
  8  6  1  0
  9  8  2  0
 10  9  1  0
 11 10  1  0
 11  5  1  0
 12 11  1  0
 13 12  1  0
 14 13  1  0
 15 14  1  0
 15 10  1  0
 16 15  1  0
 17 16  1  0
 18 17  1  0
 18 14  1  0
 14 19  1  6
 20  8  1  0
  5 21  1  6
 22 18  1  0
 23 22  2  0
 24 22  1  0
 18 25  1  1
 26 25  1  0
 27 26  2  0
 28 26  1  0
  3 29  1  0
  3 30  1  0
  4 31  1  0
  4 32  1  0
  7 33  1  0
  9 34  1  0
 10 35  1  6
 11 36  1  1
 12 37  1  0
 12 38  1  0
 13 39  1  0
 13 40  1  0
 15 41  1  1
 16 42  1  0
 16 43  1  0
 17 44  1  0
 17 45  1  0
 19 46  1  0
 19 47  1  0
 19 48  1  0
 21 49  1  0
 21 50  1  0
 21 51  1  0
 24 52  1  0
 24 53  1  0
 24 54  1  0
 28 55  1  0
 28 56  1  0
 28 57  1  0
M  END
>  <score>  (7) 
-6.673

$$$$
=
     RDKit          3D

 57 60  0  0  0  0  0  0  0  0999 V2000
    3.9830   63.0050   68.7140 O   0  0  0  0  0  0  0  0  0  0  0  0
    3.2430   62.9380   69.6920 C   0  0  0  0  0  0  0  0  0  0  0  0
    2.4500   64.1220   70.1710 C   0  0  0  0  0  0  0  0  0  0  0  0
    2.1190   63.9960   71.6510 C   0  0  0  0  0  0  0  0  0  0  0  0
    1.4370   62.6510   72.0250 C   0  0  1  0  0  0  0  0  0  0  0  0
    2.2490   61.4740   71.4370 C   0  0  0  0  0  0  0  0  0  0  0  0
    3.0790   61.6410   70.3870 C   0  0  0  0  0  0  0  0  0  0  0  0
    2.0920   60.1730   72.0990 C   0  0  0  0  0  0  0  0  0  0  0  0
    1.4360   60.0180   73.2620 C   0  0  0  0  0  0  0  0  0  0  0  0
    0.8090   61.1470   74.0300 C   0  0  2  0  0  0  0  0  0  0  0  0
    1.4120   62.5120   73.5890 C   0  0  2  0  0  0  0  0  0  0  0  0
    0.7510   63.6830   74.3560 C   0  0  0  0  0  0  0  0  0  0  0  0
    0.8130   63.4940   75.8850 C   0  0  0  0  0  0  0  0  0  0  0  0
    0.2330   62.1360   76.3310 C   0  0  1  0  0  0  0  0  0  0  0  0
    0.9840   61.0240   75.5510 C   0  0  1  0  0  0  0  0  0  0  0  0
    0.5310   59.7470   76.2480 C   0  0  0  0  0  0  0  0  0  0  0  0
    0.3570   60.1480   77.7290 C   0  0  0  0  0  0  0  0  0  0  0  0
    0.5430   61.6920   77.8070 C   0  0  2  0  0  0  0  0  0  0  0  0
   -1.3020   62.1360   76.0760 C   0  0  0  0  0  0  0  0  0  0  0  0
    2.7080   58.7300   71.3460 Cl  0  0  0  0  0  0  0  0  0  0  0  0
    0.0120   62.6250   71.4220 C   0  0  0  0  0  0  0  0  0  0  0  0
   -0.3330   62.4740   78.8180 C   0  0  0  0  0  0  0  0  0  0  0  0
   -0.1420   63.6790   79.0190 O   0  0  0  0  0  0  0  0  0  0  0  0
   -1.4360   61.7540   79.5480 C   0  0  0  0  0  0  0  0  0  0  0  0
    1.9410   61.9920   78.0670 O   0  0  0  0  0  0  0  0  0  0  0  0
    2.5600   61.3040   79.0630 C   0  0  0  0  0  0  0  0  0  0  0  0
    2.2860   61.3850   80.2520 O   0  0  0  0  0  0  0  0  0  0  0  0
    3.6140   60.4090   78.4910 C   0  0  0  0  0  0  0  0  0  0  0  0
    3.0386   65.0374   70.0110 H   0  0  0  0  0  0  0  0  0  0  0  0
    1.5082   64.1646   69.6043 H   0  0  0  0  0  0  0  0  0  0  0  0
    3.0535   64.0831   72.2247 H   0  0  0  0  0  0  0  0  0  0  0  0
    1.4041   64.7970   71.8903 H   0  0  0  0  0  0  0  0  0  0  0  0
    3.6590   60.7764   70.0318 H   0  0  0  0  0  0  0  0  0  0  0  0
    1.3531   59.0026   73.6768 H   0  0  0  0  0  0  0  0  0  0  0  0
   -0.2656   61.0935   73.8011 H   0  0  0  0  0  0  0  0  0  0  0  0
    2.4727   62.5549   73.8773 H   0  0  0  0  0  0  0  0  0  0  0  0
    1.2721   64.6157   74.0940 H   0  0  0  0  0  0  0  0  0  0  0  0
   -0.3093   63.7181   74.0653 H   0  0  0  0  0  0  0  0  0  0  0  0
    1.8634   63.5528   76.2064 H   0  0  0  0  0  0  0  0  0  0  0  0
    0.2066   64.2870   76.3470 H   0  0  0  0  0  0  0  0  0  0  0  0
    2.0822   61.0750   75.5881 H   0  0  0  0  0  0  0  0  0  0  0  0
   -0.4219   59.3930   75.8277 H   0  0  0  0  0  0  0  0  0  0  0  0
    1.2522   58.9261   76.1215 H   0  0  0  0  0  0  0  0  0  0  0  0
   -0.6478   59.8703   78.0801 H   0  0  0  0  0  0  0  0  0  0  0  0
    1.0912   59.6314   78.3646 H   0  0  0  0  0  0  0  0  0  0  0  0
   -1.6637   61.0989   76.0159 H   0  0  0  0  0  0  0  0  0  0  0  0
   -1.8109   62.6545   76.9019 H   0  0  0  0  0  0  0  0  0  0  0  0
   -1.5165   62.6545   75.1299 H   0  0  0  0  0  0  0  0  0  0  0  0
   -0.7297   62.6115   72.2343 H   0  0  0  0  0  0  0  0  0  0  0  0
   -0.1400   63.5205   70.8016 H   0  0  0  0  0  0  0  0  0  0  0  0
   -0.1072   61.7245   70.8016 H   0  0  0  0  0  0  0  0  0  0  0  0
   -1.2836   61.8535   80.6328 H   0  0  0  0  0  0  0  0  0  0  0  0
   -2.4060   62.1934   79.2722 H   0  0  0  0  0  0  0  0  0  0  0  0
   -1.4241   60.6892   79.2722 H   0  0  0  0  0  0  0  0  0  0  0  0
    4.1745   59.9331   79.3092 H   0  0  0  0  0  0  0  0  0  0  0  0
    3.1398   59.6334   77.8717 H   0  0  0  0  0  0  0  0  0  0  0  0
    4.3025   61.0026   77.8717 H   0  0  0  0  0  0  0  0  0  0  0  0
  2  1  2  0
  3  2  1  0
  4  3  1  0
  5  4  1  0
  6  5  1  0
  7  6  2  0
  7  2  1  0
  8  6  1  0
  9  8  2  0
 10  9  1  0
 11 10  1  0
 11  5  1  0
 12 11  1  0
 13 12  1  0
 14 13  1  0
 15 14  1  0
 15 10  1  0
 16 15  1  0
 17 16  1  0
 18 17  1  0
 18 14  1  0
 14 19  1  1
 20  8  1  0
  5 21  1  6
 22 18  1  0
 23 22  2  0
 24 22  1  0
 18 25  1  1
 26 25  1  0
 27 26  2  0
 28 26  1  0
  3 29  1  0
  3 30  1  0
  4 31  1  0
  4 32  1  0
  7 33  1  0
  9 34  1  0
 10 35  1  1
 11 36  1  1
 12 37  1  0
 12 38  1  0
 13 39  1  0
 13 40  1  0
 15 41  1  6
 16 42  1  0
 16 43  1  0
 17 44  1  0
 17 45  1  0
 19 46  1  0
 19 47  1  0
 19 48  1  0
 21 49  1  0
 21 50  1  0
 21 51  1  0
 24 52  1  0
 24 53  1  0
 24 54  1  0
 28 55  1  0
 28 56  1  0
 28 57  1  0
M  END
>  <score>  (8) 
-6.645

$$$$
=
     RDKit          3D

 57 60  0  0  0  0  0  0  0  0999 V2000
    3.4910   61.6380   70.2940 O   0  0  0  0  0  0  0  0  0  0  0  0
    3.2400   60.9320   71.2670 C   0  0  0  0  0  0  0  0  0  0  0  0
    4.3130   60.1720   71.9960 C   0  0  0  0  0  0  0  0  0  0  0  0
    3.7330   58.9650   72.7180 C   0  0  0  0  0  0  0  0  0  0  0  0
    2.5330   59.3090   73.6450 C   0  0  1  0  0  0  0  0  0  0  0  0
    1.5020   60.1590   72.8670 C   0  0  0  0  0  0  0  0  0  0  0  0
    1.8500   60.8720   71.7770 C   0  0  0  0  0  0  0  0  0  0  0  0
    0.1210   60.1280   73.3620 C   0  0  0  0  0  0  0  0  0  0  0  0
   -0.2970   59.2770   74.3150 C   0  0  0  0  0  0  0  0  0  0  0  0
    0.5840   58.2500   74.9690 C   0  0  2  0  0  0  0  0  0  0  0  0
    1.8440   57.9730   74.0980 C   0  0  2  0  0  0  0  0  0  0  0  0
    2.7700   56.9360   74.7790 C   0  0  0  0  0  0  0  0  0  0  0  0
    2.0280   55.6360   75.1460 C   0  0  0  0  0  0  0  0  0  0  0  0
    0.7680   55.9010   75.9960 C   0  0  1  0  0  0  0  0  0  0  0  0
   -0.1210   56.9080   75.2180 C   0  0  1  0  0  0  0  0  0  0  0  0
   -1.4280   56.8920   76.0010 C   0  0  0  0  0  0  0  0  0  0  0  0
   -1.5660   55.4390   76.5040 C   0  0  0  0  0  0  0  0  0  0  0  0
   -0.2410   54.7050   76.1450 C   0  0  2  0  0  0  0  0  0  0  0  0
    1.2050   56.4210   77.3950 C   0  0  0  0  0  0  0  0  0  0  0  0
   -1.0470   61.2710   72.7640 Cl  0  0  0  0  0  0  0  0  0  0  0  0
    3.0490   60.1290   74.8510 C   0  0  0  0  0  0  0  0  0  0  0  0
    0.2940   53.6490   77.1460 C   0  0  0  0  0  0  0  0  0  0  0  0
    1.3680   53.0730   76.9420 O   0  0  0  0  0  0  0  0  0  0  0  0
   -0.5050   53.3390   78.3860 C   0  0  0  0  0  0  0  0  0  0  0  0
   -0.3780   54.0840   74.8380 O   0  0  0  0  0  0  0  0  0  0  0  0
   -1.0930   52.9310   74.7580 C   0  0  0  0  0  0  0  0  0  0  0  0
   -2.2400   52.7820   75.1560 O   0  0  0  0  0  0  0  0  0  0  0  0
   -0.2810   51.8680   74.0860 C   0  0  0  0  0  0  0  0  0  0  0  0
    5.0665   59.8296   71.2714 H   0  0  0  0  0  0  0  0  0  0  0  0
    4.7698   60.8396   72.7415 H   0  0  0  0  0  0  0  0  0  0  0  0
    3.3929   58.2397   71.9642 H   0  0  0  0  0  0  0  0  0  0  0  0
    4.5296   58.5606   73.3597 H   0  0  0  0  0  0  0  0  0  0  0  0
    1.0687   61.4332   71.2434 H   0  0  0  0  0  0  0  0  0  0  0  0
   -1.3476   59.3359   74.6356 H   0  0  0  0  0  0  0  0  0  0  0  0
    0.8597   58.6806   75.9429 H   0  0  0  0  0  0  0  0  0  0  0  0
    1.5418   57.4962   73.1539 H   0  0  0  0  0  0  0  0  0  0  0  0
    3.5922   56.6910   74.0905 H   0  0  0  0  0  0  0  0  0  0  0  0
    3.1444   57.3828   75.7118 H   0  0  0  0  0  0  0  0  0  0  0  0
    1.7283   55.1259   74.2187 H   0  0  0  0  0  0  0  0  0  0  0  0
    2.7122   55.0151   75.7429 H   0  0  0  0  0  0  0  0  0  0  0  0
   -0.3343   56.6450   74.1714 H   0  0  0  0  0  0  0  0  0  0  0  0
   -1.3816   57.5928   76.8476 H   0  0  0  0  0  0  0  0  0  0  0  0
   -2.2854   57.2026   75.3859 H   0  0  0  0  0  0  0  0  0  0  0  0
   -1.7200   55.4293   77.5931 H   0  0  0  0  0  0  0  0  0  0  0  0
   -2.4289   54.9422   76.0365 H   0  0  0  0  0  0  0  0  0  0  0  0
    0.7078   55.8294   78.1778 H   0  0  0  0  0  0  0  0  0  0  0  0
    2.2957   56.3229   77.4984 H   0  0  0  0  0  0  0  0  0  0  0  0
    0.9206   57.4785   77.4984 H   0  0  0  0  0  0  0  0  0  0  0  0
    2.7407   59.6391   75.7864 H   0  0  0  0  0  0  0  0  0  0  0  0
    4.1468   60.1872   74.8121 H   0  0  0  0  0  0  0  0  0  0  0  0
    2.6264   61.1439   74.8121 H   0  0  0  0  0  0  0  0  0  0  0  0
    0.0960   53.5722   79.2773 H   0  0  0  0  0  0  0  0  0  0  0  0
   -1.4219   53.9466   78.3928 H   0  0  0  0  0  0  0  0  0  0  0  0
   -0.7722   52.2720   78.3928 H   0  0  0  0  0  0  0  0  0  0  0  0
    0.2005   51.2377   74.8481 H   0  0  0  0  0  0  0  0  0  0  0  0
   -0.9371   51.2474   73.4580 H   0  0  0  0  0  0  0  0  0  0  0  0
    0.4903   52.3378   73.4580 H   0  0  0  0  0  0  0  0  0  0  0  0
  2  1  2  0
  3  2  1  0
  4  3  1  0
  5  4  1  0
  6  5  1  0
  7  6  2  0
  7  2  1  0
  8  6  1  0
  9  8  2  0
 10  9  1  0
 11 10  1  0
 11  5  1  0
 12 11  1  0
 13 12  1  0
 14 13  1  0
 15 14  1  0
 15 10  1  0
 16 15  1  0
 17 16  1  0
 18 17  1  0
 18 14  1  0
 14 19  1  1
 20  8  1  0
  5 21  1  1
 22 18  1  0
 23 22  2  0
 24 22  1  0
 18 25  1  6
 26 25  1  0
 27 26  2  0
 28 26  1  0
  3 29  1  0
  3 30  1  0
  4 31  1  0
  4 32  1  0
  7 33  1  0
  9 34  1  0
 10 35  1  1
 11 36  1  6
 12 37  1  0
 12 38  1  0
 13 39  1  0
 13 40  1  0
 15 41  1  6
 16 42  1  0
 16 43  1  0
 17 44  1  0
 17 45  1  0
 19 46  1  0
 19 47  1  0
 19 48  1  0
 21 49  1  0
 21 50  1  0
 21 51  1  0
 24 52  1  0
 24 53  1  0
 24 54  1  0
 28 55  1  0
 28 56  1  0
 28 57  1  0
M  END
>  <score>  (9) 
-6.603

$$$$
