=
     RDKit          3D

111116  0  0  0  0  0  0  0  0999 V2000
    1.3030   59.0690   75.3850 C   0  0  2  0  0  0  0  0  0  0  0  0
    1.4960   57.5650   75.7090 C   0  0  0  0  0  0  0  0  0  0  0  0
    2.8930   57.7490   76.0090 O   0  0  0  0  0  0  0  0  0  0  0  0
    2.8300   59.1750   75.7280 C   0  0  2  0  0  0  0  0  0  0  0  0
    3.3690   59.9280   76.9370 C   0  0  0  0  0  0  0  0  0  0  0  0
    2.3350   60.8420   77.5810 C   0  0  1  0  0  0  0  0  0  0  0  0
    0.9370   60.1890   77.7600 C   0  0  2  0  0  0  0  0  0  0  0  0
    0.3690   59.9430   76.2980 C   0  0  2  0  0  0  0  0  0  0  0  0
   -1.1510   59.5560   76.1910 C   0  0  1  0  0  0  0  0  0  0  0  0
   -2.1800   60.7200   75.7900 C   0  0  2  0  0  0  0  0  0  0  0  0
   -1.8670   61.3860   74.4160 C   0  0  0  0  0  0  0  0  0  0  0  0
   -1.0600   62.7070   74.4490 C   0  0  1  0  0  0  0  0  0  0  0  0
   -0.5490   63.1350   75.8160 C   0  0  0  0  0  0  0  0  0  0  0  0
   -1.0430   62.5900   76.9570 C   0  0  0  0  0  0  0  0  0  0  0  0
   -2.3700   61.8100   76.8950 C   0  0  0  0  0  0  0  0  0  0  0  0
   -2.9130   61.1760   78.2070 C   0  0  0  0  0  0  0  0  0  0  0  0
   -3.5030   62.8240   76.5250 C   0  0  0  0  0  0  0  0  0  0  0  0
   -0.2370   62.6040   78.2280 C   0  0  2  0  0  0  0  0  0  0  0  0
    0.1020   61.1620   78.6700 C   0  0  0  0  0  0  0  0  0  0  0  0
   -0.2560   60.8260   79.8120 O   0  0  0  0  0  0  0  0  0  0  0  0
    0.5690   64.1510   75.7920 C   0  0  0  0  0  0  0  0  0  0  0  0
    1.0420   58.8830   78.5930 C   0  0  0  0  0  0  0  0  0  0  0  0
    2.8530   61.3100   78.8250 O   0  0  0  0  0  0  0  0  0  0  0  0
   -0.9780   63.3160   79.2060 O   0  0  0  0  0  0  0  0  0  0  0  0
   -3.4620   60.0650   75.6120 O   0  0  0  0  0  0  0  0  0  0  0  0
    0.1140   62.5190   73.6250 O   0  0  0  0  0  0  0  0  0  0  0  0
    0.0280   62.9370   72.3290 C   0  0  0  0  0  0  0  0  0  0  0  0
   -0.5520   62.3370   71.4360 O   0  0  0  0  0  0  0  0  0  0  0  0
    0.7070   64.2990   72.1750 C   0  0  2  0  0  0  0  0  0  0  0  0
   -0.1530   65.3490   72.6320 O   0  0  0  0  0  0  0  0  0  0  0  0
    1.1340   64.4510   70.6810 C   0  0  2  0  0  0  0  0  0  0  0  0
    2.3080   63.5430   70.3480 C   0  0  0  0  0  0  0  0  0  0  0  0
    2.1470   62.4330   69.4980 C   0  0  0  0  0  0  0  0  0  0  0  0
    3.2290   61.6060   69.1990 C   0  0  0  0  0  0  0  0  0  0  0  0
    4.4840   61.8760   69.7400 C   0  0  0  0  0  0  0  0  0  0  0  0
    4.6580   62.9720   70.5820 C   0  0  0  0  0  0  0  0  0  0  0  0
    3.5770   63.8010   70.8870 C   0  0  0  0  0  0  0  0  0  0  0  0
    1.4450   65.8160   70.2670 N   0  0  0  0  0  0  0  0  0  0  0  0
    0.6980   66.4910   69.3520 C   0  0  0  0  0  0  0  0  0  0  0  0
   -0.3820   66.0980   68.9310 O   0  0  0  0  0  0  0  0  0  0  0  0
    1.3390   67.6250   69.0050 O   0  0  0  0  0  0  0  0  0  0  0  0
    1.1770   68.1930   67.6780 C   0  0  0  0  0  0  0  0  0  0  0  0
    1.5340   67.1790   66.5860 C   0  0  0  0  0  0  0  0  0  0  0  0
   -0.2330   68.7620   67.4960 C   0  0  0  0  0  0  0  0  0  0  0  0
    2.1860   69.3500   67.6220 C   0  0  0  0  0  0  0  0  0  0  0  0
   -1.3600   58.5230   75.1760 O   0  0  0  0  0  0  0  0  0  0  0  0
   -2.0760   57.4250   75.5310 C   0  0  0  0  0  0  0  0  0  0  0  0
   -3.1540   57.4300   76.0980 O   0  0  0  0  0  0  0  0  0  0  0  0
   -1.3360   56.1880   75.1680 C   0  0  0  0  0  0  0  0  0  0  0  0
   -0.7810   55.9910   73.8960 C   0  0  0  0  0  0  0  0  0  0  0  0
   -0.0940   54.8090   73.6080 C   0  0  0  0  0  0  0  0  0  0  0  0
    0.0390   53.8230   74.5830 C   0  0  0  0  0  0  0  0  0  0  0  0
   -0.5160   54.0100   75.8490 C   0  0  0  0  0  0  0  0  0  0  0  0
   -1.2040   55.1890   76.1420 C   0  0  0  0  0  0  0  0  0  0  0  0
    0.9200   59.3840   74.0040 O   0  0  0  0  0  0  0  0  0  0  0  0
    2.4530   60.1730   72.4000 C   0  0  0  0  0  0  0  0  0  0  0  0
    1.7170   58.9960   72.9680 C   0  0  0  0  0  0  0  0  0  0  0  0
    1.8030   57.8700   72.5020 O   0  0  0  0  0  0  0  0  0  0  0  0
    0.9030   57.2206   76.5691 H   0  0  0  0  0  0  0  0  0  0  0  0
    1.2029   56.8137   74.9610 H   0  0  0  0  0  0  0  0  0  0  0  0
    3.4018   59.7241   74.9655 H   0  0  0  0  0  0  0  0  0  0  0  0
    3.7029   59.1947   77.6859 H   0  0  0  0  0  0  0  0  0  0  0  0
    4.1954   60.5635   76.5860 H   0  0  0  0  0  0  0  0  0  0  0  0
    2.1622   61.6841   76.8946 H   0  0  0  0  0  0  0  0  0  0  0  0
    0.3921   60.9570   75.8722 H   0  0  0  0  0  0  0  0  0  0  0  0
   -1.3664   59.2428   77.2232 H   0  0  0  0  0  0  0  0  0  0  0  0
   -1.2953   60.6615   73.8174 H   0  0  0  0  0  0  0  0  0  0  0  0
   -2.8473   61.6576   73.9975 H   0  0  0  0  0  0  0  0  0  0  0  0
   -1.7562   63.4869   74.1068 H   0  0  0  0  0  0  0  0  0  0  0  0
   -2.4718   61.6911   79.0731 H   0  0  0  0  0  0  0  0  0  0  0  0
   -4.0078   61.2785   78.2380 H   0  0  0  0  0  0  0  0  0  0  0  0
   -2.6435   60.1100   78.2380 H   0  0  0  0  0  0  0  0  0  0  0  0
   -3.9512   63.2251   77.4460 H   0  0  0  0  0  0  0  0  0  0  0  0
   -3.0782   63.6491   75.9345 H   0  0  0  0  0  0  0  0  0  0  0  0
   -4.2761   62.3106   75.9345 H   0  0  0  0  0  0  0  0  0  0  0  0
    0.7278   63.1105   78.0775 H   0  0  0  0  0  0  0  0  0  0  0  0
    0.8525   64.4086   76.8231 H   0  0  0  0  0  0  0  0  0  0  0  0
    1.4383   63.7273   75.2677 H   0  0  0  0  0  0  0  0  0  0  0  0
    0.2302   65.0567   75.2677 H   0  0  0  0  0  0  0  0  0  0  0  0
    1.0222   59.1292   79.6649 H   0  0  0  0  0  0  0  0  0  0  0  0
    0.1938   58.2253   78.3521 H   0  0  0  0  0  0  0  0  0  0  0  0
    1.9843   58.3692   78.3521 H   0  0  0  0  0  0  0  0  0  0  0  0
    2.3689   60.8726   79.5696 H   0  0  0  0  0  0  0  0  0  0  0  0
   -0.6864   63.0358   80.1096 H   0  0  0  0  0  0  0  0  0  0  0  0
   -3.8556   59.8639   76.4978 H   0  0  0  0  0  0  0  0  0  0  0  0
    1.6077   64.3689   72.8026 H   0  0  0  0  0  0  0  0  0  0  0  0
   -0.1624   65.3605   73.6219 H   0  0  0  0  0  0  0  0  0  0  0  0
    0.2425   64.1494   70.1115 H   0  0  0  0  0  0  0  0  0  0  0  0
    1.1590   62.2160   69.0658 H   0  0  0  0  0  0  0  0  0  0  0  0
    3.0915   60.7396   68.5353 H   0  0  0  0  0  0  0  0  0  0  0  0
    5.3374   61.2239   69.5024 H   0  0  0  0  0  0  0  0  0  0  0  0
    5.6497   63.1848   71.0077 H   0  0  0  0  0  0  0  0  0  0  0  0
    3.7215   64.6629   71.5550 H   0  0  0  0  0  0  0  0  0  0  0  0
    2.2613   66.2860   70.6837 H   0  0  0  0  0  0  0  0  0  0  0  0
    1.8649   66.2393   67.0523 H   0  0  0  0  0  0  0  0  0  0  0  0
    0.6495   66.9867   65.9609 H   0  0  0  0  0  0  0  0  0  0  0  0
    2.3439   67.5832   65.9609 H   0  0  0  0  0  0  0  0  0  0  0  0
   -0.6849   68.9444   68.4822 H   0  0  0  0  0  0  0  0  0  0  0  0
   -0.1774   69.7081   66.9376 H   0  0  0  0  0  0  0  0  0  0  0  0
   -0.8496   68.0423   66.9376 H   0  0  0  0  0  0  0  0  0  0  0  0
    2.4517   69.6547   68.6450 H   0  0  0  0  0  0  0  0  0  0  0  0
    3.0913   69.0216   67.0904 H   0  0  0  0  0  0  0  0  0  0  0  0
    1.7375   70.2022   67.0904 H   0  0  0  0  0  0  0  0  0  0  0  0
   -0.8864   56.7675   73.1240 H   0  0  0  0  0  0  0  0  0  0  0  0
    0.3425   54.6568   72.6099 H   0  0  0  0  0  0  0  0  0  0  0  0
    0.5830   52.8947   74.3540 H   0  0  0  0  0  0  0  0  0  0  0  0
   -0.4116   53.2288   76.6163 H   0  0  0  0  0  0  0  0  0  0  0  0
   -1.6436   55.3342   77.1399 H   0  0  0  0  0  0  0  0  0  0  0  0
    2.8412   60.7937   73.2210 H   0  0  0  0  0  0  0  0  0  0  0  0
    3.2903   59.8180   71.7812 H   0  0  0  0  0  0  0  0  0  0  0  0
    1.7673   60.7704   71.7812 H   0  0  0  0  0  0  0  0  0  0  0  0
  2  1  1  0
  3  2  1  0
  4  3  1  0
  4  1  1  0
  5  4  1  0
  6  5  1  0
  7  6  1  0
  8  1  1  0
  8  7  1  0
  9  8  1  0
 10  9  1  0
 11 10  1  0
 12 11  1  0
 13 12  1  0
 14 13  2  0
 15 10  1  0
 15 14  1  0
 16 15  1  0
 17 15  1  0
 18 14  1  0
 19 18  1  0
 19  7  1  0
 20 19  2  0
 21 13  1  0
  7 22  1  1
 23  6  1  0
 24 18  1  0
 10 25  1  6
 26 12  1  0
 27 26  1  0
 28 27  2  0
 29 27  1  0
 30 29  1  0
 31 29  1  0
 32 31  1  0
 33 32  2  0
 34 33  1  0
 35 34  2  0
 36 35  1  0
 37 36  2  0
 37 32  1  0
 38 31  1  0
 39 38  1  0
 40 39  2  0
 41 39  1  0
 42 41  1  0
 43 42  1  0
 44 42  1  0
 45 42  1  0
 46  9  1  0
 47 46  1  0
 48 47  2  0
 49 47  1  0
 50 49  2  0
 51 50  1  0
 52 51  2  0
 53 52  1  0
 54 53  2  0
 54 49  1  0
  1 55  1  6
 57 55  1  0
 57 56  1  0
 58 57  2  0
  2 59  1  0
  2 60  1  0
  4 61  1  6
  5 62  1  0
  5 63  1  0
  6 64  1  6
  8 65  1  6
  9 66  1  1
 11 67  1  0
 11 68  1  0
 12 69  1  6
 16 70  1  0
 16 71  1  0
 16 72  1  0
 17 73  1  0
 17 74  1  0
 17 75  1  0
 18 76  1  6
 21 77  1  0
 21 78  1  0
 21 79  1  0
 22 80  1  0
 22 81  1  0
 22 82  1  0
 23 83  1  0
 24 84  1  0
 25 85  1  0
 29 86  1  1
 30 87  1  0
 31 88  1  6
 33 89  1  0
 34 90  1  0
 35 91  1  0
 36 92  1  0
 37 93  1  0
 38 94  1  0
 43 95  1  0
 43 96  1  0
 43 97  1  0
 44 98  1  0
 44 99  1  0
 44100  1  0
 45101  1  0
 45102  1  0
 45103  1  0
 50104  1  0
 51105  1  0
 52106  1  0
 53107  1  0
 54108  1  0
 56109  1  0
 56110  1  0
 56111  1  0
M  END
>  <score>  (1) 
-8.45

$$$$
=
     RDKit          3D

111116  0  0  0  0  0  0  0  0999 V2000
    1.3880   60.5730   77.0970 C   0  0  2  0  0  0  0  0  0  0  0  0
    2.8200   61.0540   77.4490 C   0  0  0  0  0  0  0  0  0  0  0  0
    2.4640   61.2960   78.8230 O   0  0  0  0  0  0  0  0  0  0  0  0
    1.0900   60.8690   78.6080 C   0  0  2  0  0  0  0  0  0  0  0  0
    0.7580   59.7850   79.6260 C   0  0  0  0  0  0  0  0  0  0  0  0
    0.4100   58.4490   78.9840 C   0  0  1  0  0  0  0  0  0  0  0  0
    1.3700   58.0280   77.8370 C   0  0  2  0  0  0  0  0  0  0  0  0
    1.1560   59.0800   76.6680 C   0  0  2  0  0  0  0  0  0  0  0  0
    1.7960   58.7220   75.2760 C   0  0  1  0  0  0  0  0  0  0  0  0
    0.8220   58.1160   74.1530 C   0  0  2  0  0  0  0  0  0  0  0  0
   -0.3690   59.0520   73.7880 C   0  0  0  0  0  0  0  0  0  0  0  0
   -1.7190   58.7710   74.4920 C   0  0  1  0  0  0  0  0  0  0  0  0
   -1.6930   57.6920   75.5640 C   0  0  0  0  0  0  0  0  0  0  0  0
   -0.6590   56.8170   75.6590 C   0  0  0  0  0  0  0  0  0  0  0  0
    0.3070   56.6730   74.4690 C   0  0  0  0  0  0  0  0  0  0  0  0
    1.4960   55.6810   74.6020 C   0  0  0  0  0  0  0  0  0  0  0  0
   -0.4970   56.0670   73.2710 C   0  0  0  0  0  0  0  0  0  0  0  0
   -0.3630   56.1170   76.9580 C   0  0  2  0  0  0  0  0  0  0  0  0
    1.0270   56.5320   77.4930 C   0  0  0  0  0  0  0  0  0  0  0  0
    1.8430   55.6200   77.7060 O   0  0  0  0  0  0  0  0  0  0  0  0
   -2.8590   57.7160   76.5240 C   0  0  0  0  0  0  0  0  0  0  0  0
    2.8380   57.9770   78.3400 C   0  0  0  0  0  0  0  0  0  0  0  0
    0.3510   57.4550   80.0040 O   0  0  0  0  0  0  0  0  0  0  0  0
   -0.4660   54.7190   76.7330 O   0  0  0  0  0  0  0  0  0  0  0  0
    1.6230   58.0300   72.9470 O   0  0  0  0  0  0  0  0  0  0  0  0
   -2.1220   59.9880   75.1600 O   0  0  0  0  0  0  0  0  0  0  0  0
   -2.8390   60.8850   74.4240 C   0  0  0  0  0  0  0  0  0  0  0  0
   -2.6010   61.1910   73.2640 O   0  0  0  0  0  0  0  0  0  0  0  0
   -4.0260   61.4010   75.2410 C   0  0  2  0  0  0  0  0  0  0  0  0
   -3.6960   61.4550   76.6340 O   0  0  0  0  0  0  0  0  0  0  0  0
   -5.2520   60.4880   74.9280 C   0  0  2  0  0  0  0  0  0  0  0  0
   -6.4360   61.3050   74.4320 C   0  0  0  0  0  0  0  0  0  0  0  0
   -7.1850   60.8920   73.3160 C   0  0  0  0  0  0  0  0  0  0  0  0
   -8.2690   61.6480   72.8700 C   0  0  0  0  0  0  0  0  0  0  0  0
   -8.6190   62.8220   73.5320 C   0  0  0  0  0  0  0  0  0  0  0  0
   -7.8870   63.2420   74.6390 C   0  0  0  0  0  0  0  0  0  0  0  0
   -6.8000   62.4900   75.0880 C   0  0  0  0  0  0  0  0  0  0  0  0
   -5.6800   59.6340   76.0310 N   0  0  0  0  0  0  0  0  0  0  0  0
   -6.2730   58.4260   75.8340 C   0  0  0  0  0  0  0  0  0  0  0  0
   -6.3390   57.8690   74.7450 O   0  0  0  0  0  0  0  0  0  0  0  0
   -6.7550   57.9690   77.0080 O   0  0  0  0  0  0  0  0  0  0  0  0
   -8.1650   58.0940   77.3300 C   0  0  0  0  0  0  0  0  0  0  0  0
   -8.7610   59.3840   76.7550 C   0  0  0  0  0  0  0  0  0  0  0  0
   -8.9400   56.8520   76.8800 C   0  0  0  0  0  0  0  0  0  0  0  0
   -8.2100   58.1740   78.8630 C   0  0  0  0  0  0  0  0  0  0  0  0
    2.3800   59.9060   74.6470 O   0  0  0  0  0  0  0  0  0  0  0  0
    3.5820   59.7640   74.0300 C   0  0  0  0  0  0  0  0  0  0  0  0
    4.4280   58.9300   74.3000 O   0  0  0  0  0  0  0  0  0  0  0  0
    3.7530   60.8110   72.9870 C   0  0  0  0  0  0  0  0  0  0  0  0
    4.9540   60.9830   72.2850 C   0  0  0  0  0  0  0  0  0  0  0  0
    5.0590   61.9810   71.3150 C   0  0  0  0  0  0  0  0  0  0  0  0
    3.9720   62.8110   71.0440 C   0  0  0  0  0  0  0  0  0  0  0  0
    2.7770   62.6480   71.7430 C   0  0  0  0  0  0  0  0  0  0  0  0
    2.6660   61.6520   72.7140 C   0  0  0  0  0  0  0  0  0  0  0  0
    0.6610   61.3880   76.1160 O   0  0  0  0  0  0  0  0  0  0  0  0
    0.8230   63.7360   76.1960 C   0  0  0  0  0  0  0  0  0  0  0  0
    0.0080   62.5170   76.5150 C   0  0  0  0  0  0  0  0  0  0  0  0
   -1.0600   62.5660   77.1050 O   0  0  0  0  0  0  0  0  0  0  0  0
    3.5883   60.2768   77.3240 H   0  0  0  0  0  0  0  0  0  0  0  0
    3.2720   61.8666   76.8614 H   0  0  0  0  0  0  0  0  0  0  0  0
    0.1809   61.4707   78.7544 H   0  0  0  0  0  0  0  0  0  0  0  0
    1.6295   59.6418   80.2817 H   0  0  0  0  0  0  0  0  0  0  0  0
   -0.1277   60.1206   80.1854 H   0  0  0  0  0  0  0  0  0  0  0  0
   -0.5706   58.5596   78.4979 H   0  0  0  0  0  0  0  0  0  0  0  0
    0.0776   58.9858   76.4725 H   0  0  0  0  0  0  0  0  0  0  0  0
    2.5193   57.9451   75.5645 H   0  0  0  0  0  0  0  0  0  0  0  0
   -0.0717   60.0813   74.0371 H   0  0  0  0  0  0  0  0  0  0  0  0
   -0.5589   58.8728   72.7194 H   0  0  0  0  0  0  0  0  0  0  0  0
   -2.3978   58.4217   73.7000 H   0  0  0  0  0  0  0  0  0  0  0  0
    1.7084   55.5038   75.6667 H   0  0  0  0  0  0  0  0  0  0  0  0
    1.2352   54.7289   74.1167 H   0  0  0  0  0  0  0  0  0  0  0  0
    2.3860   56.1082   74.1167 H   0  0  0  0  0  0  0  0  0  0  0  0
   -1.3194   55.4471   73.6575 H   0  0  0  0  0  0  0  0  0  0  0  0
   -0.9090   56.8812   72.6567 H   0  0  0  0  0  0  0  0  0  0  0  0
    0.1722   55.4467   72.6567 H   0  0  0  0  0  0  0  0  0  0  0  0
   -1.0868   56.4057   77.7344 H   0  0  0  0  0  0  0  0  0  0  0  0
   -2.4831   57.7083   77.5577 H   0  0  0  0  0  0  0  0  0  0  0  0
   -3.4530   58.6266   76.3567 H   0  0  0  0  0  0  0  0  0  0  0  0
   -3.4900   56.8307   76.3567 H   0  0  0  0  0  0  0  0  0  0  0  0
    2.8489   57.9766   79.4399 H   0  0  0  0  0  0  0  0  0  0  0  0
    3.3214   57.0615   77.9682 H   0  0  0  0  0  0  0  0  0  0  0  0
    3.3838   58.8567   77.9682 H   0  0  0  0  0  0  0  0  0  0  0  0
    0.3769   57.8916   80.8921 H   0  0  0  0  0  0  0  0  0  0  0  0
   -0.5008   54.2465   77.6023 H   0  0  0  0  0  0  0  0  0  0  0  0
    2.5770   57.9276   73.1911 H   0  0  0  0  0  0  0  0  0  0  0  0
   -4.2830   62.4338   74.9631 H   0  0  0  0  0  0  0  0  0  0  0  0
   -4.5157   61.3209   77.1727 H   0  0  0  0  0  0  0  0  0  0  0  0
   -4.8932   59.8139   74.1362 H   0  0  0  0  0  0  0  0  0  0  0  0
   -6.9137   59.9647   72.7901 H   0  0  0  0  0  0  0  0  0  0  0  0
   -8.8476   61.3167   71.9951 H   0  0  0  0  0  0  0  0  0  0  0  0
   -9.4742   63.4177   73.1801 H   0  0  0  0  0  0  0  0  0  0  0  0
   -8.1659   64.1690   75.1614 H   0  0  0  0  0  0  0  0  0  0  0  0
   -6.2250   62.8291   75.9623 H   0  0  0  0  0  0  0  0  0  0  0  0
   -5.5271   59.9587   76.9964 H   0  0  0  0  0  0  0  0  0  0  0  0
   -9.0667   60.0457   77.5788 H   0  0  0  0  0  0  0  0  0  0  0  0
   -8.0066   59.8927   76.1368 H   0  0  0  0  0  0  0  0  0  0  0  0
   -9.6373   59.1393   76.1368 H   0  0  0  0  0  0  0  0  0  0  0  0
   -9.2868   56.2961   77.7636 H   0  0  0  0  0  0  0  0  0  0  0  0
   -9.8069   57.1594   76.2766 H   0  0  0  0  0  0  0  0  0  0  0  0
   -8.2829   56.2084   76.2766 H   0  0  0  0  0  0  0  0  0  0  0  0
   -7.7132   57.2908   79.2910 H   0  0  0  0  0  0  0  0  0  0  0  0
   -7.6917   59.0846   79.1980 H   0  0  0  0  0  0  0  0  0  0  0  0
   -9.2573   58.2039   79.1980 H   0  0  0  0  0  0  0  0  0  0  0  0
    5.8140   60.3312   72.4987 H   0  0  0  0  0  0  0  0  0  0  0  0
    6.0013   62.1130   70.7631 H   0  0  0  0  0  0  0  0  0  0  0  0
    4.0575   63.5955   70.2776 H   0  0  0  0  0  0  0  0  0  0  0  0
    1.9210   63.3049   71.5290 H   0  0  0  0  0  0  0  0  0  0  0  0
    1.7230   61.5268   73.2664 H   0  0  0  0  0  0  0  0  0  0  0  0
    1.1447   64.2171   77.1314 H   0  0  0  0  0  0  0  0  0  0  0  0
    1.7075   63.4430   75.6114 H   0  0  0  0  0  0  0  0  0  0  0  0
    0.2142   64.4414   75.6114 H   0  0  0  0  0  0  0  0  0  0  0  0
  2  1  1  0
  3  2  1  0
  4  3  1  0
  4  1  1  0
  5  4  1  0
  6  5  1  0
  7  6  1  0
  8  1  1  0
  8  7  1  0
  9  8  1  0
 10  9  1  0
 11 10  1  0
 12 11  1  0
 13 12  1  0
 14 13  2  0
 15 10  1  0
 15 14  1  0
 16 15  1  0
 17 15  1  0
 18 14  1  0
 19 18  1  0
 19  7  1  0
 20 19  2  0
 21 13  1  0
  7 22  1  1
 23  6  1  0
 24 18  1  0
 10 25  1  6
 26 12  1  0
 27 26  1  0
 28 27  2  0
 29 27  1  0
 30 29  1  0
 31 29  1  0
 32 31  1  0
 33 32  2  0
 34 33  1  0
 35 34  2  0
 36 35  1  0
 37 36  2  0
 37 32  1  0
 38 31  1  0
 39 38  1  0
 40 39  2  0
 41 39  1  0
 42 41  1  0
 43 42  1  0
 44 42  1  0
 45 42  1  0
 46  9  1  0
 47 46  1  0
 48 47  2  0
 49 47  1  0
 50 49  2  0
 51 50  1  0
 52 51  2  0
 53 52  1  0
 54 53  2  0
 54 49  1  0
  1 55  1  6
 57 55  1  0
 57 56  1  0
 58 57  2  0
  2 59  1  0
  2 60  1  0
  4 61  1  6
  5 62  1  0
  5 63  1  0
  6 64  1  6
  8 65  1  6
  9 66  1  1
 11 67  1  0
 11 68  1  0
 12 69  1  6
 16 70  1  0
 16 71  1  0
 16 72  1  0
 17 73  1  0
 17 74  1  0
 17 75  1  0
 18 76  1  1
 21 77  1  0
 21 78  1  0
 21 79  1  0
 22 80  1  0
 22 81  1  0
 22 82  1  0
 23 83  1  0
 24 84  1  0
 25 85  1  0
 29 86  1  6
 30 87  1  0
 31 88  1  6
 33 89  1  0
 34 90  1  0
 35 91  1  0
 36 92  1  0
 37 93  1  0
 38 94  1  0
 43 95  1  0
 43 96  1  0
 43 97  1  0
 44 98  1  0
 44 99  1  0
 44100  1  0
 45101  1  0
 45102  1  0
 45103  1  0
 50104  1  0
 51105  1  0
 52106  1  0
 53107  1  0
 54108  1  0
 56109  1  0
 56110  1  0
 56111  1  0
M  END
>  <score>  (2) 
-7.899

$$$$
=
     RDKit          3D

111116  0  0  0  0  0  0  0  0999 V2000
    0.0860   62.0170   76.8190 C   0  0  2  0  0  0  0  0  0  0  0  0
    1.1370   63.1540   76.9070 C   0  0  0  0  0  0  0  0  0  0  0  0
    0.8760   63.3670   78.3070 O   0  0  0  0  0  0  0  0  0  0  0  0
   -0.1350   62.3200   78.3420 C   0  0  2  0  0  0  0  0  0  0  0  0
    0.2240   61.3430   79.4540 C   0  0  0  0  0  0  0  0  0  0  0  0
    0.4910   59.9320   78.9450 C   0  0  1  0  0  0  0  0  0  0  0  0
    1.3910   59.8760   77.6790 C   0  0  2  0  0  0  0  0  0  0  0  0
    0.5560   60.5500   76.5090 C   0  0  2  0  0  0  0  0  0  0  0  0
    1.1170   60.3680   75.0520 C   0  0  1  0  0  0  0  0  0  0  0  0
    0.4310   59.2420   74.1360 C   0  0  2  0  0  0  0  0  0  0  0  0
   -1.0980   59.4540   73.9240 C   0  0  0  0  0  0  0  0  0  0  0  0
   -2.0480   58.6600   74.8530 C   0  0  1  0  0  0  0  0  0  0  0  0
   -1.3750   57.8620   75.9590 C   0  0  0  0  0  0  0  0  0  0  0  0
   -0.0440   57.5950   75.9270 C   0  0  0  0  0  0  0  0  0  0  0  0
    0.7210   57.7780   74.6040 C   0  0  0  0  0  0  0  0  0  0  0  0
    2.2480   57.4870   74.5890 C   0  0  0  0  0  0  0  0  0  0  0  0
    0.1730   56.7230   73.5850 C   0  0  0  0  0  0  0  0  0  0  0  0
    0.7070   57.2820   77.1930 C   0  0  2  0  0  0  0  0  0  0  0  0
    1.7750   58.3650   77.4710 C   0  0  0  0  0  0  0  0  0  0  0  0
    2.9500   57.9780   77.5930 O   0  0  0  0  0  0  0  0  0  0  0  0
   -2.2820   57.4510   77.0950 C   0  0  0  0  0  0  0  0  0  0  0  0
    2.7480   60.5840   77.9360 C   0  0  0  0  0  0  0  0  0  0  0  0
    1.0440   59.1610   80.0100 O   0  0  0  0  0  0  0  0  0  0  0  0
    1.2670   55.9850   77.0590 O   0  0  0  0  0  0  0  0  0  0  0  0
    1.0230   59.3950   72.8200 O   0  0  0  0  0  0  0  0  0  0  0  0
   -2.9060   59.6160   75.5160 O   0  0  0  0  0  0  0  0  0  0  0  0
   -4.1400   59.8170   74.9700 C   0  0  0  0  0  0  0  0  0  0  0  0
   -4.4620   60.7890   74.3020 O   0  0  0  0  0  0  0  0  0  0  0  0
   -5.0410   58.6140   75.2610 C   0  0  2  0  0  0  0  0  0  0  0  0
   -5.6610   58.1430   74.0590 O   0  0  0  0  0  0  0  0  0  0  0  0
   -6.0620   59.0400   76.3620 C   0  0  2  0  0  0  0  0  0  0  0  0
   -6.7140   57.8270   77.0080 C   0  0  0  0  0  0  0  0  0  0  0  0
   -8.0880   57.5730   76.8520 C   0  0  0  0  0  0  0  0  0  0  0  0
   -8.6770   56.4580   77.4480 C   0  0  0  0  0  0  0  0  0  0  0  0
   -7.9020   55.5820   78.2040 C   0  0  0  0  0  0  0  0  0  0  0  0
   -6.5400   55.8200   78.3660 C   0  0  0  0  0  0  0  0  0  0  0  0
   -5.9470   56.9360   77.7730 C   0  0  0  0  0  0  0  0  0  0  0  0
   -7.0980   59.9650   75.9140 N   0  0  0  0  0  0  0  0  0  0  0  0
   -7.2780   61.1900   76.4790 C   0  0  0  0  0  0  0  0  0  0  0  0
   -6.4970   61.6950   77.2740 O   0  0  0  0  0  0  0  0  0  0  0  0
   -8.4290   61.7250   76.0230 O   0  0  0  0  0  0  0  0  0  0  0  0
   -8.4250   62.6510   74.9050 C   0  0  0  0  0  0  0  0  0  0  0  0
   -7.1390   63.4850   74.8710 C   0  0  0  0  0  0  0  0  0  0  0  0
   -8.6680   61.9150   73.5840 C   0  0  0  0  0  0  0  0  0  0  0  0
   -9.6110   63.5900   75.1710 C   0  0  0  0  0  0  0  0  0  0  0  0
    0.9760   61.6000   74.2760 O   0  0  0  0  0  0  0  0  0  0  0  0
    2.0500   62.0210   73.5590 C   0  0  0  0  0  0  0  0  0  0  0  0
    3.1970   61.6350   73.7000 O   0  0  0  0  0  0  0  0  0  0  0  0
    1.6410   63.0690   72.5860 C   0  0  0  0  0  0  0  0  0  0  0  0
    0.4580   63.8060   72.7300 C   0  0  0  0  0  0  0  0  0  0  0  0
    0.1220   64.7800   71.7870 C   0  0  0  0  0  0  0  0  0  0  0  0
    0.9620   65.0210   70.7010 C   0  0  0  0  0  0  0  0  0  0  0  0
    2.1380   64.2870   70.5500 C   0  0  0  0  0  0  0  0  0  0  0  0
    2.4780   63.3110   71.4890 C   0  0  0  0  0  0  0  0  0  0  0  0
   -1.0560   62.2660   75.9310 O   0  0  0  0  0  0  0  0  0  0  0  0
   -3.1500   62.9410   76.7730 C   0  0  0  0  0  0  0  0  0  0  0  0
   -1.8560   63.3520   76.1350 C   0  0  0  0  0  0  0  0  0  0  0  0
   -1.6120   64.5030   75.8060 O   0  0  0  0  0  0  0  0  0  0  0  0
    2.1640   62.8208   76.6968 H   0  0  0  0  0  0  0  0  0  0  0  0
    1.0654   64.0046   76.2132 H   0  0  0  0  0  0  0  0  0  0  0  0
   -1.1970   62.4345   78.6047 H   0  0  0  0  0  0  0  0  0  0  0  0
    1.1279   61.7086   79.9633 H   0  0  0  0  0  0  0  0  0  0  0  0
   -0.6382   61.2890   80.1349 H   0  0  0  0  0  0  0  0  0  0  0  0
   -0.4707   59.5073   78.6215 H   0  0  0  0  0  0  0  0  0  0  0  0
   -0.3562   59.9354   76.4976 H   0  0  0  0  0  0  0  0  0  0  0  0
    2.1545   60.0656   75.2571 H   0  0  0  0  0  0  0  0  0  0  0  0
   -1.3088   60.5239   74.0684 H   0  0  0  0  0  0  0  0  0  0  0  0
   -1.3033   59.0763   72.9115 H   0  0  0  0  0  0  0  0  0  0  0  0
   -2.5624   57.9379   74.2019 H   0  0  0  0  0  0  0  0  0  0  0  0
    2.6180   57.4165   75.6225 H   0  0  0  0  0  0  0  0  0  0  0  0
    2.4351   56.5370   74.0669 H   0  0  0  0  0  0  0  0  0  0  0  0
    2.7714   58.3016   74.0669 H   0  0  0  0  0  0  0  0  0  0  0  0
   -0.2664   55.8770   74.1338 H   0  0  0  0  0  0  0  0  0  0  0  0
   -0.5968   57.1894   72.9527 H   0  0  0  0  0  0  0  0  0  0  0  0
    0.9973   56.3614   72.9527 H   0  0  0  0  0  0  0  0  0  0  0  0
    0.0328   57.2884   78.0622 H   0  0  0  0  0  0  0  0  0  0  0  0
   -1.7918   57.6731   78.0543 H   0  0  0  0  0  0  0  0  0  0  0  0
   -3.2280   58.0084   77.0289 H   0  0  0  0  0  0  0  0  0  0  0  0
   -2.4866   56.3722   77.0289 H   0  0  0  0  0  0  0  0  0  0  0  0
    2.9163   60.6718   79.0195 H   0  0  0  0  0  0  0  0  0  0  0  0
    3.5602   59.9947   77.4853 H   0  0  0  0  0  0  0  0  0  0  0  0
    2.7293   61.5873   77.4853 H   0  0  0  0  0  0  0  0  0  0  0  0
    0.7658   59.5489   80.8773 H   0  0  0  0  0  0  0  0  0  0  0  0
    1.4322   55.6025   77.9571 H   0  0  0  0  0  0  0  0  0  0  0  0
    1.9772   59.6416   72.9140 H   0  0  0  0  0  0  0  0  0  0  0  0
   -4.4585   57.7612   75.6396 H   0  0  0  0  0  0  0  0  0  0  0  0
   -6.4277   57.5606   74.2895 H   0  0  0  0  0  0  0  0  0  0  0  0
   -5.4550   59.5870   77.0984 H   0  0  0  0  0  0  0  0  0  0  0  0
   -8.7045   58.2603   76.2541 H   0  0  0  0  0  0  0  0  0  0  0  0
   -9.7534   56.2706   77.3209 H   0  0  0  0  0  0  0  0  0  0  0  0
   -8.3661   54.7020   78.6732 H   0  0  0  0  0  0  0  0  0  0  0  0
   -5.9293   55.1267   78.9630 H   0  0  0  0  0  0  0  0  0  0  0  0
   -4.8704   57.1179   77.9066 H   0  0  0  0  0  0  0  0  0  0  0  0
   -7.7163   59.6800   75.1411 H   0  0  0  0  0  0  0  0  0  0  0  0
   -6.8121   63.6970   75.8997 H   0  0  0  0  0  0  0  0  0  0  0  0
   -6.3524   62.9247   74.3445 H   0  0  0  0  0  0  0  0  0  0  0  0
   -7.3298   64.4318   74.3445 H   0  0  0  0  0  0  0  0  0  0  0  0
   -9.0066   60.8894   73.7926 H   0  0  0  0  0  0  0  0  0  0  0  0
   -9.4388   62.4451   73.0053 H   0  0  0  0  0  0  0  0  0  0  0  0
   -7.7331   61.8819   73.0053 H   0  0  0  0  0  0  0  0  0  0  0  0
   -9.7533   63.7027   76.2559 H   0  0  0  0  0  0  0  0  0  0  0  0
   -9.4070   64.5741   74.7238 H   0  0  0  0  0  0  0  0  0  0  0  0
  -10.5221   63.1657   74.7238 H   0  0  0  0  0  0  0  0  0  0  0  0
   -0.2064   63.6174   73.5861 H   0  0  0  0  0  0  0  0  0  0  0  0
   -0.8070   65.3578   71.9015 H   0  0  0  0  0  0  0  0  0  0  0  0
    0.6968   65.7914   69.9620 H   0  0  0  0  0  0  0  0  0  0  0  0
    2.7981   64.4769   69.6908 H   0  0  0  0  0  0  0  0  0  0  0  0
    3.4048   62.7311   71.3671 H   0  0  0  0  0  0  0  0  0  0  0  0
   -3.0459   62.9741   77.8676 H   0  0  0  0  0  0  0  0  0  0  0  0
   -3.9484   63.6298   76.4596 H   0  0  0  0  0  0  0  0  0  0  0  0
   -3.4046   61.9178   76.4596 H   0  0  0  0  0  0  0  0  0  0  0  0
  2  1  1  0
  3  2  1  0
  4  3  1  0
  4  1  1  0
  5  4  1  0
  6  5  1  0
  7  6  1  0
  8  1  1  0
  8  7  1  0
  9  8  1  0
 10  9  1  0
 11 10  1  0
 12 11  1  0
 13 12  1  0
 14 13  2  0
 15 10  1  0
 15 14  1  0
 16 15  1  0
 17 15  1  0
 18 14  1  0
 19 18  1  0
 19  7  1  0
 20 19  2  0
 21 13  1  0
  7 22  1  1
 23  6  1  0
 24 18  1  0
 10 25  1  6
 26 12  1  0
 27 26  1  0
 28 27  2  0
 29 27  1  0
 30 29  1  0
 31 29  1  0
 32 31  1  0
 33 32  2  0
 34 33  1  0
 35 34  2  0
 36 35  1  0
 37 36  2  0
 37 32  1  0
 38 31  1  0
 39 38  1  0
 40 39  2  0
 41 39  1  0
 42 41  1  0
 43 42  1  0
 44 42  1  0
 45 42  1  0
 46  9  1  0
 47 46  1  0
 48 47  2  0
 49 47  1  0
 50 49  2  0
 51 50  1  0
 52 51  2  0
 53 52  1  0
 54 53  2  0
 54 49  1  0
  1 55  1  6
 57 55  1  0
 57 56  1  0
 58 57  2  0
  2 59  1  0
  2 60  1  0
  4 61  1  6
  5 62  1  0
  5 63  1  0
  6 64  1  6
  8 65  1  6
  9 66  1  1
 11 67  1  0
 11 68  1  0
 12 69  1  6
 16 70  1  0
 16 71  1  0
 16 72  1  0
 17 73  1  0
 17 74  1  0
 17 75  1  0
 18 76  1  1
 21 77  1  0
 21 78  1  0
 21 79  1  0
 22 80  1  0
 22 81  1  0
 22 82  1  0
 23 83  1  0
 24 84  1  0
 25 85  1  0
 29 86  1  1
 30 87  1  0
 31 88  1  1
 33 89  1  0
 34 90  1  0
 35 91  1  0
 36 92  1  0
 37 93  1  0
 38 94  1  0
 43 95  1  0
 43 96  1  0
 43 97  1  0
 44 98  1  0
 44 99  1  0
 44100  1  0
 45101  1  0
 45102  1  0
 45103  1  0
 50104  1  0
 51105  1  0
 52106  1  0
 53107  1  0
 54108  1  0
 56109  1  0
 56110  1  0
 56111  1  0
M  END
>  <score>  (3) 
-7.573

$$$$
=
     RDKit          3D

111116  0  0  0  0  0  0  0  0999 V2000
    1.2180   60.5010   77.0360 C   0  0  2  0  0  0  0  0  0  0  0  0
    2.6370   61.0340   77.3610 C   0  0  0  0  0  0  0  0  0  0  0  0
    2.2940   61.2760   78.7390 O   0  0  0  0  0  0  0  0  0  0  0  0
    0.9320   60.7990   78.5490 C   0  0  2  0  0  0  0  0  0  0  0  0
    0.6550   59.7140   79.5810 C   0  0  0  0  0  0  0  0  0  0  0  0
    0.3440   58.3600   78.9560 C   0  0  1  0  0  0  0  0  0  0  0  0
    1.3010   57.9630   77.7980 C   0  0  2  0  0  0  0  0  0  0  0  0
    1.0320   58.9960   76.6230 C   0  0  2  0  0  0  0  0  0  0  0  0
    1.6620   58.6480   75.2250 C   0  0  1  0  0  0  0  0  0  0  0  0
    0.6930   57.9980   74.1230 C   0  0  2  0  0  0  0  0  0  0  0  0
   -0.5370   58.8880   73.7680 C   0  0  0  0  0  0  0  0  0  0  0  0
   -1.8650   58.5660   74.4960 C   0  0  1  0  0  0  0  0  0  0  0  0
   -1.7830   57.4990   75.5770 C   0  0  0  0  0  0  0  0  0  0  0  0
   -0.7180   56.6610   75.6630 C   0  0  0  0  0  0  0  0  0  0  0  0
    0.2340   56.5410   74.4590 C   0  0  0  0  0  0  0  0  0  0  0  0
    1.4590   55.5920   74.5810 C   0  0  0  0  0  0  0  0  0  0  0  0
   -0.5670   55.8960   73.2790 C   0  0  0  0  0  0  0  0  0  0  0  0
   -0.3770   55.9840   76.9630 C   0  0  2  0  0  0  0  0  0  0  0  0
    1.0050   56.4530   77.4720 C   0  0  0  0  0  0  0  0  0  0  0  0
    1.8570   55.5720   77.6800 O   0  0  0  0  0  0  0  0  0  0  0  0
   -2.9340   57.4900   76.5550 C   0  0  0  0  0  0  0  0  0  0  0  0
    2.7780   57.9680   78.2780 C   0  0  0  0  0  0  0  0  0  0  0  0
    0.3370   57.3740   79.9860 O   0  0  0  0  0  0  0  0  0  0  0  0
   -0.4340   54.5820   76.7520 O   0  0  0  0  0  0  0  0  0  0  0  0
    1.4770   57.9290   72.9040 O   0  0  0  0  0  0  0  0  0  0  0  0
   -2.3000   59.7740   75.1600 O   0  0  0  0  0  0  0  0  0  0  0  0
   -3.1120   60.6090   74.4490 C   0  0  0  0  0  0  0  0  0  0  0  0
   -2.7300   61.4160   73.6140 O   0  0  0  0  0  0  0  0  0  0  0  0
   -4.5760   60.3370   74.8010 C   0  0  2  0  0  0  0  0  0  0  0  0
   -5.3720   60.2360   73.6150 O   0  0  0  0  0  0  0  0  0  0  0  0
   -5.0480   61.4630   75.7730 C   0  0  2  0  0  0  0  0  0  0  0  0
   -6.5550   61.6560   75.7040 C   0  0  0  0  0  0  0  0  0  0  0  0
   -7.4340   60.6970   76.2380 C   0  0  0  0  0  0  0  0  0  0  0  0
   -8.8150   60.8820   76.1700 C   0  0  0  0  0  0  0  0  0  0  0  0
   -9.3350   62.0270   75.5700 C   0  0  0  0  0  0  0  0  0  0  0  0
   -8.4770   62.9860   75.0380 C   0  0  0  0  0  0  0  0  0  0  0  0
   -7.0940   62.8020   75.1020 C   0  0  0  0  0  0  0  0  0  0  0  0
   -4.3860   62.7500   75.5900 N   0  0  0  0  0  0  0  0  0  0  0  0
   -3.6910   63.3640   76.5850 C   0  0  0  0  0  0  0  0  0  0  0  0
   -3.4070   62.8280   77.6490 O   0  0  0  0  0  0  0  0  0  0  0  0
   -3.3830   64.6210   76.2040 O   0  0  0  0  0  0  0  0  0  0  0  0
   -4.2670   65.7290   76.5180 C   0  0  0  0  0  0  0  0  0  0  0  0
   -3.4980   66.9030   77.1330 C   0  0  0  0  0  0  0  0  0  0  0  0
   -5.0710   66.1520   75.2840 C   0  0  0  0  0  0  0  0  0  0  0  0
   -5.2360   65.1720   77.5700 C   0  0  0  0  0  0  0  0  0  0  0  0
    2.1940   59.8460   74.5760 O   0  0  0  0  0  0  0  0  0  0  0  0
    3.4630   59.7910   74.0930 C   0  0  0  0  0  0  0  0  0  0  0  0
    4.3610   59.0920   74.5270 O   0  0  0  0  0  0  0  0  0  0  0  0
    3.6280   60.7490   72.9680 C   0  0  0  0  0  0  0  0  0  0  0  0
    4.8850   61.1880   72.5330 C   0  0  0  0  0  0  0  0  0  0  0  0
    4.9830   62.0880   71.4700 C   0  0  0  0  0  0  0  0  0  0  0  0
    3.8300   62.5530   70.8390 C   0  0  0  0  0  0  0  0  0  0  0  0
    2.5750   62.1240   71.2700 C   0  0  0  0  0  0  0  0  0  0  0  0
    2.4720   61.2240   72.3330 C   0  0  0  0  0  0  0  0  0  0  0  0
    0.4470   61.2800   76.0590 O   0  0  0  0  0  0  0  0  0  0  0  0
    1.1390   63.2640   74.9950 C   0  0  0  0  0  0  0  0  0  0  0  0
    0.4090   62.6410   76.1490 C   0  0  0  0  0  0  0  0  0  0  0  0
   -0.0870   63.2940   77.0540 O   0  0  0  0  0  0  0  0  0  0  0  0
    3.4297   60.2827   77.2304 H   0  0  0  0  0  0  0  0  0  0  0  0
    3.0514   61.8564   76.7594 H   0  0  0  0  0  0  0  0  0  0  0  0
    0.0040   61.3688   78.7041 H   0  0  0  0  0  0  0  0  0  0  0  0
    1.5414   59.6076   80.2236 H   0  0  0  0  0  0  0  0  0  0  0  0
   -0.2329   60.0234   80.1519 H   0  0  0  0  0  0  0  0  0  0  0  0
   -0.6475   58.4308   78.4848 H   0  0  0  0  0  0  0  0  0  0  0  0
   -0.0452   58.8622   76.4449 H   0  0  0  0  0  0  0  0  0  0  0  0
    2.4166   57.8997   75.5091 H   0  0  0  0  0  0  0  0  0  0  0  0
   -0.2729   59.9297   74.0028 H   0  0  0  0  0  0  0  0  0  0  0  0
   -0.7369   58.6917   72.7043 H   0  0  0  0  0  0  0  0  0  0  0  0
   -2.5436   58.1857   73.7183 H   0  0  0  0  0  0  0  0  0  0  0  0
    1.6836   55.4180   75.6437 H   0  0  0  0  0  0  0  0  0  0  0  0
    1.2301   54.6332   74.0928 H   0  0  0  0  0  0  0  0  0  0  0  0
    2.3302   56.0532   74.0928 H   0  0  0  0  0  0  0  0  0  0  0  0
   -1.3636   55.2546   73.6840 H   0  0  0  0  0  0  0  0  0  0  0  0
   -1.0135   56.6896   72.6619 H   0  0  0  0  0  0  0  0  0  0  0  0
    0.1131   55.2905   72.6619 H   0  0  0  0  0  0  0  0  0  0  0  0
   -1.0982   56.2539   77.7485 H   0  0  0  0  0  0  0  0  0  0  0  0
   -2.5419   57.4931   77.5827 H   0  0  0  0  0  0  0  0  0  0  0  0
   -3.5562   58.3833   76.3973 H   0  0  0  0  0  0  0  0  0  0  0  0
   -3.5421   56.5871   76.3973 H   0  0  0  0  0  0  0  0  0  0  0  0
    2.8062   57.9681   79.3776 H   0  0  0  0  0  0  0  0  0  0  0  0
    3.2900   57.0716   77.8982 H   0  0  0  0  0  0  0  0  0  0  0  0
    3.2839   58.8679   77.8982 H   0  0  0  0  0  0  0  0  0  0  0  0
    0.3402   57.8200   80.8698 H   0  0  0  0  0  0  0  0  0  0  0  0
   -0.4529   54.1173   77.6259 H   0  0  0  0  0  0  0  0  0  0  0  0
    2.4364   57.8446   73.1330 H   0  0  0  0  0  0  0  0  0  0  0  0
   -4.6911   59.3686   75.3099 H   0  0  0  0  0  0  0  0  0  0  0  0
   -6.3224   60.1154   73.8647 H   0  0  0  0  0  0  0  0  0  0  0  0
   -4.7534   61.1019   76.7694 H   0  0  0  0  0  0  0  0  0  0  0  0
   -7.0286   59.7920   76.7140 H   0  0  0  0  0  0  0  0  0  0  0  0
   -9.4931   60.1244   76.5898 H   0  0  0  0  0  0  0  0  0  0  0  0
  -10.4239   62.1734   75.5166 H   0  0  0  0  0  0  0  0  0  0  0  0
   -8.8892   63.8903   74.5664 H   0  0  0  0  0  0  0  0  0  0  0  0
   -6.4222   63.5622   74.6768 H   0  0  0  0  0  0  0  0  0  0  0  0
   -4.4473   63.2118   74.6714 H   0  0  0  0  0  0  0  0  0  0  0  0
   -3.5421   66.8357   78.2301 H   0  0  0  0  0  0  0  0  0  0  0  0
   -2.4486   66.8659   76.8052 H   0  0  0  0  0  0  0  0  0  0  0  0
   -3.9513   67.8502   76.8052 H   0  0  0  0  0  0  0  0  0  0  0  0
   -6.0025   66.6421   75.6036 H   0  0  0  0  0  0  0  0  0  0  0  0
   -4.4756   66.8536   74.6813 H   0  0  0  0  0  0  0  0  0  0  0  0
   -5.3120   65.2639   74.6813 H   0  0  0  0  0  0  0  0  0  0  0  0
   -4.8512   65.3932   78.5765 H   0  0  0  0  0  0  0  0  0  0  0  0
   -6.2232   65.6405   77.4437 H   0  0  0  0  0  0  0  0  0  0  0  0
   -5.3280   64.0832   77.4437 H   0  0  0  0  0  0  0  0  0  0  0  0
    5.7962   60.8232   73.0295 H   0  0  0  0  0  0  0  0  0  0  0  0
    5.9714   62.4307   71.1299 H   0  0  0  0  0  0  0  0  0  0  0  0
    3.9104   63.2595   69.9997 H   0  0  0  0  0  0  0  0  0  0  0  0
    1.6664   62.4944   70.7728 H   0  0  0  0  0  0  0  0  0  0  0  0
    1.4815   60.8871   72.6727 H   0  0  0  0  0  0  0  0  0  0  0  0
    1.9239   63.9338   75.3762 H   0  0  0  0  0  0  0  0  0  0  0  0
    1.5971   62.4742   74.3815 H   0  0  0  0  0  0  0  0  0  0  0  0
    0.4310   63.8406   74.3815 H   0  0  0  0  0  0  0  0  0  0  0  0
  2  1  1  0
  3  2  1  0
  4  3  1  0
  4  1  1  0
  5  4  1  0
  6  5  1  0
  7  6  1  0
  8  1  1  0
  8  7  1  0
  9  8  1  0
 10  9  1  0
 11 10  1  0
 12 11  1  0
 13 12  1  0
 14 13  2  0
 15 10  1  0
 15 14  1  0
 16 15  1  0
 17 15  1  0
 18 14  1  0
 19 18  1  0
 19  7  1  0
 20 19  2  0
 21 13  1  0
  7 22  1  1
 23  6  1  0
 24 18  1  0
 10 25  1  6
 26 12  1  0
 27 26  1  0
 28 27  2  0
 29 27  1  0
 30 29  1  0
 31 29  1  0
 32 31  1  0
 33 32  2  0
 34 33  1  0
 35 34  2  0
 36 35  1  0
 37 36  2  0
 37 32  1  0
 38 31  1  0
 39 38  1  0
 40 39  2  0
 41 39  1  0
 42 41  1  0
 43 42  1  0
 44 42  1  0
 45 42  1  0
 46  9  1  0
 47 46  1  0
 48 47  2  0
 49 47  1  0
 50 49  2  0
 51 50  1  0
 52 51  2  0
 53 52  1  0
 54 53  2  0
 54 49  1  0
  1 55  1  6
 57 55  1  0
 57 56  1  0
 58 57  2  0
  2 59  1  0
  2 60  1  0
  4 61  1  6
  5 62  1  0
  5 63  1  0
  6 64  1  6
  8 65  1  6
  9 66  1  1
 11 67  1  0
 11 68  1  0
 12 69  1  6
 16 70  1  0
 16 71  1  0
 16 72  1  0
 17 73  1  0
 17 74  1  0
 17 75  1  0
 18 76  1  1
 21 77  1  0
 21 78  1  0
 21 79  1  0
 22 80  1  0
 22 81  1  0
 22 82  1  0
 23 83  1  0
 24 84  1  0
 25 85  1  0
 29 86  1  1
 30 87  1  0
 31 88  1  1
 33 89  1  0
 34 90  1  0
 35 91  1  0
 36 92  1  0
 37 93  1  0
 38 94  1  0
 43 95  1  0
 43 96  1  0
 43 97  1  0
 44 98  1  0
 44 99  1  0
 44100  1  0
 45101  1  0
 45102  1  0
 45103  1  0
 50104  1  0
 51105  1  0
 52106  1  0
 53107  1  0
 54108  1  0
 56109  1  0
 56110  1  0
 56111  1  0
M  END
>  <score>  (4) 
-7.395

$$$$
=
     RDKit          3D

111116  0  0  0  0  0  0  0  0999 V2000
    1.2930   60.5320   77.0690 C   0  0  2  0  0  0  0  0  0  0  0  0
    2.7060   61.0570   77.4340 C   0  0  0  0  0  0  0  0  0  0  0  0
    2.3240   61.3060   78.8000 O   0  0  0  0  0  0  0  0  0  0  0  0
    0.9650   60.8390   78.5720 C   0  0  2  0  0  0  0  0  0  0  0  0
    0.6490   59.7600   79.6000 C   0  0  0  0  0  0  0  0  0  0  0  0
    0.3470   58.4060   78.9710 C   0  0  1  0  0  0  0  0  0  0  0  0
    1.3350   57.9970   77.8430 C   0  0  2  0  0  0  0  0  0  0  0  0
    1.1080   59.0270   76.6570 C   0  0  2  0  0  0  0  0  0  0  0  0
    1.7770   58.6700   75.2790 C   0  0  1  0  0  0  0  0  0  0  0  0
    0.8360   58.0220   74.1510 C   0  0  2  0  0  0  0  0  0  0  0  0
   -0.3750   58.9190   73.7560 C   0  0  0  0  0  0  0  0  0  0  0  0
   -1.7270   58.6100   74.4460 C   0  0  1  0  0  0  0  0  0  0  0  0
   -1.6860   57.5470   75.5320 C   0  0  0  0  0  0  0  0  0  0  0  0
   -0.6300   56.7020   75.6540 C   0  0  0  0  0  0  0  0  0  0  0  0
    0.3570   56.5700   74.4790 C   0  0  0  0  0  0  0  0  0  0  0  0
    1.5710   55.6130   74.6410 C   0  0  0  0  0  0  0  0  0  0  0  0
   -0.4130   55.9260   73.2780 C   0  0  0  0  0  0  0  0  0  0  0  0
   -0.3320   56.0270   76.9660 C   0  0  2  0  0  0  0  0  0  0  0  0
    1.0380   56.4880   77.5140 C   0  0  0  0  0  0  0  0  0  0  0  0
    1.8760   55.6020   77.7500 O   0  0  0  0  0  0  0  0  0  0  0  0
   -2.8650   57.5500   76.4760 C   0  0  0  0  0  0  0  0  0  0  0  0
    2.7970   57.9930   78.3660 C   0  0  0  0  0  0  0  0  0  0  0  0
    0.3010   57.4240   80.0030 O   0  0  0  0  0  0  0  0  0  0  0  0
   -0.3940   54.6250   76.7580 O   0  0  0  0  0  0  0  0  0  0  0  0
    1.6560   57.9420   72.9570 O   0  0  0  0  0  0  0  0  0  0  0  0
   -2.1730   59.8240   75.0920 O   0  0  0  0  0  0  0  0  0  0  0  0
   -3.0650   60.5940   74.4050 C   0  0  0  0  0  0  0  0  0  0  0  0
   -2.8020   61.2550   73.4110 O   0  0  0  0  0  0  0  0  0  0  0  0
   -4.4580   60.4550   75.0230 C   0  0  2  0  0  0  0  0  0  0  0  0
   -5.4740   60.7110   74.0470 O   0  0  0  0  0  0  0  0  0  0  0  0
   -4.5280   61.4070   76.2580 C   0  0  2  0  0  0  0  0  0  0  0  0
   -4.4860   60.6240   77.5610 C   0  0  0  0  0  0  0  0  0  0  0  0
   -3.3710   60.6950   78.4150 C   0  0  0  0  0  0  0  0  0  0  0  0
   -3.3410   59.9740   79.6080 C   0  0  0  0  0  0  0  0  0  0  0  0
   -4.4240   59.1740   79.9650 C   0  0  0  0  0  0  0  0  0  0  0  0
   -5.5370   59.0950   79.1310 C   0  0  0  0  0  0  0  0  0  0  0  0
   -5.5690   59.8140   77.9340 C   0  0  0  0  0  0  0  0  0  0  0  0
   -5.6740   62.3110   76.2720 N   0  0  0  0  0  0  0  0  0  0  0  0
   -5.5620   63.6380   75.9960 C   0  0  0  0  0  0  0  0  0  0  0  0
   -4.5500   64.1570   75.5430 O   0  0  0  0  0  0  0  0  0  0  0  0
   -6.7220   64.2550   76.2990 O   0  0  0  0  0  0  0  0  0  0  0  0
   -7.5200   64.8860   75.2630 C   0  0  0  0  0  0  0  0  0  0  0  0
   -6.8630   66.1750   74.7560 C   0  0  0  0  0  0  0  0  0  0  0  0
   -7.8130   63.9040   74.1240 C   0  0  0  0  0  0  0  0  0  0  0  0
   -8.8430   65.2480   75.9540 C   0  0  0  0  0  0  0  0  0  0  0  0
    2.3380   59.8610   74.6420 O   0  0  0  0  0  0  0  0  0  0  0  0
    3.5630   59.7520   74.0670 C   0  0  0  0  0  0  0  0  0  0  0  0
    4.4250   58.9460   74.3720 O   0  0  0  0  0  0  0  0  0  0  0  0
    3.7380   60.7950   73.0220 C   0  0  0  0  0  0  0  0  0  0  0  0
    2.6990   61.6540   72.6380 C   0  0  0  0  0  0  0  0  0  0  0  0
    2.9170   62.6180   71.6510 C   0  0  0  0  0  0  0  0  0  0  0  0
    4.1680   62.7280   71.0460 C   0  0  0  0  0  0  0  0  0  0  0  0
    5.2040   61.8730   71.4200 C   0  0  0  0  0  0  0  0  0  0  0  0
    4.9910   60.9070   72.4060 C   0  0  0  0  0  0  0  0  0  0  0  0
    0.5570   61.3140   76.0670 O   0  0  0  0  0  0  0  0  0  0  0  0
   -1.1300   62.8890   76.5360 C   0  0  0  0  0  0  0  0  0  0  0  0
    0.3260   62.6420   76.2720 C   0  0  0  0  0  0  0  0  0  0  0  0
    1.1510   63.5400   76.2010 O   0  0  0  0  0  0  0  0  0  0  0  0
    3.4972   60.3000   77.3294 H   0  0  0  0  0  0  0  0  0  0  0  0
    3.1436   61.8745   76.8422 H   0  0  0  0  0  0  0  0  0  0  0  0
    0.0375   61.4169   78.6975 H   0  0  0  0  0  0  0  0  0  0  0  0
    1.5149   59.6498   80.2694 H   0  0  0  0  0  0  0  0  0  0  0  0
   -0.2532   60.0782   80.1429 H   0  0  0  0  0  0  0  0  0  0  0  0
   -0.6293   58.4830   78.4701 H   0  0  0  0  0  0  0  0  0  0  0  0
    0.0355   58.8990   76.4486 H   0  0  0  0  0  0  0  0  0  0  0  0
    2.5176   57.9177   75.5881 H   0  0  0  0  0  0  0  0  0  0  0  0
   -0.1100   59.9597   73.9941 H   0  0  0  0  0  0  0  0  0  0  0  0
   -0.5447   58.7196   72.6876 H   0  0  0  0  0  0  0  0  0  0  0  0
   -2.3848   58.2318   73.6496 H   0  0  0  0  0  0  0  0  0  0  0  0
    1.7725   55.4542   75.7107 H   0  0  0  0  0  0  0  0  0  0  0  0
    1.3438   54.6484   74.1635 H   0  0  0  0  0  0  0  0  0  0  0  0
    2.4559   56.0591   74.1635 H   0  0  0  0  0  0  0  0  0  0  0  0
   -1.2038   55.2646   73.6618 H   0  0  0  0  0  0  0  0  0  0  0  0
   -0.8644   56.7193   72.6641 H   0  0  0  0  0  0  0  0  0  0  0  0
    0.2880   55.3415   72.6641 H   0  0  0  0  0  0  0  0  0  0  0  0
   -1.0735   56.3049   77.7295 H   0  0  0  0  0  0  0  0  0  0  0  0
   -2.5030   57.5491   77.5147 H   0  0  0  0  0  0  0  0  0  0  0  0
   -3.4730   58.4497   76.3004 H   0  0  0  0  0  0  0  0  0  0  0  0
   -3.4776   56.6534   76.3004 H   0  0  0  0  0  0  0  0  0  0  0  0
    2.7929   57.9930   79.4660 H   0  0  0  0  0  0  0  0  0  0  0  0
    3.3144   57.0934   78.0013 H   0  0  0  0  0  0  0  0  0  0  0  0
    3.3194   58.8897   78.0013 H   0  0  0  0  0  0  0  0  0  0  0  0
    0.3220   57.8717   80.8857 H   0  0  0  0  0  0  0  0  0  0  0  0
   -0.4145   54.1622   77.6329 H   0  0  0  0  0  0  0  0  0  0  0  0
    2.6071   57.8492   73.2155 H   0  0  0  0  0  0  0  0  0  0  0  0
   -4.6404   59.4263   75.3672 H   0  0  0  0  0  0  0  0  0  0  0  0
   -6.3251   60.9254   74.5050 H   0  0  0  0  0  0  0  0  0  0  0  0
   -3.6341   62.0411   76.1637 H   0  0  0  0  0  0  0  0  0  0  0  0
   -2.5134   61.3261   78.1389 H   0  0  0  0  0  0  0  0  0  0  0  0
   -2.4625   60.0369   80.2670 H   0  0  0  0  0  0  0  0  0  0  0  0
   -4.4004   58.6045   80.9058 H   0  0  0  0  0  0  0  0  0  0  0  0
   -6.3925   58.4650   79.4158 H   0  0  0  0  0  0  0  0  0  0  0  0
   -6.4499   59.7446   77.2789 H   0  0  0  0  0  0  0  0  0  0  0  0
   -6.6032   61.9292   76.4996 H   0  0  0  0  0  0  0  0  0  0  0  0
   -6.5501   66.7889   75.6135 H   0  0  0  0  0  0  0  0  0  0  0  0
   -5.9835   65.9227   74.1454 H   0  0  0  0  0  0  0  0  0  0  0  0
   -7.5839   66.7384   74.1454 H   0  0  0  0  0  0  0  0  0  0  0  0
   -8.1036   62.9302   74.5451 H   0  0  0  0  0  0  0  0  0  0  0  0
   -8.6336   64.2952   73.5046 H   0  0  0  0  0  0  0  0  0  0  0  0
   -6.9123   63.7816   73.5046 H   0  0  0  0  0  0  0  0  0  0  0  0
   -8.7088   65.2113   77.0452 H   0  0  0  0  0  0  0  0  0  0  0  0
   -9.1468   66.2623   75.6559 H   0  0  0  0  0  0  0  0  0  0  0  0
   -9.6209   64.5297   75.6559 H   0  0  0  0  0  0  0  0  0  0  0  0
    1.7112   61.5688   73.1143 H   0  0  0  0  0  0  0  0  0  0  0  0
    2.1005   63.2912   71.3508 H   0  0  0  0  0  0  0  0  0  0  0  0
    4.3382   63.4908   70.2720 H   0  0  0  0  0  0  0  0  0  0  0  0
    6.1892   61.9593   70.9384 H   0  0  0  0  0  0  0  0  0  0  0  0
    5.8090   60.2327   72.6994 H   0  0  0  0  0  0  0  0  0  0  0  0
   -1.3059   62.9188   77.6214 H   0  0  0  0  0  0  0  0  0  0  0  0
   -1.4256   63.8501   76.0901 H   0  0  0  0  0  0  0  0  0  0  0  0
   -1.7260   62.0791   76.0901 H   0  0  0  0  0  0  0  0  0  0  0  0
  2  1  1  0
  3  2  1  0
  4  3  1  0
  4  1  1  0
  5  4  1  0
  6  5  1  0
  7  6  1  0
  8  1  1  0
  8  7  1  0
  9  8  1  0
 10  9  1  0
 11 10  1  0
 12 11  1  0
 13 12  1  0
 14 13  2  0
 15 10  1  0
 15 14  1  0
 16 15  1  0
 17 15  1  0
 18 14  1  0
 19 18  1  0
 19  7  1  0
 20 19  2  0
 21 13  1  0
  7 22  1  1
 23  6  1  0
 24 18  1  0
 10 25  1  6
 26 12  1  0
 27 26  1  0
 28 27  2  0
 29 27  1  0
 30 29  1  0
 31 29  1  0
 32 31  1  0
 33 32  2  0
 34 33  1  0
 35 34  2  0
 36 35  1  0
 37 36  2  0
 37 32  1  0
 38 31  1  0
 39 38  1  0
 40 39  2  0
 41 39  1  0
 42 41  1  0
 43 42  1  0
 44 42  1  0
 45 42  1  0
 46  9  1  0
 47 46  1  0
 48 47  2  0
 49 47  1  0
 50 49  2  0
 51 50  1  0
 52 51  2  0
 53 52  1  0
 54 53  2  0
 54 49  1  0
  1 55  1  6
 57 55  1  0
 57 56  1  0
 58 57  2  0
  2 59  1  0
  2 60  1  0
  4 61  1  6
  5 62  1  0
  5 63  1  0
  6 64  1  6
  8 65  1  6
  9 66  1  1
 11 67  1  0
 11 68  1  0
 12 69  1  6
 16 70  1  0
 16 71  1  0
 16 72  1  0
 17 73  1  0
 17 74  1  0
 17 75  1  0
 18 76  1  1
 21 77  1  0
 21 78  1  0
 21 79  1  0
 22 80  1  0
 22 81  1  0
 22 82  1  0
 23 83  1  0
 24 84  1  0
 25 85  1  0
 29 86  1  1
 30 87  1  0
 31 88  1  1
 33 89  1  0
 34 90  1  0
 35 91  1  0
 36 92  1  0
 37 93  1  0
 38 94  1  0
 43 95  1  0
 43 96  1  0
 43 97  1  0
 44 98  1  0
 44 99  1  0
 44100  1  0
 45101  1  0
 45102  1  0
 45103  1  0
 50104  1  0
 51105  1  0
 52106  1  0
 53107  1  0
 54108  1  0
 56109  1  0
 56110  1  0
 56111  1  0
M  END
>  <score>  (5) 
-7.39

$$$$
=
     RDKit          3D

111116  0  0  0  0  0  0  0  0999 V2000
    0.2910   60.0520   76.3600 C   0  0  2  0  0  0  0  0  0  0  0  0
    1.2380   61.2210   75.9840 C   0  0  0  0  0  0  0  0  0  0  0  0
    1.2410   61.7290   77.3320 O   0  0  0  0  0  0  0  0  0  0  0  0
    0.3500   60.6760   77.7970 C   0  0  2  0  0  0  0  0  0  0  0  0
    1.0020   59.9850   78.9880 C   0  0  0  0  0  0  0  0  0  0  0  0
    1.2840   58.5090   78.7400 C   0  0  1  0  0  0  0  0  0  0  0  0
    1.9180   58.2090   77.3540 C   0  0  2  0  0  0  0  0  0  0  0  0
    0.8150   58.5730   76.2710 C   0  0  2  0  0  0  0  0  0  0  0  0
    1.0900   58.0940   74.7990 C   0  0  1  0  0  0  0  0  0  0  0  0
    0.3370   56.7660   74.3040 C   0  0  2  0  0  0  0  0  0  0  0  0
   -1.2170   56.8640   74.3800 C   0  0  0  0  0  0  0  0  0  0  0  0
   -1.8940   56.2580   75.6340 C   0  0  1  0  0  0  0  0  0  0  0  0
   -0.9500   55.7530   76.7150 C   0  0  0  0  0  0  0  0  0  0  0  0
    0.3660   55.5400   76.4600 C   0  0  0  0  0  0  0  0  0  0  0  0
    0.8370   55.4560   74.9960 C   0  0  0  0  0  0  0  0  0  0  0  0
    2.3500   55.2300   74.7210 C   0  0  0  0  0  0  0  0  0  0  0  0
    0.1920   54.1790   74.3590 C   0  0  0  0  0  0  0  0  0  0  0  0
    1.3760   55.5470   77.5750 C   0  0  2  0  0  0  0  0  0  0  0  0
    2.3810   56.7070   77.3890 C   0  0  0  0  0  0  0  0  0  0  0  0
    3.5860   56.4050   77.3390 O   0  0  0  0  0  0  0  0  0  0  0  0
   -1.5770   55.5690   78.0770 C   0  0  0  0  0  0  0  0  0  0  0  0
    3.2340   59.0110   77.1640 C   0  0  0  0  0  0  0  0  0  0  0  0
    2.1000   58.0170   79.8020 O   0  0  0  0  0  0  0  0  0  0  0  0
    2.0070   54.2760   77.6000 O   0  0  0  0  0  0  0  0  0  0  0  0
    0.6420   56.6470   72.8910 O   0  0  0  0  0  0  0  0  0  0  0  0
   -2.6830   57.3020   76.2490 O   0  0  0  0  0  0  0  0  0  0  0  0
   -4.0370   57.2160   76.1040 C   0  0  0  0  0  0  0  0  0  0  0  0
   -4.6230   57.1230   75.0350 O   0  0  0  0  0  0  0  0  0  0  0  0
   -4.7070   57.1830   77.4790 C   0  0  2  0  0  0  0  0  0  0  0  0
   -5.3040   55.9040   77.7210 O   0  0  0  0  0  0  0  0  0  0  0  0
   -5.7240   58.3650   77.5400 C   0  0  2  0  0  0  0  0  0  0  0  0
   -7.1490   57.8590   77.7090 C   0  0  0  0  0  0  0  0  0  0  0  0
   -7.8110   57.9560   78.9460 C   0  0  0  0  0  0  0  0  0  0  0  0
   -9.1170   57.4890   79.0910 C   0  0  0  0  0  0  0  0  0  0  0  0
   -9.7790   56.9230   78.0050 C   0  0  0  0  0  0  0  0  0  0  0  0
   -9.1370   56.8220   76.7730 C   0  0  0  0  0  0  0  0  0  0  0  0
   -7.8280   57.2860   76.6240 C   0  0  0  0  0  0  0  0  0  0  0  0
   -5.6670   59.2840   76.4070 N   0  0  0  0  0  0  0  0  0  0  0  0
   -5.9720   60.6050   76.5210 C   0  0  0  0  0  0  0  0  0  0  0  0
   -6.1440   61.1750   77.5910 O   0  0  0  0  0  0  0  0  0  0  0  0
   -6.0480   61.1510   75.2900 O   0  0  0  0  0  0  0  0  0  0  0  0
   -7.3350   61.4360   74.6830 C   0  0  0  0  0  0  0  0  0  0  0  0
   -8.4820   60.7860   75.4650 C   0  0  0  0  0  0  0  0  0  0  0  0
   -7.5380   62.9450   74.5140 C   0  0  0  0  0  0  0  0  0  0  0  0
   -7.2630   60.7900   73.2910 C   0  0  0  0  0  0  0  0  0  0  0  0
    0.6950   59.1160   73.8310 O   0  0  0  0  0  0  0  0  0  0  0  0
    1.6030   59.4800   72.8890 C   0  0  0  0  0  0  0  0  0  0  0  0
    2.6050   58.8550   72.5870 O   0  0  0  0  0  0  0  0  0  0  0  0
    1.2320   60.7900   72.2920 C   0  0  0  0  0  0  0  0  0  0  0  0
    2.0970   61.5060   71.4540 C   0  0  0  0  0  0  0  0  0  0  0  0
    1.6960   62.7320   70.9190 C   0  0  0  0  0  0  0  0  0  0  0  0
    0.4360   63.2470   71.2180 C   0  0  0  0  0  0  0  0  0  0  0  0
   -0.4270   62.5420   72.0560 C   0  0  0  0  0  0  0  0  0  0  0  0
   -0.0320   61.3160   72.5940 C   0  0  0  0  0  0  0  0  0  0  0  0
   -1.0210   60.0510   75.7010 O   0  0  0  0  0  0  0  0  0  0  0  0
   -2.3130   62.0170   75.5840 C   0  0  0  0  0  0  0  0  0  0  0  0
   -2.0730   60.7050   76.2720 C   0  0  0  0  0  0  0  0  0  0  0  0
   -2.7140   60.3360   77.2440 O   0  0  0  0  0  0  0  0  0  0  0  0
    2.2279   60.8908   75.6361 H   0  0  0  0  0  0  0  0  0  0  0  0
    0.9591   61.8926   75.1587 H   0  0  0  0  0  0  0  0  0  0  0  0
   -0.6452   60.8033   78.2480 H   0  0  0  0  0  0  0  0  0  0  0  0
    1.9533   60.4911   79.2089 H   0  0  0  0  0  0  0  0  0  0  0  0
    0.2974   60.0478   79.8304 H   0  0  0  0  0  0  0  0  0  0  0  0
    0.3172   57.9846   78.7219 H   0  0  0  0  0  0  0  0  0  0  0  0
   -0.0254   57.9346   76.5809 H   0  0  0  0  0  0  0  0  0  0  0  0
    2.1694   57.8860   74.8395 H   0  0  0  0  0  0  0  0  0  0  0  0
   -1.4857   57.9299   74.3390 H   0  0  0  0  0  0  0  0  0  0  0  0
   -1.5851   56.2632   73.5353 H   0  0  0  0  0  0  0  0  0  0  0  0
   -2.4632   55.3893   75.2715 H   0  0  0  0  0  0  0  0  0  0  0  0
    2.8884   55.1496   75.6769 H   0  0  0  0  0  0  0  0  0  0  0  0
    2.4835   54.3019   74.1458 H   0  0  0  0  0  0  0  0  0  0  0  0
    2.7489   56.0785   74.1458 H   0  0  0  0  0  0  0  0  0  0  0  0
   -0.1492   53.5035   75.1573 H   0  0  0  0  0  0  0  0  0  0  0  0
   -0.6656   54.4732   73.7361 H   0  0  0  0  0  0  0  0  0  0  0  0
    0.9378   53.6634   73.7361 H   0  0  0  0  0  0  0  0  0  0  0  0
    0.8889   55.7195   78.5461 H   0  0  0  0  0  0  0  0  0  0  0  0
   -0.8320   55.7876   78.8562 H   0  0  0  0  0  0  0  0  0  0  0  0
   -2.4307   56.2545   78.1833 H   0  0  0  0  0  0  0  0  0  0  0  0
   -1.9249   54.5309   78.1833 H   0  0  0  0  0  0  0  0  0  0  0  0
    3.6531   59.2664   78.1484 H   0  0  0  0  0  0  0  0  0  0  0  0
    3.9580   58.4004   76.6045 H   0  0  0  0  0  0  0  0  0  0  0  0
    3.0232   59.9343   76.6045 H   0  0  0  0  0  0  0  0  0  0  0  0
    1.6938   58.2619   80.6710 H   0  0  0  0  0  0  0  0  0  0  0  0
    2.1464   53.9952   78.5391 H   0  0  0  0  0  0  0  0  0  0  0  0
    1.5585   56.2894   72.7802 H   0  0  0  0  0  0  0  0  0  0  0  0
   -3.9707   57.3162   78.2853 H   0  0  0  0  0  0  0  0  0  0  0  0
   -5.3749   55.7522   78.6967 H   0  0  0  0  0  0  0  0  0  0  0  0
   -5.4156   58.9430   78.4236 H   0  0  0  0  0  0  0  0  0  0  0  0
   -7.2939   58.4044   79.8071 H   0  0  0  0  0  0  0  0  0  0  0  0
   -9.6243   57.5679   80.0639 H   0  0  0  0  0  0  0  0  0  0  0  0
  -10.8094   56.5554   78.1198 H   0  0  0  0  0  0  0  0  0  0  0  0
   -9.6620   56.3758   75.9155 H   0  0  0  0  0  0  0  0  0  0  0  0
   -7.3262   57.2014   75.6488 H   0  0  0  0  0  0  0  0  0  0  0  0
   -5.3851   58.9183   75.4863 H   0  0  0  0  0  0  0  0  0  0  0  0
   -8.2961   60.8914   76.5440 H   0  0  0  0  0  0  0  0  0  0  0  0
   -9.4293   61.2815   75.2061 H   0  0  0  0  0  0  0  0  0  0  0  0
   -8.5437   59.7187   75.2061 H   0  0  0  0  0  0  0  0  0  0  0  0
   -7.6018   63.4196   75.5043 H   0  0  0  0  0  0  0  0  0  0  0  0
   -6.6888   63.3692   73.9582 H   0  0  0  0  0  0  0  0  0  0  0  0
   -8.4691   63.1297   73.9582 H   0  0  0  0  0  0  0  0  0  0  0  0
   -7.1417   59.7019   73.3976 H   0  0  0  0  0  0  0  0  0  0  0  0
   -8.1905   61.0033   72.7394 H   0  0  0  0  0  0  0  0  0  0  0  0
   -6.4052   61.2023   72.7394 H   0  0  0  0  0  0  0  0  0  0  0  0
    3.0925   61.1022   71.2174 H   0  0  0  0  0  0  0  0  0  0  0  0
    2.3759   63.2923   70.2604 H   0  0  0  0  0  0  0  0  0  0  0  0
    0.1218   64.2113   70.7922 H   0  0  0  0  0  0  0  0  0  0  0  0
   -1.4197   62.9522   72.2933 H   0  0  0  0  0  0  0  0  0  0  0  0
   -0.7136   60.7617   73.2560 H   0  0  0  0  0  0  0  0  0  0  0  0
   -2.4572   62.8052   76.3376 H   0  0  0  0  0  0  0  0  0  0  0  0
   -1.4454   62.2653   74.9551 H   0  0  0  0  0  0  0  0  0  0  0  0
   -3.2123   61.9421   74.9551 H   0  0  0  0  0  0  0  0  0  0  0  0
  2  1  1  0
  3  2  1  0
  4  3  1  0
  4  1  1  0
  5  4  1  0
  6  5  1  0
  7  6  1  0
  8  1  1  0
  8  7  1  0
  9  8  1  0
 10  9  1  0
 11 10  1  0
 12 11  1  0
 13 12  1  0
 14 13  2  0
 15 10  1  0
 15 14  1  0
 16 15  1  0
 17 15  1  0
 18 14  1  0
 19 18  1  0
 19  7  1  0
 20 19  2  0
 21 13  1  0
  7 22  1  6
 23  6  1  0
 24 18  1  0
 10 25  1  6
 26 12  1  0
 27 26  1  0
 28 27  2  0
 29 27  1  0
 30 29  1  0
 31 29  1  0
 32 31  1  0
 33 32  2  0
 34 33  1  0
 35 34  2  0
 36 35  1  0
 37 36  2  0
 37 32  1  0
 38 31  1  0
 39 38  1  0
 40 39  2  0
 41 39  1  0
 42 41  1  0
 43 42  1  0
 44 42  1  0
 45 42  1  0
 46  9  1  0
 47 46  1  0
 48 47  2  0
 49 47  1  0
 50 49  2  0
 51 50  1  0
 52 51  2  0
 53 52  1  0
 54 53  2  0
 54 49  1  0
  1 55  1  6
 57 55  1  0
 57 56  1  0
 58 57  2  0
  2 59  1  0
  2 60  1  0
  4 61  1  1
  5 62  1  0
  5 63  1  0
  6 64  1  6
  8 65  1  1
  9 66  1  1
 11 67  1  0
 11 68  1  0
 12 69  1  6
 16 70  1  0
 16 71  1  0
 16 72  1  0
 17 73  1  0
 17 74  1  0
 17 75  1  0
 18 76  1  1
 21 77  1  0
 21 78  1  0
 21 79  1  0
 22 80  1  0
 22 81  1  0
 22 82  1  0
 23 83  1  0
 24 84  1  0
 25 85  1  0
 29 86  1  1
 30 87  1  0
 31 88  1  1
 33 89  1  0
 34 90  1  0
 35 91  1  0
 36 92  1  0
 37 93  1  0
 38 94  1  0
 43 95  1  0
 43 96  1  0
 43 97  1  0
 44 98  1  0
 44 99  1  0
 44100  1  0
 45101  1  0
 45102  1  0
 45103  1  0
 50104  1  0
 51105  1  0
 52106  1  0
 53107  1  0
 54108  1  0
 56109  1  0
 56110  1  0
 56111  1  0
M  END
>  <score>  (6) 
-7.315

$$$$
=
     RDKit          3D

111116  0  0  0  0  0  0  0  0999 V2000
    0.4050   60.9080   76.4060 C   0  0  2  0  0  0  0  0  0  0  0  0
    1.0580   62.2970   76.1800 C   0  0  0  0  0  0  0  0  0  0  0  0
    0.5020   62.8220   77.4010 O   0  0  0  0  0  0  0  0  0  0  0  0
   -0.1600   61.5640   77.7140 C   0  0  2  0  0  0  0  0  0  0  0  0
    0.2580   61.1380   79.1160 C   0  0  0  0  0  0  0  0  0  0  0  0
    1.0000   59.8080   79.1380 C   0  0  1  0  0  0  0  0  0  0  0  0
    2.0880   59.6710   78.0380 C   0  0  2  0  0  0  0  0  0  0  0  0
    1.3190   59.6540   76.6500 C   0  0  2  0  0  0  0  0  0  0  0  0
    2.1580   59.2360   75.3870 C   0  0  1  0  0  0  0  0  0  0  0  0
    1.9940   57.7290   74.8600 C   0  0  2  0  0  0  0  0  0  0  0  0
    0.5300   57.3570   74.4760 C   0  0  0  0  0  0  0  0  0  0  0  0
   -0.3050   56.6130   75.5460 C   0  0  1  0  0  0  0  0  0  0  0  0
    0.3590   56.4480   76.9040 C   0  0  0  0  0  0  0  0  0  0  0  0
    1.6940   56.6330   77.0650 C   0  0  0  0  0  0  0  0  0  0  0  0
    2.5980   56.6510   75.8180 C   0  0  0  0  0  0  0  0  0  0  0  0
    4.1220   56.8830   76.0170 C   0  0  0  0  0  0  0  0  0  0  0  0
    2.5620   55.2210   75.1820 C   0  0  0  0  0  0  0  0  0  0  0  0
    2.2660   56.9770   78.4140 C   0  0  2  0  0  0  0  0  0  0  0  0
    2.9160   58.3800   78.3850 C   0  0  0  0  0  0  0  0  0  0  0  0
    4.1110   58.4520   78.7180 O   0  0  0  0  0  0  0  0  0  0  0  0
   -0.5820   56.1250   78.0420 C   0  0  0  0  0  0  0  0  0  0  0  0
    3.1220   60.8260   78.1390 C   0  0  0  0  0  0  0  0  0  0  0  0
    1.5500   59.6160   80.4400 O   0  0  0  0  0  0  0  0  0  0  0  0
    3.1850   55.9560   78.7700 O   0  0  0  0  0  0  0  0  0  0  0  0
    2.7410   57.6650   73.6190 O   0  0  0  0  0  0  0  0  0  0  0  0
   -1.5030   57.3890   75.7790 O   0  0  0  0  0  0  0  0  0  0  0  0
   -2.6920   56.7260   75.6930 C   0  0  0  0  0  0  0  0  0  0  0  0
   -2.9280   55.8070   74.9220 O   0  0  0  0  0  0  0  0  0  0  0  0
   -3.6630   57.2570   76.7490 C   0  0  2  0  0  0  0  0  0  0  0  0
   -4.8330   56.4340   76.8210 O   0  0  0  0  0  0  0  0  0  0  0  0
   -3.9720   58.7480   76.4050 C   0  0  2  0  0  0  0  0  0  0  0  0
   -3.7690   59.6470   77.6150 C   0  0  0  0  0  0  0  0  0  0  0  0
   -4.0720   61.0190   77.5580 C   0  0  0  0  0  0  0  0  0  0  0  0
   -3.8830   61.8350   78.6730 C   0  0  0  0  0  0  0  0  0  0  0  0
   -3.3930   61.2930   79.8580 C   0  0  0  0  0  0  0  0  0  0  0  0
   -3.0900   59.9350   79.9300 C   0  0  0  0  0  0  0  0  0  0  0  0
   -3.2760   59.1150   78.8160 C   0  0  0  0  0  0  0  0  0  0  0  0
   -5.2960   58.9860   75.8400 N   0  0  0  0  0  0  0  0  0  0  0  0
   -5.5020   59.8210   74.7850 C   0  0  0  0  0  0  0  0  0  0  0  0
   -4.6010   60.3000   74.1100 O   0  0  0  0  0  0  0  0  0  0  0  0
   -6.8270   60.0170   74.6260 O   0  0  0  0  0  0  0  0  0  0  0  0
   -7.4400   61.2810   74.9920 C   0  0  0  0  0  0  0  0  0  0  0  0
   -6.3890   62.3800   75.1840 C   0  0  0  0  0  0  0  0  0  0  0  0
   -8.5120   61.6830   73.9750 C   0  0  0  0  0  0  0  0  0  0  0  0
   -8.1190   61.0100   76.3420 C   0  0  0  0  0  0  0  0  0  0  0  0
    1.8130   60.0630   74.2300 O   0  0  0  0  0  0  0  0  0  0  0  0
    2.8330   60.6120   73.5210 C   0  0  0  0  0  0  0  0  0  0  0  0
    4.0190   60.3910   73.6890 O   0  0  0  0  0  0  0  0  0  0  0  0
    2.3040   61.5740   72.5180 C   0  0  0  0  0  0  0  0  0  0  0  0
    2.3840   61.3420   71.1390 C   0  0  0  0  0  0  0  0  0  0  0  0
    1.8690   62.2790   70.2400 C   0  0  0  0  0  0  0  0  0  0  0  0
    1.2760   63.4480   70.7130 C   0  0  0  0  0  0  0  0  0  0  0  0
    1.1980   63.6880   72.0850 C   0  0  0  0  0  0  0  0  0  0  0  0
    1.7110   62.7550   72.9870 C   0  0  0  0  0  0  0  0  0  0  0  0
   -0.5850   60.4930   75.4040 O   0  0  0  0  0  0  0  0  0  0  0  0
   -1.3290   61.1550   73.2700 C   0  0  0  0  0  0  0  0  0  0  0  0
   -1.3240   61.4310   74.7450 C   0  0  0  0  0  0  0  0  0  0  0  0
   -1.8690   62.4040   75.2420 O   0  0  0  0  0  0  0  0  0  0  0  0
    2.1577   62.2703   76.1732 H   0  0  0  0  0  0  0  0  0  0  0  0
    0.8733   62.8287   75.2349 H   0  0  0  0  0  0  0  0  0  0  0  0
   -1.2400   61.3990   77.8417 H   0  0  0  0  0  0  0  0  0  0  0  0
    0.9156   61.9132   79.5363 H   0  0  0  0  0  0  0  0  0  0  0  0
   -0.6600   61.0122   79.7089 H   0  0  0  0  0  0  0  0  0  0  0  0
    0.2715   59.0169   78.9067 H   0  0  0  0  0  0  0  0  0  0  0  0
    0.6353   58.8024   76.7812 H   0  0  0  0  0  0  0  0  0  0  0  0
    3.1851   59.3635   75.7595 H   0  0  0  0  0  0  0  0  0  0  0  0
    0.0024   58.2910   74.2324 H   0  0  0  0  0  0  0  0  0  0  0  0
    0.6232   56.6483   73.6399 H   0  0  0  0  0  0  0  0  0  0  0  0
   -0.4693   55.6029   75.1427 H   0  0  0  0  0  0  0  0  0  0  0  0
    4.3502   56.9177   77.0925 H   0  0  0  0  0  0  0  0  0  0  0  0
    4.6823   56.0598   75.5497 H   0  0  0  0  0  0  0  0  0  0  0  0
    4.4120   57.8356   75.5497 H   0  0  0  0  0  0  0  0  0  0  0  0
    2.5430   54.4649   75.9807 H   0  0  0  0  0  0  0  0  0  0  0  0
    1.6610   55.1193   74.5592 H   0  0  0  0  0  0  0  0  0  0  0  0
    3.4567   55.0741   74.5592 H   0  0  0  0  0  0  0  0  0  0  0  0
    1.4754   57.0240   79.1774 H   0  0  0  0  0  0  0  0  0  0  0  0
   -0.0718   56.3001   79.0006 H   0  0  0  0  0  0  0  0  0  0  0  0
   -1.4711   56.7694   77.9768 H   0  0  0  0  0  0  0  0  0  0  0  0
   -0.8879   55.0704   77.9768 H   0  0  0  0  0  0  0  0  0  0  0  0
    3.3211   61.0484   79.1977 H   0  0  0  0  0  0  0  0  0  0  0  0
    4.0577   60.5247   77.6454 H   0  0  0  0  0  0  0  0  0  0  0  0
    2.7194   61.7228   77.6454 H   0  0  0  0  0  0  0  0  0  0  0  0
    0.8729   59.8524   81.1224 H   0  0  0  0  0  0  0  0  0  0  0  0
    3.2421   55.8926   79.7563 H   0  0  0  0  0  0  0  0  0  0  0  0
    3.7070   57.5822   73.8192 H   0  0  0  0  0  0  0  0  0  0  0  0
   -3.2188   57.2180   77.7546 H   0  0  0  0  0  0  0  0  0  0  0  0
   -5.0642   56.2714   77.7698 H   0  0  0  0  0  0  0  0  0  0  0  0
   -3.2487   59.0003   75.6156 H   0  0  0  0  0  0  0  0  0  0  0  0
   -4.4617   61.4526   76.6252 H   0  0  0  0  0  0  0  0  0  0  0  0
   -4.1212   62.9074   78.6161 H   0  0  0  0  0  0  0  0  0  0  0  0
   -3.2451   61.9369   80.7375 H   0  0  0  0  0  0  0  0  0  0  0  0
   -2.7032   59.5081   80.8671 H   0  0  0  0  0  0  0  0  0  0  0  0
   -3.0343   58.0438   78.8801 H   0  0  0  0  0  0  0  0  0  0  0  0
   -6.1058   58.5037   76.2554 H   0  0  0  0  0  0  0  0  0  0  0  0
   -6.2274   62.5490   76.2589 H   0  0  0  0  0  0  0  0  0  0  0  0
   -5.4436   62.0691   74.7155 H   0  0  0  0  0  0  0  0  0  0  0  0
   -6.7418   63.3106   74.7155 H   0  0  0  0  0  0  0  0  0  0  0  0
   -9.4136   62.0211   74.5069 H   0  0  0  0  0  0  0  0  0  0  0  0
   -8.1309   62.4993   73.3438 H   0  0  0  0  0  0  0  0  0  0  0  0
   -8.7616   60.8174   73.3438 H   0  0  0  0  0  0  0  0  0  0  0  0
   -7.4342   61.2833   77.1583 H   0  0  0  0  0  0  0  0  0  0  0  0
   -9.0376   61.6104   76.4175 H   0  0  0  0  0  0  0  0  0  0  0  0
   -8.3717   59.9421   76.4175 H   0  0  0  0  0  0  0  0  0  0  0  0
    2.8530   60.4206   70.7634 H   0  0  0  0  0  0  0  0  0  0  0  0
    1.9316   62.0939   69.1575 H   0  0  0  0  0  0  0  0  0  0  0  0
    0.8686   64.1829   70.0031 H   0  0  0  0  0  0  0  0  0  0  0  0
    0.7320   64.6128   72.4559 H   0  0  0  0  0  0  0  0  0  0  0  0
    1.6501   62.9464   74.0685 H   0  0  0  0  0  0  0  0  0  0  0  0
   -1.3487   60.0683   73.1004 H   0  0  0  0  0  0  0  0  0  0  0  0
   -2.2190   61.6134   72.8142 H   0  0  0  0  0  0  0  0  0  0  0  0
   -0.4230   61.5809   72.8142 H   0  0  0  0  0  0  0  0  0  0  0  0
  2  1  1  0
  3  2  1  0
  4  3  1  0
  4  1  1  0
  5  4  1  0
  6  5  1  0
  7  6  1  0
  8  1  1  0
  8  7  1  0
  9  8  1  0
 10  9  1  0
 11 10  1  0
 12 11  1  0
 13 12  1  0
 14 13  2  0
 15 10  1  0
 15 14  1  0
 16 15  1  0
 17 15  1  0
 18 14  1  0
 19 18  1  0
 19  7  1  0
 20 19  2  0
 21 13  1  0
  7 22  1  6
 23  6  1  0
 24 18  1  0
 10 25  1  6
 26 12  1  0
 27 26  1  0
 28 27  2  0
 29 27  1  0
 30 29  1  0
 31 29  1  0
 32 31  1  0
 33 32  2  0
 34 33  1  0
 35 34  2  0
 36 35  1  0
 37 36  2  0
 37 32  1  0
 38 31  1  0
 39 38  1  0
 40 39  2  0
 41 39  1  0
 42 41  1  0
 43 42  1  0
 44 42  1  0
 45 42  1  0
 46  9  1  0
 47 46  1  0
 48 47  2  0
 49 47  1  0
 50 49  2  0
 51 50  1  0
 52 51  2  0
 53 52  1  0
 54 53  2  0
 54 49  1  0
  1 55  1  6
 57 55  1  0
 57 56  1  0
 58 57  2  0
  2 59  1  0
  2 60  1  0
  4 61  1  1
  5 62  1  0
  5 63  1  0
  6 64  1  6
  8 65  1  1
  9 66  1  1
 11 67  1  0
 11 68  1  0
 12 69  1  6
 16 70  1  0
 16 71  1  0
 16 72  1  0
 17 73  1  0
 17 74  1  0
 17 75  1  0
 18 76  1  1
 21 77  1  0
 21 78  1  0
 21 79  1  0
 22 80  1  0
 22 81  1  0
 22 82  1  0
 23 83  1  0
 24 84  1  0
 25 85  1  0
 29 86  1  1
 30 87  1  0
 31 88  1  6
 33 89  1  0
 34 90  1  0
 35 91  1  0
 36 92  1  0
 37 93  1  0
 38 94  1  0
 43 95  1  0
 43 96  1  0
 43 97  1  0
 44 98  1  0
 44 99  1  0
 44100  1  0
 45101  1  0
 45102  1  0
 45103  1  0
 50104  1  0
 51105  1  0
 52106  1  0
 53107  1  0
 54108  1  0
 56109  1  0
 56110  1  0
 56111  1  0
M  END
>  <score>  (7) 
-7.206

$$$$
=
     RDKit          3D

111116  0  0  0  0  0  0  0  0999 V2000
    0.6350   61.0880   75.4010 C   0  0  2  0  0  0  0  0  0  0  0  0
    1.7650   62.0660   74.9850 C   0  0  0  0  0  0  0  0  0  0  0  0
    1.2700   63.1010   75.8570 O   0  0  0  0  0  0  0  0  0  0  0  0
    0.1670   62.2710   76.3180 C   0  0  2  0  0  0  0  0  0  0  0  0
    0.2080   62.2220   77.8400 C   0  0  0  0  0  0  0  0  0  0  0  0
    0.4160   60.8150   78.3860 C   0  0  1  0  0  0  0  0  0  0  0  0
    1.5250   60.0100   77.6540 C   0  0  2  0  0  0  0  0  0  0  0  0
    0.9990   59.7700   76.1750 C   0  0  2  0  0  0  0  0  0  0  0  0
    1.8000   58.7340   75.3040 C   0  0  1  0  0  0  0  0  0  0  0  0
    1.1830   57.2580   75.1650 C   0  0  2  0  0  0  0  0  0  0  0  0
   -0.2490   57.2350   74.5510 C   0  0  0  0  0  0  0  0  0  0  0  0
   -1.4330   57.1650   75.5460 C   0  0  1  0  0  0  0  0  0  0  0  0
   -1.0660   57.2630   77.0180 C   0  0  0  0  0  0  0  0  0  0  0  0
    0.2120   57.0840   77.4400 C   0  0  0  0  0  0  0  0  0  0  0  0
    1.2250   56.4240   76.4870 C   0  0  0  0  0  0  0  0  0  0  0  0
    2.6890   56.2440   76.9780 C   0  0  0  0  0  0  0  0  0  0  0  0
    0.7710   54.9440   76.2560 C   0  0  0  0  0  0  0  0  0  0  0  0
    0.6770   57.6620   78.7490 C   0  0  2  0  0  0  0  0  0  0  0  0
    1.7820   58.7180   78.5130 C   0  0  0  0  0  0  0  0  0  0  0  0
    2.8660   58.5370   79.0930 O   0  0  0  0  0  0  0  0  0  0  0  0
   -2.2070   57.6230   77.9400 C   0  0  0  0  0  0  0  0  0  0  0  0
    2.8780   60.7710   77.6950 C   0  0  0  0  0  0  0  0  0  0  0  0
    0.6770   60.9040   79.7850 O   0  0  0  0  0  0  0  0  0  0  0  0
    1.1130   56.5900   79.5700 O   0  0  0  0  0  0  0  0  0  0  0  0
    2.0230   56.5740   74.2000 O   0  0  0  0  0  0  0  0  0  0  0  0
   -2.2960   58.2930   75.2740 O   0  0  0  0  0  0  0  0  0  0  0  0
   -3.6360   58.0450   75.2250 C   0  0  0  0  0  0  0  0  0  0  0  0
   -4.1480   56.9370   75.2990 O   0  0  0  0  0  0  0  0  0  0  0  0
   -4.4070   59.3640   75.1310 C   0  0  2  0  0  0  0  0  0  0  0  0
   -3.9760   60.2760   76.1480 O   0  0  0  0  0  0  0  0  0  0  0  0
   -5.9300   59.0300   75.2010 C   0  0  2  0  0  0  0  0  0  0  0  0
   -6.7710   60.1680   74.6430 C   0  0  0  0  0  0  0  0  0  0  0  0
   -7.0500   60.2560   73.2670 C   0  0  0  0  0  0  0  0  0  0  0  0
   -7.8210   61.3040   72.7650 C   0  0  0  0  0  0  0  0  0  0  0  0
   -8.3250   62.2740   73.6270 C   0  0  0  0  0  0  0  0  0  0  0  0
   -8.0580   62.1990   74.9920 C   0  0  0  0  0  0  0  0  0  0  0  0
   -7.2850   61.1540   75.4990 C   0  0  0  0  0  0  0  0  0  0  0  0
   -6.4200   58.6720   76.5280 N   0  0  0  0  0  0  0  0  0  0  0  0
   -7.3530   57.7010   76.7270 C   0  0  0  0  0  0  0  0  0  0  0  0
   -7.7290   56.9300   75.8540 O   0  0  0  0  0  0  0  0  0  0  0  0
   -7.7710   57.7410   78.0080 O   0  0  0  0  0  0  0  0  0  0  0  0
   -8.8740   58.5990   78.4020 C   0  0  0  0  0  0  0  0  0  0  0  0
   -8.3790   59.8460   79.1420 C   0  0  0  0  0  0  0  0  0  0  0  0
   -9.7470   58.9550   77.1950 C   0  0  0  0  0  0  0  0  0  0  0  0
   -9.7030   57.7480   79.3750 C   0  0  0  0  0  0  0  0  0  0  0  0
    1.9360   59.2010   73.9250 O   0  0  0  0  0  0  0  0  0  0  0  0
    3.1830   59.2270   73.3870 C   0  0  0  0  0  0  0  0  0  0  0  0
    4.2090   58.8880   73.9500 O   0  0  0  0  0  0  0  0  0  0  0  0
    3.1370   59.7760   72.0060 C   0  0  0  0  0  0  0  0  0  0  0  0
    3.5480   59.0350   70.8900 C   0  0  0  0  0  0  0  0  0  0  0  0
    3.4830   59.5990   69.6140 C   0  0  0  0  0  0  0  0  0  0  0  0
    3.0110   60.9000   69.4470 C   0  0  0  0  0  0  0  0  0  0  0  0
    2.6050   61.6440   70.5550 C   0  0  0  0  0  0  0  0  0  0  0  0
    2.6680   61.0850   71.8330 C   0  0  0  0  0  0  0  0  0  0  0  0
   -0.2890   60.6830   74.3350 O   0  0  0  0  0  0  0  0  0  0  0  0
   -0.7370   62.0990   72.5070 C   0  0  0  0  0  0  0  0  0  0  0  0
   -1.1920   61.5760   73.8380 C   0  0  0  0  0  0  0  0  0  0  0  0
   -2.2070   61.9650   74.3940 O   0  0  0  0  0  0  0  0  0  0  0  0
    2.7724   61.7124   75.2496 H   0  0  0  0  0  0  0  0  0  0  0  0
    1.9145   62.2898   73.9184 H   0  0  0  0  0  0  0  0  0  0  0  0
   -0.9075   62.4855   76.2212 H   0  0  0  0  0  0  0  0  0  0  0  0
    1.0343   62.8589   78.1889 H   0  0  0  0  0  0  0  0  0  0  0  0
   -0.7669   62.5758   78.2065 H   0  0  0  0  0  0  0  0  0  0  0  0
   -0.5077   60.2467   78.2019 H   0  0  0  0  0  0  0  0  0  0  0  0
    0.0458   59.2514   76.3551 H   0  0  0  0  0  0  0  0  0  0  0  0
    2.7437   58.6645   75.8649 H   0  0  0  0  0  0  0  0  0  0  0  0
   -0.3699   58.1507   73.9535 H   0  0  0  0  0  0  0  0  0  0  0  0
   -0.3007   56.2992   73.9751 H   0  0  0  0  0  0  0  0  0  0  0  0
   -1.8884   56.1754   75.3931 H   0  0  0  0  0  0  0  0  0  0  0  0
    2.7092   56.2415   78.0778 H   0  0  0  0  0  0  0  0  0  0  0  0
    3.0872   55.2901   76.6018 H   0  0  0  0  0  0  0  0  0  0  0  0
    3.3065   57.0730   76.6018 H   0  0  0  0  0  0  0  0  0  0  0  0
    0.6198   54.4510   77.2276 H   0  0  0  0  0  0  0  0  0  0  0  0
   -0.1716   54.9339   75.6890 H   0  0  0  0  0  0  0  0  0  0  0  0
    1.5457   54.4071   75.6890 H   0  0  0  0  0  0  0  0  0  0  0  0
   -0.1431   58.1877   79.2599 H   0  0  0  0  0  0  0  0  0  0  0  0
   -1.8803   57.5199   78.9853 H   0  0  0  0  0  0  0  0  0  0  0  0
   -2.5156   58.6622   77.7531 H   0  0  0  0  0  0  0  0  0  0  0  0
   -3.0561   56.9491   77.7531 H   0  0  0  0  0  0  0  0  0  0  0  0
    3.1736   60.9373   78.7414 H   0  0  0  0  0  0  0  0  0  0  0  0
    3.6497   60.1746   77.1863 H   0  0  0  0  0  0  0  0  0  0  0  0
    2.7691   61.7402   77.1863 H   0  0  0  0  0  0  0  0  0  0  0  0
   -0.1294   60.6290   80.2893 H   0  0  0  0  0  0  0  0  0  0  0  0
    1.0109   56.8410   80.5222 H   0  0  0  0  0  0  0  0  0  0  0  0
    2.6955   56.0264   74.6774 H   0  0  0  0  0  0  0  0  0  0  0  0
   -4.2072   59.8764   74.1783 H   0  0  0  0  0  0  0  0  0  0  0  0
   -4.1599   59.8869   77.0396 H   0  0  0  0  0  0  0  0  0  0  0  0
   -6.0392   58.1309   74.5767 H   0  0  0  0  0  0  0  0  0  0  0  0
   -6.6565   59.4914   72.5810 H   0  0  0  0  0  0  0  0  0  0  0  0
   -8.0311   61.3642   71.6869 H   0  0  0  0  0  0  0  0  0  0  0  0
   -8.9340   63.0996   73.2302 H   0  0  0  0  0  0  0  0  0  0  0  0
   -8.4576   62.9657   75.6720 H   0  0  0  0  0  0  0  0  0  0  0  0
   -7.0769   61.1026   76.5779 H   0  0  0  0  0  0  0  0  0  0  0  0
   -6.0453   59.1735   77.3459 H   0  0  0  0  0  0  0  0  0  0  0  0
   -8.4453   59.6789   80.2272 H   0  0  0  0  0  0  0  0  0  0  0  0
   -7.3334   60.0458   78.8650 H   0  0  0  0  0  0  0  0  0  0  0  0
   -9.0029   60.7086   78.8650 H   0  0  0  0  0  0  0  0  0  0  0  0
  -10.7128   59.3488   77.5444 H   0  0  0  0  0  0  0  0  0  0  0  0
   -9.2385   59.7176   76.5868 H   0  0  0  0  0  0  0  0  0  0  0  0
   -9.9167   58.0543   76.5868 H   0  0  0  0  0  0  0  0  0  0  0  0
   -9.4424   58.0155   80.4097 H   0  0  0  0  0  0  0  0  0  0  0  0
  -10.7736   57.9362   79.2062 H   0  0  0  0  0  0  0  0  0  0  0  0
   -9.4869   56.6827   79.2062 H   0  0  0  0  0  0  0  0  0  0  0  0
    3.9220   58.0086   71.0190 H   0  0  0  0  0  0  0  0  0  0  0  0
    3.8049   59.0154   68.7389 H   0  0  0  0  0  0  0  0  0  0  0  0
    2.9586   61.3404   68.4404 H   0  0  0  0  0  0  0  0  0  0  0  0
    2.2351   62.6714   70.4219 H   0  0  0  0  0  0  0  0  0  0  0  0
    2.3488   61.6735   72.7058 H   0  0  0  0  0  0  0  0  0  0  0  0
   -0.0221   62.9207   72.6609 H   0  0  0  0  0  0  0  0  0  0  0  0
   -0.2501   61.2903   71.9423 H   0  0  0  0  0  0  0  0  0  0  0  0
   -1.6053   62.4693   71.9423 H   0  0  0  0  0  0  0  0  0  0  0  0
  2  1  1  0
  3  2  1  0
  4  3  1  0
  4  1  1  0
  5  4  1  0
  6  5  1  0
  7  6  1  0
  8  1  1  0
  8  7  1  0
  9  8  1  0
 10  9  1  0
 11 10  1  0
 12 11  1  0
 13 12  1  0
 14 13  2  0
 15 10  1  0
 15 14  1  0
 16 15  1  0
 17 15  1  0
 18 14  1  0
 19 18  1  0
 19  7  1  0
 20 19  2  0
 21 13  1  0
  7 22  1  6
 23  6  1  0
 24 18  1  0
 10 25  1  6
 26 12  1  0
 27 26  1  0
 28 27  2  0
 29 27  1  0
 30 29  1  0
 31 29  1  0
 32 31  1  0
 33 32  2  0
 34 33  1  0
 35 34  2  0
 36 35  1  0
 37 36  2  0
 37 32  1  0
 38 31  1  0
 39 38  1  0
 40 39  2  0
 41 39  1  0
 42 41  1  0
 43 42  1  0
 44 42  1  0
 45 42  1  0
 46  9  1  0
 47 46  1  0
 48 47  2  0
 49 47  1  0
 50 49  2  0
 51 50  1  0
 52 51  2  0
 53 52  1  0
 54 53  2  0
 54 49  1  0
  1 55  1  6
 57 55  1  0
 57 56  1  0
 58 57  2  0
  2 59  1  0
  2 60  1  0
  4 61  1  1
  5 62  1  0
  5 63  1  0
  6 64  1  1
  8 65  1  1
  9 66  1  1
 11 67  1  0
 11 68  1  0
 12 69  1  1
 16 70  1  0
 16 71  1  0
 16 72  1  0
 17 73  1  0
 17 74  1  0
 17 75  1  0
 18 76  1  1
 21 77  1  0
 21 78  1  0
 21 79  1  0
 22 80  1  0
 22 81  1  0
 22 82  1  0
 23 83  1  0
 24 84  1  0
 25 85  1  0
 29 86  1  6
 30 87  1  0
 31 88  1  6
 33 89  1  0
 34 90  1  0
 35 91  1  0
 36 92  1  0
 37 93  1  0
 38 94  1  0
 43 95  1  0
 43 96  1  0
 43 97  1  0
 44 98  1  0
 44 99  1  0
 44100  1  0
 45101  1  0
 45102  1  0
 45103  1  0
 50104  1  0
 51105  1  0
 52106  1  0
 53107  1  0
 54108  1  0
 56109  1  0
 56110  1  0
 56111  1  0
M  END
>  <score>  (8) 
-7.175

$$$$
=
     RDKit          3D

111116  0  0  0  0  0  0  0  0999 V2000
   -3.5020   60.1190   75.7550 C   0  0  2  0  0  0  0  0  0  0  0  0
   -4.1150   61.4920   76.1390 C   0  0  0  0  0  0  0  0  0  0  0  0
   -5.1560   61.3690   75.1510 O   0  0  0  0  0  0  0  0  0  0  0  0
   -4.6670   60.0730   74.7060 C   0  0  2  0  0  0  0  0  0  0  0  0
   -5.8170   59.0760   74.7710 C   0  0  0  0  0  0  0  0  0  0  0  0
   -5.5570   57.9270   75.7360 C   0  0  1  0  0  0  0  0  0  0  0  0
   -4.9670   58.3690   77.1030 C   0  0  2  0  0  0  0  0  0  0  0  0
   -3.5190   58.9450   76.7990 C   0  0  2  0  0  0  0  0  0  0  0  0
   -2.5880   59.1980   78.0400 C   0  0  1  0  0  0  0  0  0  0  0  0
   -1.4700   58.0920   78.3590 C   0  0  2  0  0  0  0  0  0  0  0  0
   -0.4720   57.8560   77.1860 C   0  0  0  0  0  0  0  0  0  0  0  0
   -0.7670   56.6600   76.2480 C   0  0  1  0  0  0  0  0  0  0  0  0
   -2.0760   55.9300   76.5020 C   0  0  0  0  0  0  0  0  0  0  0  0
   -2.7640   56.0950   77.6610 C   0  0  0  0  0  0  0  0  0  0  0  0
   -2.0490   56.7300   78.8670 C   0  0  0  0  0  0  0  0  0  0  0  0
   -2.8560   56.9300   80.1800 C   0  0  0  0  0  0  0  0  0  0  0  0
   -0.9160   55.7500   79.3210 C   0  0  0  0  0  0  0  0  0  0  0  0
   -4.2420   55.8150   77.7240 C   0  0  2  0  0  0  0  0  0  0  0  0
   -5.0250   57.1090   78.0440 C   0  0  0  0  0  0  0  0  0  0  0  0
   -5.7620   57.0880   79.0440 O   0  0  0  0  0  0  0  0  0  0  0  0
   -2.5620   55.0710   75.3580 C   0  0  0  0  0  0  0  0  0  0  0  0
   -5.8940   59.4050   77.7950 C   0  0  0  0  0  0  0  0  0  0  0  0
   -6.7680   57.1920   75.9050 O   0  0  0  0  0  0  0  0  0  0  0  0
   -4.4520   54.7970   78.6900 O   0  0  0  0  0  0  0  0  0  0  0  0
   -0.6700   58.6440   79.4360 O   0  0  0  0  0  0  0  0  0  0  0  0
   -0.8520   57.1760   74.9000 O   0  0  0  0  0  0  0  0  0  0  0  0
    0.2860   57.1270   74.1500 C   0  0  0  0  0  0  0  0  0  0  0  0
    0.6680   56.1530   73.5170 O   0  0  0  0  0  0  0  0  0  0  0  0
    0.9790   58.4920   74.1630 C   0  0  2  0  0  0  0  0  0  0  0  0
    0.5620   59.2820   73.0440 O   0  0  0  0  0  0  0  0  0  0  0  0
    2.5190   58.2430   74.2110 C   0  0  2  0  0  0  0  0  0  0  0  0
    3.0310   58.2290   75.6440 C   0  0  0  0  0  0  0  0  0  0  0  0
    3.6330   57.0800   76.1870 C   0  0  0  0  0  0  0  0  0  0  0  0
    4.0990   57.0770   77.5020 C   0  0  0  0  0  0  0  0  0  0  0  0
    3.9740   58.2200   78.2880 C   0  0  0  0  0  0  0  0  0  0  0  0
    3.3810   59.3650   77.7630 C   0  0  0  0  0  0  0  0  0  0  0  0
    2.9110   59.3720   76.4490 C   0  0  0  0  0  0  0  0  0  0  0  0
    3.3160   59.1760   73.4210 N   0  0  0  0  0  0  0  0  0  0  0  0
    3.5640   58.9860   72.0970 C   0  0  0  0  0  0  0  0  0  0  0  0
    3.0080   58.1340   71.4150 O   0  0  0  0  0  0  0  0  0  0  0  0
    4.4960   59.8700   71.6870 O   0  0  0  0  0  0  0  0  0  0  0  0
    4.1210   61.0400   70.9140 C   0  0  0  0  0  0  0  0  0  0  0  0
    4.1210   60.7430   69.4100 C   0  0  0  0  0  0  0  0  0  0  0  0
    2.7760   61.6000   71.3890 C   0  0  0  0  0  0  0  0  0  0  0  0
    5.2170   62.0730   71.2100 C   0  0  0  0  0  0  0  0  0  0  0  0
   -1.8330   60.4410   77.8870 O   0  0  0  0  0  0  0  0  0  0  0  0
   -1.9660   61.3850   78.8550 C   0  0  0  0  0  0  0  0  0  0  0  0
   -2.9690   61.5920   79.5160 O   0  0  0  0  0  0  0  0  0  0  0  0
   -0.7140   62.1770   78.9770 C   0  0  0  0  0  0  0  0  0  0  0  0
   -0.6260   63.3220   79.7800 C   0  0  0  0  0  0  0  0  0  0  0  0
    0.5760   64.0300   79.8600 C   0  0  0  0  0  0  0  0  0  0  0  0
    1.6890   63.6000   79.1400 C   0  0  0  0  0  0  0  0  0  0  0  0
    1.6060   62.4640   78.3350 C   0  0  0  0  0  0  0  0  0  0  0  0
    0.4070   61.7540   78.2510 C   0  0  0  0  0  0  0  0  0  0  0  0
   -2.1370   60.1540   75.2150 O   0  0  0  0  0  0  0  0  0  0  0  0
   -0.8720   62.1270   74.9870 C   0  0  0  0  0  0  0  0  0  0  0  0
   -1.7780   61.1270   74.3300 C   0  0  0  0  0  0  0  0  0  0  0  0
   -2.1640   61.2360   73.1760 O   0  0  0  0  0  0  0  0  0  0  0  0
   -4.4913   61.5324   77.1719 H   0  0  0  0  0  0  0  0  0  0  0  0
   -3.4737   62.3857   76.1336 H   0  0  0  0  0  0  0  0  0  0  0  0
   -4.3212   59.8092   73.6956 H   0  0  0  0  0  0  0  0  0  0  0  0
   -6.7235   59.6077   75.0958 H   0  0  0  0  0  0  0  0  0  0  0  0
   -5.9320   58.6417   73.7669 H   0  0  0  0  0  0  0  0  0  0  0  0
   -4.7784   57.2894   75.2918 H   0  0  0  0  0  0  0  0  0  0  0  0
   -3.0351   58.0906   76.3032 H   0  0  0  0  0  0  0  0  0  0  0  0
   -3.3206   59.1982   78.8606 H   0  0  0  0  0  0  0  0  0  0  0  0
   -0.4612   58.7672   76.5699 H   0  0  0  0  0  0  0  0  0  0  0  0
    0.4866   57.6139   77.6681 H   0  0  0  0  0  0  0  0  0  0  0  0
    0.0440   55.9382   76.4252 H   0  0  0  0  0  0  0  0  0  0  0  0
   -2.1959   56.7664   81.0446 H   0  0  0  0  0  0  0  0  0  0  0  0
   -3.2556   57.9543   80.2124 H   0  0  0  0  0  0  0  0  0  0  0  0
   -3.6877   56.2108   80.2124 H   0  0  0  0  0  0  0  0  0  0  0  0
   -0.8781   55.7172   80.4199 H   0  0  0  0  0  0  0  0  0  0  0  0
   -1.1244   54.7428   78.9311 H   0  0  0  0  0  0  0  0  0  0  0  0
    0.0507   56.1013   78.9311 H   0  0  0  0  0  0  0  0  0  0  0  0
   -4.6180   55.4638   76.7518 H   0  0  0  0  0  0  0  0  0  0  0  0
   -3.0666   54.1791   75.7578 H   0  0  0  0  0  0  0  0  0  0  0  0
   -3.2683   55.6465   74.7416 H   0  0  0  0  0  0  0  0  0  0  0  0
   -1.7049   54.7620   74.7416 H   0  0  0  0  0  0  0  0  0  0  0  0
   -5.8047   59.3052   78.8868 H   0  0  0  0  0  0  0  0  0  0  0  0
   -5.5976   60.4207   77.4942 H   0  0  0  0  0  0  0  0  0  0  0  0
   -6.9363   59.2229   77.4942 H   0  0  0  0  0  0  0  0  0  0  0  0
   -6.9536   57.0794   76.8709 H   0  0  0  0  0  0  0  0  0  0  0  0
   -4.3725   55.1826   79.5984 H   0  0  0  0  0  0  0  0  0  0  0  0
   -1.0584   58.3760   80.3063 H   0  0  0  0  0  0  0  0  0  0  0  0
    0.6951   59.0760   75.0509 H   0  0  0  0  0  0  0  0  0  0  0  0
    0.1254   60.1092   73.3684 H   0  0  0  0  0  0  0  0  0  0  0  0
    2.6495   57.2538   73.7480 H   0  0  0  0  0  0  0  0  0  0  0  0
    3.7374   56.1757   75.5695 H   0  0  0  0  0  0  0  0  0  0  0  0
    4.5652   56.1718   77.9181 H   0  0  0  0  0  0  0  0  0  0  0  0
    4.3439   58.2181   79.3239 H   0  0  0  0  0  0  0  0  0  0  0  0
    3.2827   60.2665   78.3856 H   0  0  0  0  0  0  0  0  0  0  0  0
    2.4430   60.2802   76.0414 H   0  0  0  0  0  0  0  0  0  0  0  0
    3.7055   60.0099   73.8834 H   0  0  0  0  0  0  0  0  0  0  0  0
    5.1581   60.6720   69.0503 H   0  0  0  0  0  0  0  0  0  0  0  0
    3.6025   59.7908   69.2243 H   0  0  0  0  0  0  0  0  0  0  0  0
    3.6025   61.5531   68.8763 H   0  0  0  0  0  0  0  0  0  0  0  0
    2.7510   61.6104   72.4887 H   0  0  0  0  0  0  0  0  0  0  0  0
    2.6510   62.6249   71.0097 H   0  0  0  0  0  0  0  0  0  0  0  0
    1.9606   60.9666   71.0097 H   0  0  0  0  0  0  0  0  0  0  0  0
    5.3333   62.1826   72.2983 H   0  0  0  0  0  0  0  0  0  0  0  0
    6.1676   61.7348   70.7719 H   0  0  0  0  0  0  0  0  0  0  0  0
    4.9356   63.0420   70.7719 H   0  0  0  0  0  0  0  0  0  0  0  0
   -1.5039   63.6638   80.3479 H   0  0  0  0  0  0  0  0  0  0  0  0
    0.6438   64.9278   80.4920 H   0  0  0  0  0  0  0  0  0  0  0  0
    2.6349   64.1576   79.2067 H   0  0  0  0  0  0  0  0  0  0  0  0
    2.4854   62.1275   77.7663 H   0  0  0  0  0  0  0  0  0  0  0  0
    0.3422   60.8602   77.6132 H   0  0  0  0  0  0  0  0  0  0  0  0
   -0.9555   62.0349   76.0800 H   0  0  0  0  0  0  0  0  0  0  0  0
    0.1674   61.9365   74.6813 H   0  0  0  0  0  0  0  0  0  0  0  0
   -1.1638   63.1426   74.6813 H   0  0  0  0  0  0  0  0  0  0  0  0
  2  1  1  0
  3  2  1  0
  4  3  1  0
  4  1  1  0
  5  4  1  0
  6  5  1  0
  7  6  1  0
  8  1  1  0
  8  7  1  0
  9  8  1  0
 10  9  1  0
 11 10  1  0
 12 11  1  0
 13 12  1  0
 14 13  2  0
 15 10  1  0
 15 14  1  0
 16 15  1  0
 17 15  1  0
 18 14  1  0
 19 18  1  0
 19  7  1  0
 20 19  2  0
 21 13  1  0
  7 22  1  1
 23  6  1  0
 24 18  1  0
 10 25  1  1
 26 12  1  0
 27 26  1  0
 28 27  2  0
 29 27  1  0
 30 29  1  0
 31 29  1  0
 32 31  1  0
 33 32  2  0
 34 33  1  0
 35 34  2  0
 36 35  1  0
 37 36  2  0
 37 32  1  0
 38 31  1  0
 39 38  1  0
 40 39  2  0
 41 39  1  0
 42 41  1  0
 43 42  1  0
 44 42  1  0
 45 42  1  0
 46  9  1  0
 47 46  1  0
 48 47  2  0
 49 47  1  0
 50 49  2  0
 51 50  1  0
 52 51  2  0
 53 52  1  0
 54 53  2  0
 54 49  1  0
  1 55  1  6
 57 55  1  0
 57 56  1  0
 58 57  2  0
  2 59  1  0
  2 60  1  0
  4 61  1  6
  5 62  1  0
  5 63  1  0
  6 64  1  6
  8 65  1  6
  9 66  1  1
 11 67  1  0
 11 68  1  0
 12 69  1  6
 16 70  1  0
 16 71  1  0
 16 72  1  0
 17 73  1  0
 17 74  1  0
 17 75  1  0
 18 76  1  6
 21 77  1  0
 21 78  1  0
 21 79  1  0
 22 80  1  0
 22 81  1  0
 22 82  1  0
 23 83  1  0
 24 84  1  0
 25 85  1  0
 29 86  1  1
 30 87  1  0
 31 88  1  6
 33 89  1  0
 34 90  1  0
 35 91  1  0
 36 92  1  0
 37 93  1  0
 38 94  1  0
 43 95  1  0
 43 96  1  0
 43 97  1  0
 44 98  1  0
 44 99  1  0
 44100  1  0
 45101  1  0
 45102  1  0
 45103  1  0
 50104  1  0
 51105  1  0
 52106  1  0
 53107  1  0
 54108  1  0
 56109  1  0
 56110  1  0
 56111  1  0
M  END
>  <score>  (9) 
-7.146

$$$$
