=
     RDKit          3D

 34 36  0  0  0  0  0  0  0  0999 V2000
    1.5670   68.4370   65.1660 N   0  0  0  0  0  0  0  0  0  0  0  0
    2.2960   68.5600   63.9700 C   0  0  0  0  0  0  0  0  0  0  0  0
    3.6660   68.5320   63.7810 C   0  0  0  0  0  0  0  0  0  0  0  0
    4.1520   68.6790   62.4740 C   0  0  0  0  0  0  0  0  0  0  0  0
    3.2740   68.8510   61.3870 C   0  0  0  0  0  0  0  0  0  0  0  0
    1.8930   68.8800   61.5830 C   0  0  0  0  0  0  0  0  0  0  0  0
    1.4420   68.7320   62.8820 C   0  0  0  0  0  0  0  0  0  0  0  0
    0.0740   68.7110   63.3960 C   0  0  0  0  0  0  0  0  0  0  0  0
   -0.9470   68.8350   62.7590 O   0  0  0  0  0  0  0  0  0  0  0  0
    0.2080   68.4910   64.9240 C   0  0  0  0  0  0  0  0  0  0  0  0
   -0.7190   68.3820   65.6980 O   0  0  0  0  0  0  0  0  0  0  0  0
    2.1330   68.1720   66.4570 C   0  0  0  0  0  0  0  0  0  0  0  0
    2.1650   69.4230   67.1840 N   0  0  0  0  0  0  0  0  0  0  0  0
    7.2790   70.9750   69.2610 C   0  0  0  0  0  0  0  0  0  0  0  0
    5.9280   70.6090   68.7230 C   0  0  0  0  0  0  0  0  0  0  0  0
    5.7770   70.2070   67.3950 C   0  0  0  0  0  0  0  0  0  0  0  0
    4.5190   69.8370   66.9080 C   0  0  0  0  0  0  0  0  0  0  0  0
    3.3770   69.8730   67.7210 C   0  0  0  0  0  0  0  0  0  0  0  0
    3.5520   70.2220   69.0630 C   0  0  0  0  0  0  0  0  0  0  0  0
    4.8100   70.5950   69.5580 C   0  0  0  0  0  0  0  0  0  0  0  0
    4.3529   68.3985   64.6297 H   0  0  0  0  0  0  0  0  0  0  0  0
    5.2372   68.6596   62.2950 H   0  0  0  0  0  0  0  0  0  0  0  0
    3.6815   68.9638   60.3715 H   0  0  0  0  0  0  0  0  0  0  0  0
    1.1952   69.0143   60.7433 H   0  0  0  0  0  0  0  0  0  0  0  0
    1.5129   67.4404   66.9958 H   0  0  0  0  0  0  0  0  0  0  0  0
    3.1465   67.7562   66.3573 H   0  0  0  0  0  0  0  0  0  0  0  0
    1.3049   69.9766   67.3051 H   0  0  0  0  0  0  0  0  0  0  0  0
    7.2502   70.9672   70.3606 H   0  0  0  0  0  0  0  0  0  0  0  0
    8.0238   70.2462   68.9085 H   0  0  0  0  0  0  0  0  0  0  0  0
    7.5541   71.9800   68.9085 H   0  0  0  0  0  0  0  0  0  0  0  0
    6.6514   70.1810   66.7282 H   0  0  0  0  0  0  0  0  0  0  0  0
    4.4232   69.5099   65.8621 H   0  0  0  0  0  0  0  0  0  0  0  0
    2.6876   70.2038   69.7431 H   0  0  0  0  0  0  0  0  0  0  0  0
    4.9165   70.8794   70.6152 H   0  0  0  0  0  0  0  0  0  0  0  0
  2  1  1  0
  3  2  2  0
  4  3  1  0
  5  4  2  0
  6  5  1  0
  7  6  2  0
  7  2  1  0
  8  7  1  0
  9  8  2  0
 10  8  1  0
 10  1  1  0
 11 10  2  0
 12  1  1  0
 13 12  1  0
 15 14  1  0
 16 15  2  0
 17 16  1  0
 18 17  2  0
 18 13  1  0
 19 18  1  0
 20 19  2  0
 20 15  1  0
  3 21  1  0
  4 22  1  0
  5 23  1  0
  6 24  1  0
 12 25  1  0
 12 26  1  0
 13 27  1  0
 14 28  1  0
 14 29  1  0
 14 30  1  0
 16 31  1  0
 17 32  1  0
 19 33  1  0
 20 34  1  0
M  END
>  <score>  (1) 
-10.656

$$$$
=
     RDKit          3D

 34 36  0  0  0  0  0  0  0  0999 V2000
    1.6280   68.0780   65.6420 N   0  0  0  0  0  0  0  0  0  0  0  0
    0.7650   67.6760   66.6770 C   0  0  0  0  0  0  0  0  0  0  0  0
    1.0830   67.1400   67.9120 C   0  0  0  0  0  0  0  0  0  0  0  0
    0.0290   66.8160   68.7780 C   0  0  0  0  0  0  0  0  0  0  0  0
   -1.3120   67.0290   68.4030 C   0  0  0  0  0  0  0  0  0  0  0  0
   -1.6260   67.5680   67.1560 C   0  0  0  0  0  0  0  0  0  0  0  0
   -0.5670   67.8780   66.3230 C   0  0  0  0  0  0  0  0  0  0  0  0
   -0.5770   68.4560   64.9800 C   0  0  0  0  0  0  0  0  0  0  0  0
   -1.5450   68.7680   64.3260 O   0  0  0  0  0  0  0  0  0  0  0  0
    0.9130   68.5890   64.5750 C   0  0  0  0  0  0  0  0  0  0  0  0
    1.3150   69.0640   63.5330 O   0  0  0  0  0  0  0  0  0  0  0  0
    3.0600   68.0770   65.7090 C   0  0  0  0  0  0  0  0  0  0  0  0
    3.4980   69.4560   65.6870 N   0  0  0  0  0  0  0  0  0  0  0  0
    7.4960   70.9700   69.5070 C   0  0  0  0  0  0  0  0  0  0  0  0
    6.4350   70.6140   68.5100 C   0  0  0  0  0  0  0  0  0  0  0  0
    6.7770   70.2640   67.2030 C   0  0  0  0  0  0  0  0  0  0  0  0
    5.7850   69.9020   66.2860 C   0  0  0  0  0  0  0  0  0  0  0  0
    4.4280   69.8960   66.6370 C   0  0  0  0  0  0  0  0  0  0  0  0
    4.1040   70.1920   67.9650 C   0  0  0  0  0  0  0  0  0  0  0  0
    5.0930   70.5570   68.8890 C   0  0  0  0  0  0  0  0  0  0  0  0
    2.1299   66.9732   68.2054 H   0  0  0  0  0  0  0  0  0  0  0  0
    0.2529   66.3885   69.7665 H   0  0  0  0  0  0  0  0  0  0  0  0
   -2.1203   66.7672   69.1016 H   0  0  0  0  0  0  0  0  0  0  0  0
   -2.6684   67.7387   66.8491 H   0  0  0  0  0  0  0  0  0  0  0  0
    3.3920   67.5924   66.6390 H   0  0  0  0  0  0  0  0  0  0  0  0
    3.4869   67.5216   64.8609 H   0  0  0  0  0  0  0  0  0  0  0  0
    3.1293   70.1075   64.9795 H   0  0  0  0  0  0  0  0  0  0  0  0
    7.1015   70.8376   70.5253 H   0  0  0  0  0  0  0  0  0  0  0  0
    8.3683   70.3153   69.3637 H   0  0  0  0  0  0  0  0  0  0  0  0
    7.7969   72.0183   69.3637 H   0  0  0  0  0  0  0  0  0  0  0  0
    7.8322   70.2729   66.8925 H   0  0  0  0  0  0  0  0  0  0  0  0
    6.0767   69.6151   65.2649 H   0  0  0  0  0  0  0  0  0  0  0  0
    3.0546   70.1374   68.2901 H   0  0  0  0  0  0  0  0  0  0  0  0
    4.8085   70.8009   69.9232 H   0  0  0  0  0  0  0  0  0  0  0  0
  2  1  1  0
  3  2  2  0
  4  3  1  0
  5  4  2  0
  6  5  1  0
  7  6  2  0
  7  2  1  0
  8  7  1  0
  9  8  2  0
 10  8  1  0
 10  1  1  0
 11 10  2  0
 12  1  1  0
 13 12  1  0
 15 14  1  0
 16 15  2  0
 17 16  1  0
 18 17  2  0
 18 13  1  0
 19 18  1  0
 20 19  2  0
 20 15  1  0
  3 21  1  0
  4 22  1  0
  5 23  1  0
  6 24  1  0
 12 25  1  0
 12 26  1  0
 13 27  1  0
 14 28  1  0
 14 29  1  0
 14 30  1  0
 16 31  1  0
 17 32  1  0
 19 33  1  0
 20 34  1  0
M  END
>  <score>  (2) 
-9.865

$$$$
=
     RDKit          3D

 34 36  0  0  0  0  0  0  0  0999 V2000
    2.5180   68.2180   65.2480 N   0  0  0  0  0  0  0  0  0  0  0  0
    3.4470   68.1120   64.1970 C   0  0  0  0  0  0  0  0  0  0  0  0
    4.1430   69.1170   63.5500 C   0  0  0  0  0  0  0  0  0  0  0  0
    5.0210   68.7490   62.5210 C   0  0  0  0  0  0  0  0  0  0  0  0
    5.1900   67.4000   62.1560 C   0  0  0  0  0  0  0  0  0  0  0  0
    4.4840   66.3910   62.8120 C   0  0  0  0  0  0  0  0  0  0  0  0
    3.6260   66.7820   63.8220 C   0  0  0  0  0  0  0  0  0  0  0  0
    2.7710   65.9690   64.6850 C   0  0  0  0  0  0  0  0  0  0  0  0
    2.6450   64.7660   64.6630 O   0  0  0  0  0  0  0  0  0  0  0  0
    2.0660   66.9700   65.6340 C   0  0  0  0  0  0  0  0  0  0  0  0
    1.2970   66.6690   66.5230 O   0  0  0  0  0  0  0  0  0  0  0  0
    2.1640   69.4340   65.9210 C   0  0  0  0  0  0  0  0  0  0  0  0
    2.5170   69.2780   67.3160 N   0  0  0  0  0  0  0  0  0  0  0  0
    7.5770   71.2700   69.1330 C   0  0  0  0  0  0  0  0  0  0  0  0
    6.2380   70.7890   68.6610 C   0  0  0  0  0  0  0  0  0  0  0  0
    6.0760   70.2960   67.3660 C   0  0  0  0  0  0  0  0  0  0  0  0
    4.8320   69.8190   66.9410 C   0  0  0  0  0  0  0  0  0  0  0  0
    3.7130   69.8350   67.7860 C   0  0  0  0  0  0  0  0  0  0  0  0
    3.9020   70.2770   69.0990 C   0  0  0  0  0  0  0  0  0  0  0  0
    5.1460   70.7570   69.5310 C   0  0  0  0  0  0  0  0  0  0  0  0
    4.0117   70.1716   63.8339 H   0  0  0  0  0  0  0  0  0  0  0  0
    5.5877   69.5278   61.9896 H   0  0  0  0  0  0  0  0  0  0  0  0
    5.8859   67.1386   61.3452 H   0  0  0  0  0  0  0  0  0  0  0  0
    4.6049   65.3327   62.5376 H   0  0  0  0  0  0  0  0  0  0  0  0
    2.7177   70.2790   65.4857 H   0  0  0  0  0  0  0  0  0  0  0  0
    1.0882   69.6369   65.8140 H   0  0  0  0  0  0  0  0  0  0  0  0
    1.8955   68.7631   67.9560 H   0  0  0  0  0  0  0  0  0  0  0  0
    7.5972   71.2773   70.2328 H   0  0  0  0  0  0  0  0  0  0  0  0
    8.3618   70.5976   68.7563 H   0  0  0  0  0  0  0  0  0  0  0  0
    7.7546   72.2881   68.7563 H   0  0  0  0  0  0  0  0  0  0  0  0
    6.9319   70.2824   66.6751 H   0  0  0  0  0  0  0  0  0  0  0  0
    4.7289   69.4221   65.9203 H   0  0  0  0  0  0  0  0  0  0  0  0
    3.0594   70.2475   69.8055 H   0  0  0  0  0  0  0  0  0  0  0  0
    5.2633   71.1120   70.5655 H   0  0  0  0  0  0  0  0  0  0  0  0
  2  1  1  0
  3  2  2  0
  4  3  1  0
  5  4  2  0
  6  5  1  0
  7  6  2  0
  7  2  1  0
  8  7  1  0
  9  8  2  0
 10  8  1  0
 10  1  1  0
 11 10  2  0
 12  1  1  0
 13 12  1  0
 15 14  1  0
 16 15  2  0
 17 16  1  0
 18 17  2  0
 18 13  1  0
 19 18  1  0
 20 19  2  0
 20 15  1  0
  3 21  1  0
  4 22  1  0
  5 23  1  0
  6 24  1  0
 12 25  1  0
 12 26  1  0
 13 27  1  0
 14 28  1  0
 14 29  1  0
 14 30  1  0
 16 31  1  0
 17 32  1  0
 19 33  1  0
 20 34  1  0
M  END
>  <score>  (3) 
-9.715

$$$$
=
     RDKit          3D

 34 36  0  0  0  0  0  0  0  0999 V2000
    3.1330   69.3530   66.1940 N   0  0  0  0  0  0  0  0  0  0  0  0
    4.4180   69.7750   66.5790 C   0  0  0  0  0  0  0  0  0  0  0  0
    5.5690   69.8560   65.8160 C   0  0  0  0  0  0  0  0  0  0  0  0
    6.7390   70.3110   66.4400 C   0  0  0  0  0  0  0  0  0  0  0  0
    6.7440   70.6740   67.8010 C   0  0  0  0  0  0  0  0  0  0  0  0
    5.5800   70.5890   68.5650 C   0  0  0  0  0  0  0  0  0  0  0  0
    4.4420   70.1370   67.9240 C   0  0  0  0  0  0  0  0  0  0  0  0
    3.0900   69.9510   68.4480 C   0  0  0  0  0  0  0  0  0  0  0  0
    2.7100   70.1530   69.5790 O   0  0  0  0  0  0  0  0  0  0  0  0
    2.2460   69.4460   67.2500 C   0  0  0  0  0  0  0  0  0  0  0  0
    1.0570   69.2090   67.2830 O   0  0  0  0  0  0  0  0  0  0  0  0
    2.7450   68.9870   64.8630 C   0  0  0  0  0  0  0  0  0  0  0  0
    2.1730   67.6590   64.9260 N   0  0  0  0  0  0  0  0  0  0  0  0
    5.3430   63.0930   63.5220 C   0  0  0  0  0  0  0  0  0  0  0  0
    4.5000   64.2890   63.8490 C   0  0  0  0  0  0  0  0  0  0  0  0
    3.4420   64.1860   64.7540 C   0  0  0  0  0  0  0  0  0  0  0  0
    2.6790   65.3120   65.0790 C   0  0  0  0  0  0  0  0  0  0  0  0
    2.9340   66.5640   64.5010 C   0  0  0  0  0  0  0  0  0  0  0  0
    4.0320   66.6650   63.6410 C   0  0  0  0  0  0  0  0  0  0  0  0
    4.8000   65.5410   63.3100 C   0  0  0  0  0  0  0  0  0  0  0  0
    5.5663   69.5724   64.7532 H   0  0  0  0  0  0  0  0  0  0  0  0
    7.6688   70.3858   65.8570 H   0  0  0  0  0  0  0  0  0  0  0  0
    7.6757   71.0283   68.2663 H   0  0  0  0  0  0  0  0  0  0  0  0
    5.5684   70.8688   69.6287 H   0  0  0  0  0  0  0  0  0  0  0  0
    1.9994   69.6993   64.4799 H   0  0  0  0  0  0  0  0  0  0  0  0
    3.6135   69.0030   64.1881 H   0  0  0  0  0  0  0  0  0  0  0  0
    1.2156   67.5212   65.2800 H   0  0  0  0  0  0  0  0  0  0  0  0
    5.6795   62.6156   64.4542 H   0  0  0  0  0  0  0  0  0  0  0  0
    4.7499   62.3755   62.9360 H   0  0  0  0  0  0  0  0  0  0  0  0
    6.2181   63.4104   62.9360 H   0  0  0  0  0  0  0  0  0  0  0  0
    3.2074   63.2145   65.2136 H   0  0  0  0  0  0  0  0  0  0  0  0
    1.8590   65.2133   65.8056 H   0  0  0  0  0  0  0  0  0  0  0  0
    4.2975   67.6446   63.2168 H   0  0  0  0  0  0  0  0  0  0  0  0
    5.6485   65.6463   62.6179 H   0  0  0  0  0  0  0  0  0  0  0  0
  2  1  1  0
  3  2  2  0
  4  3  1  0
  5  4  2  0
  6  5  1  0
  7  6  2  0
  7  2  1  0
  8  7  1  0
  9  8  2  0
 10  8  1  0
 10  1  1  0
 11 10  2  0
 12  1  1  0
 13 12  1  0
 15 14  1  0
 16 15  2  0
 17 16  1  0
 18 17  2  0
 18 13  1  0
 19 18  1  0
 20 19  2  0
 20 15  1  0
  3 21  1  0
  4 22  1  0
  5 23  1  0
  6 24  1  0
 12 25  1  0
 12 26  1  0
 13 27  1  0
 14 28  1  0
 14 29  1  0
 14 30  1  0
 16 31  1  0
 17 32  1  0
 19 33  1  0
 20 34  1  0
M  END
>  <score>  (4) 
-9.572

$$$$
=
     RDKit          3D

 34 36  0  0  0  0  0  0  0  0999 V2000
    2.7450   68.1110   64.5670 N   0  0  0  0  0  0  0  0  0  0  0  0
    1.7250   68.6170   63.7420 C   0  0  0  0  0  0  0  0  0  0  0  0
    0.4700   69.0790   64.0970 C   0  0  0  0  0  0  0  0  0  0  0  0
   -0.3750   69.5360   63.0770 C   0  0  0  0  0  0  0  0  0  0  0  0
    0.0390   69.5250   61.7310 C   0  0  0  0  0  0  0  0  0  0  0  0
    1.3050   69.0570   61.3780 C   0  0  0  0  0  0  0  0  0  0  0  0
    2.1170   68.6130   62.4050 C   0  0  0  0  0  0  0  0  0  0  0  0
    3.4780   68.0820   62.3530 C   0  0  0  0  0  0  0  0  0  0  0  0
    4.1610   67.9180   61.3680 O   0  0  0  0  0  0  0  0  0  0  0  0
    3.8620   67.7800   63.8230 C   0  0  0  0  0  0  0  0  0  0  0  0
    4.9370   67.3560   64.1920 O   0  0  0  0  0  0  0  0  0  0  0  0
    2.6980   68.0500   65.9990 C   0  0  0  0  0  0  0  0  0  0  0  0
    2.7140   69.4100   66.4940 N   0  0  0  0  0  0  0  0  0  0  0  0
    7.4330   70.9800   69.3460 C   0  0  0  0  0  0  0  0  0  0  0  0
    6.1840   70.6100   68.6040 C   0  0  0  0  0  0  0  0  0  0  0  0
    6.2440   70.2100   67.2680 C   0  0  0  0  0  0  0  0  0  0  0  0
    5.0800   69.8350   66.5890 C   0  0  0  0  0  0  0  0  0  0  0  0
    3.8250   69.8650   67.2140 C   0  0  0  0  0  0  0  0  0  0  0  0
    3.7870   70.2110   68.5680 C   0  0  0  0  0  0  0  0  0  0  0  0
    4.9490   70.5890   69.2540 C   0  0  0  0  0  0  0  0  0  0  0  0
    0.1455   69.0873   65.1480 H   0  0  0  0  0  0  0  0  0  0  0  0
   -1.3779   69.9094   63.3317 H   0  0  0  0  0  0  0  0  0  0  0  0
   -0.6435   69.8895   60.9491 H   0  0  0  0  0  0  0  0  0  0  0  0
    1.6416   69.0420   60.3309 H   0  0  0  0  0  0  0  0  0  0  0  0
    1.7770   67.5433   66.3231 H   0  0  0  0  0  0  0  0  0  0  0  0
    3.5569   67.4854   66.3908 H   0  0  0  0  0  0  0  0  0  0  0  0
    1.9158   70.0369   66.3182 H   0  0  0  0  0  0  0  0  0  0  0  0
    7.2463   70.9247   70.4286 H   0  0  0  0  0  0  0  0  0  0  0  0
    8.2397   70.2822   69.0769 H   0  0  0  0  0  0  0  0  0  0  0  0
    7.7295   72.0045   69.0769 H   0  0  0  0  0  0  0  0  0  0  0  0
    7.2121   70.1896   66.7462 H   0  0  0  0  0  0  0  0  0  0  0  0
    5.1507   69.5091   65.5408 H   0  0  0  0  0  0  0  0  0  0  0  0
    2.8272   70.1861   69.1048 H   0  0  0  0  0  0  0  0  0  0  0  0
    4.8872   70.8720   70.3152 H   0  0  0  0  0  0  0  0  0  0  0  0
  2  1  1  0
  3  2  2  0
  4  3  1  0
  5  4  2  0
  6  5  1  0
  7  6  2  0
  7  2  1  0
  8  7  1  0
  9  8  2  0
 10  8  1  0
 10  1  1  0
 11 10  2  0
 12  1  1  0
 13 12  1  0
 15 14  1  0
 16 15  2  0
 17 16  1  0
 18 17  2  0
 18 13  1  0
 19 18  1  0
 20 19  2  0
 20 15  1  0
  3 21  1  0
  4 22  1  0
  5 23  1  0
  6 24  1  0
 12 25  1  0
 12 26  1  0
 13 27  1  0
 14 28  1  0
 14 29  1  0
 14 30  1  0
 16 31  1  0
 17 32  1  0
 19 33  1  0
 20 34  1  0
M  END
>  <score>  (5) 
-9.37

$$$$
=
     RDKit          3D

 34 36  0  0  0  0  0  0  0  0999 V2000
    3.2560   69.5260   67.0520 N   0  0  0  0  0  0  0  0  0  0  0  0
    4.4320   69.9990   67.6610 C   0  0  0  0  0  0  0  0  0  0  0  0
    4.6280   70.4140   68.9650 C   0  0  0  0  0  0  0  0  0  0  0  0
    5.9100   70.8480   69.3310 C   0  0  0  0  0  0  0  0  0  0  0  0
    6.9660   70.8640   68.3990 C   0  0  0  0  0  0  0  0  0  0  0  0
    6.7620   70.4460   67.0840 C   0  0  0  0  0  0  0  0  0  0  0  0
    5.4890   70.0230   66.7520 C   0  0  0  0  0  0  0  0  0  0  0  0
    4.9760   69.5260   65.4760 C   0  0  0  0  0  0  0  0  0  0  0  0
    5.5890   69.4010   64.4410 O   0  0  0  0  0  0  0  0  0  0  0  0
    3.4850   69.1870   65.7320 C   0  0  0  0  0  0  0  0  0  0  0  0
    2.7260   68.7130   64.9140 O   0  0  0  0  0  0  0  0  0  0  0  0
    2.0090   69.3040   67.7230 C   0  0  0  0  0  0  0  0  0  0  0  0
    1.4270   68.0970   67.1740 N   0  0  0  0  0  0  0  0  0  0  0  0
   -4.2090   68.2750   66.1360 C   0  0  0  0  0  0  0  0  0  0  0  0
   -2.7340   68.1880   66.3940 C   0  0  0  0  0  0  0  0  0  0  0  0
   -1.8380   68.9720   65.6660 C   0  0  0  0  0  0  0  0  0  0  0  0
   -0.4660   68.9100   65.9330 C   0  0  0  0  0  0  0  0  0  0  0  0
    0.0520   68.0550   66.9150 C   0  0  0  0  0  0  0  0  0  0  0  0
   -0.8610   67.3180   67.6760 C   0  0  0  0  0  0  0  0  0  0  0  0
   -2.2370   67.3750   67.4140 C   0  0  0  0  0  0  0  0  0  0  0  0
    3.8035   70.4040   69.6931 H   0  0  0  0  0  0  0  0  0  0  0  0
    6.0941   71.1815   70.3629 H   0  0  0  0  0  0  0  0  0  0  0  0
    7.9623   71.2099   68.7116 H   0  0  0  0  0  0  0  0  0  0  0  0
    7.5769   70.4528   66.3452 H   0  0  0  0  0  0  0  0  0  0  0  0
    2.1804   69.1807   68.8026 H   0  0  0  0  0  0  0  0  0  0  0  0
    1.3336   70.1600   67.5778 H   0  0  0  0  0  0  0  0  0  0  0  0
    2.0189   67.2776   66.9761 H   0  0  0  0  0  0  0  0  0  0  0  0
   -4.7477   68.3068   67.0946 H   0  0  0  0  0  0  0  0  0  0  0  0
   -4.4277   69.1876   65.5621 H   0  0  0  0  0  0  0  0  0  0  0  0
   -4.5334   67.3944   65.5621 H   0  0  0  0  0  0  0  0  0  0  0  0
   -2.2124   69.6422   64.8782 H   0  0  0  0  0  0  0  0  0  0  0  0
    0.2223   69.5474   65.3585 H   0  0  0  0  0  0  0  0  0  0  0  0
   -0.4929   66.6823   68.4947 H   0  0  0  0  0  0  0  0  0  0  0  0
   -2.9318   66.7731   68.0181 H   0  0  0  0  0  0  0  0  0  0  0  0
  2  1  1  0
  3  2  2  0
  4  3  1  0
  5  4  2  0
  6  5  1  0
  7  6  2  0
  7  2  1  0
  8  7  1  0
  9  8  2  0
 10  8  1  0
 10  1  1  0
 11 10  2  0
 12  1  1  0
 13 12  1  0
 15 14  1  0
 16 15  2  0
 17 16  1  0
 18 17  2  0
 18 13  1  0
 19 18  1  0
 20 19  2  0
 20 15  1  0
  3 21  1  0
  4 22  1  0
  5 23  1  0
  6 24  1  0
 12 25  1  0
 12 26  1  0
 13 27  1  0
 14 28  1  0
 14 29  1  0
 14 30  1  0
 16 31  1  0
 17 32  1  0
 19 33  1  0
 20 34  1  0
M  END
>  <score>  (6) 
-9.35

$$$$
=
     RDKit          3D

 34 36  0  0  0  0  0  0  0  0999 V2000
    0.6700   68.7330   68.0280 N   0  0  0  0  0  0  0  0  0  0  0  0
   -0.5510   68.5350   67.3600 C   0  0  0  0  0  0  0  0  0  0  0  0
   -1.1780   69.3510   66.4370 C   0  0  0  0  0  0  0  0  0  0  0  0
   -2.4050   68.9250   65.9100 C   0  0  0  0  0  0  0  0  0  0  0  0
   -2.9840   67.7050   66.3090 C   0  0  0  0  0  0  0  0  0  0  0  0
   -2.3470   66.8860   67.2420 C   0  0  0  0  0  0  0  0  0  0  0  0
   -1.1390   67.3310   67.7440 C   0  0  0  0  0  0  0  0  0  0  0  0
   -0.2440   66.7000   68.7140 C   0  0  0  0  0  0  0  0  0  0  0  0
   -0.4090   65.6450   69.2810 O   0  0  0  0  0  0  0  0  0  0  0  0
    0.9600   67.6650   68.8550 C   0  0  0  0  0  0  0  0  0  0  0  0
    1.9350   67.4690   69.5500 O   0  0  0  0  0  0  0  0  0  0  0  0
    1.5660   69.8310   67.8070 C   0  0  0  0  0  0  0  0  0  0  0  0
    2.8950   69.2820   67.6390 N   0  0  0  0  0  0  0  0  0  0  0  0
    5.2370   69.2420   62.4060 C   0  0  0  0  0  0  0  0  0  0  0  0
    4.6230   69.2100   63.7730 C   0  0  0  0  0  0  0  0  0  0  0  0
    5.3400   69.6530   64.8850 C   0  0  0  0  0  0  0  0  0  0  0  0
    4.7510   69.6500   66.1540 C   0  0  0  0  0  0  0  0  0  0  0  0
    3.4410   69.1910   66.3540 C   0  0  0  0  0  0  0  0  0  0  0  0
    2.7140   68.8040   65.2240 C   0  0  0  0  0  0  0  0  0  0  0  0
    3.2990   68.8030   63.9500 C   0  0  0  0  0  0  0  0  0  0  0  0
   -0.7279   70.3052   66.1257 H   0  0  0  0  0  0  0  0  0  0  0  0
   -2.9244   69.5543   65.1723 H   0  0  0  0  0  0  0  0  0  0  0  0
   -3.9484   67.3944   65.8808 H   0  0  0  0  0  0  0  0  0  0  0  0
   -2.7863   65.9300   67.5631 H   0  0  0  0  0  0  0  0  0  0  0  0
    1.2697   70.3810   66.9016 H   0  0  0  0  0  0  0  0  0  0  0  0
    1.5400   70.5290   68.6568 H   0  0  0  0  0  0  0  0  0  0  0  0
    3.4330   68.9617   68.4569 H   0  0  0  0  0  0  0  0  0  0  0  0
    6.3317   69.2991   62.4970 H   0  0  0  0  0  0  0  0  0  0  0  0
    4.9617   68.3283   61.8589 H   0  0  0  0  0  0  0  0  0  0  0  0
    4.8682   70.1221   61.8589 H   0  0  0  0  0  0  0  0  0  0  0  0
    6.3744   70.0067   64.7632 H   0  0  0  0  0  0  0  0  0  0  0  0
    5.3290   70.0163   67.0152 H   0  0  0  0  0  0  0  0  0  0  0  0
    1.6644   68.4948   65.3367 H   0  0  0  0  0  0  0  0  0  0  0  0
    2.7087   68.4781   63.0805 H   0  0  0  0  0  0  0  0  0  0  0  0
  2  1  1  0
  3  2  2  0
  4  3  1  0
  5  4  2  0
  6  5  1  0
  7  6  2  0
  7  2  1  0
  8  7  1  0
  9  8  2  0
 10  8  1  0
 10  1  1  0
 11 10  2  0
 12  1  1  0
 13 12  1  0
 15 14  1  0
 16 15  2  0
 17 16  1  0
 18 17  2  0
 18 13  1  0
 19 18  1  0
 20 19  2  0
 20 15  1  0
  3 21  1  0
  4 22  1  0
  5 23  1  0
  6 24  1  0
 12 25  1  0
 12 26  1  0
 13 27  1  0
 14 28  1  0
 14 29  1  0
 14 30  1  0
 16 31  1  0
 17 32  1  0
 19 33  1  0
 20 34  1  0
M  END
>  <score>  (7) 
-9.156

$$$$
=
     RDKit          3D

 34 36  0  0  0  0  0  0  0  0999 V2000
    2.6700   67.2370   64.9370 N   0  0  0  0  0  0  0  0  0  0  0  0
    3.2910   65.9910   64.7360 C   0  0  0  0  0  0  0  0  0  0  0  0
    3.4170   64.9330   65.6170 C   0  0  0  0  0  0  0  0  0  0  0  0
    4.0900   63.7860   65.1740 C   0  0  0  0  0  0  0  0  0  0  0  0
    4.6230   63.7130   63.8720 C   0  0  0  0  0  0  0  0  0  0  0  0
    4.4940   64.7840   62.9890 C   0  0  0  0  0  0  0  0  0  0  0  0
    3.8260   65.9020   63.4520 C   0  0  0  0  0  0  0  0  0  0  0  0
    3.5270   67.1590   62.7690 C   0  0  0  0  0  0  0  0  0  0  0  0
    3.8310   67.4660   61.6390 O   0  0  0  0  0  0  0  0  0  0  0  0
    2.7360   68.0110   63.7940 C   0  0  0  0  0  0  0  0  0  0  0  0
    2.2810   69.1150   63.5820 O   0  0  0  0  0  0  0  0  0  0  0  0
    1.9540   67.6250   66.1170 C   0  0  0  0  0  0  0  0  0  0  0  0
    2.0910   69.0590   66.2570 N   0  0  0  0  0  0  0  0  0  0  0  0
    6.7180   70.8990   69.0990 C   0  0  0  0  0  0  0  0  0  0  0  0
    5.4920   70.4570   68.3590 C   0  0  0  0  0  0  0  0  0  0  0  0
    5.5770   70.0340   67.0320 C   0  0  0  0  0  0  0  0  0  0  0  0
    4.4350   69.5930   66.3550 C   0  0  0  0  0  0  0  0  0  0  0  0
    3.1760   69.5780   66.9730 C   0  0  0  0  0  0  0  0  0  0  0  0
    3.1150   69.9500   68.3200 C   0  0  0  0  0  0  0  0  0  0  0  0
    4.2550   70.3930   69.0030 C   0  0  0  0  0  0  0  0  0  0  0  0
    3.0020   64.9896   66.6341 H   0  0  0  0  0  0  0  0  0  0  0  0
    4.2038   62.9289   65.8541 H   0  0  0  0  0  0  0  0  0  0  0  0
    5.1465   62.8012   63.5487 H   0  0  0  0  0  0  0  0  0  0  0  0
    4.9053   64.7413   61.9697 H   0  0  0  0  0  0  0  0  0  0  0  0
    0.8918   67.3572   66.0169 H   0  0  0  0  0  0  0  0  0  0  0  0
    2.3561   67.1091   67.0014 H   0  0  0  0  0  0  0  0  0  0  0  0
    1.3968   69.6915   65.8339 H   0  0  0  0  0  0  0  0  0  0  0  0
    6.5362   70.8335   70.1819 H   0  0  0  0  0  0  0  0  0  0  0  0
    7.5634   70.2491   68.8291 H   0  0  0  0  0  0  0  0  0  0  0  0
    6.9542   71.9389   68.8291 H   0  0  0  0  0  0  0  0  0  0  0  0
    6.5479   70.0474   66.5151 H   0  0  0  0  0  0  0  0  0  0  0  0
    4.5265   69.2500   65.3138 H   0  0  0  0  0  0  0  0  0  0  0  0
    2.1543   69.8937   68.8527 H   0  0  0  0  0  0  0  0  0  0  0  0
    4.1747   70.6937   70.0581 H   0  0  0  0  0  0  0  0  0  0  0  0
  2  1  1  0
  3  2  2  0
  4  3  1  0
  5  4  2  0
  6  5  1  0
  7  6  2  0
  7  2  1  0
  8  7  1  0
  9  8  2  0
 10  8  1  0
 10  1  1  0
 11 10  2  0
 12  1  1  0
 13 12  1  0
 15 14  1  0
 16 15  2  0
 17 16  1  0
 18 17  2  0
 18 13  1  0
 19 18  1  0
 20 19  2  0
 20 15  1  0
  3 21  1  0
  4 22  1  0
  5 23  1  0
  6 24  1  0
 12 25  1  0
 12 26  1  0
 13 27  1  0
 14 28  1  0
 14 29  1  0
 14 30  1  0
 16 31  1  0
 17 32  1  0
 19 33  1  0
 20 34  1  0
M  END
>  <score>  (8) 
-9.099

$$$$
=
     RDKit          3D

 34 36  0  0  0  0  0  0  0  0999 V2000
    0.9710   67.6950   66.7590 N   0  0  0  0  0  0  0  0  0  0  0  0
    0.8520   67.1400   68.0450 C   0  0  0  0  0  0  0  0  0  0  0  0
    1.8500   66.8220   68.9490 C   0  0  0  0  0  0  0  0  0  0  0  0
    1.4700   66.2710   70.1800 C   0  0  0  0  0  0  0  0  0  0  0  0
    0.1140   66.0470   70.4890 C   0  0  0  0  0  0  0  0  0  0  0  0
   -0.8880   66.3680   69.5740 C   0  0  0  0  0  0  0  0  0  0  0  0
   -0.4840   66.9100   68.3680 C   0  0  0  0  0  0  0  0  0  0  0  0
   -1.2880   67.3500   67.2290 C   0  0  0  0  0  0  0  0  0  0  0  0
   -2.4920   67.3080   67.1250 O   0  0  0  0  0  0  0  0  0  0  0  0
   -0.2730   67.8850   66.1870 C   0  0  0  0  0  0  0  0  0  0  0  0
   -0.5630   68.3720   65.1150 O   0  0  0  0  0  0  0  0  0  0  0  0
    2.1970   68.1230   66.1510 C   0  0  0  0  0  0  0  0  0  0  0  0
    2.4480   69.4800   66.5870 N   0  0  0  0  0  0  0  0  0  0  0  0
    7.3340   71.0640   69.1340 C   0  0  0  0  0  0  0  0  0  0  0  0
    6.0710   70.6100   68.4660 C   0  0  0  0  0  0  0  0  0  0  0  0
    4.8520   70.6560   69.1440 C   0  0  0  0  0  0  0  0  0  0  0  0
    3.6730   70.2600   68.5050 C   0  0  0  0  0  0  0  0  0  0  0  0
    3.6750   69.7930   67.1830 C   0  0  0  0  0  0  0  0  0  0  0  0
    4.8930   69.8070   66.4960 C   0  0  0  0  0  0  0  0  0  0  0  0
    6.0790   70.2010   67.1310 C   0  0  0  0  0  0  0  0  0  0  0  0
    2.9092   66.9964   68.7087 H   0  0  0  0  0  0  0  0  0  0  0  0
    2.2432   66.0091   70.9172 H   0  0  0  0  0  0  0  0  0  0  0  0
   -0.1574   65.6140   71.4631 H   0  0  0  0  0  0  0  0  0  0  0  0
   -1.9507   66.1979   69.8012 H   0  0  0  0  0  0  0  0  0  0  0  0
    3.0220   67.4680   66.4678 H   0  0  0  0  0  0  0  0  0  0  0  0
    2.1230   68.0757   65.0545 H   0  0  0  0  0  0  0  0  0  0  0  0
    1.7307   70.2082   66.4599 H   0  0  0  0  0  0  0  0  0  0  0  0
    7.2080   71.0187   70.2258 H   0  0  0  0  0  0  0  0  0  0  0  0
    8.1642   70.4080   68.8332 H   0  0  0  0  0  0  0  0  0  0  0  0
    7.5565   72.0984   68.8332 H   0  0  0  0  0  0  0  0  0  0  0  0
    4.8185   71.0056   70.1864 H   0  0  0  0  0  0  0  0  0  0  0  0
    2.7208   70.3162   69.0528 H   0  0  0  0  0  0  0  0  0  0  0  0
    4.9209   69.5036   65.4390 H   0  0  0  0  0  0  0  0  0  0  0  0
    7.0260   70.1878   66.5716 H   0  0  0  0  0  0  0  0  0  0  0  0
  2  1  1  0
  3  2  2  0
  4  3  1  0
  5  4  2  0
  6  5  1  0
  7  6  2  0
  7  2  1  0
  8  7  1  0
  9  8  2  0
 10  8  1  0
 10  1  1  0
 11 10  2  0
 12  1  1  0
 13 12  1  0
 15 14  1  0
 16 15  2  0
 17 16  1  0
 18 17  2  0
 18 13  1  0
 19 18  1  0
 20 19  2  0
 20 15  1  0
  3 21  1  0
  4 22  1  0
  5 23  1  0
  6 24  1  0
 12 25  1  0
 12 26  1  0
 13 27  1  0
 14 28  1  0
 14 29  1  0
 14 30  1  0
 16 31  1  0
 17 32  1  0
 19 33  1  0
 20 34  1  0
M  END
>  <score>  (9) 
-9.071

$$$$
