=
     RDKit          3D

 36 37  0  0  0  0  0  0  0  0999 V2000
    4.1900   70.3840   68.8300 C   0  0  0  0  0  0  0  0  0  0  0  0
    5.3240   70.8760   69.4730 C   0  0  0  0  0  0  0  0  0  0  0  0
    6.5390   70.9250   68.7980 C   0  0  0  0  0  0  0  0  0  0  0  0
    6.6180   70.4740   67.4830 C   0  0  0  0  0  0  0  0  0  0  0  0
    5.4800   69.9700   66.8290 C   0  0  0  0  0  0  0  0  0  0  0  0
    4.2360   69.9470   67.4980 C   0  0  0  0  0  0  0  0  0  0  0  0
    3.0020   69.4190   66.8040 C   0  0  0  0  0  0  0  0  0  0  0  0
    3.1400   69.3010   65.2870 C   0  0  0  0  0  0  0  0  0  0  0  0
    4.4620   68.6250   64.9320 C   0  0  2  0  0  0  0  0  0  0  0  0
    5.6210   69.5170   65.3950 C   0  0  0  0  0  0  0  0  0  0  0  0
    3.0500   70.3570   69.5860 O   0  0  0  0  0  0  0  0  0  0  0  0
    4.5650   68.4390   63.4670 N   0  0  0  0  0  0  0  0  0  0  0  0
    3.6610   67.2270   62.7480 S   0  0  0  0  0  6  0  0  0  0  0  0
    2.3240   67.7220   62.5270 O   0  0  0  0  0  0  0  0  0  0  0  0
    4.4790   66.7350   61.6650 O   0  0  0  0  0  0  0  0  0  0  0  0
    3.6450   66.0810   63.9720 N   0  0  0  0  0  0  0  0  0  0  0  0
    2.3460   65.8050   64.6050 C   0  0  0  0  0  0  0  0  0  0  0  0
    4.4950   64.8930   63.8370 C   0  0  0  0  0  0  0  0  0  0  0  0
    5.2583   71.2255   70.5139 H   0  0  0  0  0  0  0  0  0  0  0  0
    7.4344   71.3187   69.3012 H   0  0  0  0  0  0  0  0  0  0  0  0
    7.5799   70.5124   66.9508 H   0  0  0  0  0  0  0  0  0  0  0  0
    2.7787   68.4209   67.2089 H   0  0  0  0  0  0  0  0  0  0  0  0
    2.1974   70.1449   66.9931 H   0  0  0  0  0  0  0  0  0  0  0  0
    2.3069   68.7015   64.8913 H   0  0  0  0  0  0  0  0  0  0  0  0
    3.1198   70.3077   64.8440 H   0  0  0  0  0  0  0  0  0  0  0  0
    4.5066   67.6446   65.4287 H   0  0  0  0  0  0  0  0  0  0  0  0
    6.5595   68.9517   65.2965 H   0  0  0  0  0  0  0  0  0  0  0  0
    5.6161   70.4175   64.7633 H   0  0  0  0  0  0  0  0  0  0  0  0
    2.2050   70.0200   69.1956 H   0  0  0  0  0  0  0  0  0  0  0  0
    4.2855   69.3277   63.0276 H   0  0  0  0  0  0  0  0  0  0  0  0
    2.4587   65.8290   65.6989 H   0  0  0  0  0  0  0  0  0  0  0  0
    1.6173   66.5684   64.2947 H   0  0  0  0  0  0  0  0  0  0  0  0
    1.9907   64.8113   64.2947 H   0  0  0  0  0  0  0  0  0  0  0  0
    4.7630   64.5185   64.8359 H   0  0  0  0  0  0  0  0  0  0  0  0
    3.9493   64.1123   63.2869 H   0  0  0  0  0  0  0  0  0  0  0  0
    5.4101   65.1575   63.2869 H   0  0  0  0  0  0  0  0  0  0  0  0
  2  1  2  0
  3  2  1  0
  4  3  2  0
  5  4  1  0
  6  1  1  0
  6  5  2  0
  7  6  1  0
  8  7  1  0
  9  8  1  0
 10  9  1  0
 10  5  1  0
 11  1  1  0
 12  9  1  0
 13 12  1  0
 14 13  2  0
 15 13  2  0
 16 13  1  0
 17 16  1  0
 18 16  1  0
  2 19  1  0
  3 20  1  0
  4 21  1  0
  7 22  1  0
  7 23  1  0
  8 24  1  0
  8 25  1  0
  9 26  1  1
 10 27  1  0
 10 28  1  0
 11 29  1  0
 12 30  1  0
 17 31  1  0
 17 32  1  0
 17 33  1  0
 18 34  1  0
 18 35  1  0
 18 36  1  0
M  END
>  <score>  (1) 
-9.342

$$$$
=
     RDKit          3D

 36 37  0  0  0  0  0  0  0  0999 V2000
    4.3350   70.4510   68.9240 C   0  0  0  0  0  0  0  0  0  0  0  0
    5.4980   70.9260   69.5270 C   0  0  0  0  0  0  0  0  0  0  0  0
    6.6980   70.9200   68.8250 C   0  0  0  0  0  0  0  0  0  0  0  0
    6.7340   70.4300   67.5220 C   0  0  0  0  0  0  0  0  0  0  0  0
    5.5670   69.9430   66.9070 C   0  0  0  0  0  0  0  0  0  0  0  0
    4.3380   69.9760   67.6030 C   0  0  0  0  0  0  0  0  0  0  0  0
    3.0740   69.4660   66.9520 C   0  0  0  0  0  0  0  0  0  0  0  0
    3.1740   69.3020   65.4370 C   0  0  0  0  0  0  0  0  0  0  0  0
    4.4670   68.5770   65.0720 C   0  0  2  0  0  0  0  0  0  0  0  0
    5.6620   69.4450   65.4840 C   0  0  0  0  0  0  0  0  0  0  0  0
    3.2130   70.4790   69.7050 O   0  0  0  0  0  0  0  0  0  0  0  0
    4.5310   68.3470   63.6110 N   0  0  0  0  0  0  0  0  0  0  0  0
    3.6130   67.1100   62.9540 S   0  0  0  0  0  6  0  0  0  0  0  0
    4.4540   66.3290   62.0800 O   0  0  0  0  0  0  0  0  0  0  0  0
    2.9200   66.5160   64.0730 O   0  0  0  0  0  0  0  0  0  0  0  0
    2.5110   67.9870   62.0450 N   0  0  0  0  0  0  0  0  0  0  0  0
    1.2950   68.4430   62.7360 C   0  0  0  0  0  0  0  0  0  0  0  0
    3.0180   68.9450   61.0560 C   0  0  0  0  0  0  0  0  0  0  0  0
    5.4666   71.3059   70.5589 H   0  0  0  0  0  0  0  0  0  0  0  0
    7.6156   71.3009   69.2971 H   0  0  0  0  0  0  0  0  0  0  0  0
    7.6846   70.4238   66.9685 H   0  0  0  0  0  0  0  0  0  0  0  0
    2.8310   68.4866   67.3900 H   0  0  0  0  0  0  0  0  0  0  0  0
    2.2953   70.2203   67.1382 H   0  0  0  0  0  0  0  0  0  0  0  0
    2.3148   68.7171   65.0769 H   0  0  0  0  0  0  0  0  0  0  0  0
    3.1736   70.2963   64.9664 H   0  0  0  0  0  0  0  0  0  0  0  0
    4.4936   67.6098   65.5953 H   0  0  0  0  0  0  0  0  0  0  0  0
    6.5804   68.8482   65.3820 H   0  0  0  0  0  0  0  0  0  0  0  0
    5.6703   70.3269   64.8266 H   0  0  0  0  0  0  0  0  0  0  0  0
    2.3497   70.1569   69.3429 H   0  0  0  0  0  0  0  0  0  0  0  0
    4.2356   69.2208   63.1527 H   0  0  0  0  0  0  0  0  0  0  0  0
    1.4480   68.3856   63.8238 H   0  0  0  0  0  0  0  0  0  0  0  0
    1.0792   69.4831   62.4505 H   0  0  0  0  0  0  0  0  0  0  0  0
    0.4485   67.8012   62.4505 H   0  0  0  0  0  0  0  0  0  0  0  0
    3.4717   69.8022   61.5750 H   0  0  0  0  0  0  0  0  0  0  0  0
    3.7750   68.4554   60.4258 H   0  0  0  0  0  0  0  0  0  0  0  0
    2.1874   69.2956   60.4258 H   0  0  0  0  0  0  0  0  0  0  0  0
  2  1  2  0
  3  2  1  0
  4  3  2  0
  5  4  1  0
  6  1  1  0
  6  5  2  0
  7  6  1  0
  8  7  1  0
  9  8  1  0
 10  9  1  0
 10  5  1  0
 11  1  1  0
 12  9  1  0
 13 12  1  0
 14 13  2  0
 15 13  2  0
 16 13  1  0
 17 16  1  0
 18 16  1  0
  2 19  1  0
  3 20  1  0
  4 21  1  0
  7 22  1  0
  7 23  1  0
  8 24  1  0
  8 25  1  0
  9 26  1  1
 10 27  1  0
 10 28  1  0
 11 29  1  0
 12 30  1  0
 17 31  1  0
 17 32  1  0
 17 33  1  0
 18 34  1  0
 18 35  1  0
 18 36  1  0
M  END
>  <score>  (2) 
-9.17

$$$$
=
     RDKit          3D

 36 37  0  0  0  0  0  0  0  0999 V2000
    5.8460   70.2330   66.8110 C   0  0  0  0  0  0  0  0  0  0  0  0
    6.5410   70.7730   67.8910 C   0  0  0  0  0  0  0  0  0  0  0  0
    5.9030   70.9380   69.1160 C   0  0  0  0  0  0  0  0  0  0  0  0
    4.5670   70.5700   69.2550 C   0  0  0  0  0  0  0  0  0  0  0  0
    3.8560   70.0310   68.1690 C   0  0  0  0  0  0  0  0  0  0  0  0
    4.5070   69.8300   66.9310 C   0  0  0  0  0  0  0  0  0  0  0  0
    3.7590   69.2400   65.7580 C   0  0  0  0  0  0  0  0  0  0  0  0
    2.4450   68.5590   66.1340 C   0  0  0  0  0  0  0  0  0  0  0  0
    1.6400   69.4530   67.0740 C   0  0  2  0  0  0  0  0  0  0  0  0
    2.4160   69.6280   68.3850 C   0  0  0  0  0  0  0  0  0  0  0  0
    6.5550   70.1310   65.6460 O   0  0  0  0  0  0  0  0  0  0  0  0
    0.3320   68.8300   67.3790 N   0  0  0  0  0  0  0  0  0  0  0  0
   -0.5330   68.1310   66.1270 S   0  0  0  0  0  6  0  0  0  0  0  0
   -0.4080   68.9680   64.9590 O   0  0  0  0  0  0  0  0  0  0  0  0
   -0.1310   66.7450   66.1160 O   0  0  0  0  0  0  0  0  0  0  0  0
   -2.0940   68.2320   66.7310 N   0  0  0  0  0  0  0  0  0  0  0  0
   -3.1300   68.7280   65.8110 C   0  0  0  0  0  0  0  0  0  0  0  0
   -2.5690   67.1800   67.6360 C   0  0  0  0  0  0  0  0  0  0  0  0
    7.5941   71.0688   67.7750 H   0  0  0  0  0  0  0  0  0  0  0  0
    6.4518   71.3577   69.9720 H   0  0  0  0  0  0  0  0  0  0  0  0
    4.0634   70.7024   70.2240 H   0  0  0  0  0  0  0  0  0  0  0  0
    3.5372   70.0498   65.0474 H   0  0  0  0  0  0  0  0  0  0  0  0
    4.4071   68.4622   65.3279 H   0  0  0  0  0  0  0  0  0  0  0  0
    1.8596   68.3696   65.2222 H   0  0  0  0  0  0  0  0  0  0  0  0
    2.6650   67.6086   66.6422 H   0  0  0  0  0  0  0  0  0  0  0  0
    1.4765   70.4263   66.5883 H   0  0  0  0  0  0  0  0  0  0  0  0
    1.9204   70.4058   68.9846 H   0  0  0  0  0  0  0  0  0  0  0  0
    2.4199   68.6548   68.8976 H   0  0  0  0  0  0  0  0  0  0  0  0
    6.1256   69.7564   64.8364 H   0  0  0  0  0  0  0  0  0  0  0  0
    0.5020   68.0938   68.0790 H   0  0  0  0  0  0  0  0  0  0  0  0
   -3.9729   69.1316   66.3912 H   0  0  0  0  0  0  0  0  0  0  0  0
   -2.7079   69.5217   65.1771 H   0  0  0  0  0  0  0  0  0  0  0  0
   -3.4836   67.9015   65.1771 H   0  0  0  0  0  0  0  0  0  0  0  0
   -2.4244   67.5002   68.6784 H   0  0  0  0  0  0  0  0  0  0  0  0
   -3.6380   66.9950   67.4542 H   0  0  0  0  0  0  0  0  0  0  0  0
   -2.0008   66.2558   67.4542 H   0  0  0  0  0  0  0  0  0  0  0  0
  2  1  2  0
  3  2  1  0
  4  3  2  0
  5  4  1  0
  6  1  1  0
  6  5  2  0
  7  6  1  0
  8  7  1  0
  9  8  1  0
 10  9  1  0
 10  5  1  0
 11  1  1  0
 12  9  1  0
 13 12  1  0
 14 13  2  0
 15 13  2  0
 16 13  1  0
 17 16  1  0
 18 16  1  0
  2 19  1  0
  3 20  1  0
  4 21  1  0
  7 22  1  0
  7 23  1  0
  8 24  1  0
  8 25  1  0
  9 26  1  6
 10 27  1  0
 10 28  1  0
 11 29  1  0
 12 30  1  0
 17 31  1  0
 17 32  1  0
 17 33  1  0
 18 34  1  0
 18 35  1  0
 18 36  1  0
M  END
>  <score>  (3) 
-8.967

$$$$
=
     RDKit          3D

 36 37  0  0  0  0  0  0  0  0999 V2000
    5.9720   70.5610   68.4200 C   0  0  0  0  0  0  0  0  0  0  0  0
    7.0040   70.4620   67.4890 C   0  0  0  0  0  0  0  0  0  0  0  0
    6.7380   70.0050   66.2020 C   0  0  0  0  0  0  0  0  0  0  0  0
    5.4400   69.6400   65.8530 C   0  0  0  0  0  0  0  0  0  0  0  0
    4.3940   69.7310   66.7870 C   0  0  0  0  0  0  0  0  0  0  0  0
    4.6510   70.2240   68.0860 C   0  0  0  0  0  0  0  0  0  0  0  0
    3.5350   70.3390   69.0970 C   0  0  0  0  0  0  0  0  0  0  0  0
    2.1340   70.2570   68.4940 C   0  0  0  0  0  0  0  0  0  0  0  0
    2.0510   69.0850   67.5180 C   0  0  2  0  0  0  0  0  0  0  0  0
    3.0030   69.3430   66.3440 C   0  0  0  0  0  0  0  0  0  0  0  0
    6.3400   71.0000   69.6610 O   0  0  0  0  0  0  0  0  0  0  0  0
    0.6740   68.9550   66.9900 N   0  0  0  0  0  0  0  0  0  0  0  0
   -0.0760   67.4600   67.0680 S   0  0  0  0  0  6  0  0  0  0  0  0
    0.2340   66.7290   65.8630 O   0  0  0  0  0  0  0  0  0  0  0  0
    0.2480   66.9410   68.3760 O   0  0  0  0  0  0  0  0  0  0  0  0
   -1.6880   67.9160   67.0550 N   0  0  0  0  0  0  0  0  0  0  0  0
   -2.1230   68.7850   65.9500 C   0  0  0  0  0  0  0  0  0  0  0  0
   -2.7020   66.9370   67.4640 C   0  0  0  0  0  0  0  0  0  0  0  0
    8.0287   70.7451   67.7714 H   0  0  0  0  0  0  0  0  0  0  0  0
    7.5496   69.9323   65.4631 H   0  0  0  0  0  0  0  0  0  0  0  0
    5.2315   69.2768   64.8358 H   0  0  0  0  0  0  0  0  0  0  0  0
    3.6449   69.5232   69.8267 H   0  0  0  0  0  0  0  0  0  0  0  0
    3.6245   71.3350   69.5552 H   0  0  0  0  0  0  0  0  0  0  0  0
    1.3990   70.1125   69.2995 H   0  0  0  0  0  0  0  0  0  0  0  0
    1.9188   71.1911   67.9544 H   0  0  0  0  0  0  0  0  0  0  0  0
    2.3290   68.1604   68.0451 H   0  0  0  0  0  0  0  0  0  0  0  0
    3.0704   68.4266   65.7394 H   0  0  0  0  0  0  0  0  0  0  0  0
    2.5940   70.1858   65.7675 H   0  0  0  0  0  0  0  0  0  0  0  0
    5.6600   71.0953   70.3741 H   0  0  0  0  0  0  0  0  0  0  0  0
    0.0844   69.6182   67.5129 H   0  0  0  0  0  0  0  0  0  0  0  0
   -2.5800   69.6979   66.3596 H   0  0  0  0  0  0  0  0  0  0  0  0
   -1.2540   69.0554   65.3322 H   0  0  0  0  0  0  0  0  0  0  0  0
   -2.8602   68.2513   65.3322 H   0  0  0  0  0  0  0  0  0  0  0  0
   -2.7474   66.8932   68.5622 H   0  0  0  0  0  0  0  0  0  0  0  0
   -3.6831   67.2382   67.0682 H   0  0  0  0  0  0  0  0  0  0  0  0
   -2.4355   65.9459   67.0682 H   0  0  0  0  0  0  0  0  0  0  0  0
  2  1  2  0
  3  2  1  0
  4  3  2  0
  5  4  1  0
  6  1  1  0
  6  5  2  0
  7  6  1  0
  8  7  1  0
  9  8  1  0
 10  9  1  0
 10  5  1  0
 11  1  1  0
 12  9  1  0
 13 12  1  0
 14 13  2  0
 15 13  2  0
 16 13  1  0
 17 16  1  0
 18 16  1  0
  2 19  1  0
  3 20  1  0
  4 21  1  0
  7 22  1  0
  7 23  1  0
  8 24  1  0
  8 25  1  0
  9 26  1  1
 10 27  1  0
 10 28  1  0
 11 29  1  0
 12 30  1  0
 17 31  1  0
 17 32  1  0
 17 33  1  0
 18 34  1  0
 18 35  1  0
 18 36  1  0
M  END
>  <score>  (4) 
-8.817

$$$$
=
     RDKit          3D

 36 37  0  0  0  0  0  0  0  0999 V2000
    5.3310   69.7920   65.1460 C   0  0  0  0  0  0  0  0  0  0  0  0
    6.0190   70.3010   66.2460 C   0  0  0  0  0  0  0  0  0  0  0  0
    5.4100   70.3220   67.4960 C   0  0  0  0  0  0  0  0  0  0  0  0
    4.1110   69.8430   67.6410 C   0  0  0  0  0  0  0  0  0  0  0  0
    3.4080   69.3340   66.5360 C   0  0  0  0  0  0  0  0  0  0  0  0
    4.0310   69.2790   65.2700 C   0  0  0  0  0  0  0  0  0  0  0  0
    3.2910   68.7240   64.0740 C   0  0  0  0  0  0  0  0  0  0  0  0
    2.0450   67.9170   64.4300 C   0  0  0  0  0  0  0  0  0  0  0  0
    1.2070   68.6710   65.4590 C   0  0  2  0  0  0  0  0  0  0  0  0
    2.0100   68.8060   66.7590 C   0  0  0  0  0  0  0  0  0  0  0  0
    6.0080   69.8350   63.9580 O   0  0  0  0  0  0  0  0  0  0  0  0
   -0.0400   67.9280   65.7490 N   0  0  0  0  0  0  0  0  0  0  0  0
   -1.2870   68.7290   66.5280 S   0  0  0  0  0  6  0  0  0  0  0  0
   -0.7380   69.8700   67.2190 O   0  0  0  0  0  0  0  0  0  0  0  0
   -2.3270   68.8680   65.5360 O   0  0  0  0  0  0  0  0  0  0  0  0
   -1.7590   67.5670   67.6400 N   0  0  0  0  0  0  0  0  0  0  0  0
   -2.9160   66.7330   67.2780 C   0  0  0  0  0  0  0  0  0  0  0  0
   -0.7230   66.8400   68.3840 C   0  0  0  0  0  0  0  0  0  0  0  0
    7.0425   70.6857   66.1256 H   0  0  0  0  0  0  0  0  0  0  0  0
    5.9531   70.7160   68.3677 H   0  0  0  0  0  0  0  0  0  0  0  0
    3.6303   69.8632   68.6302 H   0  0  0  0  0  0  0  0  0  0  0  0
    2.9861   69.5662   63.4354 H   0  0  0  0  0  0  0  0  0  0  0  0
    3.9812   68.0337   63.5669 H   0  0  0  0  0  0  0  0  0  0  0  0
    1.4457   67.7538   63.5221 H   0  0  0  0  0  0  0  0  0  0  0  0
    2.3521   66.9500   64.8551 H   0  0  0  0  0  0  0  0  0  0  0  0
    0.9556   69.6630   65.0556 H   0  0  0  0  0  0  0  0  0  0  0  0
    1.4774   69.4959   67.4302 H   0  0  0  0  0  0  0  0  0  0  0  0
    2.1032   67.8003   67.1947 H   0  0  0  0  0  0  0  0  0  0  0  0
    5.5824   69.4910   63.1330 H   0  0  0  0  0  0  0  0  0  0  0  0
   -0.4103   67.5928   64.8482 H   0  0  0  0  0  0  0  0  0  0  0  0
   -3.4113   66.3760   68.1930 H   0  0  0  0  0  0  0  0  0  0  0  0
   -3.6260   67.3284   66.6852 H   0  0  0  0  0  0  0  0  0  0  0  0
   -2.5756   65.8712   66.6852 H   0  0  0  0  0  0  0  0  0  0  0  0
   -0.8945   66.9603   69.4639 H   0  0  0  0  0  0  0  0  0  0  0  0
   -0.7651   65.7723   68.1228 H   0  0  0  0  0  0  0  0  0  0  0  0
    0.2668   67.2427   68.1228 H   0  0  0  0  0  0  0  0  0  0  0  0
  2  1  2  0
  3  2  1  0
  4  3  2  0
  5  4  1  0
  6  1  1  0
  6  5  2  0
  7  6  1  0
  8  7  1  0
  9  8  1  0
 10  9  1  0
 10  5  1  0
 11  1  1  0
 12  9  1  0
 13 12  1  0
 14 13  2  0
 15 13  2  0
 16 13  1  0
 17 16  1  0
 18 16  1  0
  2 19  1  0
  3 20  1  0
  4 21  1  0
  7 22  1  0
  7 23  1  0
  8 24  1  0
  8 25  1  0
  9 26  1  6
 10 27  1  0
 10 28  1  0
 11 29  1  0
 12 30  1  0
 17 31  1  0
 17 32  1  0
 17 33  1  0
 18 34  1  0
 18 35  1  0
 18 36  1  0
M  END
>  <score>  (5) 
-8.398

$$$$
=
     RDKit          3D

 36 37  0  0  0  0  0  0  0  0999 V2000
    4.8870   70.7060   69.1910 C   0  0  0  0  0  0  0  0  0  0  0  0
    6.2130   71.1160   69.3200 C   0  0  0  0  0  0  0  0  0  0  0  0
    7.0960   70.9570   68.2580 C   0  0  0  0  0  0  0  0  0  0  0  0
    6.6530   70.3810   67.0700 C   0  0  0  0  0  0  0  0  0  0  0  0
    5.3190   69.9590   66.9330 C   0  0  0  0  0  0  0  0  0  0  0  0
    4.4080   70.1460   67.9970 C   0  0  0  0  0  0  0  0  0  0  0  0
    2.9690   69.7080   67.8600 C   0  0  0  0  0  0  0  0  0  0  0  0
    2.5330   69.4350   66.4220 C   0  0  0  0  0  0  0  0  0  0  0  0
    3.5760   68.5760   65.7120 C   0  0  2  0  0  0  0  0  0  0  0  0
    4.8890   69.3610   65.6140 C   0  0  0  0  0  0  0  0  0  0  0  0
    4.1060   70.8860   70.2990 O   0  0  0  0  0  0  0  0  0  0  0  0
    3.1200   68.2450   64.3420 N   0  0  0  0  0  0  0  0  0  0  0  0
    2.4120   66.7520   64.0740 S   0  0  0  0  0  6  0  0  0  0  0  0
    2.3440   66.0440   65.3290 O   0  0  0  0  0  0  0  0  0  0  0  0
    1.2310   67.0270   63.2910 O   0  0  0  0  0  0  0  0  0  0  0  0
    3.5580   66.0360   63.0820 N   0  0  0  0  0  0  0  0  0  0  0  0
    4.3860   66.9380   62.2670 C   0  0  0  0  0  0  0  0  0  0  0  0
    4.2830   64.8600   63.5770 C   0  0  0  0  0  0  0  0  0  0  0  0
    6.5607   71.5653   70.2619 H   0  0  0  0  0  0  0  0  0  0  0  0
    8.1413   71.2852   68.3558 H   0  0  0  0  0  0  0  0  0  0  0  0
    7.3533   70.2551   66.2311 H   0  0  0  0  0  0  0  0  0  0  0  0
    2.8320   68.7855   68.4433 H   0  0  0  0  0  0  0  0  0  0  0  0
    2.3488   70.5393   68.2264 H   0  0  0  0  0  0  0  0  0  0  0  0
    1.5688   68.9055   66.4284 H   0  0  0  0  0  0  0  0  0  0  0  0
    2.4310   70.3917   65.8888 H   0  0  0  0  0  0  0  0  0  0  0  0
    3.7228   67.6474   66.2831 H   0  0  0  0  0  0  0  0  0  0  0  0
    5.6790   68.6805   65.2635 H   0  0  0  0  0  0  0  0  0  0  0  0
    4.7234   70.1931   64.9138 H   0  0  0  0  0  0  0  0  0  0  0  0
    3.1531   70.6182   70.2817 H   0  0  0  0  0  0  0  0  0  0  0  0
    2.4317   68.9611   64.0694 H   0  0  0  0  0  0  0  0  0  0  0  0
    4.9810   67.5862   62.9272 H   0  0  0  0  0  0  0  0  0  0  0  0
    5.0598   66.3438   61.6322 H   0  0  0  0  0  0  0  0  0  0  0  0
    3.7365   67.5586   61.6322 H   0  0  0  0  0  0  0  0  0  0  0  0
    4.2806   64.8639   64.6770 H   0  0  0  0  0  0  0  0  0  0  0  0
    3.7914   63.9460   63.2125 H   0  0  0  0  0  0  0  0  0  0  0  0
    5.3205   64.8886   63.2125 H   0  0  0  0  0  0  0  0  0  0  0  0
  2  1  2  0
  3  2  1  0
  4  3  2  0
  5  4  1  0
  6  1  1  0
  6  5  2  0
  7  6  1  0
  8  7  1  0
  9  8  1  0
 10  9  1  0
 10  5  1  0
 11  1  1  0
 12  9  1  0
 13 12  1  0
 14 13  2  0
 15 13  2  0
 16 13  1  0
 17 16  1  0
 18 16  1  0
  2 19  1  0
  3 20  1  0
  4 21  1  0
  7 22  1  0
  7 23  1  0
  8 24  1  0
  8 25  1  0
  9 26  1  1
 10 27  1  0
 10 28  1  0
 11 29  1  0
 12 30  1  0
 17 31  1  0
 17 32  1  0
 17 33  1  0
 18 34  1  0
 18 35  1  0
 18 36  1  0
M  END
>  <score>  (6) 
-8.266

$$$$
=
     RDKit          3D

 36 37  0  0  0  0  0  0  0  0999 V2000
    4.1940   69.0710   61.9530 C   0  0  0  0  0  0  0  0  0  0  0  0
    5.5300   69.1200   62.3470 C   0  0  0  0  0  0  0  0  0  0  0  0
    5.8780   68.8310   63.6610 C   0  0  0  0  0  0  0  0  0  0  0  0
    4.8880   68.5000   64.5820 C   0  0  0  0  0  0  0  0  0  0  0  0
    3.5370   68.4540   64.1960 C   0  0  0  0  0  0  0  0  0  0  0  0
    3.1790   68.7150   62.8550 C   0  0  0  0  0  0  0  0  0  0  0  0
    1.7330   68.6580   62.4220 C   0  0  0  0  0  0  0  0  0  0  0  0
    0.8120   67.9460   63.4100 C   0  0  0  0  0  0  0  0  0  0  0  0
    1.0790   68.4460   64.8280 C   0  0  2  0  0  0  0  0  0  0  0  0
    2.5090   68.0670   65.2330 C   0  0  0  0  0  0  0  0  0  0  0  0
    3.9540   69.3930   60.6460 O   0  0  0  0  0  0  0  0  0  0  0  0
    0.1360   67.8150   65.7800 N   0  0  0  0  0  0  0  0  0  0  0  0
   -0.5940   68.7770   66.9400 S   0  0  0  0  0  6  0  0  0  0  0  0
    0.4360   69.4540   67.6880 O   0  0  0  0  0  0  0  0  0  0  0  0
   -1.6250   69.5020   66.2360 O   0  0  0  0  0  0  0  0  0  0  0  0
   -1.3190   67.6110   67.9020 N   0  0  0  0  0  0  0  0  0  0  0  0
   -2.5480   66.9920   67.3810 C   0  0  0  0  0  0  0  0  0  0  0  0
   -0.4640   66.6800   68.6460 C   0  0  0  0  0  0  0  0  0  0  0  0
    6.3090   69.3874   61.6178 H   0  0  0  0  0  0  0  0  0  0  0  0
    6.9325   68.8637   63.9724 H   0  0  0  0  0  0  0  0  0  0  0  0
    5.1655   68.2723   65.6218 H   0  0  0  0  0  0  0  0  0  0  0  0
    1.3704   69.6885   62.2934 H   0  0  0  0  0  0  0  0  0  0  0  0
    1.7050   68.0770   61.4884 H   0  0  0  0  0  0  0  0  0  0  0  0
   -0.2355   68.1500   63.1432 H   0  0  0  0  0  0  0  0  0  0  0  0
    1.0045   66.8638   63.3670 H   0  0  0  0  0  0  0  0  0  0  0  0
    0.9472   69.5378   64.8517 H   0  0  0  0  0  0  0  0  0  0  0  0
    2.7532   68.5771   66.1765 H   0  0  0  0  0  0  0  0  0  0  0  0
    2.5427   66.9725   65.3381 H   0  0  0  0  0  0  0  0  0  0  0  0
    3.0284   69.3800   60.2949 H   0  0  0  0  0  0  0  0  0  0  0  0
   -0.6170   67.3867   65.2228 H   0  0  0  0  0  0  0  0  0  0  0  0
   -3.1822   66.6726   68.2211 H   0  0  0  0  0  0  0  0  0  0  0  0
   -3.0943   67.7225   66.7662 H   0  0  0  0  0  0  0  0  0  0  0  0
   -2.2863   66.1182   66.7662 H   0  0  0  0  0  0  0  0  0  0  0  0
   -0.6061   66.8347   69.7258 H   0  0  0  0  0  0  0  0  0  0  0  0
   -0.7339   65.6460   68.3851 H   0  0  0  0  0  0  0  0  0  0  0  0
    0.5892   66.8610   68.3851 H   0  0  0  0  0  0  0  0  0  0  0  0
  2  1  2  0
  3  2  1  0
  4  3  2  0
  5  4  1  0
  6  1  1  0
  6  5  2  0
  7  6  1  0
  8  7  1  0
  9  8  1  0
 10  9  1  0
 10  5  1  0
 11  1  1  0
 12  9  1  0
 13 12  1  0
 14 13  2  0
 15 13  2  0
 16 13  1  0
 17 16  1  0
 18 16  1  0
  2 19  1  0
  3 20  1  0
  4 21  1  0
  7 22  1  0
  7 23  1  0
  8 24  1  0
  8 25  1  0
  9 26  1  6
 10 27  1  0
 10 28  1  0
 11 29  1  0
 12 30  1  0
 17 31  1  0
 17 32  1  0
 17 33  1  0
 18 34  1  0
 18 35  1  0
 18 36  1  0
M  END
>  <score>  (7) 
-7.683

$$$$
=
     RDKit          3D

 36 37  0  0  0  0  0  0  0  0999 V2000
    3.0140   70.3870   68.5870 C   0  0  0  0  0  0  0  0  0  0  0  0
    4.2160   70.9880   68.9550 C   0  0  0  0  0  0  0  0  0  0  0  0
    5.3420   70.8360   68.1530 C   0  0  0  0  0  0  0  0  0  0  0  0
    5.2650   70.0760   66.9890 C   0  0  0  0  0  0  0  0  0  0  0  0
    4.0580   69.4610   66.6140 C   0  0  0  0  0  0  0  0  0  0  0  0
    2.9020   69.6370   67.4060 C   0  0  0  0  0  0  0  0  0  0  0  0
    1.5950   68.9920   67.0090 C   0  0  0  0  0  0  0  0  0  0  0  0
    1.5520   68.5050   65.5630 C   0  0  0  0  0  0  0  0  0  0  0  0
    2.8230   67.7250   65.2340 C   0  0  2  0  0  0  0  0  0  0  0  0
    4.0290   68.6680   65.3280 C   0  0  0  0  0  0  0  0  0  0  0  0
    1.9720   70.5780   69.4520 O   0  0  0  0  0  0  0  0  0  0  0  0
    2.7520   67.1840   63.8580 N   0  0  0  0  0  0  0  0  0  0  0  0
    4.1630   66.6450   63.1350 S   0  0  0  0  0  6  0  0  0  0  0  0
    5.1940   66.5720   64.1410 O   0  0  0  0  0  0  0  0  0  0  0  0
    3.7740   65.4910   62.3600 O   0  0  0  0  0  0  0  0  0  0  0  0
    4.4830   67.9130   62.0870 N   0  0  0  0  0  0  0  0  0  0  0  0
    3.3200   68.6250   61.5320 C   0  0  0  0  0  0  0  0  0  0  0  0
    5.6260   68.7880   62.3680 C   0  0  0  0  0  0  0  0  0  0  0  0
    4.2743   71.5821   69.8789 H   0  0  0  0  0  0  0  0  0  0  0  0
    6.2906   71.3148   68.4375 H   0  0  0  0  0  0  0  0  0  0  0  0
    6.1572   69.9557   66.3569 H   0  0  0  0  0  0  0  0  0  0  0  0
    1.4215   68.1293   67.6690 H   0  0  0  0  0  0  0  0  0  0  0  0
    0.8185   69.7651   67.1056 H   0  0  0  0  0  0  0  0  0  0  0  0
    0.6780   67.8514   65.4250 H   0  0  0  0  0  0  0  0  0  0  0  0
    1.4791   69.3739   64.8924 H   0  0  0  0  0  0  0  0  0  0  0  0
    2.9257   66.8942   65.9476 H   0  0  0  0  0  0  0  0  0  0  0  0
    4.9490   68.0683   65.2649 H   0  0  0  0  0  0  0  0  0  0  0  0
    3.9506   69.3869   64.4991 H   0  0  0  0  0  0  0  0  0  0  0  0
    1.0867   70.1805   69.2560 H   0  0  0  0  0  0  0  0  0  0  0  0
    2.0980   66.3886   63.8778 H   0  0  0  0  0  0  0  0  0  0  0  0
    2.6969   69.0065   62.3544 H   0  0  0  0  0  0  0  0  0  0  0  0
    3.6660   69.4663   60.9135 H   0  0  0  0  0  0  0  0  0  0  0  0
    2.7281   67.9343   60.9135 H   0  0  0  0  0  0  0  0  0  0  0  0
    5.7540   68.8860   63.4561 H   0  0  0  0  0  0  0  0  0  0  0  0
    6.5366   68.3540   61.9293 H   0  0  0  0  0  0  0  0  0  0  0  0
    5.4447   69.7803   61.9293 H   0  0  0  0  0  0  0  0  0  0  0  0
  2  1  2  0
  3  2  1  0
  4  3  2  0
  5  4  1  0
  6  1  1  0
  6  5  2  0
  7  6  1  0
  8  7  1  0
  9  8  1  0
 10  9  1  0
 10  5  1  0
 11  1  1  0
 12  9  1  0
 13 12  1  0
 14 13  2  0
 15 13  2  0
 16 13  1  0
 17 16  1  0
 18 16  1  0
  2 19  1  0
  3 20  1  0
  4 21  1  0
  7 22  1  0
  7 23  1  0
  8 24  1  0
  8 25  1  0
  9 26  1  1
 10 27  1  0
 10 28  1  0
 11 29  1  0
 12 30  1  0
 17 31  1  0
 17 32  1  0
 17 33  1  0
 18 34  1  0
 18 35  1  0
 18 36  1  0
M  END
>  <score>  (8) 
-7.67

$$$$
=
     RDKit          3D

 36 37  0  0  0  0  0  0  0  0999 V2000
    4.4960   66.2320   62.9890 C   0  0  0  0  0  0  0  0  0  0  0  0
    4.8730   64.9400   63.3510 C   0  0  0  0  0  0  0  0  0  0  0  0
    4.1570   64.2550   64.3280 C   0  0  0  0  0  0  0  0  0  0  0  0
    3.0710   64.8680   64.9460 C   0  0  0  0  0  0  0  0  0  0  0  0
    2.6870   66.1730   64.5920 C   0  0  0  0  0  0  0  0  0  0  0  0
    3.3890   66.8630   63.5780 C   0  0  0  0  0  0  0  0  0  0  0  0
    2.9810   68.2610   63.1780 C   0  0  0  0  0  0  0  0  0  0  0  0
    1.5900   68.6680   63.6580 C   0  0  0  0  0  0  0  0  0  0  0  0
    1.4140   68.3030   65.1300 C   0  0  2  0  0  0  0  0  0  0  0  0
    1.4860   66.7780   65.2800 C   0  0  0  0  0  0  0  0  0  0  0  0
    5.2750   66.8270   62.0360 O   0  0  0  0  0  0  0  0  0  0  0  0
    0.0960   68.7640   65.6190 N   0  0  0  0  0  0  0  0  0  0  0  0
   -0.1470   68.8870   67.2720 S   0  0  0  0  0  6  0  0  0  0  0  0
    1.1380   68.8660   67.9270 O   0  0  0  0  0  0  0  0  0  0  0  0
   -1.0690   69.9850   67.4390 O   0  0  0  0  0  0  0  0  0  0  0  0
   -0.9610   67.4530   67.5750 N   0  0  0  0  0  0  0  0  0  0  0  0
   -0.5620   66.7060   68.7790 C   0  0  0  0  0  0  0  0  0  0  0  0
   -2.3990   67.3850   67.2930 C   0  0  0  0  0  0  0  0  0  0  0  0
    5.7361   64.4620   62.8646 H   0  0  0  0  0  0  0  0  0  0  0  0
    4.4483   63.2327   64.6109 H   0  0  0  0  0  0  0  0  0  0  0  0
    2.5074   64.3256   65.7194 H   0  0  0  0  0  0  0  0  0  0  0  0
    3.7116   68.9674   63.5989 H   0  0  0  0  0  0  0  0  0  0  0  0
    2.9544   68.2803   62.0785 H   0  0  0  0  0  0  0  0  0  0  0  0
    1.4664   69.7541   63.5354 H   0  0  0  0  0  0  0  0  0  0  0  0
    0.8340   68.1351   63.0626 H   0  0  0  0  0  0  0  0  0  0  0  0
    2.2097   68.7872   65.7151 H   0  0  0  0  0  0  0  0  0  0  0  0
    1.5355   66.5332   66.3513 H   0  0  0  0  0  0  0  0  0  0  0  0
    0.5879   66.3579   64.8037 H   0  0  0  0  0  0  0  0  0  0  0  0
    5.0672   67.7450   61.7292 H   0  0  0  0  0  0  0  0  0  0  0  0
   -0.0670   69.6985   65.2177 H   0  0  0  0  0  0  0  0  0  0  0  0
   -0.8623   67.2681   69.6756 H   0  0  0  0  0  0  0  0  0  0  0  0
   -1.0550   65.7227   68.7806 H   0  0  0  0  0  0  0  0  0  0  0  0
    0.5294   66.5690   68.7806 H   0  0  0  0  0  0  0  0  0  0  0  0
   -2.9576   67.3586   68.2403 H   0  0  0  0  0  0  0  0  0  0  0  0
   -2.7013   68.2699   66.7136 H   0  0  0  0  0  0  0  0  0  0  0  0
   -2.6164   66.4756   66.7136 H   0  0  0  0  0  0  0  0  0  0  0  0
  2  1  2  0
  3  2  1  0
  4  3  2  0
  5  4  1  0
  6  1  1  0
  6  5  2  0
  7  6  1  0
  8  7  1  0
  9  8  1  0
 10  9  1  0
 10  5  1  0
 11  1  1  0
 12  9  1  0
 13 12  1  0
 14 13  2  0
 15 13  2  0
 16 13  1  0
 17 16  1  0
 18 16  1  0
  2 19  1  0
  3 20  1  0
  4 21  1  0
  7 22  1  0
  7 23  1  0
  8 24  1  0
  8 25  1  0
  9 26  1  1
 10 27  1  0
 10 28  1  0
 11 29  1  0
 12 30  1  0
 17 31  1  0
 17 32  1  0
 17 33  1  0
 18 34  1  0
 18 35  1  0
 18 36  1  0
M  END
>  <score>  (9) 
-7.352

$$$$
