=
     RDKit          3D

 16 17  0  0  0  0  0  0  0  0999 V2000
    1.6610   69.4960   68.0340 O   0  0  0  0  0  0  0  0  0  0  0  0
    2.8220   69.7120   67.7740 C   0  0  0  0  0  0  0  0  0  0  0  0
    3.4900   69.4790   66.4950 C   0  0  0  0  0  0  0  0  0  0  0  0
    2.9840   68.9760   65.3120 C   0  0  0  0  0  0  0  0  0  0  0  0
    3.8710   68.8650   64.2400 C   0  0  0  0  0  0  0  0  0  0  0  0
    5.2180   69.2540   64.3790 C   0  0  0  0  0  0  0  0  0  0  0  0
    5.7040   69.7620   65.5910 C   0  0  0  0  0  0  0  0  0  0  0  0
    4.8180   69.8680   66.6470 C   0  0  0  0  0  0  0  0  0  0  0  0
    5.0490   70.3370   67.9440 N   0  0  0  0  0  0  0  0  0  0  0  0
    3.9040   70.2880   68.7200 C   0  0  0  0  0  0  0  0  0  0  0  0
    3.7120   70.6040   69.8760 O   0  0  0  0  0  0  0  0  0  0  0  0
    6.5510   70.9080   68.5310 Cl  0  0  0  0  0  0  0  0  0  0  0  0
    1.9297   68.6765   65.2191 H   0  0  0  0  0  0  0  0  0  0  0  0
    3.5148   68.4699   63.2772 H   0  0  0  0  0  0  0  0  0  0  0  0
    5.8998   69.1572   63.5213 H   0  0  0  0  0  0  0  0  0  0  0  0
    6.7555   70.0664   65.6987 H   0  0  0  0  0  0  0  0  0  0  0  0
  2  1  2  0
  3  2  1  0
  4  3  2  0
  5  4  1  0
  6  5  2  0
  7  6  1  0
  8  3  1  0
  8  7  2  0
  9  8  1  0
 10  9  1  0
 10  2  1  0
 11 10  2  0
 12  9  1  0
  4 13  1  0
  5 14  1  0
  6 15  1  0
  7 16  1  0
M  END
>  <score>  (1) 
-7.924

$$$$
=
     RDKit          3D

 16 17  0  0  0  0  0  0  0  0999 V2000
    5.4280   69.4010   64.1950 O   0  0  0  0  0  0  0  0  0  0  0  0
    4.7380   69.4760   65.1860 C   0  0  0  0  0  0  0  0  0  0  0  0
    5.1480   69.9620   66.5020 C   0  0  0  0  0  0  0  0  0  0  0  0
    6.3730   70.4380   66.9270 C   0  0  0  0  0  0  0  0  0  0  0  0
    6.4700   70.8380   68.2600 C   0  0  0  0  0  0  0  0  0  0  0  0
    5.3560   70.7510   69.1190 C   0  0  0  0  0  0  0  0  0  0  0  0
    4.1240   70.2640   68.6610 C   0  0  0  0  0  0  0  0  0  0  0  0
    4.0390   69.8700   67.3380 C   0  0  0  0  0  0  0  0  0  0  0  0
    2.9390   69.3560   66.6440 N   0  0  0  0  0  0  0  0  0  0  0  0
    3.2480   69.0780   65.3240 C   0  0  0  0  0  0  0  0  0  0  0  0
    2.5680   68.6300   64.4240 O   0  0  0  0  0  0  0  0  0  0  0  0
    1.3880   69.0900   67.3160 Cl  0  0  0  0  0  0  0  0  0  0  0  0
    7.2338   70.4990   66.2448 H   0  0  0  0  0  0  0  0  0  0  0  0
    7.4252   71.2251   68.6444 H   0  0  0  0  0  0  0  0  0  0  0  0
    5.4551   71.0708   70.1668 H   0  0  0  0  0  0  0  0  0  0  0  0
    3.2542   70.1974   69.3311 H   0  0  0  0  0  0  0  0  0  0  0  0
  2  1  2  0
  3  2  1  0
  4  3  2  0
  5  4  1  0
  6  5  2  0
  7  6  1  0
  8  3  1  0
  8  7  2  0
  9  8  1  0
 10  9  1  0
 10  2  1  0
 11 10  2  0
 12  9  1  0
  4 13  1  0
  5 14  1  0
  6 15  1  0
  7 16  1  0
M  END
>  <score>  (2) 
-7.783

$$$$
=
     RDKit          3D

 16 17  0  0  0  0  0  0  0  0999 V2000
    1.5920   69.2220   67.4160 O   0  0  0  0  0  0  0  0  0  0  0  0
    2.6730   69.3740   66.8970 C   0  0  0  0  0  0  0  0  0  0  0  0
    3.8850   69.8860   67.5340 C   0  0  0  0  0  0  0  0  0  0  0  0
    4.0910   70.3040   68.8340 C   0  0  0  0  0  0  0  0  0  0  0  0
    5.3730   70.7480   69.1620 C   0  0  0  0  0  0  0  0  0  0  0  0
    6.3970   70.7610   68.1940 C   0  0  0  0  0  0  0  0  0  0  0  0
    6.1600   70.3290   66.8820 C   0  0  0  0  0  0  0  0  0  0  0  0
    4.8870   69.8920   66.5680 C   0  0  0  0  0  0  0  0  0  0  0  0
    4.3980   69.4170   65.3480 N   0  0  0  0  0  0  0  0  0  0  0  0
    3.0590   69.0720   65.4280 C   0  0  0  0  0  0  0  0  0  0  0  0
    2.3000   68.6290   64.5920 O   0  0  0  0  0  0  0  0  0  0  0  0
    5.3150   69.2690   63.9110 Cl  0  0  0  0  0  0  0  0  0  0  0  0
    3.2808   70.2878   69.5779 H   0  0  0  0  0  0  0  0  0  0  0  0
    5.5859   71.0908   70.1853 H   0  0  0  0  0  0  0  0  0  0  0  0
    7.3999   71.1164   68.4730 H   0  0  0  0  0  0  0  0  0  0  0  0
    6.9604   70.3375   66.1274 H   0  0  0  0  0  0  0  0  0  0  0  0
  2  1  2  0
  3  2  1  0
  4  3  2  0
  5  4  1  0
  6  5  2  0
  7  6  1  0
  8  3  1  0
  8  7  2  0
  9  8  1  0
 10  9  1  0
 10  2  1  0
 11 10  2  0
 12  9  1  0
  4 13  1  0
  5 14  1  0
  6 15  1  0
  7 16  1  0
M  END
>  <score>  (3) 
-7.714

$$$$
=
     RDKit          3D

 16 17  0  0  0  0  0  0  0  0999 V2000
    5.5700   69.1340   62.7070 O   0  0  0  0  0  0  0  0  0  0  0  0
    4.6280   69.0670   63.4620 C   0  0  0  0  0  0  0  0  0  0  0  0
    4.6280   69.3810   64.8890 C   0  0  0  0  0  0  0  0  0  0  0  0
    5.6590   69.8160   65.6990 C   0  0  0  0  0  0  0  0  0  0  0  0
    5.3580   70.0380   67.0440 C   0  0  0  0  0  0  0  0  0  0  0  0
    4.0550   69.8210   67.5340 C   0  0  0  0  0  0  0  0  0  0  0  0
    3.0280   69.3800   66.6890 C   0  0  0  0  0  0  0  0  0  0  0  0
    3.3360   69.1630   65.3590 C   0  0  0  0  0  0  0  0  0  0  0  0
    2.5020   68.7280   64.3230 N   0  0  0  0  0  0  0  0  0  0  0  0
    3.1820   68.6320   63.1210 C   0  0  0  0  0  0  0  0  0  0  0  0
    2.8050   68.2960   62.0190 O   0  0  0  0  0  0  0  0  0  0  0  0
    0.8420   68.3520   64.4900 Cl  0  0  0  0  0  0  0  0  0  0  0  0
    6.6717   69.9801   65.3020 H   0  0  0  0  0  0  0  0  0  0  0  0
    6.1461   70.3858   67.7281 H   0  0  0  0  0  0  0  0  0  0  0  0
    3.8403   70.0008   68.5978 H   0  0  0  0  0  0  0  0  0  0  0  0
    2.0103   69.2120   67.0713 H   0  0  0  0  0  0  0  0  0  0  0  0
  2  1  2  0
  3  2  1  0
  4  3  2  0
  5  4  1  0
  6  5  2  0
  7  6  1  0
  8  3  1  0
  8  7  2  0
  9  8  1  0
 10  9  1  0
 10  2  1  0
 11 10  2  0
 12  9  1  0
  4 13  1  0
  5 14  1  0
  6 15  1  0
  7 16  1  0
M  END
>  <score>  (4) 
-7.518

$$$$
=
     RDKit          3D

 16 17  0  0  0  0  0  0  0  0999 V2000
    0.3700   68.5280   66.0460 O   0  0  0  0  0  0  0  0  0  0  0  0
    1.3130   68.6260   65.2950 C   0  0  0  0  0  0  0  0  0  0  0  0
    2.6700   69.0420   65.6450 C   0  0  0  0  0  0  0  0  0  0  0  0
    3.1940   69.4090   66.8680 C   0  0  0  0  0  0  0  0  0  0  0  0
    4.5450   69.7610   66.8990 C   0  0  0  0  0  0  0  0  0  0  0  0
    5.3200   69.7370   65.7230 C   0  0  0  0  0  0  0  0  0  0  0  0
    4.7620   69.3600   64.4950 C   0  0  0  0  0  0  0  0  0  0  0  0
    3.4240   69.0130   64.4750 C   0  0  0  0  0  0  0  0  0  0  0  0
    2.6390   68.6040   63.3930 N   0  0  0  0  0  0  0  0  0  0  0  0
    1.3340   68.3420   63.7730 C   0  0  0  0  0  0  0  0  0  0  0  0
    0.3750   67.9720   63.1270 O   0  0  0  0  0  0  0  0  0  0  0  0
    3.1920   68.4400   61.7820 Cl  0  0  0  0  0  0  0  0  0  0  0  0
    2.5753   69.4236   67.7774 H   0  0  0  0  0  0  0  0  0  0  0  0
    5.0084   70.0599   67.8508 H   0  0  0  0  0  0  0  0  0  0  0  0
    6.3821   70.0193   65.7700 H   0  0  0  0  0  0  0  0  0  0  0  0
    5.3681   69.3407   63.5772 H   0  0  0  0  0  0  0  0  0  0  0  0
  2  1  2  0
  3  2  1  0
  4  3  2  0
  5  4  1  0
  6  5  2  0
  7  6  1  0
  8  3  1  0
  8  7  2  0
  9  8  1  0
 10  9  1  0
 10  2  1  0
 11 10  2  0
 12  9  1  0
  4 13  1  0
  5 14  1  0
  6 15  1  0
  7 16  1  0
M  END
>  <score>  (5) 
-7.444

$$$$
=
     RDKit          3D

 16 17  0  0  0  0  0  0  0  0999 V2000
    2.9130   70.1670   69.5010 O   0  0  0  0  0  0  0  0  0  0  0  0
    2.8860   69.8350   68.3390 C   0  0  0  0  0  0  0  0  0  0  0  0
    4.0030   69.8590   67.3970 C   0  0  0  0  0  0  0  0  0  0  0  0
    5.3140   70.2480   67.5900 C   0  0  0  0  0  0  0  0  0  0  0  0
    6.1700   70.1600   66.4910 C   0  0  0  0  0  0  0  0  0  0  0  0
    5.6970   69.6930   65.2480 C   0  0  0  0  0  0  0  0  0  0  0  0
    4.3610   69.3040   65.0810 C   0  0  0  0  0  0  0  0  0  0  0  0
    3.5220   69.3950   66.1760 C   0  0  0  0  0  0  0  0  0  0  0  0
    2.1650   69.0740   66.2710 N   0  0  0  0  0  0  0  0  0  0  0  0
    1.6690   69.3030   67.5430 C   0  0  0  0  0  0  0  0  0  0  0  0
    0.5580   69.1470   68.0050 O   0  0  0  0  0  0  0  0  0  0  0  0
    1.2040   68.4710   64.9900 Cl  0  0  0  0  0  0  0  0  0  0  0  0
    5.6678   70.6110   68.5662 H   0  0  0  0  0  0  0  0  0  0  0  0
    7.2237   70.4579   66.5959 H   0  0  0  0  0  0  0  0  0  0  0  0
    6.3883   69.6329   64.3945 H   0  0  0  0  0  0  0  0  0  0  0  0
    3.9923   68.9385   64.1112 H   0  0  0  0  0  0  0  0  0  0  0  0
  2  1  2  0
  3  2  1  0
  4  3  2  0
  5  4  1  0
  6  5  2  0
  7  6  1  0
  8  3  1  0
  8  7  2  0
  9  8  1  0
 10  9  1  0
 10  2  1  0
 11 10  2  0
 12  9  1  0
  4 13  1  0
  5 14  1  0
  6 15  1  0
  7 16  1  0
M  END
>  <score>  (6) 
-7.422

$$$$
=
     RDKit          3D

 16 17  0  0  0  0  0  0  0  0999 V2000
    0.7540   67.9900   63.0630 O   0  0  0  0  0  0  0  0  0  0  0  0
    1.8800   68.3550   63.3100 C   0  0  0  0  0  0  0  0  0  0  0  0
    2.4070   68.7430   64.6160 C   0  0  0  0  0  0  0  0  0  0  0  0
    1.7790   68.7880   65.8450 C   0  0  0  0  0  0  0  0  0  0  0  0
    2.5460   69.2040   66.9340 C   0  0  0  0  0  0  0  0  0  0  0  0
    3.8990   69.5590   66.7660 C   0  0  0  0  0  0  0  0  0  0  0  0
    4.5120   69.5030   65.5070 C   0  0  0  0  0  0  0  0  0  0  0  0
    3.7430   69.0900   64.4340 C   0  0  0  0  0  0  0  0  0  0  0  0
    4.1110   68.9490   63.0930 N   0  0  0  0  0  0  0  0  0  0  0  0
    3.0550   68.5080   62.3130 C   0  0  0  0  0  0  0  0  0  0  0  0
    2.9880   68.2720   61.1250 O   0  0  0  0  0  0  0  0  0  0  0  0
    5.6660   69.2770   62.4590 Cl  0  0  0  0  0  0  0  0  0  0  0  0
    0.7214   68.5084   65.9604 H   0  0  0  0  0  0  0  0  0  0  0  0
    2.0897   69.2553   67.9336 H   0  0  0  0  0  0  0  0  0  0  0  0
    4.4844   69.8858   67.6381 H   0  0  0  0  0  0  0  0  0  0  0  0
    5.5690   69.7782   65.3765 H   0  0  0  0  0  0  0  0  0  0  0  0
  2  1  2  0
  3  2  1  0
  4  3  2  0
  5  4  1  0
  6  5  2  0
  7  6  1  0
  8  3  1  0
  8  7  2  0
  9  8  1  0
 10  9  1  0
 10  2  1  0
 11 10  2  0
 12  9  1  0
  4 13  1  0
  5 14  1  0
  6 15  1  0
  7 16  1  0
M  END
>  <score>  (7) 
-7.268

$$$$
=
     RDKit          3D

 16 17  0  0  0  0  0  0  0  0999 V2000
    0.8220   67.9850   63.1390 O   0  0  0  0  0  0  0  0  0  0  0  0
    1.3520   68.2950   64.1810 C   0  0  0  0  0  0  0  0  0  0  0  0
    2.7280   68.7550   64.3590 C   0  0  0  0  0  0  0  0  0  0  0  0
    3.7250   68.9440   63.4220 C   0  0  0  0  0  0  0  0  0  0  0  0
    4.9580   69.3990   63.8920 C   0  0  0  0  0  0  0  0  0  0  0  0
    5.1560   69.6470   65.2650 C   0  0  0  0  0  0  0  0  0  0  0  0
    4.1260   69.4470   66.1930 C   0  0  0  0  0  0  0  0  0  0  0  0
    2.9090   68.9960   65.7180 C   0  0  0  0  0  0  0  0  0  0  0  0
    1.7360   68.7220   66.4270 N   0  0  0  0  0  0  0  0  0  0  0  0
    0.7200   68.2860   65.5940 C   0  0  0  0  0  0  0  0  0  0  0  0
   -0.4230   67.9570   65.8360 O   0  0  0  0  0  0  0  0  0  0  0  0
    1.5470   68.8910   68.1190 Cl  0  0  0  0  0  0  0  0  0  0  0  0
    3.5550   68.7449   62.3536 H   0  0  0  0  0  0  0  0  0  0  0  0
    5.7831   69.5656   63.1838 H   0  0  0  0  0  0  0  0  0  0  0  0
    6.1363   70.0038   65.6140 H   0  0  0  0  0  0  0  0  0  0  0  0
    4.2807   69.6424   67.2644 H   0  0  0  0  0  0  0  0  0  0  0  0
  2  1  2  0
  3  2  1  0
  4  3  2  0
  5  4  1  0
  6  5  2  0
  7  6  1  0
  8  3  1  0
  8  7  2  0
  9  8  1  0
 10  9  1  0
 10  2  1  0
 11 10  2  0
 12  9  1  0
  4 13  1  0
  5 14  1  0
  6 15  1  0
  7 16  1  0
M  END
>  <score>  (8) 
-7.264

$$$$
=
     RDKit          3D

 16 17  0  0  0  0  0  0  0  0999 V2000
    3.4240   70.3340   69.5490 O   0  0  0  0  0  0  0  0  0  0  0  0
    3.5360   70.0240   68.3850 C   0  0  0  0  0  0  0  0  0  0  0  0
    2.4980   69.4560   67.5280 C   0  0  0  0  0  0  0  0  0  0  0  0
    1.1840   69.1440   67.8190 C   0  0  0  0  0  0  0  0  0  0  0  0
    0.4170   68.6060   66.7840 C   0  0  0  0  0  0  0  0  0  0  0  0
    0.9770   68.3980   65.5080 C   0  0  0  0  0  0  0  0  0  0  0  0
    2.3130   68.7240   65.2410 C   0  0  0  0  0  0  0  0  0  0  0  0
    3.0650   69.2560   66.2730 C   0  0  0  0  0  0  0  0  0  0  0  0
    4.4030   69.6600   66.2660 N   0  0  0  0  0  0  0  0  0  0  0  0
    4.8010   70.1450   67.5000 C   0  0  0  0  0  0  0  0  0  0  0  0
    5.8680   70.5800   67.8780 O   0  0  0  0  0  0  0  0  0  0  0  0
    5.4500   69.5770   64.9150 Cl  0  0  0  0  0  0  0  0  0  0  0  0
    0.7614   69.3118   68.8206 H   0  0  0  0  0  0  0  0  0  0  0  0
   -0.6351   68.3418   66.9665 H   0  0  0  0  0  0  0  0  0  0  0  0
    0.3543   67.9722   64.7074 H   0  0  0  0  0  0  0  0  0  0  0  0
    2.7494   68.5624   64.2443 H   0  0  0  0  0  0  0  0  0  0  0  0
  2  1  2  0
  3  2  1  0
  4  3  2  0
  5  4  1  0
  6  5  2  0
  7  6  1  0
  8  3  1  0
  8  7  2  0
  9  8  1  0
 10  9  1  0
 10  2  1  0
 11 10  2  0
 12  9  1  0
  4 13  1  0
  5 14  1  0
  6 15  1  0
  7 16  1  0
M  END
>  <score>  (9) 
-6.997

$$$$
