=
     RDKit          3D

 49 50  0  0  0  0  0  0  0  0999 V2000
    3.3060   68.8460   61.2650 C   0  0  2  0  0  0  0  0  0  0  0  0
    1.9970   68.9230   62.0110 C   0  0  0  0  0  0  0  0  0  0  0  0
    0.8370   69.4560   61.4360 C   0  0  0  0  0  0  0  0  0  0  0  0
   -0.3630   69.4880   62.1540 C   0  0  0  0  0  0  0  0  0  0  0  0
   -0.4230   68.9750   63.4530 C   0  0  0  0  0  0  0  0  0  0  0  0
    0.7200   68.4230   64.0460 C   0  0  0  0  0  0  0  0  0  0  0  0
    1.9210   68.4070   63.3140 C   0  0  0  0  0  0  0  0  0  0  0  0
    0.7720   67.8270   65.4140 C   0  0  0  0  0  0  0  0  0  0  0  0
    1.0100   66.6340   65.5700 O   0  0  0  0  0  0  0  0  0  0  0  0
    0.5420   68.6430   66.4800 N   0  0  0  0  0  0  0  0  0  0  0  0
   -1.6140   69.0180   64.1260 O   0  0  0  0  0  0  0  0  0  0  0  0
    3.1120   68.7360   59.8440 O   0  0  0  0  0  0  0  0  0  0  0  0
    4.1550   67.6340   61.7040 C   0  0  0  0  0  0  0  0  0  0  0  0
    5.4770   68.1390   62.2360 N   0  0  0  0  0  4  0  0  0  0  0  0
    5.6650   68.1020   63.7350 C   0  0  2  0  0  0  0  0  0  0  0  0
    4.7970   66.9520   64.2450 C   0  0  0  0  0  0  0  0  0  0  0  0
    5.2640   69.4730   64.3080 C   0  0  0  0  0  0  0  0  0  0  0  0
    4.3430   69.3890   65.5340 C   0  0  0  0  0  0  0  0  0  0  0  0
    4.9500   69.9010   66.8110 C   0  0  0  0  0  0  0  0  0  0  0  0
    4.1470   70.1480   67.9330 C   0  0  0  0  0  0  0  0  0  0  0  0
    4.7110   70.6340   69.1130 C   0  0  0  0  0  0  0  0  0  0  0  0
    6.0820   70.8710   69.1870 C   0  0  0  0  0  0  0  0  0  0  0  0
    6.8920   70.6160   68.0840 C   0  0  0  0  0  0  0  0  0  0  0  0
    6.3310   70.1290   66.9010 C   0  0  0  0  0  0  0  0  0  0  0  0
    3.8291   69.7830   61.5066 H   0  0  0  0  0  0  0  0  0  0  0  0
    0.8696   69.8530   60.4107 H   0  0  0  0  0  0  0  0  0  0  0  0
   -1.2644   69.9192   61.6940 H   0  0  0  0  0  0  0  0  0  0  0  0
    2.8237   67.9792   63.7745 H   0  0  0  0  0  0  0  0  0  0  0  0
    0.5709   68.2615   67.4363 H   0  0  0  0  0  0  0  0  0  0  0  0
    0.3391   69.6416   66.3298 H   0  0  0  0  0  0  0  0  0  0  0  0
   -1.6755   68.6594   65.0467 H   0  0  0  0  0  0  0  0  0  0  0  0
    2.2654   68.2560   59.6627 H   0  0  0  0  0  0  0  0  0  0  0  0
    3.6267   67.0773   62.4920 H   0  0  0  0  0  0  0  0  0  0  0  0
    4.3253   66.9644   60.8480 H   0  0  0  0  0  0  0  0  0  0  0  0
    6.2222   67.5668   61.8139 H   0  0  0  0  0  0  0  0  0  0  0  0
    5.5060   69.1374   61.9845 H   0  0  0  0  0  0  0  0  0  0  0  0
    6.7047   67.9243   64.0470 H   0  0  0  0  0  0  0  0  0  0  0  0
    4.7972   66.9523   65.3450 H   0  0  0  0  0  0  0  0  0  0  0  0
    3.7677   67.0791   63.8785 H   0  0  0  0  0  0  0  0  0  0  0  0
    5.2014   65.9969   63.8785 H   0  0  0  0  0  0  0  0  0  0  0  0
    6.1799   70.0083   64.5987 H   0  0  0  0  0  0  0  0  0  0  0  0
    4.7013   69.9962   63.5208 H   0  0  0  0  0  0  0  0  0  0  0  0
    3.4382   69.9783   65.3241 H   0  0  0  0  0  0  0  0  0  0  0  0
    4.1355   68.3208   65.6946 H   0  0  0  0  0  0  0  0  0  0  0  0
    3.0648   69.9574   67.8829 H   0  0  0  0  0  0  0  0  0  0  0  0
    4.0720   70.8304   69.9866 H   0  0  0  0  0  0  0  0  0  0  0  0
    6.5240   71.2594   70.1164 H   0  0  0  0  0  0  0  0  0  0  0  0
    7.9751   70.7982   68.1440 H   0  0  0  0  0  0  0  0  0  0  0  0
    6.9765   69.9230   66.0344 H   0  0  0  0  0  0  0  0  0  0  0  0
  2  1  1  0
  3  2  2  0
  4  3  1  0
  5  4  2  0
  6  5  1  0
  7  6  2  0
  7  2  1  0
  8  6  1  0
  9  8  2  0
 10  8  1  0
 11  5  1  0
 12  1  1  0
 13  1  1  0
 14 13  1  0
 15 14  1  0
 16 15  1  0
 17 15  1  0
 18 17  1  0
 19 18  1  0
 20 19  2  0
 21 20  1  0
 22 21  2  0
 23 22  1  0
 24 19  1  0
 24 23  2  0
  1 25  1  6
  3 26  1  0
  4 27  1  0
  7 28  1  0
 10 29  1  0
 10 30  1  0
 11 31  1  0
 12 32  1  0
 13 33  1  0
 13 34  1  0
 14 35  1  0
 14 36  1  0
 15 37  1  6
 16 38  1  0
 16 39  1  0
 16 40  1  0
 17 41  1  0
 17 42  1  0
 18 43  1  0
 18 44  1  0
 20 45  1  0
 21 46  1  0
 22 47  1  0
 23 48  1  0
 24 49  1  0
M  CHG  1  14   1
M  END
>  <score>  (1) 
-10.43

$$$$
=
     RDKit          3D

 49 50  0  0  0  0  0  0  0  0999 V2000
    2.5930   66.7310   65.3430 C   0  0  2  0  0  0  0  0  0  0  0  0
    2.7960   67.3590   63.9870 C   0  0  0  0  0  0  0  0  0  0  0  0
    3.9610   67.1590   63.2350 C   0  0  0  0  0  0  0  0  0  0  0  0
    4.1010   67.7400   61.9700 C   0  0  0  0  0  0  0  0  0  0  0  0
    3.0720   68.5200   61.4340 C   0  0  0  0  0  0  0  0  0  0  0  0
    1.8910   68.7240   62.1590 C   0  0  0  0  0  0  0  0  0  0  0  0
    1.7690   68.1390   63.4330 C   0  0  0  0  0  0  0  0  0  0  0  0
    0.7180   69.5160   61.6820 C   0  0  0  0  0  0  0  0  0  0  0  0
   -0.0200   70.0850   62.4780 O   0  0  0  0  0  0  0  0  0  0  0  0
    0.4910   69.5830   60.3410 N   0  0  0  0  0  0  0  0  0  0  0  0
    3.2390   69.0710   60.1920 O   0  0  0  0  0  0  0  0  0  0  0  0
    2.8780   65.3210   65.3340 O   0  0  0  0  0  0  0  0  0  0  0  0
    1.1450   66.9000   65.8520 C   0  0  0  0  0  0  0  0  0  0  0  0
    1.1900   67.3590   67.2910 N   0  0  0  0  0  4  0  0  0  0  0  0
    0.4300   68.6210   67.6270 C   0  0  2  0  0  0  0  0  0  0  0  0
   -0.6470   68.7670   66.5530 C   0  0  0  0  0  0  0  0  0  0  0  0
    1.4260   69.7940   67.6580 C   0  0  0  0  0  0  0  0  0  0  0  0
    2.6330   69.5610   68.5790 C   0  0  0  0  0  0  0  0  0  0  0  0
    3.9630   69.9100   67.9700 C   0  0  0  0  0  0  0  0  0  0  0  0
    4.9660   70.5080   68.7450 C   0  0  0  0  0  0  0  0  0  0  0  0
    6.1960   70.8420   68.1750 C   0  0  0  0  0  0  0  0  0  0  0  0
    6.4380   70.5740   66.8300 C   0  0  0  0  0  0  0  0  0  0  0  0
    5.4550   69.9660   66.0540 C   0  0  0  0  0  0  0  0  0  0  0  0
    4.2240   69.6310   66.6210 C   0  0  0  0  0  0  0  0  0  0  0  0
    3.2930   67.2566   66.0092 H   0  0  0  0  0  0  0  0  0  0  0  0
    4.7732   66.5394   63.6429 H   0  0  0  0  0  0  0  0  0  0  0  0
    5.0250   67.5824   61.3944 H   0  0  0  0  0  0  0  0  0  0  0  0
    0.8454   68.2970   64.0093 H   0  0  0  0  0  0  0  0  0  0  0  0
   -0.3098   70.1213   59.9805 H   0  0  0  0  0  0  0  0  0  0  0  0
    1.1201   69.0954   59.6872 H   0  0  0  0  0  0  0  0  0  0  0  0
    2.5212   69.6262   59.7962 H   0  0  0  0  0  0  0  0  0  0  0  0
    2.9445   64.9918   66.2653 H   0  0  0  0  0  0  0  0  0  0  0  0
    0.6223   67.6499   65.2401 H   0  0  0  0  0  0  0  0  0  0  0  0
    0.6072   65.9432   65.7795 H   0  0  0  0  0  0  0  0  0  0  0  0
    0.8066   66.6001   67.8724 H   0  0  0  0  0  0  0  0  0  0  0  0
    2.1789   67.5834   67.4718 H   0  0  0  0  0  0  0  0  0  0  0  0
   -0.0554   68.5965   68.6138 H   0  0  0  0  0  0  0  0  0  0  0  0
   -1.6278   68.9000   67.0330 H   0  0  0  0  0  0  0  0  0  0  0  0
   -0.4236   69.6431   65.9264 H   0  0  0  0  0  0  0  0  0  0  0  0
   -0.6649   67.8631   65.9264 H   0  0  0  0  0  0  0  0  0  0  0  0
    1.7971   69.9604   66.6360 H   0  0  0  0  0  0  0  0  0  0  0  0
    0.8831   70.6636   68.0568 H   0  0  0  0  0  0  0  0  0  0  0  0
    2.4982   70.1737   69.4825 H   0  0  0  0  0  0  0  0  0  0  0  0
    2.6605   68.4816   68.7891 H   0  0  0  0  0  0  0  0  0  0  0  0
    4.7829   70.7156   69.8096 H   0  0  0  0  0  0  0  0  0  0  0  0
    6.9750   71.3175   68.7891 H   0  0  0  0  0  0  0  0  0  0  0  0
    7.4055   70.8426   66.3809 H   0  0  0  0  0  0  0  0  0  0  0  0
    5.6484   69.7493   64.9930 H   0  0  0  0  0  0  0  0  0  0  0  0
    3.4533   69.1447   66.0049 H   0  0  0  0  0  0  0  0  0  0  0  0
  2  1  1  0
  3  2  2  0
  4  3  1  0
  5  4  2  0
  6  5  1  0
  7  6  2  0
  7  2  1  0
  8  6  1  0
  9  8  2  0
 10  8  1  0
 11  5  1  0
 12  1  1  0
 13  1  1  0
 14 13  1  0
 15 14  1  0
 16 15  1  0
 17 15  1  0
 18 17  1  0
 19 18  1  0
 20 19  2  0
 21 20  1  0
 22 21  2  0
 23 22  1  0
 24 19  1  0
 24 23  2  0
  1 25  1  1
  3 26  1  0
  4 27  1  0
  7 28  1  0
 10 29  1  0
 10 30  1  0
 11 31  1  0
 12 32  1  0
 13 33  1  0
 13 34  1  0
 14 35  1  0
 14 36  1  0
 15 37  1  1
 16 38  1  0
 16 39  1  0
 16 40  1  0
 17 41  1  0
 17 42  1  0
 18 43  1  0
 18 44  1  0
 20 45  1  0
 21 46  1  0
 22 47  1  0
 23 48  1  0
 24 49  1  0
M  CHG  1  14   1
M  END
>  <score>  (2) 
-9.878

$$$$
=
     RDKit          3D

 49 50  0  0  0  0  0  0  0  0999 V2000
    0.4920   69.2080   63.7490 C   0  0  2  0  0  0  0  0  0  0  0  0
   -0.4350   68.7950   64.8650 C   0  0  0  0  0  0  0  0  0  0  0  0
   -1.8270   68.9260   64.7700 C   0  0  0  0  0  0  0  0  0  0  0  0
   -2.6540   68.5090   65.8180 C   0  0  0  0  0  0  0  0  0  0  0  0
   -2.1020   67.9430   66.9710 C   0  0  0  0  0  0  0  0  0  0  0  0
   -0.7140   67.7880   67.0850 C   0  0  0  0  0  0  0  0  0  0  0  0
    0.1040   68.2200   66.0260 C   0  0  0  0  0  0  0  0  0  0  0  0
   -0.0140   67.1790   68.2550 C   0  0  0  0  0  0  0  0  0  0  0  0
   -0.4250   66.1400   68.7610 O   0  0  0  0  0  0  0  0  0  0  0  0
    1.0870   67.8110   68.7450 N   0  0  0  0  0  0  0  0  0  0  0  0
   -2.9400   67.5420   67.9760 O   0  0  0  0  0  0  0  0  0  0  0  0
   -0.2080   69.8680   62.6800 O   0  0  0  0  0  0  0  0  0  0  0  0
    1.2340   68.0020   63.1330 C   0  0  0  0  0  0  0  0  0  0  0  0
    2.6040   68.4570   62.6840 N   0  0  0  0  0  4  0  0  0  0  0  0
    3.7810   67.9770   63.5000 C   0  0  2  0  0  0  0  0  0  0  0  0
    3.2730   66.7930   64.3230 C   0  0  0  0  0  0  0  0  0  0  0  0
    4.2860   69.1490   64.3600 C   0  0  0  0  0  0  0  0  0  0  0  0
    3.6380   69.2240   65.7510 C   0  0  0  0  0  0  0  0  0  0  0  0
    4.5210   69.8050   66.8220 C   0  0  0  0  0  0  0  0  0  0  0  0
    5.8850   70.0200   66.5810 C   0  0  0  0  0  0  0  0  0  0  0  0
    6.7040   70.5480   67.5800 C   0  0  0  0  0  0  0  0  0  0  0  0
    6.1680   70.8740   68.8240 C   0  0  0  0  0  0  0  0  0  0  0  0
    4.8110   70.6780   69.0700 C   0  0  0  0  0  0  0  0  0  0  0  0
    3.9890   70.1500   68.0730 C   0  0  0  0  0  0  0  0  0  0  0  0
    1.2108   69.8980   64.2150 H   0  0  0  0  0  0  0  0  0  0  0  0
   -2.2731   69.3606   63.8633 H   0  0  0  0  0  0  0  0  0  0  0  0
   -3.7445   68.6270   65.7346 H   0  0  0  0  0  0  0  0  0  0  0  0
    1.1947   68.1042   66.1098 H   0  0  0  0  0  0  0  0  0  0  0  0
    1.5916   67.4157   69.5513 H   0  0  0  0  0  0  0  0  0  0  0  0
    1.4158   68.6846   68.3096 H   0  0  0  0  0  0  0  0  0  0  0  0
   -2.5674   67.1391   68.8000 H   0  0  0  0  0  0  0  0  0  0  0  0
   -0.8734   70.4954   63.0591 H   0  0  0  0  0  0  0  0  0  0  0  0
    1.3359   67.2059   63.8853 H   0  0  0  0  0  0  0  0  0  0  0  0
    0.6679   67.6107   62.2748 H   0  0  0  0  0  0  0  0  0  0  0  0
    2.7402   68.1289   61.7172 H   0  0  0  0  0  0  0  0  0  0  0  0
    2.5982   69.4810   62.7948 H   0  0  0  0  0  0  0  0  0  0  0  0
    4.6355   67.6444   62.8924 H   0  0  0  0  0  0  0  0  0  0  0  0
    3.3713   67.0221   65.3944 H   0  0  0  0  0  0  0  0  0  0  0  0
    2.2157   66.6066   64.0834 H   0  0  0  0  0  0  0  0  0  0  0  0
    3.8665   65.8984   64.0834 H   0  0  0  0  0  0  0  0  0  0  0  0
    5.3730   69.0405   64.4895 H   0  0  0  0  0  0  0  0  0  0  0  0
    4.0144   70.0742   63.8306 H   0  0  0  0  0  0  0  0  0  0  0  0
    2.7345   69.8470   65.6757 H   0  0  0  0  0  0  0  0  0  0  0  0
    3.4233   68.1879   66.0516 H   0  0  0  0  0  0  0  0  0  0  0  0
    6.3124   69.7710   65.5985 H   0  0  0  0  0  0  0  0  0  0  0  0
    7.7748   70.7071   67.3849 H   0  0  0  0  0  0  0  0  0  0  0  0
    6.8161   71.2860   69.6116 H   0  0  0  0  0  0  0  0  0  0  0  0
    4.3869   70.9395   70.0507 H   0  0  0  0  0  0  0  0  0  0  0  0
    2.9167   70.0035   68.2698 H   0  0  0  0  0  0  0  0  0  0  0  0
  2  1  1  0
  3  2  2  0
  4  3  1  0
  5  4  2  0
  6  5  1  0
  7  6  2  0
  7  2  1  0
  8  6  1  0
  9  8  2  0
 10  8  1  0
 11  5  1  0
 12  1  1  0
 13  1  1  0
 14 13  1  0
 15 14  1  0
 16 15  1  0
 17 15  1  0
 18 17  1  0
 19 18  1  0
 20 19  2  0
 21 20  1  0
 22 21  2  0
 23 22  1  0
 24 19  1  0
 24 23  2  0
  1 25  1  1
  3 26  1  0
  4 27  1  0
  7 28  1  0
 10 29  1  0
 10 30  1  0
 11 31  1  0
 12 32  1  0
 13 33  1  0
 13 34  1  0
 14 35  1  0
 14 36  1  0
 15 37  1  6
 16 38  1  0
 16 39  1  0
 16 40  1  0
 17 41  1  0
 17 42  1  0
 18 43  1  0
 18 44  1  0
 20 45  1  0
 21 46  1  0
 22 47  1  0
 23 48  1  0
 24 49  1  0
M  CHG  1  14   1
M  END
>  <score>  (3) 
-9.859

$$$$
=
     RDKit          3D

 49 50  0  0  0  0  0  0  0  0999 V2000
    1.9290   69.1050   62.0810 C   0  0  2  0  0  0  0  0  0  0  0  0
    1.5370   68.4780   63.3950 C   0  0  0  0  0  0  0  0  0  0  0  0
    2.3180   67.4970   64.0200 C   0  0  0  0  0  0  0  0  0  0  0  0
    1.9320   66.9570   65.2510 C   0  0  0  0  0  0  0  0  0  0  0  0
    0.7640   67.3980   65.8810 C   0  0  0  0  0  0  0  0  0  0  0  0
   -0.0270   68.3880   65.2840 C   0  0  0  0  0  0  0  0  0  0  0  0
    0.3710   68.9150   64.0410 C   0  0  0  0  0  0  0  0  0  0  0  0
   -1.2790   68.9520   65.8710 C   0  0  0  0  0  0  0  0  0  0  0  0
   -1.3200   69.3000   67.0460 O   0  0  0  0  0  0  0  0  0  0  0  0
   -2.3720   69.0630   65.0670 N   0  0  0  0  0  0  0  0  0  0  0  0
    0.4170   66.8510   67.0870 O   0  0  0  0  0  0  0  0  0  0  0  0
    0.8380   69.1230   61.1440 O   0  0  0  0  0  0  0  0  0  0  0  0
    3.0980   68.3580   61.4050 C   0  0  0  0  0  0  0  0  0  0  0  0
    4.3220   69.2440   61.4410 N   0  0  0  0  0  4  0  0  0  0  0  0
    5.4270   68.8390   62.3890 C   0  0  2  0  0  0  0  0  0  0  0  0
    5.2990   67.3270   62.5700 C   0  0  0  0  0  0  0  0  0  0  0  0
    5.2570   69.6290   63.6990 C   0  0  0  0  0  0  0  0  0  0  0  0
    5.6850   68.8530   64.9530 C   0  0  0  0  0  0  0  0  0  0  0  0
    5.3030   69.5050   66.2540 C   0  0  0  0  0  0  0  0  0  0  0  0
    6.2680   70.1610   67.0320 C   0  0  0  0  0  0  0  0  0  0  0  0
    5.9140   70.7550   68.2430 C   0  0  0  0  0  0  0  0  0  0  0  0
    4.5940   70.7080   68.6860 C   0  0  0  0  0  0  0  0  0  0  0  0
    3.6240   70.0720   67.9150 C   0  0  0  0  0  0  0  0  0  0  0  0
    3.9740   69.4770   66.7020 C   0  0  0  0  0  0  0  0  0  0  0  0
    2.2312   70.1321   62.3334 H   0  0  0  0  0  0  0  0  0  0  0  0
    3.2433   67.1483   63.5381 H   0  0  0  0  0  0  0  0  0  0  0  0
    2.5504   66.1813   65.7262 H   0  0  0  0  0  0  0  0  0  0  0  0
   -0.2480   69.6892   63.5640 H   0  0  0  0  0  0  0  0  0  0  0  0
   -3.2505   69.4481   65.4423 H   0  0  0  0  0  0  0  0  0  0  0  0
   -2.3205   68.7618   64.0834 H   0  0  0  0  0  0  0  0  0  0  0  0
   -0.4063   67.1507   67.5479 H   0  0  0  0  0  0  0  0  0  0  0  0
   -0.0203   69.1372   61.6371 H   0  0  0  0  0  0  0  0  0  0  0  0
    3.3020   67.4222   61.9460 H   0  0  0  0  0  0  0  0  0  0  0  0
    2.8383   68.1182   60.3633 H   0  0  0  0  0  0  0  0  0  0  0  0
    4.7189   69.2663   60.4908 H   0  0  0  0  0  0  0  0  0  0  0  0
    3.9869   70.1535   61.7895 H   0  0  0  0  0  0  0  0  0  0  0  0
    6.4365   69.0661   62.0157 H   0  0  0  0  0  0  0  0  0  0  0  0
    5.2786   67.0866   63.6432 H   0  0  0  0  0  0  0  0  0  0  0  0
    4.3682   66.9788   62.0985 H   0  0  0  0  0  0  0  0  0  0  0  0
    6.1581   66.8272   62.0985 H   0  0  0  0  0  0  0  0  0  0  0  0
    5.8646   70.5436   63.6334 H   0  0  0  0  0  0  0  0  0  0  0  0
    4.1833   69.8425   63.8063 H   0  0  0  0  0  0  0  0  0  0  0  0
    5.2168   67.8583   64.9173 H   0  0  0  0  0  0  0  0  0  0  0  0
    6.7841   68.8135   64.9351 H   0  0  0  0  0  0  0  0  0  0  0  0
    7.3107   70.2073   66.6848 H   0  0  0  0  0  0  0  0  0  0  0  0
    6.6788   71.2618   68.8499 H   0  0  0  0  0  0  0  0  0  0  0  0
    4.3181   71.1729   69.6440 H   0  0  0  0  0  0  0  0  0  0  0  0
    2.5809   70.0386   68.2625 H   0  0  0  0  0  0  0  0  0  0  0  0
    3.2025   68.9828   66.0932 H   0  0  0  0  0  0  0  0  0  0  0  0
  2  1  1  0
  3  2  2  0
  4  3  1  0
  5  4  2  0
  6  5  1  0
  7  6  2  0
  7  2  1  0
  8  6  1  0
  9  8  2  0
 10  8  1  0
 11  5  1  0
 12  1  1  0
 13  1  1  0
 14 13  1  0
 15 14  1  0
 16 15  1  0
 17 15  1  0
 18 17  1  0
 19 18  1  0
 20 19  2  0
 21 20  1  0
 22 21  2  0
 23 22  1  0
 24 19  1  0
 24 23  2  0
  1 25  1  1
  3 26  1  0
  4 27  1  0
  7 28  1  0
 10 29  1  0
 10 30  1  0
 11 31  1  0
 12 32  1  0
 13 33  1  0
 13 34  1  0
 14 35  1  0
 14 36  1  0
 15 37  1  6
 16 38  1  0
 16 39  1  0
 16 40  1  0
 17 41  1  0
 17 42  1  0
 18 43  1  0
 18 44  1  0
 20 45  1  0
 21 46  1  0
 22 47  1  0
 23 48  1  0
 24 49  1  0
M  CHG  1  14   1
M  END
>  <score>  (4) 
-9.798

$$$$
=
     RDKit          3D

 49 50  0  0  0  0  0  0  0  0999 V2000
    1.1380   67.7160   65.6760 C   0  0  2  0  0  0  0  0  0  0  0  0
    1.6440   68.0570   64.2970 C   0  0  0  0  0  0  0  0  0  0  0  0
    0.8650   68.7510   63.3620 C   0  0  0  0  0  0  0  0  0  0  0  0
    1.3800   69.0680   62.1020 C   0  0  0  0  0  0  0  0  0  0  0  0
    2.6870   68.7080   61.7610 C   0  0  0  0  0  0  0  0  0  0  0  0
    3.4930   68.0260   62.6820 C   0  0  0  0  0  0  0  0  0  0  0  0
    2.9560   67.7060   63.9430 C   0  0  0  0  0  0  0  0  0  0  0  0
    4.9060   67.6100   62.4410 C   0  0  0  0  0  0  0  0  0  0  0  0
    5.2160   66.4240   62.4220 O   0  0  0  0  0  0  0  0  0  0  0  0
    5.8390   68.5830   62.2480 N   0  0  0  0  0  0  0  0  0  0  0  0
    3.1610   69.0380   60.5200 O   0  0  0  0  0  0  0  0  0  0  0  0
    0.4160   66.4720   65.6950 O   0  0  0  0  0  0  0  0  0  0  0  0
    0.1920   68.8010   66.2330 C   0  0  0  0  0  0  0  0  0  0  0  0
    0.2300   68.7460   67.7430 N   0  0  0  0  0  4  0  0  0  0  0  0
    1.3960   68.0160   68.3670 C   0  0  2  0  0  0  0  0  0  0  0  0
    0.7940   66.9090   69.2310 C   0  0  0  0  0  0  0  0  0  0  0  0
    2.2310   69.0320   69.1680 C   0  0  0  0  0  0  0  0  0  0  0  0
    2.6570   70.2640   68.3570 C   0  0  0  0  0  0  0  0  0  0  0  0
    4.0840   70.2390   67.8800 C   0  0  0  0  0  0  0  0  0  0  0  0
    5.1200   70.6880   68.7110 C   0  0  0  0  0  0  0  0  0  0  0  0
    6.4410   70.6740   68.2620 C   0  0  0  0  0  0  0  0  0  0  0  0
    6.7410   70.2050   66.9850 C   0  0  0  0  0  0  0  0  0  0  0  0
    5.7220   69.7430   66.1570 C   0  0  0  0  0  0  0  0  0  0  0  0
    4.3990   69.7550   66.6020 C   0  0  0  0  0  0  0  0  0  0  0  0
    2.0398   67.6416   66.3014 H   0  0  0  0  0  0  0  0  0  0  0  0
   -0.1614   69.0492   63.6219 H   0  0  0  0  0  0  0  0  0  0  0  0
    0.7531   69.6040   61.3742 H   0  0  0  0  0  0  0  0  0  0  0  0
    3.5809   67.1667   64.6701 H   0  0  0  0  0  0  0  0  0  0  0  0
    6.8224   68.3273   62.0794 H   0  0  0  0  0  0  0  0  0  0  0  0
    5.5613   69.5746   62.2707 H   0  0  0  0  0  0  0  0  0  0  0  0
    4.0841   68.7912   60.2610 H   0  0  0  0  0  0  0  0  0  0  0  0
    0.2566   66.1973   66.6327 H   0  0  0  0  0  0  0  0  0  0  0  0
    0.5227   69.7924   65.8900 H   0  0  0  0  0  0  0  0  0  0  0  0
   -0.8335   68.6241   65.8765 H   0  0  0  0  0  0  0  0  0  0  0  0
    0.2471   69.7156   68.0901 H   0  0  0  0  0  0  0  0  0  0  0  0
   -0.6038   68.2059   68.0149 H   0  0  0  0  0  0  0  0  0  0  0  0
    2.0764   67.5594   67.6332 H   0  0  0  0  0  0  0  0  0  0  0  0
    0.9297   67.1586   70.2937 H   0  0  0  0  0  0  0  0  0  0  0  0
   -0.2796   66.8148   69.0107 H   0  0  0  0  0  0  0  0  0  0  0  0
    1.2985   65.9566   69.0107 H   0  0  0  0  0  0  0  0  0  0  0  0
    1.6327   69.3721   70.0261 H   0  0  0  0  0  0  0  0  0  0  0  0
    3.1533   68.5166   69.4741 H   0  0  0  0  0  0  0  0  0  0  0  0
    2.0023   70.3377   67.4761 H   0  0  0  0  0  0  0  0  0  0  0  0
    2.5702   71.1270   69.0335 H   0  0  0  0  0  0  0  0  0  0  0  0
    4.8901   71.0534   69.7227 H   0  0  0  0  0  0  0  0  0  0  0  0
    7.2474   71.0341   68.9178 H   0  0  0  0  0  0  0  0  0  0  0  0
    7.7825   70.1998   66.6312 H   0  0  0  0  0  0  0  0  0  0  0  0
    5.9596   69.3679   65.1506 H   0  0  0  0  0  0  0  0  0  0  0  0
    3.5984   69.3824   65.9461 H   0  0  0  0  0  0  0  0  0  0  0  0
  2  1  1  0
  3  2  2  0
  4  3  1  0
  5  4  2  0
  6  5  1  0
  7  6  2  0
  7  2  1  0
  8  6  1  0
  9  8  2  0
 10  8  1  0
 11  5  1  0
 12  1  1  0
 13  1  1  0
 14 13  1  0
 15 14  1  0
 16 15  1  0
 17 15  1  0
 18 17  1  0
 19 18  1  0
 20 19  2  0
 21 20  1  0
 22 21  2  0
 23 22  1  0
 24 19  1  0
 24 23  2  0
  1 25  1  1
  3 26  1  0
  4 27  1  0
  7 28  1  0
 10 29  1  0
 10 30  1  0
 11 31  1  0
 12 32  1  0
 13 33  1  0
 13 34  1  0
 14 35  1  0
 14 36  1  0
 15 37  1  6
 16 38  1  0
 16 39  1  0
 16 40  1  0
 17 41  1  0
 17 42  1  0
 18 43  1  0
 18 44  1  0
 20 45  1  0
 21 46  1  0
 22 47  1  0
 23 48  1  0
 24 49  1  0
M  CHG  1  14   1
M  END
>  <score>  (5) 
-9.728

$$$$
=
     RDKit          3D

 49 50  0  0  0  0  0  0  0  0999 V2000
    0.2640   68.5430   63.3410 C   0  0  2  0  0  0  0  0  0  0  0  0
    1.6750   68.1970   62.9390 C   0  0  0  0  0  0  0  0  0  0  0  0
    2.4470   69.0300   62.1180 C   0  0  0  0  0  0  0  0  0  0  0  0
    3.7610   68.6840   61.7870 C   0  0  0  0  0  0  0  0  0  0  0  0
    4.3270   67.5050   62.2820 C   0  0  0  0  0  0  0  0  0  0  0  0
    3.5830   66.6620   63.1160 C   0  0  0  0  0  0  0  0  0  0  0  0
    2.2590   67.0200   63.4330 C   0  0  0  0  0  0  0  0  0  0  0  0
    4.0870   65.3930   63.7210 C   0  0  0  0  0  0  0  0  0  0  0  0
    4.9920   64.7610   63.1880 O   0  0  0  0  0  0  0  0  0  0  0  0
    3.5100   64.9580   64.8750 N   0  0  0  0  0  0  0  0  0  0  0  0
    5.6170   67.1990   61.9410 O   0  0  0  0  0  0  0  0  0  0  0  0
   -0.2770   69.6140   62.5490 O   0  0  0  0  0  0  0  0  0  0  0  0
    0.1710   68.9770   64.8200 C   0  0  0  0  0  0  0  0  0  0  0  0
    0.2800   67.7480   65.6920 N   0  0  0  0  0  4  0  0  0  0  0  0
    1.3900   67.7390   66.7180 C   0  0  2  0  0  0  0  0  0  0  0  0
    0.7300   67.4100   68.0560 C   0  0  0  0  0  0  0  0  0  0  0  0
    2.0800   69.1140   66.6970 C   0  0  0  0  0  0  0  0  0  0  0  0
    3.5020   69.0880   66.1150 C   0  0  0  0  0  0  0  0  0  0  0  0
    4.5420   69.7560   66.9720 C   0  0  0  0  0  0  0  0  0  0  0  0
    5.8370   69.9740   66.4790 C   0  0  0  0  0  0  0  0  0  0  0  0
    6.8040   70.5830   67.2790 C   0  0  0  0  0  0  0  0  0  0  0  0
    6.4870   70.9880   68.5740 C   0  0  0  0  0  0  0  0  0  0  0  0
    5.2000   70.7890   69.0690 C   0  0  0  0  0  0  0  0  0  0  0  0
    4.2300   70.1800   68.2710 C   0  0  0  0  0  0  0  0  0  0  0  0
   -0.3141   67.6213   63.1787 H   0  0  0  0  0  0  0  0  0  0  0  0
    2.0155   69.9646   61.7303 H   0  0  0  0  0  0  0  0  0  0  0  0
    4.3523   69.3427   61.1339 H   0  0  0  0  0  0  0  0  0  0  0  0
    1.6669   66.3605   64.0845 H   0  0  0  0  0  0  0  0  0  0  0  0
    3.8354   64.0863   65.3168 H   0  0  0  0  0  0  0  0  0  0  0  0
    2.7481   65.5006   65.3062 H   0  0  0  0  0  0  0  0  0  0  0  0
    6.0354   66.3688   62.2814 H   0  0  0  0  0  0  0  0  0  0  0  0
   -0.6330   70.3188   63.1462 H   0  0  0  0  0  0  0  0  0  0  0  0
    0.9912   69.6714   65.0545 H   0  0  0  0  0  0  0  0  0  0  0  0
   -0.7884   69.4831   65.0030 H   0  0  0  0  0  0  0  0  0  0  0  0
   -0.6119   67.6433   66.1964 H   0  0  0  0  0  0  0  0  0  0  0  0
    0.5025   66.9771   65.0462 H   0  0  0  0  0  0  0  0  0  0  0  0
    2.1729   66.9927   66.5180 H   0  0  0  0  0  0  0  0  0  0  0  0
    1.3845   67.7362   68.8777 H   0  0  0  0  0  0  0  0  0  0  0  0
   -0.2355   67.9322   68.1268 H   0  0  0  0  0  0  0  0  0  0  0  0
    0.5658   66.3246   68.1268 H   0  0  0  0  0  0  0  0  0  0  0  0
    1.4696   69.7986   66.0897 H   0  0  0  0  0  0  0  0  0  0  0  0
    2.1689   69.4427   67.7430 H   0  0  0  0  0  0  0  0  0  0  0  0
    3.7962   68.0374   65.9749 H   0  0  0  0  0  0  0  0  0  0  0  0
    3.4636   69.6548   65.1730 H   0  0  0  0  0  0  0  0  0  0  0  0
    6.0916   69.6628   65.4551 H   0  0  0  0  0  0  0  0  0  0  0  0
    7.8190   70.7438   66.8867 H   0  0  0  0  0  0  0  0  0  0  0  0
    7.2520   71.4643   69.2048 H   0  0  0  0  0  0  0  0  0  0  0  0
    4.9479   71.1121   70.0898 H   0  0  0  0  0  0  0  0  0  0  0  0
    3.2135   70.0318   68.6644 H   0  0  0  0  0  0  0  0  0  0  0  0
  2  1  1  0
  3  2  2  0
  4  3  1  0
  5  4  2  0
  6  5  1  0
  7  6  2  0
  7  2  1  0
  8  6  1  0
  9  8  2  0
 10  8  1  0
 11  5  1  0
 12  1  1  0
 13  1  1  0
 14 13  1  0
 15 14  1  0
 16 15  1  0
 17 15  1  0
 18 17  1  0
 19 18  1  0
 20 19  2  0
 21 20  1  0
 22 21  2  0
 23 22  1  0
 24 19  1  0
 24 23  2  0
  1 25  1  1
  3 26  1  0
  4 27  1  0
  7 28  1  0
 10 29  1  0
 10 30  1  0
 11 31  1  0
 12 32  1  0
 13 33  1  0
 13 34  1  0
 14 35  1  0
 14 36  1  0
 15 37  1  6
 16 38  1  0
 16 39  1  0
 16 40  1  0
 17 41  1  0
 17 42  1  0
 18 43  1  0
 18 44  1  0
 20 45  1  0
 21 46  1  0
 22 47  1  0
 23 48  1  0
 24 49  1  0
M  CHG  1  14   1
M  END
>  <score>  (6) 
-9.315

$$$$
=
     RDKit          3D

 49 50  0  0  0  0  0  0  0  0999 V2000
    0.2810   66.4850   69.7250 C   0  0  2  0  0  0  0  0  0  0  0  0
    0.8990   65.3370   70.4830 C   0  0  0  0  0  0  0  0  0  0  0  0
    0.2920   64.7710   71.6110 C   0  0  0  0  0  0  0  0  0  0  0  0
    0.8860   63.6910   72.2730 C   0  0  0  0  0  0  0  0  0  0  0  0
    2.0900   63.1540   71.8080 C   0  0  0  0  0  0  0  0  0  0  0  0
    2.7110   63.6920   70.6730 C   0  0  0  0  0  0  0  0  0  0  0  0
    2.1040   64.7840   70.0240 C   0  0  0  0  0  0  0  0  0  0  0  0
    3.9820   63.1900   70.0730 C   0  0  0  0  0  0  0  0  0  0  0  0
    3.9680   62.5040   69.0570 O   0  0  0  0  0  0  0  0  0  0  0  0
    5.1540   63.5100   70.6880 N   0  0  0  0  0  0  0  0  0  0  0  0
    2.6430   62.0950   72.4770 O   0  0  0  0  0  0  0  0  0  0  0  0
   -0.6970   66.0380   68.7690 O   0  0  0  0  0  0  0  0  0  0  0  0
    1.3350   67.3040   68.9490 C   0  0  0  0  0  0  0  0  0  0  0  0
    0.6660   68.5330   68.3780 N   0  0  0  0  0  4  0  0  0  0  0  0
    0.9660   68.8610   66.9340 C   0  0  2  0  0  0  0  0  0  0  0  0
   -0.2330   68.3640   66.1270 C   0  0  0  0  0  0  0  0  0  0  0  0
    2.2900   68.1790   66.5460 C   0  0  0  0  0  0  0  0  0  0  0  0
    3.2880   69.1110   65.8430 C   0  0  0  0  0  0  0  0  0  0  0  0
    4.3310   69.7090   66.7470 C   0  0  0  0  0  0  0  0  0  0  0  0
    5.6540   69.8560   66.3070 C   0  0  0  0  0  0  0  0  0  0  0  0
    6.6220   70.4010   67.1510 C   0  0  0  0  0  0  0  0  0  0  0  0
    6.2780   70.8120   68.4370 C   0  0  0  0  0  0  0  0  0  0  0  0
    4.9640   70.6840   68.8790 C   0  0  0  0  0  0  0  0  0  0  0  0
    3.9920   70.1400   68.0380 C   0  0  0  0  0  0  0  0  0  0  0  0
   -0.1962   67.1111   70.4933 H   0  0  0  0  0  0  0  0  0  0  0  0
   -0.6605   65.1793   71.9799 H   0  0  0  0  0  0  0  0  0  0  0  0
    0.4033   63.2624   73.1637 H   0  0  0  0  0  0  0  0  0  0  0  0
    2.5868   65.2146   69.1344 H   0  0  0  0  0  0  0  0  0  0  0  0
    6.0477   63.1783   70.2978 H   0  0  0  0  0  0  0  0  0  0  0  0
    5.1469   64.0838   71.5434 H   0  0  0  0  0  0  0  0  0  0  0  0
    3.4952   61.7014   72.1626 H   0  0  0  0  0  0  0  0  0  0  0  0
   -1.4853   65.6777   69.2473 H   0  0  0  0  0  0  0  0  0  0  0  0
    2.1448   67.6054   69.6297 H   0  0  0  0  0  0  0  0  0  0  0  0
    1.7600   66.6959   68.1368 H   0  0  0  0  0  0  0  0  0  0  0  0
   -0.3521   68.4019   68.4631 H   0  0  0  0  0  0  0  0  0  0  0  0
    1.0452   69.3232   68.9190 H   0  0  0  0  0  0  0  0  0  0  0  0
    1.0999   69.9359   66.7424 H   0  0  0  0  0  0  0  0  0  0  0  0
   -1.0265   68.0351   66.8141 H   0  0  0  0  0  0  0  0  0  0  0  0
   -0.6116   69.1793   65.4930 H   0  0  0  0  0  0  0  0  0  0  0  0
    0.0762   67.5199   65.4930 H   0  0  0  0  0  0  0  0  0  0  0  0
    2.7622   67.7934   67.4616 H   0  0  0  0  0  0  0  0  0  0  0  0
    2.0404   67.3812   65.8311 H   0  0  0  0  0  0  0  0  0  0  0  0
    3.8025   68.5346   65.0600 H   0  0  0  0  0  0  0  0  0  0  0  0
    2.7014   69.9522   65.4451 H   0  0  0  0  0  0  0  0  0  0  0  0
    5.9304   69.5398   65.2903 H   0  0  0  0  0  0  0  0  0  0  0  0
    7.6592   70.5065   66.8003 H   0  0  0  0  0  0  0  0  0  0  0  0
    7.0438   71.2372   69.1024 H   0  0  0  0  0  0  0  0  0  0  0  0
    4.6914   71.0122   69.8929 H   0  0  0  0  0  0  0  0  0  0  0  0
    2.9538   70.0487   68.3898 H   0  0  0  0  0  0  0  0  0  0  0  0
  2  1  1  0
  3  2  2  0
  4  3  1  0
  5  4  2  0
  6  5  1  0
  7  6  2  0
  7  2  1  0
  8  6  1  0
  9  8  2  0
 10  8  1  0
 11  5  1  0
 12  1  1  0
 13  1  1  0
 14 13  1  0
 15 14  1  0
 16 15  1  0
 17 15  1  0
 18 17  1  0
 19 18  1  0
 20 19  2  0
 21 20  1  0
 22 21  2  0
 23 22  1  0
 24 19  1  0
 24 23  2  0
  1 25  1  1
  3 26  1  0
  4 27  1  0
  7 28  1  0
 10 29  1  0
 10 30  1  0
 11 31  1  0
 12 32  1  0
 13 33  1  0
 13 34  1  0
 14 35  1  0
 14 36  1  0
 15 37  1  1
 16 38  1  0
 16 39  1  0
 16 40  1  0
 17 41  1  0
 17 42  1  0
 18 43  1  0
 18 44  1  0
 20 45  1  0
 21 46  1  0
 22 47  1  0
 23 48  1  0
 24 49  1  0
M  CHG  1  14   1
M  END
>  <score>  (7) 
-9.08

$$$$
=
     RDKit          3D

 49 50  0  0  0  0  0  0  0  0999 V2000
    0.8530   64.4950   70.7390 C   0  0  2  0  0  0  0  0  0  0  0  0
    2.1280   63.7190   70.9560 C   0  0  0  0  0  0  0  0  0  0  0  0
    3.2730   63.9270   70.1760 C   0  0  0  0  0  0  0  0  0  0  0  0
    4.4440   63.2030   70.4250 C   0  0  0  0  0  0  0  0  0  0  0  0
    4.4910   62.2700   71.4650 C   0  0  0  0  0  0  0  0  0  0  0  0
    3.3640   62.0540   72.2690 C   0  0  0  0  0  0  0  0  0  0  0  0
    2.1910   62.7840   72.0000 C   0  0  0  0  0  0  0  0  0  0  0  0
    3.3020   61.1040   73.4190 C   0  0  0  0  0  0  0  0  0  0  0  0
    2.5620   61.3210   74.3730 O   0  0  0  0  0  0  0  0  0  0  0  0
    4.0920   59.9960   73.3800 N   0  0  0  0  0  0  0  0  0  0  0  0
    5.6540   61.5820   71.6840 O   0  0  0  0  0  0  0  0  0  0  0  0
   -0.0920   63.7670   69.9340 O   0  0  0  0  0  0  0  0  0  0  0  0
    1.1060   65.8460   70.0360 C   0  0  0  0  0  0  0  0  0  0  0  0
   -0.0280   66.1070   69.0710 N   0  0  0  0  0  4  0  0  0  0  0  0
    0.0010   67.4230   68.3290 C   0  0  2  0  0  0  0  0  0  0  0  0
   -0.6720   67.1670   66.9810 C   0  0  0  0  0  0  0  0  0  0  0  0
    1.4670   67.8780   68.2050 C   0  0  0  0  0  0  0  0  0  0  0  0
    1.6950   68.9560   67.1350 C   0  0  0  0  0  0  0  0  0  0  0  0
    3.1200   69.4210   67.0070 C   0  0  0  0  0  0  0  0  0  0  0  0
    3.8180   69.2520   65.8030 C   0  0  0  0  0  0  0  0  0  0  0  0
    5.1440   69.6740   65.6910 C   0  0  0  0  0  0  0  0  0  0  0  0
    5.7810   70.2750   66.7740 C   0  0  0  0  0  0  0  0  0  0  0  0
    5.0920   70.4610   67.9700 C   0  0  0  0  0  0  0  0  0  0  0  0
    3.7660   70.0410   68.0860 C   0  0  0  0  0  0  0  0  0  0  0  0
    0.4451   64.6631   71.7466 H   0  0  0  0  0  0  0  0  0  0  0  0
    3.2512   64.6656   69.3611 H   0  0  0  0  0  0  0  0  0  0  0  0
    5.3330   63.3689   69.7987 H   0  0  0  0  0  0  0  0  0  0  0  0
    1.3009   62.6171   72.6244 H   0  0  0  0  0  0  0  0  0  0  0  0
    4.0719   59.3215   74.1582 H   0  0  0  0  0  0  0  0  0  0  0  0
    4.7098   59.8322   72.5723 H   0  0  0  0  0  0  0  0  0  0  0  0
    5.7057   60.9174   72.4160 H   0  0  0  0  0  0  0  0  0  0  0  0
   -0.7223   63.2814   70.5231 H   0  0  0  0  0  0  0  0  0  0  0  0
    1.1485   66.6510   70.7844 H   0  0  0  0  0  0  0  0  0  0  0  0
    2.0620   65.8139   69.4928 H   0  0  0  0  0  0  0  0  0  0  0  0
   -0.0204   65.3530   68.3694 H   0  0  0  0  0  0  0  0  0  0  0  0
   -0.8763   66.1439   69.6541 H   0  0  0  0  0  0  0  0  0  0  0  0
   -0.5361   68.2335   68.8434 H   0  0  0  0  0  0  0  0  0  0  0  0
   -1.6885   66.7803   67.1462 H   0  0  0  0  0  0  0  0  0  0  0  0
   -0.7253   68.1077   66.4133 H   0  0  0  0  0  0  0  0  0  0  0  0
   -0.0867   66.4287   66.4133 H   0  0  0  0  0  0  0  0  0  0  0  0
    1.7880   68.2811   69.1768 H   0  0  0  0  0  0  0  0  0  0  0  0
    2.0504   66.9967   67.9002 H   0  0  0  0  0  0  0  0  0  0  0  0
    1.3790   68.5474   66.1638 H   0  0  0  0  0  0  0  0  0  0  0  0
    1.1081   69.8327   67.4463 H   0  0  0  0  0  0  0  0  0  0  0  0
    3.3182   68.7844   64.9419 H   0  0  0  0  0  0  0  0  0  0  0  0
    5.6871   69.5315   64.7451 H   0  0  0  0  0  0  0  0  0  0  0  0
    6.8273   70.6025   66.6848 H   0  0  0  0  0  0  0  0  0  0  0  0
    5.5934   70.9395   68.8242 H   0  0  0  0  0  0  0  0  0  0  0  0
    3.2241   70.1975   69.0304 H   0  0  0  0  0  0  0  0  0  0  0  0
  2  1  1  0
  3  2  2  0
  4  3  1  0
  5  4  2  0
  6  5  1  0
  7  6  2  0
  7  2  1  0
  8  6  1  0
  9  8  2  0
 10  8  1  0
 11  5  1  0
 12  1  1  0
 13  1  1  0
 14 13  1  0
 15 14  1  0
 16 15  1  0
 17 15  1  0
 18 17  1  0
 19 18  1  0
 20 19  2  0
 21 20  1  0
 22 21  2  0
 23 22  1  0
 24 19  1  0
 24 23  2  0
  1 25  1  1
  3 26  1  0
  4 27  1  0
  7 28  1  0
 10 29  1  0
 10 30  1  0
 11 31  1  0
 12 32  1  0
 13 33  1  0
 13 34  1  0
 14 35  1  0
 14 36  1  0
 15 37  1  1
 16 38  1  0
 16 39  1  0
 16 40  1  0
 17 41  1  0
 17 42  1  0
 18 43  1  0
 18 44  1  0
 20 45  1  0
 21 46  1  0
 22 47  1  0
 23 48  1  0
 24 49  1  0
M  CHG  1  14   1
M  END
>  <score>  (8) 
-9.012

$$$$
=
     RDKit          3D

 49 50  0  0  0  0  0  0  0  0999 V2000
    2.2070   69.5670   68.0280 C   0  0  2  0  0  0  0  0  0  0  0  0
    3.2230   69.4840   66.9180 C   0  0  0  0  0  0  0  0  0  0  0  0
    4.5630   69.8510   67.0980 C   0  0  0  0  0  0  0  0  0  0  0  0
    5.4800   69.7370   66.0490 C   0  0  0  0  0  0  0  0  0  0  0  0
    5.0740   69.2400   64.8070 C   0  0  0  0  0  0  0  0  0  0  0  0
    3.7440   68.8510   64.6040 C   0  0  0  0  0  0  0  0  0  0  0  0
    2.8310   68.9820   65.6670 C   0  0  0  0  0  0  0  0  0  0  0  0
    3.2000   68.2880   63.3320 C   0  0  0  0  0  0  0  0  0  0  0  0
    2.1830   68.7500   62.8260 O   0  0  0  0  0  0  0  0  0  0  0  0
    3.8610   67.2470   62.7560 N   0  0  0  0  0  0  0  0  0  0  0  0
    5.9980   69.1370   63.8020 O   0  0  0  0  0  0  0  0  0  0  0  0
    2.8180   69.4940   69.3280 O   0  0  0  0  0  0  0  0  0  0  0  0
    1.1650   68.4310   67.9500 C   0  0  0  0  0  0  0  0  0  0  0  0
    1.2260   67.6310   69.2320 N   0  0  0  0  0  4  0  0  0  0  0  0
    0.5560   66.2770   69.2200 C   0  0  2  0  0  0  0  0  0  0  0  0
   -0.8920   66.5220   68.7960 C   0  0  0  0  0  0  0  0  0  0  0  0
    0.6860   65.6590   70.6240 C   0  0  0  0  0  0  0  0  0  0  0  0
    0.5530   64.1290   70.6460 C   0  0  0  0  0  0  0  0  0  0  0  0
    1.8540   63.3890   70.7910 C   0  0  0  0  0  0  0  0  0  0  0  0
    1.8790   62.0910   71.3220 C   0  0  0  0  0  0  0  0  0  0  0  0
    3.0890   61.4110   71.4660 C   0  0  0  0  0  0  0  0  0  0  0  0
    4.2820   62.0140   71.0760 C   0  0  0  0  0  0  0  0  0  0  0  0
    4.2680   63.2970   70.5340 C   0  0  0  0  0  0  0  0  0  0  0  0
    3.0590   63.9810   70.3880 C   0  0  0  0  0  0  0  0  0  0  0  0
    1.7161   70.5420   67.8927 H   0  0  0  0  0  0  0  0  0  0  0  0
    4.8968   70.2326   68.0742 H   0  0  0  0  0  0  0  0  0  0  0  0
    6.5264   70.0399   66.2016 H   0  0  0  0  0  0  0  0  0  0  0  0
    1.7835   68.6834   65.5137 H   0  0  0  0  0  0  0  0  0  0  0  0
    3.5108   66.8369   61.8785 H   0  0  0  0  0  0  0  0  0  0  0  0
    4.7114   66.8693   63.1976 H   0  0  0  0  0  0  0  0  0  0  0  0
    5.7286   68.7873   62.9159 H   0  0  0  0  0  0  0  0  0  0  0  0
    2.1205   69.5773   70.0256 H   0  0  0  0  0  0  0  0  0  0  0  0
    0.1590   68.8587   67.8277 H   0  0  0  0  0  0  0  0  0  0  0  0
    1.3825   67.7801   67.0903 H   0  0  0  0  0  0  0  0  0  0  0  0
    2.2194   67.4855   69.4620 H   0  0  0  0  0  0  0  0  0  0  0  0
    0.7011   68.1864   69.9226 H   0  0  0  0  0  0  0  0  0  0  0  0
    1.0132   65.5628   68.5194 H   0  0  0  0  0  0  0  0  0  0  0  0
   -1.5230   66.6288   69.6907 H   0  0  0  0  0  0  0  0  0  0  0  0
   -0.9477   67.4423   68.1961 H   0  0  0  0  0  0  0  0  0  0  0  0
   -1.2474   65.6712   68.1961 H   0  0  0  0  0  0  0  0  0  0  0  0
    1.6727   65.9266   71.0301 H   0  0  0  0  0  0  0  0  0  0  0  0
   -0.1421   66.0599   71.2269 H   0  0  0  0  0  0  0  0  0  0  0  0
   -0.0946   63.8531   71.4913 H   0  0  0  0  0  0  0  0  0  0  0  0
    0.1365   63.8385   69.6702 H   0  0  0  0  0  0  0  0  0  0  0  0
    0.9396   61.6064   71.6266 H   0  0  0  0  0  0  0  0  0  0  0  0
    3.1004   60.3956   71.8889 H   0  0  0  0  0  0  0  0  0  0  0  0
    5.2348   61.4775   71.1959 H   0  0  0  0  0  0  0  0  0  0  0  0
    5.2095   63.7718   70.2208 H   0  0  0  0  0  0  0  0  0  0  0  0
    3.0524   64.9916   69.9536 H   0  0  0  0  0  0  0  0  0  0  0  0
  2  1  1  0
  3  2  2  0
  4  3  1  0
  5  4  2  0
  6  5  1  0
  7  6  2  0
  7  2  1  0
  8  6  1  0
  9  8  2  0
 10  8  1  0
 11  5  1  0
 12  1  1  0
 13  1  1  0
 14 13  1  0
 15 14  1  0
 16 15  1  0
 17 15  1  0
 18 17  1  0
 19 18  1  0
 20 19  2  0
 21 20  1  0
 22 21  2  0
 23 22  1  0
 24 19  1  0
 24 23  2  0
  1 25  1  1
  3 26  1  0
  4 27  1  0
  7 28  1  0
 10 29  1  0
 10 30  1  0
 11 31  1  0
 12 32  1  0
 13 33  1  0
 13 34  1  0
 14 35  1  0
 14 36  1  0
 15 37  1  6
 16 38  1  0
 16 39  1  0
 16 40  1  0
 17 41  1  0
 17 42  1  0
 18 43  1  0
 18 44  1  0
 20 45  1  0
 21 46  1  0
 22 47  1  0
 23 48  1  0
 24 49  1  0
M  CHG  1  14   1
M  END
>  <score>  (9) 
-8.894

$$$$
