=
     RDKit          3D

 17 17  0  0  0  0  0  0  0  0999 V2000
    5.7990   69.4490   64.9040 N   0  0  0  0  0  0  0  0  0  0  0  0
    4.5430   69.4260   65.4990 C   0  0  0  0  0  0  0  0  0  0  0  0
    3.5300   69.0620   64.9070 O   0  0  0  0  0  0  0  0  0  0  0  0
    4.4740   69.8320   66.9280 C   0  0  0  0  0  0  0  0  0  0  0  0
    5.5790   70.3420   67.6110 C   0  0  0  0  0  0  0  0  0  0  0  0
    5.4080   70.6970   68.9380 C   0  0  0  0  0  0  0  0  0  0  0  0
    4.2400   70.5820   69.6020 N   0  0  0  0  0  0  0  0  0  0  0  0
    3.1830   70.1040   68.9110 C   0  0  0  0  0  0  0  0  0  0  0  0
    3.2480   69.7230   67.5840 C   0  0  0  0  0  0  0  0  0  0  0  0
    5.9360   68.9720   63.5810 N   0  0  0  0  0  0  0  0  0  0  0  0
    6.6159   69.8076   65.4187 H   0  0  0  0  0  0  0  0  0  0  0  0
    6.5524   70.4579   67.1120 H   0  0  0  0  0  0  0  0  0  0  0  0
    6.2760   71.0964   69.4829 H   0  0  0  0  0  0  0  0  0  0  0  0
    2.2185   70.0129   69.4321 H   0  0  0  0  0  0  0  0  0  0  0  0
    2.3579   69.3445   67.0601 H   0  0  0  0  0  0  0  0  0  0  0  0
    6.2203   67.9822   63.6006 H   0  0  0  0  0  0  0  0  0  0  0  0
    5.0355   69.0609   63.0890 H   0  0  0  0  0  0  0  0  0  0  0  0
  2  1  1  0
  3  2  2  0
  4  2  1  0
  5  4  2  0
  6  5  1  0
  7  6  2  0
  8  7  1  0
  9  8  2  0
  9  4  1  0
 10  1  1  0
  1 11  1  0
  5 12  1  0
  6 13  1  0
  8 14  1  0
  9 15  1  0
 10 16  1  0
 10 17  1  0
M  END
>  <score>  (1) 
-6.127

$$$$
=
     RDKit          3D

 17 17  0  0  0  0  0  0  0  0999 V2000
    5.6530   69.7600   64.8320 N   0  0  0  0  0  0  0  0  0  0  0  0
    4.4660   69.4290   65.4760 C   0  0  0  0  0  0  0  0  0  0  0  0
    3.5610   68.8040   64.9290 O   0  0  0  0  0  0  0  0  0  0  0  0
    4.3450   69.8370   66.9010 C   0  0  0  0  0  0  0  0  0  0  0  0
    3.1520   69.7060   67.6130 C   0  0  0  0  0  0  0  0  0  0  0  0
    3.1450   70.1090   68.9370 C   0  0  0  0  0  0  0  0  0  0  0  0
    4.2210   70.6150   69.5740 N   0  0  0  0  0  0  0  0  0  0  0  0
    5.3660   70.7130   68.8650 C   0  0  0  0  0  0  0  0  0  0  0  0
    5.4790   70.3380   67.5400 C   0  0  0  0  0  0  0  0  0  0  0  0
    5.8620   69.3040   63.5110 N   0  0  0  0  0  0  0  0  0  0  0  0
    6.3675   70.3277   65.3095 H   0  0  0  0  0  0  0  0  0  0  0  0
    2.2482   69.2965   67.1382 H   0  0  0  0  0  0  0  0  0  0  0  0
    2.2070   70.0109   69.5031 H   0  0  0  0  0  0  0  0  0  0  0  0
    6.2575   71.1133   69.3699 H   0  0  0  0  0  0  0  0  0  0  0  0
    6.4354   70.4318   67.0047 H   0  0  0  0  0  0  0  0  0  0  0  0
    6.2910   68.3679   63.5348 H   0  0  0  0  0  0  0  0  0  0  0  0
    4.9591   69.2554   63.0177 H   0  0  0  0  0  0  0  0  0  0  0  0
  2  1  1  0
  3  2  2  0
  4  2  1  0
  5  4  2  0
  6  5  1  0
  7  6  2  0
  8  7  1  0
  9  8  2  0
  9  4  1  0
 10  1  1  0
  1 11  1  0
  5 12  1  0
  6 13  1  0
  8 14  1  0
  9 15  1  0
 10 16  1  0
 10 17  1  0
M  END
>  <score>  (2) 
-6.117

$$$$
=
     RDKit          3D

 17 17  0  0  0  0  0  0  0  0999 V2000
    3.0360   69.8450   68.0930 N   0  0  0  0  0  0  0  0  0  0  0  0
    4.2420   69.9070   67.4050 C   0  0  0  0  0  0  0  0  0  0  0  0
    5.3070   70.1880   67.9480 O   0  0  0  0  0  0  0  0  0  0  0  0
    4.2010   69.5740   65.9560 C   0  0  0  0  0  0  0  0  0  0  0  0
    5.3080   69.7420   65.1220 C   0  0  0  0  0  0  0  0  0  0  0  0
    5.1690   69.3970   63.7890 C   0  0  0  0  0  0  0  0  0  0  0  0
    4.0310   68.9070   63.2560 N   0  0  0  0  0  0  0  0  0  0  0  0
    2.9830   68.7370   64.0890 C   0  0  0  0  0  0  0  0  0  0  0  0
    3.0190   69.0490   65.4350 C   0  0  0  0  0  0  0  0  0  0  0  0
    3.0370   70.0480   69.4910 N   0  0  0  0  0  0  0  0  0  0  0  0
    2.1565   69.6543   67.5921 H   0  0  0  0  0  0  0  0  0  0  0  0
    6.2586   70.1353   65.5113 H   0  0  0  0  0  0  0  0  0  0  0  0
    6.0366   69.5301   63.1260 H   0  0  0  0  0  0  0  0  0  0  0  0
    2.0498   68.3281   63.6744 H   0  0  0  0  0  0  0  0  0  0  0  0
    2.1403   68.8878   66.0768 H   0  0  0  0  0  0  0  0  0  0  0  0
    3.0325   69.1363   69.9703 H   0  0  0  0  0  0  0  0  0  0  0  0
    3.8806   70.5737   69.7610 H   0  0  0  0  0  0  0  0  0  0  0  0
  2  1  1  0
  3  2  2  0
  4  2  1  0
  5  4  2  0
  6  5  1  0
  7  6  2  0
  8  7  1  0
  9  8  2  0
  9  4  1  0
 10  1  1  0
  1 11  1  0
  5 12  1  0
  6 13  1  0
  8 14  1  0
  9 15  1  0
 10 16  1  0
 10 17  1  0
M  END
>  <score>  (3) 
-5.963

$$$$
=
     RDKit          3D

 17 17  0  0  0  0  0  0  0  0999 V2000
   -1.1920   69.0010   63.3940 N   0  0  0  0  0  0  0  0  0  0  0  0
   -0.1780   68.7060   64.2970 C   0  0  0  0  0  0  0  0  0  0  0  0
   -0.3940   68.3740   65.4600 O   0  0  0  0  0  0  0  0  0  0  0  0
    1.2150   68.7700   63.7800 C   0  0  0  0  0  0  0  0  0  0  0  0
    2.3180   68.9010   64.6250 C   0  0  0  0  0  0  0  0  0  0  0  0
    3.5730   68.9450   64.0440 C   0  0  0  0  0  0  0  0  0  0  0  0
    3.7890   68.8660   62.7150 N   0  0  0  0  0  0  0  0  0  0  0  0
    2.7050   68.7210   61.9230 C   0  0  0  0  0  0  0  0  0  0  0  0
    1.4100   68.6640   62.4030 C   0  0  0  0  0  0  0  0  0  0  0  0
   -2.5360   68.8510   63.8060 N   0  0  0  0  0  0  0  0  0  0  0  0
   -0.9685   69.3232   62.4416 H   0  0  0  0  0  0  0  0  0  0  0  0
    2.1938   68.9670   65.7160 H   0  0  0  0  0  0  0  0  0  0  0  0
    4.4459   69.0506   64.7049 H   0  0  0  0  0  0  0  0  0  0  0  0
    2.8610   68.6441   60.8368 H   0  0  0  0  0  0  0  0  0  0  0  0
    0.5579   68.5387   61.7188 H   0  0  0  0  0  0  0  0  0  0  0  0
   -2.5811   68.8460   64.8350 H   0  0  0  0  0  0  0  0  0  0  0  0
   -3.0963   69.6347   63.4416 H   0  0  0  0  0  0  0  0  0  0  0  0
  2  1  1  0
  3  2  2  0
  4  2  1  0
  5  4  2  0
  6  5  1  0
  7  6  2  0
  8  7  1  0
  9  8  2  0
  9  4  1  0
 10  1  1  0
  1 11  1  0
  5 12  1  0
  6 13  1  0
  8 14  1  0
  9 15  1  0
 10 16  1  0
 10 17  1  0
M  END
>  <score>  (4) 
-5.885

$$$$
=
     RDKit          3D

 17 17  0  0  0  0  0  0  0  0999 V2000
   -3.2860   68.1840   66.8660 N   0  0  0  0  0  0  0  0  0  0  0  0
   -1.9620   68.1870   66.4410 C   0  0  0  0  0  0  0  0  0  0  0  0
   -1.6160   68.5990   65.3370 O   0  0  0  0  0  0  0  0  0  0  0  0
   -0.9490   67.6970   67.4130 C   0  0  0  0  0  0  0  0  0  0  0  0
   -1.2330   66.6980   68.3450 C   0  0  0  0  0  0  0  0  0  0  0  0
   -0.2180   66.3070   69.2010 C   0  0  0  0  0  0  0  0  0  0  0  0
    1.0240   66.8340   69.1830 N   0  0  0  0  0  0  0  0  0  0  0  0
    1.2760   67.7860   68.2590 C   0  0  0  0  0  0  0  0  0  0  0  0
    0.3330   68.2440   67.3580 C   0  0  0  0  0  0  0  0  0  0  0  0
   -4.2740   68.7380   66.0210 N   0  0  0  0  0  0  0  0  0  0  0  0
   -3.5421   67.7851   67.7804 H   0  0  0  0  0  0  0  0  0  0  0  0
   -2.2302   66.2367   68.3976 H   0  0  0  0  0  0  0  0  0  0  0  0
   -0.4366   65.5210   69.9388 H   0  0  0  0  0  0  0  0  0  0  0  0
    2.2859   68.2203   68.2213 H   0  0  0  0  0  0  0  0  0  0  0  0
    0.5864   69.0179   66.6185 H   0  0  0  0  0  0  0  0  0  0  0  0
   -5.0205   69.1566   66.5941 H   0  0  0  0  0  0  0  0  0  0  0  0
   -3.8495   69.4641   65.4265 H   0  0  0  0  0  0  0  0  0  0  0  0
  2  1  1  0
  3  2  2  0
  4  2  1  0
  5  4  2  0
  6  5  1  0
  7  6  2  0
  8  7  1  0
  9  8  2  0
  9  4  1  0
 10  1  1  0
  1 11  1  0
  5 12  1  0
  6 13  1  0
  8 14  1  0
  9 15  1  0
 10 16  1  0
 10 17  1  0
M  END
>  <score>  (5) 
-5.838

$$$$
=
     RDKit          3D

 17 17  0  0  0  0  0  0  0  0999 V2000
    3.4430   68.7260   62.2940 N   0  0  0  0  0  0  0  0  0  0  0  0
    4.5510   68.9720   63.0970 C   0  0  0  0  0  0  0  0  0  0  0  0
    5.6950   69.0330   62.6550 O   0  0  0  0  0  0  0  0  0  0  0  0
    4.2890   69.2030   64.5420 C   0  0  0  0  0  0  0  0  0  0  0  0
    5.2680   69.6930   65.4070 C   0  0  0  0  0  0  0  0  0  0  0  0
    4.9210   69.8800   66.7340 C   0  0  0  0  0  0  0  0  0  0  0  0
    3.6960   69.6190   67.2330 N   0  0  0  0  0  0  0  0  0  0  0  0
    2.7620   69.1640   66.3700 C   0  0  0  0  0  0  0  0  0  0  0  0
    3.0060   68.9460   65.0270 C   0  0  0  0  0  0  0  0  0  0  0  0
    3.6260   68.6050   60.8980 N   0  0  0  0  0  0  0  0  0  0  0  0
    2.5050   68.6336   62.7094 H   0  0  0  0  0  0  0  0  0  0  0  0
    6.2815   69.9230   65.0466 H   0  0  0  0  0  0  0  0  0  0  0  0
    5.6893   70.2638   67.4213 H   0  0  0  0  0  0  0  0  0  0  0  0
    1.7534   68.9558   66.7565 H   0  0  0  0  0  0  0  0  0  0  0  0
    2.2116   68.5804   64.3597 H   0  0  0  0  0  0  0  0  0  0  0  0
    4.4707   68.0465   60.7096 H   0  0  0  0  0  0  0  0  0  0  0  0
    2.8065   68.1386   60.4834 H   0  0  0  0  0  0  0  0  0  0  0  0
  2  1  1  0
  3  2  2  0
  4  2  1  0
  5  4  2  0
  6  5  1  0
  7  6  2  0
  8  7  1  0
  9  8  2  0
  9  4  1  0
 10  1  1  0
  1 11  1  0
  5 12  1  0
  6 13  1  0
  8 14  1  0
  9 15  1  0
 10 16  1  0
 10 17  1  0
M  END
>  <score>  (6) 
-5.825

$$$$
=
     RDKit          3D

 17 17  0  0  0  0  0  0  0  0999 V2000
    6.6790   70.5530   67.9820 N   0  0  0  0  0  0  0  0  0  0  0  0
    5.3150   70.2870   67.9600 C   0  0  0  0  0  0  0  0  0  0  0  0
    4.5880   70.4390   68.9390 O   0  0  0  0  0  0  0  0  0  0  0  0
    4.7440   69.8370   66.6630 C   0  0  0  0  0  0  0  0  0  0  0  0
    3.4240   69.4020   66.5410 C   0  0  0  0  0  0  0  0  0  0  0  0
    2.9880   69.0100   65.2870 C   0  0  0  0  0  0  0  0  0  0  0  0
    3.7630   69.0270   64.1830 N   0  0  0  0  0  0  0  0  0  0  0  0
    5.0300   69.4700   64.3270 C   0  0  0  0  0  0  0  0  0  0  0  0
    5.5620   69.8850   65.5330 C   0  0  0  0  0  0  0  0  0  0  0  0
    7.2500   71.0850   69.1600 N   0  0  0  0  0  0  0  0  0  0  0  0
    7.2631   70.3657   67.1546 H   0  0  0  0  0  0  0  0  0  0  0  0
    2.7525   69.3716   67.4117 H   0  0  0  0  0  0  0  0  0  0  0  0
    1.9487   68.6644   65.1848 H   0  0  0  0  0  0  0  0  0  0  0  0
    5.6740   69.5024   63.4358 H   0  0  0  0  0  0  0  0  0  0  0  0
    6.6000   70.2428   65.6005 H   0  0  0  0  0  0  0  0  0  0  0  0
    6.7964   70.6624   69.9825 H   0  0  0  0  0  0  0  0  0  0  0  0
    8.2582   70.8749   69.1781 H   0  0  0  0  0  0  0  0  0  0  0  0
  2  1  1  0
  3  2  2  0
  4  2  1  0
  5  4  2  0
  6  5  1  0
  7  6  2  0
  8  7  1  0
  9  8  2  0
  9  4  1  0
 10  1  1  0
  1 11  1  0
  5 12  1  0
  6 13  1  0
  8 14  1  0
  9 15  1  0
 10 16  1  0
 10 17  1  0
M  END
>  <score>  (7) 
-5.806

$$$$
=
     RDKit          3D

 17 17  0  0  0  0  0  0  0  0999 V2000
    1.8000   69.8930   68.2290 N   0  0  0  0  0  0  0  0  0  0  0  0
    2.7540   69.5260   67.2870 C   0  0  0  0  0  0  0  0  0  0  0  0
    2.4780   68.9090   66.2620 O   0  0  0  0  0  0  0  0  0  0  0  0
    4.1540   69.9530   67.5540 C   0  0  0  0  0  0  0  0  0  0  0  0
    5.1580   69.8590   66.5900 C   0  0  0  0  0  0  0  0  0  0  0  0
    6.4270   70.2890   66.9360 C   0  0  0  0  0  0  0  0  0  0  0  0
    6.7440   70.7940   68.1460 N   0  0  0  0  0  0  0  0  0  0  0  0
    5.7480   70.8920   69.0530 C   0  0  0  0  0  0  0  0  0  0  0  0
    4.4490   70.4920   68.8070 C   0  0  0  0  0  0  0  0  0  0  0  0
    0.4410   69.6050   67.9710 N   0  0  0  0  0  0  0  0  0  0  0  0
    2.0789   70.3667   69.1000 H   0  0  0  0  0  0  0  0  0  0  0  0
    4.9479   69.4564   65.5881 H   0  0  0  0  0  0  0  0  0  0  0  0
    7.2232   70.2147   66.1807 H   0  0  0  0  0  0  0  0  0  0  0  0
    5.9842   71.3133   70.0413 H   0  0  0  0  0  0  0  0  0  0  0  0
    3.6697   70.5953   69.5764 H   0  0  0  0  0  0  0  0  0  0  0  0
   -0.0627   69.4983   68.8631 H   0  0  0  0  0  0  0  0  0  0  0  0
    0.0232   70.3761   67.4309 H   0  0  0  0  0  0  0  0  0  0  0  0
  2  1  1  0
  3  2  2  0
  4  2  1  0
  5  4  2  0
  6  5  1  0
  7  6  2  0
  8  7  1  0
  9  8  2  0
  9  4  1  0
 10  1  1  0
  1 11  1  0
  5 12  1  0
  6 13  1  0
  8 14  1  0
  9 15  1  0
 10 16  1  0
 10 17  1  0
M  END
>  <score>  (8) 
-5.757

$$$$
=
     RDKit          3D

 17 17  0  0  0  0  0  0  0  0999 V2000
    6.0510   69.6410   65.7210 N   0  0  0  0  0  0  0  0  0  0  0  0
    4.6670   69.5170   65.7560 C   0  0  0  0  0  0  0  0  0  0  0  0
    4.0020   69.7270   66.7680 O   0  0  0  0  0  0  0  0  0  0  0  0
    3.9980   69.1500   64.4790 C   0  0  0  0  0  0  0  0  0  0  0  0
    2.6330   68.8660   64.4090 C   0  0  0  0  0  0  0  0  0  0  0  0
    2.1060   68.5420   63.1710 C   0  0  0  0  0  0  0  0  0  0  0  0
    2.8320   68.4880   62.0360 N   0  0  0  0  0  0  0  0  0  0  0  0
    4.1460   68.7860   62.1310 C   0  0  0  0  0  0  0  0  0  0  0  0
    4.7690   69.1240   63.3170 C   0  0  0  0  0  0  0  0  0  0  0  0
    6.7240   70.0900   66.8790 N   0  0  0  0  0  0  0  0  0  0  0  0
    6.5765   69.4096   64.8659 H   0  0  0  0  0  0  0  0  0  0  0  0
    1.9982   68.8986   65.3068 H   0  0  0  0  0  0  0  0  0  0  0  0
    1.0314   68.3151   63.1093 H   0  0  0  0  0  0  0  0  0  0  0  0
    4.7532   68.7581   61.2142 H   0  0  0  0  0  0  0  0  0  0  0  0
    5.8418   69.3656   63.3440 H   0  0  0  0  0  0  0  0  0  0  0  0
    6.2254   69.7573   67.7166 H   0  0  0  0  0  0  0  0  0  0  0  0
    7.6854   69.7204   66.8824 H   0  0  0  0  0  0  0  0  0  0  0  0
  2  1  1  0
  3  2  2  0
  4  2  1  0
  5  4  2  0
  6  5  1  0
  7  6  2  0
  8  7  1  0
  9  8  2  0
  9  4  1  0
 10  1  1  0
  1 11  1  0
  5 12  1  0
  6 13  1  0
  8 14  1  0
  9 15  1  0
 10 16  1  0
 10 17  1  0
M  END
>  <score>  (9) 
-5.691

$$$$
