=
     RDKit          3D

 56 60  0  0  0  0  0  0  0  0999 V2000
    1.0770   67.2020   67.6040 N   0  0  0  0  0  0  0  0  0  0  0  0
    1.8140   67.2280   70.1860 O   0  0  0  0  0  0  0  0  0  0  0  0
    0.9580   66.4150   69.8410 C   0  0  0  0  0  0  0  0  0  0  0  0
    0.4340   66.3900   68.5600 N   0  0  0  0  0  0  0  0  0  0  0  0
    0.3880   65.3390   70.7590 C   0  0  0  0  0  0  0  0  0  0  0  0
    1.3440   64.1850   70.9150 C   0  0  0  0  0  0  0  0  0  0  0  0
    2.6000   64.2650   70.4460 C   0  0  0  0  0  0  0  0  0  0  0  0
    3.5870   63.1810   70.5590 C   0  0  0  0  0  0  0  0  0  0  0  0
    4.7160   63.3120   70.1030 O   0  0  0  0  0  0  0  0  0  0  0  0
    3.1710   62.0230   71.1890 O   0  0  0  0  0  0  0  0  0  0  0  0
    1.8590   61.8960   71.6870 C   0  0  0  0  0  0  0  0  0  0  0  0
    0.9280   62.9340   71.5710 C   0  0  0  0  0  0  0  0  0  0  0  0
   -0.3530   62.7140   72.0940 C   0  0  0  0  0  0  0  0  0  0  0  0
   -0.6760   61.4970   72.7080 C   0  0  0  0  0  0  0  0  0  0  0  0
    0.2780   60.4900   72.8050 C   0  0  0  0  0  0  0  0  0  0  0  0
    1.5540   60.6770   72.2960 C   0  0  0  0  0  0  0  0  0  0  0  0
   -0.0870   59.3270   73.4110 O   0  0  0  0  0  0  0  0  0  0  0  0
    0.4360   68.3280   67.0900 C   0  0  0  0  0  0  0  0  0  0  0  0
   -1.1590   68.2980   66.5610 S   0  0  0  0  0  0  0  0  0  0  0  0
    1.3030   69.4220   67.0980 N   0  0  0  0  0  0  0  0  0  0  0  0
    2.6170   69.4220   66.5430 C   0  0  0  0  0  0  0  0  0  0  0  0
    3.6880   69.8530   67.3480 C   0  0  0  0  0  0  0  0  0  0  0  0
    3.4910   70.2930   68.7790 C   0  0  0  0  0  0  0  0  0  0  0  0
    4.7820   70.3850   69.5920 C   0  0  0  0  0  0  0  0  0  0  0  0
    5.8680   71.0850   68.7910 C   0  0  0  0  0  0  0  0  0  0  0  0
    6.1830   70.2760   67.5380 C   0  0  0  0  0  0  0  0  0  0  0  0
    4.9540   69.8750   66.7630 C   0  0  0  0  0  0  0  0  0  0  0  0
    5.1860   69.4910   65.4870 N   0  0  0  0  0  0  0  0  0  0  0  0
    4.1570   69.1130   64.7170 C   0  0  0  0  0  0  0  0  0  0  0  0
    2.8290   69.0740   65.1800 C   0  0  0  0  0  0  0  0  0  0  0  0
    1.8060   68.7460   64.2520 C   0  0  0  0  0  0  0  0  0  0  0  0
    2.0970   68.4120   62.9300 C   0  0  0  0  0  0  0  0  0  0  0  0
    3.4150   68.4160   62.5030 C   0  0  0  0  0  0  0  0  0  0  0  0
    4.4260   68.7710   63.3980 C   0  0  0  0  0  0  0  0  0  0  0  0
    2.0259   66.9620   67.2834 H   0  0  0  0  0  0  0  0  0  0  0  0
   -0.3817   65.8094   68.3185 H   0  0  0  0  0  0  0  0  0  0  0  0
    0.1939   65.7790   71.7483 H   0  0  0  0  0  0  0  0  0  0  0  0
   -0.5420   64.9593   70.3108 H   0  0  0  0  0  0  0  0  0  0  0  0
    2.9084   65.1961   69.9481 H   0  0  0  0  0  0  0  0  0  0  0  0
   -1.1134   63.5055   72.0217 H   0  0  0  0  0  0  0  0  0  0  0  0
   -1.6858   61.3377   73.1140 H   0  0  0  0  0  0  0  0  0  0  0  0
    2.3103   59.8817   72.3703 H   0  0  0  0  0  0  0  0  0  0  0  0
    0.5660   58.5880   73.4980 H   0  0  0  0  0  0  0  0  0  0  0  0
    0.9697   70.2924   67.5365 H   0  0  0  0  0  0  0  0  0  0  0  0
    3.0167   71.2855   68.7721 H   0  0  0  0  0  0  0  0  0  0  0  0
    2.8686   69.5252   69.2619 H   0  0  0  0  0  0  0  0  0  0  0  0
    4.5893   70.9532   70.5140 H   0  0  0  0  0  0  0  0  0  0  0  0
    5.1210   69.3676   69.8369 H   0  0  0  0  0  0  0  0  0  0  0  0
    5.5202   72.0876   68.5013 H   0  0  0  0  0  0  0  0  0  0  0  0
    6.7757   71.1729   69.4062 H   0  0  0  0  0  0  0  0  0  0  0  0
    6.8262   70.8824   66.8834 H   0  0  0  0  0  0  0  0  0  0  0  0
    6.6792   69.3500   67.8641 H   0  0  0  0  0  0  0  0  0  0  0  0
    0.7574   68.7556   64.5843 H   0  0  0  0  0  0  0  0  0  0  0  0
    1.2881   68.1479   62.2329 H   0  0  0  0  0  0  0  0  0  0  0  0
    3.6629   68.1416   61.4670 H   0  0  0  0  0  0  0  0  0  0  0  0
    5.4686   68.7801   63.0474 H   0  0  0  0  0  0  0  0  0  0  0  0
  3  2  2  0
  4  3  1  0
  4  1  1  0
  5  3  1  0
  6  5  1  0
  7  6  2  0
  8  7  1  0
  9  8  2  0
 10  8  1  0
 11 10  1  0
 12 11  2  0
 12  6  1  0
 13 12  1  0
 14 13  2  0
 15 14  1  0
 16 15  2  0
 16 11  1  0
 17 15  1  0
 18  1  1  0
 19 18  2  0
 20 18  1  0
 21 20  1  0
 22 21  1  0
 23 22  1  0
 24 23  1  0
 25 24  1  0
 26 25  1  0
 27 22  2  0
 27 26  1  0
 28 27  1  0
 29 28  2  0
 30 29  1  0
 30 21  2  0
 31 30  1  0
 32 31  2  0
 33 32  1  0
 34 33  2  0
 34 29  1  0
  1 35  1  0
  4 36  1  0
  5 37  1  0
  5 38  1  0
  7 39  1  0
 13 40  1  0
 14 41  1  0
 16 42  1  0
 17 43  1  0
 20 44  1  0
 23 45  1  0
 23 46  1  0
 24 47  1  0
 24 48  1  0
 25 49  1  0
 25 50  1  0
 26 51  1  0
 26 52  1  0
 31 53  1  0
 32 54  1  0
 33 55  1  0
 34 56  1  0
M  END
>  <score>  (1) 
-13.177

$$$$
=
     RDKit          3D

 56 60  0  0  0  0  0  0  0  0999 V2000
    1.3260   67.4840   69.0680 N   0  0  0  0  0  0  0  0  0  0  0  0
    0.0700   66.3950   71.1770 O   0  0  0  0  0  0  0  0  0  0  0  0
    0.4050   65.6480   70.2590 C   0  0  0  0  0  0  0  0  0  0  0  0
    0.9620   66.1230   69.0840 N   0  0  0  0  0  0  0  0  0  0  0  0
    0.2650   64.1310   70.3040 C   0  0  0  0  0  0  0  0  0  0  0  0
    1.0580   63.5390   71.4410 C   0  0  0  0  0  0  0  0  0  0  0  0
    0.6620   63.7040   72.7140 C   0  0  0  0  0  0  0  0  0  0  0  0
    1.3830   63.1590   73.8730 C   0  0  0  0  0  0  0  0  0  0  0  0
    0.9750   63.3520   75.0120 O   0  0  0  0  0  0  0  0  0  0  0  0
    2.5330   62.4380   73.6090 O   0  0  0  0  0  0  0  0  0  0  0  0
    2.9860   62.2490   72.2880 C   0  0  0  0  0  0  0  0  0  0  0  0
    2.2920   62.7750   71.1930 C   0  0  0  0  0  0  0  0  0  0  0  0
    2.8220   62.5380   69.9180 C   0  0  0  0  0  0  0  0  0  0  0  0
    4.0020   61.7990   69.7600 C   0  0  0  0  0  0  0  0  0  0  0  0
    4.6610   61.2920   70.8730 C   0  0  0  0  0  0  0  0  0  0  0  0
    4.1630   61.5100   72.1480 C   0  0  0  0  0  0  0  0  0  0  0  0
    5.8040   60.5810   70.6640 O   0  0  0  0  0  0  0  0  0  0  0  0
    0.7560   68.3560   68.1420 C   0  0  0  0  0  0  0  0  0  0  0  0
   -0.7190   68.0480   67.3990 S   0  0  0  0  0  0  0  0  0  0  0  0
    1.5790   69.4690   67.9580 N   0  0  0  0  0  0  0  0  0  0  0  0
    2.7670   69.4810   67.1700 C   0  0  0  0  0  0  0  0  0  0  0  0
    3.9600   69.9420   67.7560 C   0  0  0  0  0  0  0  0  0  0  0  0
    4.0240   70.4020   69.1930 C   0  0  0  0  0  0  0  0  0  0  0  0
    5.4410   70.5270   69.7520 C   0  0  0  0  0  0  0  0  0  0  0  0
    6.3470   71.2310   68.7550 C   0  0  0  0  0  0  0  0  0  0  0  0
    6.4400   70.4060   67.4760 C   0  0  0  0  0  0  0  0  0  0  0  0
    5.0960   69.9740   66.9470 C   0  0  0  0  0  0  0  0  0  0  0  0
    5.0950   69.5720   65.6550 N   0  0  0  0  0  0  0  0  0  0  0  0
    3.9490   69.1650   65.0940 C   0  0  0  0  0  0  0  0  0  0  0  0
    2.7300   69.1140   65.7960 C   0  0  0  0  0  0  0  0  0  0  0  0
    1.5590   68.7550   65.0780 C   0  0  0  0  0  0  0  0  0  0  0  0
    1.6060   68.4040   63.7290 C   0  0  0  0  0  0  0  0  0  0  0  0
    2.8230   68.4210   63.0650 C   0  0  0  0  0  0  0  0  0  0  0  0
    3.9750   68.8060   63.7520 C   0  0  0  0  0  0  0  0  0  0  0  0
    2.0176   67.8368   69.7448 H   0  0  0  0  0  0  0  0  0  0  0  0
    1.1028   65.5140   68.2653 H   0  0  0  0  0  0  0  0  0  0  0  0
   -0.7963   63.8733   70.4355 H   0  0  0  0  0  0  0  0  0  0  0  0
    0.6526   63.7194   69.3604 H   0  0  0  0  0  0  0  0  0  0  0  0
   -0.2559   64.2810   72.8999 H   0  0  0  0  0  0  0  0  0  0  0  0
    2.3064   62.9362   69.0317 H   0  0  0  0  0  0  0  0  0  0  0  0
    4.4072   61.6200   68.7531 H   0  0  0  0  0  0  0  0  0  0  0  0
    4.6834   61.1097   73.0305 H   0  0  0  0  0  0  0  0  0  0  0  0
    6.3004   60.2045   71.4334 H   0  0  0  0  0  0  0  0  0  0  0  0
    1.3078   70.3456   68.4259 H   0  0  0  0  0  0  0  0  0  0  0  0
    3.5389   71.3869   69.2612 H   0  0  0  0  0  0  0  0  0  0  0  0
    3.5161   69.6322   69.7926 H   0  0  0  0  0  0  0  0  0  0  0  0
    5.4116   71.1067   70.6864 H   0  0  0  0  0  0  0  0  0  0  0  0
    5.8380   69.5191   69.9431 H   0  0  0  0  0  0  0  0  0  0  0  0
    5.9330   72.2230   68.5213 H   0  0  0  0  0  0  0  0  0  0  0  0
    7.3508   71.3438   69.1904 H   0  0  0  0  0  0  0  0  0  0  0  0
    6.9405   71.0110   66.7057 H   0  0  0  0  0  0  0  0  0  0  0  0
    7.0044   69.4931   67.7170 H   0  0  0  0  0  0  0  0  0  0  0  0
    0.5901   68.7536   65.5988 H   0  0  0  0  0  0  0  0  0  0  0  0
    0.6869   68.1166   63.1973 H   0  0  0  0  0  0  0  0  0  0  0  0
    2.8800   68.1332   62.0048 H   0  0  0  0  0  0  0  0  0  0  0  0
    4.9342   68.8259   63.2140 H   0  0  0  0  0  0  0  0  0  0  0  0
  3  2  2  0
  4  3  1  0
  4  1  1  0
  5  3  1  0
  6  5  1  0
  7  6  2  0
  8  7  1  0
  9  8  2  0
 10  8  1  0
 11 10  1  0
 12 11  2  0
 12  6  1  0
 13 12  1  0
 14 13  2  0
 15 14  1  0
 16 15  2  0
 16 11  1  0
 17 15  1  0
 18  1  1  0
 19 18  2  0
 20 18  1  0
 21 20  1  0
 22 21  1  0
 23 22  1  0
 24 23  1  0
 25 24  1  0
 26 25  1  0
 27 22  2  0
 27 26  1  0
 28 27  1  0
 29 28  2  0
 30 29  1  0
 30 21  2  0
 31 30  1  0
 32 31  2  0
 33 32  1  0
 34 33  2  0
 34 29  1  0
  1 35  1  0
  4 36  1  0
  5 37  1  0
  5 38  1  0
  7 39  1  0
 13 40  1  0
 14 41  1  0
 16 42  1  0
 17 43  1  0
 20 44  1  0
 23 45  1  0
 23 46  1  0
 24 47  1  0
 24 48  1  0
 25 49  1  0
 25 50  1  0
 26 51  1  0
 26 52  1  0
 31 53  1  0
 32 54  1  0
 33 55  1  0
 34 56  1  0
M  END
>  <score>  (2) 
-13.096

$$$$
=
     RDKit          3D

 56 60  0  0  0  0  0  0  0  0999 V2000
    1.1960   65.6980   69.5010 N   0  0  0  0  0  0  0  0  0  0  0  0
    0.5220   66.8340   67.1630 O   0  0  0  0  0  0  0  0  0  0  0  0
    0.8470   67.5750   68.0890 C   0  0  0  0  0  0  0  0  0  0  0  0
    1.1110   67.0970   69.3620 N   0  0  0  0  0  0  0  0  0  0  0  0
    1.0140   69.0840   67.9520 C   0  0  0  0  0  0  0  0  0  0  0  0
    2.4680   69.4810   67.9700 C   0  0  0  0  0  0  0  0  0  0  0  0
    3.0580   69.8810   69.1080 C   0  0  0  0  0  0  0  0  0  0  0  0
    4.4680   70.2840   69.2030 C   0  0  0  0  0  0  0  0  0  0  0  0
    4.9460   70.6480   70.2700 O   0  0  0  0  0  0  0  0  0  0  0  0
    5.2090   70.2390   68.0350 O   0  0  0  0  0  0  0  0  0  0  0  0
    4.6250   69.8330   66.8190 C   0  0  0  0  0  0  0  0  0  0  0  0
    3.2800   69.4540   66.7420 C   0  0  0  0  0  0  0  0  0  0  0  0
    2.7890   69.0680   65.4880 C   0  0  0  0  0  0  0  0  0  0  0  0
    3.6240   69.0650   64.3620 C   0  0  0  0  0  0  0  0  0  0  0  0
    4.9540   69.4480   64.4810 C   0  0  0  0  0  0  0  0  0  0  0  0
    5.4710   69.8350   65.7080 C   0  0  0  0  0  0  0  0  0  0  0  0
    5.7230   69.4270   63.3560 O   0  0  0  0  0  0  0  0  0  0  0  0
    0.5480   65.0520   70.5530 C   0  0  0  0  0  0  0  0  0  0  0  0
   -0.2470   65.8890   71.7740 S   0  0  0  0  0  0  0  0  0  0  0  0
    0.6660   63.6680   70.4150 N   0  0  0  0  0  0  0  0  0  0  0  0
    1.2980   62.8080   71.3600 C   0  0  0  0  0  0  0  0  0  0  0  0
    2.6970   62.6620   71.3090 C   0  0  0  0  0  0  0  0  0  0  0  0
    3.5450   63.4010   70.3020 C   0  0  0  0  0  0  0  0  0  0  0  0
    5.0410   63.3990   70.6170 C   0  0  0  0  0  0  0  0  0  0  0  0
    5.4970   62.0070   71.0240 C   0  0  0  0  0  0  0  0  0  0  0  0
    4.7710   61.5800   72.2940 C   0  0  0  0  0  0  0  0  0  0  0  0
    3.2790   61.7850   72.2240 C   0  0  0  0  0  0  0  0  0  0  0  0
    2.5660   61.0980   73.1470 N   0  0  0  0  0  0  0  0  0  0  0  0
    1.2320   61.2170   73.1690 C   0  0  0  0  0  0  0  0  0  0  0  0
    0.5240   62.0480   72.2810 C   0  0  0  0  0  0  0  0  0  0  0  0
   -0.8950   62.0270   72.3320 C   0  0  0  0  0  0  0  0  0  0  0  0
   -1.5820   61.2560   73.2690 C   0  0  0  0  0  0  0  0  0  0  0  0
   -0.8650   60.4750   74.1630 C   0  0  0  0  0  0  0  0  0  0  0  0
    0.5290   60.4610   74.0980 C   0  0  0  0  0  0  0  0  0  0  0  0
    1.7405   65.1485   68.8210 H   0  0  0  0  0  0  0  0  0  0  0  0
    1.2383   67.7307   70.1640 H   0  0  0  0  0  0  0  0  0  0  0  0
    0.5662   69.4086   67.0011 H   0  0  0  0  0  0  0  0  0  0  0  0
    0.5132   69.5662   68.8044 H   0  0  0  0  0  0  0  0  0  0  0  0
    2.4495   69.9087   70.0239 H   0  0  0  0  0  0  0  0  0  0  0  0
    1.7368   68.7640   65.3858 H   0  0  0  0  0  0  0  0  0  0  0  0
    3.2257   68.7591   63.3833 H   0  0  0  0  0  0  0  0  0  0  0  0
    6.5244   70.1369   65.8041 H   0  0  0  0  0  0  0  0  0  0  0  0
    6.6754   69.6934   63.4024 H   0  0  0  0  0  0  0  0  0  0  0  0
    0.2674   63.2368   69.5688 H   0  0  0  0  0  0  0  0  0  0  0  0
    3.3995   62.9311   69.3181 H   0  0  0  0  0  0  0  0  0  0  0  0
    3.2194   64.4514   70.3264 H   0  0  0  0  0  0  0  0  0  0  0  0
    5.5995   63.7163   69.7240 H   0  0  0  0  0  0  0  0  0  0  0  0
    5.2305   64.0932   71.4490 H   0  0  0  0  0  0  0  0  0  0  0  0
    5.2688   61.2965   70.2158 H   0  0  0  0  0  0  0  0  0  0  0  0
    6.5811   62.0185   71.2103 H   0  0  0  0  0  0  0  0  0  0  0  0
    4.9692   60.5120   72.4674 H   0  0  0  0  0  0  0  0  0  0  0  0
    5.1488   62.2093   73.1132 H   0  0  0  0  0  0  0  0  0  0  0  0
   -1.4665   62.6341   71.6145 H   0  0  0  0  0  0  0  0  0  0  0  0
   -2.6815   61.2671   73.2988 H   0  0  0  0  0  0  0  0  0  0  0  0
   -1.3909   59.8713   74.9174 H   0  0  0  0  0  0  0  0  0  0  0  0
    1.0888   59.8311   74.8051 H   0  0  0  0  0  0  0  0  0  0  0  0
  3  2  2  0
  4  3  1  0
  4  1  1  0
  5  3  1  0
  6  5  1  0
  7  6  2  0
  8  7  1  0
  9  8  2  0
 10  8  1  0
 11 10  1  0
 12 11  2  0
 12  6  1  0
 13 12  1  0
 14 13  2  0
 15 14  1  0
 16 15  2  0
 16 11  1  0
 17 15  1  0
 18  1  1  0
 19 18  2  0
 20 18  1  0
 21 20  1  0
 22 21  1  0
 23 22  1  0
 24 23  1  0
 25 24  1  0
 26 25  1  0
 27 22  2  0
 27 26  1  0
 28 27  1  0
 29 28  2  0
 30 29  1  0
 30 21  2  0
 31 30  1  0
 32 31  2  0
 33 32  1  0
 34 33  2  0
 34 29  1  0
  1 35  1  0
  4 36  1  0
  5 37  1  0
  5 38  1  0
  7 39  1  0
 13 40  1  0
 14 41  1  0
 16 42  1  0
 17 43  1  0
 20 44  1  0
 23 45  1  0
 23 46  1  0
 24 47  1  0
 24 48  1  0
 25 49  1  0
 25 50  1  0
 26 51  1  0
 26 52  1  0
 31 53  1  0
 32 54  1  0
 33 55  1  0
 34 56  1  0
M  END
>  <score>  (3) 
-12.723

$$$$
=
     RDKit          3D

 56 60  0  0  0  0  0  0  0  0999 V2000
    1.2290   65.5240   69.4490 N   0  0  0  0  0  0  0  0  0  0  0  0
   -0.0040   66.8770   67.4850 O   0  0  0  0  0  0  0  0  0  0  0  0
    0.7160   67.5110   68.2560 C   0  0  0  0  0  0  0  0  0  0  0  0
    1.3110   66.9270   69.3610 N   0  0  0  0  0  0  0  0  0  0  0  0
    1.0500   68.9890   68.0870 C   0  0  0  0  0  0  0  0  0  0  0  0
    2.2610   69.1820   67.2120 C   0  0  0  0  0  0  0  0  0  0  0  0
    2.2400   68.8180   65.9190 C   0  0  0  0  0  0  0  0  0  0  0  0
    3.3820   68.9730   65.0060 C   0  0  0  0  0  0  0  0  0  0  0  0
    3.3040   68.6130   63.8380 O   0  0  0  0  0  0  0  0  0  0  0  0
    4.5320   69.5300   65.5350 O   0  0  0  0  0  0  0  0  0  0  0  0
    4.5970   69.9170   66.8880 C   0  0  0  0  0  0  0  0  0  0  0  0
    3.5040   69.7620   67.7480 C   0  0  0  0  0  0  0  0  0  0  0  0
    3.6650   70.1740   69.0770 C   0  0  0  0  0  0  0  0  0  0  0  0
    4.8790   70.7200   69.5160 C   0  0  0  0  0  0  0  0  0  0  0  0
    5.9400   70.8580   68.6300 C   0  0  0  0  0  0  0  0  0  0  0  0
    5.8130   70.4600   67.3080 C   0  0  0  0  0  0  0  0  0  0  0  0
    7.0980   71.3950   69.1070 O   0  0  0  0  0  0  0  0  0  0  0  0
    0.5720   64.9210   70.5210 C   0  0  0  0  0  0  0  0  0  0  0  0
   -0.1810   65.8070   71.7340 S   0  0  0  0  0  0  0  0  0  0  0  0
    0.6420   63.5310   70.4090 N   0  0  0  0  0  0  0  0  0  0  0  0
    1.2530   62.6680   71.3660 C   0  0  0  0  0  0  0  0  0  0  0  0
    2.6500   62.5020   71.3290 C   0  0  0  0  0  0  0  0  0  0  0  0
    3.5180   63.2220   70.3250 C   0  0  0  0  0  0  0  0  0  0  0  0
    5.0110   63.2010   70.6540 C   0  0  0  0  0  0  0  0  0  0  0  0
    5.4440   61.8050   71.0740 C   0  0  0  0  0  0  0  0  0  0  0  0
    4.6990   61.3970   72.3400 C   0  0  0  0  0  0  0  0  0  0  0  0
    3.2110   61.6230   72.2560 C   0  0  0  0  0  0  0  0  0  0  0  0
    2.4810   60.9530   73.1760 N   0  0  0  0  0  0  0  0  0  0  0  0
    1.1480   61.0910   73.1850 C   0  0  0  0  0  0  0  0  0  0  0  0
    0.4600   61.9250   72.2850 C   0  0  0  0  0  0  0  0  0  0  0  0
   -0.9600   61.9250   72.3230 C   0  0  0  0  0  0  0  0  0  0  0  0
   -1.6660   61.1710   73.2590 C   0  0  0  0  0  0  0  0  0  0  0  0
   -0.9690   60.3860   74.1640 C   0  0  0  0  0  0  0  0  0  0  0  0
    0.4260   60.3520   74.1130 C   0  0  0  0  0  0  0  0  0  0  0  0
    1.6570   64.9395   68.7169 H   0  0  0  0  0  0  0  0  0  0  0  0
    1.7882   67.4887   70.0805 H   0  0  0  0  0  0  0  0  0  0  0  0
    0.1911   69.4998   67.6272 H   0  0  0  0  0  0  0  0  0  0  0  0
    1.2690   69.4102   69.0793 H   0  0  0  0  0  0  0  0  0  0  0  0
    1.3141   68.3782   65.5199 H   0  0  0  0  0  0  0  0  0  0  0  0
    2.8292   70.0679   69.7842 H   0  0  0  0  0  0  0  0  0  0  0  0
    4.9916   71.0394   70.5626 H   0  0  0  0  0  0  0  0  0  0  0  0
    6.6520   70.5696   66.6051 H   0  0  0  0  0  0  0  0  0  0  0  0
    7.8757   71.5088   68.5050 H   0  0  0  0  0  0  0  0  0  0  0  0
    0.2218   63.0974   69.5746 H   0  0  0  0  0  0  0  0  0  0  0  0
    3.3750   62.7474   69.3430 H   0  0  0  0  0  0  0  0  0  0  0  0
    3.2072   64.2771   70.3394 H   0  0  0  0  0  0  0  0  0  0  0  0
    5.5821   63.5049   69.7643 H   0  0  0  0  0  0  0  0  0  0  0  0
    5.2024   63.8976   71.4835 H   0  0  0  0  0  0  0  0  0  0  0  0
    5.2138   61.0925   70.2682 H   0  0  0  0  0  0  0  0  0  0  0  0
    6.5263   61.8021   71.2704 H   0  0  0  0  0  0  0  0  0  0  0  0
    4.8798   60.3273   72.5220 H   0  0  0  0  0  0  0  0  0  0  0  0
    5.0782   62.0269   73.1582 H   0  0  0  0  0  0  0  0  0  0  0  0
   -1.5161   62.5350   71.5959 H   0  0  0  0  0  0  0  0  0  0  0  0
   -2.7655   61.1987   73.2792 H   0  0  0  0  0  0  0  0  0  0  0  0
   -1.5106   59.7943   74.9167 H   0  0  0  0  0  0  0  0  0  0  0  0
    0.9701   59.7201   74.8304 H   0  0  0  0  0  0  0  0  0  0  0  0
  3  2  2  0
  4  3  1  0
  4  1  1  0
  5  3  1  0
  6  5  1  0
  7  6  2  0
  8  7  1  0
  9  8  2  0
 10  8  1  0
 11 10  1  0
 12 11  2  0
 12  6  1  0
 13 12  1  0
 14 13  2  0
 15 14  1  0
 16 15  2  0
 16 11  1  0
 17 15  1  0
 18  1  1  0
 19 18  2  0
 20 18  1  0
 21 20  1  0
 22 21  1  0
 23 22  1  0
 24 23  1  0
 25 24  1  0
 26 25  1  0
 27 22  2  0
 27 26  1  0
 28 27  1  0
 29 28  2  0
 30 29  1  0
 30 21  2  0
 31 30  1  0
 32 31  2  0
 33 32  1  0
 34 33  2  0
 34 29  1  0
  1 35  1  0
  4 36  1  0
  5 37  1  0
  5 38  1  0
  7 39  1  0
 13 40  1  0
 14 41  1  0
 16 42  1  0
 17 43  1  0
 20 44  1  0
 23 45  1  0
 23 46  1  0
 24 47  1  0
 24 48  1  0
 25 49  1  0
 25 50  1  0
 26 51  1  0
 26 52  1  0
 31 53  1  0
 32 54  1  0
 33 55  1  0
 34 56  1  0
M  END
>  <score>  (4) 
-12.719

$$$$
=
     RDKit          3D

 56 60  0  0  0  0  0  0  0  0999 V2000
    1.1430   65.7080   69.4590 N   0  0  0  0  0  0  0  0  0  0  0  0
    0.5690   66.8050   67.0760 O   0  0  0  0  0  0  0  0  0  0  0  0
    0.8350   67.5620   68.0090 C   0  0  0  0  0  0  0  0  0  0  0  0
    1.0420   67.1040   69.2980 N   0  0  0  0  0  0  0  0  0  0  0  0
    0.9840   69.0720   67.8620 C   0  0  0  0  0  0  0  0  0  0  0  0
    2.4320   69.4890   67.8990 C   0  0  0  0  0  0  0  0  0  0  0  0
    2.9920   69.9260   69.0390 C   0  0  0  0  0  0  0  0  0  0  0  0
    4.3950   70.3510   69.1530 C   0  0  0  0  0  0  0  0  0  0  0  0
    4.8450   70.7480   70.2200 O   0  0  0  0  0  0  0  0  0  0  0  0
    5.1600   70.2860   68.0030 O   0  0  0  0  0  0  0  0  0  0  0  0
    4.6080   69.8400   66.7860 C   0  0  0  0  0  0  0  0  0  0  0  0
    3.2700   69.4410   66.6900 C   0  0  0  0  0  0  0  0  0  0  0  0
    2.8110   69.0170   65.4360 C   0  0  0  0  0  0  0  0  0  0  0  0
    3.6690   68.9960   64.3290 C   0  0  0  0  0  0  0  0  0  0  0  0
    4.9920   69.3990   64.4650 C   0  0  0  0  0  0  0  0  0  0  0  0
    5.4770   69.8250   65.6920 C   0  0  0  0  0  0  0  0  0  0  0  0
    5.7850   69.3600   63.3580 O   0  0  0  0  0  0  0  0  0  0  0  0
    0.5050   65.0720   70.5230 C   0  0  0  0  0  0  0  0  0  0  0  0
   -0.2380   65.9200   71.7690 S   0  0  0  0  0  0  0  0  0  0  0  0
    0.5840   63.6860   70.3730 N   0  0  0  0  0  0  0  0  0  0  0  0
    1.2820   62.8110   71.2560 C   0  0  0  0  0  0  0  0  0  0  0  0
    0.5490   62.1200   72.2400 C   0  0  0  0  0  0  0  0  0  0  0  0
   -0.9490   62.2620   72.3730 C   0  0  0  0  0  0  0  0  0  0  0  0
   -1.6080   61.1910   73.2410 C   0  0  0  0  0  0  0  0  0  0  0  0
   -0.8120   60.9770   74.5190 C   0  0  0  0  0  0  0  0  0  0  0  0
    0.5870   60.4780   74.1750 C   0  0  0  0  0  0  0  0  0  0  0  0
    1.2670   61.3000   73.1100 C   0  0  0  0  0  0  0  0  0  0  0  0
    2.6080   61.1370   73.0350 N   0  0  0  0  0  0  0  0  0  0  0  0
    3.3030   61.8220   72.1170 C   0  0  0  0  0  0  0  0  0  0  0  0
    2.6990   62.7020   71.2000 C   0  0  0  0  0  0  0  0  0  0  0  0
    3.5410   63.4460   70.3320 C   0  0  0  0  0  0  0  0  0  0  0  0
    4.9250   63.2790   70.3350 C   0  0  0  0  0  0  0  0  0  0  0  0
    5.4990   62.3770   71.2180 C   0  0  0  0  0  0  0  0  0  0  0  0
    4.6830   61.6660   72.1000 C   0  0  0  0  0  0  0  0  0  0  0  0
    1.6917   65.1537   68.7863 H   0  0  0  0  0  0  0  0  0  0  0  0
    1.1182   67.7492   70.0973 H   0  0  0  0  0  0  0  0  0  0  0  0
    0.5467   69.3828   66.9017 H   0  0  0  0  0  0  0  0  0  0  0  0
    0.4638   69.5542   68.7027 H   0  0  0  0  0  0  0  0  0  0  0  0
    2.3637   69.9685   69.9409 H   0  0  0  0  0  0  0  0  0  0  0  0
    1.7650   68.6970   65.3195 H   0  0  0  0  0  0  0  0  0  0  0  0
    3.2950   68.6600   63.3506 H   0  0  0  0  0  0  0  0  0  0  0  0
    6.5238   70.1444   65.8019 H   0  0  0  0  0  0  0  0  0  0  0  0
    6.7327   69.6398   63.4179 H   0  0  0  0  0  0  0  0  0  0  0  0
    0.1028   63.2650   69.5654 H   0  0  0  0  0  0  0  0  0  0  0  0
   -1.1637   63.2453   72.8170 H   0  0  0  0  0  0  0  0  0  0  0  0
   -1.3669   62.1488   71.3618 H   0  0  0  0  0  0  0  0  0  0  0  0
   -2.6281   61.5116   73.4993 H   0  0  0  0  0  0  0  0  0  0  0  0
   -1.6384   60.2462   72.6784 H   0  0  0  0  0  0  0  0  0  0  0  0
   -0.7367   61.9281   75.0666 H   0  0  0  0  0  0  0  0  0  0  0  0
   -1.3217   60.2299   75.1451 H   0  0  0  0  0  0  0  0  0  0  0  0
    1.2026   60.5085   75.0861 H   0  0  0  0  0  0  0  0  0  0  0  0
    0.4813   59.4565   73.7809 H   0  0  0  0  0  0  0  0  0  0  0  0
    3.0900   64.1723   69.6399 H   0  0  0  0  0  0  0  0  0  0  0  0
    5.5556   63.8572   69.6436 H   0  0  0  0  0  0  0  0  0  0  0  0
    6.5881   62.2229   71.2235 H   0  0  0  0  0  0  0  0  0  0  0  0
    5.1478   60.9599   72.8038 H   0  0  0  0  0  0  0  0  0  0  0  0
  3  2  2  0
  4  3  1  0
  4  1  1  0
  5  3  1  0
  6  5  1  0
  7  6  2  0
  8  7  1  0
  9  8  2  0
 10  8  1  0
 11 10  1  0
 12 11  2  0
 12  6  1  0
 13 12  1  0
 14 13  2  0
 15 14  1  0
 16 15  2  0
 16 11  1  0
 17 15  1  0
 18  1  1  0
 19 18  2  0
 20 18  1  0
 21 20  1  0
 22 21  1  0
 23 22  1  0
 24 23  1  0
 25 24  1  0
 26 25  1  0
 27 22  2  0
 27 26  1  0
 28 27  1  0
 29 28  2  0
 30 29  1  0
 30 21  2  0
 31 30  1  0
 32 31  2  0
 33 32  1  0
 34 33  2  0
 34 29  1  0
  1 35  1  0
  4 36  1  0
  5 37  1  0
  5 38  1  0
  7 39  1  0
 13 40  1  0
 14 41  1  0
 16 42  1  0
 17 43  1  0
 20 44  1  0
 23 45  1  0
 23 46  1  0
 24 47  1  0
 24 48  1  0
 25 49  1  0
 25 50  1  0
 26 51  1  0
 26 52  1  0
 31 53  1  0
 32 54  1  0
 33 55  1  0
 34 56  1  0
M  END
>  <score>  (5) 
-12.588

$$$$
=
     RDKit          3D

 56 60  0  0  0  0  0  0  0  0999 V2000
    0.7270   68.0870   68.1970 N   0  0  0  0  0  0  0  0  0  0  0  0
   -0.6380   65.8790   68.8840 O   0  0  0  0  0  0  0  0  0  0  0  0
    0.2520   66.2630   69.6410 C   0  0  0  0  0  0  0  0  0  0  0  0
    1.0810   67.3260   69.3290 N   0  0  0  0  0  0  0  0  0  0  0  0
    0.5380   65.6390   71.0030 C   0  0  0  0  0  0  0  0  0  0  0  0
    1.3960   64.4070   70.8740 C   0  0  0  0  0  0  0  0  0  0  0  0
    2.5240   64.4290   70.1440 C   0  0  0  0  0  0  0  0  0  0  0  0
    3.4090   63.2680   69.9710 C   0  0  0  0  0  0  0  0  0  0  0  0
    4.4200   63.3480   69.2850 O   0  0  0  0  0  0  0  0  0  0  0  0
    3.0350   62.0980   70.6070 O   0  0  0  0  0  0  0  0  0  0  0  0
    1.8560   62.0330   71.3750 C   0  0  0  0  0  0  0  0  0  0  0  0
    1.0190   63.1440   71.5300 C   0  0  0  0  0  0  0  0  0  0  0  0
   -0.1330   62.9810   72.3100 C   0  0  0  0  0  0  0  0  0  0  0  0
   -0.4250   61.7480   72.9060 C   0  0  0  0  0  0  0  0  0  0  0  0
    0.4310   60.6680   72.7290 C   0  0  0  0  0  0  0  0  0  0  0  0
    1.5800   60.7970   71.9620 C   0  0  0  0  0  0  0  0  0  0  0  0
    0.1020   59.4910   73.3300 O   0  0  0  0  0  0  0  0  0  0  0  0
    1.4630   67.9810   67.0170 C   0  0  0  0  0  0  0  0  0  0  0  0
    1.6770   66.5220   66.2130 S   0  0  0  0  0  0  0  0  0  0  0  0
    1.9550   69.2330   66.6430 N   0  0  0  0  0  0  0  0  0  0  0  0
    3.3100   69.5010   66.2900 C   0  0  0  0  0  0  0  0  0  0  0  0
    3.7290   69.2330   64.9730 C   0  0  0  0  0  0  0  0  0  0  0  0
    2.7860   68.6930   63.9240 C   0  0  0  0  0  0  0  0  0  0  0  0
    3.3100   68.7990   62.4920 C   0  0  0  0  0  0  0  0  0  0  0  0
    4.7620   68.3510   62.4210 C   0  0  0  0  0  0  0  0  0  0  0  0
    5.6230   69.2660   63.2840 C   0  0  0  0  0  0  0  0  0  0  0  0
    5.0700   69.4730   64.6710 C   0  0  0  0  0  0  0  0  0  0  0  0
    5.9560   69.9570   65.5710 N   0  0  0  0  0  0  0  0  0  0  0  0
    5.5580   70.1790   66.8310 C   0  0  0  0  0  0  0  0  0  0  0  0
    4.2400   69.9500   67.2680 C   0  0  0  0  0  0  0  0  0  0  0  0
    3.9510   70.1310   68.6470 C   0  0  0  0  0  0  0  0  0  0  0  0
    4.9200   70.5790   69.5440 C   0  0  0  0  0  0  0  0  0  0  0  0
    6.2020   70.8380   69.0870 C   0  0  0  0  0  0  0  0  0  0  0  0
    6.5070   70.6300   67.7400 C   0  0  0  0  0  0  0  0  0  0  0  0
   -0.0801   68.7253   68.2413 H   0  0  0  0  0  0  0  0  0  0  0  0
    1.9127   67.5492   69.8941 H   0  0  0  0  0  0  0  0  0  0  0  0
    1.0609   66.3751   71.6312 H   0  0  0  0  0  0  0  0  0  0  0  0
   -0.4200   65.3476   71.4584 H   0  0  0  0  0  0  0  0  0  0  0  0
    2.8012   65.3704   69.6470 H   0  0  0  0  0  0  0  0  0  0  0  0
   -0.8158   63.8310   72.4560 H   0  0  0  0  0  0  0  0  0  0  0  0
   -1.3337   61.6342   73.5154 H   0  0  0  0  0  0  0  0  0  0  0  0
    2.2590   59.9434   71.8195 H   0  0  0  0  0  0  0  0  0  0  0  0
    0.6890   58.7007   73.2253 H   0  0  0  0  0  0  0  0  0  0  0  0
    1.2909   70.0200   66.6205 H   0  0  0  0  0  0  0  0  0  0  0  0
    2.5973   67.6319   64.1440 H   0  0  0  0  0  0  0  0  0  0  0  0
    1.8756   69.3084   63.9724 H   0  0  0  0  0  0  0  0  0  0  0  0
    2.7015   68.1595   61.8357 H   0  0  0  0  0  0  0  0  0  0  0  0
    3.2451   69.8477   62.1663 H   0  0  0  0  0  0  0  0  0  0  0  0
    4.8444   67.3174   62.7883 H   0  0  0  0  0  0  0  0  0  0  0  0
    5.1086   68.4004   61.3782 H   0  0  0  0  0  0  0  0  0  0  0  0
    6.6257   68.8220   63.3708 H   0  0  0  0  0  0  0  0  0  0  0  0
    5.6459   70.2499   62.7927 H   0  0  0  0  0  0  0  0  0  0  0  0
    2.9381   69.9124   69.0162 H   0  0  0  0  0  0  0  0  0  0  0  0
    4.6688   70.7255   70.6049 H   0  0  0  0  0  0  0  0  0  0  0  0
    6.9738   71.2047   69.7798 H   0  0  0  0  0  0  0  0  0  0  0  0
    7.5299   70.8294   67.3880 H   0  0  0  0  0  0  0  0  0  0  0  0
  3  2  2  0
  4  3  1  0
  4  1  1  0
  5  3  1  0
  6  5  1  0
  7  6  2  0
  8  7  1  0
  9  8  2  0
 10  8  1  0
 11 10  1  0
 12 11  2  0
 12  6  1  0
 13 12  1  0
 14 13  2  0
 15 14  1  0
 16 15  2  0
 16 11  1  0
 17 15  1  0
 18  1  1  0
 19 18  2  0
 20 18  1  0
 21 20  1  0
 22 21  1  0
 23 22  1  0
 24 23  1  0
 25 24  1  0
 26 25  1  0
 27 22  2  0
 27 26  1  0
 28 27  1  0
 29 28  2  0
 30 29  1  0
 30 21  2  0
 31 30  1  0
 32 31  2  0
 33 32  1  0
 34 33  2  0
 34 29  1  0
  1 35  1  0
  4 36  1  0
  5 37  1  0
  5 38  1  0
  7 39  1  0
 13 40  1  0
 14 41  1  0
 16 42  1  0
 17 43  1  0
 20 44  1  0
 23 45  1  0
 23 46  1  0
 24 47  1  0
 24 48  1  0
 25 49  1  0
 25 50  1  0
 26 51  1  0
 26 52  1  0
 31 53  1  0
 32 54  1  0
 33 55  1  0
 34 56  1  0
M  END
>  <score>  (6) 
-12.552

$$$$
=
     RDKit          3D

 56 60  0  0  0  0  0  0  0  0999 V2000
    1.5170   67.7120   69.1780 N   0  0  0  0  0  0  0  0  0  0  0  0
    2.1690   65.1260   69.4930 O   0  0  0  0  0  0  0  0  0  0  0  0
    1.1140   65.5180   69.9900 C   0  0  0  0  0  0  0  0  0  0  0  0
    0.7380   66.8500   69.9750 N   0  0  0  0  0  0  0  0  0  0  0  0
    0.0970   64.6000   70.6600 C   0  0  0  0  0  0  0  0  0  0  0  0
    0.7670   63.6220   71.5910 C   0  0  0  0  0  0  0  0  0  0  0  0
    1.4350   62.5620   71.1080 C   0  0  0  0  0  0  0  0  0  0  0  0
    2.1110   61.5660   71.9530 C   0  0  0  0  0  0  0  0  0  0  0  0
    2.6980   60.6150   71.4520 O   0  0  0  0  0  0  0  0  0  0  0  0
    2.0390   61.7570   73.3210 O   0  0  0  0  0  0  0  0  0  0  0  0
    1.3410   62.8530   73.8660 C   0  0  0  0  0  0  0  0  0  0  0  0
    0.6990   63.7920   73.0520 C   0  0  0  0  0  0  0  0  0  0  0  0
    0.0270   64.8450   73.6860 C   0  0  0  0  0  0  0  0  0  0  0  0
    0.0080   64.9430   75.0840 C   0  0  0  0  0  0  0  0  0  0  0  0
    0.6580   63.9900   75.8580 C   0  0  0  0  0  0  0  0  0  0  0  0
    1.3310   62.9350   75.2600 C   0  0  0  0  0  0  0  0  0  0  0  0
    0.6090   64.1310   77.2120 O   0  0  0  0  0  0  0  0  0  0  0  0
    0.9810   68.2840   68.0250 C   0  0  0  0  0  0  0  0  0  0  0  0
   -0.3320   67.6210   67.2130 S   0  0  0  0  0  0  0  0  0  0  0  0
    1.6850   69.4420   67.6900 N   0  0  0  0  0  0  0  0  0  0  0  0
    2.9090   69.4670   66.9580 C   0  0  0  0  0  0  0  0  0  0  0  0
    4.0730   69.9220   67.6050 C   0  0  0  0  0  0  0  0  0  0  0  0
    4.0680   70.3630   69.0490 C   0  0  0  0  0  0  0  0  0  0  0  0
    5.4580   70.4830   69.6750 C   0  0  0  0  0  0  0  0  0  0  0  0
    6.4070   71.2020   68.7300 C   0  0  0  0  0  0  0  0  0  0  0  0
    6.5610   70.3950   67.4460 C   0  0  0  0  0  0  0  0  0  0  0  0
    5.2440   69.9670   66.8500 C   0  0  0  0  0  0  0  0  0  0  0  0
    5.3040   69.5830   65.5540 N   0  0  0  0  0  0  0  0  0  0  0  0
    4.1860   69.1820   64.9340 C   0  0  0  0  0  0  0  0  0  0  0  0
    2.9370   69.1180   65.5780 C   0  0  0  0  0  0  0  0  0  0  0  0
    1.8010   68.7670   64.8020 C   0  0  0  0  0  0  0  0  0  0  0  0
    1.9110   68.4340   63.4530 C   0  0  0  0  0  0  0  0  0  0  0  0
    3.1570   68.4630   62.8460 C   0  0  0  0  0  0  0  0  0  0  0  0
    4.2760   68.8410   63.5910 C   0  0  0  0  0  0  0  0  0  0  0  0
    2.4885   67.9209   69.4488 H   0  0  0  0  0  0  0  0  0  0  0  0
   -0.0679   67.1926   70.5173 H   0  0  0  0  0  0  0  0  0  0  0  0
   -0.6132   65.2123   71.2351 H   0  0  0  0  0  0  0  0  0  0  0  0
   -0.4236   64.0302   69.8762 H   0  0  0  0  0  0  0  0  0  0  0  0
    1.4792   62.4310   70.0167 H   0  0  0  0  0  0  0  0  0  0  0  0
   -0.4912   65.6029   73.0802 H   0  0  0  0  0  0  0  0  0  0  0  0
   -0.5224   65.7757   75.5690 H   0  0  0  0  0  0  0  0  0  0  0  0
    1.8460   62.1789   75.8708 H   0  0  0  0  0  0  0  0  0  0  0  0
    1.0608   63.4707   77.7951 H   0  0  0  0  0  0  0  0  0  0  0  0
    1.2918   70.3443   67.9936 H   0  0  0  0  0  0  0  0  0  0  0  0
    3.5779   71.3460   69.1073 H   0  0  0  0  0  0  0  0  0  0  0  0
    3.5340   69.5849   69.6142 H   0  0  0  0  0  0  0  0  0  0  0  0
    5.3841   71.0501   70.6146 H   0  0  0  0  0  0  0  0  0  0  0  0
    5.8483   69.4734   69.8712 H   0  0  0  0  0  0  0  0  0  0  0  0
    6.0016   72.1962   68.4908 H   0  0  0  0  0  0  0  0  0  0  0  0
    7.3895   71.3106   69.2126 H   0  0  0  0  0  0  0  0  0  0  0  0
    7.0945   71.0117   66.7077 H   0  0  0  0  0  0  0  0  0  0  0  0
    7.1165   69.4803   67.7003 H   0  0  0  0  0  0  0  0  0  0  0  0
    0.8091   68.7576   65.2774 H   0  0  0  0  0  0  0  0  0  0  0  0
    1.0183   68.1511   62.8759 H   0  0  0  0  0  0  0  0  0  0  0  0
    3.2634   68.1903   61.7857 H   0  0  0  0  0  0  0  0  0  0  0  0
    5.2592   68.8695   63.0986 H   0  0  0  0  0  0  0  0  0  0  0  0
  3  2  2  0
  4  3  1  0
  4  1  1  0
  5  3  1  0
  6  5  1  0
  7  6  2  0
  8  7  1  0
  9  8  2  0
 10  8  1  0
 11 10  1  0
 12 11  2  0
 12  6  1  0
 13 12  1  0
 14 13  2  0
 15 14  1  0
 16 15  2  0
 16 11  1  0
 17 15  1  0
 18  1  1  0
 19 18  2  0
 20 18  1  0
 21 20  1  0
 22 21  1  0
 23 22  1  0
 24 23  1  0
 25 24  1  0
 26 25  1  0
 27 22  2  0
 27 26  1  0
 28 27  1  0
 29 28  2  0
 30 29  1  0
 30 21  2  0
 31 30  1  0
 32 31  2  0
 33 32  1  0
 34 33  2  0
 34 29  1  0
  1 35  1  0
  4 36  1  0
  5 37  1  0
  5 38  1  0
  7 39  1  0
 13 40  1  0
 14 41  1  0
 16 42  1  0
 17 43  1  0
 20 44  1  0
 23 45  1  0
 23 46  1  0
 24 47  1  0
 24 48  1  0
 25 49  1  0
 25 50  1  0
 26 51  1  0
 26 52  1  0
 31 53  1  0
 32 54  1  0
 33 55  1  0
 34 56  1  0
M  END
>  <score>  (7) 
-12.328

$$$$
=
     RDKit          3D

 56 60  0  0  0  0  0  0  0  0999 V2000
   -0.1630   65.5340   69.2520 N   0  0  0  0  0  0  0  0  0  0  0  0
   -0.5800   66.7560   66.8980 O   0  0  0  0  0  0  0  0  0  0  0  0
   -0.0850   67.4180   67.8090 C   0  0  0  0  0  0  0  0  0  0  0  0
    0.0740   66.9130   69.0880 N   0  0  0  0  0  0  0  0  0  0  0  0
    0.4230   68.8460   67.6440 C   0  0  0  0  0  0  0  0  0  0  0  0
    1.7140   68.8840   66.8660 C   0  0  0  0  0  0  0  0  0  0  0  0
    1.7900   68.3530   65.6350 C   0  0  0  0  0  0  0  0  0  0  0  0
    3.0130   68.3510   64.8180 C   0  0  0  0  0  0  0  0  0  0  0  0
    3.0210   67.8430   63.7040 O   0  0  0  0  0  0  0  0  0  0  0  0
    4.1350   68.9370   65.3750 O   0  0  0  0  0  0  0  0  0  0  0  0
    4.0980   69.4980   66.6660 C   0  0  0  0  0  0  0  0  0  0  0  0
    2.9280   69.4920   67.4350 C   0  0  0  0  0  0  0  0  0  0  0  0
    2.9900   70.0700   68.7100 C   0  0  0  0  0  0  0  0  0  0  0  0
    4.1830   70.6320   69.1840 C   0  0  0  0  0  0  0  0  0  0  0  0
    5.3230   70.6200   68.3890 C   0  0  0  0  0  0  0  0  0  0  0  0
    5.2950   70.0540   67.1240 C   0  0  0  0  0  0  0  0  0  0  0  0
    6.4560   71.1790   68.8970 O   0  0  0  0  0  0  0  0  0  0  0  0
    0.0890   64.9150   70.4760 C   0  0  0  0  0  0  0  0  0  0  0  0
    0.0300   65.7430   71.9370 S   0  0  0  0  0  0  0  0  0  0  0  0
    0.3780   63.5630   70.2820 N   0  0  0  0  0  0  0  0  0  0  0  0
    1.1530   62.7610   71.1700 C   0  0  0  0  0  0  0  0  0  0  0  0
    0.4920   62.0570   72.1940 C   0  0  0  0  0  0  0  0  0  0  0  0
   -1.0080   62.1090   72.3650 C   0  0  0  0  0  0  0  0  0  0  0  0
   -1.5740   61.0260   73.2830 C   0  0  0  0  0  0  0  0  0  0  0  0
   -0.7330   60.9020   74.5430 C   0  0  0  0  0  0  0  0  0  0  0  0
    0.6850   60.4820   74.1740 C   0  0  0  0  0  0  0  0  0  0  0  0
    1.2840   61.3110   73.0670 C   0  0  0  0  0  0  0  0  0  0  0  0
    2.6290   61.2300   72.9580 N   0  0  0  0  0  0  0  0  0  0  0  0
    3.2560   61.9280   72.0010 C   0  0  0  0  0  0  0  0  0  0  0  0
    2.5730   62.7400   71.0760 C   0  0  0  0  0  0  0  0  0  0  0  0
    3.3420   63.5080   70.1630 C   0  0  0  0  0  0  0  0  0  0  0  0
    4.7340   63.4280   70.1320 C   0  0  0  0  0  0  0  0  0  0  0  0
    5.3870   62.5920   71.0240 C   0  0  0  0  0  0  0  0  0  0  0  0
    4.6420   61.8580   71.9490 C   0  0  0  0  0  0  0  0  0  0  0  0
   -0.5247   64.9795   68.4629 H   0  0  0  0  0  0  0  0  0  0  0  0
    0.3508   67.5135   69.8777 H   0  0  0  0  0  0  0  0  0  0  0  0
   -0.3352   69.4360   67.1083 H   0  0  0  0  0  0  0  0  0  0  0  0
    0.6088   69.2651   68.6439 H   0  0  0  0  0  0  0  0  0  0  0  0
    0.8846   67.8925   65.2129 H   0  0  0  0  0  0  0  0  0  0  0  0
    2.0924   70.0827   69.3457 H   0  0  0  0  0  0  0  0  0  0  0  0
    4.2173   71.0832   70.1866 H   0  0  0  0  0  0  0  0  0  0  0  0
    6.1965   70.0429   66.4938 H   0  0  0  0  0  0  0  0  0  0  0  0
    7.2872   71.1887   68.3593 H   0  0  0  0  0  0  0  0  0  0  0  0
    0.0038   63.1118   69.4351 H   0  0  0  0  0  0  0  0  0  0  0  0
   -1.2730   63.0903   72.7856 H   0  0  0  0  0  0  0  0  0  0  0  0
   -1.4447   61.9385   71.3699 H   0  0  0  0  0  0  0  0  0  0  0  0
   -2.6052   61.2897   73.5607 H   0  0  0  0  0  0  0  0  0  0  0  0
   -1.5587   60.0642   72.7494 H   0  0  0  0  0  0  0  0  0  0  0  0
   -0.7041   61.8722   75.0605 H   0  0  0  0  0  0  0  0  0  0  0  0
   -1.1773   60.1439   75.2048 H   0  0  0  0  0  0  0  0  0  0  0  0
    1.3211   60.5792   75.0661 H   0  0  0  0  0  0  0  0  0  0  0  0
    0.6334   59.4445   73.8123 H   0  0  0  0  0  0  0  0  0  0  0  0
    2.8275   64.1827   69.4629 H   0  0  0  0  0  0  0  0  0  0  0  0
    5.3083   64.0228   69.4064 H   0  0  0  0  0  0  0  0  0  0  0  0
    6.4836   62.5074   71.0033 H   0  0  0  0  0  0  0  0  0  0  0  0
    5.1694   61.2038   72.6588 H   0  0  0  0  0  0  0  0  0  0  0  0
  3  2  2  0
  4  3  1  0
  4  1  1  0
  5  3  1  0
  6  5  1  0
  7  6  2  0
  8  7  1  0
  9  8  2  0
 10  8  1  0
 11 10  1  0
 12 11  2  0
 12  6  1  0
 13 12  1  0
 14 13  2  0
 15 14  1  0
 16 15  2  0
 16 11  1  0
 17 15  1  0
 18  1  1  0
 19 18  2  0
 20 18  1  0
 21 20  1  0
 22 21  1  0
 23 22  1  0
 24 23  1  0
 25 24  1  0
 26 25  1  0
 27 22  2  0
 27 26  1  0
 28 27  1  0
 29 28  2  0
 30 29  1  0
 30 21  2  0
 31 30  1  0
 32 31  2  0
 33 32  1  0
 34 33  2  0
 34 29  1  0
  1 35  1  0
  4 36  1  0
  5 37  1  0
  5 38  1  0
  7 39  1  0
 13 40  1  0
 14 41  1  0
 16 42  1  0
 17 43  1  0
 20 44  1  0
 23 45  1  0
 23 46  1  0
 24 47  1  0
 24 48  1  0
 25 49  1  0
 25 50  1  0
 26 51  1  0
 26 52  1  0
 31 53  1  0
 32 54  1  0
 33 55  1  0
 34 56  1  0
M  END
>  <score>  (8) 
-12.095

$$$$
=
     RDKit          3D

 56 60  0  0  0  0  0  0  0  0999 V2000
    0.0270   67.3090   67.3240 N   0  0  0  0  0  0  0  0  0  0  0  0
   -0.7720   65.6760   69.2990 O   0  0  0  0  0  0  0  0  0  0  0  0
    0.3960   66.0620   69.3100 C   0  0  0  0  0  0  0  0  0  0  0  0
    0.9340   66.8190   68.2840 N   0  0  0  0  0  0  0  0  0  0  0  0
    1.3760   65.7740   70.4410 C   0  0  0  0  0  0  0  0  0  0  0  0
    1.2180   64.3680   70.9620 C   0  0  0  0  0  0  0  0  0  0  0  0
    0.2760   64.0740   71.8720 C   0  0  0  0  0  0  0  0  0  0  0  0
    0.0640   62.7300   72.4270 C   0  0  0  0  0  0  0  0  0  0  0  0
   -0.8090   62.5270   73.2630 O   0  0  0  0  0  0  0  0  0  0  0  0
    0.8970   61.7270   71.9670 O   0  0  0  0  0  0  0  0  0  0  0  0
    1.9030   61.9960   71.0180 C   0  0  0  0  0  0  0  0  0  0  0  0
    2.0980   63.2810   70.5000 C   0  0  0  0  0  0  0  0  0  0  0  0
    3.1250   63.4510   69.5630 C   0  0  0  0  0  0  0  0  0  0  0  0
    3.9210   62.3680   69.1690 C   0  0  0  0  0  0  0  0  0  0  0  0
    3.6960   61.1060   69.7070 C   0  0  0  0  0  0  0  0  0  0  0  0
    2.6870   60.9050   70.6360 C   0  0  0  0  0  0  0  0  0  0  0  0
    4.4970   60.0870   69.2900 O   0  0  0  0  0  0  0  0  0  0  0  0
    0.4930   67.9170   66.1590 C   0  0  0  0  0  0  0  0  0  0  0  0
   -0.4230   69.0260   65.2890 S   0  0  0  0  0  0  0  0  0  0  0  0
    1.7820   67.4710   65.8650 N   0  0  0  0  0  0  0  0  0  0  0  0
    2.9210   68.3170   65.7170 C   0  0  0  0  0  0  0  0  0  0  0  0
    3.6520   68.2600   64.5160 C   0  0  0  0  0  0  0  0  0  0  0  0
    3.2560   67.3510   63.3770 C   0  0  0  0  0  0  0  0  0  0  0  0
    3.9360   67.6750   62.0470 C   0  0  0  0  0  0  0  0  0  0  0  0
    5.4220   67.9240   62.2550 C   0  0  0  0  0  0  0  0  0  0  0  0
    5.6170   69.1310   63.1660 C   0  0  0  0  0  0  0  0  0  0  0  0
    4.7810   69.0730   64.4190 C   0  0  0  0  0  0  0  0  0  0  0  0
    5.1800   69.9060   65.4080 N   0  0  0  0  0  0  0  0  0  0  0  0
    4.4990   69.9310   66.5610 C   0  0  0  0  0  0  0  0  0  0  0  0
    3.3600   69.1380   66.7930 C   0  0  0  0  0  0  0  0  0  0  0  0
    2.7700   69.1760   68.0840 C   0  0  0  0  0  0  0  0  0  0  0  0
    3.2570   70.0130   69.0870 C   0  0  0  0  0  0  0  0  0  0  0  0
    4.3560   70.8170   68.8260 C   0  0  0  0  0  0  0  0  0  0  0  0
    4.9650   70.7620   67.5720 C   0  0  0  0  0  0  0  0  0  0  0  0
   -0.9864   67.2176   67.4836 H   0  0  0  0  0  0  0  0  0  0  0  0
    1.9437   67.0137   68.2254 H   0  0  0  0  0  0  0  0  0  0  0  0
    2.4023   65.9037   70.0669 H   0  0  0  0  0  0  0  0  0  0  0  0
    1.1691   66.4733   71.2645 H   0  0  0  0  0  0  0  0  0  0  0  0
   -0.3759   64.8875   72.2231 H   0  0  0  0  0  0  0  0  0  0  0  0
    3.3085   64.4462   69.1317 H   0  0  0  0  0  0  0  0  0  0  0  0
    4.7250   62.5162   68.4331 H   0  0  0  0  0  0  0  0  0  0  0  0
    2.5076   59.9074   71.0633 H   0  0  0  0  0  0  0  0  0  0  0  0
    4.3660   59.1747   69.6515 H   0  0  0  0  0  0  0  0  0  0  0  0
    1.9212   66.4574   65.7462 H   0  0  0  0  0  0  0  0  0  0  0  0
    3.5158   66.3186   63.6540 H   0  0  0  0  0  0  0  0  0  0  0  0
    2.1764   67.4936   63.2214 H   0  0  0  0  0  0  0  0  0  0  0  0
    3.8039   66.8284   61.3573 H   0  0  0  0  0  0  0  0  0  0  0  0
    3.4789   68.5824   61.6256 H   0  0  0  0  0  0  0  0  0  0  0  0
    5.8801   67.0379   62.7186 H   0  0  0  0  0  0  0  0  0  0  0  0
    5.8986   68.1197   61.2831 H   0  0  0  0  0  0  0  0  0  0  0  0
    6.6770   69.1824   63.4555 H   0  0  0  0  0  0  0  0  0  0  0  0
    5.2980   70.0200   62.6021 H   0  0  0  0  0  0  0  0  0  0  0  0
    1.9068   68.5286   68.2982 H   0  0  0  0  0  0  0  0  0  0  0  0
    2.7743   70.0353   70.0752 H   0  0  0  0  0  0  0  0  0  0  0  0
    4.7448   71.4931   69.6017 H   0  0  0  0  0  0  0  0  0  0  0  0
    5.8420   71.3968   67.3776 H   0  0  0  0  0  0  0  0  0  0  0  0
  3  2  2  0
  4  3  1  0
  4  1  1  0
  5  3  1  0
  6  5  1  0
  7  6  2  0
  8  7  1  0
  9  8  2  0
 10  8  1  0
 11 10  1  0
 12 11  2  0
 12  6  1  0
 13 12  1  0
 14 13  2  0
 15 14  1  0
 16 15  2  0
 16 11  1  0
 17 15  1  0
 18  1  1  0
 19 18  2  0
 20 18  1  0
 21 20  1  0
 22 21  1  0
 23 22  1  0
 24 23  1  0
 25 24  1  0
 26 25  1  0
 27 22  2  0
 27 26  1  0
 28 27  1  0
 29 28  2  0
 30 29  1  0
 30 21  2  0
 31 30  1  0
 32 31  2  0
 33 32  1  0
 34 33  2  0
 34 29  1  0
  1 35  1  0
  4 36  1  0
  5 37  1  0
  5 38  1  0
  7 39  1  0
 13 40  1  0
 14 41  1  0
 16 42  1  0
 17 43  1  0
 20 44  1  0
 23 45  1  0
 23 46  1  0
 24 47  1  0
 24 48  1  0
 25 49  1  0
 25 50  1  0
 26 51  1  0
 26 52  1  0
 31 53  1  0
 32 54  1  0
 33 55  1  0
 34 56  1  0
M  END
>  <score>  (9) 
-11.862

$$$$
