=
     RDKit          3D

 58 61  0  0  0  0  0  0  0  0999 V2000
    0.3520   58.7540   73.8310 C   0  0  0  0  0  0  0  0  0  0  0  0
    0.9810   59.7920   73.1710 O   0  0  0  0  0  0  0  0  0  0  0  0
    1.9370   59.5110   72.2260 C   0  0  0  0  0  0  0  0  0  0  0  0
    2.5290   60.5890   71.5430 C   0  0  0  0  0  0  0  0  0  0  0  0
    2.1470   61.9720   71.8030 C   0  0  0  0  0  0  0  0  0  0  0  0
    2.7570   62.9410   71.1150 C   0  0  0  0  0  0  0  0  0  0  0  0
    3.8220   62.6790   70.0770 C   0  0  0  0  0  0  0  0  0  0  0  0
    4.1550   61.2940   69.8600 O   0  0  0  0  0  0  0  0  0  0  0  0
    3.5130   60.3280   70.5820 C   0  0  0  0  0  0  0  0  0  0  0  0
    3.9040   59.0170   70.3070 C   0  0  0  0  0  0  0  0  0  0  0  0
    3.3120   57.9590   70.9870 C   0  0  0  0  0  0  0  0  0  0  0  0
    2.3250   58.2040   71.9470 C   0  0  0  0  0  0  0  0  0  0  0  0
    1.6810   57.1060   72.6790 C   0  0  0  0  0  0  0  0  0  0  0  0
    2.0410   55.9490   72.4740 O   0  0  0  0  0  0  0  0  0  0  0  0
    0.6050   57.4420   73.6460 C   0  0  0  0  0  0  0  0  0  0  0  0
    5.1220   63.3750   70.4990 C   0  0  0  0  0  0  0  0  0  0  0  0
    3.3580   63.2290   68.7240 C   0  0  0  0  0  0  0  0  0  0  0  0
   -2.5790   60.1710   76.5880 C   0  0  0  0  0  0  0  0  0  0  0  0
   -2.9600   59.7900   75.3060 C   0  0  0  0  0  0  0  0  0  0  0  0
   -1.9980   59.3260   74.4070 C   0  0  0  0  0  0  0  0  0  0  0  0
   -0.6510   59.2500   74.7890 C   0  0  0  0  0  0  0  0  0  0  0  0
   -0.2930   59.6290   76.0920 C   0  0  0  0  0  0  0  0  0  0  0  0
   -1.2510   60.0930   76.9950 C   0  0  0  0  0  0  0  0  0  0  0  0
   -3.5570   60.6170   77.4280 O   0  0  0  0  0  0  0  0  0  0  0  0
    1.0200   59.5490   76.4700 O   0  0  0  0  0  0  0  0  0  0  0  0
    3.7470   56.7010   70.6650 O   0  0  0  0  0  0  0  0  0  0  0  0
   -0.0480   56.2910   74.3720 C   0  0  0  0  0  0  0  0  0  0  0  0
    0.7040   55.7020   75.5750 C   0  0  0  0  0  0  0  0  0  0  0  0
    1.2980   54.2820   75.4630 C   0  0  0  0  0  0  0  0  0  0  0  0
    0.6150   53.4350   74.3900 C   0  0  0  0  0  0  0  0  0  0  0  0
    1.3430   53.5330   76.7930 C   0  0  0  0  0  0  0  0  0  0  0  0
    2.6740   54.4480   75.0680 O   0  0  0  0  0  0  0  0  0  0  0  0
    1.3744   62.2118   72.5484 H   0  0  0  0  0  0  0  0  0  0  0  0
    2.4687   63.9835   71.3149 H   0  0  0  0  0  0  0  0  0  0  0  0
    4.6802   58.8209   69.5526 H   0  0  0  0  0  0  0  0  0  0  0  0
    5.1812   63.4067   71.5969 H   0  0  0  0  0  0  0  0  0  0  0  0
    5.9825   62.8169   70.1014 H   0  0  0  0  0  0  0  0  0  0  0  0
    5.1346   64.4005   70.1014 H   0  0  0  0  0  0  0  0  0  0  0  0
    2.6566   64.0605   68.8873 H   0  0  0  0  0  0  0  0  0  0  0  0
    4.2287   63.5898   68.1568 H   0  0  0  0  0  0  0  0  0  0  0  0
    2.8557   62.4315   68.1568 H   0  0  0  0  0  0  0  0  0  0  0  0
   -4.0151   59.8540   75.0015 H   0  0  0  0  0  0  0  0  0  0  0  0
   -2.2981   59.0186   73.3943 H   0  0  0  0  0  0  0  0  0  0  0  0
   -0.9603   60.3924   78.0128 H   0  0  0  0  0  0  0  0  0  0  0  0
   -3.3281   60.8980   78.3493 H   0  0  0  0  0  0  0  0  0  0  0  0
    1.2884   59.8127   77.3857 H   0  0  0  0  0  0  0  0  0  0  0  0
    3.3588   55.9116   71.1192 H   0  0  0  0  0  0  0  0  0  0  0  0
   -1.0270   56.6399   74.7323 H   0  0  0  0  0  0  0  0  0  0  0  0
   -0.0857   55.4757   73.6346 H   0  0  0  0  0  0  0  0  0  0  0  0
    1.5378   56.3836   75.7992 H   0  0  0  0  0  0  0  0  0  0  0  0
   -0.0716   55.6036   76.3488 H   0  0  0  0  0  0  0  0  0  0  0  0
   -0.0060   52.6649   74.8710 H   0  0  0  0  0  0  0  0  0  0  0  0
   -0.0195   54.0790   73.7633 H   0  0  0  0  0  0  0  0  0  0  0  0
    1.3788   52.9514   73.7633 H   0  0  0  0  0  0  0  0  0  0  0  0
    1.2996   54.2548   77.6219 H   0  0  0  0  0  0  0  0  0  0  0  0
    0.4844   52.8485   76.8576 H   0  0  0  0  0  0  0  0  0  0  0  0
    2.2774   52.9562   76.8576 H   0  0  0  0  0  0  0  0  0  0  0  0
    3.2431   54.5167   75.8752 H   0  0  0  0  0  0  0  0  0  0  0  0
  2  1  1  0
  3  2  1  0
  4  3  2  0
  5  4  1  0
  6  5  2  0
  7  6  1  0
  8  7  1  0
  9  8  1  0
  9  4  1  0
 10  9  2  0
 11 10  1  0
 12 11  2  0
 12  3  1  0
 13 12  1  0
 14 13  2  0
 15 13  1  0
 15  1  2  0
 16  7  1  0
 17  7  1  0
 19 18  2  0
 20 19  1  0
 21 20  2  0
 21  1  1  0
 22 21  1  0
 23 22  2  0
 23 18  1  0
 24 18  1  0
 25 22  1  0
 26 11  1  0
 27 15  1  0
 28 27  1  0
 29 28  1  0
 30 29  1  0
 31 29  1  0
 32 29  1  0
  5 33  1  0
  6 34  1  0
 10 35  1  0
 16 36  1  0
 16 37  1  0
 16 38  1  0
 17 39  1  0
 17 40  1  0
 17 41  1  0
 19 42  1  0
 20 43  1  0
 23 44  1  0
 24 45  1  0
 25 46  1  0
 26 47  1  0
 27 48  1  0
 27 49  1  0
 28 50  1  0
 28 51  1  0
 30 52  1  0
 30 53  1  0
 30 54  1  0
 31 55  1  0
 31 56  1  0
 31 57  1  0
 32 58  1  0
M  END
>  <score>  (1) 
-8.601

$$$$
=
     RDKit          3D

 58 61  0  0  0  0  0  0  0  0999 V2000
    0.1690   61.5870   72.7280 C   0  0  0  0  0  0  0  0  0  0  0  0
   -1.0900   61.3110   73.2280 O   0  0  0  0  0  0  0  0  0  0  0  0
   -1.3230   60.1060   73.8420 C   0  0  0  0  0  0  0  0  0  0  0  0
   -2.6040   59.8730   74.3760 C   0  0  0  0  0  0  0  0  0  0  0  0
   -3.6650   60.8710   74.3030 C   0  0  0  0  0  0  0  0  0  0  0  0
   -4.8550   60.5740   74.8320 C   0  0  0  0  0  0  0  0  0  0  0  0
   -5.1610   59.2580   75.5040 C   0  0  0  0  0  0  0  0  0  0  0  0
   -4.0730   58.3130   75.5500 O   0  0  0  0  0  0  0  0  0  0  0  0
   -2.8690   58.6480   74.9990 C   0  0  0  0  0  0  0  0  0  0  0  0
   -1.8780   57.6690   75.0880 C   0  0  0  0  0  0  0  0  0  0  0  0
   -0.6160   57.9100   74.5580 C   0  0  0  0  0  0  0  0  0  0  0  0
   -0.3350   59.1300   73.9350 C   0  0  0  0  0  0  0  0  0  0  0  0
    0.9900   59.4130   73.3680 C   0  0  0  0  0  0  0  0  0  0  0  0
    1.8610   58.5470   73.4060 O   0  0  0  0  0  0  0  0  0  0  0  0
    1.2270   60.7520   72.7700 C   0  0  0  0  0  0  0  0  0  0  0  0
   -6.3060   58.5620   74.7600 C   0  0  0  0  0  0  0  0  0  0  0  0
   -5.5710   59.5140   76.9580 C   0  0  0  0  0  0  0  0  0  0  0  0
    0.3390   65.4600   70.9470 C   0  0  0  0  0  0  0  0  0  0  0  0
    0.5080   64.3260   70.1590 C   0  0  0  0  0  0  0  0  0  0  0  0
    0.4510   63.0600   70.7450 C   0  0  0  0  0  0  0  0  0  0  0  0
    0.2310   62.9290   72.1240 C   0  0  0  0  0  0  0  0  0  0  0  0
    0.0530   64.0870   72.8970 C   0  0  0  0  0  0  0  0  0  0  0  0
    0.1080   65.3550   72.3150 C   0  0  0  0  0  0  0  0  0  0  0  0
    0.4040   66.6730   70.3260 O   0  0  0  0  0  0  0  0  0  0  0  0
   -0.1690   63.9610   74.2410 O   0  0  0  0  0  0  0  0  0  0  0  0
    0.3050   56.9040   74.6810 O   0  0  0  0  0  0  0  0  0  0  0  0
    2.6040   61.0170   72.2090 C   0  0  0  0  0  0  0  0  0  0  0  0
    2.8850   60.5340   70.7790 C   0  0  0  0  0  0  0  0  0  0  0  0
    4.1120   61.0930   70.0290 C   0  0  0  0  0  0  0  0  0  0  0  0
    5.2770   61.4260   70.9610 C   0  0  0  0  0  0  0  0  0  0  0  0
    3.7850   62.2830   69.1280 C   0  0  0  0  0  0  0  0  0  0  0  0
    4.5570   60.0490   69.1410 O   0  0  0  0  0  0  0  0  0  0  0  0
   -3.4894   61.8453   73.8236 H   0  0  0  0  0  0  0  0  0  0  0  0
   -5.6537   61.3282   74.7748 H   0  0  0  0  0  0  0  0  0  0  0  0
   -2.0956   56.7080   75.5770 H   0  0  0  0  0  0  0  0  0  0  0  0
   -7.0101   58.1340   75.4887 H   0  0  0  0  0  0  0  0  0  0  0  0
   -6.8314   59.2937   74.1287 H   0  0  0  0  0  0  0  0  0  0  0  0
   -5.8983   57.7588   74.1287 H   0  0  0  0  0  0  0  0  0  0  0  0
   -4.8343   59.0540   77.6331 H   0  0  0  0  0  0  0  0  0  0  0  0
   -5.6108   60.5977   77.1424 H   0  0  0  0  0  0  0  0  0  0  0  0
   -6.5622   59.0740   77.1424 H   0  0  0  0  0  0  0  0  0  0  0  0
    0.6859   64.4264   69.0781 H   0  0  0  0  0  0  0  0  0  0  0  0
    0.5791   62.1620   70.1228 H   0  0  0  0  0  0  0  0  0  0  0  0
   -0.0292   66.2574   72.9288 H   0  0  0  0  0  0  0  0  0  0  0  0
    0.2890   67.5046   70.8508 H   0  0  0  0  0  0  0  0  0  0  0  0
   -0.2964   64.7684   74.7995 H   0  0  0  0  0  0  0  0  0  0  0  0
    1.2194   57.0233   74.3208 H   0  0  0  0  0  0  0  0  0  0  0  0
    2.7652   62.1049   72.2283 H   0  0  0  0  0  0  0  0  0  0  0  0
    3.2858   60.4326   72.8443 H   0  0  0  0  0  0  0  0  0  0  0  0
    3.0056   59.4416   70.8254 H   0  0  0  0  0  0  0  0  0  0  0  0
    2.0281   60.9093   70.2003 H   0  0  0  0  0  0  0  0  0  0  0  0
    4.9485   61.3321   72.0066 H   0  0  0  0  0  0  0  0  0  0  0  0
    6.1073   60.7292   70.7735 H   0  0  0  0  0  0  0  0  0  0  0  0
    5.6136   62.4563   70.7735 H   0  0  0  0  0  0  0  0  0  0  0  0
    3.5445   63.1582   69.7494 H   0  0  0  0  0  0  0  0  0  0  0  0
    4.6536   62.5117   68.4930 H   0  0  0  0  0  0  0  0  0  0  0  0
    2.9215   62.0357   68.4930 H   0  0  0  0  0  0  0  0  0  0  0  0
    4.8844   59.2808   69.6727 H   0  0  0  0  0  0  0  0  0  0  0  0
  2  1  1  0
  3  2  1  0
  4  3  2  0
  5  4  1  0
  6  5  2  0
  7  6  1  0
  8  7  1  0
  9  8  1  0
  9  4  1  0
 10  9  2  0
 11 10  1  0
 12 11  2  0
 12  3  1  0
 13 12  1  0
 14 13  2  0
 15 13  1  0
 15  1  2  0
 16  7  1  0
 17  7  1  0
 19 18  2  0
 20 19  1  0
 21 20  2  0
 21  1  1  0
 22 21  1  0
 23 22  2  0
 23 18  1  0
 24 18  1  0
 25 22  1  0
 26 11  1  0
 27 15  1  0
 28 27  1  0
 29 28  1  0
 30 29  1  0
 31 29  1  0
 32 29  1  0
  5 33  1  0
  6 34  1  0
 10 35  1  0
 16 36  1  0
 16 37  1  0
 16 38  1  0
 17 39  1  0
 17 40  1  0
 17 41  1  0
 19 42  1  0
 20 43  1  0
 23 44  1  0
 24 45  1  0
 25 46  1  0
 26 47  1  0
 27 48  1  0
 27 49  1  0
 28 50  1  0
 28 51  1  0
 30 52  1  0
 30 53  1  0
 30 54  1  0
 31 55  1  0
 31 56  1  0
 31 57  1  0
 32 58  1  0
M  END
>  <score>  (2) 
-8.301

$$$$
=
     RDKit          3D

 58 61  0  0  0  0  0  0  0  0999 V2000
    0.4390   58.5520   73.8580 C   0  0  0  0  0  0  0  0  0  0  0  0
    1.2660   59.1480   72.9260 O   0  0  0  0  0  0  0  0  0  0  0  0
    1.2060   60.5070   72.7400 C   0  0  0  0  0  0  0  0  0  0  0  0
    2.0900   61.0880   71.8130 C   0  0  0  0  0  0  0  0  0  0  0  0
    3.0610   60.2940   71.0690 C   0  0  0  0  0  0  0  0  0  0  0  0
    3.8640   60.9190   70.2050 C   0  0  0  0  0  0  0  0  0  0  0  0
    3.8230   62.4070   69.9580 C   0  0  0  0  0  0  0  0  0  0  0  0
    2.8470   63.1400   70.7250 O   0  0  0  0  0  0  0  0  0  0  0  0
    2.0400   62.4700   71.5990 C   0  0  0  0  0  0  0  0  0  0  0  0
    1.1240   63.2620   72.2940 C   0  0  0  0  0  0  0  0  0  0  0  0
    0.2550   62.6780   73.2080 C   0  0  0  0  0  0  0  0  0  0  0  0
    0.2950   61.2980   73.4350 C   0  0  0  0  0  0  0  0  0  0  0  0
   -0.6090   60.6550   74.3960 C   0  0  0  0  0  0  0  0  0  0  0  0
   -1.4450   61.3330   74.9880 O   0  0  0  0  0  0  0  0  0  0  0  0
   -0.4700   59.1930   74.6210 C   0  0  0  0  0  0  0  0  0  0  0  0
    3.4980   62.6680   68.4820 C   0  0  0  0  0  0  0  0  0  0  0  0
    5.1870   63.0160   70.3000 C   0  0  0  0  0  0  0  0  0  0  0  0
    1.0540   54.3340   74.0390 C   0  0  0  0  0  0  0  0  0  0  0  0
   -0.1860   54.8380   73.6620 C   0  0  0  0  0  0  0  0  0  0  0  0
   -0.3840   56.2190   73.6030 C   0  0  0  0  0  0  0  0  0  0  0  0
    0.6600   57.0970   73.9290 C   0  0  0  0  0  0  0  0  0  0  0  0
    1.9060   56.5640   74.2960 C   0  0  0  0  0  0  0  0  0  0  0  0
    2.1080   55.1840   74.3560 C   0  0  0  0  0  0  0  0  0  0  0  0
    1.1940   52.9770   74.0800 O   0  0  0  0  0  0  0  0  0  0  0  0
    2.9280   57.4190   74.6080 O   0  0  0  0  0  0  0  0  0  0  0  0
   -0.6160   63.5170   73.8500 O   0  0  0  0  0  0  0  0  0  0  0  0
   -1.4040   58.5630   75.6260 C   0  0  0  0  0  0  0  0  0  0  0  0
   -2.8360   58.2590   75.1610 C   0  0  0  0  0  0  0  0  0  0  0  0
   -4.0050   59.0640   75.7670 C   0  0  0  0  0  0  0  0  0  0  0  0
   -5.0040   58.1850   76.5190 C   0  0  0  0  0  0  0  0  0  0  0  0
   -4.7250   59.9510   74.7530 C   0  0  0  0  0  0  0  0  0  0  0  0
   -3.4230   59.9690   76.7250 O   0  0  0  0  0  0  0  0  0  0  0  0
    3.1300   59.2061   71.2163 H   0  0  0  0  0  0  0  0  0  0  0  0
    4.5941   60.3176   69.6435 H   0  0  0  0  0  0  0  0  0  0  0  0
    1.0901   64.3473   72.1183 H   0  0  0  0  0  0  0  0  0  0  0  0
    2.6421   63.3553   68.4110 H   0  0  0  0  0  0  0  0  0  0  0  0
    4.3718   63.1182   67.9882 H   0  0  0  0  0  0  0  0  0  0  0  0
    3.2470   61.7176   67.9882 H   0  0  0  0  0  0  0  0  0  0  0  0
    5.3020   63.0674   71.3928 H   0  0  0  0  0  0  0  0  0  0  0  0
    5.9852   62.3888   69.8764 H   0  0  0  0  0  0  0  0  0  0  0  0
    5.2529   64.0290   69.8764 H   0  0  0  0  0  0  0  0  0  0  0  0
   -1.0079   54.1513   73.4112 H   0  0  0  0  0  0  0  0  0  0  0  0
   -1.3625   56.6198   73.2997 H   0  0  0  0  0  0  0  0  0  0  0  0
    3.0861   54.7751   74.6496 H   0  0  0  0  0  0  0  0  0  0  0  0
    2.0602   52.5765   74.3433 H   0  0  0  0  0  0  0  0  0  0  0  0
    3.8126   57.0588   74.8687 H   0  0  0  0  0  0  0  0  0  0  0  0
   -1.2569   63.1535   74.5112 H   0  0  0  0  0  0  0  0  0  0  0  0
   -0.9520   57.6130   75.9473 H   0  0  0  0  0  0  0  0  0  0  0  0
   -1.5179   59.3176   76.4182 H   0  0  0  0  0  0  0  0  0  0  0  0
   -2.8630   58.4203   74.0732 H   0  0  0  0  0  0  0  0  0  0  0  0
   -3.0144   57.2310   75.5094 H   0  0  0  0  0  0  0  0  0  0  0  0
   -4.8606   58.3112   77.6023 H   0  0  0  0  0  0  0  0  0  0  0  0
   -6.0285   58.4799   76.2480 H   0  0  0  0  0  0  0  0  0  0  0  0
   -4.8419   57.1313   76.2480 H   0  0  0  0  0  0  0  0  0  0  0  0
   -5.3317   60.6984   75.2852 H   0  0  0  0  0  0  0  0  0  0  0  0
   -3.9836   60.4627   74.1218 H   0  0  0  0  0  0  0  0  0  0  0  0
   -5.3782   59.3306   74.1218 H   0  0  0  0  0  0  0  0  0  0  0  0
   -3.6254   59.6543   77.6416 H   0  0  0  0  0  0  0  0  0  0  0  0
  2  1  1  0
  3  2  1  0
  4  3  2  0
  5  4  1  0
  6  5  2  0
  7  6  1  0
  8  7  1  0
  9  8  1  0
  9  4  1  0
 10  9  2  0
 11 10  1  0
 12 11  2  0
 12  3  1  0
 13 12  1  0
 14 13  2  0
 15 13  1  0
 15  1  2  0
 16  7  1  0
 17  7  1  0
 19 18  2  0
 20 19  1  0
 21 20  2  0
 21  1  1  0
 22 21  1  0
 23 22  2  0
 23 18  1  0
 24 18  1  0
 25 22  1  0
 26 11  1  0
 27 15  1  0
 28 27  1  0
 29 28  1  0
 30 29  1  0
 31 29  1  0
 32 29  1  0
  5 33  1  0
  6 34  1  0
 10 35  1  0
 16 36  1  0
 16 37  1  0
 16 38  1  0
 17 39  1  0
 17 40  1  0
 17 41  1  0
 19 42  1  0
 20 43  1  0
 23 44  1  0
 24 45  1  0
 25 46  1  0
 26 47  1  0
 27 48  1  0
 27 49  1  0
 28 50  1  0
 28 51  1  0
 30 52  1  0
 30 53  1  0
 30 54  1  0
 31 55  1  0
 31 56  1  0
 31 57  1  0
 32 58  1  0
M  END
>  <score>  (3) 
-8.297

$$$$
=
     RDKit          3D

 58 61  0  0  0  0  0  0  0  0999 V2000
    0.6030   58.8030   74.1850 C   0  0  0  0  0  0  0  0  0  0  0  0
    1.1850   59.8390   73.4800 O   0  0  0  0  0  0  0  0  0  0  0  0
    2.0410   59.5550   72.4450 C   0  0  0  0  0  0  0  0  0  0  0  0
    2.5850   60.6310   71.7210 C   0  0  0  0  0  0  0  0  0  0  0  0
    2.2540   62.0170   72.0320 C   0  0  0  0  0  0  0  0  0  0  0  0
    2.8130   62.9840   71.3010 C   0  0  0  0  0  0  0  0  0  0  0  0
    3.7700   62.7190   70.1640 C   0  0  0  0  0  0  0  0  0  0  0  0
    4.0560   61.3310   69.9000 O   0  0  0  0  0  0  0  0  0  0  0  0
    3.4680   60.3670   70.6680 C   0  0  0  0  0  0  0  0  0  0  0  0
    3.8070   59.0530   70.3410 C   0  0  0  0  0  0  0  0  0  0  0  0
    3.2640   57.9960   71.0620 C   0  0  0  0  0  0  0  0  0  0  0  0
    2.3780   58.2450   72.1150 C   0  0  0  0  0  0  0  0  0  0  0  0
    1.7870   57.1480   72.8920 C   0  0  0  0  0  0  0  0  0  0  0  0
    2.1040   55.9880   72.6400 O   0  0  0  0  0  0  0  0  0  0  0  0
    0.8130   57.4900   73.9610 C   0  0  0  0  0  0  0  0  0  0  0  0
    5.1160   63.3870   70.4680 C   0  0  0  0  0  0  0  0  0  0  0  0
    3.1890   63.2940   68.8670 C   0  0  0  0  0  0  0  0  0  0  0  0
   -1.9720   60.2480   77.2640 C   0  0  0  0  0  0  0  0  0  0  0  0
   -0.8420   59.5080   77.5960 C   0  0  0  0  0  0  0  0  0  0  0  0
   -0.0010   59.0370   76.5850 C   0  0  0  0  0  0  0  0  0  0  0  0
   -0.2960   59.3020   75.2400 C   0  0  0  0  0  0  0  0  0  0  0  0
   -1.4360   60.0600   74.9310 C   0  0  0  0  0  0  0  0  0  0  0  0
   -2.2800   60.5330   75.9380 C   0  0  0  0  0  0  0  0  0  0  0  0
   -2.7600   60.6840   78.2890 O   0  0  0  0  0  0  0  0  0  0  0  0
   -1.7220   60.3250   73.6190 O   0  0  0  0  0  0  0  0  0  0  0  0
    3.6430   56.7360   70.6850 O   0  0  0  0  0  0  0  0  0  0  0  0
    0.2120   56.3390   74.7320 C   0  0  0  0  0  0  0  0  0  0  0  0
   -1.2340   55.9460   74.3950 C   0  0  0  0  0  0  0  0  0  0  0  0
   -2.2380   55.7280   75.5470 C   0  0  0  0  0  0  0  0  0  0  0  0
   -3.1910   56.9070   75.7350 C   0  0  0  0  0  0  0  0  0  0  0  0
   -1.5740   55.3550   76.8710 C   0  0  0  0  0  0  0  0  0  0  0  0
   -3.0350   54.5860   75.1810 O   0  0  0  0  0  0  0  0  0  0  0  0
    1.5598   62.2598   72.8500 H   0  0  0  0  0  0  0  0  0  0  0  0
    2.5633   64.0284   71.5396 H   0  0  0  0  0  0  0  0  0  0  0  0
    4.5035   58.8541   69.5132 H   0  0  0  0  0  0  0  0  0  0  0  0
    5.2537   63.4553   71.5572 H   0  0  0  0  0  0  0  0  0  0  0  0
    5.9293   62.7880   70.0325 H   0  0  0  0  0  0  0  0  0  0  0  0
    5.1308   64.3970   70.0325 H   0  0  0  0  0  0  0  0  0  0  0  0
    2.4264   64.0487   69.1098 H   0  0  0  0  0  0  0  0  0  0  0  0
    3.9936   63.7613   68.2803 H   0  0  0  0  0  0  0  0  0  0  0  0
    2.7301   62.4846   68.2803 H   0  0  0  0  0  0  0  0  0  0  0  0
   -0.6116   59.2946   78.6502 H   0  0  0  0  0  0  0  0  0  0  0  0
    0.8961   58.4560   76.8450 H   0  0  0  0  0  0  0  0  0  0  0  0
   -3.1744   61.1218   75.6864 H   0  0  0  0  0  0  0  0  0  0  0  0
   -3.5738   61.2140   78.0968 H   0  0  0  0  0  0  0  0  0  0  0  0
   -2.5225   60.8583   73.3848 H   0  0  0  0  0  0  0  0  0  0  0  0
    3.2859   55.9472   71.1651 H   0  0  0  0  0  0  0  0  0  0  0  0
    0.8443   55.4565   74.5551 H   0  0  0  0  0  0  0  0  0  0  0  0
    0.1753   56.6857   75.7753 H   0  0  0  0  0  0  0  0  0  0  0  0
   -1.6440   56.7423   73.7565 H   0  0  0  0  0  0  0  0  0  0  0  0
   -1.1370   54.9503   73.9376 H   0  0  0  0  0  0  0  0  0  0  0  0
   -3.3395   57.0907   76.8093 H   0  0  0  0  0  0  0  0  0  0  0  0
   -2.7614   57.8042   75.2655 H   0  0  0  0  0  0  0  0  0  0  0  0
   -4.1584   56.6750   75.2655 H   0  0  0  0  0  0  0  0  0  0  0  0
   -2.1984   55.7057   77.7059 H   0  0  0  0  0  0  0  0  0  0  0  0
   -1.4626   54.2623   76.9303 H   0  0  0  0  0  0  0  0  0  0  0  0
   -0.5828   55.8284   76.9303 H   0  0  0  0  0  0  0  0  0  0  0  0
   -3.3534   54.1297   75.9998 H   0  0  0  0  0  0  0  0  0  0  0  0
  2  1  1  0
  3  2  1  0
  4  3  2  0
  5  4  1  0
  6  5  2  0
  7  6  1  0
  8  7  1  0
  9  8  1  0
  9  4  1  0
 10  9  2  0
 11 10  1  0
 12 11  2  0
 12  3  1  0
 13 12  1  0
 14 13  2  0
 15 13  1  0
 15  1  2  0
 16  7  1  0
 17  7  1  0
 19 18  2  0
 20 19  1  0
 21 20  2  0
 21  1  1  0
 22 21  1  0
 23 22  2  0
 23 18  1  0
 24 18  1  0
 25 22  1  0
 26 11  1  0
 27 15  1  0
 28 27  1  0
 29 28  1  0
 30 29  1  0
 31 29  1  0
 32 29  1  0
  5 33  1  0
  6 34  1  0
 10 35  1  0
 16 36  1  0
 16 37  1  0
 16 38  1  0
 17 39  1  0
 17 40  1  0
 17 41  1  0
 19 42  1  0
 20 43  1  0
 23 44  1  0
 24 45  1  0
 25 46  1  0
 26 47  1  0
 27 48  1  0
 27 49  1  0
 28 50  1  0
 28 51  1  0
 30 52  1  0
 30 53  1  0
 30 54  1  0
 31 55  1  0
 31 56  1  0
 31 57  1  0
 32 58  1  0
M  END
>  <score>  (4) 
-8.182

$$$$
=
     RDKit          3D

 58 61  0  0  0  0  0  0  0  0999 V2000
   -0.2020   59.8510   73.7790 C   0  0  0  0  0  0  0  0  0  0  0  0
    0.5790   60.7020   73.0200 O   0  0  0  0  0  0  0  0  0  0  0  0
    1.6080   60.1880   72.2710 C   0  0  0  0  0  0  0  0  0  0  0  0
    2.3580   61.0760   71.4790 C   0  0  0  0  0  0  0  0  0  0  0  0
    2.0620   62.5030   71.4260 C   0  0  0  0  0  0  0  0  0  0  0  0
    2.8210   63.2820   70.6520 C   0  0  0  0  0  0  0  0  0  0  0  0
    3.9710   62.7620   69.8230 C   0  0  0  0  0  0  0  0  0  0  0  0
    4.2130   61.3440   69.9110 O   0  0  0  0  0  0  0  0  0  0  0  0
    3.4180   60.5770   70.7140 C   0  0  0  0  0  0  0  0  0  0  0  0
    3.7300   59.2160   70.7390 C   0  0  0  0  0  0  0  0  0  0  0  0
    2.9830   58.3470   71.5250 C   0  0  0  0  0  0  0  0  0  0  0  0
    1.9180   58.8310   72.2920 C   0  0  0  0  0  0  0  0  0  0  0  0
    1.1100   57.9350   73.1290 C   0  0  0  0  0  0  0  0  0  0  0  0
    1.3960   56.7420   73.1900 O   0  0  0  0  0  0  0  0  0  0  0  0
   -0.0370   58.5150   73.8740 C   0  0  0  0  0  0  0  0  0  0  0  0
    5.2670   63.4510   70.2660 C   0  0  0  0  0  0  0  0  0  0  0  0
    3.7060   63.0640   68.3440 C   0  0  0  0  0  0  0  0  0  0  0  0
   -3.2980   61.9410   75.8380 C   0  0  0  0  0  0  0  0  0  0  0  0
   -3.5930   61.2310   74.6800 C   0  0  0  0  0  0  0  0  0  0  0  0
   -2.5770   60.5470   74.0090 C   0  0  0  0  0  0  0  0  0  0  0  0
   -1.2620   60.5800   74.4950 C   0  0  0  0  0  0  0  0  0  0  0  0
   -0.9910   61.2950   75.6720 C   0  0  0  0  0  0  0  0  0  0  0  0
   -2.0030   61.9800   76.3470 C   0  0  0  0  0  0  0  0  0  0  0  0
   -4.3260   62.5920   76.4560 O   0  0  0  0  0  0  0  0  0  0  0  0
    0.2900   61.3230   76.1520 O   0  0  0  0  0  0  0  0  0  0  0  0
    3.3480   57.0280   71.4990 O   0  0  0  0  0  0  0  0  0  0  0  0
   -0.8570   57.5670   74.7150 C   0  0  0  0  0  0  0  0  0  0  0  0
   -0.4200   57.3620   76.1730 C   0  0  0  0  0  0  0  0  0  0  0  0
    0.4110   56.1140   76.5360 C   0  0  0  0  0  0  0  0  0  0  0  0
   -0.1420   55.3640   77.7480 C   0  0  0  0  0  0  0  0  0  0  0  0
    1.8990   56.4030   76.7150 C   0  0  0  0  0  0  0  0  0  0  0  0
    0.3240   55.2250   75.4060 O   0  0  0  0  0  0  0  0  0  0  0  0
    1.2324   62.9277   72.0103 H   0  0  0  0  0  0  0  0  0  0  0  0
    2.5971   64.3584   70.6163 H   0  0  0  0  0  0  0  0  0  0  0  0
    4.5666   58.8321   70.1368 H   0  0  0  0  0  0  0  0  0  0  0  0
    5.3123   63.4751   71.3648 H   0  0  0  0  0  0  0  0  0  0  0  0
    6.1309   62.8931   69.8755 H   0  0  0  0  0  0  0  0  0  0  0  0
    5.2876   64.4792   69.8755 H   0  0  0  0  0  0  0  0  0  0  0  0
    2.9825   63.8885   68.2620 H   0  0  0  0  0  0  0  0  0  0  0  0
    4.6477   63.3525   67.8542 H   0  0  0  0  0  0  0  0  0  0  0  0
    3.2976   62.1677   67.8542 H   0  0  0  0  0  0  0  0  0  0  0  0
   -4.6227   61.2080   74.2936 H   0  0  0  0  0  0  0  0  0  0  0  0
   -2.8092   59.9800   73.0954 H   0  0  0  0  0  0  0  0  0  0  0  0
   -1.7806   62.5415   77.2663 H   0  0  0  0  0  0  0  0  0  0  0  0
   -4.1583   63.1092   77.2834 H   0  0  0  0  0  0  0  0  0  0  0  0
    0.4972   61.8229   76.9810 H   0  0  0  0  0  0  0  0  0  0  0  0
    2.8496   56.3657   72.0404 H   0  0  0  0  0  0  0  0  0  0  0  0
   -1.8893   57.9466   74.7296 H   0  0  0  0  0  0  0  0  0  0  0  0
   -0.7273   56.5833   74.2400 H   0  0  0  0  0  0  0  0  0  0  0  0
    0.1773   58.2409   76.4571 H   0  0  0  0  0  0  0  0  0  0  0  0
   -1.3664   57.2154   76.7141 H   0  0  0  0  0  0  0  0  0  0  0  0
    0.2133   55.8459   78.6708 H   0  0  0  0  0  0  0  0  0  0  0  0
   -1.2415   55.3863   77.7226 H   0  0  0  0  0  0  0  0  0  0  0  0
    0.2043   54.3202   77.7226 H   0  0  0  0  0  0  0  0  0  0  0  0
    2.1371   56.4492   77.7879 H   0  0  0  0  0  0  0  0  0  0  0  0
    2.4874   55.6024   76.2430 H   0  0  0  0  0  0  0  0  0  0  0  0
    2.1449   57.3657   76.2430 H   0  0  0  0  0  0  0  0  0  0  0  0
    0.2328   54.2926   75.7259 H   0  0  0  0  0  0  0  0  0  0  0  0
  2  1  1  0
  3  2  1  0
  4  3  2  0
  5  4  1  0
  6  5  2  0
  7  6  1  0
  8  7  1  0
  9  8  1  0
  9  4  1  0
 10  9  2  0
 11 10  1  0
 12 11  2  0
 12  3  1  0
 13 12  1  0
 14 13  2  0
 15 13  1  0
 15  1  2  0
 16  7  1  0
 17  7  1  0
 19 18  2  0
 20 19  1  0
 21 20  2  0
 21  1  1  0
 22 21  1  0
 23 22  2  0
 23 18  1  0
 24 18  1  0
 25 22  1  0
 26 11  1  0
 27 15  1  0
 28 27  1  0
 29 28  1  0
 30 29  1  0
 31 29  1  0
 32 29  1  0
  5 33  1  0
  6 34  1  0
 10 35  1  0
 16 36  1  0
 16 37  1  0
 16 38  1  0
 17 39  1  0
 17 40  1  0
 17 41  1  0
 19 42  1  0
 20 43  1  0
 23 44  1  0
 24 45  1  0
 25 46  1  0
 26 47  1  0
 27 48  1  0
 27 49  1  0
 28 50  1  0
 28 51  1  0
 30 52  1  0
 30 53  1  0
 30 54  1  0
 31 55  1  0
 31 56  1  0
 31 57  1  0
 32 58  1  0
M  END
>  <score>  (5) 
-8.16

$$$$
=
     RDKit          3D

 58 61  0  0  0  0  0  0  0  0999 V2000
    1.3740   59.3060   73.2560 C   0  0  0  0  0  0  0  0  0  0  0  0
    0.8590   58.6690   74.3690 O   0  0  0  0  0  0  0  0  0  0  0  0
    1.1060   57.3320   74.5560 C   0  0  0  0  0  0  0  0  0  0  0  0
    0.6020   56.7220   75.7190 C   0  0  0  0  0  0  0  0  0  0  0  0
   -0.1520   57.4690   76.7180 C   0  0  0  0  0  0  0  0  0  0  0  0
   -0.6000   56.8190   77.7950 C   0  0  0  0  0  0  0  0  0  0  0  0
   -0.3640   55.3470   78.0350 C   0  0  0  0  0  0  0  0  0  0  0  0
    0.3900   54.6610   77.0160 O   0  0  0  0  0  0  0  0  0  0  0  0
    0.8320   55.3570   75.9270 C   0  0  0  0  0  0  0  0  0  0  0  0
    1.5510   54.6090   74.9920 C   0  0  0  0  0  0  0  0  0  0  0  0
    2.0450   55.2220   73.8460 C   0  0  0  0  0  0  0  0  0  0  0  0
    1.8260   56.5850   73.6270 C   0  0  0  0  0  0  0  0  0  0  0  0
    2.3380   57.2590   72.4260 C   0  0  0  0  0  0  0  0  0  0  0  0
    2.9400   56.6070   71.5770 O   0  0  0  0  0  0  0  0  0  0  0  0
    2.1100   58.7200   72.2900 C   0  0  0  0  0  0  0  0  0  0  0  0
   -1.7150   54.6260   78.1310 C   0  0  0  0  0  0  0  0  0  0  0  0
    0.4120   55.1640   79.3440 C   0  0  0  0  0  0  0  0  0  0  0  0
    0.3160   63.4390   73.1970 C   0  0  0  0  0  0  0  0  0  0  0  0
   -0.4570   62.5150   72.5030 C   0  0  0  0  0  0  0  0  0  0  0  0
   -0.1090   61.1630   72.5250 C   0  0  0  0  0  0  0  0  0  0  0  0
    1.0210   60.7360   73.2380 C   0  0  0  0  0  0  0  0  0  0  0  0
    1.7800   61.6860   73.9400 C   0  0  0  0  0  0  0  0  0  0  0  0
    1.4350   63.0380   73.9210 C   0  0  0  0  0  0  0  0  0  0  0  0
   -0.0680   64.7470   73.1430 O   0  0  0  0  0  0  0  0  0  0  0  0
    2.8790   61.2700   74.6420 O   0  0  0  0  0  0  0  0  0  0  0  0
    2.7390   54.4260   72.9750 O   0  0  0  0  0  0  0  0  0  0  0  0
    2.6620   59.3860   71.0520 C   0  0  0  0  0  0  0  0  0  0  0  0
    3.8060   60.3930   71.2460 C   0  0  0  0  0  0  0  0  0  0  0  0
    3.8530   61.6510   70.3550 C   0  0  0  0  0  0  0  0  0  0  0  0
    4.8790   62.6790   70.8330 C   0  0  0  0  0  0  0  0  0  0  0  0
    2.4890   62.3070   70.1530 C   0  0  0  0  0  0  0  0  0  0  0  0
    4.2660   61.2090   69.0480 O   0  0  0  0  0  0  0  0  0  0  0  0
   -0.3475   58.5436   76.5877 H   0  0  0  0  0  0  0  0  0  0  0  0
   -1.1704   57.3851   78.5461 H   0  0  0  0  0  0  0  0  0  0  0  0
    1.7262   53.5364   75.1620 H   0  0  0  0  0  0  0  0  0  0  0  0
   -1.9806   54.4843   79.1890 H   0  0  0  0  0  0  0  0  0  0  0  0
   -2.4893   55.2308   77.6364 H   0  0  0  0  0  0  0  0  0  0  0  0
   -1.6436   53.6461   77.6364 H   0  0  0  0  0  0  0  0  0  0  0  0
   -0.2644   55.3235   80.1966 H   0  0  0  0  0  0  0  0  0  0  0  0
    0.8225   54.1444   79.3874 H   0  0  0  0  0  0  0  0  0  0  0  0
    1.2348   55.8927   79.3874 H   0  0  0  0  0  0  0  0  0  0  0  0
   -1.3402   62.8481   71.9382 H   0  0  0  0  0  0  0  0  0  0  0  0
   -0.7232   60.4301   71.9813 H   0  0  0  0  0  0  0  0  0  0  0  0
    2.0384   63.7758   74.4700 H   0  0  0  0  0  0  0  0  0  0  0  0
    0.4552   65.4367   73.6233 H   0  0  0  0  0  0  0  0  0  0  0  0
    3.4248   61.9273   75.1422 H   0  0  0  0  0  0  0  0  0  0  0  0
    3.1128   54.8110   72.1430 H   0  0  0  0  0  0  0  0  0  0  0  0
    3.0298   58.5920   70.3854 H   0  0  0  0  0  0  0  0  0  0  0  0
    1.8263   59.9802   70.6538 H   0  0  0  0  0  0  0  0  0  0  0  0
    3.7581   60.7384   72.2893 H   0  0  0  0  0  0  0  0  0  0  0  0
    4.7054   59.8301   70.9558 H   0  0  0  0  0  0  0  0  0  0  0  0
    4.8960   62.6960   71.9327 H   0  0  0  0  0  0  0  0  0  0  0  0
    5.8753   62.4058   70.4551 H   0  0  0  0  0  0  0  0  0  0  0  0
    4.6039   63.6747   70.4551 H   0  0  0  0  0  0  0  0  0  0  0  0
    2.0378   62.5240   71.1325 H   0  0  0  0  0  0  0  0  0  0  0  0
    2.6126   63.2442   69.5905 H   0  0  0  0  0  0  0  0  0  0  0  0
    1.8340   61.6254   69.5905 H   0  0  0  0  0  0  0  0  0  0  0  0
    4.9389   60.4888   69.1406 H   0  0  0  0  0  0  0  0  0  0  0  0
  2  1  1  0
  3  2  1  0
  4  3  2  0
  5  4  1  0
  6  5  2  0
  7  6  1  0
  8  7  1  0
  9  8  1  0
  9  4  1  0
 10  9  2  0
 11 10  1  0
 12 11  2  0
 12  3  1  0
 13 12  1  0
 14 13  2  0
 15 13  1  0
 15  1  2  0
 16  7  1  0
 17  7  1  0
 19 18  2  0
 20 19  1  0
 21 20  2  0
 21  1  1  0
 22 21  1  0
 23 22  2  0
 23 18  1  0
 24 18  1  0
 25 22  1  0
 26 11  1  0
 27 15  1  0
 28 27  1  0
 29 28  1  0
 30 29  1  0
 31 29  1  0
 32 29  1  0
  5 33  1  0
  6 34  1  0
 10 35  1  0
 16 36  1  0
 16 37  1  0
 16 38  1  0
 17 39  1  0
 17 40  1  0
 17 41  1  0
 19 42  1  0
 20 43  1  0
 23 44  1  0
 24 45  1  0
 25 46  1  0
 26 47  1  0
 27 48  1  0
 27 49  1  0
 28 50  1  0
 28 51  1  0
 30 52  1  0
 30 53  1  0
 30 54  1  0
 31 55  1  0
 31 56  1  0
 31 57  1  0
 32 58  1  0
M  END
>  <score>  (6) 
-7.957

$$$$
=
     RDKit          3D

 58 61  0  0  0  0  0  0  0  0999 V2000
    1.5310   60.3330   73.2480 C   0  0  0  0  0  0  0  0  0  0  0  0
    1.2260   61.5890   72.7590 O   0  0  0  0  0  0  0  0  0  0  0  0
    1.8310   62.0310   71.6090 C   0  0  0  0  0  0  0  0  0  0  0  0
    1.4690   63.2970   71.1140 C   0  0  0  0  0  0  0  0  0  0  0  0
    0.4710   64.1290   71.7780 C   0  0  0  0  0  0  0  0  0  0  0  0
    0.1830   65.3200   71.2490 C   0  0  0  0  0  0  0  0  0  0  0  0
    0.8330   65.8520   69.9950 C   0  0  0  0  0  0  0  0  0  0  0  0
    1.8070   64.9850   69.3800 O   0  0  0  0  0  0  0  0  0  0  0  0
    2.0800   63.7740   69.9490 C   0  0  0  0  0  0  0  0  0  0  0  0
    3.0380   63.0050   69.2870 C   0  0  0  0  0  0  0  0  0  0  0  0
    3.3890   61.7550   69.7830 C   0  0  0  0  0  0  0  0  0  0  0  0
    2.7850   61.2640   70.9450 C   0  0  0  0  0  0  0  0  0  0  0  0
    3.1350   59.9460   71.4900 C   0  0  0  0  0  0  0  0  0  0  0  0
    4.0030   59.2740   70.9390 O   0  0  0  0  0  0  0  0  0  0  0  0
    2.4110   59.4720   72.6980 C   0  0  0  0  0  0  0  0  0  0  0  0
    1.5630   67.1610   70.3190 C   0  0  0  0  0  0  0  0  0  0  0  0
   -0.2440   66.1120   68.9350 C   0  0  0  0  0  0  0  0  0  0  0  0
   -0.6830   59.4240   76.7790 C   0  0  0  0  0  0  0  0  0  0  0  0
   -1.1450   58.9930   75.5410 C   0  0  0  0  0  0  0  0  0  0  0  0
   -0.4180   59.2910   74.3880 C   0  0  0  0  0  0  0  0  0  0  0  0
    0.7720   60.0290   74.4730 C   0  0  0  0  0  0  0  0  0  0  0  0
    1.2240   60.4450   75.7360 C   0  0  0  0  0  0  0  0  0  0  0  0
    0.5000   60.1480   76.8920 C   0  0  0  0  0  0  0  0  0  0  0  0
   -1.4310   59.1060   77.8750 O   0  0  0  0  0  0  0  0  0  0  0  0
    2.3880   61.1590   75.8220 O   0  0  0  0  0  0  0  0  0  0  0  0
    4.3370   61.0590   69.0810 O   0  0  0  0  0  0  0  0  0  0  0  0
    2.7830   58.1070   73.2260 C   0  0  0  0  0  0  0  0  0  0  0  0
    1.8410   56.9420   72.8870 C   0  0  0  0  0  0  0  0  0  0  0  0
    1.5430   55.8830   73.9690 C   0  0  0  0  0  0  0  0  0  0  0  0
    0.1200   55.3300   73.8820 C   0  0  0  0  0  0  0  0  0  0  0  0
    1.8500   56.3580   75.3880 C   0  0  0  0  0  0  0  0  0  0  0  0
    2.4450   54.7870   73.7250 O   0  0  0  0  0  0  0  0  0  0  0  0
   -0.0321   63.7828   72.6929 H   0  0  0  0  0  0  0  0  0  0  0  0
   -0.5673   65.9467   71.7533 H   0  0  0  0  0  0  0  0  0  0  0  0
    3.5152   63.3880   68.3729 H   0  0  0  0  0  0  0  0  0  0  0  0
    1.6308   67.2826   71.4102 H   0  0  0  0  0  0  0  0  0  0  0  0
    2.5753   67.1322   69.8896 H   0  0  0  0  0  0  0  0  0  0  0  0
    1.0065   68.0071   69.8896 H   0  0  0  0  0  0  0  0  0  0  0  0
   -1.1985   66.3424   69.4309 H   0  0  0  0  0  0  0  0  0  0  0  0
    0.0577   66.9631   68.3068 H   0  0  0  0  0  0  0  0  0  0  0  0
   -0.3639   65.2170   68.3068 H   0  0  0  0  0  0  0  0  0  0  0  0
   -2.0806   58.4189   75.4705 H   0  0  0  0  0  0  0  0  0  0  0  0
   -0.7795   58.9458   73.4081 H   0  0  0  0  0  0  0  0  0  0  0  0
    0.8591   60.4811   77.8769 H   0  0  0  0  0  0  0  0  0  0  0  0
   -1.1371   59.3940   78.7754 H   0  0  0  0  0  0  0  0  0  0  0  0
    2.7202   61.4596   76.7048 H   0  0  0  0  0  0  0  0  0  0  0  0
    4.6238   60.1634   69.3905 H   0  0  0  0  0  0  0  0  0  0  0  0
    3.7763   57.8567   72.8251 H   0  0  0  0  0  0  0  0  0  0  0  0
    2.7322   58.2031   74.3206 H   0  0  0  0  0  0  0  0  0  0  0  0
    0.8769   57.3821   72.5922 H   0  0  0  0  0  0  0  0  0  0  0  0
    2.3826   56.3815   72.1108 H   0  0  0  0  0  0  0  0  0  0  0  0
   -0.2762   55.1760   74.8966 H   0  0  0  0  0  0  0  0  0  0  0  0
   -0.5190   56.0452   73.3434 H   0  0  0  0  0  0  0  0  0  0  0  0
    0.1316   54.3709   73.3434 H   0  0  0  0  0  0  0  0  0  0  0  0
    1.4008   55.6629   76.1126 H   0  0  0  0  0  0  0  0  0  0  0  0
    2.9395   56.3890   75.5366 H   0  0  0  0  0  0  0  0  0  0  0  0
    1.4308   57.3641   75.5366 H   0  0  0  0  0  0  0  0  0  0  0  0
    2.7522   54.4138   74.5890 H   0  0  0  0  0  0  0  0  0  0  0  0
  2  1  1  0
  3  2  1  0
  4  3  2  0
  5  4  1  0
  6  5  2  0
  7  6  1  0
  8  7  1  0
  9  8  1  0
  9  4  1  0
 10  9  2  0
 11 10  1  0
 12 11  2  0
 12  3  1  0
 13 12  1  0
 14 13  2  0
 15 13  1  0
 15  1  2  0
 16  7  1  0
 17  7  1  0
 19 18  2  0
 20 19  1  0
 21 20  2  0
 21  1  1  0
 22 21  1  0
 23 22  2  0
 23 18  1  0
 24 18  1  0
 25 22  1  0
 26 11  1  0
 27 15  1  0
 28 27  1  0
 29 28  1  0
 30 29  1  0
 31 29  1  0
 32 29  1  0
  5 33  1  0
  6 34  1  0
 10 35  1  0
 16 36  1  0
 16 37  1  0
 16 38  1  0
 17 39  1  0
 17 40  1  0
 17 41  1  0
 19 42  1  0
 20 43  1  0
 23 44  1  0
 24 45  1  0
 25 46  1  0
 26 47  1  0
 27 48  1  0
 27 49  1  0
 28 50  1  0
 28 51  1  0
 30 52  1  0
 30 53  1  0
 30 54  1  0
 31 55  1  0
 31 56  1  0
 31 57  1  0
 32 58  1  0
M  END
>  <score>  (7) 
-7.759

$$$$
=
     RDKit          3D

 58 61  0  0  0  0  0  0  0  0999 V2000
    1.2450   60.4390   73.4020 C   0  0  0  0  0  0  0  0  0  0  0  0
   -0.0150   60.1050   73.8620 O   0  0  0  0  0  0  0  0  0  0  0  0
   -0.7440   61.0310   74.5670 C   0  0  0  0  0  0  0  0  0  0  0  0
   -2.0380   60.6730   74.9870 C   0  0  0  0  0  0  0  0  0  0  0  0
   -2.6160   59.3690   74.6840 C   0  0  0  0  0  0  0  0  0  0  0  0
   -3.8500   59.1040   75.1200 C   0  0  0  0  0  0  0  0  0  0  0  0
   -4.6820   60.0860   75.9090 C   0  0  0  0  0  0  0  0  0  0  0  0
   -4.0610   61.3590   76.1740 O   0  0  0  0  0  0  0  0  0  0  0  0
   -2.7960   61.5970   75.7150 C   0  0  0  0  0  0  0  0  0  0  0  0
   -2.2760   62.8550   76.0230 C   0  0  0  0  0  0  0  0  0  0  0  0
   -0.9960   63.1980   75.6030 C   0  0  0  0  0  0  0  0  0  0  0  0
   -0.2280   62.2870   74.8720 C   0  0  0  0  0  0  0  0  0  0  0  0
    1.1260   62.6240   74.4130 C   0  0  0  0  0  0  0  0  0  0  0  0
    1.6120   63.7130   74.7080 O   0  0  0  0  0  0  0  0  0  0  0  0
    1.8600   61.6230   73.5970 C   0  0  0  0  0  0  0  0  0  0  0  0
   -5.0230   59.4780   77.2750 C   0  0  0  0  0  0  0  0  0  0  0  0
   -5.9740   60.3870   75.1420 C   0  0  0  0  0  0  0  0  0  0  0  0
    3.0530   57.2470   71.2240 C   0  0  0  0  0  0  0  0  0  0  0  0
    3.1170   58.5460   70.7320 C   0  0  0  0  0  0  0  0  0  0  0  0
    2.5250   59.5880   71.4480 C   0  0  0  0  0  0  0  0  0  0  0  0
    1.8610   59.3290   72.6550 C   0  0  0  0  0  0  0  0  0  0  0  0
    1.8190   58.0110   73.1370 C   0  0  0  0  0  0  0  0  0  0  0  0
    2.4090   56.9660   72.4250 C   0  0  0  0  0  0  0  0  0  0  0  0
    3.6480   56.2650   70.4860 O   0  0  0  0  0  0  0  0  0  0  0  0
    1.1760   57.7560   74.3180 O   0  0  0  0  0  0  0  0  0  0  0  0
   -0.5530   64.4480   75.9430 O   0  0  0  0  0  0  0  0  0  0  0  0
    3.2440   62.0040   73.1270 C   0  0  0  0  0  0  0  0  0  0  0  0
    3.3440   62.8560   71.8530 C   0  0  0  0  0  0  0  0  0  0  0  0
    4.4580   62.5440   70.8320 C   0  0  0  0  0  0  0  0  0  0  0  0
    3.9140   62.1810   69.4500 C   0  0  0  0  0  0  0  0  0  0  0  0
    5.4490   61.4870   71.3140 C   0  0  0  0  0  0  0  0  0  0  0  0
    5.2260   63.7540   70.6860 O   0  0  0  0  0  0  0  0  0  0  0  0
   -2.0490   58.6214   74.1099 H   0  0  0  0  0  0  0  0  0  0  0  0
   -4.2829   58.1187   74.8924 H   0  0  0  0  0  0  0  0  0  0  0  0
   -2.8783   63.5742   76.5974 H   0  0  0  0  0  0  0  0  0  0  0  0
   -4.6527   60.1383   78.0730 H   0  0  0  0  0  0  0  0  0  0  0  0
   -6.1138   59.3691   77.3659 H   0  0  0  0  0  0  0  0  0  0  0  0
   -4.5471   58.4904   77.3659 H   0  0  0  0  0  0  0  0  0  0  0  0
   -6.7887   60.5768   75.8563 H   0  0  0  0  0  0  0  0  0  0  0  0
   -5.8266   61.2749   74.5096 H   0  0  0  0  0  0  0  0  0  0  0  0
   -6.2342   59.5254   74.5096 H   0  0  0  0  0  0  0  0  0  0  0  0
    3.6322   58.7518   69.7821 H   0  0  0  0  0  0  0  0  0  0  0  0
    2.5799   60.6170   71.0632 H   0  0  0  0  0  0  0  0  0  0  0  0
    2.3656   55.9355   72.8074 H   0  0  0  0  0  0  0  0  0  0  0  0
    3.6253   55.3267   70.8008 H   0  0  0  0  0  0  0  0  0  0  0  0
    1.1376   56.8320   74.6712 H   0  0  0  0  0  0  0  0  0  0  0  0
    0.3512   64.7441   75.6694 H   0  0  0  0  0  0  0  0  0  0  0  0
    3.7261   62.5668   73.9399 H   0  0  0  0  0  0  0  0  0  0  0  0
    3.7276   61.0504   72.8685 H   0  0  0  0  0  0  0  0  0  0  0  0
    2.3847   62.7587   71.3236 H   0  0  0  0  0  0  0  0  0  0  0  0
    3.5994   63.8592   72.2250 H   0  0  0  0  0  0  0  0  0  0  0  0
    3.0038   61.5736   69.5622 H   0  0  0  0  0  0  0  0  0  0  0  0
    3.6749   63.1012   68.8968 H   0  0  0  0  0  0  0  0  0  0  0  0
    4.6719   61.6070   68.8968 H   0  0  0  0  0  0  0  0  0  0  0  0
    5.4631   61.4720   72.4138 H   0  0  0  0  0  0  0  0  0  0  0  0
    5.1437   60.4995   70.9377 H   0  0  0  0  0  0  0  0  0  0  0  0
    6.4541   61.7281   70.9377 H   0  0  0  0  0  0  0  0  0  0  0  0
    5.4526   64.1110   71.5811 H   0  0  0  0  0  0  0  0  0  0  0  0
  2  1  1  0
  3  2  1  0
  4  3  2  0
  5  4  1  0
  6  5  2  0
  7  6  1  0
  8  7  1  0
  9  8  1  0
  9  4  1  0
 10  9  2  0
 11 10  1  0
 12 11  2  0
 12  3  1  0
 13 12  1  0
 14 13  2  0
 15 13  1  0
 15  1  2  0
 16  7  1  0
 17  7  1  0
 19 18  2  0
 20 19  1  0
 21 20  2  0
 21  1  1  0
 22 21  1  0
 23 22  2  0
 23 18  1  0
 24 18  1  0
 25 22  1  0
 26 11  1  0
 27 15  1  0
 28 27  1  0
 29 28  1  0
 30 29  1  0
 31 29  1  0
 32 29  1  0
  5 33  1  0
  6 34  1  0
 10 35  1  0
 16 36  1  0
 16 37  1  0
 16 38  1  0
 17 39  1  0
 17 40  1  0
 17 41  1  0
 19 42  1  0
 20 43  1  0
 23 44  1  0
 24 45  1  0
 25 46  1  0
 26 47  1  0
 27 48  1  0
 27 49  1  0
 28 50  1  0
 28 51  1  0
 30 52  1  0
 30 53  1  0
 30 54  1  0
 31 55  1  0
 31 56  1  0
 31 57  1  0
 32 58  1  0
M  END
>  <score>  (8) 
-7.408

$$$$
=
     RDKit          3D

 58 61  0  0  0  0  0  0  0  0999 V2000
    1.6560   61.4780   73.7880 C   0  0  0  0  0  0  0  0  0  0  0  0
    2.1790   60.9310   74.9440 O   0  0  0  0  0  0  0  0  0  0  0  0
    1.5970   61.2230   76.1520 C   0  0  0  0  0  0  0  0  0  0  0  0
    2.1280   60.6180   77.3060 C   0  0  0  0  0  0  0  0  0  0  0  0
    3.2550   59.6950   77.2450 C   0  0  0  0  0  0  0  0  0  0  0  0
    3.7040   59.1630   78.3850 C   0  0  0  0  0  0  0  0  0  0  0  0
    3.1040   59.4660   79.7370 C   0  0  0  0  0  0  0  0  0  0  0  0
    1.9910   60.3820   79.7350 O   0  0  0  0  0  0  0  0  0  0  0  0
    1.5580   60.9080   78.5510 C   0  0  0  0  0  0  0  0  0  0  0  0
    0.4770   61.7880   78.6480 C   0  0  0  0  0  0  0  0  0  0  0  0
   -0.0400   62.3790   77.5020 C   0  0  0  0  0  0  0  0  0  0  0  0
    0.5170   62.0960   76.2510 C   0  0  0  0  0  0  0  0  0  0  0  0
   -0.0110   62.7050   75.0230 C   0  0  0  0  0  0  0  0  0  0  0  0
   -0.9370   63.5090   75.0960 O   0  0  0  0  0  0  0  0  0  0  0  0
    0.6000   62.3150   73.7270 C   0  0  0  0  0  0  0  0  0  0  0  0
    4.1750   60.0910   80.6390 C   0  0  0  0  0  0  0  0  0  0  0  0
    2.5930   58.1670   80.3680 C   0  0  0  0  0  0  0  0  0  0  0  0
    3.8320   60.2260   70.3390 C   0  0  0  0  0  0  0  0  0  0  0  0
    3.9440   61.5360   70.7910 C   0  0  0  0  0  0  0  0  0  0  0  0
    3.2310   61.9420   71.9210 C   0  0  0  0  0  0  0  0  0  0  0  0
    2.3990   61.0360   72.5950 C   0  0  0  0  0  0  0  0  0  0  0  0
    2.3110   59.7170   72.1250 C   0  0  0  0  0  0  0  0  0  0  0  0
    3.0220   59.3060   70.9970 C   0  0  0  0  0  0  0  0  0  0  0  0
    4.5500   59.8800   69.2310 O   0  0  0  0  0  0  0  0  0  0  0  0
    1.5040   58.8290   72.7860 O   0  0  0  0  0  0  0  0  0  0  0  0
   -1.0980   63.2310   77.6740 O   0  0  0  0  0  0  0  0  0  0  0  0
    0.0260   62.9470   72.4810 C   0  0  0  0  0  0  0  0  0  0  0  0
    0.4580   64.3850   72.1590 C   0  0  0  0  0  0  0  0  0  0  0  0
    0.7100   64.7780   70.6880 C   0  0  0  0  0  0  0  0  0  0  0  0
    2.1940   64.7810   70.3210 C   0  0  0  0  0  0  0  0  0  0  0  0
    0.0540   66.0970   70.2880 C   0  0  0  0  0  0  0  0  0  0  0  0
    0.0710   63.7690   69.8830 O   0  0  0  0  0  0  0  0  0  0  0  0
    3.7245   59.4427   76.2828 H   0  0  0  0  0  0  0  0  0  0  0  0
    4.5552   58.4680   78.3363 H   0  0  0  0  0  0  0  0  0  0  0  0
    0.0360   62.0125   79.6304 H   0  0  0  0  0  0  0  0  0  0  0  0
    3.9042   59.9330   81.6934 H   0  0  0  0  0  0  0  0  0  0  0  0
    5.1472   59.6185   80.4353 H   0  0  0  0  0  0  0  0  0  0  0  0
    4.2419   61.1699   80.4353 H   0  0  0  0  0  0  0  0  0  0  0  0
    2.6271   58.2536   81.4641 H   0  0  0  0  0  0  0  0  0  0  0  0
    1.5567   57.9861   80.0465 H   0  0  0  0  0  0  0  0  0  0  0  0
    3.2283   57.3285   80.0465 H   0  0  0  0  0  0  0  0  0  0  0  0
    4.5916   62.2497   70.2607 H   0  0  0  0  0  0  0  0  0  0  0  0
    3.3222   62.9764   72.2839 H   0  0  0  0  0  0  0  0  0  0  0  0
    2.9433   58.2707   70.6337 H   0  0  0  0  0  0  0  0  0  0  0  0
    4.4987   58.9572   68.8761 H   0  0  0  0  0  0  0  0  0  0  0  0
    1.4308   57.8946   72.4672 H   0  0  0  0  0  0  0  0  0  0  0  0
   -1.5049   63.6793   76.8907 H   0  0  0  0  0  0  0  0  0  0  0  0
    0.3144   62.3161   71.6273 H   0  0  0  0  0  0  0  0  0  0  0  0
   -1.0558   63.0121   72.6694 H   0  0  0  0  0  0  0  0  0  0  0  0
   -0.3296   65.0514   72.5405 H   0  0  0  0  0  0  0  0  0  0  0  0
    1.4480   64.4751   72.6299 H   0  0  0  0  0  0  0  0  0  0  0  0
    2.7989   64.7822   71.2397 H   0  0  0  0  0  0  0  0  0  0  0  0
    2.4273   63.8833   69.7296 H   0  0  0  0  0  0  0  0  0  0  0  0
    2.4236   65.6796   69.7296 H   0  0  0  0  0  0  0  0  0  0  0  0
   -0.2246   66.6572   71.1928 H   0  0  0  0  0  0  0  0  0  0  0  0
    0.7611   66.6921   69.6915 H   0  0  0  0  0  0  0  0  0  0  0  0
   -0.8472   65.8922   69.6915 H   0  0  0  0  0  0  0  0  0  0  0  0
   -0.3545   63.0971   70.4725 H   0  0  0  0  0  0  0  0  0  0  0  0
  2  1  1  0
  3  2  1  0
  4  3  2  0
  5  4  1  0
  6  5  2  0
  7  6  1  0
  8  7  1  0
  9  8  1  0
  9  4  1  0
 10  9  2  0
 11 10  1  0
 12 11  2  0
 12  3  1  0
 13 12  1  0
 14 13  2  0
 15 13  1  0
 15  1  2  0
 16  7  1  0
 17  7  1  0
 19 18  2  0
 20 19  1  0
 21 20  2  0
 21  1  1  0
 22 21  1  0
 23 22  2  0
 23 18  1  0
 24 18  1  0
 25 22  1  0
 26 11  1  0
 27 15  1  0
 28 27  1  0
 29 28  1  0
 30 29  1  0
 31 29  1  0
 32 29  1  0
  5 33  1  0
  6 34  1  0
 10 35  1  0
 16 36  1  0
 16 37  1  0
 16 38  1  0
 17 39  1  0
 17 40  1  0
 17 41  1  0
 19 42  1  0
 20 43  1  0
 23 44  1  0
 24 45  1  0
 25 46  1  0
 26 47  1  0
 27 48  1  0
 27 49  1  0
 28 50  1  0
 28 51  1  0
 30 52  1  0
 30 53  1  0
 30 54  1  0
 31 55  1  0
 31 56  1  0
 31 57  1  0
 32 58  1  0
M  END
>  <score>  (9) 
-7.012

$$$$
