=
     RDKit          3D

 87 93  0  0  0  0  0  0  0  0999 V2000
    1.6180   63.8110   71.6820 C   0  0  0  0  0  0  0  0  0  0  0  0
    0.4040   64.4870   71.8630 C   0  0  0  0  0  0  0  0  0  0  0  0
    0.0210   65.5560   71.0370 C   0  0  0  0  0  0  0  0  0  0  0  0
    0.8530   65.9800   70.0050 C   0  0  0  0  0  0  0  0  0  0  0  0
    2.0660   65.3270   69.8110 C   0  0  0  0  0  0  0  0  0  0  0  0
    2.4400   64.2600   70.6360 C   0  0  0  0  0  0  0  0  0  0  0  0
    1.2870   59.9350   73.0490 N   0  0  0  0  0  0  0  0  0  0  0  0
    2.6170   60.2790   72.5110 C   0  0  0  0  0  0  0  0  0  0  0  0
    2.5800   61.5970   71.6990 C   0  0  0  0  0  0  0  0  0  0  0  0
    2.0370   62.7400   72.4790 N   0  0  0  0  0  0  0  0  0  0  0  0
    1.2700   62.3560   73.6810 C   0  0  0  0  0  0  0  0  0  0  0  0
    0.4380   61.0740   73.4590 C   0  0  0  0  0  0  0  0  0  0  0  0
    0.1860   55.9420   74.0750 C   0  0  0  0  0  0  0  0  0  0  0  0
   -0.6920   57.0150   74.2470 C   0  0  0  0  0  0  0  0  0  0  0  0
   -0.3220   58.3270   73.9080 C   0  0  0  0  0  0  0  0  0  0  0  0
    0.9390   58.6390   73.3850 C   0  0  0  0  0  0  0  0  0  0  0  0
    1.8090   57.5570   73.2100 C   0  0  0  0  0  0  0  0  0  0  0  0
    1.4480   56.2400   73.5480 C   0  0  0  0  0  0  0  0  0  0  0  0
   -0.9860   52.7920   75.3850 N   0  0  0  0  0  0  0  0  0  0  0  0
   -0.3410   52.3810   74.2460 N   0  0  0  0  0  0  0  0  0  0  0  0
    0.1190   53.4830   73.7430 C   0  0  0  0  0  0  0  0  0  0  0  0
   -0.1780   54.6170   74.4170 N   0  0  0  0  0  0  0  0  0  0  0  0
   -0.9490   54.1940   75.4870 C   0  0  0  0  0  0  0  0  0  0  0  0
   -1.5180   54.8480   76.3490 O   0  0  0  0  0  0  0  0  0  0  0  0
   -1.8350   51.9090   76.1740 C   0  0  1  0  0  0  0  0  0  0  0  0
   -1.4250   51.9750   77.6470 C   0  0  0  0  0  0  0  0  0  0  0  0
   -4.1180   52.3190   77.2530 C   0  0  0  0  0  0  0  0  0  0  0  0
   -3.3230   52.2320   75.9590 C   0  0  0  0  0  0  0  0  0  0  0  0
    0.6020   66.9970   69.1290 O   0  0  0  0  0  0  0  0  0  0  0  0
   -0.5110   66.8410   68.2460 C   0  0  0  0  0  0  0  0  0  0  0  0
   -0.0660   67.2290   66.8400 C   0  0  1  0  0  0  0  0  0  0  0  0
   -0.1840   68.7010   66.5660 C   0  0  0  0  0  0  0  0  0  0  0  0
    0.6880   68.8840   65.4510 O   0  0  0  0  0  0  0  0  0  0  0  0
    1.7750   67.9260   65.6510 C   0  0  2  0  0  0  0  0  0  0  0  0
    1.3330   67.0000   66.6500 O   0  0  0  0  0  0  0  0  0  0  0  0
    3.0060   68.7260   66.0970 C   0  0  0  0  0  0  0  0  0  0  0  0
    4.1410   68.7400   65.2480 C   0  0  0  0  0  0  0  0  0  0  0  0
    5.3060   69.4310   65.5870 C   0  0  0  0  0  0  0  0  0  0  0  0
    5.3710   70.1190   66.7910 C   0  0  0  0  0  0  0  0  0  0  0  0
    4.2830   70.1150   67.6560 C   0  0  0  0  0  0  0  0  0  0  0  0
    3.1110   69.4230   67.3190 C   0  0  0  0  0  0  0  0  0  0  0  0
    1.8590   69.4640   68.5100 Cl  0  0  0  0  0  0  0  0  0  0  0  0
    6.8030   70.9700   67.2140 Cl  0  0  0  0  0  0  0  0  0  0  0  0
    1.9710   67.2360   64.2860 C   0  0  0  0  0  0  0  0  0  0  0  0
    2.9030   66.1370   64.2710 N   0  0  0  0  0  0  0  0  0  0  0  0
    3.9930   65.9830   63.4690 C   0  0  0  0  0  0  0  0  0  0  0  0
    4.5360   64.8070   63.6850 N   0  0  0  0  0  0  0  0  0  0  0  0
    3.7070   64.2570   64.6210 C   0  0  0  0  0  0  0  0  0  0  0  0
    2.6680   65.0160   64.9790 N   0  0  0  0  0  0  0  0  0  0  0  0
   -0.2678   64.1714   72.6749 H   0  0  0  0  0  0  0  0  0  0  0  0
   -0.9415   66.0609   71.2064 H   0  0  0  0  0  0  0  0  0  0  0  0
    2.7370   65.6521   69.0022 H   0  0  0  0  0  0  0  0  0  0  0  0
    3.4038   63.7598   70.4602 H   0  0  0  0  0  0  0  0  0  0  0  0
    3.3215   60.3949   73.3478 H   0  0  0  0  0  0  0  0  0  0  0  0
    2.9359   59.4693   71.8382 H   0  0  0  0  0  0  0  0  0  0  0  0
    3.6041   61.8431   71.3818 H   0  0  0  0  0  0  0  0  0  0  0  0
    1.9133   61.4370   70.8388 H   0  0  0  0  0  0  0  0  0  0  0  0
    1.9730   62.1828   74.5091 H   0  0  0  0  0  0  0  0  0  0  0  0
    0.5725   63.1748   73.9116 H   0  0  0  0  0  0  0  0  0  0  0  0
   -0.3071   61.2644   72.6725 H   0  0  0  0  0  0  0  0  0  0  0  0
   -0.0500   60.8131   74.4097 H   0  0  0  0  0  0  0  0  0  0  0  0
   -1.6955   56.8283   74.6571 H   0  0  0  0  0  0  0  0  0  0  0  0
   -1.0490   59.1386   74.0588 H   0  0  0  0  0  0  0  0  0  0  0  0
    2.8101   57.7427   72.7936 H   0  0  0  0  0  0  0  0  0  0  0  0
    2.1730   55.4270   73.3949 H   0  0  0  0  0  0  0  0  0  0  0  0
    0.7172   53.4953   72.8200 H   0  0  0  0  0  0  0  0  0  0  0  0
   -1.6937   50.8722   75.8347 H   0  0  0  0  0  0  0  0  0  0  0  0
   -2.3123   51.8322   78.2813 H   0  0  0  0  0  0  0  0  0  0  0  0
   -0.6913   51.1834   77.8592 H   0  0  0  0  0  0  0  0  0  0  0  0
   -0.9768   52.9569   77.8592 H   0  0  0  0  0  0  0  0  0  0  0  0
   -3.4327   52.2440   78.1101 H   0  0  0  0  0  0  0  0  0  0  0  0
   -4.6504   53.2808   77.2923 H   0  0  0  0  0  0  0  0  0  0  0  0
   -4.8458   51.4951   77.2923 H   0  0  0  0  0  0  0  0  0  0  0  0
   -3.3979   53.1983   75.4387 H   0  0  0  0  0  0  0  0  0  0  0  0
   -3.7515   51.4072   75.3708 H   0  0  0  0  0  0  0  0  0  0  0  0
   -0.8477   65.7938   68.2537 H   0  0  0  0  0  0  0  0  0  0  0  0
   -1.3440   67.4822   68.5699 H   0  0  0  0  0  0  0  0  0  0  0  0
   -0.7161   66.6240   66.1909 H   0  0  0  0  0  0  0  0  0  0  0  0
   -1.2181   68.9751   66.3099 H   0  0  0  0  0  0  0  0  0  0  0  0
    0.0767   69.3281   67.4313 H   0  0  0  0  0  0  0  0  0  0  0  0
    4.1029   68.1912   64.2955 H   0  0  0  0  0  0  0  0  0  0  0  0
    6.1679   69.4302   64.9035 H   0  0  0  0  0  0  0  0  0  0  0  0
    4.3418   70.6581   68.6108 H   0  0  0  0  0  0  0  0  0  0  0  0
    0.9933   66.8549   63.9562 H   0  0  0  0  0  0  0  0  0  0  0  0
    2.3980   68.0012   63.6211 H   0  0  0  0  0  0  0  0  0  0  0  0
    4.3620   66.7295   62.7503 H   0  0  0  0  0  0  0  0  0  0  0  0
    3.8827   63.2593   65.0497 H   0  0  0  0  0  0  0  0  0  0  0  0
  2  1  2  0
  3  2  1  0
  4  3  2  0
  5  4  1  0
  6  5  2  0
  6  1  1  0
  8  7  1  0
  9  8  1  0
 10  9  1  0
 10  1  1  0
 11 10  1  0
 12  7  1  0
 12 11  1  0
 14 13  2  0
 15 14  1  0
 16 15  2  0
 16  7  1  0
 17 16  1  0
 18 17  2  0
 18 13  1  0
 20 19  1  0
 21 20  2  0
 22 21  1  0
 22 13  1  0
 23 19  1  0
 23 22  1  0
 24 23  2  0
 25 19  1  0
 26 25  1  0
 28 25  1  0
 28 27  1  0
 29  4  1  0
 30 29  1  0
 31 30  1  0
 32 31  1  0
 33 32  1  0
 34 33  1  0
 35 34  1  0
 35 31  1  0
 36 34  1  0
 37 36  2  0
 38 37  1  0
 39 38  2  0
 40 39  1  0
 41 40  2  0
 41 36  1  0
 42 41  1  0
 43 39  1  0
 34 44  1  6
 45 44  1  0
 46 45  1  0
 47 46  2  0
 48 47  1  0
 49 48  2  0
 49 45  1  0
  2 50  1  0
  3 51  1  0
  5 52  1  0
  6 53  1  0
  8 54  1  0
  8 55  1  0
  9 56  1  0
  9 57  1  0
 11 58  1  0
 11 59  1  0
 12 60  1  0
 12 61  1  0
 14 62  1  0
 15 63  1  0
 17 64  1  0
 18 65  1  0
 21 66  1  0
 25 67  1  6
 26 68  1  0
 26 69  1  0
 26 70  1  0
 27 71  1  0
 27 72  1  0
 27 73  1  0
 28 74  1  0
 28 75  1  0
 30 76  1  0
 30 77  1  0
 31 78  1  6
 32 79  1  0
 32 80  1  0
 37 81  1  0
 38 82  1  0
 40 83  1  0
 44 84  1  0
 44 85  1  0
 46 86  1  0
 48 87  1  0
M  END
>  <score>  (1) 
-12.184

$$$$
=
     RDKit          3D

 87 93  0  0  0  0  0  0  0  0999 V2000
    0.1940   62.3100   74.9220 C   0  0  0  0  0  0  0  0  0  0  0  0
    0.4820   61.9610   76.2480 C   0  0  0  0  0  0  0  0  0  0  0  0
    0.0110   60.7670   76.8190 C   0  0  0  0  0  0  0  0  0  0  0  0
   -0.7700   59.8910   76.0720 C   0  0  0  0  0  0  0  0  0  0  0  0
   -1.0730   60.2210   74.7540 C   0  0  0  0  0  0  0  0  0  0  0  0
   -0.5970   61.4100   74.1910 C   0  0  0  0  0  0  0  0  0  0  0  0
    0.3910   64.9280   71.7420 N   0  0  0  0  0  0  0  0  0  0  0  0
   -0.0350   65.5450   73.0120 C   0  0  0  0  0  0  0  0  0  0  0  0
   -0.4340   64.4760   74.0600 C   0  0  0  0  0  0  0  0  0  0  0  0
    0.6460   63.4860   74.3130 N   0  0  0  0  0  0  0  0  0  0  0  0
    1.6930   63.4370   73.2730 C   0  0  0  0  0  0  0  0  0  0  0  0
    1.1180   63.6450   71.8540 C   0  0  0  0  0  0  0  0  0  0  0  0
    0.2650   67.0140   68.0210 C   0  0  0  0  0  0  0  0  0  0  0  0
    1.4380   66.9200   68.7720 C   0  0  0  0  0  0  0  0  0  0  0  0
    1.4730   66.2320   69.9970 C   0  0  0  0  0  0  0  0  0  0  0  0
    0.3420   65.6070   70.5380 C   0  0  0  0  0  0  0  0  0  0  0  0
   -0.8280   65.7020   69.7750 C   0  0  0  0  0  0  0  0  0  0  0  0
   -0.8720   66.3900   68.5490 C   0  0  0  0  0  0  0  0  0  0  0  0
    0.5630   68.4470   64.7250 N   0  0  0  0  0  0  0  0  0  0  0  0
   -0.4610   69.1960   65.2470 N   0  0  0  0  0  0  0  0  0  0  0  0
   -0.5960   68.7290   66.4480 C   0  0  0  0  0  0  0  0  0  0  0  0
    0.2210   67.7070   66.7880 N   0  0  0  0  0  0  0  0  0  0  0  0
    0.9710   67.4680   65.6470 C   0  0  0  0  0  0  0  0  0  0  0  0
    1.8010   66.5990   65.4250 O   0  0  0  0  0  0  0  0  0  0  0  0
    0.9290   68.4830   63.3150 C   0  0  1  0  0  0  0  0  0  0  0  0
   -0.0070   69.4280   62.5580 C   0  0  0  0  0  0  0  0  0  0  0  0
    2.9380   68.5810   61.7330 C   0  0  0  0  0  0  0  0  0  0  0  0
    2.4120   68.8500   63.1360 C   0  0  0  0  0  0  0  0  0  0  0  0
   -1.2860   58.7020   76.4990 O   0  0  0  0  0  0  0  0  0  0  0  0
   -1.7320   57.7850   75.4970 C   0  0  0  0  0  0  0  0  0  0  0  0
   -0.5920   56.8200   75.1870 C   0  0  1  0  0  0  0  0  0  0  0  0
   -0.6150   56.3110   73.7740 C   0  0  0  0  0  0  0  0  0  0  0  0
    0.7230   55.8520   73.5830 O   0  0  0  0  0  0  0  0  0  0  0  0
    1.5570   56.7610   74.3690 C   0  0  2  0  0  0  0  0  0  0  0  0
    0.6800   57.4740   75.2490 O   0  0  0  0  0  0  0  0  0  0  0  0
    2.2740   57.6880   73.3780 C   0  0  0  0  0  0  0  0  0  0  0  0
    2.4300   57.2470   72.0410 C   0  0  0  0  0  0  0  0  0  0  0  0
    3.0840   58.0240   71.0810 C   0  0  0  0  0  0  0  0  0  0  0  0
    3.6070   59.2590   71.4370 C   0  0  0  0  0  0  0  0  0  0  0  0
    3.4860   59.7170   72.7440 C   0  0  0  0  0  0  0  0  0  0  0  0
    2.8300   58.9410   73.7110 C   0  0  0  0  0  0  0  0  0  0  0  0
    2.7970   59.6140   75.3020 Cl  0  0  0  0  0  0  0  0  0  0  0  0
    4.4130   60.2180   70.2610 Cl  0  0  0  0  0  0  0  0  0  0  0  0
    2.5280   55.8540   75.1510 C   0  0  0  0  0  0  0  0  0  0  0  0
    3.0710   56.4180   76.3610 N   0  0  0  0  0  0  0  0  0  0  0  0
    4.3400   56.8650   76.5740 C   0  0  0  0  0  0  0  0  0  0  0  0
    4.4790   57.2170   77.8310 N   0  0  0  0  0  0  0  0  0  0  0  0
    3.2530   56.9300   78.3630 C   0  0  0  0  0  0  0  0  0  0  0  0
    2.3730   56.3990   77.5120 N   0  0  0  0  0  0  0  0  0  0  0  0
    1.0940   62.6409   76.8590 H   0  0  0  0  0  0  0  0  0  0  0  0
    0.2610   60.5235   77.8622 H   0  0  0  0  0  0  0  0  0  0  0  0
   -1.6919   59.5411   74.1501 H   0  0  0  0  0  0  0  0  0  0  0  0
   -0.8496   61.6460   73.1467 H   0  0  0  0  0  0  0  0  0  0  0  0
    0.7947   66.1457   73.4130 H   0  0  0  0  0  0  0  0  0  0  0  0
   -0.9144   66.1744   72.8107 H   0  0  0  0  0  0  0  0  0  0  0  0
   -0.6741   64.9836   75.0059 H   0  0  0  0  0  0  0  0  0  0  0  0
   -1.2994   63.9271   73.6603 H   0  0  0  0  0  0  0  0  0  0  0  0
    2.4305   64.2276   73.4756 H   0  0  0  0  0  0  0  0  0  0  0  0
    2.1552   62.4394   73.3066 H   0  0  0  0  0  0  0  0  0  0  0  0
    0.4254   62.8215   71.6256 H   0  0  0  0  0  0  0  0  0  0  0  0
    1.9570   63.6626   71.1428 H   0  0  0  0  0  0  0  0  0  0  0  0
    2.3561   67.3954   68.3963 H   0  0  0  0  0  0  0  0  0  0  0  0
    2.4222   66.1825   70.5507 H   0  0  0  0  0  0  0  0  0  0  0  0
   -1.7449   65.2218   70.1473 H   0  0  0  0  0  0  0  0  0  0  0  0
   -1.8199   66.4389   67.9930 H   0  0  0  0  0  0  0  0  0  0  0  0
   -1.3342   69.1411   67.1517 H   0  0  0  0  0  0  0  0  0  0  0  0
    0.8065   67.4784   62.8841 H   0  0  0  0  0  0  0  0  0  0  0  0
   -0.5922   70.0189   63.2780 H   0  0  0  0  0  0  0  0  0  0  0  0
    0.5874   70.1042   61.9260 H   0  0  0  0  0  0  0  0  0  0  0  0
   -0.6889   68.8401   61.9260 H   0  0  0  0  0  0  0  0  0  0  0  0
    3.9157   68.0810   61.7976 H   0  0  0  0  0  0  0  0  0  0  0  0
    2.2303   67.9342   61.1938 H   0  0  0  0  0  0  0  0  0  0  0  0
    3.0481   69.5335   61.1938 H   0  0  0  0  0  0  0  0  0  0  0  0
    2.5347   69.9211   63.3546 H   0  0  0  0  0  0  0  0  0  0  0  0
    2.9883   68.2154   63.8253 H   0  0  0  0  0  0  0  0  0  0  0  0
   -2.6030   57.2245   75.8674 H   0  0  0  0  0  0  0  0  0  0  0  0
   -2.0235   58.3308   74.5875 H   0  0  0  0  0  0  0  0  0  0  0  0
   -0.7264   56.0185   75.9283 H   0  0  0  0  0  0  0  0  0  0  0  0
   -1.3364   55.4883   73.6606 H   0  0  0  0  0  0  0  0  0  0  0  0
   -0.9240   57.0713   73.0416 H   0  0  0  0  0  0  0  0  0  0  0  0
    2.0254   56.2663   71.7504 H   0  0  0  0  0  0  0  0  0  0  0  0
    3.1837   57.6584   70.0483 H   0  0  0  0  0  0  0  0  0  0  0  0
    3.9075   60.6944   73.0217 H   0  0  0  0  0  0  0  0  0  0  0  0
    1.9890   54.9334   75.4192 H   0  0  0  0  0  0  0  0  0  0  0  0
    3.3874   55.6889   74.4845 H   0  0  0  0  0  0  0  0  0  0  0  0
    5.1284   56.9223   75.8090 H   0  0  0  0  0  0  0  0  0  0  0  0
    3.0091   57.1231   79.4181 H   0  0  0  0  0  0  0  0  0  0  0  0
  2  1  2  0
  3  2  1  0
  4  3  2  0
  5  4  1  0
  6  5  2  0
  6  1  1  0
  8  7  1  0
  9  8  1  0
 10  9  1  0
 10  1  1  0
 11 10  1  0
 12  7  1  0
 12 11  1  0
 14 13  2  0
 15 14  1  0
 16 15  2  0
 16  7  1  0
 17 16  1  0
 18 17  2  0
 18 13  1  0
 20 19  1  0
 21 20  2  0
 22 21  1  0
 22 13  1  0
 23 19  1  0
 23 22  1  0
 24 23  2  0
 25 19  1  0
 26 25  1  0
 28 25  1  0
 28 27  1  0
 29  4  1  0
 30 29  1  0
 31 30  1  0
 32 31  1  0
 33 32  1  0
 34 33  1  0
 35 34  1  0
 35 31  1  0
 36 34  1  0
 37 36  2  0
 38 37  1  0
 39 38  2  0
 40 39  1  0
 41 40  2  0
 41 36  1  0
 42 41  1  0
 43 39  1  0
 34 44  1  1
 45 44  1  0
 46 45  1  0
 47 46  2  0
 48 47  1  0
 49 48  2  0
 49 45  1  0
  2 50  1  0
  3 51  1  0
  5 52  1  0
  6 53  1  0
  8 54  1  0
  8 55  1  0
  9 56  1  0
  9 57  1  0
 11 58  1  0
 11 59  1  0
 12 60  1  0
 12 61  1  0
 14 62  1  0
 15 63  1  0
 17 64  1  0
 18 65  1  0
 21 66  1  0
 25 67  1  6
 26 68  1  0
 26 69  1  0
 26 70  1  0
 27 71  1  0
 27 72  1  0
 27 73  1  0
 28 74  1  0
 28 75  1  0
 30 76  1  0
 30 77  1  0
 31 78  1  1
 32 79  1  0
 32 80  1  0
 37 81  1  0
 38 82  1  0
 40 83  1  0
 44 84  1  0
 44 85  1  0
 46 86  1  0
 48 87  1  0
M  END
>  <score>  (2) 
-9.673

$$$$
=
     RDKit          3D

 87 93  0  0  0  0  0  0  0  0999 V2000
    1.1700   58.9060   74.5690 C   0  0  0  0  0  0  0  0  0  0  0  0
    0.3730   58.1280   73.7190 C   0  0  0  0  0  0  0  0  0  0  0  0
   -0.3430   57.0150   74.1890 C   0  0  0  0  0  0  0  0  0  0  0  0
   -0.2730   56.6480   75.5290 C   0  0  0  0  0  0  0  0  0  0  0  0
    0.5180   57.4040   76.3900 C   0  0  0  0  0  0  0  0  0  0  0  0
    1.2260   58.5140   75.9160 C   0  0  0  0  0  0  0  0  0  0  0  0
    1.5310   62.4430   72.4790 N   0  0  0  0  0  0  0  0  0  0  0  0
    1.8820   62.5420   73.9090 C   0  0  0  0  0  0  0  0  0  0  0  0
    1.3920   61.3070   74.7030 C   0  0  0  0  0  0  0  0  0  0  0  0
    1.8970   60.0240   74.1450 N   0  0  0  0  0  0  0  0  0  0  0  0
    2.3960   60.1110   72.7580 C   0  0  0  0  0  0  0  0  0  0  0  0
    1.5620   61.0840   71.8960 C   0  0  0  0  0  0  0  0  0  0  0  0
    1.1960   65.8640   69.9510 C   0  0  0  0  0  0  0  0  0  0  0  0
    2.2700   64.9760   69.8490 C   0  0  0  0  0  0  0  0  0  0  0  0
    2.3740   63.8510   70.6860 C   0  0  0  0  0  0  0  0  0  0  0  0
    1.4190   63.5560   71.6660 C   0  0  0  0  0  0  0  0  0  0  0  0
    0.3450   64.4480   71.7570 C   0  0  0  0  0  0  0  0  0  0  0  0
    0.2330   65.5770   70.9260 C   0  0  0  0  0  0  0  0  0  0  0  0
    0.5210   68.4780   67.5590 N   0  0  0  0  0  0  0  0  0  0  0  0
    1.5110   69.0570   68.3110 N   0  0  0  0  0  0  0  0  0  0  0  0
    1.8050   68.1430   69.1810 C   0  0  0  0  0  0  0  0  0  0  0  0
    1.0860   67.0000   69.1140 N   0  0  0  0  0  0  0  0  0  0  0  0
    0.1940   67.2110   68.0750 C   0  0  0  0  0  0  0  0  0  0  0  0
   -0.7130   66.5010   67.6660 O   0  0  0  0  0  0  0  0  0  0  0  0
   -0.2640   69.2180   66.5790 C   0  0  1  0  0  0  0  0  0  0  0  0
    0.0070   68.6710   65.1750 C   0  0  0  0  0  0  0  0  0  0  0  0
   -2.6510   68.7180   65.8090 C   0  0  0  0  0  0  0  0  0  0  0  0
   -1.7590   69.2060   66.9410 C   0  0  0  0  0  0  0  0  0  0  0  0
   -0.9180   55.5970   76.1160 O   0  0  0  0  0  0  0  0  0  0  0  0
   -2.1470   55.1700   75.5230 C   0  0  0  0  0  0  0  0  0  0  0  0
   -3.2910   55.9240   76.1940 C   0  0  1  0  0  0  0  0  0  0  0  0
   -2.9240   56.4780   77.5410 C   0  0  0  0  0  0  0  0  0  0  0  0
   -3.9130   57.4880   77.7440 O   0  0  0  0  0  0  0  0  0  0  0  0
   -4.1890   58.0300   76.4140 C   0  0  2  0  0  0  0  0  0  0  0  0
   -3.6380   57.1070   75.4670 O   0  0  0  0  0  0  0  0  0  0  0  0
   -3.5230   59.4110   76.3410 C   0  0  0  0  0  0  0  0  0  0  0  0
   -2.7110   59.7050   75.2190 C   0  0  0  0  0  0  0  0  0  0  0  0
   -2.0580   60.9330   75.0840 C   0  0  0  0  0  0  0  0  0  0  0  0
   -2.1940   61.8950   76.0750 C   0  0  0  0  0  0  0  0  0  0  0  0
   -2.9700   61.6360   77.1970 C   0  0  0  0  0  0  0  0  0  0  0  0
   -3.6280   60.4050   77.3370 C   0  0  0  0  0  0  0  0  0  0  0  0
   -4.5170   60.2030   78.8040 Cl  0  0  0  0  0  0  0  0  0  0  0  0
   -1.3910   63.4070   75.9140 Cl  0  0  0  0  0  0  0  0  0  0  0  0
   -5.7250   58.0980   76.3100 C   0  0  0  0  0  0  0  0  0  0  0  0
   -6.2460   59.1080   75.4230 N   0  0  0  0  0  0  0  0  0  0  0  0
   -6.9870   60.2020   75.7530 C   0  0  0  0  0  0  0  0  0  0  0  0
   -7.3550   60.8310   74.6600 N   0  0  0  0  0  0  0  0  0  0  0  0
   -6.8320   60.0490   73.6690 C   0  0  0  0  0  0  0  0  0  0  0  0
   -6.1820   58.9590   74.0860 N   0  0  0  0  0  0  0  0  0  0  0  0
    0.3062   58.3963   72.6543 H   0  0  0  0  0  0  0  0  0  0  0  0
   -0.9628   56.4300   73.4935 H   0  0  0  0  0  0  0  0  0  0  0  0
    0.5870   57.1263   77.4521 H   0  0  0  0  0  0  0  0  0  0  0  0
    1.8429   59.0949   76.6174 H   0  0  0  0  0  0  0  0  0  0  0  0
    2.9754   62.6165   74.0038 H   0  0  0  0  0  0  0  0  0  0  0  0
    1.3899   63.4345   74.3230 H   0  0  0  0  0  0  0  0  0  0  0  0
    1.7383   61.3981   75.7431 H   0  0  0  0  0  0  0  0  0  0  0  0
    0.2941   61.2864   74.6381 H   0  0  0  0  0  0  0  0  0  0  0  0
    3.4387   60.4609   72.7783 H   0  0  0  0  0  0  0  0  0  0  0  0
    2.3173   59.1103   72.3082 H   0  0  0  0  0  0  0  0  0  0  0  0
    0.5324   60.7035   71.8241 H   0  0  0  0  0  0  0  0  0  0  0  0
    2.0292   61.1480   70.9022 H   0  0  0  0  0  0  0  0  0  0  0  0
    3.0514   65.1611   69.0973 H   0  0  0  0  0  0  0  0  0  0  0  0
    3.2365   63.1788   70.5665 H   0  0  0  0  0  0  0  0  0  0  0  0
   -0.4394   64.2596   72.5048 H   0  0  0  0  0  0  0  0  0  0  0  0
   -0.6297   66.2491   71.0446 H   0  0  0  0  0  0  0  0  0  0  0  0
    2.5953   68.2888   69.9321 H   0  0  0  0  0  0  0  0  0  0  0  0
    0.0459   70.2734   66.5903 H   0  0  0  0  0  0  0  0  0  0  0  0
    0.4941   67.6878   65.2523 H   0  0  0  0  0  0  0  0  0  0  0  0
   -0.9440   68.5674   64.6320 H   0  0  0  0  0  0  0  0  0  0  0  0
    0.6656   69.3648   64.6320 H   0  0  0  0  0  0  0  0  0  0  0  0
   -3.5428   68.2301   66.2292 H   0  0  0  0  0  0  0  0  0  0  0  0
   -2.9586   69.5735   65.1897 H   0  0  0  0  0  0  0  0  0  0  0  0
   -2.0964   67.9976   65.1897 H   0  0  0  0  0  0  0  0  0  0  0  0
   -1.9025   68.5444   67.8080 H   0  0  0  0  0  0  0  0  0  0  0  0
   -2.0489   70.2447   67.1581 H   0  0  0  0  0  0  0  0  0  0  0  0
   -2.1368   55.3919   74.4457 H   0  0  0  0  0  0  0  0  0  0  0  0
   -2.2766   54.0862   75.6590 H   0  0  0  0  0  0  0  0  0  0  0  0
   -4.0944   55.1746   76.2485 H   0  0  0  0  0  0  0  0  0  0  0  0
   -2.9835   55.7024   78.3187 H   0  0  0  0  0  0  0  0  0  0  0  0
   -1.8934   56.8594   77.5905 H   0  0  0  0  0  0  0  0  0  0  0  0
   -2.5909   58.9459   74.4320 H   0  0  0  0  0  0  0  0  0  0  0  0
   -1.4396   61.1360   74.1972 H   0  0  0  0  0  0  0  0  0  0  0  0
   -3.0694   62.4010   77.9811 H   0  0  0  0  0  0  0  0  0  0  0  0
   -6.0837   57.1200   75.9568 H   0  0  0  0  0  0  0  0  0  0  0  0
   -6.0826   58.3671   77.3148 H   0  0  0  0  0  0  0  0  0  0  0  0
   -7.2388   60.5116   76.7781 H   0  0  0  0  0  0  0  0  0  0  0  0
   -6.9387   60.2993   72.6032 H   0  0  0  0  0  0  0  0  0  0  0  0
  2  1  2  0
  3  2  1  0
  4  3  2  0
  5  4  1  0
  6  5  2  0
  6  1  1  0
  8  7  1  0
  9  8  1  0
 10  9  1  0
 10  1  1  0
 11 10  1  0
 12  7  1  0
 12 11  1  0
 14 13  2  0
 15 14  1  0
 16 15  2  0
 16  7  1  0
 17 16  1  0
 18 17  2  0
 18 13  1  0
 20 19  1  0
 21 20  2  0
 22 21  1  0
 22 13  1  0
 23 19  1  0
 23 22  1  0
 24 23  2  0
 25 19  1  0
 26 25  1  0
 28 25  1  0
 28 27  1  0
 29  4  1  0
 30 29  1  0
 31 30  1  0
 32 31  1  0
 33 32  1  0
 34 33  1  0
 35 34  1  0
 35 31  1  0
 36 34  1  0
 37 36  2  0
 38 37  1  0
 39 38  2  0
 40 39  1  0
 41 40  2  0
 41 36  1  0
 42 41  1  0
 43 39  1  0
 34 44  1  6
 45 44  1  0
 46 45  1  0
 47 46  2  0
 48 47  1  0
 49 48  2  0
 49 45  1  0
  2 50  1  0
  3 51  1  0
  5 52  1  0
  6 53  1  0
  8 54  1  0
  8 55  1  0
  9 56  1  0
  9 57  1  0
 11 58  1  0
 11 59  1  0
 12 60  1  0
 12 61  1  0
 14 62  1  0
 15 63  1  0
 17 64  1  0
 18 65  1  0
 21 66  1  0
 25 67  1  6
 26 68  1  0
 26 69  1  0
 26 70  1  0
 27 71  1  0
 27 72  1  0
 27 73  1  0
 28 74  1  0
 28 75  1  0
 30 76  1  0
 30 77  1  0
 31 78  1  1
 32 79  1  0
 32 80  1  0
 37 81  1  0
 38 82  1  0
 40 83  1  0
 44 84  1  0
 44 85  1  0
 46 86  1  0
 48 87  1  0
M  END
>  <score>  (3) 
-9.608

$$$$
=
     RDKit          3D

 87 93  0  0  0  0  0  0  0  0999 V2000
    2.4850   58.2280   74.3570 C   0  0  0  0  0  0  0  0  0  0  0  0
    2.8250   57.4270   75.4560 C   0  0  0  0  0  0  0  0  0  0  0  0
    2.4730   56.0690   75.5200 C   0  0  0  0  0  0  0  0  0  0  0  0
    1.7640   55.4770   74.4810 C   0  0  0  0  0  0  0  0  0  0  0  0
    1.4100   56.2550   73.3820 C   0  0  0  0  0  0  0  0  0  0  0  0
    1.7670   57.6070   73.3230 C   0  0  0  0  0  0  0  0  0  0  0  0
    2.1280   61.9460   72.6090 N   0  0  0  0  0  0  0  0  0  0  0  0
    1.9110   61.9360   74.0690 C   0  0  0  0  0  0  0  0  0  0  0  0
    1.7020   60.4980   74.6040 C   0  0  0  0  0  0  0  0  0  0  0  0
    2.8180   59.5830   74.2500 N   0  0  0  0  0  0  0  0  0  0  0  0
    3.6790   60.0580   73.1490 C   0  0  0  0  0  0  0  0  0  0  0  0
    2.8750   60.7960   72.0560 C   0  0  0  0  0  0  0  0  0  0  0  0
    1.3320   65.4000   70.2330 C   0  0  0  0  0  0  0  0  0  0  0  0
    0.4450   64.9650   71.2200 C   0  0  0  0  0  0  0  0  0  0  0  0
    0.7130   63.8260   71.9980 C   0  0  0  0  0  0  0  0  0  0  0  0
    1.8730   63.0610   71.8320 C   0  0  0  0  0  0  0  0  0  0  0  0
    2.7600   63.5070   70.8440 C   0  0  0  0  0  0  0  0  0  0  0  0
    2.4980   64.6450   70.0590 C   0  0  0  0  0  0  0  0  0  0  0  0
    0.2090   68.0460   68.0540 N   0  0  0  0  0  0  0  0  0  0  0  0
    1.3590   68.5930   68.5630 N   0  0  0  0  0  0  0  0  0  0  0  0
    1.8160   67.6660   69.3450 C   0  0  0  0  0  0  0  0  0  0  0  0
    1.0680   66.5440   69.4420 N   0  0  0  0  0  0  0  0  0  0  0  0
   -0.0290   66.7860   68.6310 C   0  0  0  0  0  0  0  0  0  0  0  0
   -1.0250   66.1040   68.4380 O   0  0  0  0  0  0  0  0  0  0  0  0
   -0.7550   68.8130   67.2760 C   0  0  1  0  0  0  0  0  0  0  0  0
   -0.6030   70.3050   67.5850 C   0  0  0  0  0  0  0  0  0  0  0  0
    0.8100   68.4380   65.2880 C   0  0  0  0  0  0  0  0  0  0  0  0
   -0.6300   68.5030   65.7750 C   0  0  0  0  0  0  0  0  0  0  0  0
    1.3640   54.1730   74.4130 O   0  0  0  0  0  0  0  0  0  0  0  0
    0.0240   53.9210   73.9850 C   0  0  0  0  0  0  0  0  0  0  0  0
   -0.8960   54.0310   75.1970 C   0  0  1  0  0  0  0  0  0  0  0  0
   -0.2220   53.6580   76.4870 C   0  0  0  0  0  0  0  0  0  0  0  0
   -1.0620   54.2670   77.4670 O   0  0  0  0  0  0  0  0  0  0  0  0
   -1.5520   55.4960   76.8440 C   0  0  2  0  0  0  0  0  0  0  0  0
   -1.2810   55.3870   75.4420 O   0  0  0  0  0  0  0  0  0  0  0  0
   -0.8020   56.6650   77.4970 C   0  0  0  0  0  0  0  0  0  0  0  0
   -0.3610   56.5150   78.8350 C   0  0  0  0  0  0  0  0  0  0  0  0
    0.3150   57.5360   79.5070 C   0  0  0  0  0  0  0  0  0  0  0  0
    0.5590   58.7390   78.8590 C   0  0  0  0  0  0  0  0  0  0  0  0
    0.1270   58.9280   77.5520 C   0  0  0  0  0  0  0  0  0  0  0  0
   -0.5510   57.9050   76.8740 C   0  0  0  0  0  0  0  0  0  0  0  0
   -1.0700   58.2970   75.2730 Cl  0  0  0  0  0  0  0  0  0  0  0  0
    1.3890   60.0000   79.6820 Cl  0  0  0  0  0  0  0  0  0  0  0  0
   -3.0670   55.5240   77.1270 C   0  0  0  0  0  0  0  0  0  0  0  0
   -3.7460   56.7460   76.7770 N   0  0  0  0  0  0  0  0  0  0  0  0
   -4.1900   57.7200   77.6190 C   0  0  0  0  0  0  0  0  0  0  0  0
   -4.8430   58.6310   76.9340 N   0  0  0  0  0  0  0  0  0  0  0  0
   -4.7970   58.1420   75.6590 C   0  0  0  0  0  0  0  0  0  0  0  0
   -4.1730   56.9690   75.5200 N   0  0  0  0  0  0  0  0  0  0  0  0
    3.3831   57.8746   76.2916 H   0  0  0  0  0  0  0  0  0  0  0  0
    2.7599   55.4704   76.3971 H   0  0  0  0  0  0  0  0  0  0  0  0
    0.8451   55.8034   72.5532 H   0  0  0  0  0  0  0  0  0  0  0  0
    1.4770   58.1990   72.4424 H   0  0  0  0  0  0  0  0  0  0  0  0
    2.7891   62.3768   74.5635 H   0  0  0  0  0  0  0  0  0  0  0  0
    1.0040   62.5193   74.2862 H   0  0  0  0  0  0  0  0  0  0  0  0
    1.6163   60.5399   75.6999 H   0  0  0  0  0  0  0  0  0  0  0  0
    0.7883   60.1011   74.1376 H   0  0  0  0  0  0  0  0  0  0  0  0
    4.4323   60.7462   73.5601 H   0  0  0  0  0  0  0  0  0  0  0  0
    4.1503   59.1787   72.6856 H   0  0  0  0  0  0  0  0  0  0  0  0
    2.1615   60.0925   71.6021 H   0  0  0  0  0  0  0  0  0  0  0  0
    3.5845   61.1765   71.3065 H   0  0  0  0  0  0  0  0  0  0  0  0
   -0.4848   65.5269   71.3924 H   0  0  0  0  0  0  0  0  0  0  0  0
   -0.0154   63.5248   72.7653 H   0  0  0  0  0  0  0  0  0  0  0  0
    3.6929   62.9488   70.6761 H   0  0  0  0  0  0  0  0  0  0  0  0
    3.2255   64.9481   69.2916 H   0  0  0  0  0  0  0  0  0  0  0  0
    2.7591   67.7854   69.8985 H   0  0  0  0  0  0  0  0  0  0  0  0
   -1.7733   68.5151   67.5666 H   0  0  0  0  0  0  0  0  0  0  0  0
   -0.5878   70.4541   68.6747 H   0  0  0  0  0  0  0  0  0  0  0  0
    0.3375   70.6754   67.1511 H   0  0  0  0  0  0  0  0  0  0  0  0
   -1.4495   70.8574   67.1511 H   0  0  0  0  0  0  0  0  0  0  0  0
    1.4886   68.4074   66.1532 H   0  0  0  0  0  0  0  0  0  0  0  0
    0.9507   67.5326   64.6794 H   0  0  0  0  0  0  0  0  0  0  0  0
    1.0317   69.3271   64.6794 H   0  0  0  0  0  0  0  0  0  0  0  0
   -1.1084   67.5321   65.5787 H   0  0  0  0  0  0  0  0  0  0  0  0
   -1.1189   69.3255   65.2323 H   0  0  0  0  0  0  0  0  0  0  0  0
   -0.2697   54.6620   73.2269 H   0  0  0  0  0  0  0  0  0  0  0  0
   -0.0497   52.9160   73.5438 H   0  0  0  0  0  0  0  0  0  0  0  0
   -1.7315   53.3611   74.9457 H   0  0  0  0  0  0  0  0  0  0  0  0
   -0.1890   52.5661   76.6161 H   0  0  0  0  0  0  0  0  0  0  0  0
    0.8257   53.9885   76.5437 H   0  0  0  0  0  0  0  0  0  0  0  0
   -0.5564   55.5680   79.3593 H   0  0  0  0  0  0  0  0  0  0  0  0
    0.6520   57.3876   80.5435 H   0  0  0  0  0  0  0  0  0  0  0  0
    0.3181   59.8859   77.0462 H   0  0  0  0  0  0  0  0  0  0  0  0
   -3.5320   54.7046   76.5593 H   0  0  0  0  0  0  0  0  0  0  0  0
   -3.1700   55.4258   78.2178 H   0  0  0  0  0  0  0  0  0  0  0  0
   -4.0267   57.7407   78.7066 H   0  0  0  0  0  0  0  0  0  0  0  0
   -5.2424   58.6765   74.8070 H   0  0  0  0  0  0  0  0  0  0  0  0
  2  1  2  0
  3  2  1  0
  4  3  2  0
  5  4  1  0
  6  5  2  0
  6  1  1  0
  8  7  1  0
  9  8  1  0
 10  9  1  0
 10  1  1  0
 11 10  1  0
 12  7  1  0
 12 11  1  0
 14 13  2  0
 15 14  1  0
 16 15  2  0
 16  7  1  0
 17 16  1  0
 18 17  2  0
 18 13  1  0
 20 19  1  0
 21 20  2  0
 22 21  1  0
 22 13  1  0
 23 19  1  0
 23 22  1  0
 24 23  2  0
 25 19  1  0
 26 25  1  0
 28 25  1  0
 28 27  1  0
 29  4  1  0
 30 29  1  0
 31 30  1  0
 32 31  1  0
 33 32  1  0
 34 33  1  0
 35 34  1  0
 35 31  1  0
 36 34  1  0
 37 36  2  0
 38 37  1  0
 39 38  2  0
 40 39  1  0
 41 40  2  0
 41 36  1  0
 42 41  1  0
 43 39  1  0
 34 44  1  6
 45 44  1  0
 46 45  1  0
 47 46  2  0
 48 47  1  0
 49 48  2  0
 49 45  1  0
  2 50  1  0
  3 51  1  0
  5 52  1  0
  6 53  1  0
  8 54  1  0
  8 55  1  0
  9 56  1  0
  9 57  1  0
 11 58  1  0
 11 59  1  0
 12 60  1  0
 12 61  1  0
 14 62  1  0
 15 63  1  0
 17 64  1  0
 18 65  1  0
 21 66  1  0
 25 67  1  1
 26 68  1  0
 26 69  1  0
 26 70  1  0
 27 71  1  0
 27 72  1  0
 27 73  1  0
 28 74  1  0
 28 75  1  0
 30 76  1  0
 30 77  1  0
 31 78  1  6
 32 79  1  0
 32 80  1  0
 37 81  1  0
 38 82  1  0
 40 83  1  0
 44 84  1  0
 44 85  1  0
 46 86  1  0
 48 87  1  0
M  END
>  <score>  (4) 
-9.582

$$$$
=
     RDKit          3D

 87 93  0  0  0  0  0  0  0  0999 V2000
    1.7070   63.7910   70.9180 C   0  0  0  0  0  0  0  0  0  0  0  0
    0.3490   63.8330   70.5760 C   0  0  0  0  0  0  0  0  0  0  0  0
   -0.2280   64.9640   69.9740 C   0  0  0  0  0  0  0  0  0  0  0  0
    0.5450   66.0880   69.7040 C   0  0  0  0  0  0  0  0  0  0  0  0
    1.8960   66.0690   70.0410 C   0  0  0  0  0  0  0  0  0  0  0  0
    2.4650   64.9380   70.6370 C   0  0  0  0  0  0  0  0  0  0  0  0
    1.6330   59.9700   72.4710 N   0  0  0  0  0  0  0  0  0  0  0  0
    2.6390   60.1780   71.4120 C   0  0  0  0  0  0  0  0  0  0  0  0
    2.3840   61.4900   70.6310 C   0  0  0  0  0  0  0  0  0  0  0  0
    2.3230   62.6840   71.5150 N   0  0  0  0  0  0  0  0  0  0  0  0
    2.1000   62.3830   72.9430 C   0  0  0  0  0  0  0  0  0  0  0  0
    1.1400   61.1910   73.1460 C   0  0  0  0  0  0  0  0  0  0  0  0
    0.7080   56.1080   74.0310 C   0  0  0  0  0  0  0  0  0  0  0  0
   -0.1570   57.1930   74.1910 C   0  0  0  0  0  0  0  0  0  0  0  0
    0.1550   58.4620   73.6760 C   0  0  0  0  0  0  0  0  0  0  0  0
    1.3410   58.7180   72.9790 C   0  0  0  0  0  0  0  0  0  0  0  0
    2.2000   57.6230   72.8180 C   0  0  0  0  0  0  0  0  0  0  0  0
    1.8970   56.3500   73.3320 C   0  0  0  0  0  0  0  0  0  0  0  0
   -0.3050   53.1150   75.7700 N   0  0  0  0  0  0  0  0  0  0  0  0
    0.3110   52.5830   74.6660 N   0  0  0  0  0  0  0  0  0  0  0  0
    0.7130   53.6260   74.0110 C   0  0  0  0  0  0  0  0  0  0  0  0
    0.4030   54.8270   74.5500 N   0  0  0  0  0  0  0  0  0  0  0  0
   -0.3130   54.5190   75.6960 C   0  0  0  0  0  0  0  0  0  0  0  0
   -0.8710   55.2590   76.4920 O   0  0  0  0  0  0  0  0  0  0  0  0
   -1.0930   52.3140   76.6980 C   0  0  1  0  0  0  0  0  0  0  0  0
   -0.4330   52.3190   78.0800 C   0  0  0  0  0  0  0  0  0  0  0  0
   -3.5070   51.8840   75.9710 C   0  0  0  0  0  0  0  0  0  0  0  0
   -2.5550   52.7900   76.7380 C   0  0  0  0  0  0  0  0  0  0  0  0
    0.1160   67.2450   69.1210 O   0  0  0  0  0  0  0  0  0  0  0  0
   -0.1370   67.2150   67.7140 C   0  0  0  0  0  0  0  0  0  0  0  0
    1.2000   67.2890   66.9850 C   0  0  1  0  0  0  0  0  0  0  0  0
    1.3330   66.2710   65.8880 C   0  0  0  0  0  0  0  0  0  0  0  0
    2.3800   66.8130   65.0820 O   0  0  0  0  0  0  0  0  0  0  0  0
    2.2200   68.2640   65.1680 C   0  0  2  0  0  0  0  0  0  0  0  0
    1.3400   68.5200   66.2690 O   0  0  0  0  0  0  0  0  0  0  0  0
    1.6360   68.7340   63.8290 C   0  0  0  0  0  0  0  0  0  0  0  0
    0.2810   69.1490   63.7970 C   0  0  0  0  0  0  0  0  0  0  0  0
   -0.3300   69.5760   62.6160 C   0  0  0  0  0  0  0  0  0  0  0  0
    0.3960   69.5910   61.4330 C   0  0  0  0  0  0  0  0  0  0  0  0
    1.7220   69.1770   61.4240 C   0  0  0  0  0  0  0  0  0  0  0  0
    2.3400   68.7470   62.6070 C   0  0  0  0  0  0  0  0  0  0  0  0
    3.9750   68.2160   62.4360 Cl  0  0  0  0  0  0  0  0  0  0  0  0
   -0.3520   70.1150   59.9770 Cl  0  0  0  0  0  0  0  0  0  0  0  0
    3.6340   68.8170   65.4320 C   0  0  0  0  0  0  0  0  0  0  0  0
    3.7960   69.5580   66.6580 N   0  0  0  0  0  0  0  0  0  0  0  0
    4.8920   70.2540   67.0700 C   0  0  0  0  0  0  0  0  0  0  0  0
    4.6910   70.7130   68.2840 N   0  0  0  0  0  0  0  0  0  0  0  0
    3.4470   70.2350   68.5880 C   0  0  0  0  0  0  0  0  0  0  0  0
    2.8780   69.4860   67.6400 N   0  0  0  0  0  0  0  0  0  0  0  0
   -0.2826   62.9569   70.7844 H   0  0  0  0  0  0  0  0  0  0  0  0
   -1.2970   64.9603   69.7149 H   0  0  0  0  0  0  0  0  0  0  0  0
    2.5213   66.9507   69.8369 H   0  0  0  0  0  0  0  0  0  0  0  0
    3.5350   64.9483   70.8920 H   0  0  0  0  0  0  0  0  0  0  0  0
    3.6369   60.2252   71.8724 H   0  0  0  0  0  0  0  0  0  0  0  0
    2.5711   59.3386   70.7044 H   0  0  0  0  0  0  0  0  0  0  0  0
    3.1986   61.6311   69.9054 H   0  0  0  0  0  0  0  0  0  0  0  0
    1.4071   61.3953   70.1343 H   0  0  0  0  0  0  0  0  0  0  0  0
    3.0668   62.1423   73.4092 H   0  0  0  0  0  0  0  0  0  0  0  0
    1.6407   63.2686   73.4065 H   0  0  0  0  0  0  0  0  0  0  0  0
    0.1544   61.4529   72.7338 H   0  0  0  0  0  0  0  0  0  0  0  0
    1.0740   60.9837   74.2243 H   0  0  0  0  0  0  0  0  0  0  0  0
   -1.1038   57.0505   74.7325 H   0  0  0  0  0  0  0  0  0  0  0  0
   -0.5594   59.2849   73.8262 H   0  0  0  0  0  0  0  0  0  0  0  0
    3.1437   57.7641   72.2708 H   0  0  0  0  0  0  0  0  0  0  0  0
    2.6098   55.5258   73.1817 H   0  0  0  0  0  0  0  0  0  0  0  0
    1.2749   53.5396   73.0693 H   0  0  0  0  0  0  0  0  0  0  0  0
   -1.1185   51.2722   76.3458 H   0  0  0  0  0  0  0  0  0  0  0  0
   -1.2108   52.3131   78.8578 H   0  0  0  0  0  0  0  0  0  0  0  0
    0.1997   51.4256   78.1874 H   0  0  0  0  0  0  0  0  0  0  0  0
    0.1861   53.2219   78.1874 H   0  0  0  0  0  0  0  0  0  0  0  0
   -4.1151   51.3053   76.6819 H   0  0  0  0  0  0  0  0  0  0  0  0
   -4.1662   52.4965   75.3383 H   0  0  0  0  0  0  0  0  0  0  0  0
   -2.9279   51.1953   75.3383 H   0  0  0  0  0  0  0  0  0  0  0  0
   -2.8805   52.8286   77.7880 H   0  0  0  0  0  0  0  0  0  0  0  0
   -2.5880   53.7781   76.2557 H   0  0  0  0  0  0  0  0  0  0  0  0
   -0.6539   66.2809   67.4489 H   0  0  0  0  0  0  0  0  0  0  0  0
   -0.7733   68.0646   67.4254 H   0  0  0  0  0  0  0  0  0  0  0  0
    1.9375   67.1457   67.7885 H   0  0  0  0  0  0  0  0  0  0  0  0
    1.6124   65.2868   66.2920 H   0  0  0  0  0  0  0  0  0  0  0  0
    0.3981   66.1022   65.3335 H   0  0  0  0  0  0  0  0  0  0  0  0
   -0.3052   69.1343   64.7277 H   0  0  0  0  0  0  0  0  0  0  0  0
   -1.3815   69.8989   62.6232 H   0  0  0  0  0  0  0  0  0  0  0  0
    2.2910   69.1866   60.4826 H   0  0  0  0  0  0  0  0  0  0  0  0
    4.3306   67.9661   65.4567 H   0  0  0  0  0  0  0  0  0  0  0  0
    3.8328   69.5324   64.6204 H   0  0  0  0  0  0  0  0  0  0  0  0
    5.8055   70.4080   66.4768 H   0  0  0  0  0  0  0  0  0  0  0  0
    2.9501   70.4518   69.5451 H   0  0  0  0  0  0  0  0  0  0  0  0
  2  1  2  0
  3  2  1  0
  4  3  2  0
  5  4  1  0
  6  5  2  0
  6  1  1  0
  8  7  1  0
  9  8  1  0
 10  9  1  0
 10  1  1  0
 11 10  1  0
 12  7  1  0
 12 11  1  0
 14 13  2  0
 15 14  1  0
 16 15  2  0
 16  7  1  0
 17 16  1  0
 18 17  2  0
 18 13  1  0
 20 19  1  0
 21 20  2  0
 22 21  1  0
 22 13  1  0
 23 19  1  0
 23 22  1  0
 24 23  2  0
 25 19  1  0
 26 25  1  0
 28 25  1  0
 28 27  1  0
 29  4  1  0
 30 29  1  0
 31 30  1  0
 32 31  1  0
 33 32  1  0
 34 33  1  0
 35 34  1  0
 35 31  1  0
 36 34  1  0
 37 36  2  0
 38 37  1  0
 39 38  2  0
 40 39  1  0
 41 40  2  0
 41 36  1  0
 42 41  1  0
 43 39  1  0
 34 44  1  1
 45 44  1  0
 46 45  1  0
 47 46  2  0
 48 47  1  0
 49 48  2  0
 49 45  1  0
  2 50  1  0
  3 51  1  0
  5 52  1  0
  6 53  1  0
  8 54  1  0
  8 55  1  0
  9 56  1  0
  9 57  1  0
 11 58  1  0
 11 59  1  0
 12 60  1  0
 12 61  1  0
 14 62  1  0
 15 63  1  0
 17 64  1  0
 18 65  1  0
 21 66  1  0
 25 67  1  6
 26 68  1  0
 26 69  1  0
 26 70  1  0
 27 71  1  0
 27 72  1  0
 27 73  1  0
 28 74  1  0
 28 75  1  0
 30 76  1  0
 30 77  1  0
 31 78  1  1
 32 79  1  0
 32 80  1  0
 37 81  1  0
 38 82  1  0
 40 83  1  0
 44 84  1  0
 44 85  1  0
 46 86  1  0
 48 87  1  0
M  END
>  <score>  (5) 
-9.526

$$$$
=
     RDKit          3D

 87 93  0  0  0  0  0  0  0  0999 V2000
    0.1380   62.5020   75.0310 C   0  0  0  0  0  0  0  0  0  0  0  0
   -1.0440   61.8480   74.6570 C   0  0  0  0  0  0  0  0  0  0  0  0
   -1.5180   60.7220   75.3500 C   0  0  0  0  0  0  0  0  0  0  0  0
   -0.8140   60.2180   76.4380 C   0  0  0  0  0  0  0  0  0  0  0  0
    0.3660   60.8490   76.8230 C   0  0  0  0  0  0  0  0  0  0  0  0
    0.8310   61.9720   76.1310 C   0  0  0  0  0  0  0  0  0  0  0  0
    0.3640   65.0330   71.7830 N   0  0  0  0  0  0  0  0  0  0  0  0
    0.0520   65.7060   73.0590 C   0  0  0  0  0  0  0  0  0  0  0  0
   -0.3700   64.6920   74.1500 C   0  0  0  0  0  0  0  0  0  0  0  0
    0.6440   63.6280   74.3720 N   0  0  0  0  0  0  0  0  0  0  0  0
    1.6280   63.4780   73.2820 C   0  0  0  0  0  0  0  0  0  0  0  0
    0.9970   63.7010   71.8900 C   0  0  0  0  0  0  0  0  0  0  0  0
    0.2010   67.0500   68.0270 C   0  0  0  0  0  0  0  0  0  0  0  0
    1.3680   67.0170   68.7940 C   0  0  0  0  0  0  0  0  0  0  0  0
    1.4140   66.3520   70.0310 C   0  0  0  0  0  0  0  0  0  0  0  0
    0.3030   65.6900   70.5680 C   0  0  0  0  0  0  0  0  0  0  0  0
   -0.8600   65.7230   69.7890 C   0  0  0  0  0  0  0  0  0  0  0  0
   -0.9150   66.3890   68.5510 C   0  0  0  0  0  0  0  0  0  0  0  0
    0.4980   68.4570   64.7180 N   0  0  0  0  0  0  0  0  0  0  0  0
   -0.5980   69.1300   65.1940 N   0  0  0  0  0  0  0  0  0  0  0  0
   -0.7370   68.6710   66.3980 C   0  0  0  0  0  0  0  0  0  0  0  0
    0.1450   67.7210   66.7810 N   0  0  0  0  0  0  0  0  0  0  0  0
    0.9500   67.5260   65.6700 C   0  0  0  0  0  0  0  0  0  0  0  0
    1.8530   66.7220   65.4890 O   0  0  0  0  0  0  0  0  0  0  0  0
    0.9080   68.5020   63.3210 C   0  0  1  0  0  0  0  0  0  0  0  0
   -0.0720   69.3610   62.5190 C   0  0  0  0  0  0  0  0  0  0  0  0
    3.2420   68.0280   62.3870 C   0  0  0  0  0  0  0  0  0  0  0  0
    2.3640   68.9800   63.1850 C   0  0  0  0  0  0  0  0  0  0  0  0
   -1.1630   59.1390   77.1990 O   0  0  0  0  0  0  0  0  0  0  0  0
   -2.0920   58.2120   76.6330 C   0  0  0  0  0  0  0  0  0  0  0  0
   -1.3050   57.0720   75.9960 C   0  0  1  0  0  0  0  0  0  0  0  0
   -1.4420   57.0200   74.5010 C   0  0  0  0  0  0  0  0  0  0  0  0
   -0.3110   56.2430   74.1080 O   0  0  0  0  0  0  0  0  0  0  0  0
    0.7410   56.5830   75.0640 C   0  0  2  0  0  0  0  0  0  0  0  0
    0.1050   57.2510   76.1610 O   0  0  0  0  0  0  0  0  0  0  0  0
    1.7440   57.4840   74.3310 C   0  0  0  0  0  0  0  0  0  0  0  0
    1.7040   57.5180   72.9160 C   0  0  0  0  0  0  0  0  0  0  0  0
    2.5930   58.3000   72.1730 C   0  0  0  0  0  0  0  0  0  0  0  0
    3.5520   59.0600   72.8280 C   0  0  0  0  0  0  0  0  0  0  0  0
    3.6310   59.0380   74.2150 C   0  0  0  0  0  0  0  0  0  0  0  0
    2.7410   58.2550   74.9650 C   0  0  0  0  0  0  0  0  0  0  0  0
    2.9870   58.2880   76.6750 Cl  0  0  0  0  0  0  0  0  0  0  0  0
    4.6480   60.0220   71.9180 Cl  0  0  0  0  0  0  0  0  0  0  0  0
    1.3510   55.2360   75.5000 C   0  0  0  0  0  0  0  0  0  0  0  0
    0.5920   54.0630   75.1460 N   0  0  0  0  0  0  0  0  0  0  0  0
   -0.3520   53.4280   75.8940 C   0  0  0  0  0  0  0  0  0  0  0  0
   -0.7500   52.3420   75.2720 N   0  0  0  0  0  0  0  0  0  0  0  0
    0.0180   52.3410   74.1420 C   0  0  0  0  0  0  0  0  0  0  0  0
    0.8850   53.3510   74.0410 N   0  0  0  0  0  0  0  0  0  0  0  0
   -1.6160   62.2270   73.7972 H   0  0  0  0  0  0  0  0  0  0  0  0
   -2.4516   60.2361   75.0302 H   0  0  0  0  0  0  0  0  0  0  0  0
    0.9375   60.4608   77.6790 H   0  0  0  0  0  0  0  0  0  0  0  0
    1.7649   62.4529   76.4574 H   0  0  0  0  0  0  0  0  0  0  0  0
    0.9440   66.2499   73.4031 H   0  0  0  0  0  0  0  0  0  0  0  0
   -0.7873   66.3961   72.8877 H   0  0  0  0  0  0  0  0  0  0  0  0
   -0.5219   65.2351   75.0945 H   0  0  0  0  0  0  0  0  0  0  0  0
   -1.2935   64.2025   73.8072 H   0  0  0  0  0  0  0  0  0  0  0  0
    2.4328   64.2136   73.4279 H   0  0  0  0  0  0  0  0  0  0  0  0
    2.0146   62.4487   73.3160 H   0  0  0  0  0  0  0  0  0  0  0  0
    0.2332   62.9285   71.7170 H   0  0  0  0  0  0  0  0  0  0  0  0
    1.7969   63.6403   71.1374 H   0  0  0  0  0  0  0  0  0  0  0  0
    2.2710   67.5228   68.4214 H   0  0  0  0  0  0  0  0  0  0  0  0
    2.3567   66.3514   70.5979 H   0  0  0  0  0  0  0  0  0  0  0  0
   -1.7611   65.2109   70.1574 H   0  0  0  0  0  0  0  0  0  0  0  0
   -1.8566   66.3900   67.9823 H   0  0  0  0  0  0  0  0  0  0  0  0
   -1.5282   69.0341   67.0704 H   0  0  0  0  0  0  0  0  0  0  0  0
    0.8784   67.4853   62.9021 H   0  0  0  0  0  0  0  0  0  0  0  0
   -0.7156   69.9251   63.2101 H   0  0  0  0  0  0  0  0  0  0  0  0
    0.4896   70.0631   61.8852 H   0  0  0  0  0  0  0  0  0  0  0  0
   -0.6945   68.7123   61.8852 H   0  0  0  0  0  0  0  0  0  0  0  0
    3.8225   67.3986   63.0776 H   0  0  0  0  0  0  0  0  0  0  0  0
    2.6090   67.3896   61.7532 H   0  0  0  0  0  0  0  0  0  0  0  0
    3.9294   68.6074   61.7532 H   0  0  0  0  0  0  0  0  0  0  0  0
    2.3640   69.9583   62.6820 H   0  0  0  0  0  0  0  0  0  0  0  0
    2.7836   69.0336   64.2004 H   0  0  0  0  0  0  0  0  0  0  0  0
   -2.7485   57.8154   77.4215 H   0  0  0  0  0  0  0  0  0  0  0  0
   -2.7126   58.7130   75.8755 H   0  0  0  0  0  0  0  0  0  0  0  0
   -1.7091   56.1761   76.4900 H   0  0  0  0  0  0  0  0  0  0  0  0
   -2.3816   56.5300   74.2058 H   0  0  0  0  0  0  0  0  0  0  0  0
   -1.4726   58.0141   74.0311 H   0  0  0  0  0  0  0  0  0  0  0  0
    0.9531   56.9127   72.3872 H   0  0  0  0  0  0  0  0  0  0  0  0
    2.5328   58.3130   71.0747 H   0  0  0  0  0  0  0  0  0  0  0  0
    4.3965   59.6385   74.7283 H   0  0  0  0  0  0  0  0  0  0  0  0
    2.3444   55.1487   75.0358 H   0  0  0  0  0  0  0  0  0  0  0  0
    1.3732   55.2585   76.5995 H   0  0  0  0  0  0  0  0  0  0  0  0
   -0.7244   53.7721   76.8702 H   0  0  0  0  0  0  0  0  0  0  0  0
   -0.0718   51.5627   73.3698 H   0  0  0  0  0  0  0  0  0  0  0  0
  2  1  2  0
  3  2  1  0
  4  3  2  0
  5  4  1  0
  6  5  2  0
  6  1  1  0
  8  7  1  0
  9  8  1  0
 10  9  1  0
 10  1  1  0
 11 10  1  0
 12  7  1  0
 12 11  1  0
 14 13  2  0
 15 14  1  0
 16 15  2  0
 16  7  1  0
 17 16  1  0
 18 17  2  0
 18 13  1  0
 20 19  1  0
 21 20  2  0
 22 21  1  0
 22 13  1  0
 23 19  1  0
 23 22  1  0
 24 23  2  0
 25 19  1  0
 26 25  1  0
 28 25  1  0
 28 27  1  0
 29  4  1  0
 30 29  1  0
 31 30  1  0
 32 31  1  0
 33 32  1  0
 34 33  1  0
 35 34  1  0
 35 31  1  0
 36 34  1  0
 37 36  2  0
 38 37  1  0
 39 38  2  0
 40 39  1  0
 41 40  2  0
 41 36  1  0
 42 41  1  0
 43 39  1  0
 34 44  1  1
 45 44  1  0
 46 45  1  0
 47 46  2  0
 48 47  1  0
 49 48  2  0
 49 45  1  0
  2 50  1  0
  3 51  1  0
  5 52  1  0
  6 53  1  0
  8 54  1  0
  8 55  1  0
  9 56  1  0
  9 57  1  0
 11 58  1  0
 11 59  1  0
 12 60  1  0
 12 61  1  0
 14 62  1  0
 15 63  1  0
 17 64  1  0
 18 65  1  0
 21 66  1  0
 25 67  1  6
 26 68  1  0
 26 69  1  0
 26 70  1  0
 27 71  1  0
 27 72  1  0
 27 73  1  0
 28 74  1  0
 28 75  1  0
 30 76  1  0
 30 77  1  0
 31 78  1  1
 32 79  1  0
 32 80  1  0
 37 81  1  0
 38 82  1  0
 40 83  1  0
 44 84  1  0
 44 85  1  0
 46 86  1  0
 48 87  1  0
M  END
>  <score>  (6) 
-9.514

$$$$
=
     RDKit          3D

 87 93  0  0  0  0  0  0  0  0999 V2000
    2.0960   58.8800   74.3430 C   0  0  0  0  0  0  0  0  0  0  0  0
    1.8120   58.1110   73.2070 C   0  0  0  0  0  0  0  0  0  0  0  0
    1.8660   56.7080   73.2300 C   0  0  0  0  0  0  0  0  0  0  0  0
    2.2130   56.0370   74.3980 C   0  0  0  0  0  0  0  0  0  0  0  0
    2.5050   56.7820   75.5370 C   0  0  0  0  0  0  0  0  0  0  0  0
    2.4460   58.1800   75.5080 C   0  0  0  0  0  0  0  0  0  0  0  0
    1.6240   62.5440   72.5080 N   0  0  0  0  0  0  0  0  0  0  0  0
    0.7370   62.3240   73.6670 C   0  0  0  0  0  0  0  0  0  0  0  0
    0.7000   60.8330   74.0820 C   0  0  0  0  0  0  0  0  0  0  0  0
    2.0510   60.2790   74.3640 N   0  0  0  0  0  0  0  0  0  0  0  0
    3.1690   61.0730   73.8180 C   0  0  0  0  0  0  0  0  0  0  0  0
    2.8310   61.6900   72.4430 C   0  0  0  0  0  0  0  0  0  0  0  0
    1.1790   65.9130   69.9290 C   0  0  0  0  0  0  0  0  0  0  0  0
    0.1970   65.5640   70.8580 C   0  0  0  0  0  0  0  0  0  0  0  0
    0.3500   64.4520   71.7040 C   0  0  0  0  0  0  0  0  0  0  0  0
    1.4840   63.6310   71.6660 C   0  0  0  0  0  0  0  0  0  0  0  0
    2.4650   63.9930   70.7340 C   0  0  0  0  0  0  0  0  0  0  0  0
    2.3190   65.1020   69.8830 C   0  0  0  0  0  0  0  0  0  0  0  0
    0.3890   68.4740   67.5140 N   0  0  0  0  0  0  0  0  0  0  0  0
    1.4300   69.0590   68.1890 N   0  0  0  0  0  0  0  0  0  0  0  0
    1.7670   68.1640   69.0630 C   0  0  0  0  0  0  0  0  0  0  0  0
    1.0310   67.0300   69.0710 N   0  0  0  0  0  0  0  0  0  0  0  0
    0.0790   67.2260   68.0830 C   0  0  0  0  0  0  0  0  0  0  0  0
   -0.8590   66.5180   67.7480 O   0  0  0  0  0  0  0  0  0  0  0  0
   -0.4450   69.2000   66.5650 C   0  0  1  0  0  0  0  0  0  0  0  0
   -0.1700   68.7020   65.1440 C   0  0  0  0  0  0  0  0  0  0  0  0
   -2.8050   68.5260   65.8450 C   0  0  0  0  0  0  0  0  0  0  0  0
   -1.9320   69.1070   66.9480 C   0  0  0  0  0  0  0  0  0  0  0  0
    2.2990   54.6840   74.5600 O   0  0  0  0  0  0  0  0  0  0  0  0
    1.3270   53.8810   73.8870 C   0  0  0  0  0  0  0  0  0  0  0  0
    0.0750   53.8120   74.7560 C   0  0  1  0  0  0  0  0  0  0  0  0
    0.3770   53.5900   76.2110 C   0  0  0  0  0  0  0  0  0  0  0  0
   -0.8230   54.0240   76.8510 O   0  0  0  0  0  0  0  0  0  0  0  0
   -1.3210   55.1250   76.0270 C   0  0  2  0  0  0  0  0  0  0  0  0
   -0.6160   55.0640   74.7810 O   0  0  0  0  0  0  0  0  0  0  0  0
   -1.0440   56.4250   76.7940 C   0  0  0  0  0  0  0  0  0  0  0  0
   -0.7450   56.3370   78.1760 C   0  0  0  0  0  0  0  0  0  0  0  0
   -0.4960   57.4740   78.9490 C   0  0  0  0  0  0  0  0  0  0  0  0
   -0.5500   58.7300   78.3610 C   0  0  0  0  0  0  0  0  0  0  0  0
   -0.8560   58.8560   77.0120 C   0  0  0  0  0  0  0  0  0  0  0  0
   -1.1070   57.7170   76.2320 C   0  0  0  0  0  0  0  0  0  0  0  0
   -1.5210   58.0270   74.5830 Cl  0  0  0  0  0  0  0  0  0  0  0  0
   -0.2460   60.1310   79.3090 Cl  0  0  0  0  0  0  0  0  0  0  0  0
   -2.8270   54.8490   75.8400 C   0  0  0  0  0  0  0  0  0  0  0  0
   -3.3740   53.7960   76.6570 N   0  0  0  0  0  0  0  0  0  0  0  0
   -3.5740   52.4940   76.3100 C   0  0  0  0  0  0  0  0  0  0  0  0
   -4.1810   51.8650   77.2910 N   0  0  0  0  0  0  0  0  0  0  0  0
   -4.3620   52.8520   78.2180 C   0  0  0  0  0  0  0  0  0  0  0  0
   -3.9240   54.0610   77.8570 N   0  0  0  0  0  0  0  0  0  0  0  0
    1.5391   58.6204   72.2710 H   0  0  0  0  0  0  0  0  0  0  0  0
    1.6327   56.1365   72.3195 H   0  0  0  0  0  0  0  0  0  0  0  0
    2.7846   56.2674   76.4681 H   0  0  0  0  0  0  0  0  0  0  0  0
    2.6801   58.7450   76.4223 H   0  0  0  0  0  0  0  0  0  0  0  0
    1.1030   62.9215   74.5150 H   0  0  0  0  0  0  0  0  0  0  0  0
   -0.2815   62.6272   73.3830 H   0  0  0  0  0  0  0  0  0  0  0  0
    0.0842   60.7357   74.9883 H   0  0  0  0  0  0  0  0  0  0  0  0
    0.2788   60.2653   73.2392 H   0  0  0  0  0  0  0  0  0  0  0  0
    3.4038   61.8847   74.5222 H   0  0  0  0  0  0  0  0  0  0  0  0
    4.0274   60.3985   73.6831 H   0  0  0  0  0  0  0  0  0  0  0  0
    2.6550   60.8784   71.7216 H   0  0  0  0  0  0  0  0  0  0  0  0
    3.6788   62.3177   72.1311 H   0  0  0  0  0  0  0  0  0  0  0  0
   -0.7165   66.1726   70.9294 H   0  0  0  0  0  0  0  0  0  0  0  0
   -0.4499   64.2181   72.4219 H   0  0  0  0  0  0  0  0  0  0  0  0
    3.3814   63.3884   70.6658 H   0  0  0  0  0  0  0  0  0  0  0  0
    3.1182   65.3379   69.1650 H   0  0  0  0  0  0  0  0  0  0  0  0
    2.6046   68.3181   69.7592 H   0  0  0  0  0  0  0  0  0  0  0  0
   -0.1856   70.2684   66.5990 H   0  0  0  0  0  0  0  0  0  0  0  0
    0.3613   67.7399   65.1891 H   0  0  0  0  0  0  0  0  0  0  0  0
   -1.1231   68.5700   64.6109 H   0  0  0  0  0  0  0  0  0  0  0  0
    0.4494   69.4383   64.6109 H   0  0  0  0  0  0  0  0  0  0  0  0
   -3.6410   67.9696   66.2939 H   0  0  0  0  0  0  0  0  0  0  0  0
   -3.2001   69.3419   65.2220 H   0  0  0  0  0  0  0  0  0  0  0  0
   -2.2049   67.8465   65.2220 H   0  0  0  0  0  0  0  0  0  0  0  0
   -2.0234   68.4675   67.8383 H   0  0  0  0  0  0  0  0  0  0  0  0
   -2.2840   70.1323   67.1346 H   0  0  0  0  0  0  0  0  0  0  0  0
    1.0802   54.3330   72.9150 H   0  0  0  0  0  0  0  0  0  0  0  0
    1.7248   52.8698   73.7160 H   0  0  0  0  0  0  0  0  0  0  0  0
   -0.5002   52.9865   74.3114 H   0  0  0  0  0  0  0  0  0  0  0  0
    0.5746   52.5278   76.4174 H   0  0  0  0  0  0  0  0  0  0  0  0
    1.2739   54.1247   76.5569 H   0  0  0  0  0  0  0  0  0  0  0  0
   -0.7079   55.3467   78.6534 H   0  0  0  0  0  0  0  0  0  0  0  0
   -0.2583   57.3741   80.0184 H   0  0  0  0  0  0  0  0  0  0  0  0
   -0.9018   59.8544   76.5526 H   0  0  0  0  0  0  0  0  0  0  0  0
   -3.3721   55.7756   76.0729 H   0  0  0  0  0  0  0  0  0  0  0  0
   -2.9439   54.5132   74.7991 H   0  0  0  0  0  0  0  0  0  0  0  0
   -3.2734   52.0389   75.3548 H   0  0  0  0  0  0  0  0  0  0  0  0
   -4.8352   52.6642   79.1931 H   0  0  0  0  0  0  0  0  0  0  0  0
  2  1  2  0
  3  2  1  0
  4  3  2  0
  5  4  1  0
  6  5  2  0
  6  1  1  0
  8  7  1  0
  9  8  1  0
 10  9  1  0
 10  1  1  0
 11 10  1  0
 12  7  1  0
 12 11  1  0
 14 13  2  0
 15 14  1  0
 16 15  2  0
 16  7  1  0
 17 16  1  0
 18 17  2  0
 18 13  1  0
 20 19  1  0
 21 20  2  0
 22 21  1  0
 22 13  1  0
 23 19  1  0
 23 22  1  0
 24 23  2  0
 25 19  1  0
 26 25  1  0
 28 25  1  0
 28 27  1  0
 29  4  1  0
 30 29  1  0
 31 30  1  0
 32 31  1  0
 33 32  1  0
 34 33  1  0
 35 34  1  0
 35 31  1  0
 36 34  1  0
 37 36  2  0
 38 37  1  0
 39 38  2  0
 40 39  1  0
 41 40  2  0
 41 36  1  0
 42 41  1  0
 43 39  1  0
 34 44  1  6
 45 44  1  0
 46 45  1  0
 47 46  2  0
 48 47  1  0
 49 48  2  0
 49 45  1  0
  2 50  1  0
  3 51  1  0
  5 52  1  0
  6 53  1  0
  8 54  1  0
  8 55  1  0
  9 56  1  0
  9 57  1  0
 11 58  1  0
 11 59  1  0
 12 60  1  0
 12 61  1  0
 14 62  1  0
 15 63  1  0
 17 64  1  0
 18 65  1  0
 21 66  1  0
 25 67  1  6
 26 68  1  0
 26 69  1  0
 26 70  1  0
 27 71  1  0
 27 72  1  0
 27 73  1  0
 28 74  1  0
 28 75  1  0
 30 76  1  0
 30 77  1  0
 31 78  1  6
 32 79  1  0
 32 80  1  0
 37 81  1  0
 38 82  1  0
 40 83  1  0
 44 84  1  0
 44 85  1  0
 46 86  1  0
 48 87  1  0
M  END
>  <score>  (7) 
-9.513

$$$$
=
     RDKit          3D

 87 93  0  0  0  0  0  0  0  0999 V2000
    1.4700   57.7940   74.1430 C   0  0  0  0  0  0  0  0  0  0  0  0
    0.2410   57.3410   73.6450 C   0  0  0  0  0  0  0  0  0  0  0  0
   -0.1090   55.9810   73.6620 C   0  0  0  0  0  0  0  0  0  0  0  0
    0.7700   55.0350   74.1770 C   0  0  0  0  0  0  0  0  0  0  0  0
    1.9990   55.4620   74.6720 C   0  0  0  0  0  0  0  0  0  0  0  0
    2.3400   56.8190   74.6550 C   0  0  0  0  0  0  0  0  0  0  0  0
    1.4550   61.6010   72.5580 N   0  0  0  0  0  0  0  0  0  0  0  0
    1.0550   61.5310   73.9770 C   0  0  0  0  0  0  0  0  0  0  0  0
    0.7350   60.0790   74.4080 C   0  0  0  0  0  0  0  0  0  0  0  0
    1.8570   59.1390   74.1490 N   0  0  0  0  0  0  0  0  0  0  0  0
    2.8640   59.6320   73.1890 C   0  0  0  0  0  0  0  0  0  0  0  0
    2.2290   60.4510   72.0430 C   0  0  0  0  0  0  0  0  0  0  0  0
    1.0760   65.1910   70.2830 C   0  0  0  0  0  0  0  0  0  0  0  0
    0.0610   64.7500   71.1350 C   0  0  0  0  0  0  0  0  0  0  0  0
    0.1930   63.5660   71.8810 C   0  0  0  0  0  0  0  0  0  0  0  0
    1.3360   62.7610   71.8140 C   0  0  0  0  0  0  0  0  0  0  0  0
    2.3500   63.2140   70.9620 C   0  0  0  0  0  0  0  0  0  0  0  0
    2.2260   64.3960   70.2100 C   0  0  0  0  0  0  0  0  0  0  0  0
    0.3020   67.9910   68.1450 N   0  0  0  0  0  0  0  0  0  0  0  0
    1.4450   68.4360   68.7600 N   0  0  0  0  0  0  0  0  0  0  0  0
    1.7770   67.4500   69.5320 C   0  0  0  0  0  0  0  0  0  0  0  0
    0.9510   66.3810   69.5260 N   0  0  0  0  0  0  0  0  0  0  0  0
   -0.0630   66.7300   68.6470 C   0  0  0  0  0  0  0  0  0  0  0  0
   -1.0840   66.1270   68.3520 O   0  0  0  0  0  0  0  0  0  0  0  0
   -0.5460   68.8540   67.3320 C   0  0  1  0  0  0  0  0  0  0  0  0
   -0.2630   70.3210   67.6630 C   0  0  0  0  0  0  0  0  0  0  0  0
    1.0640   68.3360   65.4130 C   0  0  0  0  0  0  0  0  0  0  0  0
   -0.3830   68.5420   65.8350 C   0  0  0  0  0  0  0  0  0  0  0  0
    0.5560   53.6890   74.2590 O   0  0  0  0  0  0  0  0  0  0  0  0
   -0.7300   53.2580   74.7110 C   0  0  0  0  0  0  0  0  0  0  0  0
   -0.7560   53.3370   76.2340 C   0  0  1  0  0  0  0  0  0  0  0  0
    0.5460   52.9400   76.8690 C   0  0  0  0  0  0  0  0  0  0  0  0
    0.4520   53.5240   78.1680 O   0  0  0  0  0  0  0  0  0  0  0  0
   -0.3020   54.7630   77.9800 C   0  0  2  0  0  0  0  0  0  0  0  0
   -0.9120   54.6860   76.6860 O   0  0  0  0  0  0  0  0  0  0  0  0
    0.6990   55.9220   78.0880 C   0  0  0  0  0  0  0  0  0  0  0  0
    1.9840   55.6510   78.6200 C   0  0  0  0  0  0  0  0  0  0  0  0
    2.9460   56.6530   78.7660 C   0  0  0  0  0  0  0  0  0  0  0  0
    2.6440   57.9550   78.3920 C   0  0  0  0  0  0  0  0  0  0  0  0
    1.3890   58.2610   77.8810 C   0  0  0  0  0  0  0  0  0  0  0  0
    0.4190   57.2580   77.7320 C   0  0  0  0  0  0  0  0  0  0  0  0
   -1.1100   57.7910   77.1300 Cl  0  0  0  0  0  0  0  0  0  0  0  0
    3.8250   59.1920   78.5710 Cl  0  0  0  0  0  0  0  0  0  0  0  0
   -1.3570   54.7760   79.1040 C   0  0  0  0  0  0  0  0  0  0  0  0
   -2.6940   54.4080   78.7090 N   0  0  0  0  0  0  0  0  0  0  0  0
   -3.7260   55.2400   78.3980 C   0  0  0  0  0  0  0  0  0  0  0  0
   -4.8120   54.5320   78.1830 N   0  0  0  0  0  0  0  0  0  0  0  0
   -4.3900   53.2530   78.4100 C   0  0  0  0  0  0  0  0  0  0  0  0
   -3.1120   53.1310   78.7780 N   0  0  0  0  0  0  0  0  0  0  0  0
   -0.4693   58.0708   73.2292 H   0  0  0  0  0  0  0  0  0  0  0  0
   -1.0843   55.6624   73.2655 H   0  0  0  0  0  0  0  0  0  0  0  0
    2.7080   54.7265   75.0799 H   0  0  0  0  0  0  0  0  0  0  0  0
    3.3168   57.1301   75.0539 H   0  0  0  0  0  0  0  0  0  0  0  0
    1.8770   61.9150   74.5989 H   0  0  0  0  0  0  0  0  0  0  0  0
    0.1465   62.1371   74.1086 H   0  0  0  0  0  0  0  0  0  0  0  0
    0.5137   60.0732   75.4855 H   0  0  0  0  0  0  0  0  0  0  0  0
   -0.1249   59.7393   73.8121 H   0  0  0  0  0  0  0  0  0  0  0  0
    3.5812   60.2708   73.7253 H   0  0  0  0  0  0  0  0  0  0  0  0
    3.3606   58.7576   72.7431 H   0  0  0  0  0  0  0  0  0  0  0  0
    1.5568   59.7976   71.4675 H   0  0  0  0  0  0  0  0  0  0  0  0
    3.0393   60.8390   71.4082 H   0  0  0  0  0  0  0  0  0  0  0  0
   -0.8618   65.3421   71.2242 H   0  0  0  0  0  0  0  0  0  0  0  0
   -0.6321   63.2610   72.5415 H   0  0  0  0  0  0  0  0  0  0  0  0
    3.2755   62.6254   70.8777 H   0  0  0  0  0  0  0  0  0  0  0  0
    3.0508   64.7026   69.5499 H   0  0  0  0  0  0  0  0  0  0  0  0
    2.6812   67.4815   70.1576 H   0  0  0  0  0  0  0  0  0  0  0  0
   -1.6009   68.6561   67.5730 H   0  0  0  0  0  0  0  0  0  0  0  0
   -0.2377   70.4522   68.7548 H   0  0  0  0  0  0  0  0  0  0  0  0
    0.7079   70.6125   67.2360 H   0  0  0  0  0  0  0  0  0  0  0  0
   -1.0558   70.9528   67.2360 H   0  0  0  0  0  0  0  0  0  0  0  0
    1.6976   68.2458   66.3077 H   0  0  0  0  0  0  0  0  0  0  0  0
    1.1438   67.4174   64.8131 H   0  0  0  0  0  0  0  0  0  0  0  0
    1.3969   69.1958   64.8131 H   0  0  0  0  0  0  0  0  0  0  0  0
   -0.9463   67.6251   65.6069 H   0  0  0  0  0  0  0  0  0  0  0  0
   -0.7616   69.4127   65.2795 H   0  0  0  0  0  0  0  0  0  0  0  0
   -1.5094   53.9113   74.2917 H   0  0  0  0  0  0  0  0  0  0  0  0
   -0.9196   52.2254   74.3827 H   0  0  0  0  0  0  0  0  0  0  0  0
   -1.5837   52.6678   76.5117 H   0  0  0  0  0  0  0  0  0  0  0  0
    0.6394   51.8458   76.9318 H   0  0  0  0  0  0  0  0  0  0  0  0
    1.4278   53.2742   76.3027 H   0  0  0  0  0  0  0  0  0  0  0  0
    2.2306   54.6237   78.9263 H   0  0  0  0  0  0  0  0  0  0  0  0
    3.9380   56.4114   79.1753 H   0  0  0  0  0  0  0  0  0  0  0  0
    1.1542   59.2959   77.5914 H   0  0  0  0  0  0  0  0  0  0  0  0
   -1.0291   54.0729   79.8838 H   0  0  0  0  0  0  0  0  0  0  0  0
   -1.4208   55.8201   79.4442 H   0  0  0  0  0  0  0  0  0  0  0  0
   -3.6607   56.3363   78.3362 H   0  0  0  0  0  0  0  0  0  0  0  0
   -5.0558   52.3846   78.2976 H   0  0  0  0  0  0  0  0  0  0  0  0
  2  1  2  0
  3  2  1  0
  4  3  2  0
  5  4  1  0
  6  5  2  0
  6  1  1  0
  8  7  1  0
  9  8  1  0
 10  9  1  0
 10  1  1  0
 11 10  1  0
 12  7  1  0
 12 11  1  0
 14 13  2  0
 15 14  1  0
 16 15  2  0
 16  7  1  0
 17 16  1  0
 18 17  2  0
 18 13  1  0
 20 19  1  0
 21 20  2  0
 22 21  1  0
 22 13  1  0
 23 19  1  0
 23 22  1  0
 24 23  2  0
 25 19  1  0
 26 25  1  0
 28 25  1  0
 28 27  1  0
 29  4  1  0
 30 29  1  0
 31 30  1  0
 32 31  1  0
 33 32  1  0
 34 33  1  0
 35 34  1  0
 35 31  1  0
 36 34  1  0
 37 36  2  0
 38 37  1  0
 39 38  2  0
 40 39  1  0
 41 40  2  0
 41 36  1  0
 42 41  1  0
 43 39  1  0
 34 44  1  1
 45 44  1  0
 46 45  1  0
 47 46  2  0
 48 47  1  0
 49 48  2  0
 49 45  1  0
  2 50  1  0
  3 51  1  0
  5 52  1  0
  6 53  1  0
  8 54  1  0
  8 55  1  0
  9 56  1  0
  9 57  1  0
 11 58  1  0
 11 59  1  0
 12 60  1  0
 12 61  1  0
 14 62  1  0
 15 63  1  0
 17 64  1  0
 18 65  1  0
 21 66  1  0
 25 67  1  1
 26 68  1  0
 26 69  1  0
 26 70  1  0
 27 71  1  0
 27 72  1  0
 27 73  1  0
 28 74  1  0
 28 75  1  0
 30 76  1  0
 30 77  1  0
 31 78  1  1
 32 79  1  0
 32 80  1  0
 37 81  1  0
 38 82  1  0
 40 83  1  0
 44 84  1  0
 44 85  1  0
 46 86  1  0
 48 87  1  0
M  END
>  <score>  (8) 
-9.265

$$$$
