=
     RDKit          3D

 60 63  0  0  0  0  0  0  0  0999 V2000
    0.3160   66.7980   68.9060 C   0  0  0  0  0  0  0  0  0  0  0  0
    0.4850   66.0950   70.2590 C   0  0  0  0  0  0  0  0  0  0  0  0
    0.2340   64.5800   70.1980 C   0  0  0  0  0  0  0  0  0  0  0  0
   -0.0200   64.1510   72.8910 O   0  0  0  0  0  0  0  0  0  0  0  0
    0.9590   63.6580   72.3320 C   0  0  0  0  0  0  0  0  0  0  0  0
    1.9920   62.8960   73.1300 C   0  0  0  0  0  0  0  0  0  0  0  0
    2.8090   61.9360   72.2700 C   0  0  0  0  0  0  0  0  0  0  0  0
    3.8840   61.2220   73.1060 C   0  0  0  0  0  0  0  0  0  0  0  0
    4.2440   59.9730   72.3050 C   0  0  0  0  0  0  0  0  0  0  0  0
    3.0170   59.6480   71.4580 C   0  0  0  0  0  0  0  0  0  0  0  0
    1.9890   60.7380   71.7580 C   0  0  0  0  0  0  0  0  0  0  0  0
    3.4420   62.7490   71.1370 C   0  0  0  0  0  0  0  0  0  0  0  0
    2.4250   63.5440   70.3480 C   0  0  0  0  0  0  0  0  0  0  0  0
    2.7010   63.9720   69.2220 O   0  0  0  0  0  0  0  0  0  0  0  0
    1.2190   63.8390   70.9760 N   0  0  0  0  0  0  0  0  0  0  0  0
    1.5560   67.6050   68.5140 C   0  0  0  0  0  0  0  0  0  0  0  0
    1.6320   67.8580   67.0380 N   0  0  0  0  0  4  0  0  0  0  0  0
    2.6860   68.8790   66.5990 C   0  0  0  0  0  0  0  0  0  0  0  0
    2.5830   69.1830   65.0800 C   0  0  0  0  0  0  0  0  0  0  0  0
    1.8910   68.1020   64.3610 N   0  0  0  0  0  0  0  0  0  0  0  0
    0.4930   67.8990   64.7830 C   0  0  0  0  0  0  0  0  0  0  0  0
    0.3080   68.0350   66.3170 C   0  0  0  0  0  0  0  0  0  0  0  0
    2.6830   66.9510   64.3170 C   0  0  0  0  0  0  0  0  0  0  0  0
    3.8910   67.0380   63.7530 N   0  0  0  0  0  0  0  0  0  0  0  0
    4.6530   65.9280   63.7330 C   0  0  0  0  0  0  0  0  0  0  0  0
    4.2740   64.7430   64.3090 C   0  0  0  0  0  0  0  0  0  0  0  0
    3.0520   64.7650   64.9310 C   0  0  0  0  0  0  0  0  0  0  0  0
    2.2590   65.8590   64.9820 N   0  0  0  0  0  0  0  0  0  0  0  0
    0.1292   66.0380   68.1330 H   0  0  0  0  0  0  0  0  0  0  0  0
   -0.5284   67.4977   68.9925 H   0  0  0  0  0  0  0  0  0  0  0  0
    1.5127   66.2637   70.6131 H   0  0  0  0  0  0  0  0  0  0  0  0
   -0.2662   66.5203   70.9408 H   0  0  0  0  0  0  0  0  0  0  0  0
   -0.7687   64.3683   70.5978 H   0  0  0  0  0  0  0  0  0  0  0  0
    0.3151   64.2608   69.1485 H   0  0  0  0  0  0  0  0  0  0  0  0
    2.6767   63.6176   73.5995 H   0  0  0  0  0  0  0  0  0  0  0  0
    1.4563   62.2963   73.8806 H   0  0  0  0  0  0  0  0  0  0  0  0
    4.7660   61.8669   73.2334 H   0  0  0  0  0  0  0  0  0  0  0  0
    3.5251   60.9753   74.1161 H   0  0  0  0  0  0  0  0  0  0  0  0
    5.1126   60.1702   71.6595 H   0  0  0  0  0  0  0  0  0  0  0  0
    4.5115   59.1345   72.9649 H   0  0  0  0  0  0  0  0  0  0  0  0
    3.2788   59.6548   70.3896 H   0  0  0  0  0  0  0  0  0  0  0  0
    2.6213   58.6490   71.6935 H   0  0  0  0  0  0  0  0  0  0  0  0
    1.4374   61.0097   70.8459 H   0  0  0  0  0  0  0  0  0  0  0  0
    1.2414   60.4069   72.4938 H   0  0  0  0  0  0  0  0  0  0  0  0
    4.1736   63.4465   71.5709 H   0  0  0  0  0  0  0  0  0  0  0  0
    3.9171   62.0386   70.4445 H   0  0  0  0  0  0  0  0  0  0  0  0
    1.5275   68.5723   69.0369 H   0  0  0  0  0  0  0  0  0  0  0  0
    2.4414   67.0178   68.7990 H   0  0  0  0  0  0  0  0  0  0  0  0
    1.9802   66.9467   66.7076 H   0  0  0  0  0  0  0  0  0  0  0  0
    2.5362   69.8123   67.1616 H   0  0  0  0  0  0  0  0  0  0  0  0
    3.6816   68.4568   66.8006 H   0  0  0  0  0  0  0  0  0  0  0  0
    2.0248   70.1204   64.9398 H   0  0  0  0  0  0  0  0  0  0  0  0
    3.6020   69.2706   64.6750 H   0  0  0  0  0  0  0  0  0  0  0  0
   -0.1382   68.6491   64.2840 H   0  0  0  0  0  0  0  0  0  0  0  0
    0.2051   66.8752   64.5019 H   0  0  0  0  0  0  0  0  0  0  0  0
   -0.0958   69.0326   66.5444 H   0  0  0  0  0  0  0  0  0  0  0  0
   -0.3865   67.2535   66.6588 H   0  0  0  0  0  0  0  0  0  0  0  0
    5.6295   65.9744   63.2287 H   0  0  0  0  0  0  0  0  0  0  0  0
    4.9034   63.8415   64.2748 H   0  0  0  0  0  0  0  0  0  0  0  0
    2.6978   63.8427   65.4146 H   0  0  0  0  0  0  0  0  0  0  0  0
  2  1  1  0
  3  2  1  0
  5  4  2  0
  6  5  1  0
  7  6  1  0
  8  7  1  0
  9  8  1  0
 10  9  1  0
 11 10  1  0
 11  7  1  0
 12  7  1  0
 13 12  1  0
 14 13  2  0
 15 13  1  0
 15  3  1  0
 15  5  1  0
 16  1  1  0
 17 16  1  0
 18 17  1  0
 19 18  1  0
 20 19  1  0
 21 20  1  0
 22 21  1  0
 22 17  1  0
 23 20  1  0
 24 23  2  0
 25 24  1  0
 26 25  2  0
 27 26  1  0
 28 27  2  0
 28 23  1  0
  1 29  1  0
  1 30  1  0
  2 31  1  0
  2 32  1  0
  3 33  1  0
  3 34  1  0
  6 35  1  0
  6 36  1  0
  8 37  1  0
  8 38  1  0
  9 39  1  0
  9 40  1  0
 10 41  1  0
 10 42  1  0
 11 43  1  0
 11 44  1  0
 12 45  1  0
 12 46  1  0
 16 47  1  0
 16 48  1  0
 17 49  1  0
 18 50  1  0
 18 51  1  0
 19 52  1  0
 19 53  1  0
 21 54  1  0
 21 55  1  0
 22 56  1  0
 22 57  1  0
 25 58  1  0
 26 59  1  0
 27 60  1  0
M  CHG  1  17   1
M  END
>  <score>  (1) 
-9.406

$$$$
=
     RDKit          3D

 60 63  0  0  0  0  0  0  0  0999 V2000
    0.5830   66.4330   69.9540 C   0  0  0  0  0  0  0  0  0  0  0  0
    0.7810   65.0430   70.5710 C   0  0  0  0  0  0  0  0  0  0  0  0
    2.2470   64.5820   70.5820 C   0  0  0  0  0  0  0  0  0  0  0  0
    3.2720   63.0560   68.5510 O   0  0  0  0  0  0  0  0  0  0  0  0
    2.9270   62.4700   69.5760 C   0  0  0  0  0  0  0  0  0  0  0  0
    3.0240   60.9650   69.6670 C   0  0  0  0  0  0  0  0  0  0  0  0
    3.0730   60.4640   71.1070 C   0  0  0  0  0  0  0  0  0  0  0  0
    3.1160   58.9280   71.1580 C   0  0  0  0  0  0  0  0  0  0  0  0
    3.6790   58.5920   72.5370 C   0  0  0  0  0  0  0  0  0  0  0  0
    4.5160   59.7990   72.9540 C   0  0  0  0  0  0  0  0  0  0  0  0
    4.3880   60.8200   71.8260 C   0  0  0  0  0  0  0  0  0  0  0  0
    1.8370   61.0050   71.8300 C   0  0  0  0  0  0  0  0  0  0  0  0
    1.7050   62.5080   71.7230 C   0  0  0  0  0  0  0  0  0  0  0  0
    0.9840   63.1330   72.5070 O   0  0  0  0  0  0  0  0  0  0  0  0
    2.3560   63.1300   70.6610 N   0  0  0  0  0  0  0  0  0  0  0  0
   -0.3710   66.4040   68.7580 C   0  0  0  0  0  0  0  0  0  0  0  0
    0.0370   67.3590   67.6760 N   0  0  0  0  0  4  0  0  0  0  0  0
    1.1230   68.3670   68.0640 C   0  0  0  0  0  0  0  0  0  0  0  0
    1.3660   69.4020   66.9330 C   0  0  0  0  0  0  0  0  0  0  0  0
    0.9050   68.8940   65.6310 N   0  0  0  0  0  0  0  0  0  0  0  0
   -0.5440   68.6270   65.5700 C   0  0  0  0  0  0  0  0  0  0  0  0
   -1.0880   67.9870   66.8750 C   0  0  0  0  0  0  0  0  0  0  0  0
    1.7300   67.8590   65.1840 C   0  0  0  0  0  0  0  0  0  0  0  0
    3.0320   68.1150   65.0250 N   0  0  0  0  0  0  0  0  0  0  0  0
    3.8210   67.1050   64.6110 C   0  0  0  0  0  0  0  0  0  0  0  0
    3.3660   65.8300   64.4030 C   0  0  0  0  0  0  0  0  0  0  0  0
    2.0330   65.6390   64.6620 C   0  0  0  0  0  0  0  0  0  0  0  0
    1.2070   66.6220   65.0860 N   0  0  0  0  0  0  0  0  0  0  0  0
    0.1699   67.1052   70.7205 H   0  0  0  0  0  0  0  0  0  0  0  0
    1.5615   66.7864   69.5969 H   0  0  0  0  0  0  0  0  0  0  0  0
    0.4154   65.0669   71.6082 H   0  0  0  0  0  0  0  0  0  0  0  0
    0.2214   64.3293   69.9486 H   0  0  0  0  0  0  0  0  0  0  0  0
    2.7357   64.9263   69.6587 H   0  0  0  0  0  0  0  0  0  0  0  0
    2.7343   65.0109   71.4700 H   0  0  0  0  0  0  0  0  0  0  0  0
    2.1461   60.5252   69.1711 H   0  0  0  0  0  0  0  0  0  0  0  0
    3.9617   60.6624   69.1780 H   0  0  0  0  0  0  0  0  0  0  0  0
    2.1056   58.5092   71.0407 H   0  0  0  0  0  0  0  0  0  0  0  0
    3.7289   58.5055   70.3482 H   0  0  0  0  0  0  0  0  0  0  0  0
    2.8613   58.4275   73.2542 H   0  0  0  0  0  0  0  0  0  0  0  0
    4.2815   57.6720   72.5135 H   0  0  0  0  0  0  0  0  0  0  0  0
    4.1333   60.2211   73.8949 H   0  0  0  0  0  0  0  0  0  0  0  0
    5.5663   59.5183   73.1217 H   0  0  0  0  0  0  0  0  0  0  0  0
    4.3410   61.8408   72.2331 H   0  0  0  0  0  0  0  0  0  0  0  0
    5.2507   60.7900   71.1442 H   0  0  0  0  0  0  0  0  0  0  0  0
    0.9417   60.5416   71.3899 H   0  0  0  0  0  0  0  0  0  0  0  0
    1.9430   60.7574   72.8965 H   0  0  0  0  0  0  0  0  0  0  0  0
   -0.3856   65.3855   68.3428 H   0  0  0  0  0  0  0  0  0  0  0  0
   -1.3656   66.7086   69.1157 H   0  0  0  0  0  0  0  0  0  0  0  0
    0.4889   66.7131   67.0130 H   0  0  0  0  0  0  0  0  0  0  0  0
    0.8088   68.8988   68.9742 H   0  0  0  0  0  0  0  0  0  0  0  0
    2.0598   67.8169   68.2367 H   0  0  0  0  0  0  0  0  0  0  0  0
    0.8190   70.3263   67.1704 H   0  0  0  0  0  0  0  0  0  0  0  0
    2.4471   69.5939   66.8662 H   0  0  0  0  0  0  0  0  0  0  0  0
   -1.0705   69.5773   65.3975 H   0  0  0  0  0  0  0  0  0  0  0  0
   -0.7172   67.9131   64.7513 H   0  0  0  0  0  0  0  0  0  0  0  0
   -1.5733   68.7646   67.4831 H   0  0  0  0  0  0  0  0  0  0  0  0
   -1.8117   67.2027   66.6083 H   0  0  0  0  0  0  0  0  0  0  0  0
    4.8856   67.3149   64.4306 H   0  0  0  0  0  0  0  0  0  0  0  0
    4.0217   65.0188   64.0538 H   0  0  0  0  0  0  0  0  0  0  0  0
    1.6134   64.6326   64.5171 H   0  0  0  0  0  0  0  0  0  0  0  0
  2  1  1  0
  3  2  1  0
  5  4  2  0
  6  5  1  0
  7  6  1  0
  8  7  1  0
  9  8  1  0
 10  9  1  0
 11 10  1  0
 11  7  1  0
 12  7  1  0
 13 12  1  0
 14 13  2  0
 15 13  1  0
 15  3  1  0
 15  5  1  0
 16  1  1  0
 17 16  1  0
 18 17  1  0
 19 18  1  0
 20 19  1  0
 21 20  1  0
 22 21  1  0
 22 17  1  0
 23 20  1  0
 24 23  2  0
 25 24  1  0
 26 25  2  0
 27 26  1  0
 28 27  2  0
 28 23  1  0
  1 29  1  0
  1 30  1  0
  2 31  1  0
  2 32  1  0
  3 33  1  0
  3 34  1  0
  6 35  1  0
  6 36  1  0
  8 37  1  0
  8 38  1  0
  9 39  1  0
  9 40  1  0
 10 41  1  0
 10 42  1  0
 11 43  1  0
 11 44  1  0
 12 45  1  0
 12 46  1  0
 16 47  1  0
 16 48  1  0
 17 49  1  0
 18 50  1  0
 18 51  1  0
 19 52  1  0
 19 53  1  0
 21 54  1  0
 21 55  1  0
 22 56  1  0
 22 57  1  0
 25 58  1  0
 26 59  1  0
 27 60  1  0
M  CHG  1  17   1
M  END
>  <score>  (2) 
-9.222

$$$$
=
     RDKit          3D

 60 63  0  0  0  0  0  0  0  0999 V2000
    1.1010   66.4770   69.9280 C   0  0  0  0  0  0  0  0  0  0  0  0
    0.5880   66.6370   68.4910 C   0  0  0  0  0  0  0  0  0  0  0  0
    0.3890   68.1020   68.0720 C   0  0  0  0  0  0  0  0  0  0  0  0
    2.8040   69.3630   68.3440 O   0  0  0  0  0  0  0  0  0  0  0  0
    2.4510   69.0640   67.2040 C   0  0  0  0  0  0  0  0  0  0  0  0
    3.3080   69.4350   66.0160 C   0  0  0  0  0  0  0  0  0  0  0  0
    3.0260   68.5670   64.7940 C   0  0  0  0  0  0  0  0  0  0  0  0
    3.8750   69.0100   63.5910 C   0  0  0  0  0  0  0  0  0  0  0  0
    3.9030   67.8030   62.6580 C   0  0  0  0  0  0  0  0  0  0  0  0
    3.6830   66.5800   63.5460 C   0  0  0  0  0  0  0  0  0  0  0  0
    3.4950   67.1100   64.9660 C   0  0  0  0  0  0  0  0  0  0  0  0
    1.5300   68.6750   64.4810 C   0  0  0  0  0  0  0  0  0  0  0  0
    0.6580   68.3380   65.6690 C   0  0  0  0  0  0  0  0  0  0  0  0
   -0.5330   68.0470   65.5120 O   0  0  0  0  0  0  0  0  0  0  0  0
    1.2290   68.4560   66.9330 N   0  0  0  0  0  0  0  0  0  0  0  0
    0.0300   65.9130   70.8640 C   0  0  0  0  0  0  0  0  0  0  0  0
    0.4400   64.6100   71.4850 N   0  0  0  0  0  4  0  0  0  0  0  0
   -0.2750   63.3690   70.9410 C   0  0  0  0  0  0  0  0  0  0  0  0
    0.1050   62.0980   71.7480 C   0  0  0  0  0  0  0  0  0  0  0  0
    1.3800   62.2750   72.4610 N   0  0  0  0  0  0  0  0  0  0  0  0
    1.3590   63.3490   73.4710 C   0  0  0  0  0  0  0  0  0  0  0  0
    0.5710   64.5980   72.9960 C   0  0  0  0  0  0  0  0  0  0  0  0
    2.4490   62.3110   71.5620 C   0  0  0  0  0  0  0  0  0  0  0  0
    2.6340   61.2590   70.7590 N   0  0  0  0  0  0  0  0  0  0  0  0
    3.6550   61.3130   69.8830 C   0  0  0  0  0  0  0  0  0  0  0  0
    4.4690   62.4070   69.7400 C   0  0  0  0  0  0  0  0  0  0  0  0
    4.1610   63.4690   70.5510 C   0  0  0  0  0  0  0  0  0  0  0  0
    3.1410   63.4610   71.4380 N   0  0  0  0  0  0  0  0  0  0  0  0
    1.9626   65.7932   69.9226 H   0  0  0  0  0  0  0  0  0  0  0  0
    1.3833   67.4733   70.2989 H   0  0  0  0  0  0  0  0  0  0  0  0
    1.3158   66.1750   67.8078 H   0  0  0  0  0  0  0  0  0  0  0  0
   -0.3968   66.1494   68.4423 H   0  0  0  0  0  0  0  0  0  0  0  0
   -0.6655   68.2545   67.7984 H   0  0  0  0  0  0  0  0  0  0  0  0
    0.6728   68.7428   68.9198 H   0  0  0  0  0  0  0  0  0  0  0  0
    3.1118   70.4853   65.7546 H   0  0  0  0  0  0  0  0  0  0  0  0
    4.3585   69.2767   66.3012 H   0  0  0  0  0  0  0  0  0  0  0  0
    3.4141   69.8743   63.0905 H   0  0  0  0  0  0  0  0  0  0  0  0
    4.8860   69.3213   63.8925 H   0  0  0  0  0  0  0  0  0  0  0  0
    3.1015   67.8804   61.9086 H   0  0  0  0  0  0  0  0  0  0  0  0
    4.8553   67.7381   62.1112 H   0  0  0  0  0  0  0  0  0  0  0  0
    2.7865   66.0307   63.2226 H   0  0  0  0  0  0  0  0  0  0  0  0
    4.5338   65.8852   63.4878 H   0  0  0  0  0  0  0  0  0  0  0  0
    2.7353   66.5207   65.5003 H   0  0  0  0  0  0  0  0  0  0  0  0
    4.4210   67.0429   65.5560 H   0  0  0  0  0  0  0  0  0  0  0  0
    1.3104   69.7054   64.1647 H   0  0  0  0  0  0  0  0  0  0  0  0
    1.3041   67.9480   63.6870 H   0  0  0  0  0  0  0  0  0  0  0  0
   -0.1579   66.6425   71.6656 H   0  0  0  0  0  0  0  0  0  0  0  0
   -0.8744   65.7288   70.2656 H   0  0  0  0  0  0  0  0  0  0  0  0
    1.4103   64.5351   71.1476 H   0  0  0  0  0  0  0  0  0  0  0  0
   -1.3620   63.5239   71.0079 H   0  0  0  0  0  0  0  0  0  0  0  0
    0.0342   63.2212   69.8957 H   0  0  0  0  0  0  0  0  0  0  0  0
   -0.6885   61.8888   72.4805 H   0  0  0  0  0  0  0  0  0  0  0  0
    0.2164   61.2611   71.0429 H   0  0  0  0  0  0  0  0  0  0  0  0
    0.8881   62.9624   74.3869 H   0  0  0  0  0  0  0  0  0  0  0  0
    2.3991   63.6590   73.6500 H   0  0  0  0  0  0  0  0  0  0  0  0
   -0.4331   64.5831   73.4449 H   0  0  0  0  0  0  0  0  0  0  0  0
    1.1174   65.4997   73.3096 H   0  0  0  0  0  0  0  0  0  0  0  0
    3.8459   60.4343   69.2495 H   0  0  0  0  0  0  0  0  0  0  0  0
    5.3069   62.4310   69.0277 H   0  0  0  0  0  0  0  0  0  0  0  0
    4.7775   64.3769   70.4756 H   0  0  0  0  0  0  0  0  0  0  0  0
  2  1  1  0
  3  2  1  0
  5  4  2  0
  6  5  1  0
  7  6  1  0
  8  7  1  0
  9  8  1  0
 10  9  1  0
 11 10  1  0
 11  7  1  0
 12  7  1  0
 13 12  1  0
 14 13  2  0
 15 13  1  0
 15  3  1  0
 15  5  1  0
 16  1  1  0
 17 16  1  0
 18 17  1  0
 19 18  1  0
 20 19  1  0
 21 20  1  0
 22 21  1  0
 22 17  1  0
 23 20  1  0
 24 23  2  0
 25 24  1  0
 26 25  2  0
 27 26  1  0
 28 27  2  0
 28 23  1  0
  1 29  1  0
  1 30  1  0
  2 31  1  0
  2 32  1  0
  3 33  1  0
  3 34  1  0
  6 35  1  0
  6 36  1  0
  8 37  1  0
  8 38  1  0
  9 39  1  0
  9 40  1  0
 10 41  1  0
 10 42  1  0
 11 43  1  0
 11 44  1  0
 12 45  1  0
 12 46  1  0
 16 47  1  0
 16 48  1  0
 17 49  1  0
 18 50  1  0
 18 51  1  0
 19 52  1  0
 19 53  1  0
 21 54  1  0
 21 55  1  0
 22 56  1  0
 22 57  1  0
 25 58  1  0
 26 59  1  0
 27 60  1  0
M  CHG  1  17   1
M  END
>  <score>  (3) 
-8.876

$$$$
=
     RDKit          3D

 60 63  0  0  0  0  0  0  0  0999 V2000
    0.9650   64.5580   70.9600 C   0  0  0  0  0  0  0  0  0  0  0  0
    1.5480   65.4930   69.8930 C   0  0  0  0  0  0  0  0  0  0  0  0
    0.9500   66.9080   69.9270 C   0  0  0  0  0  0  0  0  0  0  0  0
    2.6060   69.0200   69.3840 O   0  0  0  0  0  0  0  0  0  0  0  0
    1.9180   68.5930   68.4580 C   0  0  0  0  0  0  0  0  0  0  0  0
    1.9640   69.2560   67.1010 C   0  0  0  0  0  0  0  0  0  0  0  0
    1.5000   68.3320   65.9790 C   0  0  0  0  0  0  0  0  0  0  0  0
    1.5070   69.0590   64.6240 C   0  0  0  0  0  0  0  0  0  0  0  0
    1.5480   67.9490   63.5780 C   0  0  0  0  0  0  0  0  0  0  0  0
    2.1970   66.7490   64.2640 C   0  0  0  0  0  0  0  0  0  0  0  0
    2.4820   67.1800   65.7010 C   0  0  0  0  0  0  0  0  0  0  0  0
    0.0930   67.8400   66.3320 C   0  0  0  0  0  0  0  0  0  0  0  0
    0.0220   67.2020   67.7020 C   0  0  0  0  0  0  0  0  0  0  0  0
   -0.9230   66.4650   68.0020 O   0  0  0  0  0  0  0  0  0  0  0  0
    1.0090   67.5500   68.6190 N   0  0  0  0  0  0  0  0  0  0  0  0
    0.8900   63.1070   70.4770 C   0  0  0  0  0  0  0  0  0  0  0  0
    2.2220   62.4190   70.5200 N   0  0  0  0  0  4  0  0  0  0  0  0
    3.2800   63.0890   71.4010 C   0  0  0  0  0  0  0  0  0  0  0  0
    4.6600   62.3920   71.2590 C   0  0  0  0  0  0  0  0  0  0  0  0
    4.5180   61.0180   70.7520 N   0  0  0  0  0  0  0  0  0  0  0  0
    3.9320   60.9340   69.4010 C   0  0  0  0  0  0  0  0  0  0  0  0
    2.7780   61.9490   69.1890 C   0  0  0  0  0  0  0  0  0  0  0  0
    3.9350   60.1920   71.7160 C   0  0  0  0  0  0  0  0  0  0  0  0
    4.5470   60.0730   72.8980 N   0  0  0  0  0  0  0  0  0  0  0  0
    3.9670   59.2890   73.8270 C   0  0  0  0  0  0  0  0  0  0  0  0
    2.7630   58.6620   73.6370 C   0  0  0  0  0  0  0  0  0  0  0  0
    2.1690   58.8990   72.4250 C   0  0  0  0  0  0  0  0  0  0  0  0
    2.7120   59.6840   71.4670 N   0  0  0  0  0  0  0  0  0  0  0  0
    1.6023   64.6010   71.8555 H   0  0  0  0  0  0  0  0  0  0  0  0
   -0.0587   64.8941   71.1815 H   0  0  0  0  0  0  0  0  0  0  0  0
    2.6337   65.5696   70.0525 H   0  0  0  0  0  0  0  0  0  0  0  0
    1.3006   65.0600   68.9125 H   0  0  0  0  0  0  0  0  0  0  0  0
   -0.1010   66.8433   70.2453 H   0  0  0  0  0  0  0  0  0  0  0  0
    1.5390   67.5124   70.6325 H   0  0  0  0  0  0  0  0  0  0  0  0
    1.3122   70.1419   67.1197 H   0  0  0  0  0  0  0  0  0  0  0  0
    3.0109   69.5259   66.8980 H   0  0  0  0  0  0  0  0  0  0  0  0
    0.5975   69.6666   64.5070 H   0  0  0  0  0  0  0  0  0  0  0  0
    2.3605   69.7464   64.5293 H   0  0  0  0  0  0  0  0  0  0  0  0
    0.5294   67.6963   63.2486 H   0  0  0  0  0  0  0  0  0  0  0  0
    2.1122   68.2569   62.6853 H   0  0  0  0  0  0  0  0  0  0  0  0
    1.5127   65.8879   64.2531 H   0  0  0  0  0  0  0  0  0  0  0  0
    3.1190   66.4434   63.7477 H   0  0  0  0  0  0  0  0  0  0  0  0
    2.3050   66.3461   66.3961 H   0  0  0  0  0  0  0  0  0  0  0  0
    3.5286   67.4899   65.8374 H   0  0  0  0  0  0  0  0  0  0  0  0
   -0.5957   68.6974   66.3074 H   0  0  0  0  0  0  0  0  0  0  0  0
   -0.1845   67.0727   65.5943 H   0  0  0  0  0  0  0  0  0  0  0  0
    0.1876   62.5567   71.1202 H   0  0  0  0  0  0  0  0  0  0  0  0
    0.5535   63.1197   69.4298 H   0  0  0  0  0  0  0  0  0  0  0  0
    1.9707   61.5488   71.0105 H   0  0  0  0  0  0  0  0  0  0  0  0
    3.3791   64.1430   71.1023 H   0  0  0  0  0  0  0  0  0  0  0  0
    2.9582   63.0089   72.4498 H   0  0  0  0  0  0  0  0  0  0  0  0
    5.2821   62.9692   70.5591 H   0  0  0  0  0  0  0  0  0  0  0  0
    5.1292   62.3474   72.2529 H   0  0  0  0  0  0  0  0  0  0  0  0
    4.7205   61.1370   68.6614 H   0  0  0  0  0  0  0  0  0  0  0  0
    3.5143   59.9236   69.2804 H   0  0  0  0  0  0  0  0  0  0  0  0
    3.1591   62.8168   68.6308 H   0  0  0  0  0  0  0  0  0  0  0  0
    1.9729   61.4546   68.6256 H   0  0  0  0  0  0  0  0  0  0  0  0
    4.4855   59.1446   74.7863 H   0  0  0  0  0  0  0  0  0  0  0  0
    2.3069   58.0158   74.4015 H   0  0  0  0  0  0  0  0  0  0  0  0
    1.1977   58.4250   72.2202 H   0  0  0  0  0  0  0  0  0  0  0  0
  2  1  1  0
  3  2  1  0
  5  4  2  0
  6  5  1  0
  7  6  1  0
  8  7  1  0
  9  8  1  0
 10  9  1  0
 11 10  1  0
 11  7  1  0
 12  7  1  0
 13 12  1  0
 14 13  2  0
 15 13  1  0
 15  3  1  0
 15  5  1  0
 16  1  1  0
 17 16  1  0
 18 17  1  0
 19 18  1  0
 20 19  1  0
 21 20  1  0
 22 21  1  0
 22 17  1  0
 23 20  1  0
 24 23  2  0
 25 24  1  0
 26 25  2  0
 27 26  1  0
 28 27  2  0
 28 23  1  0
  1 29  1  0
  1 30  1  0
  2 31  1  0
  2 32  1  0
  3 33  1  0
  3 34  1  0
  6 35  1  0
  6 36  1  0
  8 37  1  0
  8 38  1  0
  9 39  1  0
  9 40  1  0
 10 41  1  0
 10 42  1  0
 11 43  1  0
 11 44  1  0
 12 45  1  0
 12 46  1  0
 16 47  1  0
 16 48  1  0
 17 49  1  0
 18 50  1  0
 18 51  1  0
 19 52  1  0
 19 53  1  0
 21 54  1  0
 21 55  1  0
 22 56  1  0
 22 57  1  0
 25 58  1  0
 26 59  1  0
 27 60  1  0
M  CHG  1  17   1
M  END
>  <score>  (4) 
-8.811

$$$$
=
     RDKit          3D

 60 63  0  0  0  0  0  0  0  0999 V2000
    0.9590   66.5110   68.7230 C   0  0  0  0  0  0  0  0  0  0  0  0
   -0.2070   67.1670   67.9740 C   0  0  0  0  0  0  0  0  0  0  0  0
    0.0500   68.6380   67.6090 C   0  0  0  0  0  0  0  0  0  0  0  0
    2.5830   69.5570   68.1010 O   0  0  0  0  0  0  0  0  0  0  0  0
    2.3230   69.2130   66.9490 C   0  0  0  0  0  0  0  0  0  0  0  0
    3.3580   69.3510   65.8570 C   0  0  0  0  0  0  0  0  0  0  0  0
    3.0900   68.4290   64.6720 C   0  0  0  0  0  0  0  0  0  0  0  0
    4.1310   68.6380   63.5600 C   0  0  0  0  0  0  0  0  0  0  0  0
    4.0810   67.3620   62.7240 C   0  0  0  0  0  0  0  0  0  0  0  0
    3.5740   66.2670   63.6580 C   0  0  0  0  0  0  0  0  0  0  0  0
    3.3060   66.9410   65.0020 C   0  0  0  0  0  0  0  0  0  0  0  0
    1.6760   68.7230   64.1630 C   0  0  0  0  0  0  0  0  0  0  0  0
    0.6290   68.6210   65.2510 C   0  0  0  0  0  0  0  0  0  0  0  0
   -0.5650   68.4930   64.9630 O   0  0  0  0  0  0  0  0  0  0  0  0
    1.0610   68.7660   66.5660 N   0  0  0  0  0  0  0  0  0  0  0  0
    0.7260   66.4750   70.2350 C   0  0  0  0  0  0  0  0  0  0  0  0
    0.8360   65.0890   70.7990 N   0  0  0  0  0  4  0  0  0  0  0  0
    2.2630   64.5530   70.9520 C   0  0  0  0  0  0  0  0  0  0  0  0
    2.2640   63.0650   71.3960 C   0  0  0  0  0  0  0  0  0  0  0  0
    0.9920   62.6940   72.0360 N   0  0  0  0  0  0  0  0  0  0  0  0
   -0.1810   62.8030   71.1480 C   0  0  0  0  0  0  0  0  0  0  0  0
   -0.1220   64.0570   70.2360 C   0  0  0  0  0  0  0  0  0  0  0  0
    0.8660   63.3110   73.2820 C   0  0  0  0  0  0  0  0  0  0  0  0
    1.8080   63.0760   74.2010 N   0  0  0  0  0  0  0  0  0  0  0  0
    1.6870   63.6910   75.3930 C   0  0  0  0  0  0  0  0  0  0  0  0
    0.6870   64.5810   75.6830 C   0  0  0  0  0  0  0  0  0  0  0  0
   -0.1930   64.8210   74.6580 C   0  0  0  0  0  0  0  0  0  0  0  0
   -0.1040   64.2320   73.4450 N   0  0  0  0  0  0  0  0  0  0  0  0
    1.0795   65.4802   68.3583 H   0  0  0  0  0  0  0  0  0  0  0  0
    1.8621   67.1100   68.5341 H   0  0  0  0  0  0  0  0  0  0  0  0
   -0.3858   66.6040   67.0461 H   0  0  0  0  0  0  0  0  0  0  0  0
   -1.0766   67.1474   68.6474 H   0  0  0  0  0  0  0  0  0  0  0  0
   -0.8891   69.0861   67.2522 H   0  0  0  0  0  0  0  0  0  0  0  0
    0.4170   69.1553   68.5077 H   0  0  0  0  0  0  0  0  0  0  0  0
    3.3568   70.3916   65.5005 H   0  0  0  0  0  0  0  0  0  0  0  0
    4.3314   69.0684   66.2843 H   0  0  0  0  0  0  0  0  0  0  0  0
    3.8699   69.5125   62.9460 H   0  0  0  0  0  0  0  0  0  0  0  0
    5.1359   68.8257   63.9660 H   0  0  0  0  0  0  0  0  0  0  0  0
    3.3937   67.4883   61.8745 H   0  0  0  0  0  0  0  0  0  0  0  0
    5.0690   67.1127   62.3097 H   0  0  0  0  0  0  0  0  0  0  0  0
    2.6474   65.8266   63.2612 H   0  0  0  0  0  0  0  0  0  0  0  0
    4.3085   65.4543   63.7575 H   0  0  0  0  0  0  0  0  0  0  0  0
    2.4078   66.5163   65.4741 H   0  0  0  0  0  0  0  0  0  0  0  0
    4.1360   66.7931   65.7086 H   0  0  0  0  0  0  0  0  0  0  0  0
    1.6558   69.7423   63.7500 H   0  0  0  0  0  0  0  0  0  0  0  0
    1.4351   67.9689   63.3992 H   0  0  0  0  0  0  0  0  0  0  0  0
    1.4756   67.1153   70.7231 H   0  0  0  0  0  0  0  0  0  0  0  0
   -0.2964   66.8336   70.4249 H   0  0  0  0  0  0  0  0  0  0  0  0
    0.4999   65.2473   71.7597 H   0  0  0  0  0  0  0  0  0  0  0  0
    2.7831   64.6389   69.9866 H   0  0  0  0  0  0  0  0  0  0  0  0
    2.7747   65.1455   71.7247 H   0  0  0  0  0  0  0  0  0  0  0  0
    2.4191   62.4282   70.5126 H   0  0  0  0  0  0  0  0  0  0  0  0
    3.0734   62.9228   72.1272 H   0  0  0  0  0  0  0  0  0  0  0  0
   -0.2266   61.9064   70.5123 H   0  0  0  0  0  0  0  0  0  0  0  0
   -1.0740   62.8941   71.7838 H   0  0  0  0  0  0  0  0  0  0  0  0
    0.2185   63.7580   69.2337 H   0  0  0  0  0  0  0  0  0  0  0  0
   -1.1269   64.5013   70.1828 H   0  0  0  0  0  0  0  0  0  0  0  0
    2.4291   63.4672   76.1735 H   0  0  0  0  0  0  0  0  0  0  0  0
    0.5961   65.0675   76.6654 H   0  0  0  0  0  0  0  0  0  0  0  0
   -1.0149   65.5308   74.8330 H   0  0  0  0  0  0  0  0  0  0  0  0
  2  1  1  0
  3  2  1  0
  5  4  2  0
  6  5  1  0
  7  6  1  0
  8  7  1  0
  9  8  1  0
 10  9  1  0
 11 10  1  0
 11  7  1  0
 12  7  1  0
 13 12  1  0
 14 13  2  0
 15 13  1  0
 15  3  1  0
 15  5  1  0
 16  1  1  0
 17 16  1  0
 18 17  1  0
 19 18  1  0
 20 19  1  0
 21 20  1  0
 22 21  1  0
 22 17  1  0
 23 20  1  0
 24 23  2  0
 25 24  1  0
 26 25  2  0
 27 26  1  0
 28 27  2  0
 28 23  1  0
  1 29  1  0
  1 30  1  0
  2 31  1  0
  2 32  1  0
  3 33  1  0
  3 34  1  0
  6 35  1  0
  6 36  1  0
  8 37  1  0
  8 38  1  0
  9 39  1  0
  9 40  1  0
 10 41  1  0
 10 42  1  0
 11 43  1  0
 11 44  1  0
 12 45  1  0
 12 46  1  0
 16 47  1  0
 16 48  1  0
 17 49  1  0
 18 50  1  0
 18 51  1  0
 19 52  1  0
 19 53  1  0
 21 54  1  0
 21 55  1  0
 22 56  1  0
 22 57  1  0
 25 58  1  0
 26 59  1  0
 27 60  1  0
M  CHG  1  17   1
M  END
>  <score>  (5) 
-8.536

$$$$
=
     RDKit          3D

 60 63  0  0  0  0  0  0  0  0999 V2000
    0.5160   65.9390   70.1920 C   0  0  0  0  0  0  0  0  0  0  0  0
    1.4450   64.7920   70.6090 C   0  0  0  0  0  0  0  0  0  0  0  0
    0.7310   63.4360   70.7250 C   0  0  0  0  0  0  0  0  0  0  0  0
    0.2770   63.6710   73.4160 O   0  0  0  0  0  0  0  0  0  0  0  0
    1.0290   62.7690   73.0480 C   0  0  0  0  0  0  0  0  0  0  0  0
    1.7040   61.8750   74.0620 C   0  0  0  0  0  0  0  0  0  0  0  0
    2.1450   60.5410   73.4690 C   0  0  0  0  0  0  0  0  0  0  0  0
    2.8760   59.6830   74.5150 C   0  0  0  0  0  0  0  0  0  0  0  0
    2.7870   58.2530   73.9890 C   0  0  0  0  0  0  0  0  0  0  0  0
    1.5440   58.2080   73.1030 C   0  0  0  0  0  0  0  0  0  0  0  0
    0.9650   59.6210   73.1050 C   0  0  0  0  0  0  0  0  0  0  0  0
    3.0530   60.8410   72.2720 C   0  0  0  0  0  0  0  0  0  0  0  0
    2.4050   61.7610   71.2620 C   0  0  0  0  0  0  0  0  0  0  0  0
    2.8410   61.8330   70.1080 O   0  0  0  0  0  0  0  0  0  0  0  0
    1.3680   62.5730   71.7120 N   0  0  0  0  0  0  0  0  0  0  0  0
    1.2650   67.0500   69.4520 C   0  0  0  0  0  0  0  0  0  0  0  0
    0.5030   67.5640   68.2670 N   0  0  0  0  0  4  0  0  0  0  0  0
    0.6090   69.0730   68.0220 C   0  0  0  0  0  0  0  0  0  0  0  0
   -0.3310   69.5270   66.8730 C   0  0  0  0  0  0  0  0  0  0  0  0
   -0.6870   68.4020   65.9930 N   0  0  0  0  0  0  0  0  0  0  0  0
   -1.4380   67.3280   66.6680 C   0  0  0  0  0  0  0  0  0  0  0  0
   -0.9110   67.0400   68.0990 C   0  0  0  0  0  0  0  0  0  0  0  0
    0.4170   67.9900   65.2440 C   0  0  0  0  0  0  0  0  0  0  0  0
    1.0120   68.8860   64.4520 N   0  0  0  0  0  0  0  0  0  0  0  0
    2.0880   68.4830   63.7480 C   0  0  0  0  0  0  0  0  0  0  0  0
    2.6280   67.2280   63.8520 C   0  0  0  0  0  0  0  0  0  0  0  0
    2.0000   66.3970   64.7440 C   0  0  0  0  0  0  0  0  0  0  0  0
    0.9230   66.7630   65.4750 N   0  0  0  0  0  0  0  0  0  0  0  0
   -0.2667   65.5384   69.5310 H   0  0  0  0  0  0  0  0  0  0  0  0
    0.0847   66.3734   71.1059 H   0  0  0  0  0  0  0  0  0  0  0  0
    2.2446   64.7014   69.8590 H   0  0  0  0  0  0  0  0  0  0  0  0
    1.8354   65.0385   71.6074 H   0  0  0  0  0  0  0  0  0  0  0  0
   -0.3138   63.6078   71.0233 H   0  0  0  0  0  0  0  0  0  0  0  0
    0.7850   62.9357   69.7469 H   0  0  0  0  0  0  0  0  0  0  0  0
    2.5897   62.3952   74.4555 H   0  0  0  0  0  0  0  0  0  0  0  0
    0.9725   61.6606   74.8551 H   0  0  0  0  0  0  0  0  0  0  0  0
    3.9265   59.9964   74.6056 H   0  0  0  0  0  0  0  0  0  0  0  0
    2.4289   59.7828   75.5151 H   0  0  0  0  0  0  0  0  0  0  0  0
    3.6839   58.0048   73.4024 H   0  0  0  0  0  0  0  0  0  0  0  0
    2.7232   57.5243   74.8106 H   0  0  0  0  0  0  0  0  0  0  0  0
    1.8161   57.9093   72.0799 H   0  0  0  0  0  0  0  0  0  0  0  0
    0.8130   57.4758   73.4766 H   0  0  0  0  0  0  0  0  0  0  0  0
    0.5688   59.8768   72.1112 H   0  0  0  0  0  0  0  0  0  0  0  0
    0.1309   59.7222   73.8149 H   0  0  0  0  0  0  0  0  0  0  0  0
    3.9744   61.3161   72.6400 H   0  0  0  0  0  0  0  0  0  0  0  0
    3.2605   59.8866   71.7659 H   0  0  0  0  0  0  0  0  0  0  0  0
    1.4385   67.8834   70.1487 H   0  0  0  0  0  0  0  0  0  0  0  0
    2.2116   66.6278   69.0838 H   0  0  0  0  0  0  0  0  0  0  0  0
    1.0282   67.1247   67.4975 H   0  0  0  0  0  0  0  0  0  0  0  0
    0.3312   69.6057   68.9434 H   0  0  0  0  0  0  0  0  0  0  0  0
    1.6450   69.3054   67.7344 H   0  0  0  0  0  0  0  0  0  0  0  0
   -1.2505   69.9461   67.3075 H   0  0  0  0  0  0  0  0  0  0  0  0
    0.1969   70.2823   66.2723 H   0  0  0  0  0  0  0  0  0  0  0  0
   -2.4949   67.6255   66.7350 H   0  0  0  0  0  0  0  0  0  0  0  0
   -1.3119   66.4099   66.0754 H   0  0  0  0  0  0  0  0  0  0  0  0
   -1.5677   67.5325   68.8313 H   0  0  0  0  0  0  0  0  0  0  0  0
   -0.9058   65.9520   68.2610 H   0  0  0  0  0  0  0  0  0  0  0  0
    2.5564   69.1974   63.0550 H   0  0  0  0  0  0  0  0  0  0  0  0
    3.5012   66.9104   63.2632 H   0  0  0  0  0  0  0  0  0  0  0  0
    2.3936   65.3778   64.8717 H   0  0  0  0  0  0  0  0  0  0  0  0
  2  1  1  0
  3  2  1  0
  5  4  2  0
  6  5  1  0
  7  6  1  0
  8  7  1  0
  9  8  1  0
 10  9  1  0
 11 10  1  0
 11  7  1  0
 12  7  1  0
 13 12  1  0
 14 13  2  0
 15 13  1  0
 15  3  1  0
 15  5  1  0
 16  1  1  0
 17 16  1  0
 18 17  1  0
 19 18  1  0
 20 19  1  0
 21 20  1  0
 22 21  1  0
 22 17  1  0
 23 20  1  0
 24 23  2  0
 25 24  1  0
 26 25  2  0
 27 26  1  0
 28 27  2  0
 28 23  1  0
  1 29  1  0
  1 30  1  0
  2 31  1  0
  2 32  1  0
  3 33  1  0
  3 34  1  0
  6 35  1  0
  6 36  1  0
  8 37  1  0
  8 38  1  0
  9 39  1  0
  9 40  1  0
 10 41  1  0
 10 42  1  0
 11 43  1  0
 11 44  1  0
 12 45  1  0
 12 46  1  0
 16 47  1  0
 16 48  1  0
 17 49  1  0
 18 50  1  0
 18 51  1  0
 19 52  1  0
 19 53  1  0
 21 54  1  0
 21 55  1  0
 22 56  1  0
 22 57  1  0
 25 58  1  0
 26 59  1  0
 27 60  1  0
M  CHG  1  17   1
M  END
>  <score>  (6) 
-8.463

$$$$
=
     RDKit          3D

 60 63  0  0  0  0  0  0  0  0999 V2000
    2.1240   57.7270   72.2030 C   0  0  0  0  0  0  0  0  0  0  0  0
    3.3980   58.3280   71.5980 C   0  0  0  0  0  0  0  0  0  0  0  0
    4.1010   59.3330   72.5240 C   0  0  0  0  0  0  0  0  0  0  0  0
    5.4340   60.6150   70.5040 O   0  0  0  0  0  0  0  0  0  0  0  0
    4.5400   61.2400   71.0740 C   0  0  0  0  0  0  0  0  0  0  0  0
    4.2440   62.6720   70.6920 C   0  0  0  0  0  0  0  0  0  0  0  0
    2.8340   63.1050   71.0810 C   0  0  0  0  0  0  0  0  0  0  0  0
    2.5900   64.5810   70.7270 C   0  0  0  0  0  0  0  0  0  0  0  0
    1.0720   64.7290   70.6670 C   0  0  0  0  0  0  0  0  0  0  0  0
    0.5270   63.3430   70.3330 C   0  0  0  0  0  0  0  0  0  0  0  0
    1.7380   62.4160   70.2470 C   0  0  0  0  0  0  0  0  0  0  0  0
    2.6720   62.8650   72.5850 C   0  0  0  0  0  0  0  0  0  0  0  0
    2.9950   61.4440   72.9900 C   0  0  0  0  0  0  0  0  0  0  0  0
    2.6020   60.9950   74.0720 O   0  0  0  0  0  0  0  0  0  0  0  0
    3.8180   60.7110   72.1400 N   0  0  0  0  0  0  0  0  0  0  0  0
    2.2700   57.4520   73.7020 C   0  0  0  0  0  0  0  0  0  0  0  0
    1.0530   57.8570   74.4800 N   0  0  0  0  0  4  0  0  0  0  0  0
    1.3230   58.3890   75.8910 C   0  0  0  0  0  0  0  0  0  0  0  0
    0.0000   58.6350   76.6660 C   0  0  0  0  0  0  0  0  0  0  0  0
   -1.1400   58.7920   75.7470 N   0  0  0  0  0  0  0  0  0  0  0  0
   -1.4190   57.5980   74.9280 C   0  0  0  0  0  0  0  0  0  0  0  0
   -0.1260   56.9030   74.4270 C   0  0  0  0  0  0  0  0  0  0  0  0
   -1.0490   59.9980   75.0480 C   0  0  0  0  0  0  0  0  0  0  0  0
   -1.0010   61.1330   75.7510 N   0  0  0  0  0  0  0  0  0  0  0  0
   -0.8940   62.2890   75.0670 C   0  0  0  0  0  0  0  0  0  0  0  0
   -0.7780   62.3480   73.7030 C   0  0  0  0  0  0  0  0  0  0  0  0
   -0.7610   61.1340   73.0680 C   0  0  0  0  0  0  0  0  0  0  0  0
   -0.8570   59.9500   73.7150 N   0  0  0  0  0  0  0  0  0  0  0  0
    1.2932   58.4318   72.0514 H   0  0  0  0  0  0  0  0  0  0  0  0
    1.9316   56.7675   71.7007 H   0  0  0  0  0  0  0  0  0  0  0  0
    4.0984   57.5091   71.3771 H   0  0  0  0  0  0  0  0  0  0  0  0
    3.0988   58.8765   70.6927 H   0  0  0  0  0  0  0  0  0  0  0  0
    3.7526   59.1717   73.5548 H   0  0  0  0  0  0  0  0  0  0  0  0
    5.1861   59.1712   72.4442 H   0  0  0  0  0  0  0  0  0  0  0  0
    4.9664   63.3282   71.1995 H   0  0  0  0  0  0  0  0  0  0  0  0
    4.3251   62.7477   69.5976 H   0  0  0  0  0  0  0  0  0  0  0  0
    3.0120   65.2388   71.5011 H   0  0  0  0  0  0  0  0  0  0  0  0
    3.0697   64.8623   69.7779 H   0  0  0  0  0  0  0  0  0  0  0  0
    0.6825   65.0691   71.6379 H   0  0  0  0  0  0  0  0  0  0  0  0
    0.7691   65.4729   69.9154 H   0  0  0  0  0  0  0  0  0  0  0  0
   -0.1581   63.0024   71.1233 H   0  0  0  0  0  0  0  0  0  0  0  0
   -0.0377   63.3520   69.3891 H   0  0  0  0  0  0  0  0  0  0  0  0
    1.4979   61.4279   70.6665 H   0  0  0  0  0  0  0  0  0  0  0  0
    2.0559   62.2503   69.2070 H   0  0  0  0  0  0  0  0  0  0  0  0
    3.3467   63.5461   73.1243 H   0  0  0  0  0  0  0  0  0  0  0  0
    1.6176   63.0500   72.8382 H   0  0  0  0  0  0  0  0  0  0  0  0
    2.4405   56.3752   73.8484 H   0  0  0  0  0  0  0  0  0  0  0  0
    3.1173   58.0486   74.0710 H   0  0  0  0  0  0  0  0  0  0  0  0
    0.7410   58.6738   73.9356 H   0  0  0  0  0  0  0  0  0  0  0  0
    1.9287   57.6537   76.4410 H   0  0  0  0  0  0  0  0  0  0  0  0
    1.8567   59.3469   75.8038 H   0  0  0  0  0  0  0  0  0  0  0  0
   -0.1906   57.7786   77.3296 H   0  0  0  0  0  0  0  0  0  0  0  0
    0.1066   59.5630   77.2470 H   0  0  0  0  0  0  0  0  0  0  0  0
   -1.9921   56.8810   75.5342 H   0  0  0  0  0  0  0  0  0  0  0  0
   -1.9853   57.9254   74.0437 H   0  0  0  0  0  0  0  0  0  0  0  0
    0.0857   56.0321   75.0647 H   0  0  0  0  0  0  0  0  0  0  0  0
   -0.2770   56.5862   73.3845 H   0  0  0  0  0  0  0  0  0  0  0  0
   -0.9001   63.2328   75.6320 H   0  0  0  0  0  0  0  0  0  0  0  0
   -0.7039   63.3004   73.1576 H   0  0  0  0  0  0  0  0  0  0  0  0
   -0.6640   61.1215   71.9724 H   0  0  0  0  0  0  0  0  0  0  0  0
  2  1  1  0
  3  2  1  0
  5  4  2  0
  6  5  1  0
  7  6  1  0
  8  7  1  0
  9  8  1  0
 10  9  1  0
 11 10  1  0
 11  7  1  0
 12  7  1  0
 13 12  1  0
 14 13  2  0
 15 13  1  0
 15  3  1  0
 15  5  1  0
 16  1  1  0
 17 16  1  0
 18 17  1  0
 19 18  1  0
 20 19  1  0
 21 20  1  0
 22 21  1  0
 22 17  1  0
 23 20  1  0
 24 23  2  0
 25 24  1  0
 26 25  2  0
 27 26  1  0
 28 27  2  0
 28 23  1  0
  1 29  1  0
  1 30  1  0
  2 31  1  0
  2 32  1  0
  3 33  1  0
  3 34  1  0
  6 35  1  0
  6 36  1  0
  8 37  1  0
  8 38  1  0
  9 39  1  0
  9 40  1  0
 10 41  1  0
 10 42  1  0
 11 43  1  0
 11 44  1  0
 12 45  1  0
 12 46  1  0
 16 47  1  0
 16 48  1  0
 17 49  1  0
 18 50  1  0
 18 51  1  0
 19 52  1  0
 19 53  1  0
 21 54  1  0
 21 55  1  0
 22 56  1  0
 22 57  1  0
 25 58  1  0
 26 59  1  0
 27 60  1  0
M  CHG  1  17   1
M  END
>  <score>  (7) 
-8.329

$$$$
=
     RDKit          3D

 60 63  0  0  0  0  0  0  0  0999 V2000
    2.4050   58.6850   72.2320 C   0  0  0  0  0  0  0  0  0  0  0  0
    2.2670   57.1570   72.2620 C   0  0  0  0  0  0  0  0  0  0  0  0
    1.9070   56.6020   73.6480 C   0  0  0  0  0  0  0  0  0  0  0  0
    2.5080   58.3340   75.6830 O   0  0  0  0  0  0  0  0  0  0  0  0
    1.3360   58.2890   75.3100 C   0  0  0  0  0  0  0  0  0  0  0  0
    0.2810   59.1240   75.9980 C   0  0  0  0  0  0  0  0  0  0  0  0
   -0.9460   59.3600   75.1220 C   0  0  0  0  0  0  0  0  0  0  0  0
   -2.0180   60.1650   75.8750 C   0  0  0  0  0  0  0  0  0  0  0  0
   -2.9020   60.7640   74.7850 C   0  0  0  0  0  0  0  0  0  0  0  0
   -2.0250   60.8660   73.5400 C   0  0  0  0  0  0  0  0  0  0  0  0
   -0.6650   60.2880   73.9260 C   0  0  0  0  0  0  0  0  0  0  0  0
   -1.4840   57.9910   74.6960 C   0  0  0  0  0  0  0  0  0  0  0  0
   -0.4320   57.1280   74.0350 C   0  0  0  0  0  0  0  0  0  0  0  0
   -0.7600   56.1590   73.3420 O   0  0  0  0  0  0  0  0  0  0  0  0
    0.8990   57.4210   74.3130 N   0  0  0  0  0  0  0  0  0  0  0  0
    3.8460   59.1300   71.9700 C   0  0  0  0  0  0  0  0  0  0  0  0
    3.9180   60.4480   71.2580 N   0  0  0  0  0  4  0  0  0  0  0  0
    3.4230   60.4400   69.8090 C   0  0  0  0  0  0  0  0  0  0  0  0
    3.6800   61.8050   69.1150 C   0  0  0  0  0  0  0  0  0  0  0  0
    3.8450   62.8860   70.1010 N   0  0  0  0  0  0  0  0  0  0  0  0
    5.0050   62.7120   70.9930 C   0  0  0  0  0  0  0  0  0  0  0  0
    5.2000   61.2390   71.4370 C   0  0  0  0  0  0  0  0  0  0  0  0
    2.6320   63.1680   70.7330 C   0  0  0  0  0  0  0  0  0  0  0  0
    1.5940   63.5330   69.9750 N   0  0  0  0  0  0  0  0  0  0  0  0
    0.4240   63.7840   70.5940 C   0  0  0  0  0  0  0  0  0  0  0  0
    0.2370   63.6280   71.9420 C   0  0  0  0  0  0  0  0  0  0  0  0
    1.3330   63.1770   72.6320 C   0  0  0  0  0  0  0  0  0  0  0  0
    2.5230   62.9060   72.0510 N   0  0  0  0  0  0  0  0  0  0  0  0
    1.7606   59.0834   71.4345 H   0  0  0  0  0  0  0  0  0  0  0  0
    2.1063   59.0706   73.2179 H   0  0  0  0  0  0  0  0  0  0  0  0
    1.4775   56.8646   71.5540 H   0  0  0  0  0  0  0  0  0  0  0  0
    3.2470   56.7380   71.9900 H   0  0  0  0  0  0  0  0  0  0  0  0
    1.5163   55.5803   73.5322 H   0  0  0  0  0  0  0  0  0  0  0  0
    2.8166   56.6089   74.2666 H   0  0  0  0  0  0  0  0  0  0  0  0
   -0.0356   58.6055   76.9150 H   0  0  0  0  0  0  0  0  0  0  0  0
    0.7256   60.1056   76.2190 H   0  0  0  0  0  0  0  0  0  0  0  0
   -2.6061   59.5063   76.5309 H   0  0  0  0  0  0  0  0  0  0  0  0
   -1.5759   60.9390   76.5196 H   0  0  0  0  0  0  0  0  0  0  0  0
   -3.7656   60.1108   74.5915 H   0  0  0  0  0  0  0  0  0  0  0  0
   -3.2963   61.7472   75.0814 H   0  0  0  0  0  0  0  0  0  0  0  0
   -2.4652   60.2862   72.7153 H   0  0  0  0  0  0  0  0  0  0  0  0
   -1.9346   61.9077   73.1985 H   0  0  0  0  0  0  0  0  0  0  0  0
   -0.2360   59.7186   73.0883 H   0  0  0  0  0  0  0  0  0  0  0  0
    0.0601   61.0758   74.1781 H   0  0  0  0  0  0  0  0  0  0  0  0
   -1.8586   57.4674   75.5879 H   0  0  0  0  0  0  0  0  0  0  0  0
   -2.2822   58.1633   73.9590 H   0  0  0  0  0  0  0  0  0  0  0  0
    4.3684   59.2204   72.9338 H   0  0  0  0  0  0  0  0  0  0  0  0
    4.3177   58.3745   71.3245 H   0  0  0  0  0  0  0  0  0  0  0  0
    3.2143   60.9865   71.7831 H   0  0  0  0  0  0  0  0  0  0  0  0
    3.9523   59.6512   69.2543 H   0  0  0  0  0  0  0  0  0  0  0  0
    2.3390   60.2531   69.8145 H   0  0  0  0  0  0  0  0  0  0  0  0
    4.5945   61.7314   68.5081 H   0  0  0  0  0  0  0  0  0  0  0  0
    2.8108   62.0417   68.4838 H   0  0  0  0  0  0  0  0  0  0  0  0
    5.9101   63.0429   70.4626 H   0  0  0  0  0  0  0  0  0  0  0  0
    4.8229   63.3113   71.8973 H   0  0  0  0  0  0  0  0  0  0  0  0
    5.9941   60.7812   70.8289 H   0  0  0  0  0  0  0  0  0  0  0  0
    5.4769   61.2254   72.5015 H   0  0  0  0  0  0  0  0  0  0  0  0
   -0.4242   64.1319   69.9861 H   0  0  0  0  0  0  0  0  0  0  0  0
   -0.7215   63.8482   72.4347 H   0  0  0  0  0  0  0  0  0  0  0  0
    1.2385   63.0276   73.7177 H   0  0  0  0  0  0  0  0  0  0  0  0
  2  1  1  0
  3  2  1  0
  5  4  2  0
  6  5  1  0
  7  6  1  0
  8  7  1  0
  9  8  1  0
 10  9  1  0
 11 10  1  0
 11  7  1  0
 12  7  1  0
 13 12  1  0
 14 13  2  0
 15 13  1  0
 15  3  1  0
 15  5  1  0
 16  1  1  0
 17 16  1  0
 18 17  1  0
 19 18  1  0
 20 19  1  0
 21 20  1  0
 22 21  1  0
 22 17  1  0
 23 20  1  0
 24 23  2  0
 25 24  1  0
 26 25  2  0
 27 26  1  0
 28 27  2  0
 28 23  1  0
  1 29  1  0
  1 30  1  0
  2 31  1  0
  2 32  1  0
  3 33  1  0
  3 34  1  0
  6 35  1  0
  6 36  1  0
  8 37  1  0
  8 38  1  0
  9 39  1  0
  9 40  1  0
 10 41  1  0
 10 42  1  0
 11 43  1  0
 11 44  1  0
 12 45  1  0
 12 46  1  0
 16 47  1  0
 16 48  1  0
 17 49  1  0
 18 50  1  0
 18 51  1  0
 19 52  1  0
 19 53  1  0
 21 54  1  0
 21 55  1  0
 22 56  1  0
 22 57  1  0
 25 58  1  0
 26 59  1  0
 27 60  1  0
M  CHG  1  17   1
M  END
>  <score>  (8) 
-8.309

$$$$
=
     RDKit          3D

 60 63  0  0  0  0  0  0  0  0999 V2000
   -1.4850   60.5250   73.6250 C   0  0  0  0  0  0  0  0  0  0  0  0
   -1.1340   61.8090   72.8640 C   0  0  0  0  0  0  0  0  0  0  0  0
   -0.1210   62.6990   73.6000 C   0  0  0  0  0  0  0  0  0  0  0  0
    2.3070   61.6210   74.2660 O   0  0  0  0  0  0  0  0  0  0  0  0
    2.2510   62.2830   73.2310 C   0  0  0  0  0  0  0  0  0  0  0  0
    3.4950   62.5210   72.4060 C   0  0  0  0  0  0  0  0  0  0  0  0
    3.1800   62.8730   70.9560 C   0  0  0  0  0  0  0  0  0  0  0  0
    4.4670   63.1620   70.1640 C   0  0  0  0  0  0  0  0  0  0  0  0
    4.0810   62.9770   68.6990 C   0  0  0  0  0  0  0  0  0  0  0  0
    2.8990   62.0100   68.6950 C   0  0  0  0  0  0  0  0  0  0  0  0
    2.6030   61.6900   70.1580 C   0  0  0  0  0  0  0  0  0  0  0  0
    2.2530   64.0920   70.9630 C   0  0  0  0  0  0  0  0  0  0  0  0
    1.0180   63.8830   71.8100 C   0  0  0  0  0  0  0  0  0  0  0  0
    0.0250   64.6040   71.6620 O   0  0  0  0  0  0  0  0  0  0  0  0
    1.0850   62.9140   72.8070 N   0  0  0  0  0  0  0  0  0  0  0  0
   -0.6010   60.3240   74.8580 C   0  0  0  0  0  0  0  0  0  0  0  0
    0.1160   59.0070   74.8410 N   0  0  0  0  0  4  0  0  0  0  0  0
   -0.6480   57.8510   74.1890 C   0  0  0  0  0  0  0  0  0  0  0  0
    0.1080   56.5050   74.3570 C   0  0  0  0  0  0  0  0  0  0  0  0
    1.5400   56.7230   74.6230 N   0  0  0  0  0  0  0  0  0  0  0  0
    1.8140   57.4490   75.8760 C   0  0  0  0  0  0  0  0  0  0  0  0
    0.8070   58.6010   76.1300 C   0  0  0  0  0  0  0  0  0  0  0  0
    2.1840   57.2150   73.4850 C   0  0  0  0  0  0  0  0  0  0  0  0
    2.1370   56.4840   72.3670 N   0  0  0  0  0  0  0  0  0  0  0  0
    2.7460   56.9770   71.2720 C   0  0  0  0  0  0  0  0  0  0  0  0
    3.3540   58.2040   71.2360 C   0  0  0  0  0  0  0  0  0  0  0  0
    3.2910   58.9180   72.4040 C   0  0  0  0  0  0  0  0  0  0  0  0
    2.6840   58.4660   73.5250 N   0  0  0  0  0  0  0  0  0  0  0  0
   -2.5353   60.5800   73.9473 H   0  0  0  0  0  0  0  0  0  0  0  0
   -1.3182   59.6746   72.9476 H   0  0  0  0  0  0  0  0  0  0  0  0
   -0.7088   61.5306   71.8885 H   0  0  0  0  0  0  0  0  0  0  0  0
   -2.0626   62.3900   72.7634 H   0  0  0  0  0  0  0  0  0  0  0  0
   -0.5881   63.6726   73.8096 H   0  0  0  0  0  0  0  0  0  0  0  0
    0.1676   62.1914   74.5322 H   0  0  0  0  0  0  0  0  0  0  0  0
    4.0616   63.3503   72.8545 H   0  0  0  0  0  0  0  0  0  0  0  0
    4.0759   61.5869   72.4029 H   0  0  0  0  0  0  0  0  0  0  0  0
    4.8099   64.1912   70.3462 H   0  0  0  0  0  0  0  0  0  0  0  0
    5.2919   62.4974   70.4604 H   0  0  0  0  0  0  0  0  0  0  0  0
    3.7883   63.9404   68.2561 H   0  0  0  0  0  0  0  0  0  0  0  0
    4.9222   62.5882   68.1063 H   0  0  0  0  0  0  0  0  0  0  0  0
    2.0236   62.4803   68.2232 H   0  0  0  0  0  0  0  0  0  0  0  0
    3.1301   61.0981   68.1249 H   0  0  0  0  0  0  0  0  0  0  0  0
    1.5186   61.6063   70.3226 H   0  0  0  0  0  0  0  0  0  0  0  0
    3.0461   60.7316   70.4664 H   0  0  0  0  0  0  0  0  0  0  0  0
    2.8092   64.9544   71.3591 H   0  0  0  0  0  0  0  0  0  0  0  0
    1.9206   64.2617   69.9283 H   0  0  0  0  0  0  0  0  0  0  0  0
    0.1451   61.1316   74.8928 H   0  0  0  0  0  0  0  0  0  0  0  0
   -1.2535   60.3383   75.7435 H   0  0  0  0  0  0  0  0  0  0  0  0
    0.8900   59.2208   74.1960 H   0  0  0  0  0  0  0  0  0  0  0  0
   -1.6385   57.7662   74.6598 H   0  0  0  0  0  0  0  0  0  0  0  0
   -0.7433   58.0623   73.1137 H   0  0  0  0  0  0  0  0  0  0  0  0
   -0.3320   55.9499   75.1986 H   0  0  0  0  0  0  0  0  0  0  0  0
    0.0124   55.9349   73.4211 H   0  0  0  0  0  0  0  0  0  0  0  0
    1.7562   56.7392   76.7144 H   0  0  0  0  0  0  0  0  0  0  0  0
    2.8159   57.8949   75.7905 H   0  0  0  0  0  0  0  0  0  0  0  0
    0.0504   58.2654   76.8545 H   0  0  0  0  0  0  0  0  0  0  0  0
    1.3562   59.4688   76.5241 H   0  0  0  0  0  0  0  0  0  0  0  0
    2.7558   56.3629   70.3594 H   0  0  0  0  0  0  0  0  0  0  0  0
    3.8559   58.5880   70.3357 H   0  0  0  0  0  0  0  0  0  0  0  0
    3.7596   59.9128   72.4313 H   0  0  0  0  0  0  0  0  0  0  0  0
  2  1  1  0
  3  2  1  0
  5  4  2  0
  6  5  1  0
  7  6  1  0
  8  7  1  0
  9  8  1  0
 10  9  1  0
 11 10  1  0
 11  7  1  0
 12  7  1  0
 13 12  1  0
 14 13  2  0
 15 13  1  0
 15  3  1  0
 15  5  1  0
 16  1  1  0
 17 16  1  0
 18 17  1  0
 19 18  1  0
 20 19  1  0
 21 20  1  0
 22 21  1  0
 22 17  1  0
 23 20  1  0
 24 23  2  0
 25 24  1  0
 26 25  2  0
 27 26  1  0
 28 27  2  0
 28 23  1  0
  1 29  1  0
  1 30  1  0
  2 31  1  0
  2 32  1  0
  3 33  1  0
  3 34  1  0
  6 35  1  0
  6 36  1  0
  8 37  1  0
  8 38  1  0
  9 39  1  0
  9 40  1  0
 10 41  1  0
 10 42  1  0
 11 43  1  0
 11 44  1  0
 12 45  1  0
 12 46  1  0
 16 47  1  0
 16 48  1  0
 17 49  1  0
 18 50  1  0
 18 51  1  0
 19 52  1  0
 19 53  1  0
 21 54  1  0
 21 55  1  0
 22 56  1  0
 22 57  1  0
 25 58  1  0
 26 59  1  0
 27 60  1  0
M  CHG  1  17   1
M  END
>  <score>  (9) 
-8.234

$$$$
