=
     RDKit          3D

 52 55  0  0  0  0  0  0  0  0999 V2000
   -2.7810   68.9280   65.7760 Cl  0  0  0  0  0  0  0  0  0  0  0  0
   -1.0810   68.8480   65.5290 C   0  0  0  0  0  0  0  0  0  0  0  0
   -0.5780   68.6430   64.2510 C   0  0  0  0  0  0  0  0  0  0  0  0
    0.8020   68.5930   64.0620 C   0  0  0  0  0  0  0  0  0  0  0  0
    1.6770   68.7390   65.1500 C   0  0  0  0  0  0  0  0  0  0  0  0
    1.1790   68.9170   66.4590 C   0  0  0  0  0  0  0  0  0  0  0  0
   -0.2180   68.9910   66.6180 C   0  0  0  0  0  0  0  0  0  0  0  0
    2.0570   69.0750   67.5640 N   0  0  0  0  0  0  0  0  0  0  0  0
    3.3830   69.5660   67.4470 C   0  0  0  0  0  0  0  0  0  0  0  0
    4.1030   69.4500   66.2400 C   0  0  0  0  0  0  0  0  0  0  0  0
    3.4250   68.6250   64.8110 S   0  0  0  0  0  0  0  0  0  0  0  0
    5.4160   69.9330   66.1380 C   0  0  0  0  0  0  0  0  0  0  0  0
    6.0280   70.5550   67.2240 C   0  0  0  0  0  0  0  0  0  0  0  0
    5.3280   70.7020   68.4140 C   0  0  0  0  0  0  0  0  0  0  0  0
    4.0200   70.2180   68.5210 C   0  0  0  0  0  0  0  0  0  0  0  0
    1.6570   68.4730   68.8540 C   0  0  0  0  0  0  0  0  0  0  0  0
    1.3380   66.9720   68.7100 C   0  0  0  0  0  0  0  0  0  0  0  0
    0.5180   66.4470   69.8850 C   0  0  0  0  0  0  0  0  0  0  0  0
    0.7940   64.9830   70.1960 N   0  0  0  0  0  4  0  0  0  0  0  0
    0.0510   64.4570   71.4010 C   0  0  0  0  0  0  0  0  0  0  0  0
    0.2370   62.9500   71.4860 C   0  0  0  0  0  0  0  0  0  0  0  0
    1.7240   62.5900   71.5310 C   0  0  0  0  0  0  0  0  0  0  0  0
    2.4560   63.1490   70.3110 C   0  0  0  0  0  0  0  0  0  0  0  0
    2.2770   64.6590   70.2220 C   0  0  0  0  0  0  0  0  0  0  0  0
    1.9320   61.0970   71.6970 C   0  0  0  0  0  0  0  0  0  0  0  0
    1.2550   60.4380   72.4760 O   0  0  0  0  0  0  0  0  0  0  0  0
    2.8820   60.5070   70.9260 N   0  0  0  0  0  0  0  0  0  0  0  0
   -1.2610   68.5214   63.3974 H   0  0  0  0  0  0  0  0  0  0  0  0
    1.2089   68.4378   63.0519 H   0  0  0  0  0  0  0  0  0  0  0  0
   -0.6381   69.1649   67.6196 H   0  0  0  0  0  0  0  0  0  0  0  0
    5.9670   69.8197   65.1927 H   0  0  0  0  0  0  0  0  0  0  0  0
    7.0596   70.9274   67.1392 H   0  0  0  0  0  0  0  0  0  0  0  0
    5.8022   71.1993   69.2730 H   0  0  0  0  0  0  0  0  0  0  0  0
    3.4752   70.3498   69.4675 H   0  0  0  0  0  0  0  0  0  0  0  0
    2.4795   68.5948   69.5742 H   0  0  0  0  0  0  0  0  0  0  0  0
    0.7476   68.9842   69.2028 H   0  0  0  0  0  0  0  0  0  0  0  0
    0.7681   66.8174   67.7819 H   0  0  0  0  0  0  0  0  0  0  0  0
    2.2907   66.4226   68.6879 H   0  0  0  0  0  0  0  0  0  0  0  0
    0.7586   67.0459   70.7757 H   0  0  0  0  0  0  0  0  0  0  0  0
   -0.5435   66.5301   69.6086 H   0  0  0  0  0  0  0  0  0  0  0  0
    0.3987   64.4616   69.4005 H   0  0  0  0  0  0  0  0  0  0  0  0
    0.4477   64.9284   72.3122 H   0  0  0  0  0  0  0  0  0  0  0  0
   -1.0194   64.6920   71.3061 H   0  0  0  0  0  0  0  0  0  0  0  0
   -0.2526   62.5766   72.3975 H   0  0  0  0  0  0  0  0  0  0  0  0
   -0.2120   62.4875   70.5947 H   0  0  0  0  0  0  0  0  0  0  0  0
    2.1642   63.0650   72.4202 H   0  0  0  0  0  0  0  0  0  0  0  0
    3.5279   62.9166   70.3950 H   0  0  0  0  0  0  0  0  0  0  0  0
    2.0360   62.6887   69.4045 H   0  0  0  0  0  0  0  0  0  0  0  0
    2.7432   65.1373   71.0960 H   0  0  0  0  0  0  0  0  0  0  0  0
    2.7546   65.0353   69.3053 H   0  0  0  0  0  0  0  0  0  0  0  0
    3.0556   59.4950   71.0071 H   0  0  0  0  0  0  0  0  0  0  0  0
    3.4287   61.0716   70.2603 H   0  0  0  0  0  0  0  0  0  0  0  0
  2  1  1  0
  3  2  2  0
  4  3  1  0
  5  4  2  0
  6  5  1  0
  7  6  2  0
  7  2  1  0
  8  6  1  0
  9  8  1  0
 10  9  2  0
 11  5  1  0
 11 10  1  0
 12 10  1  0
 13 12  2  0
 14 13  1  0
 15 14  2  0
 15  9  1  0
 16  8  1  0
 17 16  1  0
 18 17  1  0
 19 18  1  0
 20 19  1  0
 21 20  1  0
 22 21  1  0
 23 22  1  0
 24 23  1  0
 24 19  1  0
 25 22  1  0
 26 25  2  0
 27 25  1  0
  3 28  1  0
  4 29  1  0
  7 30  1  0
 12 31  1  0
 13 32  1  0
 14 33  1  0
 15 34  1  0
 16 35  1  0
 16 36  1  0
 17 37  1  0
 17 38  1  0
 18 39  1  0
 18 40  1  0
 19 41  1  0
 20 42  1  0
 20 43  1  0
 21 44  1  0
 21 45  1  0
 22 46  1  0
 23 47  1  0
 23 48  1  0
 24 49  1  0
 24 50  1  0
 27 51  1  0
 27 52  1  0
M  CHG  1  19   1
M  END
>  <score>  (1) 
-10.283

$$$$
=
     RDKit          3D

 52 55  0  0  0  0  0  0  0  0999 V2000
   -3.2590   61.2100   74.0150 Cl  0  0  0  0  0  0  0  0  0  0  0  0
   -1.6500   60.7810   73.5860 C   0  0  0  0  0  0  0  0  0  0  0  0
   -1.1130   59.5810   74.0310 C   0  0  0  0  0  0  0  0  0  0  0  0
    0.1870   59.2390   73.6660 C   0  0  0  0  0  0  0  0  0  0  0  0
    0.9520   60.0990   72.8630 C   0  0  0  0  0  0  0  0  0  0  0  0
    0.4300   61.3380   72.4290 C   0  0  0  0  0  0  0  0  0  0  0  0
   -0.8950   61.6460   72.7890 C   0  0  0  0  0  0  0  0  0  0  0  0
    1.1940   62.2090   71.6090 N   0  0  0  0  0  0  0  0  0  0  0  0
    2.2460   61.7710   70.7640 C   0  0  0  0  0  0  0  0  0  0  0  0
    2.9520   60.5790   71.0330 C   0  0  0  0  0  0  0  0  0  0  0  0
    2.6180   59.5890   72.4790 S   0  0  0  0  0  0  0  0  0  0  0  0
    3.9950   60.1590   70.1940 C   0  0  0  0  0  0  0  0  0  0  0  0
    4.3400   60.9000   69.0670 C   0  0  0  0  0  0  0  0  0  0  0  0
    3.6420   62.0630   68.7710 C   0  0  0  0  0  0  0  0  0  0  0  0
    2.6040   62.4890   69.6070 C   0  0  0  0  0  0  0  0  0  0  0  0
    1.0510   63.6650   71.8290 C   0  0  0  0  0  0  0  0  0  0  0  0
    0.3700   64.3590   70.6340 C   0  0  0  0  0  0  0  0  0  0  0  0
    1.0370   65.6880   70.2900 C   0  0  0  0  0  0  0  0  0  0  0  0
    0.4860   66.3190   69.0190 N   0  0  0  0  0  4  0  0  0  0  0  0
    1.2140   67.5690   68.5850 C   0  0  0  0  0  0  0  0  0  0  0  0
    0.7190   67.9840   67.2070 C   0  0  0  0  0  0  0  0  0  0  0  0
   -0.7980   68.1800   67.2140 C   0  0  0  0  0  0  0  0  0  0  0  0
   -1.5100   66.9070   67.6740 C   0  0  0  0  0  0  0  0  0  0  0  0
   -1.0220   66.4890   69.0550 C   0  0  0  0  0  0  0  0  0  0  0  0
   -1.3030   68.6720   65.8710 C   0  0  0  0  0  0  0  0  0  0  0  0
   -0.6160   68.5970   64.8600 O   0  0  0  0  0  0  0  0  0  0  0  0
   -2.5640   69.1750   65.8220 N   0  0  0  0  0  0  0  0  0  0  0  0
   -1.7077   58.9072   74.6652 H   0  0  0  0  0  0  0  0  0  0  0  0
    0.6176   58.2870   74.0100 H   0  0  0  0  0  0  0  0  0  0  0  0
   -1.3452   62.5856   72.4364 H   0  0  0  0  0  0  0  0  0  0  0  0
    4.5452   59.2359   70.4287 H   0  0  0  0  0  0  0  0  0  0  0  0
    5.1606   60.5660   68.4151 H   0  0  0  0  0  0  0  0  0  0  0  0
    3.9051   62.6500   67.8787 H   0  0  0  0  0  0  0  0  0  0  0  0
    2.0541   63.4075   69.3541 H   0  0  0  0  0  0  0  0  0  0  0  0
    0.4435   63.8310   72.7309 H   0  0  0  0  0  0  0  0  0  0  0  0
    2.0571   64.0940   71.9461 H   0  0  0  0  0  0  0  0  0  0  0  0
    0.4268   63.6957   69.7583 H   0  0  0  0  0  0  0  0  0  0  0  0
   -0.6749   64.5641   70.9099 H   0  0  0  0  0  0  0  0  0  0  0  0
    0.8785   66.3862   71.1251 H   0  0  0  0  0  0  0  0  0  0  0  0
    2.1049   65.4859   70.1206 H   0  0  0  0  0  0  0  0  0  0  0  0
    0.6807   65.6345   68.2744 H   0  0  0  0  0  0  0  0  0  0  0  0
    1.0183   68.3773   69.3050 H   0  0  0  0  0  0  0  0  0  0  0  0
    2.2954   67.3716   68.5450 H   0  0  0  0  0  0  0  0  0  0  0  0
    1.2038   68.9283   66.9184 H   0  0  0  0  0  0  0  0  0  0  0  0
    0.9699   67.1908   66.4874 H   0  0  0  0  0  0  0  0  0  0  0  0
   -1.0373   68.9677   67.9436 H   0  0  0  0  0  0  0  0  0  0  0  0
   -2.5934   67.0932   67.7145 H   0  0  0  0  0  0  0  0  0  0  0  0
   -1.2891   66.0995   66.9604 H   0  0  0  0  0  0  0  0  0  0  0  0
   -1.2879   67.2635   69.7895 H   0  0  0  0  0  0  0  0  0  0  0  0
   -1.4951   65.5386   69.3430 H   0  0  0  0  0  0  0  0  0  0  0  0
   -2.9465   69.5201   64.9301 H   0  0  0  0  0  0  0  0  0  0  0  0
   -3.1376   69.2112   66.6767 H   0  0  0  0  0  0  0  0  0  0  0  0
  2  1  1  0
  3  2  2  0
  4  3  1  0
  5  4  2  0
  6  5  1  0
  7  6  2  0
  7  2  1  0
  8  6  1  0
  9  8  1  0
 10  9  2  0
 11  5  1  0
 11 10  1  0
 12 10  1  0
 13 12  2  0
 14 13  1  0
 15 14  2  0
 15  9  1  0
 16  8  1  0
 17 16  1  0
 18 17  1  0
 19 18  1  0
 20 19  1  0
 21 20  1  0
 22 21  1  0
 23 22  1  0
 24 23  1  0
 24 19  1  0
 25 22  1  0
 26 25  2  0
 27 25  1  0
  3 28  1  0
  4 29  1  0
  7 30  1  0
 12 31  1  0
 13 32  1  0
 14 33  1  0
 15 34  1  0
 16 35  1  0
 16 36  1  0
 17 37  1  0
 17 38  1  0
 18 39  1  0
 18 40  1  0
 19 41  1  0
 20 42  1  0
 20 43  1  0
 21 44  1  0
 21 45  1  0
 22 46  1  0
 23 47  1  0
 23 48  1  0
 24 49  1  0
 24 50  1  0
 27 51  1  0
 27 52  1  0
M  CHG  1  19   1
M  END
>  <score>  (2) 
-10.025

$$$$
=
     RDKit          3D

 52 55  0  0  0  0  0  0  0  0999 V2000
    3.8160   63.3550   66.0410 Cl  0  0  0  0  0  0  0  0  0  0  0  0
    3.7520   64.7080   64.9810 C   0  0  0  0  0  0  0  0  0  0  0  0
    4.7680   64.9090   64.0570 C   0  0  0  0  0  0  0  0  0  0  0  0
    4.6990   66.0010   63.1940 C   0  0  0  0  0  0  0  0  0  0  0  0
    3.6180   66.8960   63.2620 C   0  0  0  0  0  0  0  0  0  0  0  0
    2.5940   66.7210   64.2180 C   0  0  0  0  0  0  0  0  0  0  0  0
    2.6750   65.5940   65.0580 C   0  0  0  0  0  0  0  0  0  0  0  0
    1.4940   67.6150   64.2860 N   0  0  0  0  0  0  0  0  0  0  0  0
    1.0430   68.3910   63.1870 C   0  0  0  0  0  0  0  0  0  0  0  0
    1.9130   68.7360   62.1310 C   0  0  0  0  0  0  0  0  0  0  0  0
    3.6380   68.2830   62.1390 S   0  0  0  0  0  0  0  0  0  0  0  0
    1.4580   69.5090   61.0520 C   0  0  0  0  0  0  0  0  0  0  0  0
    0.1340   69.9340   60.9930 C   0  0  0  0  0  0  0  0  0  0  0  0
   -0.7450   69.5840   62.0110 C   0  0  0  0  0  0  0  0  0  0  0  0
   -0.2950   68.8180   63.0900 C   0  0  0  0  0  0  0  0  0  0  0  0
    0.9470   67.9350   65.6230 C   0  0  0  0  0  0  0  0  0  0  0  0
    1.5700   69.2190   66.2020 C   0  0  0  0  0  0  0  0  0  0  0  0
    1.7850   69.1210   67.7100 C   0  0  0  0  0  0  0  0  0  0  0  0
    3.1950   69.5010   68.1360 N   0  0  0  0  0  4  0  0  0  0  0  0
    3.2500   70.4990   69.2680 C   0  0  0  0  0  0  0  0  0  0  0  0
    4.6880   70.6390   69.7440 C   0  0  0  0  0  0  0  0  0  0  0  0
    5.6050   71.0380   68.5860 C   0  0  0  0  0  0  0  0  0  0  0  0
    5.5170   70.0230   67.4470 C   0  0  0  0  0  0  0  0  0  0  0  0
    4.0800   69.8820   66.9630 C   0  0  0  0  0  0  0  0  0  0  0  0
    7.0300   71.2620   69.0540 C   0  0  0  0  0  0  0  0  0  0  0  0
    7.7990   71.9940   68.4430 O   0  0  0  0  0  0  0  0  0  0  0  0
    7.4180   70.6410   70.1990 N   0  0  0  0  0  0  0  0  0  0  0  0
    5.6188   64.2136   64.0064 H   0  0  0  0  0  0  0  0  0  0  0  0
    5.4966   66.1635   62.4542 H   0  0  0  0  0  0  0  0  0  0  0  0
    1.8745   65.4076   65.7891 H   0  0  0  0  0  0  0  0  0  0  0  0
    2.1542   69.7816   60.2452 H   0  0  0  0  0  0  0  0  0  0  0  0
   -0.2145   70.5431   60.1459 H   0  0  0  0  0  0  0  0  0  0  0  0
   -1.7947   69.9098   61.9676 H   0  0  0  0  0  0  0  0  0  0  0  0
   -1.0045   68.5417   63.8838 H   0  0  0  0  0  0  0  0  0  0  0  0
   -0.1410   68.0734   65.5390 H   0  0  0  0  0  0  0  0  0  0  0  0
    1.1878   67.1021   66.2999 H   0  0  0  0  0  0  0  0  0  0  0  0
    2.5411   69.3931   65.7155 H   0  0  0  0  0  0  0  0  0  0  0  0
    0.8746   70.0497   66.0114 H   0  0  0  0  0  0  0  0  0  0  0  0
    1.0742   69.7955   68.2098 H   0  0  0  0  0  0  0  0  0  0  0  0
    1.6266   68.0710   67.9971 H   0  0  0  0  0  0  0  0  0  0  0  0
    3.5957   68.6383   68.5311 H   0  0  0  0  0  0  0  0  0  0  0  0
    2.8825   71.4744   68.9164 H   0  0  0  0  0  0  0  0  0  0  0  0
    2.6188   70.1500   70.0985 H   0  0  0  0  0  0  0  0  0  0  0  0
    4.7360   71.4118   70.5253 H   0  0  0  0  0  0  0  0  0  0  0  0
    5.0240   69.6707   70.1435 H   0  0  0  0  0  0  0  0  0  0  0  0
    5.2543   72.0020   68.1890 H   0  0  0  0  0  0  0  0  0  0  0  0
    6.1479   70.3614   66.6119 H   0  0  0  0  0  0  0  0  0  0  0  0
    5.8640   69.0463   67.8154 H   0  0  0  0  0  0  0  0  0  0  0  0
    3.7386   70.8381   66.5395 H   0  0  0  0  0  0  0  0  0  0  0  0
    4.0248   69.1023   66.1890 H   0  0  0  0  0  0  0  0  0  0  0  0
    8.3772   70.7657   70.5529 H   0  0  0  0  0  0  0  0  0  0  0  0
    6.7528   70.0457   70.7128 H   0  0  0  0  0  0  0  0  0  0  0  0
  2  1  1  0
  3  2  2  0
  4  3  1  0
  5  4  2  0
  6  5  1  0
  7  6  2  0
  7  2  1  0
  8  6  1  0
  9  8  1  0
 10  9  2  0
 11  5  1  0
 11 10  1  0
 12 10  1  0
 13 12  2  0
 14 13  1  0
 15 14  2  0
 15  9  1  0
 16  8  1  0
 17 16  1  0
 18 17  1  0
 19 18  1  0
 20 19  1  0
 21 20  1  0
 22 21  1  0
 23 22  1  0
 24 23  1  0
 24 19  1  0
 25 22  1  0
 26 25  2  0
 27 25  1  0
  3 28  1  0
  4 29  1  0
  7 30  1  0
 12 31  1  0
 13 32  1  0
 14 33  1  0
 15 34  1  0
 16 35  1  0
 16 36  1  0
 17 37  1  0
 17 38  1  0
 18 39  1  0
 18 40  1  0
 19 41  1  0
 20 42  1  0
 20 43  1  0
 21 44  1  0
 21 45  1  0
 22 46  1  0
 23 47  1  0
 23 48  1  0
 24 49  1  0
 24 50  1  0
 27 51  1  0
 27 52  1  0
M  CHG  1  19   1
M  END
>  <score>  (3) 
-9.754

$$$$
=
     RDKit          3D

 52 55  0  0  0  0  0  0  0  0999 V2000
    4.0300   62.9920   67.3880 Cl  0  0  0  0  0  0  0  0  0  0  0  0
    3.4530   62.3890   68.8910 C   0  0  0  0  0  0  0  0  0  0  0  0
    3.9070   61.1650   69.3640 C   0  0  0  0  0  0  0  0  0  0  0  0
    3.4420   60.6930   70.5900 C   0  0  0  0  0  0  0  0  0  0  0  0
    2.5190   61.4410   71.3380 C   0  0  0  0  0  0  0  0  0  0  0  0
    2.0250   62.6720   70.8550 C   0  0  0  0  0  0  0  0  0  0  0  0
    2.5320   63.1380   69.6270 C   0  0  0  0  0  0  0  0  0  0  0  0
    1.0990   63.4390   71.6100 N   0  0  0  0  0  0  0  0  0  0  0  0
    0.9760   63.3540   73.0210 C   0  0  0  0  0  0  0  0  0  0  0  0
    1.3600   62.1900   73.7200 C   0  0  0  0  0  0  0  0  0  0  0  0
    1.9570   60.7350   72.8780 S   0  0  0  0  0  0  0  0  0  0  0  0
    1.2280   62.1150   75.1150 C   0  0  0  0  0  0  0  0  0  0  0  0
    0.7330   63.1970   75.8390 C   0  0  0  0  0  0  0  0  0  0  0  0
    0.3720   64.3610   75.1720 C   0  0  0  0  0  0  0  0  0  0  0  0
    0.4970   64.4380   73.7820 C   0  0  0  0  0  0  0  0  0  0  0  0
    0.0490   64.1750   70.8710 C   0  0  0  0  0  0  0  0  0  0  0  0
    0.2560   65.6990   70.9540 C   0  0  0  0  0  0  0  0  0  0  0  0
    1.2410   66.1990   69.9010 C   0  0  0  0  0  0  0  0  0  0  0  0
    0.5560   66.7390   68.6530 N   0  0  0  0  0  4  0  0  0  0  0  0
    1.0810   68.0760   68.1890 C   0  0  0  0  0  0  0  0  0  0  0  0
    0.4780   68.4090   66.8320 C   0  0  0  0  0  0  0  0  0  0  0  0
   -1.0510   68.3890   66.9020 C   0  0  0  0  0  0  0  0  0  0  0  0
   -1.5570   67.0320   67.3920 C   0  0  0  0  0  0  0  0  0  0  0  0
   -0.9590   66.6950   68.7510 C   0  0  0  0  0  0  0  0  0  0  0  0
   -1.6740   68.7970   65.5810 C   0  0  0  0  0  0  0  0  0  0  0  0
   -1.0670   68.6860   64.5230 O   0  0  0  0  0  0  0  0  0  0  0  0
   -2.9490   69.2660   65.6080 N   0  0  0  0  0  0  0  0  0  0  0  0
    4.6259   60.5743   68.7773 H   0  0  0  0  0  0  0  0  0  0  0  0
    3.8009   59.7269   70.9746 H   0  0  0  0  0  0  0  0  0  0  0  0
    2.1962   64.1112   69.2395 H   0  0  0  0  0  0  0  0  0  0  0  0
    1.5180   61.1937   75.6413 H   0  0  0  0  0  0  0  0  0  0  0  0
    0.6286   63.1303   76.9320 H   0  0  0  0  0  0  0  0  0  0  0  0
   -0.0123   65.2223   75.7380 H   0  0  0  0  0  0  0  0  0  0  0  0
    0.2140   65.3691   73.2693 H   0  0  0  0  0  0  0  0  0  0  0  0
    0.0751   63.8687   69.8148 H   0  0  0  0  0  0  0  0  0  0  0  0
   -0.9230   63.9356   71.3269 H   0  0  0  0  0  0  0  0  0  0  0  0
   -0.7122   66.1980   70.8004 H   0  0  0  0  0  0  0  0  0  0  0  0
    0.6704   65.9327   71.9458 H   0  0  0  0  0  0  0  0  0  0  0  0
    1.8482   67.0027   70.3429 H   0  0  0  0  0  0  0  0  0  0  0  0
    1.8563   65.3408   69.5929 H   0  0  0  0  0  0  0  0  0  0  0  0
    0.8164   66.0847   67.9014 H   0  0  0  0  0  0  0  0  0  0  0  0
    0.8017   68.8529   68.9159 H   0  0  0  0  0  0  0  0  0  0  0  0
    2.1769   68.0328   68.1049 H   0  0  0  0  0  0  0  0  0  0  0  0
    0.8127   69.4105   66.5237 H   0  0  0  0  0  0  0  0  0  0  0  0
    0.8094   67.6555   66.1023 H   0  0  0  0  0  0  0  0  0  0  0  0
   -1.3695   69.1391   67.6408 H   0  0  0  0  0  0  0  0  0  0  0  0
   -2.6532   67.0645   67.4776 H   0  0  0  0  0  0  0  0  0  0  0  0
   -1.2540   66.2592   66.6702 H   0  0  0  0  0  0  0  0  0  0  0  0
   -1.3012   67.4284   69.4960 H   0  0  0  0  0  0  0  0  0  0  0  0
   -1.2811   65.6890   69.0580 H   0  0  0  0  0  0  0  0  0  0  0  0
   -3.4103   69.5542   64.7334 H   0  0  0  0  0  0  0  0  0  0  0  0
   -3.4541   69.3333   66.5031 H   0  0  0  0  0  0  0  0  0  0  0  0
  2  1  1  0
  3  2  2  0
  4  3  1  0
  5  4  2  0
  6  5  1  0
  7  6  2  0
  7  2  1  0
  8  6  1  0
  9  8  1  0
 10  9  2  0
 11  5  1  0
 11 10  1  0
 12 10  1  0
 13 12  2  0
 14 13  1  0
 15 14  2  0
 15  9  1  0
 16  8  1  0
 17 16  1  0
 18 17  1  0
 19 18  1  0
 20 19  1  0
 21 20  1  0
 22 21  1  0
 23 22  1  0
 24 23  1  0
 24 19  1  0
 25 22  1  0
 26 25  2  0
 27 25  1  0
  3 28  1  0
  4 29  1  0
  7 30  1  0
 12 31  1  0
 13 32  1  0
 14 33  1  0
 15 34  1  0
 16 35  1  0
 16 36  1  0
 17 37  1  0
 17 38  1  0
 18 39  1  0
 18 40  1  0
 19 41  1  0
 20 42  1  0
 20 43  1  0
 21 44  1  0
 21 45  1  0
 22 46  1  0
 23 47  1  0
 23 48  1  0
 24 49  1  0
 24 50  1  0
 27 51  1  0
 27 52  1  0
M  CHG  1  19   1
M  END
>  <score>  (4) 
-9.326

$$$$
=
     RDKit          3D

 52 55  0  0  0  0  0  0  0  0999 V2000
    4.8940   64.9040   64.3100 Cl  0  0  0  0  0  0  0  0  0  0  0  0
    3.6240   66.0600   64.2260 C   0  0  0  0  0  0  0  0  0  0  0  0
    3.4940   66.8630   63.1020 C   0  0  0  0  0  0  0  0  0  0  0  0
    2.4530   67.7880   63.0400 C   0  0  0  0  0  0  0  0  0  0  0  0
    1.5480   67.9140   64.1060 C   0  0  0  0  0  0  0  0  0  0  0  0
    1.6860   67.1260   65.2690 C   0  0  0  0  0  0  0  0  0  0  0  0
    2.7300   66.1810   65.2930 C   0  0  0  0  0  0  0  0  0  0  0  0
    0.7700   67.2410   66.3470 N   0  0  0  0  0  0  0  0  0  0  0  0
   -0.5620   67.7080   66.1980 C   0  0  0  0  0  0  0  0  0  0  0  0
   -0.9240   68.5570   65.1310 C   0  0  0  0  0  0  0  0  0  0  0  0
    0.2710   69.1500   63.9480 S   0  0  0  0  0  0  0  0  0  0  0  0
   -2.2420   69.0180   64.9980 C   0  0  0  0  0  0  0  0  0  0  0  0
   -3.2240   68.6300   65.9060 C   0  0  0  0  0  0  0  0  0  0  0  0
   -2.8940   67.7750   66.9490 C   0  0  0  0  0  0  0  0  0  0  0  0
   -1.5800   67.3160   67.0890 C   0  0  0  0  0  0  0  0  0  0  0  0
    1.3000   67.1010   67.7210 C   0  0  0  0  0  0  0  0  0  0  0  0
    1.2610   68.4380   68.4860 C   0  0  0  0  0  0  0  0  0  0  0  0
    1.6120   69.6200   67.5870 C   0  0  0  0  0  0  0  0  0  0  0  0
    2.9910   70.1980   67.8750 N   0  0  0  0  0  4  0  0  0  0  0  0
    4.0890   69.6360   67.0050 C   0  0  0  0  0  0  0  0  0  0  0  0
    5.3660   70.4320   67.2330 C   0  0  0  0  0  0  0  0  0  0  0  0
    5.7500   70.4240   68.7150 C   0  0  0  0  0  0  0  0  0  0  0  0
    4.6150   70.9800   69.5750 C   0  0  0  0  0  0  0  0  0  0  0  0
    3.3350   70.1860   69.3530 C   0  0  0  0  0  0  0  0  0  0  0  0
    7.0630   71.1430   68.9540 C   0  0  0  0  0  0  0  0  0  0  0  0
    7.3710   72.1470   68.3220 O   0  0  0  0  0  0  0  0  0  0  0  0
    7.8810   70.6510   69.9210 N   0  0  0  0  0  0  0  0  0  0  0  0
    4.2054   66.7706   62.2681 H   0  0  0  0  0  0  0  0  0  0  0  0
    2.3398   68.4238   62.1495 H   0  0  0  0  0  0  0  0  0  0  0  0
    2.8438   65.5253   66.1689 H   0  0  0  0  0  0  0  0  0  0  0  0
   -2.5024   69.6923   64.1688 H   0  0  0  0  0  0  0  0  0  0  0  0
   -4.2547   68.9986   65.7976 H   0  0  0  0  0  0  0  0  0  0  0  0
   -3.6662   67.4584   67.6656 H   0  0  0  0  0  0  0  0  0  0  0  0
   -1.3358   66.6321   67.9152 H   0  0  0  0  0  0  0  0  0  0  0  0
    0.6925   66.3619   68.2638 H   0  0  0  0  0  0  0  0  0  0  0  0
    2.3485   66.7756   67.6525 H   0  0  0  0  0  0  0  0  0  0  0  0
    0.2487   68.5870   68.8898 H   0  0  0  0  0  0  0  0  0  0  0  0
    2.0074   68.3905   69.2926 H   0  0  0  0  0  0  0  0  0  0  0  0
    1.5844   69.2842   66.5399 H   0  0  0  0  0  0  0  0  0  0  0  0
    0.8754   70.4129   67.7836 H   0  0  0  0  0  0  0  0  0  0  0  0
    2.9277   71.1894   67.6030 H   0  0  0  0  0  0  0  0  0  0  0  0
    4.2615   68.5814   67.2658 H   0  0  0  0  0  0  0  0  0  0  0  0
    3.7943   69.7056   65.9475 H   0  0  0  0  0  0  0  0  0  0  0  0
    6.1810   69.9833   66.6462 H   0  0  0  0  0  0  0  0  0  0  0  0
    5.1964   71.4718   66.9167 H   0  0  0  0  0  0  0  0  0  0  0  0
    5.9075   69.3795   69.0219 H   0  0  0  0  0  0  0  0  0  0  0  0
    4.9005   70.9162   70.6354 H   0  0  0  0  0  0  0  0  0  0  0  0
    4.4359   72.0275   69.2911 H   0  0  0  0  0  0  0  0  0  0  0  0
    3.4826   69.1487   69.6881 H   0  0  0  0  0  0  0  0  0  0  0  0
    2.5140   70.6398   69.9275 H   0  0  0  0  0  0  0  0  0  0  0  0
    8.7825   71.1097   70.1155 H   0  0  0  0  0  0  0  0  0  0  0  0
    7.5996   69.8193   70.4595 H   0  0  0  0  0  0  0  0  0  0  0  0
  2  1  1  0
  3  2  2  0
  4  3  1  0
  5  4  2  0
  6  5  1  0
  7  6  2  0
  7  2  1  0
  8  6  1  0
  9  8  1  0
 10  9  2  0
 11  5  1  0
 11 10  1  0
 12 10  1  0
 13 12  2  0
 14 13  1  0
 15 14  2  0
 15  9  1  0
 16  8  1  0
 17 16  1  0
 18 17  1  0
 19 18  1  0
 20 19  1  0
 21 20  1  0
 22 21  1  0
 23 22  1  0
 24 23  1  0
 24 19  1  0
 25 22  1  0
 26 25  2  0
 27 25  1  0
  3 28  1  0
  4 29  1  0
  7 30  1  0
 12 31  1  0
 13 32  1  0
 14 33  1  0
 15 34  1  0
 16 35  1  0
 16 36  1  0
 17 37  1  0
 17 38  1  0
 18 39  1  0
 18 40  1  0
 19 41  1  0
 20 42  1  0
 20 43  1  0
 21 44  1  0
 21 45  1  0
 22 46  1  0
 23 47  1  0
 23 48  1  0
 24 49  1  0
 24 50  1  0
 27 51  1  0
 27 52  1  0
M  CHG  1  19   1
M  END
>  <score>  (5) 
-9.015

$$$$
=
     RDKit          3D

 52 55  0  0  0  0  0  0  0  0999 V2000
    2.9870   57.3560   71.2960 Cl  0  0  0  0  0  0  0  0  0  0  0  0
    3.1010   59.0230   70.8900 C   0  0  0  0  0  0  0  0  0  0  0  0
    3.8490   59.4160   69.7880 C   0  0  0  0  0  0  0  0  0  0  0  0
    3.9240   60.7680   69.4610 C   0  0  0  0  0  0  0  0  0  0  0  0
    3.2580   61.7280   70.2400 C   0  0  0  0  0  0  0  0  0  0  0  0
    2.5200   61.3460   71.3820 C   0  0  0  0  0  0  0  0  0  0  0  0
    2.4380   59.9720   71.6730 C   0  0  0  0  0  0  0  0  0  0  0  0
    1.8360   62.3090   72.1690 N   0  0  0  0  0  0  0  0  0  0  0  0
    1.3990   63.5640   71.6700 C   0  0  0  0  0  0  0  0  0  0  0  0
    2.0270   64.1690   70.5610 C   0  0  0  0  0  0  0  0  0  0  0  0
    3.4430   63.4370   69.7620 S   0  0  0  0  0  0  0  0  0  0  0  0
    1.5910   65.4120   70.0810 C   0  0  0  0  0  0  0  0  0  0  0  0
    0.5140   66.0650   70.6770 C   0  0  0  0  0  0  0  0  0  0  0  0
   -0.1330   65.4750   71.7550 C   0  0  0  0  0  0  0  0  0  0  0  0
    0.3010   64.2370   72.2400 C   0  0  0  0  0  0  0  0  0  0  0  0
    1.7940   62.0990   73.6330 C   0  0  0  0  0  0  0  0  0  0  0  0
    0.5950   61.2260   74.0510 C   0  0  0  0  0  0  0  0  0  0  0  0
    0.8680   60.4640   75.3450 C   0  0  0  0  0  0  0  0  0  0  0  0
    0.9420   58.9570   75.1430 N   0  0  0  0  0  4  0  0  0  0  0  0
    2.3420   58.3930   75.2060 C   0  0  0  0  0  0  0  0  0  0  0  0
    2.2710   56.8740   75.2050 C   0  0  0  0  0  0  0  0  0  0  0  0
    1.5070   56.3690   73.9780 C   0  0  0  0  0  0  0  0  0  0  0  0
    0.1010   56.9680   73.9280 C   0  0  0  0  0  0  0  0  0  0  0  0
    0.1650   58.4890   73.9250 C   0  0  0  0  0  0  0  0  0  0  0  0
    1.4940   54.8540   73.9140 C   0  0  0  0  0  0  0  0  0  0  0  0
    0.5420   54.2020   74.3270 O   0  0  0  0  0  0  0  0  0  0  0  0
    2.5680   54.2410   73.3520 N   0  0  0  0  0  0  0  0  0  0  0  0
    4.3770   58.6672   69.1794 H   0  0  0  0  0  0  0  0  0  0  0  0
    4.5095   61.0861   68.5858 H   0  0  0  0  0  0  0  0  0  0  0  0
    1.8402   59.6380   72.5339 H   0  0  0  0  0  0  0  0  0  0  0  0
    2.1040   65.8762   69.2258 H   0  0  0  0  0  0  0  0  0  0  0  0
    0.1786   67.0410   70.2963 H   0  0  0  0  0  0  0  0  0  0  0  0
   -0.9873   65.9817   72.2277 H   0  0  0  0  0  0  0  0  0  0  0  0
   -0.2284   63.7776   73.0877 H   0  0  0  0  0  0  0  0  0  0  0  0
    2.7234   61.6023   73.9484 H   0  0  0  0  0  0  0  0  0  0  0  0
    1.6873   63.0812   74.1167 H   0  0  0  0  0  0  0  0  0  0  0  0
   -0.2820   61.8735   74.1981 H   0  0  0  0  0  0  0  0  0  0  0  0
    0.4157   60.4897   73.2537 H   0  0  0  0  0  0  0  0  0  0  0  0
    1.8263   60.8096   75.7599 H   0  0  0  0  0  0  0  0  0  0  0  0
    0.0292   60.6638   76.0280 H   0  0  0  0  0  0  0  0  0  0  0  0
    0.4639   58.5546   75.9618 H   0  0  0  0  0  0  0  0  0  0  0  0
    2.9158   58.7348   74.3320 H   0  0  0  0  0  0  0  0  0  0  0  0
    2.8381   58.7386   76.1249 H   0  0  0  0  0  0  0  0  0  0  0  0
    3.2919   56.4648   75.1884 H   0  0  0  0  0  0  0  0  0  0  0  0
    1.7424   56.5440   76.1114 H   0  0  0  0  0  0  0  0  0  0  0  0
    2.0384   56.7127   73.0783 H   0  0  0  0  0  0  0  0  0  0  0  0
   -0.4051   56.6259   73.0132 H   0  0  0  0  0  0  0  0  0  0  0  0
   -0.4560   56.6388   74.8176 H   0  0  0  0  0  0  0  0  0  0  0  0
    0.6702   58.8344   73.0110 H   0  0  0  0  0  0  0  0  0  0  0  0
   -0.8539   58.9025   73.9546 H   0  0  0  0  0  0  0  0  0  0  0  0
    2.5996   53.2134   73.2885 H   0  0  0  0  0  0  0  0  0  0  0  0
    3.3508   54.8037   72.9893 H   0  0  0  0  0  0  0  0  0  0  0  0
  2  1  1  0
  3  2  2  0
  4  3  1  0
  5  4  2  0
  6  5  1  0
  7  6  2  0
  7  2  1  0
  8  6  1  0
  9  8  1  0
 10  9  2  0
 11  5  1  0
 11 10  1  0
 12 10  1  0
 13 12  2  0
 14 13  1  0
 15 14  2  0
 15  9  1  0
 16  8  1  0
 17 16  1  0
 18 17  1  0
 19 18  1  0
 20 19  1  0
 21 20  1  0
 22 21  1  0
 23 22  1  0
 24 23  1  0
 24 19  1  0
 25 22  1  0
 26 25  2  0
 27 25  1  0
  3 28  1  0
  4 29  1  0
  7 30  1  0
 12 31  1  0
 13 32  1  0
 14 33  1  0
 15 34  1  0
 16 35  1  0
 16 36  1  0
 17 37  1  0
 17 38  1  0
 18 39  1  0
 18 40  1  0
 19 41  1  0
 20 42  1  0
 20 43  1  0
 21 44  1  0
 21 45  1  0
 22 46  1  0
 23 47  1  0
 23 48  1  0
 24 49  1  0
 24 50  1  0
 27 51  1  0
 27 52  1  0
M  CHG  1  19   1
M  END
>  <score>  (6) 
-8.274

$$$$
=
     RDKit          3D

 52 55  0  0  0  0  0  0  0  0999 V2000
    0.1180   62.5950   71.9690 Cl  0  0  0  0  0  0  0  0  0  0  0  0
   -0.4530   61.2460   72.8700 C   0  0  0  0  0  0  0  0  0  0  0  0
   -1.7620   61.2290   73.3320 C   0  0  0  0  0  0  0  0  0  0  0  0
   -2.2170   60.1250   74.0500 C   0  0  0  0  0  0  0  0  0  0  0  0
   -1.3610   59.0430   74.3120 C   0  0  0  0  0  0  0  0  0  0  0  0
   -0.0180   59.0610   73.8750 C   0  0  0  0  0  0  0  0  0  0  0  0
    0.4070   60.1760   73.1280 C   0  0  0  0  0  0  0  0  0  0  0  0
    0.8510   57.9670   74.1270 N   0  0  0  0  0  0  0  0  0  0  0  0
    0.3980   56.6390   74.3440 C   0  0  0  0  0  0  0  0  0  0  0  0
   -0.9000   56.3790   74.8320 C   0  0  0  0  0  0  0  0  0  0  0  0
   -2.0260   57.6910   75.2690 S   0  0  0  0  0  0  0  0  0  0  0  0
   -1.3340   55.0630   75.0480 C   0  0  0  0  0  0  0  0  0  0  0  0
   -0.4970   53.9860   74.7660 C   0  0  0  0  0  0  0  0  0  0  0  0
    0.7760   54.2190   74.2630 C   0  0  0  0  0  0  0  0  0  0  0  0
    1.2140   55.5300   74.0500 C   0  0  0  0  0  0  0  0  0  0  0  0
    2.2690   58.2660   74.4210 C   0  0  0  0  0  0  0  0  0  0  0  0
    3.1450   58.1770   73.1570 C   0  0  0  0  0  0  0  0  0  0  0  0
    4.1810   59.2970   73.1000 C   0  0  0  0  0  0  0  0  0  0  0  0
    3.8380   60.3740   72.0810 N   0  0  0  0  0  4  0  0  0  0  0  0
    3.2300   59.8460   70.8040 C   0  0  0  0  0  0  0  0  0  0  0  0
    2.7390   61.0140   69.9620 C   0  0  0  0  0  0  0  0  0  0  0  0
    3.8780   61.9980   69.6860 C   0  0  0  0  0  0  0  0  0  0  0  0
    4.4880   62.5030   70.9930 C   0  0  0  0  0  0  0  0  0  0  0  0
    4.9850   61.3390   71.8390 C   0  0  0  0  0  0  0  0  0  0  0  0
    3.4310   63.1280   68.7800 C   0  0  0  0  0  0  0  0  0  0  0  0
    3.7400   63.1630   67.5960 O   0  0  0  0  0  0  0  0  0  0  0  0
    2.6440   64.0940   69.3240 N   0  0  0  0  0  0  0  0  0  0  0  0
   -2.4327   62.0779   73.1334 H   0  0  0  0  0  0  0  0  0  0  0  0
   -3.2546   60.1008   74.4144 H   0  0  0  0  0  0  0  0  0  0  0  0
    1.4359   60.2051   72.7401 H   0  0  0  0  0  0  0  0  0  0  0  0
   -2.3440   54.8798   75.4435 H   0  0  0  0  0  0  0  0  0  0  0  0
   -0.8426   52.9564   74.9408 H   0  0  0  0  0  0  0  0  0  0  0  0
    1.4398   53.3728   74.0321 H   0  0  0  0  0  0  0  0  0  0  0  0
    2.2216   55.6990   73.6424 H   0  0  0  0  0  0  0  0  0  0  0  0
    2.3406   59.2833   74.8332 H   0  0  0  0  0  0  0  0  0  0  0  0
    2.6335   57.5209   75.1435 H   0  0  0  0  0  0  0  0  0  0  0  0
    3.6677   57.2091   73.1544 H   0  0  0  0  0  0  0  0  0  0  0  0
    2.4881   58.2764   72.2803 H   0  0  0  0  0  0  0  0  0  0  0  0
    4.2477   59.7635   74.0939 H   0  0  0  0  0  0  0  0  0  0  0  0
    5.1361   58.8460   72.7927 H   0  0  0  0  0  0  0  0  0  0  0  0
    3.0847   60.9237   72.5184 H   0  0  0  0  0  0  0  0  0  0  0  0
    3.9881   59.2807   70.2421 H   0  0  0  0  0  0  0  0  0  0  0  0
    2.3855   59.1832   71.0438 H   0  0  0  0  0  0  0  0  0  0  0  0
    2.3519   60.6323   69.0058 H   0  0  0  0  0  0  0  0  0  0  0  0
    1.9445   61.5382   70.5133 H   0  0  0  0  0  0  0  0  0  0  0  0
    4.6707   61.4618   69.1437 H   0  0  0  0  0  0  0  0  0  0  0  0
    5.3326   63.1694   70.7637 H   0  0  0  0  0  0  0  0  0  0  0  0
    3.7158   63.0464   71.5573 H   0  0  0  0  0  0  0  0  0  0  0  0
    5.7975   60.8197   71.3097 H   0  0  0  0  0  0  0  0  0  0  0  0
    5.3615   61.7153   72.8016 H   0  0  0  0  0  0  0  0  0  0  0  0
    2.3178   64.8799   68.7436 H   0  0  0  0  0  0  0  0  0  0  0  0
    2.3740   64.0399   70.3165 H   0  0  0  0  0  0  0  0  0  0  0  0
  2  1  1  0
  3  2  2  0
  4  3  1  0
  5  4  2  0
  6  5  1  0
  7  6  2  0
  7  2  1  0
  8  6  1  0
  9  8  1  0
 10  9  2  0
 11  5  1  0
 11 10  1  0
 12 10  1  0
 13 12  2  0
 14 13  1  0
 15 14  2  0
 15  9  1  0
 16  8  1  0
 17 16  1  0
 18 17  1  0
 19 18  1  0
 20 19  1  0
 21 20  1  0
 22 21  1  0
 23 22  1  0
 24 23  1  0
 24 19  1  0
 25 22  1  0
 26 25  2  0
 27 25  1  0
  3 28  1  0
  4 29  1  0
  7 30  1  0
 12 31  1  0
 13 32  1  0
 14 33  1  0
 15 34  1  0
 16 35  1  0
 16 36  1  0
 17 37  1  0
 17 38  1  0
 18 39  1  0
 18 40  1  0
 19 41  1  0
 20 42  1  0
 20 43  1  0
 21 44  1  0
 21 45  1  0
 22 46  1  0
 23 47  1  0
 23 48  1  0
 24 49  1  0
 24 50  1  0
 27 51  1  0
 27 52  1  0
M  CHG  1  19   1
M  END
>  <score>  (7) 
-8.256

$$$$
=
     RDKit          3D

 52 55  0  0  0  0  0  0  0  0999 V2000
    4.8680   65.2900   64.4530 Cl  0  0  0  0  0  0  0  0  0  0  0  0
    3.5310   66.3600   64.3020 C   0  0  0  0  0  0  0  0  0  0  0  0
    3.3280   67.0490   63.1130 C   0  0  0  0  0  0  0  0  0  0  0  0
    2.2340   67.9040   62.9980 C   0  0  0  0  0  0  0  0  0  0  0  0
    1.3480   68.0760   64.0740 C   0  0  0  0  0  0  0  0  0  0  0  0
    1.5590   67.4060   65.2990 C   0  0  0  0  0  0  0  0  0  0  0  0
    2.6560   66.5280   65.3780 C   0  0  0  0  0  0  0  0  0  0  0  0
    0.6630   67.5680   66.3880 N   0  0  0  0  0  0  0  0  0  0  0  0
   -0.6970   67.9440   66.2360 C   0  0  0  0  0  0  0  0  0  0  0  0
   -1.1330   68.6700   65.1080 C   0  0  0  0  0  0  0  0  0  0  0  0
   -0.0030   69.2190   63.8420 S   0  0  0  0  0  0  0  0  0  0  0  0
   -2.4790   69.0420   64.9710 C   0  0  0  0  0  0  0  0  0  0  0  0
   -3.4150   68.6830   65.9380 C   0  0  0  0  0  0  0  0  0  0  0  0
   -3.0100   67.9470   67.0440 C   0  0  0  0  0  0  0  0  0  0  0  0
   -1.6690   67.5780   67.1870 C   0  0  0  0  0  0  0  0  0  0  0  0
    1.2320   67.5850   67.7530 C   0  0  0  0  0  0  0  0  0  0  0  0
    0.4960   66.6080   68.6910 C   0  0  0  0  0  0  0  0  0  0  0  0
    1.3130   66.2920   69.9410 C   0  0  0  0  0  0  0  0  0  0  0  0
    1.2560   64.8220   70.3330 N   0  0  0  0  0  4  0  0  0  0  0  0
    0.3750   64.5350   71.5260 C   0  0  0  0  0  0  0  0  0  0  0  0
    0.2280   63.0300   71.6900 C   0  0  0  0  0  0  0  0  0  0  0  0
    1.6000   62.3640   71.8200 C   0  0  0  0  0  0  0  0  0  0  0  0
    2.4780   62.6850   70.6100 C   0  0  0  0  0  0  0  0  0  0  0  0
    2.6320   64.1900   70.4420 C   0  0  0  0  0  0  0  0  0  0  0  0
    1.4750   60.8730   72.0650 C   0  0  0  0  0  0  0  0  0  0  0  0
    0.5040   60.3960   72.6410 O   0  0  0  0  0  0  0  0  0  0  0  0
    2.4690   60.0750   71.5960 N   0  0  0  0  0  0  0  0  0  0  0  0
    4.0239   66.9208   62.2708 H   0  0  0  0  0  0  0  0  0  0  0  0
    2.0630   68.4483   62.0575 H   0  0  0  0  0  0  0  0  0  0  0  0
    2.8280   65.9626   66.3058 H   0  0  0  0  0  0  0  0  0  0  0  0
   -2.7977   69.6221   64.0924 H   0  0  0  0  0  0  0  0  0  0  0  0
   -4.4681   68.9805   65.8264 H   0  0  0  0  0  0  0  0  0  0  0  0
   -3.7450   67.6541   67.8082 H   0  0  0  0  0  0  0  0  0  0  0  0
   -1.3658   66.9872   68.0640 H   0  0  0  0  0  0  0  0  0  0  0  0
    2.2925   67.2977   67.7005 H   0  0  0  0  0  0  0  0  0  0  0  0
    1.1178   68.6010   68.1589 H   0  0  0  0  0  0  0  0  0  0  0  0
   -0.4595   67.0599   68.9958 H   0  0  0  0  0  0  0  0  0  0  0  0
    0.3342   65.6677   68.1436 H   0  0  0  0  0  0  0  0  0  0  0  0
    2.3620   66.5640   69.7522 H   0  0  0  0  0  0  0  0  0  0  0  0
    0.8817   66.8708   70.7710 H   0  0  0  0  0  0  0  0  0  0  0  0
    0.7858   64.3536   69.5453 H   0  0  0  0  0  0  0  0  0  0  0  0
    0.8320   64.9607   72.4315 H   0  0  0  0  0  0  0  0  0  0  0  0
   -0.6154   64.9879   71.3709 H   0  0  0  0  0  0  0  0  0  0  0  0
   -0.3621   62.8212   72.5946 H   0  0  0  0  0  0  0  0  0  0  0  0
   -0.2792   62.6251   70.8019 H   0  0  0  0  0  0  0  0  0  0  0  0
    2.1011   62.7830   72.7051 H   0  0  0  0  0  0  0  0  0  0  0  0
    3.4709   62.2342   70.7544 H   0  0  0  0  0  0  0  0  0  0  0  0
    2.0007   62.2751   69.7077 H   0  0  0  0  0  0  0  0  0  0  0  0
    3.1601   64.6056   71.3129 H   0  0  0  0  0  0  0  0  0  0  0  0
    3.2106   64.4035   69.5312 H   0  0  0  0  0  0  0  0  0  0  0  0
    2.4233   59.0563   71.7410 H   0  0  0  0  0  0  0  0  0  0  0  0
    3.2685   60.4886   71.0954 H   0  0  0  0  0  0  0  0  0  0  0  0
  2  1  1  0
  3  2  2  0
  4  3  1  0
  5  4  2  0
  6  5  1  0
  7  6  2  0
  7  2  1  0
  8  6  1  0
  9  8  1  0
 10  9  2  0
 11  5  1  0
 11 10  1  0
 12 10  1  0
 13 12  2  0
 14 13  1  0
 15 14  2  0
 15  9  1  0
 16  8  1  0
 17 16  1  0
 18 17  1  0
 19 18  1  0
 20 19  1  0
 21 20  1  0
 22 21  1  0
 23 22  1  0
 24 23  1  0
 24 19  1  0
 25 22  1  0
 26 25  2  0
 27 25  1  0
  3 28  1  0
  4 29  1  0
  7 30  1  0
 12 31  1  0
 13 32  1  0
 14 33  1  0
 15 34  1  0
 16 35  1  0
 16 36  1  0
 17 37  1  0
 17 38  1  0
 18 39  1  0
 18 40  1  0
 19 41  1  0
 20 42  1  0
 20 43  1  0
 21 44  1  0
 21 45  1  0
 22 46  1  0
 23 47  1  0
 23 48  1  0
 24 49  1  0
 24 50  1  0
 27 51  1  0
 27 52  1  0
M  CHG  1  19   1
M  END
>  <score>  (8) 
-7.985

$$$$
=
     RDKit          3D

 52 55  0  0  0  0  0  0  0  0999 V2000
   -0.3560   66.0480   71.6470 Cl  0  0  0  0  0  0  0  0  0  0  0  0
    0.5270   64.5730   71.5990 C   0  0  0  0  0  0  0  0  0  0  0  0
    1.3490   64.2950   70.5150 C   0  0  0  0  0  0  0  0  0  0  0  0
    2.0690   63.1030   70.4940 C   0  0  0  0  0  0  0  0  0  0  0  0
    1.9610   62.1850   71.5510 C   0  0  0  0  0  0  0  0  0  0  0  0
    1.1040   62.4400   72.6440 C   0  0  0  0  0  0  0  0  0  0  0  0
    0.4100   63.6640   72.6540 C   0  0  0  0  0  0  0  0  0  0  0  0
    0.9960   61.5220   73.7210 N   0  0  0  0  0  0  0  0  0  0  0  0
    2.0160   60.5990   74.0720 C   0  0  0  0  0  0  0  0  0  0  0  0
    2.9600   60.1570   73.1210 C   0  0  0  0  0  0  0  0  0  0  0  0
    2.8950   60.6710   71.4150 S   0  0  0  0  0  0  0  0  0  0  0  0
    3.9600   59.2400   73.4770 C   0  0  0  0  0  0  0  0  0  0  0  0
    4.0520   58.7630   74.7820 C   0  0  0  0  0  0  0  0  0  0  0  0
    3.1470   59.2050   75.7390 C   0  0  0  0  0  0  0  0  0  0  0  0
    2.1460   60.1150   75.3880 C   0  0  0  0  0  0  0  0  0  0  0  0
   -0.3320   61.3510   74.3510 C   0  0  0  0  0  0  0  0  0  0  0  0
   -1.1680   60.2730   73.6350 C   0  0  0  0  0  0  0  0  0  0  0  0
   -1.7830   59.2810   74.6190 C   0  0  0  0  0  0  0  0  0  0  0  0
   -0.9870   57.9880   74.7360 N   0  0  0  0  0  4  0  0  0  0  0  0
   -0.2760   57.8180   76.0570 C   0  0  0  0  0  0  0  0  0  0  0  0
    0.3020   56.4130   76.1380 C   0  0  0  0  0  0  0  0  0  0  0  0
    1.2300   56.1420   74.9520 C   0  0  0  0  0  0  0  0  0  0  0  0
    0.4930   56.3390   73.6270 C   0  0  0  0  0  0  0  0  0  0  0  0
   -0.0850   57.7440   73.5390 C   0  0  0  0  0  0  0  0  0  0  0  0
    1.8810   54.7760   75.0550 C   0  0  0  0  0  0  0  0  0  0  0  0
    2.5370   54.3060   74.1330 O   0  0  0  0  0  0  0  0  0  0  0  0
    1.7360   54.0990   76.2240 N   0  0  0  0  0  0  0  0  0  0  0  0
    1.4306   65.0085   69.6818 H   0  0  0  0  0  0  0  0  0  0  0  0
    2.7279   62.8788   69.6422 H   0  0  0  0  0  0  0  0  0  0  0  0
   -0.2371   63.9101   73.5088 H   0  0  0  0  0  0  0  0  0  0  0  0
    4.6779   58.8946   72.7185 H   0  0  0  0  0  0  0  0  0  0  0  0
    4.8361   58.0409   75.0534 H   0  0  0  0  0  0  0  0  0  0  0  0
    3.2184   58.8385   76.7737 H   0  0  0  0  0  0  0  0  0  0  0  0
    1.4422   60.4618   76.1589 H   0  0  0  0  0  0  0  0  0  0  0  0
   -0.1928   61.0550   75.4012 H   0  0  0  0  0  0  0  0  0  0  0  0
   -0.8713   62.3070   74.2790 H   0  0  0  0  0  0  0  0  0  0  0  0
   -1.9764   60.7646   73.0740 H   0  0  0  0  0  0  0  0  0  0  0  0
   -0.4999   59.7153   72.9623 H   0  0  0  0  0  0  0  0  0  0  0  0
   -1.8302   59.7545   75.6107 H   0  0  0  0  0  0  0  0  0  0  0  0
   -2.7823   59.0192   74.2410 H   0  0  0  0  0  0  0  0  0  0  0  0
   -1.6931   57.2382   74.7231 H   0  0  0  0  0  0  0  0  0  0  0  0
    0.5368   58.5551   76.1346 H   0  0  0  0  0  0  0  0  0  0  0  0
   -0.9874   57.9726   76.8817 H   0  0  0  0  0  0  0  0  0  0  0  0
    0.8716   56.3100   77.0734 H   0  0  0  0  0  0  0  0  0  0  0  0
   -0.5249   55.6879   76.1136 H   0  0  0  0  0  0  0  0  0  0  0  0
    2.0465   56.8785   74.9812 H   0  0  0  0  0  0  0  0  0  0  0  0
    1.1966   56.1849   72.7956 H   0  0  0  0  0  0  0  0  0  0  0  0
   -0.3308   55.6124   73.5681 H   0  0  0  0  0  0  0  0  0  0  0  0
    0.7332   58.4792   73.5388 H   0  0  0  0  0  0  0  0  0  0  0  0
   -0.6662   57.8474   72.6108 H   0  0  0  0  0  0  0  0  0  0  0  0
    2.1621   53.1680   76.3362 H   0  0  0  0  0  0  0  0  0  0  0  0
    1.2000   54.5167   76.9980 H   0  0  0  0  0  0  0  0  0  0  0  0
  2  1  1  0
  3  2  2  0
  4  3  1  0
  5  4  2  0
  6  5  1  0
  7  6  2  0
  7  2  1  0
  8  6  1  0
  9  8  1  0
 10  9  2  0
 11  5  1  0
 11 10  1  0
 12 10  1  0
 13 12  2  0
 14 13  1  0
 15 14  2  0
 15  9  1  0
 16  8  1  0
 17 16  1  0
 18 17  1  0
 19 18  1  0
 20 19  1  0
 21 20  1  0
 22 21  1  0
 23 22  1  0
 24 23  1  0
 24 19  1  0
 25 22  1  0
 26 25  2  0
 27 25  1  0
  3 28  1  0
  4 29  1  0
  7 30  1  0
 12 31  1  0
 13 32  1  0
 14 33  1  0
 15 34  1  0
 16 35  1  0
 16 36  1  0
 17 37  1  0
 17 38  1  0
 18 39  1  0
 18 40  1  0
 19 41  1  0
 20 42  1  0
 20 43  1  0
 21 44  1  0
 21 45  1  0
 22 46  1  0
 23 47  1  0
 23 48  1  0
 24 49  1  0
 24 50  1  0
 27 51  1  0
 27 52  1  0
M  CHG  1  19   1
M  END
>  <score>  (9) 
-7.768

$$$$
