=
     RDKit          3D

 45 47  0  0  0  0  0  0  0  0999 V2000
    0.9290   68.4000   64.7640 C   0  0  0  0  0  0  0  0  0  0  0  0
   -0.2630   68.1230   64.6570 O   0  0  0  0  0  0  0  0  0  0  0  0
    1.5590   68.7070   65.9670 N   0  0  0  0  0  0  0  0  0  0  0  0
    0.7420   68.8470   67.1690 C   0  0  0  0  0  0  0  0  0  0  0  0
    1.2380   70.0080   68.0230 C   0  0  0  0  0  0  0  0  0  0  0  0
    2.6890   69.7890   68.4950 C   0  0  0  0  0  0  0  0  0  0  0  0
    3.4800   68.8780   67.5350 C   0  0  0  0  0  0  0  0  0  0  0  0
    2.9950   68.9750   66.0920 C   0  0  0  0  0  0  0  0  0  0  0  0
    0.0220   69.8560   62.3480 C   0  0  0  0  0  0  0  0  0  0  0  0
    1.3230   69.1060   62.3860 C   0  0  0  0  0  0  0  0  0  0  0  0
    2.1590   69.0980   61.2600 C   0  0  0  0  0  0  0  0  0  0  0  0
    3.3660   68.3910   61.2730 C   0  0  0  0  0  0  0  0  0  0  0  0
    3.7550   67.6810   62.4090 C   0  0  0  0  0  0  0  0  0  0  0  0
    2.9450   67.6880   63.5420 C   0  0  0  0  0  0  0  0  0  0  0  0
    1.7470   68.4120   63.5330 C   0  0  0  0  0  0  0  0  0  0  0  0
    3.4130   71.1060   68.8590 C   0  0  0  0  0  0  0  0  0  0  0  0
    4.9120   71.0360   69.0380 C   0  0  0  0  0  0  0  0  0  0  0  0
    5.4670   70.5250   70.2200 C   0  0  0  0  0  0  0  0  0  0  0  0
    6.8530   70.4470   70.3800 C   0  0  0  0  0  0  0  0  0  0  0  0
    7.6990   70.8880   69.3660 C   0  0  0  0  0  0  0  0  0  0  0  0
    7.1610   71.4140   68.1950 C   0  0  0  0  0  0  0  0  0  0  0  0
    5.7760   71.4920   68.0330 C   0  0  0  0  0  0  0  0  0  0  0  0
   -0.3020   69.0334   66.8768 H   0  0  0  0  0  0  0  0  0  0  0  0
    0.8132   67.9194   67.7560 H   0  0  0  0  0  0  0  0  0  0  0  0
    1.1920   70.9327   67.4290 H   0  0  0  0  0  0  0  0  0  0  0  0
    0.5949   70.0788   68.9126 H   0  0  0  0  0  0  0  0  0  0  0  0
    2.6343   69.2371   69.4449 H   0  0  0  0  0  0  0  0  0  0  0  0
    4.5405   69.1682   67.5694 H   0  0  0  0  0  0  0  0  0  0  0  0
    3.3295   67.8396   67.8653 H   0  0  0  0  0  0  0  0  0  0  0  0
    3.1992   69.9891   65.7179 H   0  0  0  0  0  0  0  0  0  0  0  0
    3.5310   68.2142   65.5056 H   0  0  0  0  0  0  0  0  0  0  0  0
   -0.3183   70.0522   63.3755 H   0  0  0  0  0  0  0  0  0  0  0  0
    0.1644   70.8106   61.8203 H   0  0  0  0  0  0  0  0  0  0  0  0
   -0.7328   69.2544   61.8203 H   0  0  0  0  0  0  0  0  0  0  0  0
    1.8627   69.6531   60.3578 H   0  0  0  0  0  0  0  0  0  0  0  0
    4.0119   68.3949   60.3826 H   0  0  0  0  0  0  0  0  0  0  0  0
    4.6993   67.1169   62.4100 H   0  0  0  0  0  0  0  0  0  0  0  0
    3.2452   67.1273   64.4395 H   0  0  0  0  0  0  0  0  0  0  0  0
    3.2077   71.8305   68.0572 H   0  0  0  0  0  0  0  0  0  0  0  0
    3.0192   71.3857   69.8473 H   0  0  0  0  0  0  0  0  0  0  0  0
    4.8051   70.1823   71.0289 H   0  0  0  0  0  0  0  0  0  0  0  0
    7.2763   70.0365   71.3086 H   0  0  0  0  0  0  0  0  0  0  0  0
    8.7899   70.8209   69.4900 H   0  0  0  0  0  0  0  0  0  0  0  0
    7.8280   71.7690   67.3956 H   0  0  0  0  0  0  0  0  0  0  0  0
    5.3591   71.9156   67.1074 H   0  0  0  0  0  0  0  0  0  0  0  0
  2  1  2  0
  3  1  1  0
  4  3  1  0
  5  4  1  0
  6  5  1  0
  7  6  1  0
  8  7  1  0
  8  3  1  0
 10  9  1  0
 11 10  2  0
 12 11  1  0
 13 12  2  0
 14 13  1  0
 15 14  2  0
 15 10  1  0
 15  1  1  0
 16  6  1  0
 17 16  1  0
 18 17  2  0
 19 18  1  0
 20 19  2  0
 21 20  1  0
 22 17  1  0
 22 21  2  0
  4 23  1  0
  4 24  1  0
  5 25  1  0
  5 26  1  0
  6 27  1  0
  7 28  1  0
  7 29  1  0
  8 30  1  0
  8 31  1  0
  9 32  1  0
  9 33  1  0
  9 34  1  0
 11 35  1  0
 12 36  1  0
 13 37  1  0
 14 38  1  0
 16 39  1  0
 16 40  1  0
 18 41  1  0
 19 42  1  0
 20 43  1  0
 21 44  1  0
 22 45  1  0
M  END
>  <score>  (1) 
-9.38

$$$$
=
     RDKit          3D

 45 47  0  0  0  0  0  0  0  0999 V2000
    3.3180   59.0030   73.6130 C   0  0  0  0  0  0  0  0  0  0  0  0
    3.9840   59.0800   74.6410 O   0  0  0  0  0  0  0  0  0  0  0  0
    3.6990   59.5440   72.3880 N   0  0  0  0  0  0  0  0  0  0  0  0
    4.8970   60.3760   72.3330 C   0  0  0  0  0  0  0  0  0  0  0  0
    4.6830   61.5680   71.4080 C   0  0  0  0  0  0  0  0  0  0  0  0
    4.3850   61.1200   69.9630 C   0  0  0  0  0  0  0  0  0  0  0  0
    3.7480   59.7180   69.9090 C   0  0  0  0  0  0  0  0  0  0  0  0
    2.9250   59.3920   71.1520 C   0  0  0  0  0  0  0  0  0  0  0  0
    0.7810   60.4930   73.9570 C   0  0  0  0  0  0  0  0  0  0  0  0
    0.8160   58.9960   73.8390 C   0  0  0  0  0  0  0  0  0  0  0  0
   -0.3780   58.2620   73.8710 C   0  0  0  0  0  0  0  0  0  0  0  0
   -0.3610   56.8670   73.7800 C   0  0  0  0  0  0  0  0  0  0  0  0
    0.8480   56.1830   73.6560 C   0  0  0  0  0  0  0  0  0  0  0  0
    2.0450   56.8940   73.6100 C   0  0  0  0  0  0  0  0  0  0  0  0
    2.0240   58.2920   73.6820 C   0  0  0  0  0  0  0  0  0  0  0  0
    3.6300   62.1910   69.1410 C   0  0  0  0  0  0  0  0  0  0  0  0
    2.5850   63.0040   69.8710 C   0  0  0  0  0  0  0  0  0  0  0  0
    2.7130   64.3950   69.9860 C   0  0  0  0  0  0  0  0  0  0  0  0
    1.7410   65.1470   70.6490 C   0  0  0  0  0  0  0  0  0  0  0  0
    0.6340   64.5180   71.2120 C   0  0  0  0  0  0  0  0  0  0  0  0
    0.5030   63.1350   71.1210 C   0  0  0  0  0  0  0  0  0  0  0  0
    1.4750   62.3810   70.4590 C   0  0  0  0  0  0  0  0  0  0  0  0
    5.1299   60.7409   73.3442 H   0  0  0  0  0  0  0  0  0  0  0  0
    5.7298   59.7716   71.9441 H   0  0  0  0  0  0  0  0  0  0  0  0
    3.8342   62.1605   71.7801 H   0  0  0  0  0  0  0  0  0  0  0  0
    5.6062   62.1660   71.3989 H   0  0  0  0  0  0  0  0  0  0  0  0
    5.3555   61.0199   69.4550 H   0  0  0  0  0  0  0  0  0  0  0  0
    3.0905   59.6648   69.0287 H   0  0  0  0  0  0  0  0  0  0  0  0
    4.5665   58.9852   69.8532 H   0  0  0  0  0  0  0  0  0  0  0  0
    2.0596   60.0699   71.1910 H   0  0  0  0  0  0  0  0  0  0  0  0
    2.6092   58.3408   71.0801 H   0  0  0  0  0  0  0  0  0  0  0  0
    0.7744   60.7770   75.0197 H   0  0  0  0  0  0  0  0  0  0  0  0
    1.6694   60.9202   73.4689 H   0  0  0  0  0  0  0  0  0  0  0  0
   -0.1264   60.8782   73.4689 H   0  0  0  0  0  0  0  0  0  0  0  0
   -1.3384   58.7893   73.9687 H   0  0  0  0  0  0  0  0  0  0  0  0
   -1.3067   56.3057   73.8064 H   0  0  0  0  0  0  0  0  0  0  0  0
    0.8564   55.0847   73.5947 H   0  0  0  0  0  0  0  0  0  0  0  0
    3.0020   56.3596   73.5176 H   0  0  0  0  0  0  0  0  0  0  0  0
    4.3780   62.8924   68.7428 H   0  0  0  0  0  0  0  0  0  0  0  0
    3.0727   61.6266   68.3788 H   0  0  0  0  0  0  0  0  0  0  0  0
    3.5878   64.8993   69.5497 H   0  0  0  0  0  0  0  0  0  0  0  0
    1.8502   66.2388   70.7266 H   0  0  0  0  0  0  0  0  0  0  0  0
   -0.1351   65.1121   71.7273 H   0  0  0  0  0  0  0  0  0  0  0  0
   -0.3673   62.6351   71.5711 H   0  0  0  0  0  0  0  0  0  0  0  0
    1.3685   61.2878   70.3984 H   0  0  0  0  0  0  0  0  0  0  0  0
  2  1  2  0
  3  1  1  0
  4  3  1  0
  5  4  1  0
  6  5  1  0
  7  6  1  0
  8  7  1  0
  8  3  1  0
 10  9  1  0
 11 10  2  0
 12 11  1  0
 13 12  2  0
 14 13  1  0
 15 14  2  0
 15 10  1  0
 15  1  1  0
 16  6  1  0
 17 16  1  0
 18 17  2  0
 19 18  1  0
 20 19  2  0
 21 20  1  0
 22 17  1  0
 22 21  2  0
  4 23  1  0
  4 24  1  0
  5 25  1  0
  5 26  1  0
  6 27  1  0
  7 28  1  0
  7 29  1  0
  8 30  1  0
  8 31  1  0
  9 32  1  0
  9 33  1  0
  9 34  1  0
 11 35  1  0
 12 36  1  0
 13 37  1  0
 14 38  1  0
 16 39  1  0
 16 40  1  0
 18 41  1  0
 19 42  1  0
 20 43  1  0
 21 44  1  0
 22 45  1  0
M  END
>  <score>  (2) 
-9.31

$$$$
=
     RDKit          3D

 45 47  0  0  0  0  0  0  0  0999 V2000
    2.2160   68.8040   67.6960 C   0  0  0  0  0  0  0  0  0  0  0  0
    2.5090   69.7990   68.3530 O   0  0  0  0  0  0  0  0  0  0  0  0
    2.8440   68.4340   66.5100 N   0  0  0  0  0  0  0  0  0  0  0  0
    3.8240   69.3450   65.9230 C   0  0  0  0  0  0  0  0  0  0  0  0
    3.6820   69.3820   64.4060 C   0  0  0  0  0  0  0  0  0  0  0  0
    3.9300   67.9960   63.7770 C   0  0  0  0  0  0  0  0  0  0  0  0
    3.6160   66.8490   64.7570 C   0  0  0  0  0  0  0  0  0  0  0  0
    2.5290   67.2110   65.7650 C   0  0  0  0  0  0  0  0  0  0  0  0
   -0.4930   68.9530   66.5070 C   0  0  0  0  0  0  0  0  0  0  0  0
   -0.1660   68.0090   67.6280 C   0  0  0  0  0  0  0  0  0  0  0  0
   -1.1530   67.1490   68.1310 C   0  0  0  0  0  0  0  0  0  0  0  0
   -0.8690   66.2770   69.1860 C   0  0  0  0  0  0  0  0  0  0  0  0
    0.4040   66.2500   69.7560 C   0  0  0  0  0  0  0  0  0  0  0  0
    1.4020   67.0870   69.2630 C   0  0  0  0  0  0  0  0  0  0  0  0
    1.1200   67.9460   68.1940 C   0  0  0  0  0  0  0  0  0  0  0  0
    3.2770   67.8380   62.3850 C   0  0  0  0  0  0  0  0  0  0  0  0
    1.9420   68.5160   62.1740 C   0  0  0  0  0  0  0  0  0  0  0  0
    0.8920   68.3240   63.0830 C   0  0  0  0  0  0  0  0  0  0  0  0
   -0.3370   68.9610   62.8960 C   0  0  0  0  0  0  0  0  0  0  0  0
   -0.5330   69.7910   61.7950 C   0  0  0  0  0  0  0  0  0  0  0  0
    0.4950   69.9770   60.8750 C   0  0  0  0  0  0  0  0  0  0  0  0
    1.7250   69.3400   61.0610 C   0  0  0  0  0  0  0  0  0  0  0  0
    3.6641   70.3561   66.3257 H   0  0  0  0  0  0  0  0  0  0  0  0
    4.8339   68.9897   66.1757 H   0  0  0  0  0  0  0  0  0  0  0  0
    2.6643   69.7125   64.1510 H   0  0  0  0  0  0  0  0  0  0  0  0
    4.4337   70.0793   64.0077 H   0  0  0  0  0  0  0  0  0  0  0  0
    5.0099   67.9244   63.5804 H   0  0  0  0  0  0  0  0  0  0  0  0
    3.2818   65.9749   64.1789 H   0  0  0  0  0  0  0  0  0  0  0  0
    4.5349   66.6376   65.3236 H   0  0  0  0  0  0  0  0  0  0  0  0
    1.5820   67.3598   65.2255 H   0  0  0  0  0  0  0  0  0  0  0  0
    2.4544   66.3864   66.4892 H   0  0  0  0  0  0  0  0  0  0  0  0
   -0.8263   69.9151   66.9233 H   0  0  0  0  0  0  0  0  0  0  0  0
    0.4025   69.1117   65.8883 H   0  0  0  0  0  0  0  0  0  0  0  0
   -1.2948   68.5237   65.8883 H   0  0  0  0  0  0  0  0  0  0  0  0
   -2.1610   67.1608   67.6908 H   0  0  0  0  0  0  0  0  0  0  0  0
   -1.6539   65.6082   69.5690 H   0  0  0  0  0  0  0  0  0  0  0  0
    0.6190   65.5692   70.5929 H   0  0  0  0  0  0  0  0  0  0  0  0
    2.4065   67.0733   69.7111 H   0  0  0  0  0  0  0  0  0  0  0  0
    3.9777   68.2453   61.6412 H   0  0  0  0  0  0  0  0  0  0  0  0
    3.0707   66.7621   62.2858 H   0  0  0  0  0  0  0  0  0  0  0  0
    1.0374   67.6653   63.9519 H   0  0  0  0  0  0  0  0  0  0  0  0
   -1.1512   68.8068   63.6194 H   0  0  0  0  0  0  0  0  0  0  0  0
   -1.4984   70.2987   61.6526 H   0  0  0  0  0  0  0  0  0  0  0  0
    0.3391   70.6260   60.0007 H   0  0  0  0  0  0  0  0  0  0  0  0
    2.5308   69.4867   60.3267 H   0  0  0  0  0  0  0  0  0  0  0  0
  2  1  2  0
  3  1  1  0
  4  3  1  0
  5  4  1  0
  6  5  1  0
  7  6  1  0
  8  7  1  0
  8  3  1  0
 10  9  1  0
 11 10  2  0
 12 11  1  0
 13 12  2  0
 14 13  1  0
 15 14  2  0
 15 10  1  0
 15  1  1  0
 16  6  1  0
 17 16  1  0
 18 17  2  0
 19 18  1  0
 20 19  2  0
 21 20  1  0
 22 17  1  0
 22 21  2  0
  4 23  1  0
  4 24  1  0
  5 25  1  0
  5 26  1  0
  6 27  1  0
  7 28  1  0
  7 29  1  0
  8 30  1  0
  8 31  1  0
  9 32  1  0
  9 33  1  0
  9 34  1  0
 11 35  1  0
 12 36  1  0
 13 37  1  0
 14 38  1  0
 16 39  1  0
 16 40  1  0
 18 41  1  0
 19 42  1  0
 20 43  1  0
 21 44  1  0
 22 45  1  0
M  END
>  <score>  (3) 
-9.278

$$$$
=
     RDKit          3D

 45 47  0  0  0  0  0  0  0  0999 V2000
    3.5020   59.5190   70.4650 C   0  0  0  0  0  0  0  0  0  0  0  0
    3.8030   58.8830   69.4600 O   0  0  0  0  0  0  0  0  0  0  0  0
    3.0560   58.9460   71.6530 N   0  0  0  0  0  0  0  0  0  0  0  0
    2.7920   57.5100   71.6810 C   0  0  0  0  0  0  0  0  0  0  0  0
    1.5380   57.2090   72.4930 C   0  0  0  0  0  0  0  0  0  0  0  0
    1.6860   57.6640   73.9590 C   0  0  0  0  0  0  0  0  0  0  0  0
    2.6880   58.8250   74.1090 C   0  0  0  0  0  0  0  0  0  0  0  0
    2.7580   59.7110   72.8680 C   0  0  0  0  0  0  0  0  0  0  0  0
    5.9410   60.8930   71.4350 C   0  0  0  0  0  0  0  0  0  0  0  0
    4.7750   61.6480   70.8640 C   0  0  0  0  0  0  0  0  0  0  0  0
    4.8290   63.0450   70.7590 C   0  0  0  0  0  0  0  0  0  0  0  0
    3.7450   63.7640   70.2440 C   0  0  0  0  0  0  0  0  0  0  0  0
    2.5920   63.0990   69.8280 C   0  0  0  0  0  0  0  0  0  0  0  0
    2.5230   61.7110   69.9120 C   0  0  0  0  0  0  0  0  0  0  0  0
    3.6170   60.9920   70.4090 C   0  0  0  0  0  0  0  0  0  0  0  0
    0.3280   57.9040   74.6580 C   0  0  0  0  0  0  0  0  0  0  0  0
   -0.2120   59.3160   74.6380 C   0  0  0  0  0  0  0  0  0  0  0  0
   -0.0670   60.1520   75.7530 C   0  0  0  0  0  0  0  0  0  0  0  0
   -0.5530   61.4620   75.7300 C   0  0  0  0  0  0  0  0  0  0  0  0
   -1.1980   61.9470   74.5950 C   0  0  0  0  0  0  0  0  0  0  0  0
   -1.3640   61.1210   73.4860 C   0  0  0  0  0  0  0  0  0  0  0  0
   -0.8780   59.8120   73.5090 C   0  0  0  0  0  0  0  0  0  0  0  0
    2.6512   57.1485   70.6517 H   0  0  0  0  0  0  0  0  0  0  0  0
    3.6476   57.0020   72.1500 H   0  0  0  0  0  0  0  0  0  0  0  0
    0.6850   57.7359   72.0404 H   0  0  0  0  0  0  0  0  0  0  0  0
    1.3774   56.1208   72.4858 H   0  0  0  0  0  0  0  0  0  0  0  0
    2.1307   56.8219   74.5096 H   0  0  0  0  0  0  0  0  0  0  0  0
    2.3830   59.4438   74.9657 H   0  0  0  0  0  0  0  0  0  0  0  0
    3.6849   58.3845   74.2577 H   0  0  0  0  0  0  0  0  0  0  0  0
    1.7894   60.2161   72.7391 H   0  0  0  0  0  0  0  0  0  0  0  0
    3.5725   60.4351   73.0175 H   0  0  0  0  0  0  0  0  0  0  0  0
    5.8947   60.9230   72.5336 H   0  0  0  0  0  0  0  0  0  0  0  0
    5.9030   59.8476   71.0948 H   0  0  0  0  0  0  0  0  0  0  0  0
    6.8793   61.3554   71.0948 H   0  0  0  0  0  0  0  0  0  0  0  0
    5.7326   63.5811   71.0848 H   0  0  0  0  0  0  0  0  0  0  0  0
    3.8025   64.8598   70.1668 H   0  0  0  0  0  0  0  0  0  0  0  0
    1.7384   63.6702   69.4341 H   0  0  0  0  0  0  0  0  0  0  0  0
    1.6140   61.1820   69.5897 H   0  0  0  0  0  0  0  0  0  0  0  0
   -0.4158   57.2569   74.1700 H   0  0  0  0  0  0  0  0  0  0  0  0
    0.5091   57.6815   75.7199 H   0  0  0  0  0  0  0  0  0  0  0  0
    0.4346   59.7733   76.6558 H   0  0  0  0  0  0  0  0  0  0  0  0
   -0.4260   62.1107   76.6092 H   0  0  0  0  0  0  0  0  0  0  0  0
   -1.5755   62.9800   74.5745 H   0  0  0  0  0  0  0  0  0  0  0  0
   -1.8786   61.5002   72.5908 H   0  0  0  0  0  0  0  0  0  0  0  0
   -1.0194   59.1635   72.6318 H   0  0  0  0  0  0  0  0  0  0  0  0
  2  1  2  0
  3  1  1  0
  4  3  1  0
  5  4  1  0
  6  5  1  0
  7  6  1  0
  8  7  1  0
  8  3  1  0
 10  9  1  0
 11 10  2  0
 12 11  1  0
 13 12  2  0
 14 13  1  0
 15 14  2  0
 15 10  1  0
 15  1  1  0
 16  6  1  0
 17 16  1  0
 18 17  2  0
 19 18  1  0
 20 19  2  0
 21 20  1  0
 22 17  1  0
 22 21  2  0
  4 23  1  0
  4 24  1  0
  5 25  1  0
  5 26  1  0
  6 27  1  0
  7 28  1  0
  7 29  1  0
  8 30  1  0
  8 31  1  0
  9 32  1  0
  9 33  1  0
  9 34  1  0
 11 35  1  0
 12 36  1  0
 13 37  1  0
 14 38  1  0
 16 39  1  0
 16 40  1  0
 18 41  1  0
 19 42  1  0
 20 43  1  0
 21 44  1  0
 22 45  1  0
M  END
>  <score>  (4) 
-9.075

$$$$
=
     RDKit          3D

 45 47  0  0  0  0  0  0  0  0999 V2000
    1.0490   68.8310   67.7810 C   0  0  0  0  0  0  0  0  0  0  0  0
    0.1830   69.4400   67.1600 O   0  0  0  0  0  0  0  0  0  0  0  0
    0.8470   67.6080   68.4150 N   0  0  0  0  0  0  0  0  0  0  0  0
   -0.5070   67.0650   68.4720 C   0  0  0  0  0  0  0  0  0  0  0  0
   -0.7730   66.4250   69.8300 C   0  0  0  0  0  0  0  0  0  0  0  0
    0.1890   65.2530   70.1050 C   0  0  0  0  0  0  0  0  0  0  0  0
    1.5200   65.4020   69.3440 C   0  0  0  0  0  0  0  0  0  0  0  0
    1.9040   66.8590   69.1020 C   0  0  0  0  0  0  0  0  0  0  0  0
    3.0330   68.4400   65.6160 C   0  0  0  0  0  0  0  0  0  0  0  0
    3.3370   69.2600   66.8370 C   0  0  0  0  0  0  0  0  0  0  0  0
    4.5850   69.8850   66.9690 C   0  0  0  0  0  0  0  0  0  0  0  0
    4.8900   70.6380   68.1070 C   0  0  0  0  0  0  0  0  0  0  0  0
    3.9540   70.7780   69.1310 C   0  0  0  0  0  0  0  0  0  0  0  0
    2.7030   70.1760   69.0140 C   0  0  0  0  0  0  0  0  0  0  0  0
    2.3940   69.4390   67.8650 C   0  0  0  0  0  0  0  0  0  0  0  0
    0.3520   64.9450   71.6120 C   0  0  0  0  0  0  0  0  0  0  0  0
    0.6600   63.5140   71.9890 C   0  0  0  0  0  0  0  0  0  0  0  0
    1.9860   63.0810   72.1250 C   0  0  0  0  0  0  0  0  0  0  0  0
    2.2710   61.7620   72.4870 C   0  0  0  0  0  0  0  0  0  0  0  0
    1.2350   60.8590   72.7070 C   0  0  0  0  0  0  0  0  0  0  0  0
   -0.0860   61.2700   72.5580 C   0  0  0  0  0  0  0  0  0  0  0  0
   -0.3730   62.5890   72.1960 C   0  0  0  0  0  0  0  0  0  0  0  0
   -1.2295   67.8781   68.3080 H   0  0  0  0  0  0  0  0  0  0  0  0
   -0.6138   66.2971   67.6916 H   0  0  0  0  0  0  0  0  0  0  0  0
   -0.6424   67.1852   70.6143 H   0  0  0  0  0  0  0  0  0  0  0  0
   -1.8006   66.0327   69.8292 H   0  0  0  0  0  0  0  0  0  0  0  0
   -0.2843   64.3504   69.6911 H   0  0  0  0  0  0  0  0  0  0  0  0
    2.3163   64.9218   69.9316 H   0  0  0  0  0  0  0  0  0  0  0  0
    1.3939   64.9254   68.3606 H   0  0  0  0  0  0  0  0  0  0  0  0
    2.1031   67.3378   70.0721 H   0  0  0  0  0  0  0  0  0  0  0  0
    2.7955   66.8687   68.4577 H   0  0  0  0  0  0  0  0  0  0  0  0
    2.6657   67.4493   65.9218 H   0  0  0  0  0  0  0  0  0  0  0  0
    2.2632   68.9473   65.0160 H   0  0  0  0  0  0  0  0  0  0  0  0
    3.9475   68.3229   65.0160 H   0  0  0  0  0  0  0  0  0  0  0  0
    5.3324   69.7819   66.1685 H   0  0  0  0  0  0  0  0  0  0  0  0
    5.8736   71.1225   68.1949 H   0  0  0  0  0  0  0  0  0  0  0  0
    4.2027   71.3624   70.0291 H   0  0  0  0  0  0  0  0  0  0  0  0
    1.9621   70.2794   69.8204 H   0  0  0  0  0  0  0  0  0  0  0  0
    1.1715   65.5725   71.9925 H   0  0  0  0  0  0  0  0  0  0  0  0
   -0.6334   65.1520   72.0548 H   0  0  0  0  0  0  0  0  0  0  0  0
    2.8105   63.7866   71.9450 H   0  0  0  0  0  0  0  0  0  0  0  0
    3.3159   61.4367   72.5983 H   0  0  0  0  0  0  0  0  0  0  0  0
    1.4601   59.8224   72.9981 H   0  0  0  0  0  0  0  0  0  0  0  0
   -0.9056   60.5557   72.7254 H   0  0  0  0  0  0  0  0  0  0  0  0
   -1.4195   62.9045   72.0723 H   0  0  0  0  0  0  0  0  0  0  0  0
  2  1  2  0
  3  1  1  0
  4  3  1  0
  5  4  1  0
  6  5  1  0
  7  6  1  0
  8  7  1  0
  8  3  1  0
 10  9  1  0
 11 10  2  0
 12 11  1  0
 13 12  2  0
 14 13  1  0
 15 14  2  0
 15 10  1  0
 15  1  1  0
 16  6  1  0
 17 16  1  0
 18 17  2  0
 19 18  1  0
 20 19  2  0
 21 20  1  0
 22 17  1  0
 22 21  2  0
  4 23  1  0
  4 24  1  0
  5 25  1  0
  5 26  1  0
  6 27  1  0
  7 28  1  0
  7 29  1  0
  8 30  1  0
  8 31  1  0
  9 32  1  0
  9 33  1  0
  9 34  1  0
 11 35  1  0
 12 36  1  0
 13 37  1  0
 14 38  1  0
 16 39  1  0
 16 40  1  0
 18 41  1  0
 19 42  1  0
 20 43  1  0
 21 44  1  0
 22 45  1  0
M  END
>  <score>  (5) 
-8.987

$$$$
=
     RDKit          3D

 45 47  0  0  0  0  0  0  0  0999 V2000
    1.3860   66.9420   65.0460 C   0  0  0  0  0  0  0  0  0  0  0  0
    1.2280   65.7260   65.0090 O   0  0  0  0  0  0  0  0  0  0  0  0
    2.5200   67.6010   64.5780 N   0  0  0  0  0  0  0  0  0  0  0  0
    3.6610   66.8030   64.1370 C   0  0  0  0  0  0  0  0  0  0  0  0
    4.9700   67.4430   64.5840 C   0  0  0  0  0  0  0  0  0  0  0  0
    5.1510   68.8500   63.9810 C   0  0  0  0  0  0  0  0  0  0  0  0
    3.8020   69.5190   63.6520 C   0  0  0  0  0  0  0  0  0  0  0  0
    2.6730   69.0590   64.5700 C   0  0  0  0  0  0  0  0  0  0  0  0
    1.3040   67.5090   67.9520 C   0  0  0  0  0  0  0  0  0  0  0  0
    0.2630   68.0380   67.0080 C   0  0  0  0  0  0  0  0  0  0  0  0
   -0.7780   68.8430   67.4920 C   0  0  0  0  0  0  0  0  0  0  0  0
   -1.7640   69.3300   66.6280 C   0  0  0  0  0  0  0  0  0  0  0  0
   -1.7270   69.0200   65.2680 C   0  0  0  0  0  0  0  0  0  0  0  0
   -0.6940   68.2320   64.7660 C   0  0  0  0  0  0  0  0  0  0  0  0
    0.3030   67.7620   65.6290 C   0  0  0  0  0  0  0  0  0  0  0  0
    6.1170   69.7390   64.7980 C   0  0  0  0  0  0  0  0  0  0  0  0
    5.7350   70.0270   66.2320 C   0  0  0  0  0  0  0  0  0  0  0  0
    6.6880   70.5040   67.1430 C   0  0  0  0  0  0  0  0  0  0  0  0
    6.3320   70.7830   68.4650 C   0  0  0  0  0  0  0  0  0  0  0  0
    5.0230   70.5790   68.8930 C   0  0  0  0  0  0  0  0  0  0  0  0
    4.0710   70.0890   68.0040 C   0  0  0  0  0  0  0  0  0  0  0  0
    4.4260   69.8090   66.6820 C   0  0  0  0  0  0  0  0  0  0  0  0
    3.5855   65.7947   64.5701 H   0  0  0  0  0  0  0  0  0  0  0  0
    3.6510   66.7479   63.0384 H   0  0  0  0  0  0  0  0  0  0  0  0
    4.9718   67.5223   65.6811 H   0  0  0  0  0  0  0  0  0  0  0  0
    5.7987   66.8102   64.2335 H   0  0  0  0  0  0  0  0  0  0  0  0
    5.6556   68.7181   63.0125 H   0  0  0  0  0  0  0  0  0  0  0  0
    3.9160   70.6083   63.7541 H   0  0  0  0  0  0  0  0  0  0  0  0
    3.5317   69.2309   62.6254 H   0  0  0  0  0  0  0  0  0  0  0  0
    2.8899   69.3973   65.5940 H   0  0  0  0  0  0  0  0  0  0  0  0
    1.7353   69.4932   64.1929 H   0  0  0  0  0  0  0  0  0  0  0  0
    0.9769   67.6752   68.9890 H   0  0  0  0  0  0  0  0  0  0  0  0
    1.4419   66.4314   67.7793 H   0  0  0  0  0  0  0  0  0  0  0  0
    2.2557   68.0328   67.7793 H   0  0  0  0  0  0  0  0  0  0  0  0
   -0.8196   69.0940   68.5622 H   0  0  0  0  0  0  0  0  0  0  0  0
   -2.5736   69.9613   67.0229 H   0  0  0  0  0  0  0  0  0  0  0  0
   -2.5110   69.3967   64.5946 H   0  0  0  0  0  0  0  0  0  0  0  0
   -0.6617   67.9800   63.6957 H   0  0  0  0  0  0  0  0  0  0  0  0
    7.0977   69.2409   64.8091 H   0  0  0  0  0  0  0  0  0  0  0  0
    6.1005   70.7172   64.2952 H   0  0  0  0  0  0  0  0  0  0  0  0
    7.7259   70.6601   66.8138 H   0  0  0  0  0  0  0  0  0  0  0  0
    7.0869   71.1643   69.1684 H   0  0  0  0  0  0  0  0  0  0  0  0
    4.7417   70.8048   69.9322 H   0  0  0  0  0  0  0  0  0  0  0  0
    3.0378   69.9219   68.3425 H   0  0  0  0  0  0  0  0  0  0  0  0
    3.6703   69.4134   65.9874 H   0  0  0  0  0  0  0  0  0  0  0  0
  2  1  2  0
  3  1  1  0
  4  3  1  0
  5  4  1  0
  6  5  1  0
  7  6  1  0
  8  7  1  0
  8  3  1  0
 10  9  1  0
 11 10  2  0
 12 11  1  0
 13 12  2  0
 14 13  1  0
 15 14  2  0
 15 10  1  0
 15  1  1  0
 16  6  1  0
 17 16  1  0
 18 17  2  0
 19 18  1  0
 20 19  2  0
 21 20  1  0
 22 17  1  0
 22 21  2  0
  4 23  1  0
  4 24  1  0
  5 25  1  0
  5 26  1  0
  6 27  1  0
  7 28  1  0
  7 29  1  0
  8 30  1  0
  8 31  1  0
  9 32  1  0
  9 33  1  0
  9 34  1  0
 11 35  1  0
 12 36  1  0
 13 37  1  0
 14 38  1  0
 16 39  1  0
 16 40  1  0
 18 41  1  0
 19 42  1  0
 20 43  1  0
 21 44  1  0
 22 45  1  0
M  END
>  <score>  (6) 
-8.865

$$$$
=
     RDKit          3D

 45 47  0  0  0  0  0  0  0  0999 V2000
    3.6380   59.6910   70.2260 C   0  0  0  0  0  0  0  0  0  0  0  0
    4.1150   59.2220   69.1970 O   0  0  0  0  0  0  0  0  0  0  0  0
    3.1660   58.9290   71.2920 N   0  0  0  0  0  0  0  0  0  0  0  0
    3.1020   57.4780   71.1390 C   0  0  0  0  0  0  0  0  0  0  0  0
    1.8320   56.9260   71.7750 C   0  0  0  0  0  0  0  0  0  0  0  0
    1.7790   57.2180   73.2880 C   0  0  0  0  0  0  0  0  0  0  0  0
    2.5920   58.4700   73.6670 C   0  0  0  0  0  0  0  0  0  0  0  0
    2.6550   59.4990   72.5420 C   0  0  0  0  0  0  0  0  0  0  0  0
    5.8060   61.2460   71.5140 C   0  0  0  0  0  0  0  0  0  0  0  0
    4.5820   61.9050   70.9450 C   0  0  0  0  0  0  0  0  0  0  0  0
    4.4500   63.3000   70.9960 C   0  0  0  0  0  0  0  0  0  0  0  0
    3.3100   63.9280   70.4860 C   0  0  0  0  0  0  0  0  0  0  0  0
    2.2840   63.1730   69.9180 C   0  0  0  0  0  0  0  0  0  0  0  0
    2.4010   61.7870   69.8450 C   0  0  0  0  0  0  0  0  0  0  0  0
    3.5530   61.1630   70.3390 C   0  0  0  0  0  0  0  0  0  0  0  0
    0.3420   57.1990   73.8580 C   0  0  0  0  0  0  0  0  0  0  0  0
   -0.1990   55.8610   74.3080 C   0  0  0  0  0  0  0  0  0  0  0  0
    0.5190   54.6820   74.0640 C   0  0  0  0  0  0  0  0  0  0  0  0
    0.0270   53.4470   74.4920 C   0  0  0  0  0  0  0  0  0  0  0  0
   -1.1930   53.3750   75.1600 C   0  0  0  0  0  0  0  0  0  0  0  0
   -1.9250   54.5360   75.3930 C   0  0  0  0  0  0  0  0  0  0  0  0
   -1.4330   55.7710   74.9660 C   0  0  0  0  0  0  0  0  0  0  0  0
    3.1083   57.2270   70.0680 H   0  0  0  0  0  0  0  0  0  0  0  0
    3.9727   57.0303   71.6405 H   0  0  0  0  0  0  0  0  0  0  0  0
    0.9601   57.3906   71.2914 H   0  0  0  0  0  0  0  0  0  0  0  0
    1.8249   55.8349   71.6357 H   0  0  0  0  0  0  0  0  0  0  0  0
    2.2828   56.3794   73.7909 H   0  0  0  0  0  0  0  0  0  0  0  0
    2.1255   58.9388   74.5460 H   0  0  0  0  0  0  0  0  0  0  0  0
    3.6219   58.1447   73.8754 H   0  0  0  0  0  0  0  0  0  0  0  0
    1.6425   59.8904   72.3640 H   0  0  0  0  0  0  0  0  0  0  0  0
    3.3457   60.2960   72.8545 H   0  0  0  0  0  0  0  0  0  0  0  0
    5.7589   61.2714   72.6127 H   0  0  0  0  0  0  0  0  0  0  0  0
    5.8520   60.2012   71.1730 H   0  0  0  0  0  0  0  0  0  0  0  0
    6.7035   61.7828   71.1730 H   0  0  0  0  0  0  0  0  0  0  0  0
    5.2519   63.9066   71.4420 H   0  0  0  0  0  0  0  0  0  0  0  0
    3.2216   65.0234   70.5329 H   0  0  0  0  0  0  0  0  0  0  0  0
    1.3840   63.6713   69.5284 H   0  0  0  0  0  0  0  0  0  0  0  0
    1.5931   61.1862   69.4019 H   0  0  0  0  0  0  0  0  0  0  0  0
    0.3199   57.8749   74.7256 H   0  0  0  0  0  0  0  0  0  0  0  0
   -0.3026   57.5009   73.0193 H   0  0  0  0  0  0  0  0  0  0  0  0
    1.4795   54.7301   73.5301 H   0  0  0  0  0  0  0  0  0  0  0  0
    0.6038   52.5300   74.3013 H   0  0  0  0  0  0  0  0  0  0  0  0
   -1.5773   52.4030   75.5027 H   0  0  0  0  0  0  0  0  0  0  0  0
   -2.8921   54.4804   75.9141 H   0  0  0  0  0  0  0  0  0  0  0  0
   -2.0203   56.6831   75.1481 H   0  0  0  0  0  0  0  0  0  0  0  0
  2  1  2  0
  3  1  1  0
  4  3  1  0
  5  4  1  0
  6  5  1  0
  7  6  1  0
  8  7  1  0
  8  3  1  0
 10  9  1  0
 11 10  2  0
 12 11  1  0
 13 12  2  0
 14 13  1  0
 15 14  2  0
 15 10  1  0
 15  1  1  0
 16  6  1  0
 17 16  1  0
 18 17  2  0
 19 18  1  0
 20 19  2  0
 21 20  1  0
 22 17  1  0
 22 21  2  0
  4 23  1  0
  4 24  1  0
  5 25  1  0
  5 26  1  0
  6 27  1  0
  7 28  1  0
  7 29  1  0
  8 30  1  0
  8 31  1  0
  9 32  1  0
  9 33  1  0
  9 34  1  0
 11 35  1  0
 12 36  1  0
 13 37  1  0
 14 38  1  0
 16 39  1  0
 16 40  1  0
 18 41  1  0
 19 42  1  0
 20 43  1  0
 21 44  1  0
 22 45  1  0
M  END
>  <score>  (7) 
-8.863

$$$$
=
     RDKit          3D

 45 47  0  0  0  0  0  0  0  0999 V2000
    2.4840   61.8260   73.1050 C   0  0  0  0  0  0  0  0  0  0  0  0
    3.6300   61.3870   73.1220 O   0  0  0  0  0  0  0  0  0  0  0  0
    1.9670   62.6350   72.0950 N   0  0  0  0  0  0  0  0  0  0  0  0
    2.8700   63.1120   71.0520 C   0  0  0  0  0  0  0  0  0  0  0  0
    2.5560   64.5580   70.6890 C   0  0  0  0  0  0  0  0  0  0  0  0
    1.1220   64.7100   70.1420 C   0  0  0  0  0  0  0  0  0  0  0  0
    0.1800   63.6120   70.6720 C   0  0  0  0  0  0  0  0  0  0  0  0
    0.5790   63.1030   72.0540 C   0  0  0  0  0  0  0  0  0  0  0  0
    0.9690   59.2810   73.1200 C   0  0  0  0  0  0  0  0  0  0  0  0
    0.8780   60.2690   74.2480 C   0  0  0  0  0  0  0  0  0  0  0  0
    0.0720   59.9900   75.3610 C   0  0  0  0  0  0  0  0  0  0  0  0
   -0.0360   60.9070   76.4110 C   0  0  0  0  0  0  0  0  0  0  0  0
    0.6570   62.1160   76.3660 C   0  0  0  0  0  0  0  0  0  0  0  0
    1.4730   62.4070   75.2750 C   0  0  0  0  0  0  0  0  0  0  0  0
    1.5950   61.4790   74.2340 C   0  0  0  0  0  0  0  0  0  0  0  0
    0.5680   66.1460   70.2890 C   0  0  0  0  0  0  0  0  0  0  0  0
    0.2010   66.8710   69.0140 C   0  0  0  0  0  0  0  0  0  0  0  0
   -1.0310   66.6380   68.3880 C   0  0  0  0  0  0  0  0  0  0  0  0
   -1.3760   67.3180   67.2180 C   0  0  0  0  0  0  0  0  0  0  0  0
   -0.4890   68.2320   66.6540 C   0  0  0  0  0  0  0  0  0  0  0  0
    0.7450   68.4600   67.2550 C   0  0  0  0  0  0  0  0  0  0  0  0
    1.0910   67.7800   68.4260 C   0  0  0  0  0  0  0  0  0  0  0  0
    3.9066   63.0474   71.4143 H   0  0  0  0  0  0  0  0  0  0  0  0
    2.7393   62.4859   70.1570 H   0  0  0  0  0  0  0  0  0  0  0  0
    2.6627   65.1826   71.5882 H   0  0  0  0  0  0  0  0  0  0  0  0
    3.2581   64.8747   69.9037 H   0  0  0  0  0  0  0  0  0  0  0  0
    1.1767   64.5490   69.0552 H   0  0  0  0  0  0  0  0  0  0  0  0
   -0.8392   64.0218   70.7298 H   0  0  0  0  0  0  0  0  0  0  0  0
    0.2407   62.7615   69.9770 H   0  0  0  0  0  0  0  0  0  0  0  0
    0.4598   63.9207   72.7801 H   0  0  0  0  0  0  0  0  0  0  0  0
   -0.0710   62.2501   72.2990 H   0  0  0  0  0  0  0  0  0  0  0  0
    1.0626   58.2644   73.5296 H   0  0  0  0  0  0  0  0  0  0  0  0
    0.0611   59.3452   72.5022 H   0  0  0  0  0  0  0  0  0  0  0  0
    1.8499   59.5099   72.5022 H   0  0  0  0  0  0  0  0  0  0  0  0
   -0.4809   59.0402   75.4085 H   0  0  0  0  0  0  0  0  0  0  0  0
   -0.6716   60.6731   77.2778 H   0  0  0  0  0  0  0  0  0  0  0  0
    0.5597   62.8383   77.1899 H   0  0  0  0  0  0  0  0  0  0  0  0
    2.0187   63.3611   75.2318 H   0  0  0  0  0  0  0  0  0  0  0  0
   -0.3367   66.0911   70.9123 H   0  0  0  0  0  0  0  0  0  0  0  0
    1.3936   66.7290   70.7231 H   0  0  0  0  0  0  0  0  0  0  0  0
   -1.7337   65.9119   68.8228 H   0  0  0  0  0  0  0  0  0  0  0  0
   -2.3496   67.1316   66.7412 H   0  0  0  0  0  0  0  0  0  0  0  0
   -0.7634   68.7721   65.7359 H   0  0  0  0  0  0  0  0  0  0  0  0
    1.4495   69.1767   66.8077 H   0  0  0  0  0  0  0  0  0  0  0  0
    2.0716   67.9601   68.8907 H   0  0  0  0  0  0  0  0  0  0  0  0
  2  1  2  0
  3  1  1  0
  4  3  1  0
  5  4  1  0
  6  5  1  0
  7  6  1  0
  8  7  1  0
  8  3  1  0
 10  9  1  0
 11 10  2  0
 12 11  1  0
 13 12  2  0
 14 13  1  0
 15 14  2  0
 15 10  1  0
 15  1  1  0
 16  6  1  0
 17 16  1  0
 18 17  2  0
 19 18  1  0
 20 19  2  0
 21 20  1  0
 22 17  1  0
 22 21  2  0
  4 23  1  0
  4 24  1  0
  5 25  1  0
  5 26  1  0
  6 27  1  0
  7 28  1  0
  7 29  1  0
  8 30  1  0
  8 31  1  0
  9 32  1  0
  9 33  1  0
  9 34  1  0
 11 35  1  0
 12 36  1  0
 13 37  1  0
 14 38  1  0
 16 39  1  0
 16 40  1  0
 18 41  1  0
 19 42  1  0
 20 43  1  0
 21 44  1  0
 22 45  1  0
M  END
>  <score>  (8) 
-8.628

$$$$
=
     RDKit          3D

 45 47  0  0  0  0  0  0  0  0999 V2000
    3.7320   60.8450   72.5820 C   0  0  0  0  0  0  0  0  0  0  0  0
    4.8820   60.8770   73.0090 O   0  0  0  0  0  0  0  0  0  0  0  0
    2.7240   60.0360   73.1010 N   0  0  0  0  0  0  0  0  0  0  0  0
    3.0710   59.0590   74.1290 C   0  0  0  0  0  0  0  0  0  0  0  0
    2.3190   57.7520   73.9030 C   0  0  0  0  0  0  0  0  0  0  0  0
    0.7930   57.9530   73.9780 C   0  0  0  0  0  0  0  0  0  0  0  0
    0.3780   59.3910   73.6100 C   0  0  0  0  0  0  0  0  0  0  0  0
    1.3370   60.0520   72.6250 C   0  0  0  0  0  0  0  0  0  0  0  0
    3.7830   59.8090   69.8070 C   0  0  0  0  0  0  0  0  0  0  0  0
    3.4130   61.2310   70.1200 C   0  0  0  0  0  0  0  0  0  0  0  0
    3.0590   62.1070   69.0850 C   0  0  0  0  0  0  0  0  0  0  0  0
    2.7280   63.4370   69.3580 C   0  0  0  0  0  0  0  0  0  0  0  0
    2.7460   63.9140   70.6690 C   0  0  0  0  0  0  0  0  0  0  0  0
    3.0830   63.0560   71.7130 C   0  0  0  0  0  0  0  0  0  0  0  0
    3.3950   61.7200   71.4390 C   0  0  0  0  0  0  0  0  0  0  0  0
    0.0000   56.8550   73.2310 C   0  0  0  0  0  0  0  0  0  0  0  0
   -0.3780   55.6250   74.0240 C   0  0  0  0  0  0  0  0  0  0  0  0
   -1.5380   55.6110   74.8100 C   0  0  0  0  0  0  0  0  0  0  0  0
   -1.8960   54.4700   75.5330 C   0  0  0  0  0  0  0  0  0  0  0  0
   -1.0920   53.3340   75.4850 C   0  0  0  0  0  0  0  0  0  0  0  0
    0.0720   53.3400   74.7230 C   0  0  0  0  0  0  0  0  0  0  0  0
    0.4310   54.4800   74.0000 C   0  0  0  0  0  0  0  0  0  0  0  0
    4.1530   58.8645   74.0923 H   0  0  0  0  0  0  0  0  0  0  0  0
    2.7903   59.4641   75.1124 H   0  0  0  0  0  0  0  0  0  0  0  0
    2.5785   57.3586   72.9091 H   0  0  0  0  0  0  0  0  0  0  0  0
    2.6116   57.0464   74.6945 H   0  0  0  0  0  0  0  0  0  0  0  0
    0.5078   57.8261   75.0328 H   0  0  0  0  0  0  0  0  0  0  0  0
   -0.6245   59.3622   73.1582 H   0  0  0  0  0  0  0  0  0  0  0  0
    0.3932   59.9859   74.5351 H   0  0  0  0  0  0  0  0  0  0  0  0
    1.2859   59.5142   71.6668 H   0  0  0  0  0  0  0  0  0  0  0  0
    1.0322   61.1030   72.5132 H   0  0  0  0  0  0  0  0  0  0  0  0
    3.9277   59.2528   70.7449 H   0  0  0  0  0  0  0  0  0  0  0  0
    2.9769   59.3403   69.2234 H   0  0  0  0  0  0  0  0  0  0  0  0
    4.7153   59.7927   69.2234 H   0  0  0  0  0  0  0  0  0  0  0  0
    3.0415   61.7439   68.0468 H   0  0  0  0  0  0  0  0  0  0  0  0
    2.4516   64.1118   68.5344 H   0  0  0  0  0  0  0  0  0  0  0  0
    2.4948   64.9645   70.8774 H   0  0  0  0  0  0  0  0  0  0  0  0
    3.1038   63.4271   72.7483 H   0  0  0  0  0  0  0  0  0  0  0  0
   -0.9303   57.3106   72.8609 H   0  0  0  0  0  0  0  0  0  0  0  0
    0.6812   56.4925   72.4470 H   0  0  0  0  0  0  0  0  0  0  0  0
   -2.1735   56.5076   74.8584 H   0  0  0  0  0  0  0  0  0  0  0  0
   -2.8132   54.4692   76.1402 H   0  0  0  0  0  0  0  0  0  0  0  0
   -1.3768   52.4333   76.0487 H   0  0  0  0  0  0  0  0  0  0  0  0
    0.7109   52.4452   74.6898 H   0  0  0  0  0  0  0  0  0  0  0  0
    1.3570   54.4795   73.4063 H   0  0  0  0  0  0  0  0  0  0  0  0
  2  1  2  0
  3  1  1  0
  4  3  1  0
  5  4  1  0
  6  5  1  0
  7  6  1  0
  8  7  1  0
  8  3  1  0
 10  9  1  0
 11 10  2  0
 12 11  1  0
 13 12  2  0
 14 13  1  0
 15 14  2  0
 15 10  1  0
 15  1  1  0
 16  6  1  0
 17 16  1  0
 18 17  2  0
 19 18  1  0
 20 19  2  0
 21 20  1  0
 22 17  1  0
 22 21  2  0
  4 23  1  0
  4 24  1  0
  5 25  1  0
  5 26  1  0
  6 27  1  0
  7 28  1  0
  7 29  1  0
  8 30  1  0
  8 31  1  0
  9 32  1  0
  9 33  1  0
  9 34  1  0
 11 35  1  0
 12 36  1  0
 13 37  1  0
 14 38  1  0
 16 39  1  0
 16 40  1  0
 18 41  1  0
 19 42  1  0
 20 43  1  0
 21 44  1  0
 22 45  1  0
M  END
>  <score>  (9) 
-8.514

$$$$
