=
     RDKit          3D

 27 28  0  0  0  0  0  0  0  0999 V2000
    1.7570   67.5540   66.0060 C   0  0  0  0  0  0  0  0  0  0  0  0
    2.2670   66.4400   66.0360 O   0  0  0  0  0  0  0  0  0  0  0  0
   -2.3910   68.1070   66.8880 C   0  0  0  0  0  0  0  0  0  0  0  0
   -1.8180   68.8530   65.8640 C   0  0  0  0  0  0  0  0  0  0  0  0
   -0.4630   68.6820   65.5600 C   0  0  0  0  0  0  0  0  0  0  0  0
    0.3110   67.7620   66.2810 C   0  0  0  0  0  0  0  0  0  0  0  0
   -0.2850   67.0170   67.3090 C   0  0  0  0  0  0  0  0  0  0  0  0
   -1.6360   67.1920   67.6120 C   0  0  0  0  0  0  0  0  0  0  0  0
   -3.7060   68.2440   67.2170 O   0  0  0  0  0  0  0  0  0  0  0  0
    2.6450   68.7430   65.7220 C   0  0  0  0  0  0  0  0  0  0  0  0
    2.7260   69.1440   64.5670 O   0  0  0  0  0  0  0  0  0  0  0  0
    3.3570   69.4160   66.8400 C   0  0  0  0  0  0  0  0  0  0  0  0
    4.7030   69.7650   66.6560 C   0  0  0  0  0  0  0  0  0  0  0  0
    5.4080   70.4150   67.6710 C   0  0  0  0  0  0  0  0  0  0  0  0
    4.7730   70.7190   68.8740 C   0  0  0  0  0  0  0  0  0  0  0  0
    3.4360   70.3730   69.0640 C   0  0  0  0  0  0  0  0  0  0  0  0
    2.7250   69.7240   68.0510 C   0  0  0  0  0  0  0  0  0  0  0  0
   -2.4260   69.5729   65.2966 H   0  0  0  0  0  0  0  0  0  0  0  0
   -0.0036   69.2713   64.7527 H   0  0  0  0  0  0  0  0  0  0  0  0
    0.3148   66.2919   67.8787 H   0  0  0  0  0  0  0  0  0  0  0  0
   -2.1011   66.6084   68.4201 H   0  0  0  0  0  0  0  0  0  0  0  0
   -4.0919   67.7019   67.9500 H   0  0  0  0  0  0  0  0  0  0  0  0
    5.2057   69.5254   65.7074 H   0  0  0  0  0  0  0  0  0  0  0  0
    6.4633   70.6868   67.5214 H   0  0  0  0  0  0  0  0  0  0  0  0
    5.3271   71.2321   69.6738 H   0  0  0  0  0  0  0  0  0  0  0  0
    2.9385   70.6119   70.0155 H   0  0  0  0  0  0  0  0  0  0  0  0
    1.6695   69.4553   68.2048 H   0  0  0  0  0  0  0  0  0  0  0  0
  2  1  2  0
  4  3  2  0
  5  4  1  0
  6  5  2  0
  6  1  1  0
  7  6  1  0
  8  7  2  0
  8  3  1  0
  9  3  1  0
 10  1  1  0
 11 10  2  0
 12 10  1  0
 13 12  2  0
 14 13  1  0
 15 14  2  0
 16 15  1  0
 17 16  2  0
 17 12  1  0
  4 18  1  0
  5 19  1  0
  7 20  1  0
  8 21  1  0
  9 22  1  0
 13 23  1  0
 14 24  1  0
 15 25  1  0
 16 26  1  0
 17 27  1  0
M  END
>  <score>  (1) 
-9.472

$$$$
=
     RDKit          3D

 27 28  0  0  0  0  0  0  0  0999 V2000
    1.9160   68.0090   65.8210 C   0  0  0  0  0  0  0  0  0  0  0  0
    1.9890   66.8370   66.1710 O   0  0  0  0  0  0  0  0  0  0  0  0
    0.8520   69.1560   61.8410 C   0  0  0  0  0  0  0  0  0  0  0  0
    2.1610   68.7590   62.0980 C   0  0  0  0  0  0  0  0  0  0  0  0
    2.5240   68.3770   63.3930 C   0  0  0  0  0  0  0  0  0  0  0  0
    1.5760   68.3910   64.4250 C   0  0  0  0  0  0  0  0  0  0  0  0
    0.2610   68.7930   64.1470 C   0  0  0  0  0  0  0  0  0  0  0  0
   -0.0990   69.1760   62.8540 C   0  0  0  0  0  0  0  0  0  0  0  0
    0.4570   69.5360   60.5930 O   0  0  0  0  0  0  0  0  0  0  0  0
    2.1410   69.0840   66.8590 C   0  0  0  0  0  0  0  0  0  0  0  0
    1.1770   69.4780   67.5060 O   0  0  0  0  0  0  0  0  0  0  0  0
    3.5130   69.6030   67.0980 C   0  0  0  0  0  0  0  0  0  0  0  0
    3.7930   70.1960   68.3390 C   0  0  0  0  0  0  0  0  0  0  0  0
    5.0730   70.6820   68.6150 C   0  0  0  0  0  0  0  0  0  0  0  0
    6.0780   70.5800   67.6550 C   0  0  0  0  0  0  0  0  0  0  0  0
    5.8060   69.9940   66.4190 C   0  0  0  0  0  0  0  0  0  0  0  0
    4.5270   69.5050   66.1380 C   0  0  0  0  0  0  0  0  0  0  0  0
    2.9049   68.7459   61.2878 H   0  0  0  0  0  0  0  0  0  0  0  0
    3.5576   68.0643   63.6026 H   0  0  0  0  0  0  0  0  0  0  0  0
   -0.4893   68.8064   64.9512 H   0  0  0  0  0  0  0  0  0  0  0  0
   -1.1302   69.4921   62.6380 H   0  0  0  0  0  0  0  0  0  0  0  0
   -0.4795   69.8146   60.4336 H   0  0  0  0  0  0  0  0  0  0  0  0
    3.0007   70.2783   69.0976 H   0  0  0  0  0  0  0  0  0  0  0  0
    5.2877   71.1450   69.5895 H   0  0  0  0  0  0  0  0  0  0  0  0
    7.0864   70.9619   67.8722 H   0  0  0  0  0  0  0  0  0  0  0  0
    6.6008   69.9163   65.6625 H   0  0  0  0  0  0  0  0  0  0  0  0
    4.3173   69.0430   65.1620 H   0  0  0  0  0  0  0  0  0  0  0  0
  2  1  2  0
  4  3  2  0
  5  4  1  0
  6  5  2  0
  6  1  1  0
  7  6  1  0
  8  7  2  0
  8  3  1  0
  9  3  1  0
 10  1  1  0
 11 10  2  0
 12 10  1  0
 13 12  2  0
 14 13  1  0
 15 14  2  0
 16 15  1  0
 17 16  2  0
 17 12  1  0
  4 18  1  0
  5 19  1  0
  7 20  1  0
  8 21  1  0
  9 22  1  0
 13 23  1  0
 14 24  1  0
 15 25  1  0
 16 26  1  0
 17 27  1  0
M  END
>  <score>  (2) 
-9.385

$$$$
=
     RDKit          3D

 27 28  0  0  0  0  0  0  0  0999 V2000
    2.1710   68.4140   64.7900 C   0  0  0  0  0  0  0  0  0  0  0  0
    1.5140   69.0900   64.0060 O   0  0  0  0  0  0  0  0  0  0  0  0
    4.1650   64.8260   63.5920 C   0  0  0  0  0  0  0  0  0  0  0  0
    4.4340   66.0050   62.9040 C   0  0  0  0  0  0  0  0  0  0  0  0
    3.7940   67.1880   63.2860 C   0  0  0  0  0  0  0  0  0  0  0  0
    2.8880   67.1870   64.3560 C   0  0  0  0  0  0  0  0  0  0  0  0
    2.6310   65.9890   65.0380 C   0  0  0  0  0  0  0  0  0  0  0  0
    3.2690   64.8090   64.6540 C   0  0  0  0  0  0  0  0  0  0  0  0
    4.7670   63.6520   63.2510 O   0  0  0  0  0  0  0  0  0  0  0  0
    2.2760   68.8770   66.2250 C   0  0  0  0  0  0  0  0  0  0  0  0
    1.3090   68.7170   66.9600 O   0  0  0  0  0  0  0  0  0  0  0  0
    3.5470   69.4710   66.7160 C   0  0  0  0  0  0  0  0  0  0  0  0
    3.5810   69.9820   68.0230 C   0  0  0  0  0  0  0  0  0  0  0  0
    4.7580   70.5320   68.5340 C   0  0  0  0  0  0  0  0  0  0  0  0
    5.9060   70.5770   67.7450 C   0  0  0  0  0  0  0  0  0  0  0  0
    5.8790   70.0740   66.4450 C   0  0  0  0  0  0  0  0  0  0  0  0
    4.7040   69.5200   65.9280 C   0  0  0  0  0  0  0  0  0  0  0  0
    5.1455   66.0064   62.0651 H   0  0  0  0  0  0  0  0  0  0  0  0
    4.0021   68.1229   62.7450 H   0  0  0  0  0  0  0  0  0  0  0  0
    1.9230   65.9795   65.8798 H   0  0  0  0  0  0  0  0  0  0  0  0
    3.0638   63.8701   65.1892 H   0  0  0  0  0  0  0  0  0  0  0  0
    4.5604   62.8252   63.7547 H   0  0  0  0  0  0  0  0  0  0  0  0
    2.6760   69.9489   68.6474 H   0  0  0  0  0  0  0  0  0  0  0  0
    4.7793   70.9298   69.5593 H   0  0  0  0  0  0  0  0  0  0  0  0
    6.8336   71.0095   68.1481 H   0  0  0  0  0  0  0  0  0  0  0  0
    6.7858   70.1132   65.8236 H   0  0  0  0  0  0  0  0  0  0  0  0
    4.6882   69.1226   64.9024 H   0  0  0  0  0  0  0  0  0  0  0  0
  2  1  2  0
  4  3  2  0
  5  4  1  0
  6  5  2  0
  6  1  1  0
  7  6  1  0
  8  7  2  0
  8  3  1  0
  9  3  1  0
 10  1  1  0
 11 10  2  0
 12 10  1  0
 13 12  2  0
 14 13  1  0
 15 14  2  0
 16 15  1  0
 17 16  2  0
 17 12  1  0
  4 18  1  0
  5 19  1  0
  7 20  1  0
  8 21  1  0
  9 22  1  0
 13 23  1  0
 14 24  1  0
 15 25  1  0
 16 26  1  0
 17 27  1  0
M  END
>  <score>  (3) 
-9.046

$$$$
=
     RDKit          3D

 27 28  0  0  0  0  0  0  0  0999 V2000
    1.1290   67.8710   67.6600 C   0  0  0  0  0  0  0  0  0  0  0  0
    1.6220   66.8420   68.1070 O   0  0  0  0  0  0  0  0  0  0  0  0
   -2.9450   68.1270   66.3830 C   0  0  0  0  0  0  0  0  0  0  0  0
   -2.5920   67.1520   67.3110 C   0  0  0  0  0  0  0  0  0  0  0  0
   -1.2660   67.0580   67.7420 C   0  0  0  0  0  0  0  0  0  0  0  0
   -0.2970   67.9410   67.2450 C   0  0  0  0  0  0  0  0  0  0  0  0
   -0.6710   68.9180   66.3110 C   0  0  0  0  0  0  0  0  0  0  0  0
   -1.9950   69.0090   65.8800 C   0  0  0  0  0  0  0  0  0  0  0  0
   -4.2260   68.2530   65.9360 O   0  0  0  0  0  0  0  0  0  0  0  0
    1.9970   69.1050   67.5720 C   0  0  0  0  0  0  0  0  0  0  0  0
    1.8480   69.9810   68.4160 O   0  0  0  0  0  0  0  0  0  0  0  0
    3.0250   69.2090   66.5040 C   0  0  0  0  0  0  0  0  0  0  0  0
    4.2960   69.6950   66.8500 C   0  0  0  0  0  0  0  0  0  0  0  0
    5.2990   69.7930   65.8840 C   0  0  0  0  0  0  0  0  0  0  0  0
    5.0400   69.4080   64.5700 C   0  0  0  0  0  0  0  0  0  0  0  0
    3.7790   68.9270   64.2190 C   0  0  0  0  0  0  0  0  0  0  0  0
    2.7720   68.8250   65.1820 C   0  0  0  0  0  0  0  0  0  0  0  0
   -3.3518   66.4597   67.7028 H   0  0  0  0  0  0  0  0  0  0  0  0
   -0.9813   66.2880   68.4742 H   0  0  0  0  0  0  0  0  0  0  0  0
    0.0826   69.6155   65.9165 H   0  0  0  0  0  0  0  0  0  0  0  0
   -2.2858   69.7748   65.1458 H   0  0  0  0  0  0  0  0  0  0  0  0
   -4.4530   68.9546   65.2754 H   0  0  0  0  0  0  0  0  0  0  0  0
    4.5023   69.9998   67.8866 H   0  0  0  0  0  0  0  0  0  0  0  0
    6.2934   70.1740   66.1599 H   0  0  0  0  0  0  0  0  0  0  0  0
    5.8308   69.4836   63.8091 H   0  0  0  0  0  0  0  0  0  0  0  0
    3.5765   68.6269   63.1803 H   0  0  0  0  0  0  0  0  0  0  0  0
    1.7796   68.4426   64.9011 H   0  0  0  0  0  0  0  0  0  0  0  0
  2  1  2  0
  4  3  2  0
  5  4  1  0
  6  5  2  0
  6  1  1  0
  7  6  1  0
  8  7  2  0
  8  3  1  0
  9  3  1  0
 10  1  1  0
 11 10  2  0
 12 10  1  0
 13 12  2  0
 14 13  1  0
 15 14  2  0
 16 15  1  0
 17 16  2  0
 17 12  1  0
  4 18  1  0
  5 19  1  0
  7 20  1  0
  8 21  1  0
  9 22  1  0
 13 23  1  0
 14 24  1  0
 15 25  1  0
 16 26  1  0
 17 27  1  0
M  END
>  <score>  (4) 
-9.041

$$$$
=
     RDKit          3D

 27 28  0  0  0  0  0  0  0  0999 V2000
    1.8310   68.9310   66.8640 C   0  0  0  0  0  0  0  0  0  0  0  0
    0.7850   69.1990   67.4460 O   0  0  0  0  0  0  0  0  0  0  0  0
    5.5400   70.6270   68.1510 C   0  0  0  0  0  0  0  0  0  0  0  0
    5.4580   70.0830   66.8730 C   0  0  0  0  0  0  0  0  0  0  0  0
    4.2520   69.5280   66.4350 C   0  0  0  0  0  0  0  0  0  0  0  0
    3.1310   69.5220   67.2770 C   0  0  0  0  0  0  0  0  0  0  0  0
    3.2320   70.0760   68.5610 C   0  0  0  0  0  0  0  0  0  0  0  0
    4.4380   70.6270   68.9970 C   0  0  0  0  0  0  0  0  0  0  0  0
    6.6970   71.1760   68.6170 O   0  0  0  0  0  0  0  0  0  0  0  0
    1.7860   67.9410   65.7240 C   0  0  0  0  0  0  0  0  0  0  0  0
    1.9430   66.7530   65.9800 O   0  0  0  0  0  0  0  0  0  0  0  0
    1.5150   68.4180   64.3430 C   0  0  0  0  0  0  0  0  0  0  0  0
    2.5460   68.3310   63.3950 C   0  0  0  0  0  0  0  0  0  0  0  0
    2.3320   68.7500   62.0800 C   0  0  0  0  0  0  0  0  0  0  0  0
    1.0900   69.2590   61.7050 C   0  0  0  0  0  0  0  0  0  0  0  0
    0.0610   69.3510   62.6430 C   0  0  0  0  0  0  0  0  0  0  0  0
    0.2700   68.9310   63.9600 C   0  0  0  0  0  0  0  0  0  0  0  0
    6.3367   70.0896   66.2113 H   0  0  0  0  0  0  0  0  0  0  0  0
    4.1823   69.0946   65.4264 H   0  0  0  0  0  0  0  0  0  0  0  0
    2.3570   70.0764   69.2276 H   0  0  0  0  0  0  0  0  0  0  0  0
    4.5155   71.0592   70.0056 H   0  0  0  0  0  0  0  0  0  0  0  0
    6.7315   71.5571   69.5300 H   0  0  0  0  0  0  0  0  0  0  0  0
    3.5275   67.9308   63.6890 H   0  0  0  0  0  0  0  0  0  0  0  0
    3.1433   68.6783   61.3407 H   0  0  0  0  0  0  0  0  0  0  0  0
    0.9208   69.5884   60.6692 H   0  0  0  0  0  0  0  0  0  0  0  0
   -0.9177   69.7553   62.3453 H   0  0  0  0  0  0  0  0  0  0  0  0
   -0.5444   69.0037   64.6958 H   0  0  0  0  0  0  0  0  0  0  0  0
  2  1  2  0
  4  3  2  0
  5  4  1  0
  6  5  2  0
  6  1  1  0
  7  6  1  0
  8  7  2  0
  8  3  1  0
  9  3  1  0
 10  1  1  0
 11 10  2  0
 12 10  1  0
 13 12  2  0
 14 13  1  0
 15 14  2  0
 16 15  1  0
 17 16  2  0
 17 12  1  0
  4 18  1  0
  5 19  1  0
  7 20  1  0
  8 21  1  0
  9 22  1  0
 13 23  1  0
 14 24  1  0
 15 25  1  0
 16 26  1  0
 17 27  1  0
M  END
>  <score>  (5) 
-8.926

$$$$
=
     RDKit          3D

 27 28  0  0  0  0  0  0  0  0999 V2000
    1.5820   68.6060   64.6370 C   0  0  0  0  0  0  0  0  0  0  0  0
    1.5240   69.1830   63.5570 O   0  0  0  0  0  0  0  0  0  0  0  0
   -1.9670   67.9450   66.9310 C   0  0  0  0  0  0  0  0  0  0  0  0
   -0.7870   67.3240   67.3260 C   0  0  0  0  0  0  0  0  0  0  0  0
    0.3840   67.5330   66.5900 C   0  0  0  0  0  0  0  0  0  0  0  0
    0.3680   68.3650   65.4610 C   0  0  0  0  0  0  0  0  0  0  0  0
   -0.8300   68.9840   65.0790 C   0  0  0  0  0  0  0  0  0  0  0  0
   -1.9980   68.7720   65.8140 C   0  0  0  0  0  0  0  0  0  0  0  0
   -3.1290   67.7670   67.6200 O   0  0  0  0  0  0  0  0  0  0  0  0
    2.9230   68.0970   65.1090 C   0  0  0  0  0  0  0  0  0  0  0  0
    3.2770   66.9780   64.7570 O   0  0  0  0  0  0  0  0  0  0  0  0
    3.7900   68.9690   65.9460 C   0  0  0  0  0  0  0  0  0  0  0  0
    3.2830   69.4310   67.1700 C   0  0  0  0  0  0  0  0  0  0  0  0
    4.0670   70.2370   67.9980 C   0  0  0  0  0  0  0  0  0  0  0  0
    5.3590   70.5870   67.6080 C   0  0  0  0  0  0  0  0  0  0  0  0
    5.8670   70.1330   66.3920 C   0  0  0  0  0  0  0  0  0  0  0  0
    5.0880   69.3250   65.5600 C   0  0  0  0  0  0  0  0  0  0  0  0
   -0.7746   66.6723   68.2120 H   0  0  0  0  0  0  0  0  0  0  0  0
    1.3199   67.0435   66.8975 H   0  0  0  0  0  0  0  0  0  0  0  0
   -0.8501   69.6398   64.1961 H   0  0  0  0  0  0  0  0  0  0  0  0
   -2.9377   69.2568   65.5108 H   0  0  0  0  0  0  0  0  0  0  0  0
   -3.9568   68.2195   67.3198 H   0  0  0  0  0  0  0  0  0  0  0  0
    2.2634   69.1570   67.4787 H   0  0  0  0  0  0  0  0  0  0  0  0
    3.6655   70.5955   68.9573 H   0  0  0  0  0  0  0  0  0  0  0  0
    5.9774   71.2214   68.2599 H   0  0  0  0  0  0  0  0  0  0  0  0
    6.8860   70.4122   66.0860 H   0  0  0  0  0  0  0  0  0  0  0  0
    5.4943   68.9686   64.6019 H   0  0  0  0  0  0  0  0  0  0  0  0
  2  1  2  0
  4  3  2  0
  5  4  1  0
  6  5  2  0
  6  1  1  0
  7  6  1  0
  8  7  2  0
  8  3  1  0
  9  3  1  0
 10  1  1  0
 11 10  2  0
 12 10  1  0
 13 12  2  0
 14 13  1  0
 15 14  2  0
 16 15  1  0
 17 16  2  0
 17 12  1  0
  4 18  1  0
  5 19  1  0
  7 20  1  0
  8 21  1  0
  9 22  1  0
 13 23  1  0
 14 24  1  0
 15 25  1  0
 16 26  1  0
 17 27  1  0
M  END
>  <score>  (6) 
-8.89

$$$$
=
     RDKit          3D

 27 28  0  0  0  0  0  0  0  0999 V2000
    4.6270   69.0810   64.5580 C   0  0  0  0  0  0  0  0  0  0  0  0
    5.4740   69.5260   63.7910 O   0  0  0  0  0  0  0  0  0  0  0  0
    4.2310   70.3760   68.6150 C   0  0  0  0  0  0  0  0  0  0  0  0
    5.4570   70.5350   67.9760 C   0  0  0  0  0  0  0  0  0  0  0  0
    5.6020   70.1210   66.6480 C   0  0  0  0  0  0  0  0  0  0  0  0
    4.5180   69.5510   65.9640 C   0  0  0  0  0  0  0  0  0  0  0  0
    3.2910   69.4000   66.6240 C   0  0  0  0  0  0  0  0  0  0  0  0
    3.1490   69.8120   67.9500 C   0  0  0  0  0  0  0  0  0  0  0  0
    4.0480   70.7650   69.9080 O   0  0  0  0  0  0  0  0  0  0  0  0
    3.6470   68.0580   64.0320 C   0  0  0  0  0  0  0  0  0  0  0  0
    3.8770   66.8730   64.2420 O   0  0  0  0  0  0  0  0  0  0  0  0
    2.4240   68.5070   63.3180 C   0  0  0  0  0  0  0  0  0  0  0  0
    1.2310   68.6200   64.0490 C   0  0  0  0  0  0  0  0  0  0  0  0
    0.0600   69.0550   63.4250 C   0  0  0  0  0  0  0  0  0  0  0  0
    0.0730   69.3790   62.0690 C   0  0  0  0  0  0  0  0  0  0  0  0
    1.2540   69.2670   61.3360 C   0  0  0  0  0  0  0  0  0  0  0  0
    2.4290   68.8330   61.9560 C   0  0  0  0  0  0  0  0  0  0  0  0
    6.3065   70.9834   68.5119 H   0  0  0  0  0  0  0  0  0  0  0  0
    6.5691   70.2427   66.1383 H   0  0  0  0  0  0  0  0  0  0  0  0
    2.4358   68.9547   66.0946 H   0  0  0  0  0  0  0  0  0  0  0  0
    2.1852   69.6908   68.4661 H   0  0  0  0  0  0  0  0  0  0  0  0
    3.1667   70.6420   70.3419 H   0  0  0  0  0  0  0  0  0  0  0  0
    1.2185   68.3646   65.1189 H   0  0  0  0  0  0  0  0  0  0  0  0
   -0.8720   69.1420   64.0028 H   0  0  0  0  0  0  0  0  0  0  0  0
   -0.8488   69.7231   61.5771 H   0  0  0  0  0  0  0  0  0  0  0  0
    1.2608   69.5212   60.2658 H   0  0  0  0  0  0  0  0  0  0  0  0
    3.3584   68.7474   61.3738 H   0  0  0  0  0  0  0  0  0  0  0  0
  2  1  2  0
  4  3  2  0
  5  4  1  0
  6  5  2  0
  6  1  1  0
  7  6  1  0
  8  7  2  0
  8  3  1  0
  9  3  1  0
 10  1  1  0
 11 10  2  0
 12 10  1  0
 13 12  2  0
 14 13  1  0
 15 14  2  0
 16 15  1  0
 17 16  2  0
 17 12  1  0
  4 18  1  0
  5 19  1  0
  7 20  1  0
  8 21  1  0
  9 22  1  0
 13 23  1  0
 14 24  1  0
 15 25  1  0
 16 26  1  0
 17 27  1  0
M  END
>  <score>  (7) 
-8.862

$$$$
=
     RDKit          3D

 27 28  0  0  0  0  0  0  0  0999 V2000
    1.6650   68.8580   66.8340 C   0  0  0  0  0  0  0  0  0  0  0  0
    0.5850   69.0900   67.3660 O   0  0  0  0  0  0  0  0  0  0  0  0
    5.3350   70.6070   68.1630 C   0  0  0  0  0  0  0  0  0  0  0  0
    4.2390   70.6130   69.0200 C   0  0  0  0  0  0  0  0  0  0  0  0
    3.0330   70.0420   68.6030 C   0  0  0  0  0  0  0  0  0  0  0  0
    2.9290   69.4640   67.3300 C   0  0  0  0  0  0  0  0  0  0  0  0
    4.0450   69.4650   66.4810 C   0  0  0  0  0  0  0  0  0  0  0  0
    5.2470   70.0390   66.8980 C   0  0  0  0  0  0  0  0  0  0  0  0
    6.5270   71.1540   68.5310 O   0  0  0  0  0  0  0  0  0  0  0  0
    1.7010   67.8960   65.6690 C   0  0  0  0  0  0  0  0  0  0  0  0
    1.8990   66.7090   65.9010 O   0  0  0  0  0  0  0  0  0  0  0  0
    1.4580   68.3970   64.2910 C   0  0  0  0  0  0  0  0  0  0  0  0
    2.4830   68.2600   63.3440 C   0  0  0  0  0  0  0  0  0  0  0  0
    2.2940   68.7000   62.0320 C   0  0  0  0  0  0  0  0  0  0  0  0
    1.0820   69.2800   61.6600 C   0  0  0  0  0  0  0  0  0  0  0  0
    0.0590   69.4210   62.5980 C   0  0  0  0  0  0  0  0  0  0  0  0
    0.2430   68.9810   63.9120 C   0  0  0  0  0  0  0  0  0  0  0  0
    4.3209   71.0644   70.0198 H   0  0  0  0  0  0  0  0  0  0  0  0
    2.1628   70.0462   69.2759 H   0  0  0  0  0  0  0  0  0  0  0  0
    3.9728   69.0112   65.4816 H   0  0  0  0  0  0  0  0  0  0  0  0
    6.1200   70.0417   66.2287 H   0  0  0  0  0  0  0  0  0  0  0  0
    7.2934   71.1382   67.9045 H   0  0  0  0  0  0  0  0  0  0  0  0
    3.4405   67.8038   63.6358 H   0  0  0  0  0  0  0  0  0  0  0  0
    3.1009   68.5890   61.2927 H   0  0  0  0  0  0  0  0  0  0  0  0
    0.9323   69.6265   60.6268 H   0  0  0  0  0  0  0  0  0  0  0  0
   -0.8959   69.8801   62.3025 H   0  0  0  0  0  0  0  0  0  0  0  0
   -0.5665   69.0935   64.6482 H   0  0  0  0  0  0  0  0  0  0  0  0
  2  1  2  0
  4  3  2  0
  5  4  1  0
  6  5  2  0
  6  1  1  0
  7  6  1  0
  8  7  2  0
  8  3  1  0
  9  3  1  0
 10  1  1  0
 11 10  2  0
 12 10  1  0
 13 12  2  0
 14 13  1  0
 15 14  2  0
 16 15  1  0
 17 16  2  0
 17 12  1  0
  4 18  1  0
  5 19  1  0
  7 20  1  0
  8 21  1  0
  9 22  1  0
 13 23  1  0
 14 24  1  0
 15 25  1  0
 16 26  1  0
 17 27  1  0
M  END
>  <score>  (8) 
-8.848

$$$$
=
     RDKit          3D

 27 28  0  0  0  0  0  0  0  0999 V2000
    2.2790   68.4790   64.9960 C   0  0  0  0  0  0  0  0  0  0  0  0
    1.6540   69.1200   64.1590 O   0  0  0  0  0  0  0  0  0  0  0  0
    5.2040   70.2740   67.5480 C   0  0  0  0  0  0  0  0  0  0  0  0
    5.5640   69.9380   66.2470 C   0  0  0  0  0  0  0  0  0  0  0  0
    4.6190   69.3540   65.3980 C   0  0  0  0  0  0  0  0  0  0  0  0
    3.3150   69.1110   65.8540 C   0  0  0  0  0  0  0  0  0  0  0  0
    2.9700   69.4580   67.1680 C   0  0  0  0  0  0  0  0  0  0  0  0
    3.9160   70.0380   68.0150 C   0  0  0  0  0  0  0  0  0  0  0  0
    6.0950   70.8440   68.4070 O   0  0  0  0  0  0  0  0  0  0  0  0
    1.9470   67.0160   65.1760 C   0  0  0  0  0  0  0  0  0  0  0  0
    0.8540   66.7220   65.6460 O   0  0  0  0  0  0  0  0  0  0  0  0
    2.9220   65.9800   64.7470 C   0  0  0  0  0  0  0  0  0  0  0  0
    3.6960   66.2300   63.6030 C   0  0  0  0  0  0  0  0  0  0  0  0
    4.6390   65.2940   63.1720 C   0  0  0  0  0  0  0  0  0  0  0  0
    4.8120   64.1040   63.8780 C   0  0  0  0  0  0  0  0  0  0  0  0
    4.0440   63.8490   65.0140 C   0  0  0  0  0  0  0  0  0  0  0  0
    3.1010   64.7830   65.4510 C   0  0  0  0  0  0  0  0  0  0  0  0
    6.5859   70.1306   65.8884 H   0  0  0  0  0  0  0  0  0  0  0  0
    4.8991   69.0842   64.3690 H   0  0  0  0  0  0  0  0  0  0  0  0
    1.9491   69.2723   67.5331 H   0  0  0  0  0  0  0  0  0  0  0  0
    3.6438   70.3068   69.0463 H   0  0  0  0  0  0  0  0  0  0  0  0
    5.8161   71.0746   69.3285 H   0  0  0  0  0  0  0  0  0  0  0  0
    3.5593   67.1671   63.0435 H   0  0  0  0  0  0  0  0  0  0  0  0
    5.2448   65.4955   62.2762 H   0  0  0  0  0  0  0  0  0  0  0  0
    5.5542   63.3663   63.5390 H   0  0  0  0  0  0  0  0  0  0  0  0
    4.1812   62.9088   65.5682 H   0  0  0  0  0  0  0  0  0  0  0  0
    2.4990   64.5778   66.3485 H   0  0  0  0  0  0  0  0  0  0  0  0
  2  1  2  0
  4  3  2  0
  5  4  1  0
  6  5  2  0
  6  1  1  0
  7  6  1  0
  8  7  2  0
  8  3  1  0
  9  3  1  0
 10  1  1  0
 11 10  2  0
 12 10  1  0
 13 12  2  0
 14 13  1  0
 15 14  2  0
 16 15  1  0
 17 16  2  0
 17 12  1  0
  4 18  1  0
  5 19  1  0
  7 20  1  0
  8 21  1  0
  9 22  1  0
 13 23  1  0
 14 24  1  0
 15 25  1  0
 16 26  1  0
 17 27  1  0
M  END
>  <score>  (9) 
-8.77

$$$$
