=
     RDKit          3D

 54 58  0  0  0  0  0  0  0  0999 V2000
    2.2070   61.6780   74.4750 C   0  0  2  0  0  0  0  0  0  0  0  0
    0.8460   62.0510   75.1470 N   0  0  2  0  0  4  0  0  0  0  0  0
   -0.3560   61.2370   74.7420 C   0  0  0  0  0  0  0  0  0  0  0  0
    0.6080   63.5310   74.9860 C   0  0  0  0  0  0  0  0  0  0  0  0
    0.4080   63.8650   73.5120 C   0  0  0  0  0  0  0  0  0  0  0  0
    1.4330   63.2290   72.5990 C   0  0  0  0  0  0  0  0  0  0  0  0
    2.3070   62.1820   73.0340 C   0  0  0  0  0  0  0  0  0  0  0  0
    3.3210   61.7280   72.1520 C   0  0  0  0  0  0  0  0  0  0  0  0
    3.3410   62.2270   70.8540 C   0  0  0  0  0  0  0  0  0  0  0  0
    2.4440   63.1810   70.4380 C   0  0  0  0  0  0  0  0  0  0  0  0
    1.4930   63.7070   71.2800 C   0  0  0  0  0  0  0  0  0  0  0  0
    2.6140   63.5490   69.1420 O   0  0  0  0  0  0  0  0  0  0  0  0
    3.7340   62.7270   68.7680 C   0  0  0  0  0  0  0  0  0  0  0  0
    4.1890   61.8830   69.8440 O   0  0  0  0  0  0  0  0  0  0  0  0
    0.2090   56.7490   74.4690 C   0  0  0  0  0  0  0  0  0  0  0  0
    0.5710   57.4180   73.2870 C   0  0  0  0  0  0  0  0  0  0  0  0
    1.3670   58.5730   73.3210 C   0  0  0  0  0  0  0  0  0  0  0  0
    1.7980   59.0540   74.5460 C   0  0  0  0  0  0  0  0  0  0  0  0
    1.4710   58.3700   75.7060 C   0  0  0  0  0  0  0  0  0  0  0  0
    0.6800   57.2310   75.6990 C   0  0  0  0  0  0  0  0  0  0  0  0
    2.0190   59.0900   76.8510 C   0  0  0  0  0  0  0  0  0  0  0  0
    1.8990   58.8530   78.0320 O   0  0  0  0  0  0  0  0  0  0  0  0
    2.6530   60.1900   76.3430 O   0  0  0  0  0  0  0  0  0  0  0  0
    2.6430   60.2260   74.8830 C   0  0  2  0  0  0  0  0  0  0  0  0
   -0.0850   54.4140   74.0400 C   0  0  0  0  0  0  0  0  0  0  0  0
   -0.6010   55.6470   74.5240 O   0  0  0  0  0  0  0  0  0  0  0  0
    0.2770   56.6740   76.8800 O   0  0  0  0  0  0  0  0  0  0  0  0
    1.1650   55.6290   77.2790 C   0  0  0  0  0  0  0  0  0  0  0  0
    4.2080   60.8330   72.6730 O   0  0  0  0  0  0  0  0  0  0  0  0
    4.4850   59.6400   71.9400 C   0  0  0  0  0  0  0  0  0  0  0  0
    3.0543   62.2509   74.8798 H   0  0  0  0  0  0  0  0  0  0  0  0
    0.9504   61.8007   76.1406 H   0  0  0  0  0  0  0  0  0  0  0  0
   -0.8792   60.8827   75.6424 H   0  0  0  0  0  0  0  0  0  0  0  0
   -1.0367   61.8608   74.1440 H   0  0  0  0  0  0  0  0  0  0  0  0
   -0.0294   60.3734   74.1440 H   0  0  0  0  0  0  0  0  0  0  0  0
   -0.2905   63.8199   75.5510 H   0  0  0  0  0  0  0  0  0  0  0  0
    1.4796   64.0825   75.3682 H   0  0  0  0  0  0  0  0  0  0  0  0
   -0.5904   63.5161   73.2094 H   0  0  0  0  0  0  0  0  0  0  0  0
    0.5206   64.9546   73.4115 H   0  0  0  0  0  0  0  0  0  0  0  0
    0.7966   64.4828   70.9293 H   0  0  0  0  0  0  0  0  0  0  0  0
    3.4357   62.0894   67.9228 H   0  0  0  0  0  0  0  0  0  0  0  0
    4.5631   63.3980   68.4990 H   0  0  0  0  0  0  0  0  0  0  0  0
    0.2241   57.0292   72.3182 H   0  0  0  0  0  0  0  0  0  0  0  0
    1.6443   59.0882   72.3895 H   0  0  0  0  0  0  0  0  0  0  0  0
    3.5762   60.1036   74.3137 H   0  0  0  0  0  0  0  0  0  0  0  0
    0.1844   53.7702   74.8903 H   0  0  0  0  0  0  0  0  0  0  0  0
   -0.8486   53.9121   73.4276 H   0  0  0  0  0  0  0  0  0  0  0  0
    0.8085   54.6056   73.4276 H   0  0  0  0  0  0  0  0  0  0  0  0
    1.2054   55.5815   78.3772 H   0  0  0  0  0  0  0  0  0  0  0  0
    0.8024   54.6687   76.8835 H   0  0  0  0  0  0  0  0  0  0  0  0
    2.1712   55.8319   76.8835 H   0  0  0  0  0  0  0  0  0  0  0  0
    4.6766   58.8147   72.6416 H   0  0  0  0  0  0  0  0  0  0  0  0
    3.6211   59.3898   71.3068 H   0  0  0  0  0  0  0  0  0  0  0  0
    5.3708   59.7961   71.3068 H   0  0  0  0  0  0  0  0  0  0  0  0
  2  1  1  0
  3  2  1  0
  4  2  1  0
  5  4  1  0
  6  5  1  0
  7  6  2  0
  7  1  1  0
  8  7  1  0
  9  8  2  0
 10  9  1  0
 11 10  2  0
 11  6  1  0
 12 10  1  0
 13 12  1  0
 14 13  1  0
 14  9  1  0
 16 15  2  0
 17 16  1  0
 18 17  2  0
 19 18  1  0
 20 19  2  0
 20 15  1  0
 21 19  1  0
 22 21  2  0
 23 21  1  0
 24 18  1  0
 24  1  1  0
 24 23  1  0
 26 25  1  0
 26 15  1  0
 27 20  1  0
 28 27  1  0
 29  8  1  0
 30 29  1  0
  1 31  1  1
  2 32  1  1
  3 33  1  0
  3 34  1  0
  3 35  1  0
  4 36  1  0
  4 37  1  0
  5 38  1  0
  5 39  1  0
 11 40  1  0
 13 41  1  0
 13 42  1  0
 16 43  1  0
 17 44  1  0
 24 45  1  6
 25 46  1  0
 25 47  1  0
 25 48  1  0
 28 49  1  0
 28 50  1  0
 28 51  1  0
 30 52  1  0
 30 53  1  0
 30 54  1  0
M  CHG  1   2   1
M  END
>  <score>  (1) 
-7.481

$$$$
=
     RDKit          3D

 54 58  0  0  0  0  0  0  0  0999 V2000
    2.3030   60.1490   71.7360 C   0  0  2  0  0  0  0  0  0  0  0  0
    3.7850   59.6590   71.7960 N   0  0  2  0  0  4  0  0  0  0  0  0
    4.5820   60.0530   73.0120 C   0  0  0  0  0  0  0  0  0  0  0  0
    4.4800   60.0440   70.5140 C   0  0  0  0  0  0  0  0  0  0  0  0
    4.5860   61.5620   70.4190 C   0  0  0  0  0  0  0  0  0  0  0  0
    3.2960   62.2840   70.7460 C   0  0  0  0  0  0  0  0  0  0  0  0
    2.1880   61.6310   71.3760 C   0  0  0  0  0  0  0  0  0  0  0  0
    0.9740   62.3480   71.5340 C   0  0  0  0  0  0  0  0  0  0  0  0
    0.9520   63.6950   71.1910 C   0  0  0  0  0  0  0  0  0  0  0  0
    2.0530   64.3180   70.6550 C   0  0  0  0  0  0  0  0  0  0  0  0
    3.2270   63.6460   70.4120 C   0  0  0  0  0  0  0  0  0  0  0  0
    1.8470   65.6320   70.3820 O   0  0  0  0  0  0  0  0  0  0  0  0
    0.4780   65.7870   70.7950 C   0  0  0  0  0  0  0  0  0  0  0  0
   -0.0870   64.5680   71.3170 O   0  0  0  0  0  0  0  0  0  0  0  0
    2.5670   59.5700   77.0170 C   0  0  0  0  0  0  0  0  0  0  0  0
    2.3150   60.8100   76.4060 C   0  0  0  0  0  0  0  0  0  0  0  0
    1.9490   60.8920   75.0540 C   0  0  0  0  0  0  0  0  0  0  0  0
    1.8370   59.7240   74.3180 C   0  0  0  0  0  0  0  0  0  0  0  0
    2.0490   58.5010   74.9330 C   0  0  0  0  0  0  0  0  0  0  0  0
    2.4190   58.3940   76.2650 C   0  0  0  0  0  0  0  0  0  0  0  0
    1.8960   57.4390   73.9440 C   0  0  0  0  0  0  0  0  0  0  0  0
    2.0620   56.2470   74.0700 O   0  0  0  0  0  0  0  0  0  0  0  0
    1.6040   58.0590   72.7600 O   0  0  0  0  0  0  0  0  0  0  0  0
    1.4630   59.5060   72.8980 C   0  0  2  0  0  0  0  0  0  0  0  0
    3.8460   60.3860   78.8660 C   0  0  0  0  0  0  0  0  0  0  0  0
    2.9730   59.4080   78.3140 O   0  0  0  0  0  0  0  0  0  0  0  0
    2.7450   57.1740   76.7860 O   0  0  0  0  0  0  0  0  0  0  0  0
    4.1550   56.9570   76.7330 C   0  0  0  0  0  0  0  0  0  0  0  0
   -0.0850   61.6300   72.0080 O   0  0  0  0  0  0  0  0  0  0  0  0
   -0.8110   62.1430   73.1240 C   0  0  0  0  0  0  0  0  0  0  0  0
    1.7589   59.7540   70.8654 H   0  0  0  0  0  0  0  0  0  0  0  0
    3.7343   58.6351   71.8961 H   0  0  0  0  0  0  0  0  0  0  0  0
    4.0255   59.7779   73.9201 H   0  0  0  0  0  0  0  0  0  0  0  0
    5.5493   59.5293   73.0019 H   0  0  0  0  0  0  0  0  0  0  0  0
    4.7532   61.1395   73.0019 H   0  0  0  0  0  0  0  0  0  0  0  0
    5.4889   59.6060   70.4999 H   0  0  0  0  0  0  0  0  0  0  0  0
    3.8998   59.6665   69.6591 H   0  0  0  0  0  0  0  0  0  0  0  0
    5.3613   61.9006   71.1220 H   0  0  0  0  0  0  0  0  0  0  0  0
    4.8328   61.8022   69.3743 H   0  0  0  0  0  0  0  0  0  0  0  0
    4.0906   64.1621   69.9672 H   0  0  0  0  0  0  0  0  0  0  0  0
    0.4316   66.5594   71.5768 H   0  0  0  0  0  0  0  0  0  0  0  0
   -0.1067   66.0708   69.9075 H   0  0  0  0  0  0  0  0  0  0  0  0
    2.4063   61.7326   76.9980 H   0  0  0  0  0  0  0  0  0  0  0  0
    1.7541   61.8682   74.5860 H   0  0  0  0  0  0  0  0  0  0  0  0
    0.4837   59.9882   72.7621 H   0  0  0  0  0  0  0  0  0  0  0  0
    3.8030   60.3379   79.9641 H   0  0  0  0  0  0  0  0  0  0  0  0
    4.8751   60.1901   78.5304 H   0  0  0  0  0  0  0  0  0  0  0  0
    3.5350   61.3863   78.5304 H   0  0  0  0  0  0  0  0  0  0  0  0
    4.5552   56.8954   77.7558 H   0  0  0  0  0  0  0  0  0  0  0  0
    4.3615   56.0165   76.2012 H   0  0  0  0  0  0  0  0  0  0  0  0
    4.6347   57.7919   76.2012 H   0  0  0  0  0  0  0  0  0  0  0  0
   -0.3351   61.8067   74.0570 H   0  0  0  0  0  0  0  0  0  0  0  0
   -0.8105   63.2424   73.0877 H   0  0  0  0  0  0  0  0  0  0  0  0
   -1.8471   61.7754   73.0877 H   0  0  0  0  0  0  0  0  0  0  0  0
  2  1  1  0
  3  2  1  0
  4  2  1  0
  5  4  1  0
  6  5  1  0
  7  6  2  0
  7  1  1  0
  8  7  1  0
  9  8  2  0
 10  9  1  0
 11 10  2  0
 11  6  1  0
 12 10  1  0
 13 12  1  0
 14 13  1  0
 14  9  1  0
 16 15  2  0
 17 16  1  0
 18 17  2  0
 19 18  1  0
 20 19  2  0
 20 15  1  0
 21 19  1  0
 22 21  2  0
 23 21  1  0
 24 18  1  0
 24  1  1  0
 24 23  1  0
 26 25  1  0
 26 15  1  0
 27 20  1  0
 28 27  1  0
 29  8  1  0
 30 29  1  0
  1 31  1  6
  2 32  1  6
  3 33  1  0
  3 34  1  0
  3 35  1  0
  4 36  1  0
  4 37  1  0
  5 38  1  0
  5 39  1  0
 11 40  1  0
 13 41  1  0
 13 42  1  0
 16 43  1  0
 17 44  1  0
 24 45  1  1
 25 46  1  0
 25 47  1  0
 25 48  1  0
 28 49  1  0
 28 50  1  0
 28 51  1  0
 30 52  1  0
 30 53  1  0
 30 54  1  0
M  CHG  1   2   1
M  END
>  <score>  (2) 
-7.337

$$$$
=
     RDKit          3D

 54 58  0  0  0  0  0  0  0  0999 V2000
    2.4060   59.5200   74.0110 C   0  0  2  0  0  0  0  0  0  0  0  0
    2.7620   58.5800   72.8150 N   0  0  2  0  0  4  0  0  0  0  0  0
    2.2640   58.9940   71.4550 C   0  0  0  0  0  0  0  0  0  0  0  0
    2.3560   57.1700   73.1620 C   0  0  0  0  0  0  0  0  0  0  0  0
    0.8380   57.0820   73.2750 C   0  0  0  0  0  0  0  0  0  0  0  0
    0.2230   58.1960   74.0940 C   0  0  0  0  0  0  0  0  0  0  0  0
    0.9510   59.3730   74.4610 C   0  0  0  0  0  0  0  0  0  0  0  0
    0.3390   60.3100   75.3320 C   0  0  0  0  0  0  0  0  0  0  0  0
   -0.9900   60.1120   75.6890 C   0  0  0  0  0  0  0  0  0  0  0  0
   -1.6900   59.0090   75.2640 C   0  0  0  0  0  0  0  0  0  0  0  0
   -1.1170   58.0360   74.4820 C   0  0  0  0  0  0  0  0  0  0  0  0
   -2.9730   58.9830   75.7100 O   0  0  0  0  0  0  0  0  0  0  0  0
   -3.0190   60.1950   76.4840 C   0  0  0  0  0  0  0  0  0  0  0  0
   -1.7710   60.9160   76.4640 O   0  0  0  0  0  0  0  0  0  0  0  0
    1.9880   63.7880   70.8650 C   0  0  0  0  0  0  0  0  0  0  0  0
    1.0150   63.4610   71.8260 C   0  0  0  0  0  0  0  0  0  0  0  0
    1.2810   62.5270   72.8390 C   0  0  0  0  0  0  0  0  0  0  0  0
    2.5260   61.9230   72.8840 C   0  0  0  0  0  0  0  0  0  0  0  0
    3.4960   62.2770   71.9590 C   0  0  0  0  0  0  0  0  0  0  0  0
    3.2550   63.1910   70.9440 C   0  0  0  0  0  0  0  0  0  0  0  0
    4.6970   61.4870   72.2050 C   0  0  0  0  0  0  0  0  0  0  0  0
    5.7340   61.4560   71.5800 O   0  0  0  0  0  0  0  0  0  0  0  0
    4.4100   60.6760   73.2680 O   0  0  0  0  0  0  0  0  0  0  0  0
    3.0850   60.9250   73.8290 C   0  0  2  0  0  0  0  0  0  0  0  0
    1.2890   65.9480   70.1120 C   0  0  0  0  0  0  0  0  0  0  0  0
    1.7920   64.6500   69.8210 O   0  0  0  0  0  0  0  0  0  0  0  0
    4.2000   63.4030   69.9800 O   0  0  0  0  0  0  0  0  0  0  0  0
    3.9160   62.6370   68.8100 C   0  0  0  0  0  0  0  0  0  0  0  0
    1.1330   61.3350   75.7580 O   0  0  0  0  0  0  0  0  0  0  0  0
    1.5340   61.3650   77.1270 C   0  0  0  0  0  0  0  0  0  0  0  0
    2.8736   59.2040   74.9552 H   0  0  0  0  0  0  0  0  0  0  0  0
    3.7831   58.6523   72.7005 H   0  0  0  0  0  0  0  0  0  0  0  0
    1.4227   59.6934   71.5698 H   0  0  0  0  0  0  0  0  0  0  0  0
    3.0770   59.4861   70.9010 H   0  0  0  0  0  0  0  0  0  0  0  0
    1.9286   58.1048   70.9010 H   0  0  0  0  0  0  0  0  0  0  0  0
    2.7037   56.4856   72.3742 H   0  0  0  0  0  0  0  0  0  0  0  0
    2.8085   56.8884   74.1243 H   0  0  0  0  0  0  0  0  0  0  0  0
    0.4116   57.1199   72.2617 H   0  0  0  0  0  0  0  0  0  0  0  0
    0.6085   56.1387   73.7921 H   0  0  0  0  0  0  0  0  0  0  0  0
   -1.6934   57.1535   74.1675 H   0  0  0  0  0  0  0  0  0  0  0  0
   -3.8070   60.8442   76.0746 H   0  0  0  0  0  0  0  0  0  0  0  0
   -3.2239   59.9148   77.5278 H   0  0  0  0  0  0  0  0  0  0  0  0
    0.0284   63.9456   71.7830 H   0  0  0  0  0  0  0  0  0  0  0  0
    0.5123   62.2786   73.5856 H   0  0  0  0  0  0  0  0  0  0  0  0
    2.9758   61.3601   74.8333 H   0  0  0  0  0  0  0  0  0  0  0  0
    1.2360   66.0848   71.2022 H   0  0  0  0  0  0  0  0  0  0  0  0
    1.9584   66.7061   69.6795 H   0  0  0  0  0  0  0  0  0  0  0  0
    0.2835   66.0571   69.6795 H   0  0  0  0  0  0  0  0  0  0  0  0
    3.5474   61.6429   69.1031 H   0  0  0  0  0  0  0  0  0  0  0  0
    3.1487   63.1510   68.2125 H   0  0  0  0  0  0  0  0  0  0  0  0
    4.8330   62.5266   68.2125 H   0  0  0  0  0  0  0  0  0  0  0  0
    0.6448   61.2985   77.7711 H   0  0  0  0  0  0  0  0  0  0  0  0
    2.2002   60.5142   77.3327 H   0  0  0  0  0  0  0  0  0  0  0  0
    2.0662   62.3055   77.3327 H   0  0  0  0  0  0  0  0  0  0  0  0
  2  1  1  0
  3  2  1  0
  4  2  1  0
  5  4  1  0
  6  5  1  0
  7  6  2  0
  7  1  1  0
  8  7  1  0
  9  8  2  0
 10  9  1  0
 11 10  2  0
 11  6  1  0
 12 10  1  0
 13 12  1  0
 14 13  1  0
 14  9  1  0
 16 15  2  0
 17 16  1  0
 18 17  2  0
 19 18  1  0
 20 19  2  0
 20 15  1  0
 21 19  1  0
 22 21  2  0
 23 21  1  0
 24 18  1  0
 24  1  1  0
 24 23  1  0
 26 25  1  0
 26 15  1  0
 27 20  1  0
 28 27  1  0
 29  8  1  0
 30 29  1  0
  1 31  1  1
  2 32  1  6
  3 33  1  0
  3 34  1  0
  3 35  1  0
  4 36  1  0
  4 37  1  0
  5 38  1  0
  5 39  1  0
 11 40  1  0
 13 41  1  0
 13 42  1  0
 16 43  1  0
 17 44  1  0
 24 45  1  1
 25 46  1  0
 25 47  1  0
 25 48  1  0
 28 49  1  0
 28 50  1  0
 28 51  1  0
 30 52  1  0
 30 53  1  0
 30 54  1  0
M  CHG  1   2   1
M  END
>  <score>  (3) 
-7.289

$$$$
=
     RDKit          3D

 54 58  0  0  0  0  0  0  0  0999 V2000
    0.1170   60.5770   72.8150 C   0  0  2  0  0  0  0  0  0  0  0  0
    0.1520   59.3080   73.7250 N   0  0  2  0  0  4  0  0  0  0  0  0
    0.6350   59.4990   75.1390 C   0  0  0  0  0  0  0  0  0  0  0  0
    0.9040   58.2130   73.0120 C   0  0  0  0  0  0  0  0  0  0  0  0
    2.3680   58.6090   72.8570 C   0  0  0  0  0  0  0  0  0  0  0  0
    2.5670   60.0220   72.3530 C   0  0  0  0  0  0  0  0  0  0  0  0
    1.5070   60.9840   72.3210 C   0  0  0  0  0  0  0  0  0  0  0  0
    1.7480   62.2450   71.7200 C   0  0  0  0  0  0  0  0  0  0  0  0
    3.0400   62.5440   71.3040 C   0  0  0  0  0  0  0  0  0  0  0  0
    4.0580   61.6280   71.4120 C   0  0  0  0  0  0  0  0  0  0  0  0
    3.8560   60.3670   71.9170 C   0  0  0  0  0  0  0  0  0  0  0  0
    5.2500   62.0940   70.9560 O   0  0  0  0  0  0  0  0  0  0  0  0
    4.8820   63.4180   70.5290 C   0  0  0  0  0  0  0  0  0  0  0  0
    3.4890   63.7100   70.7580 O   0  0  0  0  0  0  0  0  0  0  0  0
   -0.8810   63.1860   77.3410 C   0  0  0  0  0  0  0  0  0  0  0  0
    0.2350   63.4720   76.5360 C   0  0  0  0  0  0  0  0  0  0  0  0
    0.3200   63.0000   75.2180 C   0  0  0  0  0  0  0  0  0  0  0  0
   -0.7220   62.2400   74.7100 C   0  0  0  0  0  0  0  0  0  0  0  0
   -1.8380   61.9940   75.4930 C   0  0  0  0  0  0  0  0  0  0  0  0
   -1.9410   62.4420   76.8010 C   0  0  0  0  0  0  0  0  0  0  0  0
   -2.7690   61.1580   74.7420 C   0  0  0  0  0  0  0  0  0  0  0  0
   -3.8220   60.6770   75.0970 O   0  0  0  0  0  0  0  0  0  0  0  0
   -2.1790   60.9220   73.5310 O   0  0  0  0  0  0  0  0  0  0  0  0
   -0.9100   61.6270   73.3720 C   0  0  2  0  0  0  0  0  0  0  0  0
    0.1620   63.7010   79.4310 C   0  0  0  0  0  0  0  0  0  0  0  0
   -1.0170   63.5680   78.6480 O   0  0  0  0  0  0  0  0  0  0  0  0
   -3.0020   62.0580   77.5720 O   0  0  0  0  0  0  0  0  0  0  0  0
   -4.0210   63.0590   77.5710 C   0  0  0  0  0  0  0  0  0  0  0  0
    0.6620   63.0620   71.5920 O   0  0  0  0  0  0  0  0  0  0  0  0
    0.2520   63.4530   70.2820 C   0  0  0  0  0  0  0  0  0  0  0  0
   -0.3278   60.3811   71.8282 H   0  0  0  0  0  0  0  0  0  0  0  0
   -0.8333   59.0448   73.8695 H   0  0  0  0  0  0  0  0  0  0  0  0
   -0.1527   59.1875   75.8408 H   0  0  0  0  0  0  0  0  0  0  0  0
    1.5355   58.8893   75.3044 H   0  0  0  0  0  0  0  0  0  0  0  0
    0.8749   60.5597   75.3044 H   0  0  0  0  0  0  0  0  0  0  0  0
    0.8369   57.2835   73.5964 H   0  0  0  0  0  0  0  0  0  0  0  0
    0.4623   58.0574   72.0167 H   0  0  0  0  0  0  0  0  0  0  0  0
    2.8578   58.5181   73.8377 H   0  0  0  0  0  0  0  0  0  0  0  0
    2.8048   57.9355   72.1050 H   0  0  0  0  0  0  0  0  0  0  0  0
    4.6838   59.6452   71.9783 H   0  0  0  0  0  0  0  0  0  0  0  0
    5.4902   64.1481   71.0831 H   0  0  0  0  0  0  0  0  0  0  0  0
    5.0601   63.4788   69.4452 H   0  0  0  0  0  0  0  0  0  0  0  0
    1.0566   64.0769   76.9471 H   0  0  0  0  0  0  0  0  0  0  0  0
    1.1990   63.2291   74.5977 H   0  0  0  0  0  0  0  0  0  0  0  0
   -0.8119   62.4458   72.6441 H   0  0  0  0  0  0  0  0  0  0  0  0
   -0.1015   63.6713   80.4986 H   0  0  0  0  0  0  0  0  0  0  0  0
    0.8506   62.8748   79.2002 H   0  0  0  0  0  0  0  0  0  0  0  0
    0.6492   64.6598   79.2002 H   0  0  0  0  0  0  0  0  0  0  0  0
   -4.2831   63.3165   78.6078 H   0  0  0  0  0  0  0  0  0  0  0  0
   -3.6529   63.9564   77.0522 H   0  0  0  0  0  0  0  0  0  0  0  0
   -4.9117   62.6750   77.0522 H   0  0  0  0  0  0  0  0  0  0  0  0
   -0.5422   64.2104   70.3571 H   0  0  0  0  0  0  0  0  0  0  0  0
    1.1109   63.8749   69.7396 H   0  0  0  0  0  0  0  0  0  0  0  0
   -0.1287   62.5750   69.7396 H   0  0  0  0  0  0  0  0  0  0  0  0
  2  1  1  0
  3  2  1  0
  4  2  1  0
  5  4  1  0
  6  5  1  0
  7  6  2  0
  7  1  1  0
  8  7  1  0
  9  8  2  0
 10  9  1  0
 11 10  2  0
 11  6  1  0
 12 10  1  0
 13 12  1  0
 14 13  1  0
 14  9  1  0
 16 15  2  0
 17 16  1  0
 18 17  2  0
 19 18  1  0
 20 19  2  0
 20 15  1  0
 21 19  1  0
 22 21  2  0
 23 21  1  0
 24 18  1  0
 24  1  1  0
 24 23  1  0
 26 25  1  0
 26 15  1  0
 27 20  1  0
 28 27  1  0
 29  8  1  0
 30 29  1  0
  1 31  1  6
  2 32  1  1
  3 33  1  0
  3 34  1  0
  3 35  1  0
  4 36  1  0
  4 37  1  0
  5 38  1  0
  5 39  1  0
 11 40  1  0
 13 41  1  0
 13 42  1  0
 16 43  1  0
 17 44  1  0
 24 45  1  6
 25 46  1  0
 25 47  1  0
 25 48  1  0
 28 49  1  0
 28 50  1  0
 28 51  1  0
 30 52  1  0
 30 53  1  0
 30 54  1  0
M  CHG  1   2   1
M  END
>  <score>  (4) 
-6.886

$$$$
=
     RDKit          3D

 54 58  0  0  0  0  0  0  0  0999 V2000
    0.7890   61.0260   75.2460 C   0  0  2  0  0  0  0  0  0  0  0  0
    0.6030   59.8560   74.2260 N   0  0  2  0  0  4  0  0  0  0  0  0
    0.0000   60.2090   72.8910 C   0  0  0  0  0  0  0  0  0  0  0  0
   -0.1370   58.7300   74.9010 C   0  0  0  0  0  0  0  0  0  0  0  0
   -1.5570   59.1710   75.2360 C   0  0  0  0  0  0  0  0  0  0  0  0
   -1.6330   60.5340   75.8900 C   0  0  0  0  0  0  0  0  0  0  0  0
   -0.5260   61.4400   75.9100 C   0  0  0  0  0  0  0  0  0  0  0  0
   -0.6430   62.6450   76.6500 C   0  0  0  0  0  0  0  0  0  0  0  0
   -1.8730   62.9560   77.2170 C   0  0  0  0  0  0  0  0  0  0  0  0
   -2.9440   62.1000   77.1220 C   0  0  0  0  0  0  0  0  0  0  0  0
   -2.8570   60.8880   76.4810 C   0  0  0  0  0  0  0  0  0  0  0  0
   -4.0620   62.5690   77.7350 O   0  0  0  0  0  0  0  0  0  0  0  0
   -3.5860   63.8260   78.2480 C   0  0  0  0  0  0  0  0  0  0  0  0
   -2.2080   64.0790   77.9130 O   0  0  0  0  0  0  0  0  0  0  0  0
    1.3170   64.2900   71.0800 C   0  0  0  0  0  0  0  0  0  0  0  0
    0.3730   64.5110   72.0960 C   0  0  0  0  0  0  0  0  0  0  0  0
    0.4500   63.8290   73.3200 C   0  0  0  0  0  0  0  0  0  0  0  0
    1.4790   62.9240   73.5190 C   0  0  0  0  0  0  0  0  0  0  0  0
    2.4300   62.7370   72.5290 C   0  0  0  0  0  0  0  0  0  0  0  0
    2.3710   63.3930   71.3090 C   0  0  0  0  0  0  0  0  0  0  0  0
    3.3820   61.7230   72.9710 C   0  0  0  0  0  0  0  0  0  0  0  0
    4.3150   61.2370   72.3730 O   0  0  0  0  0  0  0  0  0  0  0  0
    2.9680   61.3260   74.2130 O   0  0  0  0  0  0  0  0  0  0  0  0
    1.8130   62.0810   74.6940 C   0  0  2  0  0  0  0  0  0  0  0  0
    1.1190   66.2890   69.7810 C   0  0  0  0  0  0  0  0  0  0  0  0
    1.2850   64.8780   69.8440 O   0  0  0  0  0  0  0  0  0  0  0  0
    3.2570   63.0720   70.3200 O   0  0  0  0  0  0  0  0  0  0  0  0
    2.7130   62.0780   69.4510 C   0  0  0  0  0  0  0  0  0  0  0  0
    0.4920   63.3970   76.7480 O   0  0  0  0  0  0  0  0  0  0  0  0
    1.1380   63.4950   78.0160 C   0  0  0  0  0  0  0  0  0  0  0  0
    1.3131   60.7145   76.1616 H   0  0  0  0  0  0  0  0  0  0  0  0
    1.5552   59.5656   73.9617 H   0  0  0  0  0  0  0  0  0  0  0  0
   -0.9397   60.7591   73.0471 H   0  0  0  0  0  0  0  0  0  0  0  0
    0.7035   60.8379   72.3257 H   0  0  0  0  0  0  0  0  0  0  0  0
   -0.2040   59.2877   72.3257 H   0  0  0  0  0  0  0  0  0  0  0  0
   -0.1741   57.8617   74.2267 H   0  0  0  0  0  0  0  0  0  0  0  0
    0.3864   58.4572   75.8292 H   0  0  0  0  0  0  0  0  0  0  0  0
   -2.1405   59.2001   74.3040 H   0  0  0  0  0  0  0  0  0  0  0  0
   -1.9567   58.4449   75.9592 H   0  0  0  0  0  0  0  0  0  0  0  0
   -3.7236   60.2123   76.4319 H   0  0  0  0  0  0  0  0  0  0  0  0
   -4.2038   64.6336   77.8284 H   0  0  0  0  0  0  0  0  0  0  0  0
   -3.6584   63.7852   79.3449 H   0  0  0  0  0  0  0  0  0  0  0  0
   -0.4413   65.2315   71.9294 H   0  0  0  0  0  0  0  0  0  0  0  0
   -0.2951   64.0104   74.1087 H   0  0  0  0  0  0  0  0  0  0  0  0
    1.9091   62.7689   75.5470 H   0  0  0  0  0  0  0  0  0  0  0  0
    1.0708   66.6984   70.8008 H   0  0  0  0  0  0  0  0  0  0  0  0
    1.9709   66.7349   69.2467 H   0  0  0  0  0  0  0  0  0  0  0  0
    0.1869   66.5250   69.2467 H   0  0  0  0  0  0  0  0  0  0  0  0
    2.2703   61.2691   70.0508 H   0  0  0  0  0  0  0  0  0  0  0  0
    1.9369   62.5308   68.8164 H   0  0  0  0  0  0  0  0  0  0  0  0
    3.5127   61.6684   68.8164 H   0  0  0  0  0  0  0  0  0  0  0  0
    0.3926   63.3819   78.8170 H   0  0  0  0  0  0  0  0  0  0  0  0
    1.8945   62.7013   78.1044 H   0  0  0  0  0  0  0  0  0  0  0  0
    1.6251   64.4773   78.1044 H   0  0  0  0  0  0  0  0  0  0  0  0
  2  1  1  0
  3  2  1  0
  4  2  1  0
  5  4  1  0
  6  5  1  0
  7  6  2  0
  7  1  1  0
  8  7  1  0
  9  8  2  0
 10  9  1  0
 11 10  2  0
 11  6  1  0
 12 10  1  0
 13 12  1  0
 14 13  1  0
 14  9  1  0
 16 15  2  0
 17 16  1  0
 18 17  2  0
 19 18  1  0
 20 19  2  0
 20 15  1  0
 21 19  1  0
 22 21  2  0
 23 21  1  0
 24 18  1  0
 24  1  1  0
 24 23  1  0
 26 25  1  0
 26 15  1  0
 27 20  1  0
 28 27  1  0
 29  8  1  0
 30 29  1  0
  1 31  1  1
  2 32  1  6
  3 33  1  0
  3 34  1  0
  3 35  1  0
  4 36  1  0
  4 37  1  0
  5 38  1  0
  5 39  1  0
 11 40  1  0
 13 41  1  0
 13 42  1  0
 16 43  1  0
 17 44  1  0
 24 45  1  1
 25 46  1  0
 25 47  1  0
 25 48  1  0
 28 49  1  0
 28 50  1  0
 28 51  1  0
 30 52  1  0
 30 53  1  0
 30 54  1  0
M  CHG  1   2   1
M  END
>  <score>  (5) 
-6.749

$$$$
=
     RDKit          3D

 54 58  0  0  0  0  0  0  0  0999 V2000
    0.4860   60.5690   75.6310 C   0  0  2  0  0  0  0  0  0  0  0  0
    0.2600   59.1440   75.0310 N   0  0  2  0  0  4  0  0  0  0  0  0
   -0.0310   59.0670   73.5550 C   0  0  0  0  0  0  0  0  0  0  0  0
   -0.7820   58.4260   75.8520 C   0  0  0  0  0  0  0  0  0  0  0  0
   -2.1300   59.1210   75.6990 C   0  0  0  0  0  0  0  0  0  0  0  0
   -2.0590   60.6260   75.8400 C   0  0  0  0  0  0  0  0  0  0  0  0
   -0.8200   61.3440   75.8120 C   0  0  0  0  0  0  0  0  0  0  0  0
   -0.8330   62.7370   76.0760 C   0  0  0  0  0  0  0  0  0  0  0  0
   -2.0610   63.3720   76.2210 C   0  0  0  0  0  0  0  0  0  0  0  0
   -3.2410   62.6710   76.1710 C   0  0  0  0  0  0  0  0  0  0  0  0
   -3.2760   61.3090   75.9950 C   0  0  0  0  0  0  0  0  0  0  0  0
   -4.3390   63.4560   76.3330 O   0  0  0  0  0  0  0  0  0  0  0  0
   -3.7300   64.7470   76.5030 C   0  0  0  0  0  0  0  0  0  0  0  0
   -2.2920   64.7010   76.4220 O   0  0  0  0  0  0  0  0  0  0  0  0
    2.4720   61.7240   70.8340 C   0  0  0  0  0  0  0  0  0  0  0  0
    1.3730   62.4090   71.3800 C   0  0  0  0  0  0  0  0  0  0  0  0
    1.0590   62.3060   72.7440 C   0  0  0  0  0  0  0  0  0  0  0  0
    1.8520   61.5140   73.5570 C   0  0  0  0  0  0  0  0  0  0  0  0
    2.9570   60.8710   73.0220 C   0  0  0  0  0  0  0  0  0  0  0  0
    3.2840   60.9500   71.6770 C   0  0  0  0  0  0  0  0  0  0  0  0
    3.6030   60.0870   74.0700 C   0  0  0  0  0  0  0  0  0  0  0  0
    4.5530   59.3410   73.9920 O   0  0  0  0  0  0  0  0  0  0  0  0
    2.8610   60.2790   75.2030 O   0  0  0  0  0  0  0  0  0  0  0  0
    1.7690   61.2300   75.0110 C   0  0  2  0  0  0  0  0  0  0  0  0
    3.4210   62.9090   68.9860 C   0  0  0  0  0  0  0  0  0  0  0  0
    2.8150   61.7340   69.5090 O   0  0  0  0  0  0  0  0  0  0  0  0
    4.3030   60.1900   71.1780 O   0  0  0  0  0  0  0  0  0  0  0  0
    5.5360   60.9110   71.2040 C   0  0  0  0  0  0  0  0  0  0  0  0
    0.3890   63.3360   76.1760 O   0  0  0  0  0  0  0  0  0  0  0  0
    0.6000   64.5740   75.4990 C   0  0  0  0  0  0  0  0  0  0  0  0
    0.7779   60.5440   76.6913 H   0  0  0  0  0  0  0  0  0  0  0  0
    1.1719   58.6693   75.0946 H   0  0  0  0  0  0  0  0  0  0  0  0
   -1.0842   58.7883   73.4030 H   0  0  0  0  0  0  0  0  0  0  0  0
    0.1596   60.0465   73.0921 H   0  0  0  0  0  0  0  0  0  0  0  0
    0.6191   58.3100   73.0921 H   0  0  0  0  0  0  0  0  0  0  0  0
   -0.8664   57.3854   75.5055 H   0  0  0  0  0  0  0  0  0  0  0  0
   -0.4838   58.4415   76.9107 H   0  0  0  0  0  0  0  0  0  0  0  0
   -2.5314   58.8843   74.7026 H   0  0  0  0  0  0  0  0  0  0  0  0
   -2.7750   58.7526   76.5103 H   0  0  0  0  0  0  0  0  0  0  0  0
   -4.2331   60.7672   75.9760 H   0  0  0  0  0  0  0  0  0  0  0  0
   -4.1050   65.4188   75.7168 H   0  0  0  0  0  0  0  0  0  0  0  0
   -3.9938   65.1079   77.5081 H   0  0  0  0  0  0  0  0  0  0  0  0
    0.7484   63.0365   70.7272 H   0  0  0  0  0  0  0  0  0  0  0  0
    0.1962   62.8462   73.1608 H   0  0  0  0  0  0  0  0  0  0  0  0
    1.7837   62.2077   75.5149 H   0  0  0  0  0  0  0  0  0  0  0  0
    3.7522   63.5511   69.8155 H   0  0  0  0  0  0  0  0  0  0  0  0
    4.2881   62.6308   68.3689 H   0  0  0  0  0  0  0  0  0  0  0  0
    2.6916   63.4542   68.3689 H   0  0  0  0  0  0  0  0  0  0  0  0
    5.8362   61.0865   72.2476 H   0  0  0  0  0  0  0  0  0  0  0  0
    6.3140   60.3255   70.6922 H   0  0  0  0  0  0  0  0  0  0  0  0
    5.4072   61.8761   70.6922 H   0  0  0  0  0  0  0  0  0  0  0  0
    0.7369   65.3773   76.2379 H   0  0  0  0  0  0  0  0  0  0  0  0
    1.4983   64.4987   74.8686 H   0  0  0  0  0  0  0  0  0  0  0  0
   -0.2725   64.8005   74.8686 H   0  0  0  0  0  0  0  0  0  0  0  0
  2  1  1  0
  3  2  1  0
  4  2  1  0
  5  4  1  0
  6  5  1  0
  7  6  2  0
  7  1  1  0
  8  7  1  0
  9  8  2  0
 10  9  1  0
 11 10  2  0
 11  6  1  0
 12 10  1  0
 13 12  1  0
 14 13  1  0
 14  9  1  0
 16 15  2  0
 17 16  1  0
 18 17  2  0
 19 18  1  0
 20 19  2  0
 20 15  1  0
 21 19  1  0
 22 21  2  0
 23 21  1  0
 24 18  1  0
 24  1  1  0
 24 23  1  0
 26 25  1  0
 26 15  1  0
 27 20  1  0
 28 27  1  0
 29  8  1  0
 30 29  1  0
  1 31  1  1
  2 32  1  6
  3 33  1  0
  3 34  1  0
  3 35  1  0
  4 36  1  0
  4 37  1  0
  5 38  1  0
  5 39  1  0
 11 40  1  0
 13 41  1  0
 13 42  1  0
 16 43  1  0
 17 44  1  0
 24 45  1  1
 25 46  1  0
 25 47  1  0
 25 48  1  0
 28 49  1  0
 28 50  1  0
 28 51  1  0
 30 52  1  0
 30 53  1  0
 30 54  1  0
M  CHG  1   2   1
M  END
>  <score>  (6) 
-6.505

$$$$
=
     RDKit          3D

 54 58  0  0  0  0  0  0  0  0999 V2000
    0.6460   60.7120   74.8170 C   0  0  2  0  0  0  0  0  0  0  0  0
    0.5400   61.6860   73.5990 N   0  0  2  0  0  4  0  0  0  0  0  0
   -0.7010   61.5800   72.7520 C   0  0  0  0  0  0  0  0  0  0  0  0
    1.7980   61.5810   72.7750 C   0  0  0  0  0  0  0  0  0  0  0  0
    1.8900   60.1950   72.1470 C   0  0  0  0  0  0  0  0  0  0  0  0
    1.6040   59.0670   73.1150 C   0  0  0  0  0  0  0  0  0  0  0  0
    1.0110   59.2870   74.3990 C   0  0  0  0  0  0  0  0  0  0  0  0
    0.8920   58.1920   75.2920 C   0  0  0  0  0  0  0  0  0  0  0  0
    1.2360   56.9240   74.8350 C   0  0  0  0  0  0  0  0  0  0  0  0
    1.7360   56.7290   73.5710 C   0  0  0  0  0  0  0  0  0  0  0  0
    1.9410   57.7690   72.6970 C   0  0  0  0  0  0  0  0  0  0  0  0
    2.0150   55.4280   73.3000 O   0  0  0  0  0  0  0  0  0  0  0  0
    1.6460   54.8030   74.5410 C   0  0  0  0  0  0  0  0  0  0  0  0
    1.1430   55.7440   75.5100 O   0  0  0  0  0  0  0  0  0  0  0  0
   -4.6660   60.8930   75.0140 C   0  0  0  0  0  0  0  0  0  0  0  0
   -3.9560   59.6870   74.8890 C   0  0  0  0  0  0  0  0  0  0  0  0
   -2.5770   59.6250   75.1430 C   0  0  0  0  0  0  0  0  0  0  0  0
   -1.9140   60.7800   75.5230 C   0  0  0  0  0  0  0  0  0  0  0  0
   -2.6240   61.9600   75.6830 C   0  0  0  0  0  0  0  0  0  0  0  0
   -3.9850   62.0480   75.4300 C   0  0  0  0  0  0  0  0  0  0  0  0
   -1.6990   63.0230   76.0590 C   0  0  0  0  0  0  0  0  0  0  0  0
   -1.9160   64.2020   76.2270 O   0  0  0  0  0  0  0  0  0  0  0  0
   -0.4580   62.4500   76.1080 O   0  0  0  0  0  0  0  0  0  0  0  0
   -0.4880   61.0110   75.8620 C   0  0  2  0  0  0  0  0  0  0  0  0
   -6.6170   60.0910   73.8860 C   0  0  0  0  0  0  0  0  0  0  0  0
   -5.9970   61.0460   74.7390 O   0  0  0  0  0  0  0  0  0  0  0  0
   -4.6090   63.2620   75.4730 O   0  0  0  0  0  0  0  0  0  0  0  0
   -5.2480   63.4620   76.7350 C   0  0  0  0  0  0  0  0  0  0  0  0
    0.4510   58.4920   76.5480 O   0  0  0  0  0  0  0  0  0  0  0  0
    1.3680   58.3850   77.6360 C   0  0  0  0  0  0  0  0  0  0  0  0
    1.5324   60.9024   75.4399 H   0  0  0  0  0  0  0  0  0  0  0  0
    0.4433   62.6273   74.0057 H   0  0  0  0  0  0  0  0  0  0  0  0
   -1.5842   61.5046   73.4034 H   0  0  0  0  0  0  0  0  0  0  0  0
   -0.7890   62.4739   72.1170 H   0  0  0  0  0  0  0  0  0  0  0  0
   -0.6361   60.6841   72.1170 H   0  0  0  0  0  0  0  0  0  0  0  0
    1.7785   62.3414   71.9804 H   0  0  0  0  0  0  0  0  0  0  0  0
    2.6714   61.7446   73.4233 H   0  0  0  0  0  0  0  0  0  0  0  0
    1.1631   60.1382   71.3233 H   0  0  0  0  0  0  0  0  0  0  0  0
    2.9267   60.0670   71.8022 H   0  0  0  0  0  0  0  0  0  0  0  0
    2.3585   57.5898   71.6952 H   0  0  0  0  0  0  0  0  0  0  0  0
    0.8656   54.0544   74.3396 H   0  0  0  0  0  0  0  0  0  0  0  0
    2.5516   54.3433   74.9635 H   0  0  0  0  0  0  0  0  0  0  0  0
   -4.4908   58.7746   74.5865 H   0  0  0  0  0  0  0  0  0  0  0  0
   -2.0320   58.6749   75.0419 H   0  0  0  0  0  0  0  0  0  0  0  0
   -0.2455   60.3014   76.6668 H   0  0  0  0  0  0  0  0  0  0  0  0
   -7.1154   59.3233   74.4962 H   0  0  0  0  0  0  0  0  0  0  0  0
   -7.3608   60.5947   73.2512 H   0  0  0  0  0  0  0  0  0  0  0  0
   -5.8542   59.6166   73.2512 H   0  0  0  0  0  0  0  0  0  0  0  0
   -4.5377   63.2397   77.5450 H   0  0  0  0  0  0  0  0  0  0  0  0
   -5.5809   64.5073   76.8159 H   0  0  0  0  0  0  0  0  0  0  0  0
   -6.1174   62.7930   76.8159 H   0  0  0  0  0  0  0  0  0  0  0  0
    0.8182   58.4492   78.5866 H   0  0  0  0  0  0  0  0  0  0  0  0
    1.8923   57.4196   77.5801 H   0  0  0  0  0  0  0  0  0  0  0  0
    2.1005   59.2038   77.5801 H   0  0  0  0  0  0  0  0  0  0  0  0
  2  1  1  0
  3  2  1  0
  4  2  1  0
  5  4  1  0
  6  5  1  0
  7  6  2  0
  7  1  1  0
  8  7  1  0
  9  8  2  0
 10  9  1  0
 11 10  2  0
 11  6  1  0
 12 10  1  0
 13 12  1  0
 14 13  1  0
 14  9  1  0
 16 15  2  0
 17 16  1  0
 18 17  2  0
 19 18  1  0
 20 19  2  0
 20 15  1  0
 21 19  1  0
 22 21  2  0
 23 21  1  0
 24 18  1  0
 24  1  1  0
 24 23  1  0
 26 25  1  0
 26 15  1  0
 27 20  1  0
 28 27  1  0
 29  8  1  0
 30 29  1  0
  1 31  1  1
  2 32  1  1
  3 33  1  0
  3 34  1  0
  3 35  1  0
  4 36  1  0
  4 37  1  0
  5 38  1  0
  5 39  1  0
 11 40  1  0
 13 41  1  0
 13 42  1  0
 16 43  1  0
 17 44  1  0
 24 45  1  1
 25 46  1  0
 25 47  1  0
 25 48  1  0
 28 49  1  0
 28 50  1  0
 28 51  1  0
 30 52  1  0
 30 53  1  0
 30 54  1  0
M  CHG  1   2   1
M  END
>  <score>  (7) 
-6.463

$$$$
=
     RDKit          3D

 54 58  0  0  0  0  0  0  0  0999 V2000
   -0.1600   59.0490   75.6510 C   0  0  2  0  0  0  0  0  0  0  0  0
    0.5080   60.3200   76.2700 N   0  0  2  0  0  4  0  0  0  0  0  0
    1.9380   60.5900   75.8830 C   0  0  0  0  0  0  0  0  0  0  0  0
    0.3200   60.2930   77.7650 C   0  0  0  0  0  0  0  0  0  0  0  0
    1.0970   59.1270   78.3640 C   0  0  0  0  0  0  0  0  0  0  0  0
    0.9030   57.8210   77.6230 C   0  0  0  0  0  0  0  0  0  0  0  0
    0.3040   57.7560   76.3240 C   0  0  0  0  0  0  0  0  0  0  0  0
    0.0470   56.4820   75.7540 C   0  0  0  0  0  0  0  0  0  0  0  0
    0.5070   55.3540   76.4230 C   0  0  0  0  0  0  0  0  0  0  0  0
    1.1450   55.4480   77.6360 C   0  0  0  0  0  0  0  0  0  0  0  0
    1.3480   56.6540   78.2630 C   0  0  0  0  0  0  0  0  0  0  0  0
    1.5240   54.2450   78.1390 O   0  0  0  0  0  0  0  0  0  0  0  0
    1.0460   53.3570   77.1130 C   0  0  0  0  0  0  0  0  0  0  0  0
    0.4140   54.0540   76.0220 O   0  0  0  0  0  0  0  0  0  0  0  0
    3.0070   60.0900   71.5070 C   0  0  0  0  0  0  0  0  0  0  0  0
    3.0780   58.8850   72.2260 C   0  0  0  0  0  0  0  0  0  0  0  0
    2.0520   58.5020   73.1040 C   0  0  0  0  0  0  0  0  0  0  0  0
    0.9550   59.3330   73.2560 C   0  0  0  0  0  0  0  0  0  0  0  0
    0.8710   60.5020   72.5160 C   0  0  0  0  0  0  0  0  0  0  0  0
    1.8750   60.9060   71.6490 C   0  0  0  0  0  0  0  0  0  0  0  0
   -0.3570   61.2040   72.8760 C   0  0  0  0  0  0  0  0  0  0  0  0
   -0.7590   62.2830   72.5020 O   0  0  0  0  0  0  0  0  0  0  0  0
   -0.9700   60.4370   73.8280 O   0  0  0  0  0  0  0  0  0  0  0  0
   -0.2640   59.1860   74.0900 C   0  0  2  0  0  0  0  0  0  0  0  0
    5.2470   60.8840   71.2360 C   0  0  0  0  0  0  0  0  0  0  0  0
    3.9840   60.5560   70.6700 O   0  0  0  0  0  0  0  0  0  0  0  0
    1.8030   62.1300   71.0460 O   0  0  0  0  0  0  0  0  0  0  0  0
    2.4020   63.1360   71.8630 C   0  0  0  0  0  0  0  0  0  0  0  0
   -0.6530   56.4830   74.5830 O   0  0  0  0  0  0  0  0  0  0  0  0
   -0.2240   55.6200   73.5310 C   0  0  0  0  0  0  0  0  0  0  0  0
   -1.2267   58.9609   75.9049 H   0  0  0  0  0  0  0  0  0  0  0  0
    0.0176   61.1234   75.8518 H   0  0  0  0  0  0  0  0  0  0  0  0
    2.5481   60.7052   76.7910 H   0  0  0  0  0  0  0  0  0  0  0  0
    2.3219   59.7485   75.2876 H   0  0  0  0  0  0  0  0  0  0  0  0
    1.9886   61.5136   75.2876 H   0  0  0  0  0  0  0  0  0  0  0  0
    0.6874   61.2360   78.1960 H   0  0  0  0  0  0  0  0  0  0  0  0
   -0.7491   60.1716   77.9936 H   0  0  0  0  0  0  0  0  0  0  0  0
    2.1676   59.3790   78.3489 H   0  0  0  0  0  0  0  0  0  0  0  0
    0.7152   58.9770   79.3846 H   0  0  0  0  0  0  0  0  0  0  0  0
    1.8469   56.7033   79.2421 H   0  0  0  0  0  0  0  0  0  0  0  0
    1.8985   52.7850   76.7179 H   0  0  0  0  0  0  0  0  0  0  0  0
    0.2904   52.7003   77.5688 H   0  0  0  0  0  0  0  0  0  0  0  0
    3.9528   58.2304   72.0987 H   0  0  0  0  0  0  0  0  0  0  0  0
    2.1184   57.5566   73.6625 H   0  0  0  0  0  0  0  0  0  0  0  0
   -0.7126   58.2216   73.8094 H   0  0  0  0  0  0  0  0  0  0  0  0
    5.1731   60.8648   72.3334 H   0  0  0  0  0  0  0  0  0  0  0  0
    5.9981   60.1511   70.9062 H   0  0  0  0  0  0  0  0  0  0  0  0
    5.5465   61.8897   70.9062 H   0  0  0  0  0  0  0  0  0  0  0  0
    2.2522   62.8844   72.9233 H   0  0  0  0  0  0  0  0  0  0  0  0
    3.4794   63.1898   71.6476 H   0  0  0  0  0  0  0  0  0  0  0  0
    1.9359   64.1088   71.6476 H   0  0  0  0  0  0  0  0  0  0  0  0
    0.2267   54.7134   73.9612 H   0  0  0  0  0  0  0  0  0  0  0  0
   -1.0882   55.3408   72.9104 H   0  0  0  0  0  0  0  0  0  0  0  0
    0.5203   56.1404   72.9104 H   0  0  0  0  0  0  0  0  0  0  0  0
  2  1  1  0
  3  2  1  0
  4  2  1  0
  5  4  1  0
  6  5  1  0
  7  6  2  0
  7  1  1  0
  8  7  1  0
  9  8  2  0
 10  9  1  0
 11 10  2  0
 11  6  1  0
 12 10  1  0
 13 12  1  0
 14 13  1  0
 14  9  1  0
 16 15  2  0
 17 16  1  0
 18 17  2  0
 19 18  1  0
 20 19  2  0
 20 15  1  0
 21 19  1  0
 22 21  2  0
 23 21  1  0
 24 18  1  0
 24  1  1  0
 24 23  1  0
 26 25  1  0
 26 15  1  0
 27 20  1  0
 28 27  1  0
 29  8  1  0
 30 29  1  0
  1 31  1  1
  2 32  1  6
  3 33  1  0
  3 34  1  0
  3 35  1  0
  4 36  1  0
  4 37  1  0
  5 38  1  0
  5 39  1  0
 11 40  1  0
 13 41  1  0
 13 42  1  0
 16 43  1  0
 17 44  1  0
 24 45  1  6
 25 46  1  0
 25 47  1  0
 25 48  1  0
 28 49  1  0
 28 50  1  0
 28 51  1  0
 30 52  1  0
 30 53  1  0
 30 54  1  0
M  CHG  1   2   1
M  END
>  <score>  (8) 
-6.39

$$$$
=
     RDKit          3D

 54 58  0  0  0  0  0  0  0  0999 V2000
    0.6290   60.5110   75.1390 C   0  0  2  0  0  0  0  0  0  0  0  0
    0.4360   62.0060   75.5520 N   0  0  2  0  0  4  0  0  0  0  0  0
    1.4980   62.9760   75.1020 C   0  0  0  0  0  0  0  0  0  0  0  0
    0.1970   62.0770   77.0380 C   0  0  0  0  0  0  0  0  0  0  0  0
    1.4490   61.6350   77.7860 C   0  0  0  0  0  0  0  0  0  0  0  0
    2.0620   60.3600   77.2480 C   0  0  0  0  0  0  0  0  0  0  0  0
    1.6870   59.8000   75.9850 C   0  0  0  0  0  0  0  0  0  0  0  0
    2.2180   58.5390   75.6130 C   0  0  0  0  0  0  0  0  0  0  0  0
    3.1820   57.9600   76.4300 C   0  0  0  0  0  0  0  0  0  0  0  0
    3.5790   58.5540   77.6030 C   0  0  0  0  0  0  0  0  0  0  0  0
    3.0370   59.7370   78.0430 C   0  0  0  0  0  0  0  0  0  0  0  0
    4.5280   57.8460   78.2700 O   0  0  0  0  0  0  0  0  0  0  0  0
    4.6920   56.7170   77.3940 C   0  0  0  0  0  0  0  0  0  0  0  0
    3.8520   56.7910   76.2260 O   0  0  0  0  0  0  0  0  0  0  0  0
    3.3810   62.0630   70.8600 C   0  0  0  0  0  0  0  0  0  0  0  0
    3.8700   61.1040   71.7650 C   0  0  0  0  0  0  0  0  0  0  0  0
    3.0230   60.4900   72.6990 C   0  0  0  0  0  0  0  0  0  0  0  0
    1.6830   60.8410   72.7220 C   0  0  0  0  0  0  0  0  0  0  0  0
    1.1970   61.7590   71.8040 C   0  0  0  0  0  0  0  0  0  0  0  0
    2.0160   62.3850   70.8760 C   0  0  0  0  0  0  0  0  0  0  0  0
   -0.2240   61.9730   72.0540 C   0  0  0  0  0  0  0  0  0  0  0  0
   -0.9890   62.7390   71.5120 O   0  0  0  0  0  0  0  0  0  0  0  0
   -0.5480   61.1810   73.1210 O   0  0  0  0  0  0  0  0  0  0  0  0
    0.5700   60.3590   73.5770 C   0  0  2  0  0  0  0  0  0  0  0  0
    5.2190   63.5380   70.4470 C   0  0  0  0  0  0  0  0  0  0  0  0
    4.1500   62.7410   69.9530 O   0  0  0  0  0  0  0  0  0  0  0  0
    1.5120   63.3780   70.0840 O   0  0  0  0  0  0  0  0  0  0  0  0
    1.7070   64.6580   70.6860 C   0  0  0  0  0  0  0  0  0  0  0  0
    1.7140   57.9940   74.4680 O   0  0  0  0  0  0  0  0  0  0  0  0
    0.9050   56.8230   74.5680 C   0  0  0  0  0  0  0  0  0  0  0  0
   -0.2232   59.8765   75.4239 H   0  0  0  0  0  0  0  0  0  0  0  0
   -0.3893   62.3336   75.0301 H   0  0  0  0  0  0  0  0  0  0  0  0
    1.9850   63.4208   75.9823 H   0  0  0  0  0  0  0  0  0  0  0  0
    2.2478   62.4444   74.4976 H   0  0  0  0  0  0  0  0  0  0  0  0
    1.0364   63.7707   74.4976 H   0  0  0  0  0  0  0  0  0  0  0  0
   -0.0496   63.1116   77.3188 H   0  0  0  0  0  0  0  0  0  0  0  0
   -0.6374   61.4111   77.3030 H   0  0  0  0  0  0  0  0  0  0  0  0
    2.1979   62.4375   77.7139 H   0  0  0  0  0  0  0  0  0  0  0  0
    1.1480   61.4332   78.8246 H   0  0  0  0  0  0  0  0  0  0  0  0
    3.3589   60.1851   78.9946 H   0  0  0  0  0  0  0  0  0  0  0  0
    5.7422   56.6733   77.0696 H   0  0  0  0  0  0  0  0  0  0  0  0
    4.4009   55.8169   77.9552 H   0  0  0  0  0  0  0  0  0  0  0  0
    4.9352   60.8308   71.7398 H   0  0  0  0  0  0  0  0  0  0  0  0
    3.4165   59.7414   73.4024 H   0  0  0  0  0  0  0  0  0  0  0  0
    0.5454   59.2656   73.4590 H   0  0  0  0  0  0  0  0  0  0  0  0
    5.2058   63.5282   71.5469 H   0  0  0  0  0  0  0  0  0  0  0  0
    6.1759   63.1311   70.0881 H   0  0  0  0  0  0  0  0  0  0  0  0
    5.1022   64.5712   70.0881 H   0  0  0  0  0  0  0  0  0  0  0  0
    1.6912   64.5544   71.7810 H   0  0  0  0  0  0  0  0  0  0  0  0
    2.6779   65.0676   70.3704 H   0  0  0  0  0  0  0  0  0  0  0  0
    0.9021   65.3381   70.3704 H   0  0  0  0  0  0  0  0  0  0  0  0
    0.7384   56.5819   75.6282 H   0  0  0  0  0  0  0  0  0  0  0  0
   -0.0625   57.0027   74.0764 H   0  0  0  0  0  0  0  0  0  0  0  0
    1.4154   55.9817   74.0764 H   0  0  0  0  0  0  0  0  0  0  0  0
  2  1  1  0
  3  2  1  0
  4  2  1  0
  5  4  1  0
  6  5  1  0
  7  6  2  0
  7  1  1  0
  8  7  1  0
  9  8  2  0
 10  9  1  0
 11 10  2  0
 11  6  1  0
 12 10  1  0
 13 12  1  0
 14 13  1  0
 14  9  1  0
 16 15  2  0
 17 16  1  0
 18 17  2  0
 19 18  1  0
 20 19  2  0
 20 15  1  0
 21 19  1  0
 22 21  2  0
 23 21  1  0
 24 18  1  0
 24  1  1  0
 24 23  1  0
 26 25  1  0
 26 15  1  0
 27 20  1  0
 28 27  1  0
 29  8  1  0
 30 29  1  0
  1 31  1  1
  2 32  1  6
  3 33  1  0
  3 34  1  0
  3 35  1  0
  4 36  1  0
  4 37  1  0
  5 38  1  0
  5 39  1  0
 11 40  1  0
 13 41  1  0
 13 42  1  0
 16 43  1  0
 17 44  1  0
 24 45  1  1
 25 46  1  0
 25 47  1  0
 25 48  1  0
 28 49  1  0
 28 50  1  0
 28 51  1  0
 30 52  1  0
 30 53  1  0
 30 54  1  0
M  CHG  1   2   1
M  END
>  <score>  (9) 
-6.211

$$$$
