=
     RDKit          3D

 45 48  0  0  0  0  0  0  0  0999 V2000
    6.5240   70.5810   69.7380 C   0  0  0  0  0  0  0  0  0  0  0  0
    7.3520   70.7550   68.6410 C   0  0  0  0  0  0  0  0  0  0  0  0
    6.8390   70.5630   67.3540 C   0  0  0  0  0  0  0  0  0  0  0  0
    5.4990   70.1830   67.1490 C   0  0  0  0  0  0  0  0  0  0  0  0
    4.6640   70.0410   68.2790 C   0  0  0  0  0  0  0  0  0  0  0  0
    5.1940   70.2280   69.5680 C   0  0  0  0  0  0  0  0  0  0  0  0
    3.2140   69.6370   68.1670 C   0  0  0  0  0  0  0  0  0  0  0  0
    2.6470   69.7420   66.7540 C   0  0  0  0  0  0  0  0  0  0  0  0
    3.6380   69.1480   65.7520 C   0  0  2  0  0  0  0  0  0  0  0  0
    4.9310   70.0200   65.7400 C   0  0  2  0  0  0  0  0  0  0  0  0
    5.9430   69.5140   64.6770 C   0  0  0  0  0  0  0  0  0  0  0  0
    5.3220   69.3090   63.2820 C   0  0  0  0  0  0  0  0  0  0  0  0
    4.0600   68.4390   63.3410 C   0  0  1  0  0  0  0  0  0  0  0  0
    3.0730   69.0900   64.3310 C   0  0  1  0  0  0  0  0  0  0  0  0
    1.7560   68.3550   64.0790 C   0  0  0  0  0  0  0  0  0  0  0  0
    1.7990   68.0150   62.5750 C   0  0  2  0  0  0  0  0  0  0  0  0
    3.1890   68.4800   62.0730 C   0  0  2  0  0  0  0  0  0  0  0  0
    4.4590   66.9810   63.6800 C   0  0  0  0  0  0  0  0  0  0  0  0
    6.9810   70.7530   71.0100 O   0  0  0  0  0  0  0  0  0  0  0  0
    3.6740   67.6480   61.0310 O   0  0  0  0  0  0  0  0  0  0  0  0
    0.7780   68.6980   61.8560 O   0  0  0  0  0  0  0  0  0  0  0  0
    8.4047   71.0419   68.7810 H   0  0  0  0  0  0  0  0  0  0  0  0
    7.4959   70.7119   66.4843 H   0  0  0  0  0  0  0  0  0  0  0  0
    4.5484   70.0932   70.4483 H   0  0  0  0  0  0  0  0  0  0  0  0
    3.1191   68.5932   68.5010 H   0  0  0  0  0  0  0  0  0  0  0  0
    2.6399   70.3362   68.7927 H   0  0  0  0  0  0  0  0  0  0  0  0
    1.6974   69.1894   66.6997 H   0  0  0  0  0  0  0  0  0  0  0  0
    2.4746   70.8006   66.5099 H   0  0  0  0  0  0  0  0  0  0  0  0
    3.8513   68.1170   66.0706 H   0  0  0  0  0  0  0  0  0  0  0  0
    4.6759   71.0406   65.4186 H   0  0  0  0  0  0  0  0  0  0  0  0
    6.7549   70.2512   64.5912 H   0  0  0  0  0  0  0  0  0  0  0  0
    6.3036   68.5319   65.0169 H   0  0  0  0  0  0  0  0  0  0  0  0
    5.0580   70.2909   62.8623 H   0  0  0  0  0  0  0  0  0  0  0  0
    6.0620   68.7947   62.6512 H   0  0  0  0  0  0  0  0  0  0  0  0
    2.8893   70.1640   64.1798 H   0  0  0  0  0  0  0  0  0  0  0  0
    1.6974   67.4390   64.6852 H   0  0  0  0  0  0  0  0  0  0  0  0
    0.8767   68.9572   64.3515 H   0  0  0  0  0  0  0  0  0  0  0  0
    1.6355   66.9386   62.4181 H   0  0  0  0  0  0  0  0  0  0  0  0
    3.1773   69.4819   61.6192 H   0  0  0  0  0  0  0  0  0  0  0  0
    4.4935   66.8548   64.7722 H   0  0  0  0  0  0  0  0  0  0  0  0
    3.7171   66.2894   63.2543 H   0  0  0  0  0  0  0  0  0  0  0  0
    5.4497   66.7635   63.2543 H   0  0  0  0  0  0  0  0  0  0  0  0
    6.3694   70.6228   71.7775 H   0  0  0  0  0  0  0  0  0  0  0  0
    4.1320   66.8623   61.4222 H   0  0  0  0  0  0  0  0  0  0  0  0
    0.1494   69.1185   62.4948 H   0  0  0  0  0  0  0  0  0  0  0  0
  2  1  2  0
  3  2  1  0
  4  3  2  0
  5  4  1  0
  6  5  2  0
  6  1  1  0
  7  5  1  0
  8  7  1  0
  9  8  1  0
 10  9  1  0
 10  4  1  0
 11 10  1  0
 12 11  1  0
 13 12  1  0
 14 13  1  0
 14  9  1  0
 15 14  1  0
 16 15  1  0
 17 16  1  0
 17 13  1  0
 13 18  1  1
 19  1  1  0
 20 17  1  0
 21 16  1  0
  2 22  1  0
  3 23  1  0
  6 24  1  0
  7 25  1  0
  7 26  1  0
  8 27  1  0
  8 28  1  0
  9 29  1  1
 10 30  1  6
 11 31  1  0
 11 32  1  0
 12 33  1  0
 12 34  1  0
 14 35  1  6
 15 36  1  0
 15 37  1  0
 16 38  1  1
 17 39  1  6
 18 40  1  0
 18 41  1  0
 18 42  1  0
 19 43  1  0
 20 44  1  0
 21 45  1  0
M  END
>  <score>  (1) 
-10.563

$$$$
=
     RDKit          3D

 45 48  0  0  0  0  0  0  0  0999 V2000
    7.2150   70.7780   69.3780 C   0  0  0  0  0  0  0  0  0  0  0  0
    7.5320   70.6550   68.0350 C   0  0  0  0  0  0  0  0  0  0  0  0
    6.5170   70.3870   67.1110 C   0  0  0  0  0  0  0  0  0  0  0  0
    5.1790   70.2240   67.5180 C   0  0  0  0  0  0  0  0  0  0  0  0
    4.8730   70.3840   68.8870 C   0  0  0  0  0  0  0  0  0  0  0  0
    5.9030   70.6450   69.8080 C   0  0  0  0  0  0  0  0  0  0  0  0
    3.4710   70.2300   69.4250 C   0  0  0  0  0  0  0  0  0  0  0  0
    2.3890   70.2430   68.3510 C   0  0  0  0  0  0  0  0  0  0  0  0
    2.8090   69.3550   67.1780 C   0  0  2  0  0  0  0  0  0  0  0  0
    4.0680   69.9770   66.4990 C   0  0  2  0  0  0  0  0  0  0  0  0
    4.4930   69.1630   65.2470 C   0  0  0  0  0  0  0  0  0  0  0  0
    3.3350   68.8860   64.2690 C   0  0  0  0  0  0  0  0  0  0  0  0
    2.1240   68.2680   64.9780 C   0  0  1  0  0  0  0  0  0  0  0  0
    1.7080   69.2090   66.1270 C   0  0  1  0  0  0  0  0  0  0  0  0
    0.3320   68.6890   66.5520 C   0  0  0  0  0  0  0  0  0  0  0  0
   -0.2830   68.1490   65.2450 C   0  0  2  0  0  0  0  0  0  0  0  0
    0.8170   68.2910   64.1640 C   0  0  2  0  0  0  0  0  0  0  0  0
    2.4680   66.8200   65.4120 C   0  0  0  0  0  0  0  0  0  0  0  0
    8.1710   71.0350   70.3160 O   0  0  0  0  0  0  0  0  0  0  0  0
    0.7400   67.2550   63.1980 O   0  0  0  0  0  0  0  0  0  0  0  0
   -1.4300   68.8990   64.8600 O   0  0  0  0  0  0  0  0  0  0  0  0
    8.5732   70.7672   67.6983 H   0  0  0  0  0  0  0  0  0  0  0  0
    6.7693   70.3017   66.0437 H   0  0  0  0  0  0  0  0  0  0  0  0
    5.6665   70.7445   70.8777 H   0  0  0  0  0  0  0  0  0  0  0  0
    3.4109   69.2734   69.9648 H   0  0  0  0  0  0  0  0  0  0  0  0
    3.2833   71.0966   70.0759 H   0  0  0  0  0  0  0  0  0  0  0  0
    1.4481   69.8642   68.7766 H   0  0  0  0  0  0  0  0  0  0  0  0
    2.2468   71.2732   67.9926 H   0  0  0  0  0  0  0  0  0  0  0  0
    3.0213   68.3539   67.5813 H   0  0  0  0  0  0  0  0  0  0  0  0
    3.8140   70.9745   66.1112 H   0  0  0  0  0  0  0  0  0  0  0  0
    5.2716   69.7275   64.7131 H   0  0  0  0  0  0  0  0  0  0  0  0
    4.8541   68.1872   65.6040 H   0  0  0  0  0  0  0  0  0  0  0  0
    3.0286   69.8340   63.8028 H   0  0  0  0  0  0  0  0  0  0  0  0
    3.6903   68.1696   63.5137 H   0  0  0  0  0  0  0  0  0  0  0  0
    1.5950   70.2686   65.8542 H   0  0  0  0  0  0  0  0  0  0  0  0
    0.4306   67.8869   67.2983 H   0  0  0  0  0  0  0  0  0  0  0  0
   -0.2879   69.4669   67.0217 H   0  0  0  0  0  0  0  0  0  0  0  0
   -0.6093   67.1066   65.3751 H   0  0  0  0  0  0  0  0  0  0  0  0
    0.7246   69.2092   63.5654 H   0  0  0  0  0  0  0  0  0  0  0  0
    2.4823   66.7600   66.5103 H   0  0  0  0  0  0  0  0  0  0  0  0
    1.7091   66.1287   65.0168 H   0  0  0  0  0  0  0  0  0  0  0  0
    3.4567   66.5439   65.0168 H   0  0  0  0  0  0  0  0  0  0  0  0
    7.9189   71.1184   71.2697 H   0  0  0  0  0  0  0  0  0  0  0  0
    0.6750   66.3802   63.6568 H   0  0  0  0  0  0  0  0  0  0  0  0
   -1.9072   69.2110   65.6693 H   0  0  0  0  0  0  0  0  0  0  0  0
  2  1  2  0
  3  2  1  0
  4  3  2  0
  5  4  1  0
  6  5  2  0
  6  1  1  0
  7  5  1  0
  8  7  1  0
  9  8  1  0
 10  9  1  0
 10  4  1  0
 11 10  1  0
 12 11  1  0
 13 12  1  0
 14 13  1  0
 14  9  1  0
 15 14  1  0
 16 15  1  0
 17 16  1  0
 17 13  1  0
 13 18  1  1
 19  1  1  0
 20 17  1  0
 21 16  1  0
  2 22  1  0
  3 23  1  0
  6 24  1  0
  7 25  1  0
  7 26  1  0
  8 27  1  0
  8 28  1  0
  9 29  1  1
 10 30  1  6
 11 31  1  0
 11 32  1  0
 12 33  1  0
 12 34  1  0
 14 35  1  6
 15 36  1  0
 15 37  1  0
 16 38  1  1
 17 39  1  6
 18 40  1  0
 18 41  1  0
 18 42  1  0
 19 43  1  0
 20 44  1  0
 21 45  1  0
M  END
>  <score>  (2) 
-10.373

$$$$
=
     RDKit          3D

 45 48  0  0  0  0  0  0  0  0999 V2000
   -3.0520   68.6520   65.9340 C   0  0  0  0  0  0  0  0  0  0  0  0
   -2.1680   68.7390   66.9980 C   0  0  0  0  0  0  0  0  0  0  0  0
   -0.8000   68.8860   66.7460 C   0  0  0  0  0  0  0  0  0  0  0  0
   -0.2990   68.9340   65.4320 C   0  0  0  0  0  0  0  0  0  0  0  0
   -1.2190   68.8740   64.3620 C   0  0  0  0  0  0  0  0  0  0  0  0
   -2.5910   68.7170   64.6280 C   0  0  0  0  0  0  0  0  0  0  0  0
   -0.7840   68.9180   62.9180 C   0  0  0  0  0  0  0  0  0  0  0  0
    0.6560   69.3790   62.7170 C   0  0  0  0  0  0  0  0  0  0  0  0
    1.5720   68.6790   63.7220 C   0  0  2  0  0  0  0  0  0  0  0  0
    1.1900   69.1410   65.1610 C   0  0  2  0  0  0  0  0  0  0  0  0
    2.1430   68.5270   66.2220 C   0  0  0  0  0  0  0  0  0  0  0  0
    3.6370   68.7080   65.8890 C   0  0  0  0  0  0  0  0  0  0  0  0
    3.9670   68.2320   64.4690 C   0  0  1  0  0  0  0  0  0  0  0  0
    3.0510   68.9870   63.4840 C   0  0  1  0  0  0  0  0  0  0  0  0
    3.6640   68.6980   62.1120 C   0  0  0  0  0  0  0  0  0  0  0  0
    5.1750   68.5780   62.3960 C   0  0  2  0  0  0  0  0  0  0  0  0
    5.3320   68.6980   63.9320 C   0  0  2  0  0  0  0  0  0  0  0  0
    3.8570   66.6870   64.4080 C   0  0  0  0  0  0  0  0  0  0  0  0
   -4.3920   68.5030   66.1320 O   0  0  0  0  0  0  0  0  0  0  0  0
    6.4180   67.9210   64.4110 O   0  0  0  0  0  0  0  0  0  0  0  0
    5.9100   69.6180   61.7590 O   0  0  0  0  0  0  0  0  0  0  0  0
   -2.5393   68.6928   68.0324 H   0  0  0  0  0  0  0  0  0  0  0  0
   -0.1017   68.9657   67.5922 H   0  0  0  0  0  0  0  0  0  0  0  0
   -3.3040   68.6452   63.7934 H   0  0  0  0  0  0  0  0  0  0  0  0
   -0.8858   67.9076   62.4953 H   0  0  0  0  0  0  0  0  0  0  0  0
   -1.4270   69.6549   62.4145 H   0  0  0  0  0  0  0  0  0  0  0  0
    0.9790   69.1312   61.6951 H   0  0  0  0  0  0  0  0  0  0  0  0
    0.7129   70.4666   62.8717 H   0  0  0  0  0  0  0  0  0  0  0  0
    1.4324   67.5951   63.5968 H   0  0  0  0  0  0  0  0  0  0  0  0
    1.3423   70.2273   65.2429 H   0  0  0  0  0  0  0  0  0  0  0  0
    1.9418   69.0088   67.1902 H   0  0  0  0  0  0  0  0  0  0  0  0
    1.9465   67.4449   66.2438 H   0  0  0  0  0  0  0  0  0  0  0  0
    3.8943   69.7740   65.9758 H   0  0  0  0  0  0  0  0  0  0  0  0
    4.2205   68.1009   66.5968 H   0  0  0  0  0  0  0  0  0  0  0  0
    3.0170   70.0791   63.6111 H   0  0  0  0  0  0  0  0  0  0  0  0
    3.2684   67.7592   61.6970 H   0  0  0  0  0  0  0  0  0  0  0  0
    3.4330   69.4787   61.3723 H   0  0  0  0  0  0  0  0  0  0  0  0
    5.5647   67.6252   62.0084 H   0  0  0  0  0  0  0  0  0  0  0  0
    5.5766   69.7168   64.2671 H   0  0  0  0  0  0  0  0  0  0  0  0
    3.8281   66.2808   65.4299 H   0  0  0  0  0  0  0  0  0  0  0  0
    2.9366   66.4057   63.8754 H   0  0  0  0  0  0  0  0  0  0  0  0
    4.7283   66.2781   63.8754 H   0  0  0  0  0  0  0  0  0  0  0  0
   -5.0035   68.4432   65.3557 H   0  0  0  0  0  0  0  0  0  0  0  0
    6.4143   67.9236   65.4010 H   0  0  0  0  0  0  0  0  0  0  0  0
    6.3213   70.2000   62.4462 H   0  0  0  0  0  0  0  0  0  0  0  0
  2  1  2  0
  3  2  1  0
  4  3  2  0
  5  4  1  0
  6  5  2  0
  6  1  1  0
  7  5  1  0
  8  7  1  0
  9  8  1  0
 10  9  1  0
 10  4  1  0
 11 10  1  0
 12 11  1  0
 13 12  1  0
 14 13  1  0
 14  9  1  0
 15 14  1  0
 16 15  1  0
 17 16  1  0
 17 13  1  0
 13 18  1  1
 19  1  1  0
 20 17  1  0
 21 16  1  0
  2 22  1  0
  3 23  1  0
  6 24  1  0
  7 25  1  0
  7 26  1  0
  8 27  1  0
  8 28  1  0
  9 29  1  1
 10 30  1  6
 11 31  1  0
 11 32  1  0
 12 33  1  0
 12 34  1  0
 14 35  1  1
 15 36  1  0
 15 37  1  0
 16 38  1  6
 17 39  1  6
 18 40  1  0
 18 41  1  0
 18 42  1  0
 19 43  1  0
 20 44  1  0
 21 45  1  0
M  END
>  <score>  (3) 
-8.51

$$$$
=
     RDKit          3D

 45 48  0  0  0  0  0  0  0  0999 V2000
    0.8220   68.5290   63.5700 C   0  0  0  0  0  0  0  0  0  0  0  0
    2.1000   68.5730   63.0380 C   0  0  0  0  0  0  0  0  0  0  0  0
    3.1910   68.7930   63.8850 C   0  0  0  0  0  0  0  0  0  0  0  0
    3.0170   68.9840   65.2690 C   0  0  0  0  0  0  0  0  0  0  0  0
    1.7090   68.9040   65.7960 C   0  0  0  0  0  0  0  0  0  0  0  0
    0.6190   68.6920   64.9330 C   0  0  0  0  0  0  0  0  0  0  0  0
    1.4160   69.0940   67.2640 C   0  0  0  0  0  0  0  0  0  0  0  0
    2.6500   69.0240   68.1570 C   0  0  0  0  0  0  0  0  0  0  0  0
    3.7850   69.8420   67.5400 C   0  0  2  0  0  0  0  0  0  0  0  0
    4.2150   69.1770   66.1960 C   0  0  2  0  0  0  0  0  0  0  0  0
    5.4250   69.9160   65.5630 C   0  0  0  0  0  0  0  0  0  0  0  0
    6.5930   70.1410   66.5430 C   0  0  0  0  0  0  0  0  0  0  0  0
    6.1250   70.8040   67.8440 C   0  0  1  0  0  0  0  0  0  0  0  0
    5.0080   69.9330   68.4540 C   0  0  1  0  0  0  0  0  0  0  0  0
    4.8430   70.4810   69.8730 C   0  0  0  0  0  0  0  0  0  0  0  0
    6.2610   70.9480   70.2610 C   0  0  2  0  0  0  0  0  0  0  0  0
    7.1380   70.7400   69.0020 C   0  0  2  0  0  0  0  0  0  0  0  0
    5.7220   72.2730   67.5550 C   0  0  0  0  0  0  0  0  0  0  0  0
   -0.2720   68.3220   62.7830 O   0  0  0  0  0  0  0  0  0  0  0  0
    8.1610   71.7190   68.9070 O   0  0  0  0  0  0  0  0  0  0  0  0
    6.7860   70.1820   71.3400 O   0  0  0  0  0  0  0  0  0  0  0  0
    2.2557   68.4360   61.9577 H   0  0  0  0  0  0  0  0  0  0  0  0
    4.2058   68.8173   63.4612 H   0  0  0  0  0  0  0  0  0  0  0  0
   -0.4017   68.6551   65.3414 H   0  0  0  0  0  0  0  0  0  0  0  0
    0.9473   70.0800   67.3984 H   0  0  0  0  0  0  0  0  0  0  0  0
    0.7569   68.2669   67.5666 H   0  0  0  0  0  0  0  0  0  0  0  0
    2.4055   69.4299   69.1497 H   0  0  0  0  0  0  0  0  0  0  0  0
    2.9692   67.9757   68.2527 H   0  0  0  0  0  0  0  0  0  0  0  0
    3.4079   70.8632   67.3820 H   0  0  0  0  0  0  0  0  0  0  0  0
    4.5832   68.1601   66.3968 H   0  0  0  0  0  0  0  0  0  0  0  0
    5.7925   69.3187   64.7155 H   0  0  0  0  0  0  0  0  0  0  0  0
    5.0692   70.9094   65.2522 H   0  0  0  0  0  0  0  0  0  0  0  0
    7.0490   69.1691   66.7827 H   0  0  0  0  0  0  0  0  0  0  0  0
    7.3202   70.8106   66.0604 H   0  0  0  0  0  0  0  0  0  0  0  0
    5.2356   68.8599   68.5357 H   0  0  0  0  0  0  0  0  0  0  0  0
    4.1365   71.3240   69.8867 H   0  0  0  0  0  0  0  0  0  0  0  0
    4.4382   69.7332   70.5708 H   0  0  0  0  0  0  0  0  0  0  0  0
    6.2439   71.9972   70.5910 H   0  0  0  0  0  0  0  0  0  0  0  0
    7.6909   69.7891   69.0084 H   0  0  0  0  0  0  0  0  0  0  0  0
    5.5756   72.8068   68.5056 H   0  0  0  0  0  0  0  0  0  0  0  0
    6.5184   72.7648   66.9772 H   0  0  0  0  0  0  0  0  0  0  0  0
    4.7861   72.2896   66.9772 H   0  0  0  0  0  0  0  0  0  0  0  0
   -1.1750   68.2949   63.1878 H   0  0  0  0  0  0  0  0  0  0  0  0
    8.4440   71.9898   69.8162 H   0  0  0  0  0  0  0  0  0  0  0  0
    6.5077   70.5880   72.1990 H   0  0  0  0  0  0  0  0  0  0  0  0
  2  1  2  0
  3  2  1  0
  4  3  2  0
  5  4  1  0
  6  5  2  0
  6  1  1  0
  7  5  1  0
  8  7  1  0
  9  8  1  0
 10  9  1  0
 10  4  1  0
 11 10  1  0
 12 11  1  0
 13 12  1  0
 14 13  1  0
 14  9  1  0
 15 14  1  0
 16 15  1  0
 17 16  1  0
 17 13  1  0
 13 18  1  6
 19  1  1  0
 20 17  1  0
 21 16  1  0
  2 22  1  0
  3 23  1  0
  6 24  1  0
  7 25  1  0
  7 26  1  0
  8 27  1  0
  8 28  1  0
  9 29  1  6
 10 30  1  1
 11 31  1  0
 11 32  1  0
 12 33  1  0
 12 34  1  0
 14 35  1  1
 15 36  1  0
 15 37  1  0
 16 38  1  1
 17 39  1  1
 18 40  1  0
 18 41  1  0
 18 42  1  0
 19 43  1  0
 20 44  1  0
 21 45  1  0
M  END
>  <score>  (4) 
-8.397

$$$$
=
     RDKit          3D

 45 48  0  0  0  0  0  0  0  0999 V2000
    1.6140   64.6980   70.6180 C   0  0  0  0  0  0  0  0  0  0  0  0
    2.6840   63.9010   70.2460 C   0  0  0  0  0  0  0  0  0  0  0  0
    2.7270   62.5670   70.6660 C   0  0  0  0  0  0  0  0  0  0  0  0
    1.7110   62.0200   71.4720 C   0  0  0  0  0  0  0  0  0  0  0  0
    0.6140   62.8410   71.8140 C   0  0  0  0  0  0  0  0  0  0  0  0
    0.5860   64.1820   71.3930 C   0  0  0  0  0  0  0  0  0  0  0  0
   -0.5260   62.3500   72.6730 C   0  0  0  0  0  0  0  0  0  0  0  0
   -0.5720   60.8350   72.8380 C   0  0  0  0  0  0  0  0  0  0  0  0
    0.8300   60.3010   73.1330 C   0  0  2  0  0  0  0  0  0  0  0  0
    1.7390   60.5510   71.8900 C   0  0  2  0  0  0  0  0  0  0  0  0
    3.1560   59.9530   72.0980 C   0  0  0  0  0  0  0  0  0  0  0  0
    3.1450   58.4870   72.5710 C   0  0  0  0  0  0  0  0  0  0  0  0
    2.2470   58.2910   73.7990 C   0  0  1  0  0  0  0  0  0  0  0  0
    0.8360   58.8050   73.4500 C   0  0  1  0  0  0  0  0  0  0  0  0
   -0.0430   58.2780   74.5870 C   0  0  0  0  0  0  0  0  0  0  0  0
    0.6160   56.9390   74.9780 C   0  0  2  0  0  0  0  0  0  0  0  0
    1.8970   56.8260   74.1160 C   0  0  2  0  0  0  0  0  0  0  0  0
    2.9040   58.9700   75.0280 C   0  0  0  0  0  0  0  0  0  0  0  0
    1.5310   66.0040   70.2360 O   0  0  0  0  0  0  0  0  0  0  0  0
    2.9310   56.1370   74.8010 O   0  0  0  0  0  0  0  0  0  0  0  0
   -0.2430   55.8370   74.7060 O   0  0  0  0  0  0  0  0  0  0  0  0
    3.4933   64.3134   69.6255 H   0  0  0  0  0  0  0  0  0  0  0  0
    3.5721   61.9328   70.3600 H   0  0  0  0  0  0  0  0  0  0  0  0
   -0.2575   64.8269   71.6804 H   0  0  0  0  0  0  0  0  0  0  0  0
   -0.4275   62.8035   73.6703 H   0  0  0  0  0  0  0  0  0  0  0  0
   -1.4562   62.6425   72.1639 H   0  0  0  0  0  0  0  0  0  0  0  0
   -1.2427   60.5791   73.6715 H   0  0  0  0  0  0  0  0  0  0  0  0
   -0.9445   60.3805   71.9081 H   0  0  0  0  0  0  0  0  0  0  0  0
    1.2046   60.8326   74.0202 H   0  0  0  0  0  0  0  0  0  0  0  0
    1.3295   60.0048   71.0275 H   0  0  0  0  0  0  0  0  0  0  0  0
    3.6991   60.0059   71.1429 H   0  0  0  0  0  0  0  0  0  0  0  0
    3.6414   60.5430   72.8894 H   0  0  0  0  0  0  0  0  0  0  0  0
    2.7735   57.8519   71.7533 H   0  0  0  0  0  0  0  0  0  0  0  0
    4.1722   58.2106   72.8511 H   0  0  0  0  0  0  0  0  0  0  0  0
    0.4174   58.4317   72.5038 H   0  0  0  0  0  0  0  0  0  0  0  0
   -0.0435   58.9765   75.4368 H   0  0  0  0  0  0  0  0  0  0  0  0
   -1.0954   58.1610   74.2892 H   0  0  0  0  0  0  0  0  0  0  0  0
    0.8347   56.9166   76.0558 H   0  0  0  0  0  0  0  0  0  0  0  0
    1.7556   56.2336   73.2000 H   0  0  0  0  0  0  0  0  0  0  0  0
    2.4877   58.5397   75.9508 H   0  0  0  0  0  0  0  0  0  0  0  0
    3.9907   58.8015   75.0026 H   0  0  0  0  0  0  0  0  0  0  0  0
    2.6998   60.0506   75.0026 H   0  0  0  0  0  0  0  0  0  0  0  0
    0.7558   66.5530   70.5149 H   0  0  0  0  0  0  0  0  0  0  0  0
    2.7965   56.2266   75.7777 H   0  0  0  0  0  0  0  0  0  0  0  0
   -0.5518   55.4409   75.5591 H   0  0  0  0  0  0  0  0  0  0  0  0
  2  1  2  0
  3  2  1  0
  4  3  2  0
  5  4  1  0
  6  5  2  0
  6  1  1  0
  7  5  1  0
  8  7  1  0
  9  8  1  0
 10  9  1  0
 10  4  1  0
 11 10  1  0
 12 11  1  0
 13 12  1  0
 14 13  1  0
 14  9  1  0
 15 14  1  0
 16 15  1  0
 17 16  1  0
 17 13  1  0
 13 18  1  1
 19  1  1  0
 20 17  1  0
 21 16  1  0
  2 22  1  0
  3 23  1  0
  6 24  1  0
  7 25  1  0
  7 26  1  0
  8 27  1  0
  8 28  1  0
  9 29  1  1
 10 30  1  6
 11 31  1  0
 11 32  1  0
 12 33  1  0
 12 34  1  0
 14 35  1  6
 15 36  1  0
 15 37  1  0
 16 38  1  1
 17 39  1  6
 18 40  1  0
 18 41  1  0
 18 42  1  0
 19 43  1  0
 20 44  1  0
 21 45  1  0
M  END
>  <score>  (5) 
-8.043

$$$$
=
     RDKit          3D

 45 48  0  0  0  0  0  0  0  0999 V2000
   -2.6030   59.2800   74.7520 C   0  0  0  0  0  0  0  0  0  0  0  0
   -1.5150   58.5220   75.1530 C   0  0  0  0  0  0  0  0  0  0  0  0
   -0.2320   58.8790   74.7250 C   0  0  0  0  0  0  0  0  0  0  0  0
   -0.0230   59.9870   73.8820 C   0  0  0  0  0  0  0  0  0  0  0  0
   -1.1420   60.7640   73.5100 C   0  0  0  0  0  0  0  0  0  0  0  0
   -2.4270   60.3900   73.9390 C   0  0  0  0  0  0  0  0  0  0  0  0
   -1.0250   61.9710   72.6110 C   0  0  0  0  0  0  0  0  0  0  0  0
    0.4030   62.4770   72.4340 C   0  0  0  0  0  0  0  0  0  0  0  0
    1.3450   61.2990   72.1820 C   0  0  2  0  0  0  0  0  0  0  0  0
    1.3840   60.4000   73.4550 C   0  0  2  0  0  0  0  0  0  0  0  0
    2.3920   59.2310   73.2900 C   0  0  0  0  0  0  0  0  0  0  0  0
    3.7840   59.6790   72.8060 C   0  0  0  0  0  0  0  0  0  0  0  0
    3.6980   60.5510   71.5480 C   0  0  1  0  0  0  0  0  0  0  0  0
    2.7710   61.7460   71.8540 C   0  0  1  0  0  0  0  0  0  0  0  0
    3.0040   62.7050   70.6850 C   0  0  0  0  0  0  0  0  0  0  0  0
    4.4820   62.4810   70.3060 C   0  0  2  0  0  0  0  0  0  0  0  0
    4.9840   61.3270   71.2100 C   0  0  2  0  0  0  0  0  0  0  0  0
    3.2580   59.6760   70.3470 C   0  0  0  0  0  0  0  0  0  0  0  0
   -3.8720   58.9670   75.1400 O   0  0  0  0  0  0  0  0  0  0  0  0
    5.9600   60.5340   70.5540 O   0  0  0  0  0  0  0  0  0  0  0  0
    5.2640   63.6460   70.5420 O   0  0  0  0  0  0  0  0  0  0  0  0
   -1.6589   57.6462   75.8029 H   0  0  0  0  0  0  0  0  0  0  0  0
    0.6313   58.2818   75.0538 H   0  0  0  0  0  0  0  0  0  0  0  0
   -3.3001   60.9822   73.6276 H   0  0  0  0  0  0  0  0  0  0  0  0
   -1.4227   61.7045   71.6207 H   0  0  0  0  0  0  0  0  0  0  0  0
   -1.5925   62.7817   73.0914 H   0  0  0  0  0  0  0  0  0  0  0  0
    0.4424   63.1654   71.5769 H   0  0  0  0  0  0  0  0  0  0  0  0
    0.7169   63.0027   73.3479 H   0  0  0  0  0  0  0  0  0  0  0  0
    0.9582   60.7480   71.3121 H   0  0  0  0  0  0  0  0  0  0  0  0
    1.7740   60.9867   74.2998 H   0  0  0  0  0  0  0  0  0  0  0  0
    2.5067   58.7311   74.2631 H   0  0  0  0  0  0  0  0  0  0  0  0
    1.9838   58.5601   72.5198 H   0  0  0  0  0  0  0  0  0  0  0  0
    4.2701   60.2562   73.6063 H   0  0  0  0  0  0  0  0  0  0  0  0
    4.3650   58.7785   72.5578 H   0  0  0  0  0  0  0  0  0  0  0  0
    2.9932   62.2920   72.7827 H   0  0  0  0  0  0  0  0  0  0  0  0
    2.3426   62.4601   69.8408 H   0  0  0  0  0  0  0  0  0  0  0  0
    2.7885   63.7514   70.9470 H   0  0  0  0  0  0  0  0  0  0  0  0
    4.5732   62.2451   69.2355 H   0  0  0  0  0  0  0  0  0  0  0  0
    5.5007   61.6761   72.1162 H   0  0  0  0  0  0  0  0  0  0  0  0
    2.7928   58.7509   70.7183 H   0  0  0  0  0  0  0  0  0  0  0  0
    2.5320   60.2315   69.7351 H   0  0  0  0  0  0  0  0  0  0  0  0
    4.1368   59.4245   69.7351 H   0  0  0  0  0  0  0  0  0  0  0  0
   -4.6331   59.5245   74.8400 H   0  0  0  0  0  0  0  0  0  0  0  0
    6.5221   60.0773   71.2289 H   0  0  0  0  0  0  0  0  0  0  0  0
    5.3591   63.7877   71.5172 H   0  0  0  0  0  0  0  0  0  0  0  0
  2  1  2  0
  3  2  1  0
  4  3  2  0
  5  4  1  0
  6  5  2  0
  6  1  1  0
  7  5  1  0
  8  7  1  0
  9  8  1  0
 10  9  1  0
 10  4  1  0
 11 10  1  0
 12 11  1  0
 13 12  1  0
 14 13  1  0
 14  9  1  0
 15 14  1  0
 16 15  1  0
 17 16  1  0
 17 13  1  0
 13 18  1  6
 19  1  1  0
 20 17  1  0
 21 16  1  0
  2 22  1  0
  3 23  1  0
  6 24  1  0
  7 25  1  0
  7 26  1  0
  8 27  1  0
  8 28  1  0
  9 29  1  6
 10 30  1  1
 11 31  1  0
 11 32  1  0
 12 33  1  0
 12 34  1  0
 14 35  1  1
 15 36  1  0
 15 37  1  0
 16 38  1  6
 17 39  1  1
 18 40  1  0
 18 41  1  0
 18 42  1  0
 19 43  1  0
 20 44  1  0
 21 45  1  0
M  END
>  <score>  (6) 
-8.038

$$$$
=
     RDKit          3D

 45 48  0  0  0  0  0  0  0  0999 V2000
    3.4770   62.7080   68.7940 C   0  0  0  0  0  0  0  0  0  0  0  0
    3.1760   63.4000   69.9560 C   0  0  0  0  0  0  0  0  0  0  0  0
    2.9320   62.6910   71.1360 C   0  0  0  0  0  0  0  0  0  0  0  0
    2.9720   61.2840   71.1670 C   0  0  0  0  0  0  0  0  0  0  0  0
    3.3120   60.5980   69.9800 C   0  0  0  0  0  0  0  0  0  0  0  0
    3.5470   61.3220   68.7970 C   0  0  0  0  0  0  0  0  0  0  0  0
    3.3830   59.0930   69.9080 C   0  0  0  0  0  0  0  0  0  0  0  0
    3.4100   58.4060   71.2690 C   0  0  0  0  0  0  0  0  0  0  0  0
    2.3590   59.0330   72.1870 C   0  0  2  0  0  0  0  0  0  0  0  0
    2.7510   60.5150   72.4680 C   0  0  2  0  0  0  0  0  0  0  0  0
    1.7650   61.1810   73.4650 C   0  0  0  0  0  0  0  0  0  0  0  0
    1.5240   60.3520   74.7420 C   0  0  0  0  0  0  0  0  0  0  0  0
    1.1320   58.9060   74.4170 C   0  0  1  0  0  0  0  0  0  0  0  0
    2.2320   58.2980   73.5230 C   0  0  1  0  0  0  0  0  0  0  0  0
    1.9270   56.7990   73.5270 C   0  0  0  0  0  0  0  0  0  0  0  0
    1.3270   56.5430   74.9240 C   0  0  2  0  0  0  0  0  0  0  0  0
    1.2220   57.9300   75.6050 C   0  0  2  0  0  0  0  0  0  0  0  0
   -0.2920   58.8860   73.8040 C   0  0  0  0  0  0  0  0  0  0  0  0
    3.7180   63.3560   67.6190 O   0  0  0  0  0  0  0  0  0  0  0  0
    0.1060   58.0030   76.4770 O   0  0  0  0  0  0  0  0  0  0  0  0
    2.1620   55.6910   75.7020 O   0  0  0  0  0  0  0  0  0  0  0  0
    3.1294   64.4990   69.9502 H   0  0  0  0  0  0  0  0  0  0  0  0
    2.7041   63.2439   72.0593 H   0  0  0  0  0  0  0  0  0  0  0  0
    3.7880   60.7856   67.8674 H   0  0  0  0  0  0  0  0  0  0  0  0
    2.5030   58.7315   69.3558 H   0  0  0  0  0  0  0  0  0  0  0  0
    4.3302   58.8434   69.4074 H   0  0  0  0  0  0  0  0  0  0  0  0
    3.1919   57.3353   71.1420 H   0  0  0  0  0  0  0  0  0  0  0  0
    4.4060   58.5306   71.7190 H   0  0  0  0  0  0  0  0  0  0  0  0
    1.3890   58.9642   71.6729 H   0  0  0  0  0  0  0  0  0  0  0  0
    3.7245   60.5391   72.9795 H   0  0  0  0  0  0  0  0  0  0  0  0
    2.1743   62.1592   73.7576 H   0  0  0  0  0  0  0  0  0  0  0  0
    0.7968   61.2693   72.9504 H   0  0  0  0  0  0  0  0  0  0  0  0
    2.4465   60.3447   75.3410 H   0  0  0  0  0  0  0  0  0  0  0  0
    0.6950   60.8141   75.2980 H   0  0  0  0  0  0  0  0  0  0  0  0
    3.2627   58.4289   73.8844 H   0  0  0  0  0  0  0  0  0  0  0  0
    1.2033   56.5453   72.7384 H   0  0  0  0  0  0  0  0  0  0  0  0
    2.8187   56.1855   73.3308 H   0  0  0  0  0  0  0  0  0  0  0  0
    0.3503   56.0443   74.8380 H   0  0  0  0  0  0  0  0  0  0  0  0
    2.0755   58.1609   76.2594 H   0  0  0  0  0  0  0  0  0  0  0  0
   -1.0387   58.8755   74.6116 H   0  0  0  0  0  0  0  0  0  0  0  0
   -0.4364   59.7822   73.1827 H   0  0  0  0  0  0  0  0  0  0  0  0
   -0.4112   57.9861   73.1827 H   0  0  0  0  0  0  0  0  0  0  0  0
    3.9310   62.8380   66.8027 H   0  0  0  0  0  0  0  0  0  0  0  0
    0.4190   57.9825   77.4160 H   0  0  0  0  0  0  0  0  0  0  0  0
    1.9986   55.8577   76.6641 H   0  0  0  0  0  0  0  0  0  0  0  0
  2  1  2  0
  3  2  1  0
  4  3  2  0
  5  4  1  0
  6  5  2  0
  6  1  1  0
  7  5  1  0
  8  7  1  0
  9  8  1  0
 10  9  1  0
 10  4  1  0
 11 10  1  0
 12 11  1  0
 13 12  1  0
 14 13  1  0
 14  9  1  0
 15 14  1  0
 16 15  1  0
 17 16  1  0
 17 13  1  0
 13 18  1  6
 19  1  1  0
 20 17  1  0
 21 16  1  0
  2 22  1  0
  3 23  1  0
  6 24  1  0
  7 25  1  0
  7 26  1  0
  8 27  1  0
  8 28  1  0
  9 29  1  6
 10 30  1  1
 11 31  1  0
 11 32  1  0
 12 33  1  0
 12 34  1  0
 14 35  1  1
 15 36  1  0
 15 37  1  0
 16 38  1  6
 17 39  1  1
 18 40  1  0
 18 41  1  0
 18 42  1  0
 19 43  1  0
 20 44  1  0
 21 45  1  0
M  END
>  <score>  (7) 
-7.773

$$$$
=
     RDKit          3D

 45 48  0  0  0  0  0  0  0  0999 V2000
   -3.6800   59.3880   75.5900 C   0  0  0  0  0  0  0  0  0  0  0  0
   -3.8260   60.5470   74.8440 C   0  0  0  0  0  0  0  0  0  0  0  0
   -2.8090   60.9320   73.9660 C   0  0  0  0  0  0  0  0  0  0  0  0
   -1.6300   60.1750   73.8330 C   0  0  0  0  0  0  0  0  0  0  0  0
   -1.5140   58.9810   74.5790 C   0  0  0  0  0  0  0  0  0  0  0  0
   -2.5400   58.6090   75.4660 C   0  0  0  0  0  0  0  0  0  0  0  0
   -0.2920   58.0990   74.5080 C   0  0  0  0  0  0  0  0  0  0  0  0
    0.6270   58.4030   73.3300 C   0  0  0  0  0  0  0  0  0  0  0  0
    0.8240   59.9150   73.2020 C   0  0  2  0  0  0  0  0  0  0  0  0
   -0.5410   60.5740   72.8390 C   0  0  2  0  0  0  0  0  0  0  0  0
   -0.3870   62.1030   72.6120 C   0  0  0  0  0  0  0  0  0  0  0  0
    0.7550   62.4710   71.6450 C   0  0  0  0  0  0  0  0  0  0  0  0
    2.0790   61.8090   72.0470 C   0  0  1  0  0  0  0  0  0  0  0  0
    1.8490   60.2850   72.1280 C   0  0  1  0  0  0  0  0  0  0  0  0
    3.2600   59.7010   72.2070 C   0  0  0  0  0  0  0  0  0  0  0  0
    4.1170   60.6790   71.3770 C   0  0  2  0  0  0  0  0  0  0  0  0
    3.1670   61.8280   70.9580 C   0  0  2  0  0  0  0  0  0  0  0  0
    2.6030   62.4600   73.3520 C   0  0  0  0  0  0  0  0  0  0  0  0
   -4.6440   58.9760   76.4620 O   0  0  0  0  0  0  0  0  0  0  0  0
    3.8510   63.0680   70.8720 O   0  0  0  0  0  0  0  0  0  0  0  0
    4.6470   60.0500   70.2150 O   0  0  0  0  0  0  0  0  0  0  0  0
   -4.7349   61.1588   74.9422 H   0  0  0  0  0  0  0  0  0  0  0  0
   -2.9327   61.8458   73.3663 H   0  0  0  0  0  0  0  0  0  0  0  0
   -2.4371   57.6928   76.0660 H   0  0  0  0  0  0  0  0  0  0  0  0
    0.2825   58.2291   75.4370 H   0  0  0  0  0  0  0  0  0  0  0  0
   -0.6519   57.0684   74.3721 H   0  0  0  0  0  0  0  0  0  0  0  0
    1.6019   57.9204   73.4935 H   0  0  0  0  0  0  0  0  0  0  0  0
    0.1722   58.0168   72.4059 H   0  0  0  0  0  0  0  0  0  0  0  0
    1.2034   60.2818   74.1671 H   0  0  0  0  0  0  0  0  0  0  0  0
   -0.8848   60.1800   71.8712 H   0  0  0  0  0  0  0  0  0  0  0  0
   -1.3304   62.4901   72.1995 H   0  0  0  0  0  0  0  0  0  0  0  0
   -0.1416   62.5507   73.5863 H   0  0  0  0  0  0  0  0  0  0  0  0
    0.4843   62.1389   70.6319 H   0  0  0  0  0  0  0  0  0  0  0  0
    0.8941   63.5616   71.6803 H   0  0  0  0  0  0  0  0  0  0  0  0
    1.3502   59.8336   71.2577 H   0  0  0  0  0  0  0  0  0  0  0  0
    3.6094   59.6630   73.2493 H   0  0  0  0  0  0  0  0  0  0  0  0
    3.3121   58.6687   71.8305 H   0  0  0  0  0  0  0  0  0  0  0  0
    4.9733   61.0378   71.9668 H   0  0  0  0  0  0  0  0  0  0  0  0
    2.7408   61.6968   69.9525 H   0  0  0  0  0  0  0  0  0  0  0  0
    2.1794   61.9337   74.2201 H   0  0  0  0  0  0  0  0  0  0  0  0
    3.7004   62.3910   73.3811 H   0  0  0  0  0  0  0  0  0  0  0  0
    2.3011   63.5174   73.3811 H   0  0  0  0  0  0  0  0  0  0  0  0
   -4.5167   58.1444   76.9838 H   0  0  0  0  0  0  0  0  0  0  0  0
    4.0374   63.4060   71.7837 H   0  0  0  0  0  0  0  0  0  0  0  0
    5.2607   59.3216   70.4849 H   0  0  0  0  0  0  0  0  0  0  0  0
  2  1  2  0
  3  2  1  0
  4  3  2  0
  5  4  1  0
  6  5  2  0
  6  1  1  0
  7  5  1  0
  8  7  1  0
  9  8  1  0
 10  9  1  0
 10  4  1  0
 11 10  1  0
 12 11  1  0
 13 12  1  0
 14 13  1  0
 14  9  1  0
 15 14  1  0
 16 15  1  0
 17 16  1  0
 17 13  1  0
 13 18  1  1
 19  1  1  0
 20 17  1  0
 21 16  1  0
  2 22  1  0
  3 23  1  0
  6 24  1  0
  7 25  1  0
  7 26  1  0
  8 27  1  0
  8 28  1  0
  9 29  1  1
 10 30  1  6
 11 31  1  0
 11 32  1  0
 12 33  1  0
 12 34  1  0
 14 35  1  6
 15 36  1  0
 15 37  1  0
 16 38  1  1
 17 39  1  6
 18 40  1  0
 18 41  1  0
 18 42  1  0
 19 43  1  0
 20 44  1  0
 21 45  1  0
M  END
>  <score>  (8) 
-7.765

$$$$
=
     RDKit          3D

 45 48  0  0  0  0  0  0  0  0999 V2000
    4.0650   62.7620   70.8250 C   0  0  0  0  0  0  0  0  0  0  0  0
    4.2600   61.4130   71.0690 C   0  0  0  0  0  0  0  0  0  0  0  0
    3.2140   60.6510   71.6000 C   0  0  0  0  0  0  0  0  0  0  0  0
    1.9680   61.2300   71.9050 C   0  0  0  0  0  0  0  0  0  0  0  0
    1.7790   62.6000   71.6200 C   0  0  0  0  0  0  0  0  0  0  0  0
    2.8410   63.3570   71.0940 C   0  0  0  0  0  0  0  0  0  0  0  0
    0.4820   63.3150   71.9090 C   0  0  0  0  0  0  0  0  0  0  0  0
   -0.6910   62.3830   72.1920 C   0  0  0  0  0  0  0  0  0  0  0  0
   -0.2530   61.2740   73.1500 C   0  0  2  0  0  0  0  0  0  0  0  0
    0.8140   60.3850   72.4420 C   0  0  2  0  0  0  0  0  0  0  0  0
    1.2360   59.1880   73.3360 C   0  0  0  0  0  0  0  0  0  0  0  0
    0.0450   58.3910   73.9030 C   0  0  0  0  0  0  0  0  0  0  0  0
   -0.9730   59.3040   74.5990 C   0  0  1  0  0  0  0  0  0  0  0  0
   -1.4170   60.3840   73.5910 C   0  0  1  0  0  0  0  0  0  0  0  0
   -2.6410   61.0250   74.2490 C   0  0  0  0  0  0  0  0  0  0  0  0
   -3.2900   59.8680   75.0360 C   0  0  2  0  0  0  0  0  0  0  0  0
   -2.3410   58.6550   74.8720 C   0  0  2  0  0  0  0  0  0  0  0  0
   -0.3580   59.8510   75.9120 C   0  0  0  0  0  0  0  0  0  0  0  0
    5.0560   63.5450   70.3120 O   0  0  0  0  0  0  0  0  0  0  0  0
   -2.3480   57.8240   76.0220 O   0  0  0  0  0  0  0  0  0  0  0  0
   -4.5760   59.5420   74.5190 O   0  0  0  0  0  0  0  0  0  0  0  0
    5.2300   60.9442   70.8470 H   0  0  0  0  0  0  0  0  0  0  0  0
    3.3685   59.5774   71.7829 H   0  0  0  0  0  0  0  0  0  0  0  0
    2.7001   64.4295   70.8943 H   0  0  0  0  0  0  0  0  0  0  0  0
    0.6310   63.9599   72.7876 H   0  0  0  0  0  0  0  0  0  0  0  0
    0.2244   63.8845   71.0039 H   0  0  0  0  0  0  0  0  0  0  0  0
   -1.5112   62.9567   72.6482 H   0  0  0  0  0  0  0  0  0  0  0  0
   -1.0330   61.9332   71.2482 H   0  0  0  0  0  0  0  0  0  0  0  0
    0.1581   61.7579   74.0482 H   0  0  0  0  0  0  0  0  0  0  0  0
    0.3641   59.9224   71.5512 H   0  0  0  0  0  0  0  0  0  0  0  0
    1.8557   58.5065   72.7348 H   0  0  0  0  0  0  0  0  0  0  0  0
    1.7836   59.6041   74.1945 H   0  0  0  0  0  0  0  0  0  0  0  0
   -0.4557   57.8638   73.0776 H   0  0  0  0  0  0  0  0  0  0  0  0
    0.4329   57.6812   74.6485 H   0  0  0  0  0  0  0  0  0  0  0  0
   -1.7259   60.0110   72.6034 H   0  0  0  0  0  0  0  0  0  0  0  0
   -2.3402   61.8381   74.9260 H   0  0  0  0  0  0  0  0  0  0  0  0
   -3.3271   61.4769   73.5175 H   0  0  0  0  0  0  0  0  0  0  0  0
   -3.4302   60.1500   76.0899 H   0  0  0  0  0  0  0  0  0  0  0  0
   -2.6391   57.9749   74.0605 H   0  0  0  0  0  0  0  0  0  0  0  0
   -0.8691   59.3964   76.7735 H   0  0  0  0  0  0  0  0  0  0  0  0
    0.7127   59.6013   75.9473 H   0  0  0  0  0  0  0  0  0  0  0  0
   -0.4811   60.9435   75.9473 H   0  0  0  0  0  0  0  0  0  0  0  0
    4.8912   64.5071   70.1466 H   0  0  0  0  0  0  0  0  0  0  0  0
   -2.3433   58.3872   76.8362 H   0  0  0  0  0  0  0  0  0  0  0  0
   -5.2026   59.3832   75.2689 H   0  0  0  0  0  0  0  0  0  0  0  0
  2  1  2  0
  3  2  1  0
  4  3  2  0
  5  4  1  0
  6  5  2  0
  6  1  1  0
  7  5  1  0
  8  7  1  0
  9  8  1  0
 10  9  1  0
 10  4  1  0
 11 10  1  0
 12 11  1  0
 13 12  1  0
 14 13  1  0
 14  9  1  0
 15 14  1  0
 16 15  1  0
 17 16  1  0
 17 13  1  0
 13 18  1  1
 19  1  1  0
 20 17  1  0
 21 16  1  0
  2 22  1  0
  3 23  1  0
  6 24  1  0
  7 25  1  0
  7 26  1  0
  8 27  1  0
  8 28  1  0
  9 29  1  1
 10 30  1  6
 11 31  1  0
 11 32  1  0
 12 33  1  0
 12 34  1  0
 14 35  1  6
 15 36  1  0
 15 37  1  0
 16 38  1  1
 17 39  1  6
 18 40  1  0
 18 41  1  0
 18 42  1  0
 19 43  1  0
 20 44  1  0
 21 45  1  0
M  END
>  <score>  (9) 
-7.702

$$$$
