=
     RDKit          3D

 65 67  0  0  0  0  0  0  0  0999 V2000
    1.5010   67.6750   64.1080 C   0  0  1  0  0  0  0  0  0  0  0  0
    0.4360   68.7730   64.0470 C   0  0  0  0  0  0  0  0  0  0  0  0
   -0.1180   68.8820   62.6220 C   0  0  1  0  0  0  0  0  0  0  0  0
   -1.0120   70.1180   62.5050 C   0  0  0  0  0  0  0  0  0  0  0  0
    0.9960   68.9260   61.6120 C   0  0  0  0  0  0  0  0  0  0  0  0
    2.2720   68.6020   61.8890 C   0  0  0  0  0  0  0  0  0  0  0  0
    2.7480   68.0330   63.2350 C   0  0  1  0  0  0  0  0  0  0  0  0
    3.8370   69.0090   63.7850 C   0  0  2  0  0  0  0  0  0  0  0  0
    5.0110   69.1910   62.7420 C   0  0  2  0  0  0  0  0  0  0  0  0
    4.5460   69.1840   61.3030 C   0  0  0  0  0  0  0  0  0  0  0  0
    3.2990   68.8990   60.9180 C   0  0  0  0  0  0  0  0  0  0  0  0
    6.1620   68.1890   62.8430 C   0  0  0  0  0  0  0  0  0  0  0  0
    1.8220   67.3940   65.4790 O   0  0  0  0  0  0  0  0  0  0  0  0
    0.7550   67.3060   66.3330 C   0  0  0  0  0  0  0  0  0  0  0  0
   -0.3250   66.8000   66.0580 O   0  0  0  0  0  0  0  0  0  0  0  0
    1.1050   67.9330   67.6730 C   0  0  1  0  0  0  0  0  0  0  0  0
    0.6930   69.4030   67.6660 C   0  0  0  0  0  0  0  0  0  0  0  0
    1.4480   66.7040   69.8860 C   0  0  0  0  0  0  0  0  0  0  0  0
    0.4540   67.1450   68.8220 C   0  0  0  0  0  0  0  0  0  0  0  0
    4.3490   68.7970   65.2310 C   0  0  0  0  0  0  0  0  0  0  0  0
    5.5170   69.6600   65.7280 C   0  0  0  0  0  0  0  0  0  0  0  0
    5.4800   69.8660   67.2520 C   0  0  2  0  0  0  0  0  0  0  0  0
    4.2430   70.6250   67.7230 C   0  0  0  0  0  0  0  0  0  0  0  0
    4.3180   70.8820   69.2290 C   0  0  2  0  0  0  0  0  0  0  0  0
    5.6950   70.6280   69.8200 C   0  0  0  0  0  0  0  0  0  0  0  0
    6.7830   71.0610   68.8830 C   0  0  0  0  0  0  0  0  0  0  0  0
    7.7540   71.7080   69.2550 O   0  0  0  0  0  0  0  0  0  0  0  0
    6.6480   70.6400   67.6010 O   0  0  0  0  0  0  0  0  0  0  0  0
    3.3800   70.0130   69.8690 O   0  0  0  0  0  0  0  0  0  0  0  0
    1.1000   66.7499   63.6683 H   0  0  0  0  0  0  0  0  0  0  0  0
   -0.3827   68.5262   64.7390 H   0  0  0  0  0  0  0  0  0  0  0  0
    0.8884   69.7335   64.3347 H   0  0  0  0  0  0  0  0  0  0  0  0
   -0.7223   67.9877   62.4097 H   0  0  0  0  0  0  0  0  0  0  0  0
   -1.2727   70.4785   63.5110 H   0  0  0  0  0  0  0  0  0  0  0  0
   -0.4753   70.9085   61.9599 H   0  0  0  0  0  0  0  0  0  0  0  0
   -1.9308   69.8557   61.9599 H   0  0  0  0  0  0  0  0  0  0  0  0
    0.7530   69.2417   60.5867 H   0  0  0  0  0  0  0  0  0  0  0  0
    3.2668   67.0640   63.1913 H   0  0  0  0  0  0  0  0  0  0  0  0
    3.2867   69.9546   63.8991 H   0  0  0  0  0  0  0  0  0  0  0  0
    5.3914   70.1819   63.0307 H   0  0  0  0  0  0  0  0  0  0  0  0
    5.2820   69.4294   60.5232 H   0  0  0  0  0  0  0  0  0  0  0  0
    3.0509   68.8904   59.8464 H   0  0  0  0  0  0  0  0  0  0  0  0
    6.3863   67.9937   63.9020 H   0  0  0  0  0  0  0  0  0  0  0  0
    5.8741   67.2489   62.3498 H   0  0  0  0  0  0  0  0  0  0  0  0
    7.0535   68.6037   62.3498 H   0  0  0  0  0  0  0  0  0  0  0  0
    2.1919   67.8882   67.8364 H   0  0  0  0  0  0  0  0  0  0  0  0
    0.5928   69.7606   68.7014 H   0  0  0  0  0  0  0  0  0  0  0  0
    1.4595   69.9962   67.1458 H   0  0  0  0  0  0  0  0  0  0  0  0
   -0.2701   69.5114   67.1458 H   0  0  0  0  0  0  0  0  0  0  0  0
    1.0246   66.8919   70.8837 H   0  0  0  0  0  0  0  0  0  0  0  0
    1.6548   65.6297   69.7718 H   0  0  0  0  0  0  0  0  0  0  0  0
    2.3833   67.2716   69.7718 H   0  0  0  0  0  0  0  0  0  0  0  0
   -0.0288   66.2501   68.4024 H   0  0  0  0  0  0  0  0  0  0  0  0
   -0.2695   67.8154   69.3089 H   0  0  0  0  0  0  0  0  0  0  0  0
    3.5000   68.9796   65.9062 H   0  0  0  0  0  0  0  0  0  0  0  0
    4.7529   67.7738   65.2265 H   0  0  0  0  0  0  0  0  0  0  0  0
    6.4622   69.1650   65.4603 H   0  0  0  0  0  0  0  0  0  0  0  0
    5.4335   70.6480   65.2516 H   0  0  0  0  0  0  0  0  0  0  0  0
    5.4556   68.8783   67.7355 H   0  0  0  0  0  0  0  0  0  0  0  0
    4.1844   71.5873   67.1933 H   0  0  0  0  0  0  0  0  0  0  0  0
    3.3494   70.0207   67.5077 H   0  0  0  0  0  0  0  0  0  0  0  0
    4.0913   71.9454   69.3960 H   0  0  0  0  0  0  0  0  0  0  0  0
    5.7893   71.1895   70.7612 H   0  0  0  0  0  0  0  0  0  0  0  0
    5.8011   69.5475   69.9967 H   0  0  0  0  0  0  0  0  0  0  0  0
    3.4700   70.0964   70.8514 H   0  0  0  0  0  0  0  0  0  0  0  0
  2  1  1  0
  3  2  1  0
  4  3  1  0
  5  3  1  0
  6  5  2  0
  7  6  1  0
  7  1  1  0
  8  7  1  0
  9  8  1  0
 10  9  1  0
 11 10  2  0
 11  6  1  0
 12  9  1  0
 13  1  1  0
 14 13  1  0
 15 14  2  0
 16 14  1  0
 17 16  1  0
 19 18  1  0
 19 16  1  0
 20  8  1  0
 21 20  1  0
 22 21  1  0
 23 22  1  0
 24 23  1  0
 25 24  1  0
 26 25  1  0
 27 26  2  0
 28 22  1  0
 28 26  1  0
 29 24  1  0
  1 30  1  6
  2 31  1  0
  2 32  1  0
  3 33  1  6
  4 34  1  0
  4 35  1  0
  4 36  1  0
  5 37  1  0
  7 38  1  6
  8 39  1  1
  9 40  1  1
 10 41  1  0
 11 42  1  0
 12 43  1  0
 12 44  1  0
 12 45  1  0
 16 46  1  1
 17 47  1  0
 17 48  1  0
 17 49  1  0
 18 50  1  0
 18 51  1  0
 18 52  1  0
 19 53  1  0
 19 54  1  0
 20 55  1  0
 20 56  1  0
 21 57  1  0
 21 58  1  0
 22 59  1  1
 23 60  1  0
 23 61  1  0
 24 62  1  6
 25 63  1  0
 25 64  1  0
 29 65  1  0
M  END
>  <score>  (1) 
-10.288

$$$$
=
     RDKit          3D

 65 67  0  0  0  0  0  0  0  0999 V2000
    1.6830   69.1720   66.3060 C   0  0  1  0  0  0  0  0  0  0  0  0
    1.3330   67.8790   67.0470 C   0  0  0  0  0  0  0  0  0  0  0  0
    1.1130   68.1740   68.5340 C   0  0  1  0  0  0  0  0  0  0  0  0
    0.9860   66.8620   69.3110 C   0  0  0  0  0  0  0  0  0  0  0  0
    2.2270   69.0220   69.0870 C   0  0  0  0  0  0  0  0  0  0  0  0
    3.1150   69.6830   68.3230 C   0  0  0  0  0  0  0  0  0  0  0  0
    3.0490   69.7610   66.7900 C   0  0  1  0  0  0  0  0  0  0  0  0
    4.3920   69.1790   66.2430 C   0  0  2  0  0  0  0  0  0  0  0  0
    5.6310   69.9530   66.8480 C   0  0  2  0  0  0  0  0  0  0  0  0
    5.4300   70.3850   68.2840 C   0  0  0  0  0  0  0  0  0  0  0  0
    4.2750   70.2730   68.9480 C   0  0  0  0  0  0  0  0  0  0  0  0
    6.0970   71.1870   66.0730 C   0  0  0  0  0  0  0  0  0  0  0  0
    1.6260   68.9440   64.8900 O   0  0  0  0  0  0  0  0  0  0  0  0
    0.3700   68.8810   64.3480 C   0  0  0  0  0  0  0  0  0  0  0  0
   -0.6730   69.0160   64.9750 O   0  0  0  0  0  0  0  0  0  0  0  0
    0.4570   68.6140   62.8540 C   0  0  1  0  0  0  0  0  0  0  0  0
   -0.0880   69.8200   62.0940 C   0  0  0  0  0  0  0  0  0  0  0  0
    2.4030   69.0780   61.2650 C   0  0  0  0  0  0  0  0  0  0  0  0
    1.9000   68.2690   62.4520 C   0  0  0  0  0  0  0  0  0  0  0  0
    4.5220   68.9410   64.7190 C   0  0  0  0  0  0  0  0  0  0  0  0
    5.4680   67.8370   64.2280 C   0  0  0  0  0  0  0  0  0  0  0  0
    4.8600   66.4340   64.3950 C   0  0  2  0  0  0  0  0  0  0  0  0
    5.0410   65.5520   63.1630 C   0  0  0  0  0  0  0  0  0  0  0  0
    4.3290   64.2130   63.3570 C   0  0  2  0  0  0  0  0  0  0  0  0
    3.3720   64.2000   64.5390 C   0  0  0  0  0  0  0  0  0  0  0  0
    2.6560   65.5110   64.6780 C   0  0  0  0  0  0  0  0  0  0  0  0
    1.4510   65.5850   64.8820 O   0  0  0  0  0  0  0  0  0  0  0  0
    3.4440   66.6130   64.6200 O   0  0  0  0  0  0  0  0  0  0  0  0
    5.3280   63.2120   63.5710 O   0  0  0  0  0  0  0  0  0  0  0  0
    0.9373   69.9449   66.5440 H   0  0  0  0  0  0  0  0  0  0  0  0
    0.4139   67.4512   66.6201 H   0  0  0  0  0  0  0  0  0  0  0  0
    2.1613   67.1635   66.9382 H   0  0  0  0  0  0  0  0  0  0  0  0
    0.1779   68.7424   68.6456 H   0  0  0  0  0  0  0  0  0  0  0  0
    1.0063   67.0718   70.3906 H   0  0  0  0  0  0  0  0  0  0  0  0
    0.0362   66.3720   69.0505 H   0  0  0  0  0  0  0  0  0  0  0  0
    1.8242   66.1990   69.0505 H   0  0  0  0  0  0  0  0  0  0  0  0
    2.3203   69.1060   70.1798 H   0  0  0  0  0  0  0  0  0  0  0  0
    3.0120   70.7735   66.3617 H   0  0  0  0  0  0  0  0  0  0  0  0
    4.3802   68.1426   66.6115 H   0  0  0  0  0  0  0  0  0  0  0  0
    6.4128   69.1830   66.7714 H   0  0  0  0  0  0  0  0  0  0  0  0
    6.2894   70.8191   68.8159 H   0  0  0  0  0  0  0  0  0  0  0  0
    4.2076   70.6353   69.9845 H   0  0  0  0  0  0  0  0  0  0  0  0
    6.3943   71.9742   66.7814 H   0  0  0  0  0  0  0  0  0  0  0  0
    6.9561   70.9197   65.4402 H   0  0  0  0  0  0  0  0  0  0  0  0
    5.2757   71.5543   65.4402 H   0  0  0  0  0  0  0  0  0  0  0  0
   -0.1598   67.7419   62.5914 H   0  0  0  0  0  0  0  0  0  0  0  0
   -0.4316   70.5804   62.8108 H   0  0  0  0  0  0  0  0  0  0  0  0
    0.7059   70.2443   61.4617 H   0  0  0  0  0  0  0  0  0  0  0  0
   -0.9311   69.5046   61.4617 H   0  0  0  0  0  0  0  0  0  0  0  0
    2.9513   69.9598   61.6282 H   0  0  0  0  0  0  0  0  0  0  0  0
    3.0734   68.4552   60.6545 H   0  0  0  0  0  0  0  0  0  0  0  0
    1.5479   69.4037   60.6545 H   0  0  0  0  0  0  0  0  0  0  0  0
    1.9441   67.2013   62.1909 H   0  0  0  0  0  0  0  0  0  0  0  0
    2.5446   68.5125   63.3094 H   0  0  0  0  0  0  0  0  0  0  0  0
    3.5175   68.6995   64.3413 H   0  0  0  0  0  0  0  0  0  0  0  0
    4.9723   69.8699   64.3390 H   0  0  0  0  0  0  0  0  0  0  0  0
    5.6851   68.0045   63.1627 H   0  0  0  0  0  0  0  0  0  0  0  0
    6.3840   67.8825   64.8353 H   0  0  0  0  0  0  0  0  0  0  0  0
    5.3715   65.9314   65.2292 H   0  0  0  0  0  0  0  0  0  0  0  0
    4.6183   66.0635   62.2857 H   0  0  0  0  0  0  0  0  0  0  0  0
    6.1146   65.3666   63.0114 H   0  0  0  0  0  0  0  0  0  0  0  0
    3.7266   64.0245   62.4561 H   0  0  0  0  0  0  0  0  0  0  0  0
    2.6305   63.4012   64.3904 H   0  0  0  0  0  0  0  0  0  0  0  0
    3.9555   64.0254   65.4550 H   0  0  0  0  0  0  0  0  0  0  0  0
    5.4598   63.0799   64.5432 H   0  0  0  0  0  0  0  0  0  0  0  0
  2  1  1  0
  3  2  1  0
  4  3  1  0
  5  3  1  0
  6  5  2  0
  7  6  1  0
  7  1  1  0
  8  7  1  0
  9  8  1  0
 10  9  1  0
 11 10  2  0
 11  6  1  0
 12  9  1  0
 13  1  1  0
 14 13  1  0
 15 14  2  0
 16 14  1  0
 17 16  1  0
 19 18  1  0
 19 16  1  0
 20  8  1  0
 21 20  1  0
 22 21  1  0
 23 22  1  0
 24 23  1  0
 25 24  1  0
 26 25  1  0
 27 26  2  0
 28 22  1  0
 28 26  1  0
 29 24  1  0
  1 30  1  6
  2 31  1  0
  2 32  1  0
  3 33  1  6
  4 34  1  0
  4 35  1  0
  4 36  1  0
  5 37  1  0
  7 38  1  1
  8 39  1  1
  9 40  1  1
 10 41  1  0
 11 42  1  0
 12 43  1  0
 12 44  1  0
 12 45  1  0
 16 46  1  1
 17 47  1  0
 17 48  1  0
 17 49  1  0
 18 50  1  0
 18 51  1  0
 18 52  1  0
 19 53  1  0
 19 54  1  0
 20 55  1  0
 20 56  1  0
 21 57  1  0
 21 58  1  0
 22 59  1  1
 23 60  1  0
 23 61  1  0
 24 62  1  6
 25 63  1  0
 25 64  1  0
 29 65  1  0
M  END
>  <score>  (2) 
-9.38

$$$$
=
     RDKit          3D

 65 67  0  0  0  0  0  0  0  0999 V2000
    2.0140   69.2990   66.7230 C   0  0  1  0  0  0  0  0  0  0  0  0
    1.8130   67.8660   67.2220 C   0  0  0  0  0  0  0  0  0  0  0  0
    1.3750   67.8820   68.6900 C   0  0  1  0  0  0  0  0  0  0  0  0
    1.3910   66.4600   69.2530 C   0  0  0  0  0  0  0  0  0  0  0  0
    2.2530   68.7940   69.5050 C   0  0  0  0  0  0  0  0  0  0  0  0
    3.0940   69.6980   68.9710 C   0  0  0  0  0  0  0  0  0  0  0  0
    3.1910   70.0080   67.4690 C   0  0  1  0  0  0  0  0  0  0  0  0
    4.6690   69.7360   67.0400 C   0  0  2  0  0  0  0  0  0  0  0  0
    5.6760   70.5880   67.9120 C   0  0  2  0  0  0  0  0  0  0  0  0
    5.2400   70.7490   69.3520 C   0  0  0  0  0  0  0  0  0  0  0  0
    4.0540   70.3550   69.8260 C   0  0  0  0  0  0  0  0  0  0  0  0
    6.0050   71.9860   67.3880 C   0  0  0  0  0  0  0  0  0  0  0  0
    2.1600   69.2930   65.2950 O   0  0  0  0  0  0  0  0  0  0  0  0
    1.2830   68.4950   64.6100 C   0  0  0  0  0  0  0  0  0  0  0  0
    1.4470   67.3030   64.3850 O   0  0  0  0  0  0  0  0  0  0  0  0
    0.0750   69.3050   64.1670 C   0  0  1  0  0  0  0  0  0  0  0  0
    0.0560   69.3890   62.6430 C   0  0  0  0  0  0  0  0  0  0  0  0
   -1.4810   69.1040   66.1820 C   0  0  0  0  0  0  0  0  0  0  0  0
   -1.2180   68.7010   64.7390 C   0  0  0  0  0  0  0  0  0  0  0  0
    5.0120   69.7680   65.5310 C   0  0  0  0  0  0  0  0  0  0  0  0
    5.8900   68.6470   64.9560 C   0  0  0  0  0  0  0  0  0  0  0  0
    5.3940   68.1680   63.5810 C   0  0  2  0  0  0  0  0  0  0  0  0
    4.2180   68.9830   63.0520 C   0  0  0  0  0  0  0  0  0  0  0  0
    3.7120   68.3940   61.7340 C   0  0  2  0  0  0  0  0  0  0  0  0
    4.2550   67.0040   61.4430 C   0  0  0  0  0  0  0  0  0  0  0  0
    4.3610   66.1840   62.6950 C   0  0  0  0  0  0  0  0  0  0  0  0
    3.9820   65.0210   62.7550 O   0  0  0  0  0  0  0  0  0  0  0  0
    4.9590   66.8000   63.7450 O   0  0  0  0  0  0  0  0  0  0  0  0
    4.1150   69.2700   60.6780 O   0  0  0  0  0  0  0  0  0  0  0  0
    1.1228   69.8990   66.9592 H   0  0  0  0  0  0  0  0  0  0  0  0
    1.0384   67.3738   66.6156 H   0  0  0  0  0  0  0  0  0  0  0  0
    2.7608   67.3150   67.1327 H   0  0  0  0  0  0  0  0  0  0  0  0
    0.3482   68.2724   68.7470 H   0  0  0  0  0  0  0  0  0  0  0  0
    1.3905   66.5008   70.3522 H   0  0  0  0  0  0  0  0  0  0  0  0
    0.4989   65.9181   68.9058 H   0  0  0  0  0  0  0  0  0  0  0  0
    2.2951   65.9383   68.9058 H   0  0  0  0  0  0  0  0  0  0  0  0
    2.2039   68.7166   70.6012 H   0  0  0  0  0  0  0  0  0  0  0  0
    3.0267   71.0575   67.1833 H   0  0  0  0  0  0  0  0  0  0  0  0
    4.7964   68.6653   67.2574 H   0  0  0  0  0  0  0  0  0  0  0  0
    6.5840   69.9714   67.8385 H   0  0  0  0  0  0  0  0  0  0  0  0
    5.9440   71.2204   70.0535 H   0  0  0  0  0  0  0  0  0  0  0  0
    3.8059   70.5339   70.8826 H   0  0  0  0  0  0  0  0  0  0  0  0
    6.1653   72.6673   68.2366 H   0  0  0  0  0  0  0  0  0  0  0  0
    6.9175   71.9425   66.7752 H   0  0  0  0  0  0  0  0  0  0  0  0
    5.1689   72.3540   66.7752 H   0  0  0  0  0  0  0  0  0  0  0  0
    0.1443   70.3296   64.5613 H   0  0  0  0  0  0  0  0  0  0  0  0
   -0.1770   70.4191   62.3354 H   0  0  0  0  0  0  0  0  0  0  0  0
    1.0417   69.1024   62.2477 H   0  0  0  0  0  0  0  0  0  0  0  0
   -0.7104   68.7061   62.2477 H   0  0  0  0  0  0  0  0  0  0  0  0
   -1.0067   68.3772   66.8579 H   0  0  0  0  0  0  0  0  0  0  0  0
   -1.0611   70.1039   66.3658 H   0  0  0  0  0  0  0  0  0  0  0  0
   -2.5654   69.1222   66.3658 H   0  0  0  0  0  0  0  0  0  0  0  0
   -1.1429   67.6046   64.6904 H   0  0  0  0  0  0  0  0  0  0  0  0
   -2.0532   69.0854   64.1351 H   0  0  0  0  0  0  0  0  0  0  0  0
    4.0596   69.7493   64.9809 H   0  0  0  0  0  0  0  0  0  0  0  0
    5.6218   70.6758   65.4123 H   0  0  0  0  0  0  0  0  0  0  0  0
    6.9189   69.0216   64.8507 H   0  0  0  0  0  0  0  0  0  0  0  0
    5.8437   67.7932   65.6480 H   0  0  0  0  0  0  0  0  0  0  0  0
    6.2150   68.2788   62.8574 H   0  0  0  0  0  0  0  0  0  0  0  0
    3.4043   68.9678   63.7920 H   0  0  0  0  0  0  0  0  0  0  0  0
    4.5500   70.0170   62.8770 H   0  0  0  0  0  0  0  0  0  0  0  0
    2.6187   68.3000   61.8110 H   0  0  0  0  0  0  0  0  0  0  0  0
    3.5795   66.4962   60.7388 H   0  0  0  0  0  0  0  0  0  0  0  0
    5.2616   67.1090   61.0119 H   0  0  0  0  0  0  0  0  0  0  0  0
    4.4961   70.0983   61.0637 H   0  0  0  0  0  0  0  0  0  0  0  0
  2  1  1  0
  3  2  1  0
  4  3  1  0
  5  3  1  0
  6  5  2  0
  7  6  1  0
  7  1  1  0
  8  7  1  0
  9  8  1  0
 10  9  1  0
 11 10  2  0
 11  6  1  0
 12  9  1  0
 13  1  1  0
 14 13  1  0
 15 14  2  0
 16 14  1  0
 17 16  1  0
 19 18  1  0
 19 16  1  0
 20  8  1  0
 21 20  1  0
 22 21  1  0
 23 22  1  0
 24 23  1  0
 25 24  1  0
 26 25  1  0
 27 26  2  0
 28 22  1  0
 28 26  1  0
 29 24  1  0
  1 30  1  6
  2 31  1  0
  2 32  1  0
  3 33  1  6
  4 34  1  0
  4 35  1  0
  4 36  1  0
  5 37  1  0
  7 38  1  1
  8 39  1  1
  9 40  1  1
 10 41  1  0
 11 42  1  0
 12 43  1  0
 12 44  1  0
 12 45  1  0
 16 46  1  1
 17 47  1  0
 17 48  1  0
 17 49  1  0
 18 50  1  0
 18 51  1  0
 18 52  1  0
 19 53  1  0
 19 54  1  0
 20 55  1  0
 20 56  1  0
 21 57  1  0
 21 58  1  0
 22 59  1  6
 23 60  1  0
 23 61  1  0
 24 62  1  1
 25 63  1  0
 25 64  1  0
 29 65  1  0
M  END
>  <score>  (3) 
-9.053

$$$$
=
     RDKit          3D

 65 67  0  0  0  0  0  0  0  0999 V2000
    2.7290   59.3960   73.3090 C   0  0  1  0  0  0  0  0  0  0  0  0
    3.0450   58.8870   71.9000 C   0  0  0  0  0  0  0  0  0  0  0  0
    3.4050   60.0660   70.9900 C   0  0  1  0  0  0  0  0  0  0  0  0
    3.5000   59.5930   69.5390 C   0  0  0  0  0  0  0  0  0  0  0  0
    2.4030   61.1810   71.1270 C   0  0  0  0  0  0  0  0  0  0  0  0
    1.5050   61.2610   72.1260 C   0  0  0  0  0  0  0  0  0  0  0  0
    1.4520   60.2980   73.3220 C   0  0  1  0  0  0  0  0  0  0  0  0
    0.0310   59.6490   73.3250 C   0  0  2  0  0  0  0  0  0  0  0  0
   -1.0960   60.7560   73.3740 C   0  0  2  0  0  0  0  0  0  0  0  0
   -0.7500   62.0040   72.5930 C   0  0  0  0  0  0  0  0  0  0  0  0
    0.4440   62.2370   72.0390 C   0  0  0  0  0  0  0  0  0  0  0  0
   -1.5340   61.2090   74.7670 C   0  0  0  0  0  0  0  0  0  0  0  0
    2.6550   58.2830   74.2140 O   0  0  0  0  0  0  0  0  0  0  0  0
    3.4050   58.3930   75.3540 C   0  0  0  0  0  0  0  0  0  0  0  0
    4.6250   58.3190   75.4020 O   0  0  0  0  0  0  0  0  0  0  0  0
    2.5000   58.6190   76.5550 C   0  0  1  0  0  0  0  0  0  0  0  0
    2.6990   57.4840   77.5560 C   0  0  0  0  0  0  0  0  0  0  0  0
    1.6620   61.0100   76.8750 C   0  0  0  0  0  0  0  0  0  0  0  0
    2.7620   60.0010   77.1740 C   0  0  0  0  0  0  0  0  0  0  0  0
   -0.2380   58.4780   74.3020 C   0  0  0  0  0  0  0  0  0  0  0  0
   -0.5550   57.0940   73.7180 C   0  0  0  0  0  0  0  0  0  0  0  0
    0.1770   55.9660   74.4660 C   0  0  2  0  0  0  0  0  0  0  0  0
    1.4620   55.5240   73.7720 C   0  0  0  0  0  0  0  0  0  0  0  0
    2.0840   54.3380   74.5100 C   0  0  2  0  0  0  0  0  0  0  0  0
    1.1480   53.6930   75.5200 C   0  0  0  0  0  0  0  0  0  0  0  0
   -0.2660   53.6680   75.0190 C   0  0  0  0  0  0  0  0  0  0  0  0
   -0.9780   52.6750   75.1050 O   0  0  0  0  0  0  0  0  0  0  0  0
   -0.7250   54.8390   74.5120 O   0  0  0  0  0  0  0  0  0  0  0  0
    3.2430   54.8100   75.2010 O   0  0  0  0  0  0  0  0  0  0  0  0
    3.5436   60.0487   73.6559 H   0  0  0  0  0  0  0  0  0  0  0  0
    3.8938   58.1888   71.9459 H   0  0  0  0  0  0  0  0  0  0  0  0
    2.1622   58.3715   71.4939 H   0  0  0  0  0  0  0  0  0  0  0  0
    4.3843   60.4609   71.2983 H   0  0  0  0  0  0  0  0  0  0  0  0
    3.7166   58.5147   69.5183 H   0  0  0  0  0  0  0  0  0  0  0  0
    2.5453   59.7851   69.0275 H   0  0  0  0  0  0  0  0  0  0  0  0
    4.3064   60.1389   69.0275 H   0  0  0  0  0  0  0  0  0  0  0  0
    2.4050   61.9761   70.3668 H   0  0  0  0  0  0  0  0  0  0  0  0
    1.5260   60.7614   74.3169 H   0  0  0  0  0  0  0  0  0  0  0  0
   -0.0024   59.1229   72.3596 H   0  0  0  0  0  0  0  0  0  0  0  0
   -1.9345   60.2172   72.9086 H   0  0  0  0  0  0  0  0  0  0  0  0
   -1.5311   62.7692   72.4731 H   0  0  0  0  0  0  0  0  0  0  0  0
    0.6208   63.1849   71.5097 H   0  0  0  0  0  0  0  0  0  0  0  0
   -0.9822   60.6383   75.5285 H   0  0  0  0  0  0  0  0  0  0  0  0
   -1.3218   62.2816   74.8874 H   0  0  0  0  0  0  0  0  0  0  0  0
   -2.6131   61.0330   74.8874 H   0  0  0  0  0  0  0  0  0  0  0  0
    1.4464   58.6107   76.2389 H   0  0  0  0  0  0  0  0  0  0  0  0
    2.6293   57.8813   78.5794 H   0  0  0  0  0  0  0  0  0  0  0  0
    1.9209   56.7213   77.4050 H   0  0  0  0  0  0  0  0  0  0  0  0
    3.6902   57.0315   77.4050 H   0  0  0  0  0  0  0  0  0  0  0  0
    1.2469   61.3907   77.8199 H   0  0  0  0  0  0  0  0  0  0  0  0
    2.0792   61.8461   76.2945 H   0  0  0  0  0  0  0  0  0  0  0  0
    0.8650   60.5223   76.2945 H   0  0  0  0  0  0  0  0  0  0  0  0
    3.7105   60.3890   76.7743 H   0  0  0  0  0  0  0  0  0  0  0  0
    2.7969   59.8691   78.2655 H   0  0  0  0  0  0  0  0  0  0  0  0
    0.6578   58.3676   74.9308 H   0  0  0  0  0  0  0  0  0  0  0  0
   -1.1626   58.7687   74.8221 H   0  0  0  0  0  0  0  0  0  0  0  0
   -1.6389   56.9200   73.7875 H   0  0  0  0  0  0  0  0  0  0  0  0
   -0.2140   57.0825   72.6723 H   0  0  0  0  0  0  0  0  0  0  0  0
    0.4600   56.3354   75.4627 H   0  0  0  0  0  0  0  0  0  0  0  0
    1.2322   55.2276   72.7379 H   0  0  0  0  0  0  0  0  0  0  0  0
    2.1758   56.3609   73.7749 H   0  0  0  0  0  0  0  0  0  0  0  0
    2.3226   53.5694   73.7602 H   0  0  0  0  0  0  0  0  0  0  0  0
    1.4796   52.6610   75.7069 H   0  0  0  0  0  0  0  0  0  0  0  0
    1.1764   54.2862   76.4459 H   0  0  0  0  0  0  0  0  0  0  0  0
    3.0927   54.7488   76.1776 H   0  0  0  0  0  0  0  0  0  0  0  0
  2  1  1  0
  3  2  1  0
  4  3  1  0
  5  3  1  0
  6  5  2  0
  7  6  1  0
  7  1  1  0
  8  7  1  0
  9  8  1  0
 10  9  1  0
 11 10  2  0
 11  6  1  0
 12  9  1  0
 13  1  1  0
 14 13  1  0
 15 14  2  0
 16 14  1  0
 17 16  1  0
 19 18  1  0
 19 16  1  0
 20  8  1  0
 21 20  1  0
 22 21  1  0
 23 22  1  0
 24 23  1  0
 25 24  1  0
 26 25  1  0
 27 26  2  0
 28 22  1  0
 28 26  1  0
 29 24  1  0
  1 30  1  1
  2 31  1  0
  2 32  1  0
  3 33  1  1
  4 34  1  0
  4 35  1  0
  4 36  1  0
  5 37  1  0
  7 38  1  1
  8 39  1  6
  9 40  1  6
 10 41  1  0
 11 42  1  0
 12 43  1  0
 12 44  1  0
 12 45  1  0
 16 46  1  6
 17 47  1  0
 17 48  1  0
 17 49  1  0
 18 50  1  0
 18 51  1  0
 18 52  1  0
 19 53  1  0
 19 54  1  0
 20 55  1  0
 20 56  1  0
 21 57  1  0
 21 58  1  0
 22 59  1  1
 23 60  1  0
 23 61  1  0
 24 62  1  6
 25 63  1  0
 25 64  1  0
 29 65  1  0
M  END
>  <score>  (4) 
-8.423

$$$$
=
     RDKit          3D

 65 67  0  0  0  0  0  0  0  0999 V2000
    0.6810   62.0560   71.9880 C   0  0  1  0  0  0  0  0  0  0  0  0
    0.2130   63.4390   72.4470 C   0  0  0  0  0  0  0  0  0  0  0  0
    0.2250   64.4120   71.2630 C   0  0  1  0  0  0  0  0  0  0  0  0
   -0.0230   65.8370   71.7590 C   0  0  0  0  0  0  0  0  0  0  0  0
    1.5220   64.3240   70.5050 C   0  0  0  0  0  0  0  0  0  0  0  0
    2.4090   63.3230   70.6520 C   0  0  0  0  0  0  0  0  0  0  0  0
    2.1730   62.0780   71.5220 C   0  0  1  0  0  0  0  0  0  0  0  0
    3.3250   62.0300   72.5750 C   0  0  2  0  0  0  0  0  0  0  0  0
    4.7390   62.0290   71.8670 C   0  0  2  0  0  0  0  0  0  0  0  0
    4.7870   62.8760   70.6150 C   0  0  0  0  0  0  0  0  0  0  0  0
    3.7180   63.4520   70.0560 C   0  0  0  0  0  0  0  0  0  0  0  0
    5.3060   60.6580   71.4980 C   0  0  0  0  0  0  0  0  0  0  0  0
    0.4160   61.0940   73.0200 O   0  0  0  0  0  0  0  0  0  0  0  0
   -0.9020   60.9190   73.3470 C   0  0  0  0  0  0  0  0  0  0  0  0
   -1.8440   61.4470   72.7710 O   0  0  0  0  0  0  0  0  0  0  0  0
   -1.0270   59.9740   74.5310 C   0  0  1  0  0  0  0  0  0  0  0  0
   -0.9120   58.5330   74.0410 C   0  0  0  0  0  0  0  0  0  0  0  0
    0.0330   59.3290   76.7640 C   0  0  0  0  0  0  0  0  0  0  0  0
    0.0180   60.3160   75.6050 C   0  0  0  0  0  0  0  0  0  0  0  0
    3.2300   60.9910   73.7200 C   0  0  0  0  0  0  0  0  0  0  0  0
    2.9640   59.5240   73.3570 C   0  0  0  0  0  0  0  0  0  0  0  0
    3.4140   58.5600   74.4680 C   0  0  2  0  0  0  0  0  0  0  0  0
    2.4760   57.3700   74.6440 C   0  0  0  0  0  0  0  0  0  0  0  0
    2.9250   56.5080   75.8250 C   0  0  2  0  0  0  0  0  0  0  0  0
    3.9560   57.1860   76.7130 C   0  0  0  0  0  0  0  0  0  0  0  0
    3.6760   58.6530   76.8570 C   0  0  0  0  0  0  0  0  0  0  0  0
    3.7190   59.2290   77.9370 O   0  0  0  0  0  0  0  0  0  0  0  0
    3.4260   59.3140   75.7000 O   0  0  0  0  0  0  0  0  0  0  0  0
    3.4960   55.3070   75.3000 O   0  0  0  0  0  0  0  0  0  0  0  0
    0.1089   61.7508   71.0994 H   0  0  0  0  0  0  0  0  0  0  0  0
   -0.8088   63.3642   72.8475 H   0  0  0  0  0  0  0  0  0  0  0  0
    0.8919   63.8106   73.2287 H   0  0  0  0  0  0  0  0  0  0  0  0
   -0.5829   64.1335   70.5703 H   0  0  0  0  0  0  0  0  0  0  0  0
   -0.0248   65.8473   72.8590 H   0  0  0  0  0  0  0  0  0  0  0  0
    0.7735   66.4984   71.3874 H   0  0  0  0  0  0  0  0  0  0  0  0
   -0.9962   66.1904   71.3874 H   0  0  0  0  0  0  0  0  0  0  0  0
    1.7587   65.1248   69.7889 H   0  0  0  0  0  0  0  0  0  0  0  0
    2.2529   61.1091   71.0073 H   0  0  0  0  0  0  0  0  0  0  0  0
    3.1860   62.9666   73.1348 H   0  0  0  0  0  0  0  0  0  0  0  0
    5.3672   62.4585   72.6613 H   0  0  0  0  0  0  0  0  0  0  0  0
    5.7643   63.0278   70.1334 H   0  0  0  0  0  0  0  0  0  0  0  0
    3.8371   64.0323   69.1291 H   0  0  0  0  0  0  0  0  0  0  0  0
    5.5376   60.0979   72.4159 H   0  0  0  0  0  0  0  0  0  0  0  0
    4.5642   60.1016   70.9063 H   0  0  0  0  0  0  0  0  0  0  0  0
    6.2241   60.7881   70.9063 H   0  0  0  0  0  0  0  0  0  0  0  0
   -2.0133   60.0916   75.0035 H   0  0  0  0  0  0  0  0  0  0  0  0
   -0.8579   57.8550   74.9055 H   0  0  0  0  0  0  0  0  0  0  0  0
   -1.7929   58.2813   73.4322 H   0  0  0  0  0  0  0  0  0  0  0  0
   -0.0023   58.4242   73.4322 H   0  0  0  0  0  0  0  0  0  0  0  0
    0.0246   59.8807   77.7156 H   0  0  0  0  0  0  0  0  0  0  0  0
   -0.8554   58.6829   76.7069 H   0  0  0  0  0  0  0  0  0  0  0  0
    0.9407   58.7102   76.7069 H   0  0  0  0  0  0  0  0  0  0  0  0
   -0.2037   61.3177   76.0019 H   0  0  0  0  0  0  0  0  0  0  0  0
    1.0066   60.2709   75.1248 H   0  0  0  0  0  0  0  0  0  0  0  0
    4.1838   61.0224   74.2670 H   0  0  0  0  0  0  0  0  0  0  0  0
    2.3369   61.2947   74.2859 H   0  0  0  0  0  0  0  0  0  0  0  0
    1.8853   59.3909   73.1879 H   0  0  0  0  0  0  0  0  0  0  0  0
    3.5430   59.2897   72.4515 H   0  0  0  0  0  0  0  0  0  0  0  0
    4.4007   58.1555   74.1980 H   0  0  0  0  0  0  0  0  0  0  0  0
    1.4558   57.7369   74.8301 H   0  0  0  0  0  0  0  0  0  0  0  0
    2.4970   56.7604   73.7286 H   0  0  0  0  0  0  0  0  0  0  0  0
    2.0410   56.3168   76.4511 H   0  0  0  0  0  0  0  0  0  0  0  0
    3.9338   56.7182   77.7083 H   0  0  0  0  0  0  0  0  0  0  0  0
    4.9453   57.0669   76.2471 H   0  0  0  0  0  0  0  0  0  0  0  0
    3.7750   54.7203   76.0470 H   0  0  0  0  0  0  0  0  0  0  0  0
  2  1  1  0
  3  2  1  0
  4  3  1  0
  5  3  1  0
  6  5  2  0
  7  6  1  0
  7  1  1  0
  8  7  1  0
  9  8  1  0
 10  9  1  0
 11 10  2  0
 11  6  1  0
 12  9  1  0
 13  1  1  0
 14 13  1  0
 15 14  2  0
 16 14  1  0
 17 16  1  0
 19 18  1  0
 19 16  1  0
 20  8  1  0
 21 20  1  0
 22 21  1  0
 23 22  1  0
 24 23  1  0
 25 24  1  0
 26 25  1  0
 27 26  2  0
 28 22  1  0
 28 26  1  0
 29 24  1  0
  1 30  1  6
  2 31  1  0
  2 32  1  0
  3 33  1  6
  4 34  1  0
  4 35  1  0
  4 36  1  0
  5 37  1  0
  7 38  1  6
  8 39  1  1
  9 40  1  1
 10 41  1  0
 11 42  1  0
 12 43  1  0
 12 44  1  0
 12 45  1  0
 16 46  1  1
 17 47  1  0
 17 48  1  0
 17 49  1  0
 18 50  1  0
 18 51  1  0
 18 52  1  0
 19 53  1  0
 19 54  1  0
 20 55  1  0
 20 56  1  0
 21 57  1  0
 21 58  1  0
 22 59  1  6
 23 60  1  0
 23 61  1  0
 24 62  1  1
 25 63  1  0
 25 64  1  0
 29 65  1  0
M  END
>  <score>  (5) 
-8.41

$$$$
=
     RDKit          3D

 65 67  0  0  0  0  0  0  0  0999 V2000
    2.1440   61.2110   72.3040 C   0  0  1  0  0  0  0  0  0  0  0  0
    1.1460   62.1550   71.6290 C   0  0  0  0  0  0  0  0  0  0  0  0
    1.2300   63.5450   72.2690 C   0  0  1  0  0  0  0  0  0  0  0  0
    0.0870   64.4230   71.7570 C   0  0  0  0  0  0  0  0  0  0  0  0
    1.2050   63.4510   73.7710 C   0  0  0  0  0  0  0  0  0  0  0  0
    1.3970   62.3070   74.4530 C   0  0  0  0  0  0  0  0  0  0  0  0
    1.7820   60.9680   73.8050 C   0  0  1  0  0  0  0  0  0  0  0  0
    0.6720   59.9380   74.1880 C   0  0  2  0  0  0  0  0  0  0  0  0
    0.5090   59.8400   75.7580 C   0  0  2  0  0  0  0  0  0  0  0  0
    0.7040   61.1620   76.4680 C   0  0  0  0  0  0  0  0  0  0  0  0
    1.1240   62.2810   75.8700 C   0  0  0  0  0  0  0  0  0  0  0  0
    1.4010   58.8200   76.4650 C   0  0  0  0  0  0  0  0  0  0  0  0
    2.2530   60.0020   71.5360 O   0  0  0  0  0  0  0  0  0  0  0  0
    3.4940   59.7320   71.0250 C   0  0  0  0  0  0  0  0  0  0  0  0
    3.9500   58.6110   70.8430 O   0  0  0  0  0  0  0  0  0  0  0  0
    4.2280   61.0280   70.7180 C   0  0  1  0  0  0  0  0  0  0  0  0
    5.6580   60.9340   71.2440 C   0  0  0  0  0  0  0  0  0  0  0  0
    3.6450   62.7280   68.9030 C   0  0  0  0  0  0  0  0  0  0  0  0
    4.1730   61.3340   69.2130 C   0  0  0  0  0  0  0  0  0  0  0  0
    0.6910   58.5500   73.5020 C   0  0  0  0  0  0  0  0  0  0  0  0
   -0.3440   57.5030   73.9390 C   0  0  0  0  0  0  0  0  0  0  0  0
    0.3160   56.2030   74.4280 C   0  0  2  0  0  0  0  0  0  0  0  0
    1.6900   55.9600   73.8110 C   0  0  0  0  0  0  0  0  0  0  0  0
    2.2450   54.6070   74.2600 C   0  0  2  0  0  0  0  0  0  0  0  0
    1.2050   53.7140   74.9180 C   0  0  0  0  0  0  0  0  0  0  0  0
   -0.1320   53.8460   74.2510 C   0  0  0  0  0  0  0  0  0  0  0  0
   -0.8230   52.8770   73.9620 O   0  0  0  0  0  0  0  0  0  0  0  0
   -0.5540   55.1170   74.0390 O   0  0  0  0  0  0  0  0  0  0  0  0
    3.2930   54.8540   75.2010 O   0  0  0  0  0  0  0  0  0  0  0  0
    3.1390   61.6796   72.3229 H   0  0  0  0  0  0  0  0  0  0  0  0
    1.3833   62.2315   70.5576 H   0  0  0  0  0  0  0  0  0  0  0  0
    0.1281   61.7580   71.7563 H   0  0  0  0  0  0  0  0  0  0  0  0
    2.1863   64.0068   71.9822 H   0  0  0  0  0  0  0  0  0  0  0  0
   -0.4623   64.8450   72.6115 H   0  0  0  0  0  0  0  0  0  0  0  0
    0.4978   65.2400   71.1456 H   0  0  0  0  0  0  0  0  0  0  0  0
   -0.5965   63.8155   71.1456 H   0  0  0  0  0  0  0  0  0  0  0  0
    1.0190   64.3710   74.3446 H   0  0  0  0  0  0  0  0  0  0  0  0
    2.7066   60.5023   74.1768 H   0  0  0  0  0  0  0  0  0  0  0  0
   -0.2341   60.3750   73.7429 H   0  0  0  0  0  0  0  0  0  0  0  0
   -0.5333   59.4972   75.8359 H   0  0  0  0  0  0  0  0  0  0  0  0
    0.4861   61.2047   77.5454 H   0  0  0  0  0  0  0  0  0  0  0  0
    1.2636   63.1949   76.4661 H   0  0  0  0  0  0  0  0  0  0  0  0
    1.2992   58.9364   77.5541 H   0  0  0  0  0  0  0  0  0  0  0  0
    1.0968   57.8035   76.1749 H   0  0  0  0  0  0  0  0  0  0  0  0
    2.4490   58.9860   76.1749 H   0  0  0  0  0  0  0  0  0  0  0  0
    3.7356   61.8693   71.2276 H   0  0  0  0  0  0  0  0  0  0  0  0
    5.6449   60.9349   72.3439 H   0  0  0  0  0  0  0  0  0  0  0  0
    6.1208   60.0035   70.8835 H   0  0  0  0  0  0  0  0  0  0  0  0
    6.2387   61.7959   70.8835 H   0  0  0  0  0  0  0  0  0  0  0  0
    3.4431   63.2612   69.8437 H   0  0  0  0  0  0  0  0  0  0  0  0
    4.3952   63.2831   68.3207 H   0  0  0  0  0  0  0  0  0  0  0  0
    2.7153   62.6468   68.3207 H   0  0  0  0  0  0  0  0  0  0  0  0
    3.5158   60.5959   68.7300 H   0  0  0  0  0  0  0  0  0  0  0  0
    5.2033   61.2825   68.8312 H   0  0  0  0  0  0  0  0  0  0  0  0
    0.5478   58.7183   72.4244 H   0  0  0  0  0  0  0  0  0  0  0  0
    1.6565   58.1153   73.8000 H   0  0  0  0  0  0  0  0  0  0  0  0
   -0.9489   57.9225   74.7564 H   0  0  0  0  0  0  0  0  0  0  0  0
   -0.9663   57.2581   73.0656 H   0  0  0  0  0  0  0  0  0  0  0  0
    0.4595   56.2749   75.5162 H   0  0  0  0  0  0  0  0  0  0  0  0
    1.6017   55.9696   72.7146 H   0  0  0  0  0  0  0  0  0  0  0  0
    2.3752   56.7542   74.1423 H   0  0  0  0  0  0  0  0  0  0  0  0
    2.5983   54.0781   73.3625 H   0  0  0  0  0  0  0  0  0  0  0  0
    1.5372   52.6676   74.8495 H   0  0  0  0  0  0  0  0  0  0  0  0
    1.0993   54.0225   75.9685 H   0  0  0  0  0  0  0  0  0  0  0  0
    2.9370   54.7701   76.1210 H   0  0  0  0  0  0  0  0  0  0  0  0
  2  1  1  0
  3  2  1  0
  4  3  1  0
  5  3  1  0
  6  5  2  0
  7  6  1  0
  7  1  1  0
  8  7  1  0
  9  8  1  0
 10  9  1  0
 11 10  2  0
 11  6  1  0
 12  9  1  0
 13  1  1  0
 14 13  1  0
 15 14  2  0
 16 14  1  0
 17 16  1  0
 19 18  1  0
 19 16  1  0
 20  8  1  0
 21 20  1  0
 22 21  1  0
 23 22  1  0
 24 23  1  0
 25 24  1  0
 26 25  1  0
 27 26  2  0
 28 22  1  0
 28 26  1  0
 29 24  1  0
  1 30  1  1
  2 31  1  0
  2 32  1  0
  3 33  1  1
  4 34  1  0
  4 35  1  0
  4 36  1  0
  5 37  1  0
  7 38  1  1
  8 39  1  6
  9 40  1  6
 10 41  1  0
 11 42  1  0
 12 43  1  0
 12 44  1  0
 12 45  1  0
 16 46  1  1
 17 47  1  0
 17 48  1  0
 17 49  1  0
 18 50  1  0
 18 51  1  0
 18 52  1  0
 19 53  1  0
 19 54  1  0
 20 55  1  0
 20 56  1  0
 21 57  1  0
 21 58  1  0
 22 59  1  1
 23 60  1  0
 23 61  1  0
 24 62  1  6
 25 63  1  0
 25 64  1  0
 29 65  1  0
M  END
>  <score>  (6) 
-8.352

$$$$
=
     RDKit          3D

 65 67  0  0  0  0  0  0  0  0999 V2000
    1.7260   62.1470   71.8090 C   0  0  1  0  0  0  0  0  0  0  0  0
    2.9890   63.0070   71.7260 C   0  0  0  0  0  0  0  0  0  0  0  0
    3.6000   62.9010   70.3250 C   0  0  1  0  0  0  0  0  0  0  0  0
    4.9740   63.5740   70.3050 C   0  0  0  0  0  0  0  0  0  0  0  0
    3.6970   61.4660   69.8850 C   0  0  0  0  0  0  0  0  0  0  0  0
    3.0570   60.4510   70.4940 C   0  0  0  0  0  0  0  0  0  0  0  0
    2.0530   60.6270   71.6440 C   0  0  1  0  0  0  0  0  0  0  0  0
    2.5960   59.8040   72.8560 C   0  0  2  0  0  0  0  0  0  0  0  0
    2.8190   58.2910   72.4580 C   0  0  2  0  0  0  0  0  0  0  0  0
    3.3070   58.1060   71.0380 C   0  0  0  0  0  0  0  0  0  0  0  0
    3.3980   59.0930   70.1410 C   0  0  0  0  0  0  0  0  0  0  0  0
    1.6170   57.3620   72.6400 C   0  0  0  0  0  0  0  0  0  0  0  0
    1.0160   62.4530   73.0190 O   0  0  0  0  0  0  0  0  0  0  0  0
    0.4820   63.7120   73.0930 C   0  0  0  0  0  0  0  0  0  0  0  0
   -0.1160   64.2750   72.1860 O   0  0  0  0  0  0  0  0  0  0  0  0
    0.7440   64.3110   74.4650 C   0  0  1  0  0  0  0  0  0  0  0  0
   -0.3450   65.3320   74.7860 C   0  0  0  0  0  0  0  0  0  0  0  0
   -0.2510   63.2860   76.5830 C   0  0  0  0  0  0  0  0  0  0  0  0
    0.8420   63.2040   75.5270 C   0  0  0  0  0  0  0  0  0  0  0  0
    1.8910   59.9640   74.2250 C   0  0  0  0  0  0  0  0  0  0  0  0
    2.7570   60.1490   75.4790 C   0  0  0  0  0  0  0  0  0  0  0  0
    2.9290   58.8390   76.2660 C   0  0  2  0  0  0  0  0  0  0  0  0
    4.1480   58.0330   75.8270 C   0  0  0  0  0  0  0  0  0  0  0  0
    4.2020   56.7000   76.5770 C   0  0  2  0  0  0  0  0  0  0  0  0
    2.9110   56.3600   77.3040 C   0  0  0  0  0  0  0  0  0  0  0  0
    1.7090   56.7810   76.5120 C   0  0  0  0  0  0  0  0  0  0  0  0
    0.7340   56.0550   76.3590 O   0  0  0  0  0  0  0  0  0  0  0  0
    1.7470   58.0440   76.0220 O   0  0  0  0  0  0  0  0  0  0  0  0
    5.2580   56.7810   77.5370 O   0  0  0  0  0  0  0  0  0  0  0  0
    1.0605   62.3898   70.9675 H   0  0  0  0  0  0  0  0  0  0  0  0
    2.7304   64.0560   71.9329 H   0  0  0  0  0  0  0  0  0  0  0  0
    3.7192   62.6512   72.4678 H   0  0  0  0  0  0  0  0  0  0  0  0
    2.9414   63.4210   69.6137 H   0  0  0  0  0  0  0  0  0  0  0  0
    5.3154   63.7412   71.3372 H   0  0  0  0  0  0  0  0  0  0  0  0
    5.6922   62.9257   69.7817 H   0  0  0  0  0  0  0  0  0  0  0  0
    4.9021   64.5389   69.7817 H   0  0  0  0  0  0  0  0  0  0  0  0
    4.3279   61.2326   69.0146 H   0  0  0  0  0  0  0  0  0  0  0  0
    1.0500   60.2078   71.4756 H   0  0  0  0  0  0  0  0  0  0  0  0
    3.5639   60.2827   73.0656 H   0  0  0  0  0  0  0  0  0  0  0  0
    3.5919   57.9994   73.1844 H   0  0  0  0  0  0  0  0  0  0  0  0
    3.6059   57.0951   70.7237 H   0  0  0  0  0  0  0  0  0  0  0  0
    3.7375   58.8674   69.1193 H   0  0  0  0  0  0  0  0  0  0  0  0
    1.4266   57.2148   73.7133 H   0  0  0  0  0  0  0  0  0  0  0  0
    0.7309   57.8123   72.1688 H   0  0  0  0  0  0  0  0  0  0  0  0
    1.8294   56.3910   72.1688 H   0  0  0  0  0  0  0  0  0  0  0  0
    1.7110   64.8353   74.4669 H   0  0  0  0  0  0  0  0  0  0  0  0
   -0.4475   65.4281   75.8770 H   0  0  0  0  0  0  0  0  0  0  0  0
   -0.0717   66.3070   74.3561 H   0  0  0  0  0  0  0  0  0  0  0  0
   -1.3003   64.9965   74.3561 H   0  0  0  0  0  0  0  0  0  0  0  0
    0.2032   63.2519   77.5843 H   0  0  0  0  0  0  0  0  0  0  0  0
   -0.8059   64.2283   76.4640 H   0  0  0  0  0  0  0  0  0  0  0  0
   -0.9403   62.4370   76.4640 H   0  0  0  0  0  0  0  0  0  0  0  0
    1.8182   63.2854   76.0275 H   0  0  0  0  0  0  0  0  0  0  0  0
    0.7223   62.2418   75.0075 H   0  0  0  0  0  0  0  0  0  0  0  0
    1.2347   60.8437   74.1512 H   0  0  0  0  0  0  0  0  0  0  0  0
    1.3906   58.9974   74.3842 H   0  0  0  0  0  0  0  0  0  0  0  0
    3.7496   60.5114   75.1735 H   0  0  0  0  0  0  0  0  0  0  0  0
    2.2505   60.8724   76.1349 H   0  0  0  0  0  0  0  0  0  0  0  0
    3.0725   59.0874   77.3279 H   0  0  0  0  0  0  0  0  0  0  0  0
    4.0845   57.8388   74.7461 H   0  0  0  0  0  0  0  0  0  0  0  0
    5.0578   58.6082   76.0539 H   0  0  0  0  0  0  0  0  0  0  0  0
    4.3664   55.9064   75.8332 H   0  0  0  0  0  0  0  0  0  0  0  0
    2.8685   55.2732   77.4683 H   0  0  0  0  0  0  0  0  0  0  0  0
    2.9008   56.9006   78.2619 H   0  0  0  0  0  0  0  0  0  0  0  0
    4.8768   56.7518   78.4502 H   0  0  0  0  0  0  0  0  0  0  0  0
  2  1  1  0
  3  2  1  0
  4  3  1  0
  5  3  1  0
  6  5  2  0
  7  6  1  0
  7  1  1  0
  8  7  1  0
  9  8  1  0
 10  9  1  0
 11 10  2  0
 11  6  1  0
 12  9  1  0
 13  1  1  0
 14 13  1  0
 15 14  2  0
 16 14  1  0
 17 16  1  0
 19 18  1  0
 19 16  1  0
 20  8  1  0
 21 20  1  0
 22 21  1  0
 23 22  1  0
 24 23  1  0
 25 24  1  0
 26 25  1  0
 27 26  2  0
 28 22  1  0
 28 26  1  0
 29 24  1  0
  1 30  1  6
  2 31  1  0
  2 32  1  0
  3 33  1  6
  4 34  1  0
  4 35  1  0
  4 36  1  0
  5 37  1  0
  7 38  1  6
  8 39  1  1
  9 40  1  1
 10 41  1  0
 11 42  1  0
 12 43  1  0
 12 44  1  0
 12 45  1  0
 16 46  1  6
 17 47  1  0
 17 48  1  0
 17 49  1  0
 18 50  1  0
 18 51  1  0
 18 52  1  0
 19 53  1  0
 19 54  1  0
 20 55  1  0
 20 56  1  0
 21 57  1  0
 21 58  1  0
 22 59  1  1
 23 60  1  0
 23 61  1  0
 24 62  1  6
 25 63  1  0
 25 64  1  0
 29 65  1  0
M  END
>  <score>  (7) 
-8.322

$$$$
=
     RDKit          3D

 65 67  0  0  0  0  0  0  0  0999 V2000
    1.2040   66.9160   65.3270 C   0  0  1  0  0  0  0  0  0  0  0  0
    0.6490   67.7690   66.4710 C   0  0  0  0  0  0  0  0  0  0  0  0
   -0.7720   68.2320   66.1340 C   0  0  1  0  0  0  0  0  0  0  0  0
   -1.2410   69.2610   67.1630 C   0  0  0  0  0  0  0  0  0  0  0  0
   -0.8410   68.7940   64.7400 C   0  0  0  0  0  0  0  0  0  0  0  0
    0.1240   68.6280   63.8170 C   0  0  0  0  0  0  0  0  0  0  0  0
    1.3690   67.7500   64.0150 C   0  0  1  0  0  0  0  0  0  0  0  0
    2.6150   68.6720   63.8230 C   0  0  2  0  0  0  0  0  0  0  0  0
    2.5800   69.3840   62.4120 C   0  0  2  0  0  0  0  0  0  0  0  0
    1.1860   69.7580   61.9590 C   0  0  0  0  0  0  0  0  0  0  0  0
    0.0670   69.3970   62.5960 C   0  0  0  0  0  0  0  0  0  0  0  0
    3.2320   68.6220   61.2570 C   0  0  0  0  0  0  0  0  0  0  0  0
    2.4130   66.2700   65.7530 O   0  0  0  0  0  0  0  0  0  0  0  0
    2.7550   65.1350   65.0690 C   0  0  0  0  0  0  0  0  0  0  0  0
    2.0360   64.5560   64.2650 O   0  0  0  0  0  0  0  0  0  0  0  0
    4.1580   64.6940   65.4540 C   0  0  1  0  0  0  0  0  0  0  0  0
    4.0750   63.4100   66.2740 C   0  0  0  0  0  0  0  0  0  0  0  0
    5.0940   63.1070   63.6850 C   0  0  0  0  0  0  0  0  0  0  0  0
    5.0360   64.5370   64.2020 C   0  0  0  0  0  0  0  0  0  0  0  0
    4.0120   68.1000   64.1680 C   0  0  0  0  0  0  0  0  0  0  0  0
    5.0780   69.0550   64.7240 C   0  0  0  0  0  0  0  0  0  0  0  0
    4.8460   69.3850   66.2080 C   0  0  2  0  0  0  0  0  0  0  0  0
    3.3930   69.7250   66.5260 C   0  0  0  0  0  0  0  0  0  0  0  0
    3.2510   70.1390   67.9910 C   0  0  2  0  0  0  0  0  0  0  0  0
    4.5810   70.4240   68.6720 C   0  0  0  0  0  0  0  0  0  0  0  0
    5.5390   71.1040   67.7410 C   0  0  0  0  0  0  0  0  0  0  0  0
    6.2080   72.0740   68.0770 O   0  0  0  0  0  0  0  0  0  0  0  0
    5.6600   70.5390   66.5150 O   0  0  0  0  0  0  0  0  0  0  0  0
    2.6030   69.0720   68.6870 O   0  0  0  0  0  0  0  0  0  0  0  0
    0.4818   66.1257   65.0744 H   0  0  0  0  0  0  0  0  0  0  0  0
    0.6287   67.1719   67.3946 H   0  0  0  0  0  0  0  0  0  0  0  0
    1.2931   68.6495   66.6117 H   0  0  0  0  0  0  0  0  0  0  0  0
   -1.4440   67.3620   66.1732 H   0  0  0  0  0  0  0  0  0  0  0  0
   -1.0640   68.8726   68.1768 H   0  0  0  0  0  0  0  0  0  0  0  0
   -0.6810   70.1978   67.0262 H   0  0  0  0  0  0  0  0  0  0  0  0
   -2.3155   69.4528   67.0262 H   0  0  0  0  0  0  0  0  0  0  0  0
   -1.7322   69.3744   64.4590 H   0  0  0  0  0  0  0  0  0  0  0  0
    1.5187   66.9539   63.2708 H   0  0  0  0  0  0  0  0  0  0  0  0
    2.4946   69.4172   64.6231 H   0  0  0  0  0  0  0  0  0  0  0  0
    3.1842   70.2796   62.6189 H   0  0  0  0  0  0  0  0  0  0  0  0
    1.0864   70.3657   61.0475 H   0  0  0  0  0  0  0  0  0  0  0  0
   -0.9101   69.6898   62.1843 H   0  0  0  0  0  0  0  0  0  0  0  0
    3.8974   67.8443   61.6601 H   0  0  0  0  0  0  0  0  0  0  0  0
    2.4513   68.1529   60.6402 H   0  0  0  0  0  0  0  0  0  0  0  0
    3.8162   69.3208   60.6402 H   0  0  0  0  0  0  0  0  0  0  0  0
    4.6360   65.4633   66.0782 H   0  0  0  0  0  0  0  0  0  0  0  0
    4.0910   63.6576   67.3456 H   0  0  0  0  0  0  0  0  0  0  0  0
    3.1408   62.8813   66.0338 H   0  0  0  0  0  0  0  0  0  0  0  0
    4.9334   62.7654   66.0338 H   0  0  0  0  0  0  0  0  0  0  0  0
    5.1223   62.4104   64.5358 H   0  0  0  0  0  0  0  0  0  0  0  0
    4.2034   62.9021   63.0727 H   0  0  0  0  0  0  0  0  0  0  0  0
    5.9982   62.9749   63.0727 H   0  0  0  0  0  0  0  0  0  0  0  0
    6.0578   64.8611   64.4489 H   0  0  0  0  0  0  0  0  0  0  0  0
    4.5870   65.1530   63.4089 H   0  0  0  0  0  0  0  0  0  0  0  0
    3.8628   67.3084   64.9171 H   0  0  0  0  0  0  0  0  0  0  0  0
    4.4184   67.7785   63.1977 H   0  0  0  0  0  0  0  0  0  0  0  0
    6.0662   68.5840   64.6163 H   0  0  0  0  0  0  0  0  0  0  0  0
    5.0181   69.9951   64.1559 H   0  0  0  0  0  0  0  0  0  0  0  0
    5.1075   68.4992   66.8054 H   0  0  0  0  0  0  0  0  0  0  0  0
    3.0654   70.5541   65.8816 H   0  0  0  0  0  0  0  0  0  0  0  0
    2.7705   68.8364   66.3443 H   0  0  0  0  0  0  0  0  0  0  0  0
    2.6721   71.0740   68.0175 H   0  0  0  0  0  0  0  0  0  0  0  0
    4.4054   71.0740   69.5419 H   0  0  0  0  0  0  0  0  0  0  0  0
    5.0225   69.4656   68.9828 H   0  0  0  0  0  0  0  0  0  0  0  0
    2.6893   69.2141   69.6629 H   0  0  0  0  0  0  0  0  0  0  0  0
  2  1  1  0
  3  2  1  0
  4  3  1  0
  5  3  1  0
  6  5  2  0
  7  6  1  0
  7  1  1  0
  8  7  1  0
  9  8  1  0
 10  9  1  0
 11 10  2  0
 11  6  1  0
 12  9  1  0
 13  1  1  0
 14 13  1  0
 15 14  2  0
 16 14  1  0
 17 16  1  0
 19 18  1  0
 19 16  1  0
 20  8  1  0
 21 20  1  0
 22 21  1  0
 23 22  1  0
 24 23  1  0
 25 24  1  0
 26 25  1  0
 27 26  2  0
 28 22  1  0
 28 26  1  0
 29 24  1  0
  1 30  1  6
  2 31  1  0
  2 32  1  0
  3 33  1  6
  4 34  1  0
  4 35  1  0
  4 36  1  0
  5 37  1  0
  7 38  1  6
  8 39  1  1
  9 40  1  1
 10 41  1  0
 11 42  1  0
 12 43  1  0
 12 44  1  0
 12 45  1  0
 16 46  1  1
 17 47  1  0
 17 48  1  0
 17 49  1  0
 18 50  1  0
 18 51  1  0
 18 52  1  0
 19 53  1  0
 19 54  1  0
 20 55  1  0
 20 56  1  0
 21 57  1  0
 21 58  1  0
 22 59  1  1
 23 60  1  0
 23 61  1  0
 24 62  1  6
 25 63  1  0
 25 64  1  0
 29 65  1  0
M  END
>  <score>  (8) 
-8.321

$$$$
=
     RDKit          3D

 65 67  0  0  0  0  0  0  0  0999 V2000
    2.3720   60.8660   72.5190 C   0  0  1  0  0  0  0  0  0  0  0  0
    1.3850   61.7550   71.7580 C   0  0  0  0  0  0  0  0  0  0  0  0
    1.4530   63.1880   72.2960 C   0  0  1  0  0  0  0  0  0  0  0  0
    0.3190   64.0220   71.6980 C   0  0  0  0  0  0  0  0  0  0  0  0
    1.3990   63.2040   73.7990 C   0  0  0  0  0  0  0  0  0  0  0  0
    1.5800   62.1140   74.5670 C   0  0  0  0  0  0  0  0  0  0  0  0
    1.9810   60.7320   74.0270 C   0  0  1  0  0  0  0  0  0  0  0  0
    0.8660   59.7290   74.4630 C   0  0  2  0  0  0  0  0  0  0  0  0
    0.6720   59.7460   76.0320 C   0  0  2  0  0  0  0  0  0  0  0  0
    0.8490   61.1170   76.6470 C   0  0  0  0  0  0  0  0  0  0  0  0
    1.2790   62.1910   75.9770 C   0  0  0  0  0  0  0  0  0  0  0  0
    1.5530   58.7830   76.8300 C   0  0  0  0  0  0  0  0  0  0  0  0
    2.4990   59.6050   71.8450 O   0  0  0  0  0  0  0  0  0  0  0  0
    3.4660   59.5420   70.8770 C   0  0  0  0  0  0  0  0  0  0  0  0
    3.7430   58.5440   70.2260 O   0  0  0  0  0  0  0  0  0  0  0  0
    4.1500   60.8920   70.7320 C   0  0  1  0  0  0  0  0  0  0  0  0
    5.5550   60.8120   71.3220 C   0  0  0  0  0  0  0  0  0  0  0  0
    3.7010   62.7790   69.0690 C   0  0  0  0  0  0  0  0  0  0  0  0
    4.1530   61.3380   69.2610 C   0  0  0  0  0  0  0  0  0  0  0  0
    0.9010   58.2950   73.8810 C   0  0  0  0  0  0  0  0  0  0  0  0
   -0.4300   57.5740   73.6260 C   0  0  0  0  0  0  0  0  0  0  0  0
   -0.2910   56.0450   73.7220 C   0  0  2  0  0  0  0  0  0  0  0  0
   -1.0090   55.4550   74.9330 C   0  0  0  0  0  0  0  0  0  0  0  0
   -0.7490   53.9510   75.0240 C   0  0  2  0  0  0  0  0  0  0  0  0
    0.3810   53.4750   74.1250 C   0  0  0  0  0  0  0  0  0  0  0  0
    1.4970   54.4750   74.0710 C   0  0  0  0  0  0  0  0  0  0  0  0
    2.6750   54.1540   74.1710 O   0  0  0  0  0  0  0  0  0  0  0  0
    1.1190   55.7580   73.8470 O   0  0  0  0  0  0  0  0  0  0  0  0
   -1.9490   53.2740   74.6430 O   0  0  0  0  0  0  0  0  0  0  0  0
    3.3654   61.3384   72.5217 H   0  0  0  0  0  0  0  0  0  0  0  0
    1.6428   61.7541   70.6886 H   0  0  0  0  0  0  0  0  0  0  0  0
    0.3658   61.3645   71.8948 H   0  0  0  0  0  0  0  0  0  0  0  0
    2.4137   63.6315   71.9953 H   0  0  0  0  0  0  0  0  0  0  0  0
   -0.2795   64.4622   72.5092 H   0  0  0  0  0  0  0  0  0  0  0  0
    0.7426   64.8254   71.0774 H   0  0  0  0  0  0  0  0  0  0  0  0
   -0.3217   63.3783   71.0774 H   0  0  0  0  0  0  0  0  0  0  0  0
    1.1999   64.1629   74.2998 H   0  0  0  0  0  0  0  0  0  0  0  0
    2.8990   60.2980   74.4500 H   0  0  0  0  0  0  0  0  0  0  0  0
   -0.0321   60.1290   73.9696 H   0  0  0  0  0  0  0  0  0  0  0  0
   -0.3709   59.4060   76.1142 H   0  0  0  0  0  0  0  0  0  0  0  0
    0.6085   61.2378   77.7136 H   0  0  0  0  0  0  0  0  0  0  0  0
    1.4052   63.1465   76.5072 H   0  0  0  0  0  0  0  0  0  0  0  0
    1.3990   58.9513   77.9061 H   0  0  0  0  0  0  0  0  0  0  0  0
    1.2841   57.7464   76.5789 H   0  0  0  0  0  0  0  0  0  0  0  0
    2.6094   58.9589   76.5789 H   0  0  0  0  0  0  0  0  0  0  0  0
    3.5931   61.6580   71.2915 H   0  0  0  0  0  0  0  0  0  0  0  0
    5.4923   60.8156   72.4202 H   0  0  0  0  0  0  0  0  0  0  0  0
    6.0417   59.8847   70.9856 H   0  0  0  0  0  0  0  0  0  0  0  0
    6.1438   61.6781   70.9856 H   0  0  0  0  0  0  0  0  0  0  0  0
    3.5530   63.2509   70.0516 H   0  0  0  0  0  0  0  0  0  0  0  0
    4.4687   63.3325   68.5084 H   0  0  0  0  0  0  0  0  0  0  0  0
    2.7547   62.7949   68.5084 H   0  0  0  0  0  0  0  0  0  0  0  0
    3.4758   60.6811   68.6954 H   0  0  0  0  0  0  0  0  0  0  0  0
    5.1905   61.2708   68.9017 H   0  0  0  0  0  0  0  0  0  0  0  0
    1.4307   58.3483   72.9184 H   0  0  0  0  0  0  0  0  0  0  0  0
    1.3839   57.6973   74.6681 H   0  0  0  0  0  0  0  0  0  0  0  0
   -1.1638   57.9105   74.3732 H   0  0  0  0  0  0  0  0  0  0  0  0
   -0.7566   57.8197   72.6047 H   0  0  0  0  0  0  0  0  0  0  0  0
   -0.7462   55.5972   72.8263 H   0  0  0  0  0  0  0  0  0  0  0  0
   -0.6396   55.9430   75.8470 H   0  0  0  0  0  0  0  0  0  0  0  0
   -2.0904   55.6251   74.8254 H   0  0  0  0  0  0  0  0  0  0  0  0
   -0.4487   53.7288   76.0586 H   0  0  0  0  0  0  0  0  0  0  0  0
    0.7718   52.5236   74.5151 H   0  0  0  0  0  0  0  0  0  0  0  0
   -0.0174   53.3463   73.1078 H   0  0  0  0  0  0  0  0  0  0  0  0
   -2.4427   52.9955   75.4547 H   0  0  0  0  0  0  0  0  0  0  0  0
  2  1  1  0
  3  2  1  0
  4  3  1  0
  5  3  1  0
  6  5  2  0
  7  6  1  0
  7  1  1  0
  8  7  1  0
  9  8  1  0
 10  9  1  0
 11 10  2  0
 11  6  1  0
 12  9  1  0
 13  1  1  0
 14 13  1  0
 15 14  2  0
 16 14  1  0
 17 16  1  0
 19 18  1  0
 19 16  1  0
 20  8  1  0
 21 20  1  0
 22 21  1  0
 23 22  1  0
 24 23  1  0
 25 24  1  0
 26 25  1  0
 27 26  2  0
 28 22  1  0
 28 26  1  0
 29 24  1  0
  1 30  1  1
  2 31  1  0
  2 32  1  0
  3 33  1  1
  4 34  1  0
  4 35  1  0
  4 36  1  0
  5 37  1  0
  7 38  1  1
  8 39  1  6
  9 40  1  6
 10 41  1  0
 11 42  1  0
 12 43  1  0
 12 44  1  0
 12 45  1  0
 16 46  1  1
 17 47  1  0
 17 48  1  0
 17 49  1  0
 18 50  1  0
 18 51  1  0
 18 52  1  0
 19 53  1  0
 19 54  1  0
 20 55  1  0
 20 56  1  0
 21 57  1  0
 21 58  1  0
 22 59  1  6
 23 60  1  0
 23 61  1  0
 24 62  1  1
 25 63  1  0
 25 64  1  0
 29 65  1  0
M  END
>  <score>  (9) 
-8.168

$$$$
