=
     RDKit          3D

 31 32  0  0  0  0  0  0  0  0999 V2000
    5.5950   69.4470   63.3530 O   0  0  0  0  0  0  0  0  0  0  0  0
    4.6580   68.9820   63.9920 C   0  0  0  0  0  0  0  0  0  0  0  0
    4.4030   69.3930   65.3980 C   0  0  0  0  0  0  0  0  0  0  0  0
    3.2000   69.1080   66.0550 C   0  0  0  0  0  0  0  0  0  0  0  0
    3.0050   69.5030   67.3850 C   0  0  0  0  0  0  0  0  0  0  0  0
    4.0080   70.1840   68.0920 C   0  0  0  0  0  0  0  0  0  0  0  0
    5.2030   70.4770   67.4110 C   0  0  0  0  0  0  0  0  0  0  0  0
    5.4110   70.0820   66.0810 C   0  0  0  0  0  0  0  0  0  0  0  0
    3.7530   70.5850   69.5180 C   0  0  0  0  0  0  0  0  0  0  0  0
    6.2850   71.2010   68.0690 N   0  0  0  0  0  4  0  0  0  0  0  0
    7.1790   70.5310   68.6030 O   0  0  0  0  0  0  0  0  0  0  0  0
    6.2220   72.4370   68.0530 O   0  0  0  0  0  1  0  0  0  0  0  0
    3.7710   67.9530   63.3330 C   0  0  0  0  0  0  0  0  0  0  0  0
    2.9900   68.3320   62.4670 O   0  0  0  0  0  0  0  0  0  0  0  0
    3.8290   66.5340   63.7720 C   0  0  0  0  0  0  0  0  0  0  0  0
    2.7840   66.0410   64.5660 C   0  0  0  0  0  0  0  0  0  0  0  0
    2.8040   64.7210   65.0170 C   0  0  0  0  0  0  0  0  0  0  0  0
    3.8650   63.8850   64.6770 C   0  0  0  0  0  0  0  0  0  0  0  0
    4.9070   64.3670   63.8860 C   0  0  0  0  0  0  0  0  0  0  0  0
    4.8920   65.6890   63.4330 C   0  0  0  0  0  0  0  0  0  0  0  0
    2.4018   68.5698   65.5229 H   0  0  0  0  0  0  0  0  0  0  0  0
    2.0508   69.2758   67.8829 H   0  0  0  0  0  0  0  0  0  0  0  0
    6.3616   70.3128   65.5779 H   0  0  0  0  0  0  0  0  0  0  0  0
    4.2188   69.8526   70.1937 H   0  0  0  0  0  0  0  0  0  0  0  0
    4.1847   71.5799   69.7019 H   0  0  0  0  0  0  0  0  0  0  0  0
    2.6689   70.6160   69.7019 H   0  0  0  0  0  0  0  0  0  0  0  0
    1.9440   66.6984   64.8348 H   0  0  0  0  0  0  0  0  0  0  0  0
    1.9820   64.3404   65.6410 H   0  0  0  0  0  0  0  0  0  0  0  0
    3.8808   62.8442   65.0327 H   0  0  0  0  0  0  0  0  0  0  0  0
    5.7434   63.7048   63.6177 H   0  0  0  0  0  0  0  0  0  0  0  0
    5.7163   66.0657   62.8095 H   0  0  0  0  0  0  0  0  0  0  0  0
  2  1  2  0
  3  2  1  0
  4  3  2  0
  5  4  1  0
  6  5  2  0
  7  6  1  0
  8  3  1  0
  8  7  2  0
  9  6  1  0
 10  7  1  0
 11 10  2  0
 12 10  1  0
 13  2  1  0
 14 13  2  0
 15 13  1  0
 16 15  2  0
 17 16  1  0
 18 17  2  0
 19 18  1  0
 20 19  2  0
 20 15  1  0
  4 21  1  0
  5 22  1  0
  8 23  1  0
  9 24  1  0
  9 25  1  0
  9 26  1  0
 16 27  1  0
 17 28  1  0
 18 29  1  0
 19 30  1  0
 20 31  1  0
M  CHG  2  10   1  12  -1
M  END
>  <score>  (1) 
-9.806

$$$$
=
     RDKit          3D

 31 32  0  0  0  0  0  0  0  0999 V2000
    5.4790   69.2400   63.4250 O   0  0  0  0  0  0  0  0  0  0  0  0
    4.4920   68.8900   64.0620 C   0  0  0  0  0  0  0  0  0  0  0  0
    4.2850   69.3260   65.4690 C   0  0  0  0  0  0  0  0  0  0  0  0
    3.1150   69.0340   66.1790 C   0  0  0  0  0  0  0  0  0  0  0  0
    2.9670   69.4540   67.5080 C   0  0  0  0  0  0  0  0  0  0  0  0
    3.9840   70.1670   68.1600 C   0  0  0  0  0  0  0  0  0  0  0  0
    5.1450   70.4660   67.4250 C   0  0  0  0  0  0  0  0  0  0  0  0
    5.3080   70.0470   66.0960 C   0  0  0  0  0  0  0  0  0  0  0  0
    3.7790   70.5940   69.5860 C   0  0  0  0  0  0  0  0  0  0  0  0
    6.2390   71.2230   68.0230 N   0  0  0  0  0  4  0  0  0  0  0  0
    7.1880   70.5810   68.4920 O   0  0  0  0  0  0  0  0  0  0  0  0
    6.1310   72.4560   68.0280 O   0  0  0  0  0  1  0  0  0  0  0  0
    3.4890   67.9760   63.3990 C   0  0  0  0  0  0  0  0  0  0  0  0
    3.8120   66.8090   63.2010 O   0  0  0  0  0  0  0  0  0  0  0  0
    2.1710   68.5100   62.9670 C   0  0  0  0  0  0  0  0  0  0  0  0
    2.0610   69.0360   61.6720 C   0  0  0  0  0  0  0  0  0  0  0  0
    0.8480   69.5660   61.2270 C   0  0  0  0  0  0  0  0  0  0  0  0
   -0.2600   69.5710   62.0720 C   0  0  0  0  0  0  0  0  0  0  0  0
   -0.1590   69.0480   63.3590 C   0  0  0  0  0  0  0  0  0  0  0  0
    1.0540   68.5170   63.8100 C   0  0  0  0  0  0  0  0  0  0  0  0
    2.3059   68.4710   65.6907 H   0  0  0  0  0  0  0  0  0  0  0  0
    2.0379   69.2206   68.0487 H   0  0  0  0  0  0  0  0  0  0  0  0
    6.2334   70.2835   65.5504 H   0  0  0  0  0  0  0  0  0  0  0  0
    4.1549   69.8109   70.2609 H   0  0  0  0  0  0  0  0  0  0  0  0
    4.3257   71.5305   69.7705 H   0  0  0  0  0  0  0  0  0  0  0  0
    2.7063   70.7531   69.7705 H   0  0  0  0  0  0  0  0  0  0  0  0
    2.9344   69.0312   61.0033 H   0  0  0  0  0  0  0  0  0  0  0  0
    0.7673   69.9790   60.2107 H   0  0  0  0  0  0  0  0  0  0  0  0
   -1.2157   69.9885   61.7222 H   0  0  0  0  0  0  0  0  0  0  0  0
   -1.0360   69.0525   64.0229 H   0  0  0  0  0  0  0  0  0  0  0  0
    1.1299   68.1050   64.8271 H   0  0  0  0  0  0  0  0  0  0  0  0
  2  1  2  0
  3  2  1  0
  4  3  2  0
  5  4  1  0
  6  5  2  0
  7  6  1  0
  8  3  1  0
  8  7  2  0
  9  6  1  0
 10  7  1  0
 11 10  2  0
 12 10  1  0
 13  2  1  0
 14 13  2  0
 15 13  1  0
 16 15  2  0
 17 16  1  0
 18 17  2  0
 19 18  1  0
 20 19  2  0
 20 15  1  0
  4 21  1  0
  5 22  1  0
  8 23  1  0
  9 24  1  0
  9 25  1  0
  9 26  1  0
 16 27  1  0
 17 28  1  0
 18 29  1  0
 19 30  1  0
 20 31  1  0
M  CHG  2  10   1  12  -1
M  END
>  <score>  (2) 
-9.773

$$$$
=
     RDKit          3D

 31 32  0  0  0  0  0  0  0  0999 V2000
    1.9280   70.0020   67.9910 O   0  0  0  0  0  0  0  0  0  0  0  0
    2.0380   69.0790   67.1920 C   0  0  0  0  0  0  0  0  0  0  0  0
    3.0120   69.1410   66.0690 C   0  0  0  0  0  0  0  0  0  0  0  0
    4.3120   69.6320   66.2320 C   0  0  0  0  0  0  0  0  0  0  0  0
    5.2010   69.6620   65.1490 C   0  0  0  0  0  0  0  0  0  0  0  0
    4.8170   69.1940   63.8840 C   0  0  0  0  0  0  0  0  0  0  0  0
    3.5010   68.7200   63.7350 C   0  0  0  0  0  0  0  0  0  0  0  0
    2.6040   68.6810   64.8120 C   0  0  0  0  0  0  0  0  0  0  0  0
    5.8070   69.2440   62.7540 C   0  0  0  0  0  0  0  0  0  0  0  0
    3.0180   68.2380   62.4460 N   0  0  0  0  0  4  0  0  0  0  0  0
    2.1860   68.9350   61.8510 O   0  0  0  0  0  0  0  0  0  0  0  0
    3.4700   67.1570   62.0470 O   0  0  0  0  0  1  0  0  0  0  0  0
    1.1420   67.8730   67.3490 C   0  0  0  0  0  0  0  0  0  0  0  0
    1.6500   66.8180   67.7110 O   0  0  0  0  0  0  0  0  0  0  0  0
   -0.3050   67.9780   67.0230 C   0  0  0  0  0  0  0  0  0  0  0  0
   -1.1930   67.0980   67.6580 C   0  0  0  0  0  0  0  0  0  0  0  0
   -2.5580   67.1470   67.3710 C   0  0  0  0  0  0  0  0  0  0  0  0
   -3.0430   68.0730   66.4500 C   0  0  0  0  0  0  0  0  0  0  0  0
   -2.1660   68.9520   65.8170 C   0  0  0  0  0  0  0  0  0  0  0  0
   -0.7980   68.9070   66.1000 C   0  0  0  0  0  0  0  0  0  0  0  0
    4.6385   69.9970   67.2170 H   0  0  0  0  0  0  0  0  0  0  0  0
    6.2166   70.0591   65.2936 H   0  0  0  0  0  0  0  0  0  0  0  0
    1.5854   68.2910   64.6696 H   0  0  0  0  0  0  0  0  0  0  0  0
    6.8271   69.2955   63.1623 H   0  0  0  0  0  0  0  0  0  0  0  0
    5.7045   68.3395   62.1364 H   0  0  0  0  0  0  0  0  0  0  0  0
    5.6139   70.1335   62.1364 H   0  0  0  0  0  0  0  0  0  0  0  0
   -0.8122   66.3660   68.3854 H   0  0  0  0  0  0  0  0  0  0  0  0
   -3.2507   66.4547   67.8719 H   0  0  0  0  0  0  0  0  0  0  0  0
   -4.1185   68.1104   66.2223 H   0  0  0  0  0  0  0  0  0  0  0  0
   -2.5519   69.6838   65.0921 H   0  0  0  0  0  0  0  0  0  0  0  0
   -0.1091   69.6017   65.5973 H   0  0  0  0  0  0  0  0  0  0  0  0
  2  1  2  0
  3  2  1  0
  4  3  2  0
  5  4  1  0
  6  5  2  0
  7  6  1  0
  8  3  1  0
  8  7  2  0
  9  6  1  0
 10  7  1  0
 11 10  2  0
 12 10  1  0
 13  2  1  0
 14 13  2  0
 15 13  1  0
 16 15  2  0
 17 16  1  0
 18 17  2  0
 19 18  1  0
 20 19  2  0
 20 15  1  0
  4 21  1  0
  5 22  1  0
  8 23  1  0
  9 24  1  0
  9 25  1  0
  9 26  1  0
 16 27  1  0
 17 28  1  0
 18 29  1  0
 19 30  1  0
 20 31  1  0
M  CHG  2  10   1  12  -1
M  END
>  <score>  (3) 
-9.592

$$$$
=
     RDKit          3D

 31 32  0  0  0  0  0  0  0  0999 V2000
    5.2990   69.4710   63.0840 O   0  0  0  0  0  0  0  0  0  0  0  0
    4.5020   68.9840   63.8790 C   0  0  0  0  0  0  0  0  0  0  0  0
    4.4840   69.3980   65.3070 C   0  0  0  0  0  0  0  0  0  0  0  0
    5.6090   69.9330   65.9460 C   0  0  0  0  0  0  0  0  0  0  0  0
    5.5450   70.3220   67.2900 C   0  0  0  0  0  0  0  0  0  0  0  0
    4.3570   70.1920   68.0260 C   0  0  0  0  0  0  0  0  0  0  0  0
    3.2430   69.6360   67.3730 C   0  0  0  0  0  0  0  0  0  0  0  0
    3.2930   69.2480   66.0260 C   0  0  0  0  0  0  0  0  0  0  0  0
    4.3380   70.6240   69.4650 C   0  0  0  0  0  0  0  0  0  0  0  0
    1.9780   69.4470   68.0740 N   0  0  0  0  0  4  0  0  0  0  0  0
    1.7730   68.3430   68.5950 O   0  0  0  0  0  0  0  0  0  0  0  0
    1.1950   70.4060   68.0870 O   0  0  0  0  0  1  0  0  0  0  0  0
    3.5450   67.9240   63.3870 C   0  0  0  0  0  0  0  0  0  0  0  0
    2.6100   68.2750   62.6740 O   0  0  0  0  0  0  0  0  0  0  0  0
    3.7250   66.5100   63.8070 C   0  0  0  0  0  0  0  0  0  0  0  0
    2.8580   65.9910   64.7800 C   0  0  0  0  0  0  0  0  0  0  0  0
    3.0000   64.6730   65.2180 C   0  0  0  0  0  0  0  0  0  0  0  0
    4.0060   63.8680   64.6880 C   0  0  0  0  0  0  0  0  0  0  0  0
    4.8690   64.3760   63.7200 C   0  0  0  0  0  0  0  0  0  0  0  0
    4.7320   65.6950   63.2770 C   0  0  0  0  0  0  0  0  0  0  0  0
    6.5501   70.0487   65.3884 H   0  0  0  0  0  0  0  0  0  0  0  0
    6.4404   70.7361   67.7766 H   0  0  0  0  0  0  0  0  0  0  0  0
    2.4011   68.8283   65.5377 H   0  0  0  0  0  0  0  0  0  0  0  0
    4.3770   69.7372   70.1146 H   0  0  0  0  0  0  0  0  0  0  0  0
    5.2088   71.2650   69.6669 H   0  0  0  0  0  0  0  0  0  0  0  0
    3.4143   71.1861   69.6669 H   0  0  0  0  0  0  0  0  0  0  0  0
    2.0630   66.6250   65.1996 H   0  0  0  0  0  0  0  0  0  0  0  0
    2.3179   64.2703   65.9812 H   0  0  0  0  0  0  0  0  0  0  0  0
    4.1188   62.8301   65.0344 H   0  0  0  0  0  0  0  0  0  0  0  0
    5.6612   63.7372   63.3025 H   0  0  0  0  0  0  0  0  0  0  0  0
    5.4155   66.0922   62.5121 H   0  0  0  0  0  0  0  0  0  0  0  0
  2  1  2  0
  3  2  1  0
  4  3  2  0
  5  4  1  0
  6  5  2  0
  7  6  1  0
  8  3  1  0
  8  7  2  0
  9  6  1  0
 10  7  1  0
 11 10  2  0
 12 10  1  0
 13  2  1  0
 14 13  2  0
 15 13  1  0
 16 15  2  0
 17 16  1  0
 18 17  2  0
 19 18  1  0
 20 19  2  0
 20 15  1  0
  4 21  1  0
  5 22  1  0
  8 23  1  0
  9 24  1  0
  9 25  1  0
  9 26  1  0
 16 27  1  0
 17 28  1  0
 18 29  1  0
 19 30  1  0
 20 31  1  0
M  CHG  2  10   1  12  -1
M  END
>  <score>  (4) 
-9.582

$$$$
=
     RDKit          3D

 31 32  0  0  0  0  0  0  0  0999 V2000
    1.4550   67.0250   66.9970 O   0  0  0  0  0  0  0  0  0  0  0  0
    1.7800   68.1080   66.5230 C   0  0  0  0  0  0  0  0  0  0  0  0
    2.0720   68.2610   65.0720 C   0  0  0  0  0  0  0  0  0  0  0  0
    1.1940   68.9110   64.1970 C   0  0  0  0  0  0  0  0  0  0  0  0
    1.5130   69.0430   62.8390 C   0  0  0  0  0  0  0  0  0  0  0  0
    2.7170   68.5380   62.3260 C   0  0  0  0  0  0  0  0  0  0  0  0
    3.5780   67.8730   63.2170 C   0  0  0  0  0  0  0  0  0  0  0  0
    3.2720   67.7380   64.5790 C   0  0  0  0  0  0  0  0  0  0  0  0
    3.0160   68.7070   60.8620 C   0  0  0  0  0  0  0  0  0  0  0  0
    4.8380   67.3000   62.7570 N   0  0  0  0  0  4  0  0  0  0  0  0
    4.8860   66.0730   62.6030 O   0  0  0  0  0  0  0  0  0  0  0  0
    5.7740   68.0870   62.5630 O   0  0  0  0  0  1  0  0  0  0  0  0
    1.9090   69.2950   67.4480 C   0  0  0  0  0  0  0  0  0  0  0  0
    0.8810   69.8330   67.8450 O   0  0  0  0  0  0  0  0  0  0  0  0
    3.2560   69.8050   67.8160 C   0  0  0  0  0  0  0  0  0  0  0  0
    3.4330   70.3470   69.0970 C   0  0  0  0  0  0  0  0  0  0  0  0
    4.6750   70.8550   69.4820 C   0  0  0  0  0  0  0  0  0  0  0  0
    5.7460   70.8230   68.5910 C   0  0  0  0  0  0  0  0  0  0  0  0
    5.5780   70.2840   67.3170 C   0  0  0  0  0  0  0  0  0  0  0  0
    4.3360   69.7750   66.9260 C   0  0  0  0  0  0  0  0  0  0  0  0
    0.2471   69.3210   64.5780 H   0  0  0  0  0  0  0  0  0  0  0  0
    0.8080   69.5508   62.1644 H   0  0  0  0  0  0  0  0  0  0  0  0
    3.9711   67.2242   65.2552 H   0  0  0  0  0  0  0  0  0  0  0  0
    3.9679   69.2450   60.7419 H   0  0  0  0  0  0  0  0  0  0  0  0
    3.0914   67.7179   60.3866 H   0  0  0  0  0  0  0  0  0  0  0  0
    2.2075   69.2817   60.3866 H   0  0  0  0  0  0  0  0  0  0  0  0
    2.5890   70.3720   69.8021 H   0  0  0  0  0  0  0  0  0  0  0  0
    4.8081   71.2801   70.4877 H   0  0  0  0  0  0  0  0  0  0  0  0
    6.7248   71.2235   68.8936 H   0  0  0  0  0  0  0  0  0  0  0  0
    6.4257   70.2589   66.6164 H   0  0  0  0  0  0  0  0  0  0  0  0
    4.2075   69.3510   65.9192 H   0  0  0  0  0  0  0  0  0  0  0  0
  2  1  2  0
  3  2  1  0
  4  3  2  0
  5  4  1  0
  6  5  2  0
  7  6  1  0
  8  3  1  0
  8  7  2  0
  9  6  1  0
 10  7  1  0
 11 10  2  0
 12 10  1  0
 13  2  1  0
 14 13  2  0
 15 13  1  0
 16 15  2  0
 17 16  1  0
 18 17  2  0
 19 18  1  0
 20 19  2  0
 20 15  1  0
  4 21  1  0
  5 22  1  0
  8 23  1  0
  9 24  1  0
  9 25  1  0
  9 26  1  0
 16 27  1  0
 17 28  1  0
 18 29  1  0
 19 30  1  0
 20 31  1  0
M  CHG  2  10   1  12  -1
M  END
>  <score>  (5) 
-9.542

$$$$
=
     RDKit          3D

 31 32  0  0  0  0  0  0  0  0999 V2000
    5.4700   69.3710   63.1980 O   0  0  0  0  0  0  0  0  0  0  0  0
    4.5770   68.9900   63.9470 C   0  0  0  0  0  0  0  0  0  0  0  0
    4.5290   69.4160   65.3710 C   0  0  0  0  0  0  0  0  0  0  0  0
    5.6270   69.9950   66.0170 C   0  0  0  0  0  0  0  0  0  0  0  0
    5.5350   70.3930   67.3580 C   0  0  0  0  0  0  0  0  0  0  0  0
    4.3440   70.2310   68.0810 C   0  0  0  0  0  0  0  0  0  0  0  0
    3.2570   69.6310   67.4210 C   0  0  0  0  0  0  0  0  0  0  0  0
    3.3350   69.2330   66.0780 C   0  0  0  0  0  0  0  0  0  0  0  0
    4.2940   70.6750   69.5160 C   0  0  0  0  0  0  0  0  0  0  0  0
    1.9910   69.4060   68.1100 N   0  0  0  0  0  4  0  0  0  0  0  0
    1.1210   70.2810   68.0080 O   0  0  0  0  0  0  0  0  0  0  0  0
    1.8840   68.3560   68.7570 O   0  0  0  0  0  1  0  0  0  0  0  0
    3.5280   68.0490   63.4040 C   0  0  0  0  0  0  0  0  0  0  0  0
    3.8100   66.8600   63.3120 O   0  0  0  0  0  0  0  0  0  0  0  0
    2.2140   68.5820   62.9570 C   0  0  0  0  0  0  0  0  0  0  0  0
    1.1530   68.5860   63.8740 C   0  0  0  0  0  0  0  0  0  0  0  0
   -0.1040   69.0600   63.4940 C   0  0  0  0  0  0  0  0  0  0  0  0
   -0.3070   69.5330   62.2000 C   0  0  0  0  0  0  0  0  0  0  0  0
    0.7430   69.5340   61.2840 C   0  0  0  0  0  0  0  0  0  0  0  0
    2.0040   69.0590   61.6580 C   0  0  0  0  0  0  0  0  0  0  0  0
    6.5695   70.1389   65.4684 H   0  0  0  0  0  0  0  0  0  0  0  0
    6.4110   70.8396   67.8512 H   0  0  0  0  0  0  0  0  0  0  0  0
    2.4631   68.7799   65.5836 H   0  0  0  0  0  0  0  0  0  0  0  0
    4.3926   69.7993   70.1744 H   0  0  0  0  0  0  0  0  0  0  0  0
    5.1189   71.3758   69.7119 H   0  0  0  0  0  0  0  0  0  0  0  0
    3.3339   71.1748   69.7119 H   0  0  0  0  0  0  0  0  0  0  0  0
    1.3118   68.2141   64.8970 H   0  0  0  0  0  0  0  0  0  0  0  0
   -0.9336   69.0599   64.2163 H   0  0  0  0  0  0  0  0  0  0  0  0
   -1.2975   69.9063   61.9006 H   0  0  0  0  0  0  0  0  0  0  0  0
    0.5795   69.9097   60.2632 H   0  0  0  0  0  0  0  0  0  0  0  0
    2.8302   69.0602   60.9318 H   0  0  0  0  0  0  0  0  0  0  0  0
  2  1  2  0
  3  2  1  0
  4  3  2  0
  5  4  1  0
  6  5  2  0
  7  6  1  0
  8  3  1  0
  8  7  2  0
  9  6  1  0
 10  7  1  0
 11 10  2  0
 12 10  1  0
 13  2  1  0
 14 13  2  0
 15 13  1  0
 16 15  2  0
 17 16  1  0
 18 17  2  0
 19 18  1  0
 20 19  2  0
 20 15  1  0
  4 21  1  0
  5 22  1  0
  8 23  1  0
  9 24  1  0
  9 25  1  0
  9 26  1  0
 16 27  1  0
 17 28  1  0
 18 29  1  0
 19 30  1  0
 20 31  1  0
M  CHG  2  10   1  12  -1
M  END
>  <score>  (6) 
-9.458

$$$$
=
     RDKit          3D

 31 32  0  0  0  0  0  0  0  0999 V2000
    0.5750   68.6290   67.0550 O   0  0  0  0  0  0  0  0  0  0  0  0
    1.4970   68.4620   66.2640 C   0  0  0  0  0  0  0  0  0  0  0  0
    2.8450   69.0360   66.5170 C   0  0  0  0  0  0  0  0  0  0  0  0
    3.8420   69.0670   65.5350 C   0  0  0  0  0  0  0  0  0  0  0  0
    5.0950   69.6280   65.8120 C   0  0  0  0  0  0  0  0  0  0  0  0
    5.3800   70.1780   67.0710 C   0  0  0  0  0  0  0  0  0  0  0  0
    4.3730   70.1220   68.0500 C   0  0  0  0  0  0  0  0  0  0  0  0
    3.1120   69.5670   67.7840 C   0  0  0  0  0  0  0  0  0  0  0  0
    6.7390   70.7700   67.3200 C   0  0  0  0  0  0  0  0  0  0  0  0
    4.5980   70.6510   69.3910 N   0  0  0  0  0  4  0  0  0  0  0  0
    5.7210   70.4920   69.8870 O   0  0  0  0  0  0  0  0  0  0  0  0
    3.6410   71.2130   69.9400 O   0  0  0  0  0  1  0  0  0  0  0  0
    1.2340   67.6790   65.0000 C   0  0  0  0  0  0  0  0  0  0  0  0
    1.2130   66.4550   65.0710 O   0  0  0  0  0  0  0  0  0  0  0  0
    1.0540   68.3940   63.7090 C   0  0  0  0  0  0  0  0  0  0  0  0
   -0.1630   69.0500   63.4770 C   0  0  0  0  0  0  0  0  0  0  0  0
   -0.3840   69.7190   62.2720 C   0  0  0  0  0  0  0  0  0  0  0  0
    0.6080   69.7380   61.2940 C   0  0  0  0  0  0  0  0  0  0  0  0
    1.8220   69.0900   61.5190 C   0  0  0  0  0  0  0  0  0  0  0  0
    2.0480   68.4180   62.7230 C   0  0  0  0  0  0  0  0  0  0  0  0
    3.6399   68.6476   64.5384 H   0  0  0  0  0  0  0  0  0  0  0  0
    5.8683   69.6376   65.0298 H   0  0  0  0  0  0  0  0  0  0  0  0
    2.3386   69.5494   68.5660 H   0  0  0  0  0  0  0  0  0  0  0  0
    6.9130   70.8458   68.4035 H   0  0  0  0  0  0  0  0  0  0  0  0
    7.5080   70.1253   66.8694 H   0  0  0  0  0  0  0  0  0  0  0  0
    6.7906   71.7721   66.8694 H   0  0  0  0  0  0  0  0  0  0  0  0
   -0.9474   69.0375   64.2481 H   0  0  0  0  0  0  0  0  0  0  0  0
   -1.3412   70.2311   62.0946 H   0  0  0  0  0  0  0  0  0  0  0  0
    0.4335   70.2644   60.3440 H   0  0  0  0  0  0  0  0  0  0  0  0
    2.6044   69.1079   60.7460 H   0  0  0  0  0  0  0  0  0  0  0  0
    3.0069   67.9077   62.8963 H   0  0  0  0  0  0  0  0  0  0  0  0
  2  1  2  0
  3  2  1  0
  4  3  2  0
  5  4  1  0
  6  5  2  0
  7  6  1  0
  8  3  1  0
  8  7  2  0
  9  6  1  0
 10  7  1  0
 11 10  2  0
 12 10  1  0
 13  2  1  0
 14 13  2  0
 15 13  1  0
 16 15  2  0
 17 16  1  0
 18 17  2  0
 19 18  1  0
 20 19  2  0
 20 15  1  0
  4 21  1  0
  5 22  1  0
  8 23  1  0
  9 24  1  0
  9 25  1  0
  9 26  1  0
 16 27  1  0
 17 28  1  0
 18 29  1  0
 19 30  1  0
 20 31  1  0
M  CHG  2  10   1  12  -1
M  END
>  <score>  (7) 
-9.437

$$$$
=
     RDKit          3D

 31 32  0  0  0  0  0  0  0  0999 V2000
   -0.1460   68.9320   67.1610 O   0  0  0  0  0  0  0  0  0  0  0  0
    0.9460   68.6720   66.6680 C   0  0  0  0  0  0  0  0  0  0  0  0
    2.2000   69.2530   67.2170 C   0  0  0  0  0  0  0  0  0  0  0  0
    2.2980   69.7160   68.5340 C   0  0  0  0  0  0  0  0  0  0  0  0
    3.5030   70.2450   69.0140 C   0  0  0  0  0  0  0  0  0  0  0  0
    4.6390   70.3170   68.1950 C   0  0  0  0  0  0  0  0  0  0  0  0
    4.5180   69.8630   66.8700 C   0  0  0  0  0  0  0  0  0  0  0  0
    3.3190   69.3270   66.3790 C   0  0  0  0  0  0  0  0  0  0  0  0
    5.9100   70.8910   68.7560 C   0  0  0  0  0  0  0  0  0  0  0  0
    5.6470   69.9250   65.9480 N   0  0  0  0  0  4  0  0  0  0  0  0
    5.9420   68.8900   65.3350 O   0  0  0  0  0  0  0  0  0  0  0  0
    6.2360   71.0100   65.8550 O   0  0  0  0  0  1  0  0  0  0  0  0
    0.9980   67.7630   65.4630 C   0  0  0  0  0  0  0  0  0  0  0  0
    1.0630   66.5530   65.6530 O   0  0  0  0  0  0  0  0  0  0  0  0
    1.0170   68.3460   64.0950 C   0  0  0  0  0  0  0  0  0  0  0  0
   -0.1230   69.0270   63.6480 C   0  0  0  0  0  0  0  0  0  0  0  0
   -0.1590   69.5750   62.3650 C   0  0  0  0  0  0  0  0  0  0  0  0
    0.9440   69.4470   61.5230 C   0  0  0  0  0  0  0  0  0  0  0  0
    2.0820   68.7730   61.9610 C   0  0  0  0  0  0  0  0  0  0  0  0
    2.1220   68.2210   63.2450 C   0  0  0  0  0  0  0  0  0  0  0  0
    1.4221   69.6641   69.1974 H   0  0  0  0  0  0  0  0  0  0  0  0
    3.5590   70.6099   70.0502 H   0  0  0  0  0  0  0  0  0  0  0  0
    3.2580   68.9668   65.3415 H   0  0  0  0  0  0  0  0  0  0  0  0
    5.8673   70.8717   69.8550 H   0  0  0  0  0  0  0  0  0  0  0  0
    6.7661   70.2921   68.4118 H   0  0  0  0  0  0  0  0  0  0  0  0
    6.0267   71.9292   68.4118 H   0  0  0  0  0  0  0  0  0  0  0  0
   -0.9941   69.1302   64.3117 H   0  0  0  0  0  0  0  0  0  0  0  0
   -1.0571   70.1074   62.0187 H   0  0  0  0  0  0  0  0  0  0  0  0
    0.9162   69.8785   60.5116 H   0  0  0  0  0  0  0  0  0  0  0  0
    2.9517   68.6748   61.2946 H   0  0  0  0  0  0  0  0  0  0  0  0
    3.0217   67.6886   63.5871 H   0  0  0  0  0  0  0  0  0  0  0  0
  2  1  2  0
  3  2  1  0
  4  3  2  0
  5  4  1  0
  6  5  2  0
  7  6  1  0
  8  3  1  0
  8  7  2  0
  9  6  1  0
 10  7  1  0
 11 10  2  0
 12 10  1  0
 13  2  1  0
 14 13  2  0
 15 13  1  0
 16 15  2  0
 17 16  1  0
 18 17  2  0
 19 18  1  0
 20 19  2  0
 20 15  1  0
  4 21  1  0
  5 22  1  0
  8 23  1  0
  9 24  1  0
  9 25  1  0
  9 26  1  0
 16 27  1  0
 17 28  1  0
 18 29  1  0
 19 30  1  0
 20 31  1  0
M  CHG  2  10   1  12  -1
M  END
>  <score>  (8) 
-9.284

$$$$
=
     RDKit          3D

 31 32  0  0  0  0  0  0  0  0999 V2000
    1.6250   67.2670   67.1330 O   0  0  0  0  0  0  0  0  0  0  0  0
    2.0430   68.3160   66.6550 C   0  0  0  0  0  0  0  0  0  0  0  0
    2.3640   68.4330   65.2080 C   0  0  0  0  0  0  0  0  0  0  0  0
    3.6700   68.3110   64.7180 C   0  0  0  0  0  0  0  0  0  0  0  0
    3.9260   68.4150   63.3450 C   0  0  0  0  0  0  0  0  0  0  0  0
    2.8870   68.6360   62.4290 C   0  0  0  0  0  0  0  0  0  0  0  0
    1.5850   68.7740   62.9410 C   0  0  0  0  0  0  0  0  0  0  0  0
    1.3140   68.6660   64.3130 C   0  0  0  0  0  0  0  0  0  0  0  0
    3.2120   68.7390   60.9650 C   0  0  0  0  0  0  0  0  0  0  0  0
    0.4530   69.0270   62.0560 N   0  0  0  0  0  4  0  0  0  0  0  0
    0.5760   69.9250   61.2130 O   0  0  0  0  0  0  0  0  0  0  0  0
   -0.5560   68.3290   62.2230 O   0  0  0  0  0  1  0  0  0  0  0  0
    2.2570   69.4960   67.5740 C   0  0  0  0  0  0  0  0  0  0  0  0
    1.2690   70.1080   67.9670 O   0  0  0  0  0  0  0  0  0  0  0  0
    3.6360   69.9110   67.9400 C   0  0  0  0  0  0  0  0  0  0  0  0
    3.8710   70.3560   69.2490 C   0  0  0  0  0  0  0  0  0  0  0  0
    5.1460   70.7730   69.6330 C   0  0  0  0  0  0  0  0  0  0  0  0
    6.1930   70.7470   68.7140 C   0  0  0  0  0  0  0  0  0  0  0  0
    5.9680   70.3050   67.4120 C   0  0  0  0  0  0  0  0  0  0  0  0
    4.6920   69.8870   67.0210 C   0  0  0  0  0  0  0  0  0  0  0  0
    4.5008   68.1322   65.4164 H   0  0  0  0  0  0  0  0  0  0  0  0
    4.9591   68.3218   62.9789 H   0  0  0  0  0  0  0  0  0  0  0  0
    0.2827   68.7638   64.6829 H   0  0  0  0  0  0  0  0  0  0  0  0
    4.2541   69.0693   60.8431 H   0  0  0  0  0  0  0  0  0  0  0  0
    3.0812   67.7554   60.4903 H   0  0  0  0  0  0  0  0  0  0  0  0
    2.5385   69.4677   60.4903 H   0  0  0  0  0  0  0  0  0  0  0  0
    3.0462   70.3764   69.9765 H   0  0  0  0  0  0  0  0  0  0  0  0
    5.3245   71.1221   70.6608 H   0  0  0  0  0  0  0  0  0  0  0  0
    7.1981   71.0757   69.0167 H   0  0  0  0  0  0  0  0  0  0  0  0
    6.7969   70.2847   66.6891 H   0  0  0  0  0  0  0  0  0  0  0  0
    4.5181   69.5395   65.9919 H   0  0  0  0  0  0  0  0  0  0  0  0
  2  1  2  0
  3  2  1  0
  4  3  2  0
  5  4  1  0
  6  5  2  0
  7  6  1  0
  8  3  1  0
  8  7  2  0
  9  6  1  0
 10  7  1  0
 11 10  2  0
 12 10  1  0
 13  2  1  0
 14 13  2  0
 15 13  1  0
 16 15  2  0
 17 16  1  0
 18 17  2  0
 19 18  1  0
 20 19  2  0
 20 15  1  0
  4 21  1  0
  5 22  1  0
  8 23  1  0
  9 24  1  0
  9 25  1  0
  9 26  1  0
 16 27  1  0
 17 28  1  0
 18 29  1  0
 19 30  1  0
 20 31  1  0
M  CHG  2  10   1  12  -1
M  END
>  <score>  (9) 
-9.187

$$$$
