=
     RDKit          3D

 41 42  0  0  0  0  0  0  0  0999 V2000
    1.3140   68.1760   67.0350 N   0  0  0  0  0  0  0  0  0  0  0  0
    1.0740   67.7720   65.7160 C   0  0  0  0  0  0  0  0  0  0  0  0
    0.8690   66.5800   65.4650 O   0  0  0  0  0  0  0  0  0  0  0  0
   -0.0300   67.0190   68.7570 C   0  0  0  0  0  0  0  0  0  0  0  0
    1.3250   67.1460   68.0770 C   0  0  0  0  0  0  0  0  0  0  0  0
    1.0670   68.8410   64.6060 C   0  0  1  0  0  0  0  0  0  0  0  0
    2.2550   68.7850   63.6450 C   0  0  0  0  0  0  0  0  0  0  0  0
    3.5620   68.8210   64.1670 C   0  0  0  0  0  0  0  0  0  0  0  0
    4.6730   68.7960   63.3210 C   0  0  0  0  0  0  0  0  0  0  0  0
    4.5000   68.7390   61.9420 C   0  0  0  0  0  0  0  0  0  0  0  0
    3.2150   68.7040   61.4080 C   0  0  0  0  0  0  0  0  0  0  0  0
    2.1020   68.7290   62.2510 C   0  0  0  0  0  0  0  0  0  0  0  0
   -0.2890   68.8730   63.8790 C   0  0  0  0  0  0  0  0  0  0  0  0
   -1.4180   68.7550   64.7350 O   0  0  0  0  0  0  0  0  0  0  0  0
    1.5180   69.5540   67.4780 C   0  0  0  0  0  0  0  0  0  0  0  0
    2.9420   69.8980   67.8540 C   0  0  0  0  0  0  0  0  0  0  0  0
    3.1970   70.4110   69.1310 C   0  0  0  0  0  0  0  0  0  0  0  0
    4.4980   70.7380   69.4790 C   0  0  0  0  0  0  0  0  0  0  0  0
    5.5530   70.5910   68.6530 N   0  0  0  0  0  0  0  0  0  0  0  0
    5.2960   70.0880   67.4270 C   0  0  0  0  0  0  0  0  0  0  0  0
    4.0300   69.7300   66.9890 C   0  0  0  0  0  0  0  0  0  0  0  0
    0.1050   67.0316   69.8486 H   0  0  0  0  0  0  0  0  0  0  0  0
   -0.6711   67.8610   68.4570 H   0  0  0  0  0  0  0  0  0  0  0  0
   -0.5035   66.0725   68.4570 H   0  0  0  0  0  0  0  0  0  0  0  0
    2.0795   67.4111   68.8323 H   0  0  0  0  0  0  0  0  0  0  0  0
    1.5628   66.1819   67.6037 H   0  0  0  0  0  0  0  0  0  0  0  0
    1.2021   69.8030   65.1221 H   0  0  0  0  0  0  0  0  0  0  0  0
    3.7102   68.8695   65.2559 H   0  0  0  0  0  0  0  0  0  0  0  0
    5.6872   68.8214   63.7462 H   0  0  0  0  0  0  0  0  0  0  0  0
    5.3753   68.7216   61.2760 H   0  0  0  0  0  0  0  0  0  0  0  0
    3.0757   68.6565   60.3179 H   0  0  0  0  0  0  0  0  0  0  0  0
    1.0917   68.7045   61.8166 H   0  0  0  0  0  0  0  0  0  0  0  0
   -0.3664   69.8273   63.3373 H   0  0  0  0  0  0  0  0  0  0  0  0
   -0.3081   67.9983   63.2123 H   0  0  0  0  0  0  0  0  0  0  0  0
   -1.1211   68.7860   65.6789 H   0  0  0  0  0  0  0  0  0  0  0  0
    1.2085   70.2244   66.6627 H   0  0  0  0  0  0  0  0  0  0  0  0
    0.9195   69.6757   68.3929 H   0  0  0  0  0  0  0  0  0  0  0  0
    2.3757   70.5528   69.8489 H   0  0  0  0  0  0  0  0  0  0  0  0
    4.6800   71.1403   70.4865 H   0  0  0  0  0  0  0  0  0  0  0  0
    6.1404   69.9543   66.7348 H   0  0  0  0  0  0  0  0  0  0  0  0
    3.8829   69.3208   65.9786 H   0  0  0  0  0  0  0  0  0  0  0  0
  2  1  1  0
  3  2  2  0
  5  4  1  0
  5  1  1  0
  6  2  1  0
  7  6  1  0
  8  7  2  0
  9  8  1  0
 10  9  2  0
 11 10  1  0
 12 11  2  0
 12  7  1  0
 13  6  1  0
 14 13  1  0
 15  1  1  0
 16 15  1  0
 17 16  2  0
 18 17  1  0
 19 18  2  0
 20 19  1  0
 21 20  2  0
 21 16  1  0
  4 22  1  0
  4 23  1  0
  4 24  1  0
  5 25  1  0
  5 26  1  0
  6 27  1  1
  8 28  1  0
  9 29  1  0
 10 30  1  0
 11 31  1  0
 12 32  1  0
 13 33  1  0
 13 34  1  0
 14 35  1  0
 15 36  1  0
 15 37  1  0
 17 38  1  0
 18 39  1  0
 20 40  1  0
 21 41  1  0
M  END
>  <score>  (1) 
-8.759

$$$$
=
     RDKit          3D

 41 42  0  0  0  0  0  0  0  0999 V2000
    1.0350   68.1120   67.5030 N   0  0  0  0  0  0  0  0  0  0  0  0
    0.3150   67.7480   66.3600 C   0  0  0  0  0  0  0  0  0  0  0  0
    0.0730   66.5580   66.1370 O   0  0  0  0  0  0  0  0  0  0  0  0
    0.4930   66.7800   69.5140 C   0  0  0  0  0  0  0  0  0  0  0  0
    1.4910   67.0430   68.3960 C   0  0  0  0  0  0  0  0  0  0  0  0
   -0.1650   68.8580   65.4050 C   0  0  1  0  0  0  0  0  0  0  0  0
    0.5740   68.9280   64.0680 C   0  0  0  0  0  0  0  0  0  0  0  0
   -0.1140   69.3810   62.9270 C   0  0  0  0  0  0  0  0  0  0  0  0
    0.5190   69.4360   61.6830 C   0  0  0  0  0  0  0  0  0  0  0  0
    1.8460   69.0380   61.5560 C   0  0  0  0  0  0  0  0  0  0  0  0
    2.5410   68.5850   62.6740 C   0  0  0  0  0  0  0  0  0  0  0  0
    1.9110   68.5290   63.9180 C   0  0  0  0  0  0  0  0  0  0  0  0
   -1.6940   68.8230   65.2410 C   0  0  0  0  0  0  0  0  0  0  0  0
   -2.4050   69.6370   66.1640 O   0  0  0  0  0  0  0  0  0  0  0  0
    1.3440   69.4810   67.9140 C   0  0  0  0  0  0  0  0  0  0  0  0
    2.8180   69.8170   67.9500 C   0  0  0  0  0  0  0  0  0  0  0  0
    3.5960   69.5560   66.8160 C   0  0  0  0  0  0  0  0  0  0  0  0
    4.9500   69.8530   66.8450 C   0  0  0  0  0  0  0  0  0  0  0  0
    5.5770   70.3850   67.9130 N   0  0  0  0  0  0  0  0  0  0  0  0
    4.8150   70.6390   68.9970 C   0  0  0  0  0  0  0  0  0  0  0  0
    3.4540   70.3790   69.0630 C   0  0  0  0  0  0  0  0  0  0  0  0
    0.9894   66.9108   70.4869 H   0  0  0  0  0  0  0  0  0  0  0  0
   -0.3448   67.4880   69.4317 H   0  0  0  0  0  0  0  0  0  0  0  0
    0.1129   65.7510   69.4317 H   0  0  0  0  0  0  0  0  0  0  0  0
    2.4542   67.3355   68.8394 H   0  0  0  0  0  0  0  0  0  0  0  0
    1.5934   66.1217   67.8038 H   0  0  0  0  0  0  0  0  0  0  0  0
    0.1056   69.8048   65.8954 H   0  0  0  0  0  0  0  0  0  0  0  0
   -1.1642   69.6960   63.0159 H   0  0  0  0  0  0  0  0  0  0  0  0
   -0.0330   69.7948   60.8018 H   0  0  0  0  0  0  0  0  0  0  0  0
    2.3441   69.0811   60.5762 H   0  0  0  0  0  0  0  0  0  0  0  0
    3.5904   68.2701   62.5765 H   0  0  0  0  0  0  0  0  0  0  0  0
    2.4703   68.1670   64.7933 H   0  0  0  0  0  0  0  0  0  0  0  0
   -1.9382   69.1633   64.2239 H   0  0  0  0  0  0  0  0  0  0  0  0
   -2.0055   67.7859   65.4343 H   0  0  0  0  0  0  0  0  0  0  0  0
   -2.1713   69.3695   67.0881 H   0  0  0  0  0  0  0  0  0  0  0  0
    0.8538   70.1684   67.2089 H   0  0  0  0  0  0  0  0  0  0  0  0
    0.9787   69.5833   68.9465 H   0  0  0  0  0  0  0  0  0  0  0  0
    3.1396   69.1214   65.9145 H   0  0  0  0  0  0  0  0  0  0  0  0
    5.5465   69.6425   65.9451 H   0  0  0  0  0  0  0  0  0  0  0  0
    5.3016   71.0781   69.8804 H   0  0  0  0  0  0  0  0  0  0  0  0
    2.8841   70.6106   69.9749 H   0  0  0  0  0  0  0  0  0  0  0  0
  2  1  1  0
  3  2  2  0
  5  4  1  0
  5  1  1  0
  6  2  1  0
  7  6  1  0
  8  7  2  0
  9  8  1  0
 10  9  2  0
 11 10  1  0
 12 11  2  0
 12  7  1  0
 13  6  1  0
 14 13  1  0
 15  1  1  0
 16 15  1  0
 17 16  2  0
 18 17  1  0
 19 18  2  0
 20 19  1  0
 21 20  2  0
 21 16  1  0
  4 22  1  0
  4 23  1  0
  4 24  1  0
  5 25  1  0
  5 26  1  0
  6 27  1  1
  8 28  1  0
  9 29  1  0
 10 30  1  0
 11 31  1  0
 12 32  1  0
 13 33  1  0
 13 34  1  0
 14 35  1  0
 15 36  1  0
 15 37  1  0
 17 38  1  0
 18 39  1  0
 20 40  1  0
 21 41  1  0
M  END
>  <score>  (2) 
-8.719

$$$$
=
     RDKit          3D

 41 42  0  0  0  0  0  0  0  0999 V2000
    2.7010   67.6280   64.2460 N   0  0  0  0  0  0  0  0  0  0  0  0
    4.0770   67.8740   64.3110 C   0  0  0  0  0  0  0  0  0  0  0  0
    4.8740   66.9330   64.2450 O   0  0  0  0  0  0  0  0  0  0  0  0
    2.9060   65.3390   65.1580 C   0  0  0  0  0  0  0  0  0  0  0  0
    2.2580   66.2370   64.1150 C   0  0  0  0  0  0  0  0  0  0  0  0
    4.5610   69.3300   64.4570 C   0  0  1  0  0  0  0  0  0  0  0  0
    4.9430   69.7460   65.8780 C   0  0  0  0  0  0  0  0  0  0  0  0
    3.9490   69.7820   66.8730 C   0  0  0  0  0  0  0  0  0  0  0  0
    4.2520   70.1800   68.1770 C   0  0  0  0  0  0  0  0  0  0  0  0
    5.5510   70.5520   68.5080 C   0  0  0  0  0  0  0  0  0  0  0  0
    6.5480   70.5240   67.5370 C   0  0  0  0  0  0  0  0  0  0  0  0
    6.2460   70.1260   66.2320 C   0  0  0  0  0  0  0  0  0  0  0  0
    5.6540   69.6550   63.4240 C   0  0  0  0  0  0  0  0  0  0  0  0
    5.5030   68.9880   62.1780 O   0  0  0  0  0  0  0  0  0  0  0  0
    1.6530   68.6470   64.2600 C   0  0  0  0  0  0  0  0  0  0  0  0
    0.6250   68.4890   65.3570 C   0  0  0  0  0  0  0  0  0  0  0  0
   -0.7150   68.7820   65.0740 C   0  0  0  0  0  0  0  0  0  0  0  0
   -1.6610   68.6490   66.0780 C   0  0  0  0  0  0  0  0  0  0  0  0
   -1.3700   68.2490   67.3320 N   0  0  0  0  0  0  0  0  0  0  0  0
   -0.0780   67.9620   67.5910 C   0  0  0  0  0  0  0  0  0  0  0  0
    0.9390   68.0620   66.6530 C   0  0  0  0  0  0  0  0  0  0  0  0
    2.6461   65.6992   66.1643 H   0  0  0  0  0  0  0  0  0  0  0  0
    2.5419   64.3087   65.0319 H   0  0  0  0  0  0  0  0  0  0  0  0
    3.9986   65.3598   65.0319 H   0  0  0  0  0  0  0  0  0  0  0  0
    2.5260   65.8705   63.1131 H   0  0  0  0  0  0  0  0  0  0  0  0
    1.1690   66.2084   64.2672 H   0  0  0  0  0  0  0  0  0  0  0  0
    3.6841   69.9561   64.2356 H   0  0  0  0  0  0  0  0  0  0  0  0
    2.9183   69.4925   66.6203 H   0  0  0  0  0  0  0  0  0  0  0  0
    3.4628   70.1993   68.9430 H   0  0  0  0  0  0  0  0  0  0  0  0
    5.7896   70.8675   69.5344 H   0  0  0  0  0  0  0  0  0  0  0  0
    7.5761   70.8159   67.7976 H   0  0  0  0  0  0  0  0  0  0  0  0
    7.0410   70.1105   65.4719 H   0  0  0  0  0  0  0  0  0  0  0  0
    5.6395   70.7390   63.2376 H   0  0  0  0  0  0  0  0  0  0  0  0
    6.6046   69.3056   63.8532 H   0  0  0  0  0  0  0  0  0  0  0  0
    5.2873   68.0351   62.3378 H   0  0  0  0  0  0  0  0  0  0  0  0
    2.1333   69.6292   64.3809 H   0  0  0  0  0  0  0  0  0  0  0  0
    1.1085   68.5420   63.3100 H   0  0  0  0  0  0  0  0  0  0  0  0
   -1.0126   69.1133   64.0682 H   0  0  0  0  0  0  0  0  0  0  0  0
   -2.7087   68.8831   65.8380 H   0  0  0  0  0  0  0  0  0  0  0  0
    0.1848   67.6290   68.6059 H   0  0  0  0  0  0  0  0  0  0  0  0
    1.9752   67.8100   66.9229 H   0  0  0  0  0  0  0  0  0  0  0  0
  2  1  1  0
  3  2  2  0
  5  4  1  0
  5  1  1  0
  6  2  1  0
  7  6  1  0
  8  7  2  0
  9  8  1  0
 10  9  2  0
 11 10  1  0
 12 11  2  0
 12  7  1  0
 13  6  1  0
 14 13  1  0
 15  1  1  0
 16 15  1  0
 17 16  2  0
 18 17  1  0
 19 18  2  0
 20 19  1  0
 21 20  2  0
 21 16  1  0
  4 22  1  0
  4 23  1  0
  4 24  1  0
  5 25  1  0
  5 26  1  0
  6 27  1  6
  8 28  1  0
  9 29  1  0
 10 30  1  0
 11 31  1  0
 12 32  1  0
 13 33  1  0
 13 34  1  0
 14 35  1  0
 15 36  1  0
 15 37  1  0
 17 38  1  0
 18 39  1  0
 20 40  1  0
 21 41  1  0
M  END
>  <score>  (3) 
-8.163

$$$$
=
     RDKit          3D

 41 42  0  0  0  0  0  0  0  0999 V2000
    2.9440   68.0180   65.4630 N   0  0  0  0  0  0  0  0  0  0  0  0
    2.0120   67.2900   66.2120 C   0  0  0  0  0  0  0  0  0  0  0  0
    1.9120   66.0700   66.0530 O   0  0  0  0  0  0  0  0  0  0  0  0
    4.0240   68.1110   63.2420 C   0  0  0  0  0  0  0  0  0  0  0  0
    3.7670   67.2880   64.4950 C   0  0  0  0  0  0  0  0  0  0  0  0
    1.1320   68.0430   67.2280 C   0  0  1  0  0  0  0  0  0  0  0  0
   -0.3680   68.0180   66.9310 C   0  0  0  0  0  0  0  0  0  0  0  0
   -0.8950   68.9190   65.9880 C   0  0  0  0  0  0  0  0  0  0  0  0
   -2.2640   68.9440   65.7060 C   0  0  0  0  0  0  0  0  0  0  0  0
   -3.1270   68.0740   66.3630 C   0  0  0  0  0  0  0  0  0  0  0  0
   -2.6240   67.1770   67.3010 C   0  0  0  0  0  0  0  0  0  0  0  0
   -1.2570   67.1500   67.5850 C   0  0  0  0  0  0  0  0  0  0  0  0
    1.4630   67.6160   68.6690 C   0  0  0  0  0  0  0  0  0  0  0  0
    1.5020   66.2090   68.8710 O   0  0  0  0  0  0  0  0  0  0  0  0
    3.2020   69.4510   65.5870 C   0  0  0  0  0  0  0  0  0  0  0  0
    4.3000   69.8190   66.5590 C   0  0  0  0  0  0  0  0  0  0  0  0
    3.9510   70.1810   67.8650 C   0  0  0  0  0  0  0  0  0  0  0  0
    4.9520   70.5280   68.7590 C   0  0  0  0  0  0  0  0  0  0  0  0
    6.2630   70.5410   68.4470 N   0  0  0  0  0  0  0  0  0  0  0  0
    6.5880   70.1820   67.1870 C   0  0  0  0  0  0  0  0  0  0  0  0
    5.6600   69.8170   66.2240 C   0  0  0  0  0  0  0  0  0  0  0  0
    4.3406   69.1249   63.5278 H   0  0  0  0  0  0  0  0  0  0  0  0
    4.8159   67.6339   62.6460 H   0  0  0  0  0  0  0  0  0  0  0  0
    3.1013   68.1694   62.6460 H   0  0  0  0  0  0  0  0  0  0  0  0
    3.2469   66.3609   64.2122 H   0  0  0  0  0  0  0  0  0  0  0  0
    4.7365   67.0679   64.9658 H   0  0  0  0  0  0  0  0  0  0  0  0
    1.3960   69.1049   67.1158 H   0  0  0  0  0  0  0  0  0  0  0  0
   -0.2207   69.6134   65.4654 H   0  0  0  0  0  0  0  0  0  0  0  0
   -2.6590   69.6529   64.9634 H   0  0  0  0  0  0  0  0  0  0  0  0
   -4.2044   68.0945   66.1421 H   0  0  0  0  0  0  0  0  0  0  0  0
   -3.3055   66.4871   67.8203 H   0  0  0  0  0  0  0  0  0  0  0  0
   -0.8716   66.4393   68.3309 H   0  0  0  0  0  0  0  0  0  0  0  0
    2.4481   68.0287   68.9323 H   0  0  0  0  0  0  0  0  0  0  0  0
    0.6523   68.0018   69.3045 H   0  0  0  0  0  0  0  0  0  0  0  0
    1.5074   66.0150   69.8418 H   0  0  0  0  0  0  0  0  0  0  0  0
    3.4814   69.8349   64.5947 H   0  0  0  0  0  0  0  0  0  0  0  0
    2.2778   69.8975   65.9826 H   0  0  0  0  0  0  0  0  0  0  0  0
    2.8965   70.1901   68.1779 H   0  0  0  0  0  0  0  0  0  0  0  0
    4.6595   70.8088   69.7815 H   0  0  0  0  0  0  0  0  0  0  0  0
    7.6520   70.1789   66.9079 H   0  0  0  0  0  0  0  0  0  0  0  0
    5.9864   69.5305   65.2134 H   0  0  0  0  0  0  0  0  0  0  0  0
  2  1  1  0
  3  2  2  0
  5  4  1  0
  5  1  1  0
  6  2  1  0
  7  6  1  0
  8  7  2  0
  9  8  1  0
 10  9  2  0
 11 10  1  0
 12 11  2  0
 12  7  1  0
 13  6  1  0
 14 13  1  0
 15  1  1  0
 16 15  1  0
 17 16  2  0
 18 17  1  0
 19 18  2  0
 20 19  1  0
 21 20  2  0
 21 16  1  0
  4 22  1  0
  4 23  1  0
  4 24  1  0
  5 25  1  0
  5 26  1  0
  6 27  1  1
  8 28  1  0
  9 29  1  0
 10 30  1  0
 11 31  1  0
 12 32  1  0
 13 33  1  0
 13 34  1  0
 14 35  1  0
 15 36  1  0
 15 37  1  0
 17 38  1  0
 18 39  1  0
 20 40  1  0
 21 41  1  0
M  END
>  <score>  (4) 
-7.992

$$$$
=
     RDKit          3D

 41 42  0  0  0  0  0  0  0  0999 V2000
    2.8900   69.2610   66.7040 N   0  0  0  0  0  0  0  0  0  0  0  0
    3.0460   68.4680   65.5610 C   0  0  0  0  0  0  0  0  0  0  0  0
    4.1760   68.2550   65.1100 O   0  0  0  0  0  0  0  0  0  0  0  0
    3.8020   70.4270   68.6840 C   0  0  0  0  0  0  0  0  0  0  0  0
    4.0960   69.8240   67.3180 C   0  0  0  0  0  0  0  0  0  0  0  0
    1.7890   67.8750   64.8970 C   0  0  1  0  0  0  0  0  0  0  0  0
    1.3500   68.5660   63.6050 C   0  0  0  0  0  0  0  0  0  0  0  0
    0.0600   69.1210   63.5290 C   0  0  0  0  0  0  0  0  0  0  0  0
   -0.3880   69.7400   62.3590 C   0  0  0  0  0  0  0  0  0  0  0  0
    0.4440   69.8100   61.2460 C   0  0  0  0  0  0  0  0  0  0  0  0
    1.7230   69.2650   61.3020 C   0  0  0  0  0  0  0  0  0  0  0  0
    2.1720   68.6460   62.4710 C   0  0  0  0  0  0  0  0  0  0  0  0
    1.9120   66.3480   64.7460 C   0  0  0  0  0  0  0  0  0  0  0  0
    2.6380   65.7110   65.7890 O   0  0  0  0  0  0  0  0  0  0  0  0
    1.6230   69.5500   67.3720 C   0  0  0  0  0  0  0  0  0  0  0  0
    0.9330   68.3480   67.9760 C   0  0  0  0  0  0  0  0  0  0  0  0
   -0.3240   67.9740   67.4840 C   0  0  0  0  0  0  0  0  0  0  0  0
   -0.9670   66.8780   68.0400 C   0  0  0  0  0  0  0  0  0  0  0  0
   -0.4520   66.1370   69.0410 N   0  0  0  0  0  0  0  0  0  0  0  0
    0.7620   66.5020   69.5010 C   0  0  0  0  0  0  0  0  0  0  0  0
    1.4830   67.5790   69.0090 C   0  0  0  0  0  0  0  0  0  0  0  0
    4.1391   69.7355   69.4703 H   0  0  0  0  0  0  0  0  0  0  0  0
    4.3345   71.3843   68.7845 H   0  0  0  0  0  0  0  0  0  0  0  0
    2.7199   70.5970   68.7845 H   0  0  0  0  0  0  0  0  0  0  0  0
    4.4977   70.6091   66.6605 H   0  0  0  0  0  0  0  0  0  0  0  0
    4.8249   69.0110   67.4513 H   0  0  0  0  0  0  0  0  0  0  0  0
    0.9624   68.0857   65.5916 H   0  0  0  0  0  0  0  0  0  0  0  0
   -0.6058   69.0671   64.4030 H   0  0  0  0  0  0  0  0  0  0  0  0
   -1.3988   70.1721   62.3179 H   0  0  0  0  0  0  0  0  0  0  0  0
    0.0914   70.2951   60.3239 H   0  0  0  0  0  0  0  0  0  0  0  0
    2.3824   69.3217   60.4233 H   0  0  0  0  0  0  0  0  0  0  0  0
    3.1838   68.2155   62.5028 H   0  0  0  0  0  0  0  0  0  0  0  0
    0.8982   65.9219   64.7227 H   0  0  0  0  0  0  0  0  0  0  0  0
    2.4742   66.1688   63.8176 H   0  0  0  0  0  0  0  0  0  0  0  0
    2.2918   66.0148   66.6653 H   0  0  0  0  0  0  0  0  0  0  0  0
    1.8187   70.2724   68.1781 H   0  0  0  0  0  0  0  0  0  0  0  0
    0.9462   69.9364   66.5957 H   0  0  0  0  0  0  0  0  0  0  0  0
   -0.7947   68.5417   66.6679 H   0  0  0  0  0  0  0  0  0  0  0  0
   -1.9532   66.5977   67.6413 H   0  0  0  0  0  0  0  0  0  0  0  0
    1.2064   65.9101   70.3147 H   0  0  0  0  0  0  0  0  0  0  0  0
    2.4716   67.8256   69.4235 H   0  0  0  0  0  0  0  0  0  0  0  0
  2  1  1  0
  3  2  2  0
  5  4  1  0
  5  1  1  0
  6  2  1  0
  7  6  1  0
  8  7  2  0
  9  8  1  0
 10  9  2  0
 11 10  1  0
 12 11  2  0
 12  7  1  0
 13  6  1  0
 14 13  1  0
 15  1  1  0
 16 15  1  0
 17 16  2  0
 18 17  1  0
 19 18  2  0
 20 19  1  0
 21 20  2  0
 21 16  1  0
  4 22  1  0
  4 23  1  0
  4 24  1  0
  5 25  1  0
  5 26  1  0
  6 27  1  1
  8 28  1  0
  9 29  1  0
 10 30  1  0
 11 31  1  0
 12 32  1  0
 13 33  1  0
 13 34  1  0
 14 35  1  0
 15 36  1  0
 15 37  1  0
 17 38  1  0
 18 39  1  0
 20 40  1  0
 21 41  1  0
M  END
>  <score>  (5) 
-7.829

$$$$
=
     RDKit          3D

 41 42  0  0  0  0  0  0  0  0999 V2000
    3.9690   68.4640   63.4450 N   0  0  0  0  0  0  0  0  0  0  0  0
    4.4990   69.2550   64.4710 C   0  0  0  0  0  0  0  0  0  0  0  0
    5.3270   70.1320   64.2080 O   0  0  0  0  0  0  0  0  0  0  0  0
    3.2890   68.7340   61.0840 C   0  0  0  0  0  0  0  0  0  0  0  0
    4.4400   68.7080   62.0780 C   0  0  0  0  0  0  0  0  0  0  0  0
    4.0220   69.0060   65.9150 C   0  0  1  0  0  0  0  0  0  0  0  0
    4.8420   69.7080   66.9990 C   0  0  0  0  0  0  0  0  0  0  0  0
    4.1910   70.1860   68.1510 C   0  0  0  0  0  0  0  0  0  0  0  0
    4.9000   70.8540   69.1520 C   0  0  0  0  0  0  0  0  0  0  0  0
    6.2690   71.0580   69.0180 C   0  0  0  0  0  0  0  0  0  0  0  0
    6.9310   70.5940   67.8840 C   0  0  0  0  0  0  0  0  0  0  0  0
    6.2230   69.9270   66.8820 C   0  0  0  0  0  0  0  0  0  0  0  0
    2.5110   69.2630   66.0500 C   0  0  0  0  0  0  0  0  0  0  0  0
    1.7960   68.2300   66.7150 O   0  0  0  0  0  0  0  0  0  0  0  0
    2.9480   67.4310   63.6070 C   0  0  0  0  0  0  0  0  0  0  0  0
    3.4830   66.0530   63.9280 C   0  0  0  0  0  0  0  0  0  0  0  0
    2.9630   65.3690   65.0330 C   0  0  0  0  0  0  0  0  0  0  0  0
    3.4550   64.1090   65.3390 C   0  0  0  0  0  0  0  0  0  0  0  0
    4.4180   63.4890   64.6280 N   0  0  0  0  0  0  0  0  0  0  0  0
    4.9050   64.1550   63.5610 C   0  0  0  0  0  0  0  0  0  0  0  0
    4.4760   65.4160   63.1740 C   0  0  0  0  0  0  0  0  0  0  0  0
    2.3340   68.7556   61.6294 H   0  0  0  0  0  0  0  0  0  0  0  0
    3.3706   69.6305   60.4519 H   0  0  0  0  0  0  0  0  0  0  0  0
    3.3300   67.8347   60.4519 H   0  0  0  0  0  0  0  0  0  0  0  0
    5.1391   67.9078   61.7934 H   0  0  0  0  0  0  0  0  0  0  0  0
    4.9354   69.6899   62.0555 H   0  0  0  0  0  0  0  0  0  0  0  0
    4.2070   67.9386   66.1057 H   0  0  0  0  0  0  0  0  0  0  0  0
    3.1079   70.0314   68.2650 H   0  0  0  0  0  0  0  0  0  0  0  0
    4.3750   71.2190   70.0471 H   0  0  0  0  0  0  0  0  0  0  0  0
    6.8277   71.5846   69.8058 H   0  0  0  0  0  0  0  0  0  0  0  0
    8.0142   70.7533   67.7773 H   0  0  0  0  0  0  0  0  0  0  0  0
    6.7553   69.5683   65.9887 H   0  0  0  0  0  0  0  0  0  0  0  0
    2.3701   70.1968   66.6140 H   0  0  0  0  0  0  0  0  0  0  0  0
    2.1091   69.3143   65.0273 H   0  0  0  0  0  0  0  0  0  0  0  0
    1.8785   68.3492   67.6943 H   0  0  0  0  0  0  0  0  0  0  0  0
    2.2788   67.7370   64.4246 H   0  0  0  0  0  0  0  0  0  0  0  0
    2.4378   67.3459   62.6362 H   0  0  0  0  0  0  0  0  0  0  0  0
    2.1748   65.8247   65.6503 H   0  0  0  0  0  0  0  0  0  0  0  0
    3.0358   63.5860   66.2112 H   0  0  0  0  0  0  0  0  0  0  0  0
    5.6892   63.6691   62.9619 H   0  0  0  0  0  0  0  0  0  0  0  0
    4.9085   65.9072   62.2899 H   0  0  0  0  0  0  0  0  0  0  0  0
  2  1  1  0
  3  2  2  0
  5  4  1  0
  5  1  1  0
  6  2  1  0
  7  6  1  0
  8  7  2  0
  9  8  1  0
 10  9  2  0
 11 10  1  0
 12 11  2  0
 12  7  1  0
 13  6  1  0
 14 13  1  0
 15  1  1  0
 16 15  1  0
 17 16  2  0
 18 17  1  0
 19 18  2  0
 20 19  1  0
 21 20  2  0
 21 16  1  0
  4 22  1  0
  4 23  1  0
  4 24  1  0
  5 25  1  0
  5 26  1  0
  6 27  1  1
  8 28  1  0
  9 29  1  0
 10 30  1  0
 11 31  1  0
 12 32  1  0
 13 33  1  0
 13 34  1  0
 14 35  1  0
 15 36  1  0
 15 37  1  0
 17 38  1  0
 18 39  1  0
 20 40  1  0
 21 41  1  0
M  END
>  <score>  (6) 
-7.637

$$$$
=
     RDKit          3D

 41 42  0  0  0  0  0  0  0  0999 V2000
    2.7600   68.8750   65.9050 N   0  0  0  0  0  0  0  0  0  0  0  0
    1.9310   69.2710   66.9610 C   0  0  0  0  0  0  0  0  0  0  0  0
    2.3120   70.1400   67.7500 O   0  0  0  0  0  0  0  0  0  0  0  0
    5.0680   68.6230   65.0560 C   0  0  0  0  0  0  0  0  0  0  0  0
    4.0740   69.5120   65.7880 C   0  0  0  0  0  0  0  0  0  0  0  0
    0.5490   68.6050   67.1040 C   0  0  1  0  0  0  0  0  0  0  0  0
    0.4360   67.5820   68.2360 C   0  0  0  0  0  0  0  0  0  0  0  0
    1.5210   67.4110   69.1150 C   0  0  0  0  0  0  0  0  0  0  0  0
    1.4670   66.4700   70.1470 C   0  0  0  0  0  0  0  0  0  0  0  0
    0.3320   65.6840   70.3140 C   0  0  0  0  0  0  0  0  0  0  0  0
   -0.7510   65.8380   69.4530 C   0  0  0  0  0  0  0  0  0  0  0  0
   -0.6990   66.7780   68.4210 C   0  0  0  0  0  0  0  0  0  0  0  0
   -0.5710   69.6590   67.1370 C   0  0  0  0  0  0  0  0  0  0  0  0
   -0.4820   70.5790   68.2170 O   0  0  0  0  0  0  0  0  0  0  0  0
    2.4150   67.9000   64.8720 C   0  0  0  0  0  0  0  0  0  0  0  0
    1.8840   68.4940   63.5870 C   0  0  0  0  0  0  0  0  0  0  0  0
    0.5720   68.9830   63.5620 C   0  0  0  0  0  0  0  0  0  0  0  0
    0.0760   69.5200   62.3840 C   0  0  0  0  0  0  0  0  0  0  0  0
    0.7860   69.6040   61.2420 N   0  0  0  0  0  0  0  0  0  0  0  0
    2.0510   69.1370   61.2800 C   0  0  0  0  0  0  0  0  0  0  0  0
    2.6370   68.5850   62.4090 C   0  0  0  0  0  0  0  0  0  0  0  0
    5.6796   68.0760   65.7887 H   0  0  0  0  0  0  0  0  0  0  0  0
    4.5229   67.9056   64.4250 H   0  0  0  0  0  0  0  0  0  0  0  0
    5.7203   69.2445   64.4250 H   0  0  0  0  0  0  0  0  0  0  0  0
    4.4593   69.7220   66.7967 H   0  0  0  0  0  0  0  0  0  0  0  0
    3.9544   70.4403   65.2101 H   0  0  0  0  0  0  0  0  0  0  0  0
    0.4201   67.9961   66.1970 H   0  0  0  0  0  0  0  0  0  0  0  0
    2.4241   68.0262   68.9884 H   0  0  0  0  0  0  0  0  0  0  0  0
    2.3229   66.3510   70.8276 H   0  0  0  0  0  0  0  0  0  0  0  0
    0.2901   64.9420   71.1249 H   0  0  0  0  0  0  0  0  0  0  0  0
   -1.6499   65.2180   69.5856 H   0  0  0  0  0  0  0  0  0  0  0  0
   -1.5592   66.8894   67.7445 H   0  0  0  0  0  0  0  0  0  0  0  0
   -0.5349   70.2284   66.1965 H   0  0  0  0  0  0  0  0  0  0  0  0
   -1.5144   69.1094   67.2707 H   0  0  0  0  0  0  0  0  0  0  0  0
   -0.5296   70.0867   69.0746 H   0  0  0  0  0  0  0  0  0  0  0  0
    3.3194   67.3214   64.6327 H   0  0  0  0  0  0  0  0  0  0  0  0
    1.6020   67.2861   65.2868 H   0  0  0  0  0  0  0  0  0  0  0  0
   -0.0561   68.9416   64.4641 H   0  0  0  0  0  0  0  0  0  0  0  0
   -0.9565   69.8993   62.3816 H   0  0  0  0  0  0  0  0  0  0  0  0
    2.6530   69.1977   60.3614 H   0  0  0  0  0  0  0  0  0  0  0  0
    3.6759   68.2245   62.3802 H   0  0  0  0  0  0  0  0  0  0  0  0
  2  1  1  0
  3  2  2  0
  5  4  1  0
  5  1  1  0
  6  2  1  0
  7  6  1  0
  8  7  2  0
  9  8  1  0
 10  9  2  0
 11 10  1  0
 12 11  2  0
 12  7  1  0
 13  6  1  0
 14 13  1  0
 15  1  1  0
 16 15  1  0
 17 16  2  0
 18 17  1  0
 19 18  2  0
 20 19  1  0
 21 20  2  0
 21 16  1  0
  4 22  1  0
  4 23  1  0
  4 24  1  0
  5 25  1  0
  5 26  1  0
  6 27  1  6
  8 28  1  0
  9 29  1  0
 10 30  1  0
 11 31  1  0
 12 32  1  0
 13 33  1  0
 13 34  1  0
 14 35  1  0
 15 36  1  0
 15 37  1  0
 17 38  1  0
 18 39  1  0
 20 40  1  0
 21 41  1  0
M  END
>  <score>  (7) 
-7.405

$$$$
=
     RDKit          3D

 41 42  0  0  0  0  0  0  0  0999 V2000
    2.2440   68.5570   67.2310 N   0  0  0  0  0  0  0  0  0  0  0  0
    2.7280   68.6600   65.9220 C   0  0  0  0  0  0  0  0  0  0  0  0
    3.5810   69.5100   65.6460 O   0  0  0  0  0  0  0  0  0  0  0  0
    1.7930   70.6200   68.5150 C   0  0  0  0  0  0  0  0  0  0  0  0
    2.7690   69.4880   68.2330 C   0  0  0  0  0  0  0  0  0  0  0  0
    2.1810   67.6940   64.8530 C   0  0  1  0  0  0  0  0  0  0  0  0
    1.7190   68.3570   63.5550 C   0  0  0  0  0  0  0  0  0  0  0  0
    2.6050   68.4180   62.4640 C   0  0  0  0  0  0  0  0  0  0  0  0
    2.2300   69.0380   61.2690 C   0  0  0  0  0  0  0  0  0  0  0  0
    0.9680   69.6090   61.1450 C   0  0  0  0  0  0  0  0  0  0  0  0
    0.0790   69.5590   62.2150 C   0  0  0  0  0  0  0  0  0  0  0  0
    0.4510   68.9410   63.4110 C   0  0  0  0  0  0  0  0  0  0  0  0
    3.1530   66.5260   64.6150 C   0  0  0  0  0  0  0  0  0  0  0  0
    2.7620   65.3010   65.2220 O   0  0  0  0  0  0  0  0  0  0  0  0
    1.2780   67.5670   67.7050 C   0  0  0  0  0  0  0  0  0  0  0  0
   -0.1570   67.8410   67.3180 C   0  0  0  0  0  0  0  0  0  0  0  0
   -1.1380   66.9010   67.6560 C   0  0  0  0  0  0  0  0  0  0  0  0
   -2.4550   67.1420   67.2950 C   0  0  0  0  0  0  0  0  0  0  0  0
   -2.8600   68.2410   66.6280 N   0  0  0  0  0  0  0  0  0  0  0  0
   -1.9070   69.1430   66.3150 C   0  0  0  0  0  0  0  0  0  0  0  0
   -0.5660   68.9930   66.6340 C   0  0  0  0  0  0  0  0  0  0  0  0
    1.6833   70.7473   69.6021 H   0  0  0  0  0  0  0  0  0  0  0  0
    2.1752   71.5522   68.0734 H   0  0  0  0  0  0  0  0  0  0  0  0
    0.8147   70.3792   68.0734 H   0  0  0  0  0  0  0  0  0  0  0  0
    3.7129   69.9149   67.8630 H   0  0  0  0  0  0  0  0  0  0  0  0
    2.9281   68.9313   69.1683 H   0  0  0  0  0  0  0  0  0  0  0  0
    1.2508   67.2850   65.2742 H   0  0  0  0  0  0  0  0  0  0  0  0
    3.6065   67.9717   62.5527 H   0  0  0  0  0  0  0  0  0  0  0  0
    2.9344   69.0744   60.4249 H   0  0  0  0  0  0  0  0  0  0  0  0
    0.6734   70.0983   60.2049 H   0  0  0  0  0  0  0  0  0  0  0  0
   -0.9205   70.0080   62.1182 H   0  0  0  0  0  0  0  0  0  0  0  0
   -0.2589   68.9116   64.2508 H   0  0  0  0  0  0  0  0  0  0  0  0
    3.2338   66.3617   63.5303 H   0  0  0  0  0  0  0  0  0  0  0  0
    4.1081   66.8142   65.0784 H   0  0  0  0  0  0  0  0  0  0  0  0
    2.7924   65.3963   66.2069 H   0  0  0  0  0  0  0  0  0  0  0  0
    1.5621   66.5878   67.2922 H   0  0  0  0  0  0  0  0  0  0  0  0
    1.3132   67.6036   68.8038 H   0  0  0  0  0  0  0  0  0  0  0  0
   -0.8678   65.9841   68.2003 H   0  0  0  0  0  0  0  0  0  0  0  0
   -3.2128   66.3932   67.5687 H   0  0  0  0  0  0  0  0  0  0  0  0
   -2.2118   70.0514   65.7747 H   0  0  0  0  0  0  0  0  0  0  0  0
    0.1649   69.7661   66.3545 H   0  0  0  0  0  0  0  0  0  0  0  0
  2  1  1  0
  3  2  2  0
  5  4  1  0
  5  1  1  0
  6  2  1  0
  7  6  1  0
  8  7  2  0
  9  8  1  0
 10  9  2  0
 11 10  1  0
 12 11  2  0
 12  7  1  0
 13  6  1  0
 14 13  1  0
 15  1  1  0
 16 15  1  0
 17 16  2  0
 18 17  1  0
 19 18  2  0
 20 19  1  0
 21 20  2  0
 21 16  1  0
  4 22  1  0
  4 23  1  0
  4 24  1  0
  5 25  1  0
  5 26  1  0
  6 27  1  1
  8 28  1  0
  9 29  1  0
 10 30  1  0
 11 31  1  0
 12 32  1  0
 13 33  1  0
 13 34  1  0
 14 35  1  0
 15 36  1  0
 15 37  1  0
 17 38  1  0
 18 39  1  0
 20 40  1  0
 21 41  1  0
M  END
>  <score>  (8) 
-7.33

$$$$
=
     RDKit          3D

 41 42  0  0  0  0  0  0  0  0999 V2000
    1.9200   59.6870   73.4710 N   0  0  0  0  0  0  0  0  0  0  0  0
    3.0430   59.3660   72.7000 C   0  0  0  0  0  0  0  0  0  0  0  0
    4.0620   58.9340   73.2470 O   0  0  0  0  0  0  0  0  0  0  0  0
    1.2880   58.2480   75.3790 C   0  0  0  0  0  0  0  0  0  0  0  0
    2.0100   59.5060   74.9230 C   0  0  0  0  0  0  0  0  0  0  0  0
    2.9690   59.5570   71.1720 C   0  0  1  0  0  0  0  0  0  0  0  0
    3.4880   60.9020   70.6620 C   0  0  0  0  0  0  0  0  0  0  0  0
    3.0690   61.3640   69.4000 C   0  0  0  0  0  0  0  0  0  0  0  0
    3.5400   62.5760   68.8870 C   0  0  0  0  0  0  0  0  0  0  0  0
    4.4370   63.3430   69.6230 C   0  0  0  0  0  0  0  0  0  0  0  0
    4.8630   62.9010   70.8720 C   0  0  0  0  0  0  0  0  0  0  0  0
    4.3950   61.6900   71.3870 C   0  0  0  0  0  0  0  0  0  0  0  0
    3.5890   58.3580   70.4350 C   0  0  0  0  0  0  0  0  0  0  0  0
    3.2660   57.0920   70.9940 O   0  0  0  0  0  0  0  0  0  0  0  0
    0.6360   60.1550   72.9510 C   0  0  0  0  0  0  0  0  0  0  0  0
    0.4350   61.6520   73.0040 C   0  0  0  0  0  0  0  0  0  0  0  0
    0.3280   62.3610   71.8020 C   0  0  0  0  0  0  0  0  0  0  0  0
    0.1540   63.7360   71.8420 C   0  0  0  0  0  0  0  0  0  0  0  0
    0.0800   64.4470   72.9850 N   0  0  0  0  0  0  0  0  0  0  0  0
    0.1770   63.7530   74.1370 C   0  0  0  0  0  0  0  0  0  0  0  0
    0.3500   62.3780   74.1990 C   0  0  0  0  0  0  0  0  0  0  0  0
    1.2687   58.2144   76.4783 H   0  0  0  0  0  0  0  0  0  0  0  0
    0.2575   58.2568   74.9943 H   0  0  0  0  0  0  0  0  0  0  0  0
    1.8154   57.3627   74.9943 H   0  0  0  0  0  0  0  0  0  0  0  0
    1.5570   60.3768   75.4195 H   0  0  0  0  0  0  0  0  0  0  0  0
    3.0723   59.4077   75.1910 H   0  0  0  0  0  0  0  0  0  0  0  0
    1.8965   59.5895   70.9299 H   0  0  0  0  0  0  0  0  0  0  0  0
    2.3615   60.7632   68.8097 H   0  0  0  0  0  0  0  0  0  0  0  0
    3.2008   62.9236   67.9000 H   0  0  0  0  0  0  0  0  0  0  0  0
    4.8086   64.2962   69.2190 H   0  0  0  0  0  0  0  0  0  0  0  0
    5.5709   63.5077   71.4558 H   0  0  0  0  0  0  0  0  0  0  0  0
    4.7419   61.3495   72.3738 H   0  0  0  0  0  0  0  0  0  0  0  0
    3.2350   58.3743   69.3936 H   0  0  0  0  0  0  0  0  0  0  0  0
    4.6801   58.4685   70.5199 H   0  0  0  0  0  0  0  0  0  0  0  0
    3.2818   57.1538   71.9819 H   0  0  0  0  0  0  0  0  0  0  0  0
    0.5561   59.8365   71.9011 H   0  0  0  0  0  0  0  0  0  0  0  0
   -0.1373   59.7170   73.5992 H   0  0  0  0  0  0  0  0  0  0  0  0
    0.3813   61.8341   70.8379 H   0  0  0  0  0  0  0  0  0  0  0  0
    0.0717   64.2770   70.8877 H   0  0  0  0  0  0  0  0  0  0  0  0
    0.1153   64.3100   75.0835 H   0  0  0  0  0  0  0  0  0  0  0  0
    0.4193   61.8663   75.1703 H   0  0  0  0  0  0  0  0  0  0  0  0
  2  1  1  0
  3  2  2  0
  5  4  1  0
  5  1  1  0
  6  2  1  0
  7  6  1  0
  8  7  2  0
  9  8  1  0
 10  9  2  0
 11 10  1  0
 12 11  2  0
 12  7  1  0
 13  6  1  0
 14 13  1  0
 15  1  1  0
 16 15  1  0
 17 16  2  0
 18 17  1  0
 19 18  2  0
 20 19  1  0
 21 20  2  0
 21 16  1  0
  4 22  1  0
  4 23  1  0
  4 24  1  0
  5 25  1  0
  5 26  1  0
  6 27  1  6
  8 28  1  0
  9 29  1  0
 10 30  1  0
 11 31  1  0
 12 32  1  0
 13 33  1  0
 13 34  1  0
 14 35  1  0
 15 36  1  0
 15 37  1  0
 17 38  1  0
 18 39  1  0
 20 40  1  0
 21 41  1  0
M  END
>  <score>  (9) 
-7.189

$$$$
