=
     RDKit          3D

 40 42  0  0  0  0  0  0  0  0999 V2000
    1.6690   67.9660   66.8960 N   0  0  0  0  0  0  0  0  0  0  0  0
    2.5080   69.0680   66.9280 C   0  0  0  0  0  0  0  0  0  0  0  0
    2.5270   69.9300   67.8010 O   0  0  0  0  0  0  0  0  0  0  0  0
    1.2970   66.7680   69.8940 C   0  0  0  0  0  0  0  0  0  0  0  0
    0.4910   66.6680   68.6060 C   0  0  1  0  0  0  0  0  0  0  0  0
   -1.0130   66.4410   68.8890 C   0  0  0  0  0  0  0  0  0  0  0  0
   -1.6320   67.2250   67.7830 C   0  0  0  0  0  0  0  0  0  0  0  0
   -0.6730   68.0680   67.2160 C   0  0  0  0  0  0  0  0  0  0  0  0
    0.6070   67.9240   67.8180 N   0  0  0  0  0  0  0  0  0  0  0  0
   -1.0290   68.9460   66.2030 C   0  0  0  0  0  0  0  0  0  0  0  0
   -2.3510   68.9500   65.7490 C   0  0  0  0  0  0  0  0  0  0  0  0
   -3.3040   68.0890   66.3170 C   0  0  0  0  0  0  0  0  0  0  0  0
   -2.9480   67.2220   67.3500 C   0  0  0  0  0  0  0  0  0  0  0  0
    3.4480   69.1890   65.7780 C   0  0  0  0  0  0  0  0  0  0  0  0
    4.7270   69.7370   65.9190 C   0  0  0  0  0  0  0  0  0  0  0  0
    5.5710   69.8370   64.8080 C   0  0  0  0  0  0  0  0  0  0  0  0
    5.1490   69.3990   63.5460 C   0  0  0  0  0  0  0  0  0  0  0  0
    3.8670   68.8620   63.4020 C   0  0  0  0  0  0  0  0  0  0  0  0
    3.0160   68.7650   64.5140 C   0  0  0  0  0  0  0  0  0  0  0  0
    6.2850   69.5610   62.2560 Cl  0  0  0  0  0  0  0  0  0  0  0  0
    3.2630   68.3180   61.8370 S   0  0  0  0  0  6  0  0  0  0  0  0
    3.7500   66.9870   61.5690 O   0  0  0  0  0  0  0  0  0  0  0  0
    3.4070   69.3880   60.8770 O   0  0  0  0  0  0  0  0  0  0  0  0
    1.6060   68.2020   62.0880 N   0  0  0  0  0  0  0  0  0  0  0  0
    1.8177   67.2032   66.2201 H   0  0  0  0  0  0  0  0  0  0  0  0
    0.6205   66.6841   70.7573 H   0  0  0  0  0  0  0  0  0  0  0  0
    2.0370   65.9548   69.9276 H   0  0  0  0  0  0  0  0  0  0  0  0
    1.8158   67.7374   69.9276 H   0  0  0  0  0  0  0  0  0  0  0  0
    0.8995   65.8131   68.0473 H   0  0  0  0  0  0  0  0  0  0  0  0
   -1.2794   65.3755   68.8271 H   0  0  0  0  0  0  0  0  0  0  0  0
   -1.3358   66.7445   69.8958 H   0  0  0  0  0  0  0  0  0  0  0  0
   -0.2844   69.6269   65.7648 H   0  0  0  0  0  0  0  0  0  0  0  0
   -2.6475   69.6335   64.9397 H   0  0  0  0  0  0  0  0  0  0  0  0
   -4.3390   68.0984   65.9445 H   0  0  0  0  0  0  0  0  0  0  0  0
   -3.6920   66.5540   67.8085 H   0  0  0  0  0  0  0  0  0  0  0  0
    5.0691   70.0893   66.9033 H   0  0  0  0  0  0  0  0  0  0  0  0
    6.5776   70.2644   64.9266 H   0  0  0  0  0  0  0  0  0  0  0  0
    2.0032   68.3534   64.3925 H   0  0  0  0  0  0  0  0  0  0  0  0
    1.4121   68.1884   63.0995 H   0  0  0  0  0  0  0  0  0  0  0  0
    1.1362   69.0122   61.6592 H   0  0  0  0  0  0  0  0  0  0  0  0
  2  1  1  0
  3  2  2  0
  5  4  1  0
  6  5  1  0
  7  6  1  0
  8  7  2  0
  9  8  1  0
  9  5  1  0
  9  1  1  0
 10  8  1  0
 11 10  2  0
 12 11  1  0
 13 12  2  0
 13  7  1  0
 14  2  1  0
 15 14  2  0
 16 15  1  0
 17 16  2  0
 18 17  1  0
 19 18  2  0
 19 14  1  0
 20 17  1  0
 21 18  1  0
 22 21  2  0
 23 21  2  0
 24 21  1  0
  1 25  1  0
  4 26  1  0
  4 27  1  0
  4 28  1  0
  5 29  1  6
  6 30  1  0
  6 31  1  0
 10 32  1  0
 11 33  1  0
 12 34  1  0
 13 35  1  0
 15 36  1  0
 16 37  1  0
 19 38  1  0
 24 39  1  0
 24 40  1  0
M  END
>  <score>  (1) 
-9.948

$$$$
=
     RDKit          3D

 40 42  0  0  0  0  0  0  0  0999 V2000
    2.5890   60.3570   72.3240 N   0  0  0  0  0  0  0  0  0  0  0  0
    2.4230   59.0140   72.0250 C   0  0  0  0  0  0  0  0  0  0  0  0
    2.8780   58.4370   71.0420 O   0  0  0  0  0  0  0  0  0  0  0  0
    5.5870   60.8230   71.1570 C   0  0  0  0  0  0  0  0  0  0  0  0
    4.4840   61.7520   71.6460 C   0  0  1  0  0  0  0  0  0  0  0  0
    4.5650   63.1410   70.9700 C   0  0  0  0  0  0  0  0  0  0  0  0
    3.1190   63.4790   70.8410 C   0  0  0  0  0  0  0  0  0  0  0  0
    2.3520   62.3290   71.0390 C   0  0  0  0  0  0  0  0  0  0  0  0
    3.1460   61.1850   71.3330 N   0  0  0  0  0  0  0  0  0  0  0  0
    0.9720   62.3790   70.9060 C   0  0  0  0  0  0  0  0  0  0  0  0
    0.3700   63.6030   70.5990 C   0  0  0  0  0  0  0  0  0  0  0  0
    1.1500   64.7560   70.4150 C   0  0  0  0  0  0  0  0  0  0  0  0
    2.5390   64.6980   70.5280 C   0  0  0  0  0  0  0  0  0  0  0  0
    1.6030   58.2390   72.9980 C   0  0  0  0  0  0  0  0  0  0  0  0
    0.6160   58.8430   73.7830 C   0  0  0  0  0  0  0  0  0  0  0  0
   -0.1230   58.0750   74.6900 C   0  0  0  0  0  0  0  0  0  0  0  0
    0.1170   56.7020   74.8270 C   0  0  0  0  0  0  0  0  0  0  0  0
    1.1100   56.1000   74.0510 C   0  0  0  0  0  0  0  0  0  0  0  0
    1.8570   56.8690   73.1440 C   0  0  0  0  0  0  0  0  0  0  0  0
   -0.8700   55.8600   75.9660 Cl  0  0  0  0  0  0  0  0  0  0  0  0
    1.4820   54.3820   74.1950 S   0  0  0  0  0  6  0  0  0  0  0  0
    0.3370   53.6060   73.7840 O   0  0  0  0  0  0  0  0  0  0  0  0
    2.1480   54.1470   75.4550 O   0  0  0  0  0  0  0  0  0  0  0  0
    2.6800   54.1530   73.0400 N   0  0  0  0  0  0  0  0  0  0  0  0
    2.3137   60.7360   73.2413 H   0  0  0  0  0  0  0  0  0  0  0  0
    6.1073   60.3848   72.0214 H   0  0  0  0  0  0  0  0  0  0  0  0
    5.1466   60.0196   70.5482 H   0  0  0  0  0  0  0  0  0  0  0  0
    6.3038   61.3935   70.5482 H   0  0  0  0  0  0  0  0  0  0  0  0
    4.6224   61.8569   72.7322 H   0  0  0  0  0  0  0  0  0  0  0  0
    5.0949   63.8680   71.6029 H   0  0  0  0  0  0  0  0  0  0  0  0
    5.1197   63.1515   70.0202 H   0  0  0  0  0  0  0  0  0  0  0  0
    0.3629   61.4728   71.0396 H   0  0  0  0  0  0  0  0  0  0  0  0
   -0.7239   63.6633   70.5008 H   0  0  0  0  0  0  0  0  0  0  0  0
    0.6615   65.7131   70.1797 H   0  0  0  0  0  0  0  0  0  0  0  0
    3.1568   65.5948   70.3730 H   0  0  0  0  0  0  0  0  0  0  0  0
    0.4205   59.9213   73.6877 H   0  0  0  0  0  0  0  0  0  0  0  0
   -0.9009   58.5550   75.3020 H   0  0  0  0  0  0  0  0  0  0  0  0
    2.6466   56.3926   72.5443 H   0  0  0  0  0  0  0  0  0  0  0  0
    3.5807   53.9808   73.5090 H   0  0  0  0  0  0  0  0  0  0  0  0
    2.4390   53.3428   72.4514 H   0  0  0  0  0  0  0  0  0  0  0  0
  2  1  1  0
  3  2  2  0
  5  4  1  0
  6  5  1  0
  7  6  1  0
  8  7  2  0
  9  8  1  0
  9  5  1  0
  9  1  1  0
 10  8  1  0
 11 10  2  0
 12 11  1  0
 13 12  2  0
 13  7  1  0
 14  2  1  0
 15 14  2  0
 16 15  1  0
 17 16  2  0
 18 17  1  0
 19 18  2  0
 19 14  1  0
 20 17  1  0
 21 18  1  0
 22 21  2  0
 23 21  2  0
 24 21  1  0
  1 25  1  0
  4 26  1  0
  4 27  1  0
  4 28  1  0
  5 29  1  1
  6 30  1  0
  6 31  1  0
 10 32  1  0
 11 33  1  0
 12 34  1  0
 13 35  1  0
 15 36  1  0
 16 37  1  0
 19 38  1  0
 24 39  1  0
 24 40  1  0
M  END
>  <score>  (2) 
-8.692

$$$$
=
     RDKit          3D

 40 42  0  0  0  0  0  0  0  0999 V2000
    1.6080   69.1740   64.9700 N   0  0  0  0  0  0  0  0  0  0  0  0
    2.8140   68.5410   64.7140 C   0  0  0  0  0  0  0  0  0  0  0  0
    2.9850   67.6130   63.9300 O   0  0  0  0  0  0  0  0  0  0  0  0
    0.2400   69.0180   62.0250 C   0  0  0  0  0  0  0  0  0  0  0  0
   -0.2720   69.3780   63.4130 C   0  0  1  0  0  0  0  0  0  0  0  0
   -1.7820   69.0800   63.5610 C   0  0  0  0  0  0  0  0  0  0  0  0
   -1.8470   68.6360   64.9820 C   0  0  0  0  0  0  0  0  0  0  0  0
   -0.5590   68.3500   65.4400 C   0  0  0  0  0  0  0  0  0  0  0  0
    0.4390   68.5870   64.4540 N   0  0  0  0  0  0  0  0  0  0  0  0
   -0.3680   67.8550   66.7220 C   0  0  0  0  0  0  0  0  0  0  0  0
   -1.4830   67.6760   67.5460 C   0  0  0  0  0  0  0  0  0  0  0  0
   -2.7720   67.9780   67.0800 C   0  0  0  0  0  0  0  0  0  0  0  0
   -2.9630   68.4550   65.7830 C   0  0  0  0  0  0  0  0  0  0  0  0
    3.9810   69.0510   65.4890 C   0  0  0  0  0  0  0  0  0  0  0  0
    5.2890   68.9640   65.0040 C   0  0  0  0  0  0  0  0  0  0  0  0
    6.3530   69.4490   65.7720 C   0  0  0  0  0  0  0  0  0  0  0  0
    6.1250   70.0210   67.0310 C   0  0  0  0  0  0  0  0  0  0  0  0
    4.8200   70.0980   67.5210 C   0  0  0  0  0  0  0  0  0  0  0  0
    3.7500   69.6070   66.7550 C   0  0  0  0  0  0  0  0  0  0  0  0
    7.5160   70.5980   67.8750 Cl  0  0  0  0  0  0  0  0  0  0  0  0
    4.4660   70.7800   69.1080 S   0  0  0  0  0  6  0  0  0  0  0  0
    4.2270   72.1970   68.9810 O   0  0  0  0  0  0  0  0  0  0  0  0
    5.4070   70.2500   70.0690 O   0  0  0  0  0  0  0  0  0  0  0  0
    3.0040   70.0610   69.5150 N   0  0  0  0  0  0  0  0  0  0  0  0
    1.5693   70.0444   65.5193 H   0  0  0  0  0  0  0  0  0  0  0  0
    1.1367   68.3875   62.1171 H   0  0  0  0  0  0  0  0  0  0  0  0
   -0.5400   68.4685   61.4776 H   0  0  0  0  0  0  0  0  0  0  0  0
    0.4932   69.9379   61.4776 H   0  0  0  0  0  0  0  0  0  0  0  0
   -0.0898   70.4549   63.5435 H   0  0  0  0  0  0  0  0  0  0  0  0
   -2.3900   69.9809   63.3912 H   0  0  0  0  0  0  0  0  0  0  0  0
   -2.1722   68.3475   62.8391 H   0  0  0  0  0  0  0  0  0  0  0  0
    0.6413   67.6082   67.0830 H   0  0  0  0  0  0  0  0  0  0  0  0
   -1.3489   67.2949   68.5691 H   0  0  0  0  0  0  0  0  0  0  0  0
   -3.6386   67.8375   67.7428 H   0  0  0  0  0  0  0  0  0  0  0  0
   -3.9716   68.6811   65.4067 H   0  0  0  0  0  0  0  0  0  0  0  0
    5.4817   68.5143   64.0188 H   0  0  0  0  0  0  0  0  0  0  0  0
    7.3798   69.3807   65.3835 H   0  0  0  0  0  0  0  0  0  0  0  0
    2.7250   69.6590   67.1507 H   0  0  0  0  0  0  0  0  0  0  0  0
    2.9163   70.0179   70.5404 H   0  0  0  0  0  0  0  0  0  0  0  0
    2.2284   70.6167   69.1271 H   0  0  0  0  0  0  0  0  0  0  0  0
  2  1  1  0
  3  2  2  0
  5  4  1  0
  6  5  1  0
  7  6  1  0
  8  7  2  0
  9  8  1  0
  9  5  1  0
  9  1  1  0
 10  8  1  0
 11 10  2  0
 12 11  1  0
 13 12  2  0
 13  7  1  0
 14  2  1  0
 15 14  2  0
 16 15  1  0
 17 16  2  0
 18 17  1  0
 19 18  2  0
 19 14  1  0
 20 17  1  0
 21 18  1  0
 22 21  2  0
 23 21  2  0
 24 21  1  0
  1 25  1  0
  4 26  1  0
  4 27  1  0
  4 28  1  0
  5 29  1  1
  6 30  1  0
  6 31  1  0
 10 32  1  0
 11 33  1  0
 12 34  1  0
 13 35  1  0
 15 36  1  0
 16 37  1  0
 19 38  1  0
 24 39  1  0
 24 40  1  0
M  END
>  <score>  (3) 
-8.301

$$$$
=
     RDKit          3D

 40 42  0  0  0  0  0  0  0  0999 V2000
    1.9410   67.2870   67.1940 N   0  0  0  0  0  0  0  0  0  0  0  0
    1.0020   67.5320   68.1830 C   0  0  0  0  0  0  0  0  0  0  0  0
    0.2590   68.5060   68.2400 O   0  0  0  0  0  0  0  0  0  0  0  0
    1.1400   67.8930   64.1030 C   0  0  0  0  0  0  0  0  0  0  0  0
    2.4500   67.9000   64.8780 C   0  0  1  0  0  0  0  0  0  0  0  0
    3.4740   68.8830   64.2630 C   0  0  0  0  0  0  0  0  0  0  0  0
    4.1540   69.3900   65.4890 C   0  0  0  0  0  0  0  0  0  0  0  0
    3.3930   69.0620   66.6130 C   0  0  0  0  0  0  0  0  0  0  0  0
    2.2220   68.3230   66.2860 N   0  0  0  0  0  0  0  0  0  0  0  0
    3.7930   69.4840   67.8730 C   0  0  0  0  0  0  0  0  0  0  0  0
    4.9770   70.2160   67.9920 C   0  0  0  0  0  0  0  0  0  0  0  0
    5.7410   70.5300   66.8570 C   0  0  0  0  0  0  0  0  0  0  0  0
    5.3260   70.1230   65.5890 C   0  0  0  0  0  0  0  0  0  0  0  0
    0.9290   66.5070   69.2630 C   0  0  0  0  0  0  0  0  0  0  0  0
    0.0080   66.6000   70.3120 C   0  0  0  0  0  0  0  0  0  0  0  0
   -0.0170   65.6170   71.3070 C   0  0  0  0  0  0  0  0  0  0  0  0
    0.8760   64.5380   71.2720 C   0  0  0  0  0  0  0  0  0  0  0  0
    1.8040   64.4520   70.2310 C   0  0  0  0  0  0  0  0  0  0  0  0
    1.8350   65.4390   69.2330 C   0  0  0  0  0  0  0  0  0  0  0  0
    0.7370   63.3830   72.5470 Cl  0  0  0  0  0  0  0  0  0  0  0  0
    2.9740   63.1360   70.1420 S   0  0  0  0  0  6  0  0  0  0  0  0
    2.3260   61.8920   70.4770 O   0  0  0  0  0  0  0  0  0  0  0  0
    4.2010   63.5520   70.7820 O   0  0  0  0  0  0  0  0  0  0  0  0
    3.3550   63.0750   68.5070 N   0  0  0  0  0  0  0  0  0  0  0  0
    2.4173   66.3763   67.1263 H   0  0  0  0  0  0  0  0  0  0  0  0
    0.2964   67.8885   64.8089 H   0  0  0  0  0  0  0  0  0  0  0  0
    1.0836   68.7909   63.4700 H   0  0  0  0  0  0  0  0  0  0  0  0
    1.0932   66.9946   63.4700 H   0  0  0  0  0  0  0  0  0  0  0  0
    2.8445   66.8742   64.8335 H   0  0  0  0  0  0  0  0  0  0  0  0
    4.1786   68.3665   63.5947 H   0  0  0  0  0  0  0  0  0  0  0  0
    3.0279   69.6679   63.6346 H   0  0  0  0  0  0  0  0  0  0  0  0
    3.1892   69.2466   68.7613 H   0  0  0  0  0  0  0  0  0  0  0  0
    5.3138   70.5495   68.9846 H   0  0  0  0  0  0  0  0  0  0  0  0
    6.6743   71.1015   66.9684 H   0  0  0  0  0  0  0  0  0  0  0  0
    5.9124   70.3767   64.6936 H   0  0  0  0  0  0  0  0  0  0  0  0
   -0.6953   67.4447   70.3543 H   0  0  0  0  0  0  0  0  0  0  0  0
   -0.7466   65.6921   72.1268 H   0  0  0  0  0  0  0  0  0  0  0  0
    2.5755   65.3732   68.4223 H   0  0  0  0  0  0  0  0  0  0  0  0
    4.3661   62.9131   68.3959 H   0  0  0  0  0  0  0  0  0  0  0  0
    2.8333   62.3068   68.0613 H   0  0  0  0  0  0  0  0  0  0  0  0
  2  1  1  0
  3  2  2  0
  5  4  1  0
  6  5  1  0
  7  6  1  0
  8  7  2  0
  9  8  1  0
  9  5  1  0
  9  1  1  0
 10  8  1  0
 11 10  2  0
 12 11  1  0
 13 12  2  0
 13  7  1  0
 14  2  1  0
 15 14  2  0
 16 15  1  0
 17 16  2  0
 18 17  1  0
 19 18  2  0
 19 14  1  0
 20 17  1  0
 21 18  1  0
 22 21  2  0
 23 21  2  0
 24 21  1  0
  1 25  1  0
  4 26  1  0
  4 27  1  0
  4 28  1  0
  5 29  1  1
  6 30  1  0
  6 31  1  0
 10 32  1  0
 11 33  1  0
 12 34  1  0
 13 35  1  0
 15 36  1  0
 16 37  1  0
 19 38  1  0
 24 39  1  0
 24 40  1  0
M  END
>  <score>  (4) 
-8.223

$$$$
=
     RDKit          3D

 40 42  0  0  0  0  0  0  0  0999 V2000
    0.1110   65.7620   69.2650 N   0  0  0  0  0  0  0  0  0  0  0  0
    0.0660   65.6240   70.6430 C   0  0  0  0  0  0  0  0  0  0  0  0
   -0.4500   66.4150   71.4260 O   0  0  0  0  0  0  0  0  0  0  0  0
   -2.4790   66.8090   67.6030 C   0  0  0  0  0  0  0  0  0  0  0  0
   -0.9740   66.9280   67.4050 C   0  0  1  0  0  0  0  0  0  0  0  0
   -0.6000   68.2070   66.6180 C   0  0  0  0  0  0  0  0  0  0  0  0
    0.6830   68.5810   67.2770 C   0  0  0  0  0  0  0  0  0  0  0  0
    0.8130   67.8800   68.4780 C   0  0  0  0  0  0  0  0  0  0  0  0
   -0.2780   66.9980   68.7170 N   0  0  0  0  0  0  0  0  0  0  0  0
    1.9020   68.1090   69.3050 C   0  0  0  0  0  0  0  0  0  0  0  0
    2.8730   69.0300   68.9000 C   0  0  0  0  0  0  0  0  0  0  0  0
    2.7390   69.7210   67.6850 C   0  0  0  0  0  0  0  0  0  0  0  0
    1.6310   69.5050   66.8650 C   0  0  0  0  0  0  0  0  0  0  0  0
    0.7240   64.4020   71.1850 C   0  0  0  0  0  0  0  0  0  0  0  0
    0.4220   63.8980   72.4550 C   0  0  0  0  0  0  0  0  0  0  0  0
    1.0730   62.7520   72.9230 C   0  0  0  0  0  0  0  0  0  0  0  0
    2.0320   62.1000   72.1370 C   0  0  0  0  0  0  0  0  0  0  0  0
    2.3420   62.6100   70.8740 C   0  0  0  0  0  0  0  0  0  0  0  0
    1.6950   63.7630   70.4030 C   0  0  0  0  0  0  0  0  0  0  0  0
    2.7540   60.6880   72.8190 Cl  0  0  0  0  0  0  0  0  0  0  0  0
    3.5600   61.8550   69.8460 S   0  0  0  0  0  6  0  0  0  0  0  0
    3.1250   60.5300   69.4780 O   0  0  0  0  0  0  0  0  0  0  0  0
    4.8690   62.0990   70.4080 O   0  0  0  0  0  0  0  0  0  0  0  0
    3.5200   62.7960   68.4550 N   0  0  0  0  0  0  0  0  0  0  0  0
    0.4189   64.9857   68.6621 H   0  0  0  0  0  0  0  0  0  0  0  0
   -2.7070   66.7910   68.6790 H   0  0  0  0  0  0  0  0  0  0  0  0
   -2.9794   67.6704   67.1365 H   0  0  0  0  0  0  0  0  0  0  0  0
   -2.8379   65.8797   67.1365 H   0  0  0  0  0  0  0  0  0  0  0  0
   -0.6618   66.0370   66.8405 H   0  0  0  0  0  0  0  0  0  0  0  0
   -0.4580   67.9958   65.5478 H   0  0  0  0  0  0  0  0  0  0  0  0
   -1.3679   68.9943   66.6407 H   0  0  0  0  0  0  0  0  0  0  0  0
    2.0003   67.5759   70.2622 H   0  0  0  0  0  0  0  0  0  0  0  0
    3.7493   69.2148   69.5387 H   0  0  0  0  0  0  0  0  0  0  0  0
    3.5139   70.4385   67.3771 H   0  0  0  0  0  0  0  0  0  0  0  0
    1.5129   70.0524   65.9182 H   0  0  0  0  0  0  0  0  0  0  0  0
   -0.3262   64.4023   73.0842 H   0  0  0  0  0  0  0  0  0  0  0  0
    0.8290   62.3578   73.9205 H   0  0  0  0  0  0  0  0  0  0  0  0
    1.9521   64.1677   69.4130 H   0  0  0  0  0  0  0  0  0  0  0  0
    3.4777   63.7917   68.7152 H   0  0  0  0  0  0  0  0  0  0  0  0
    4.3691   62.6223   67.8985 H   0  0  0  0  0  0  0  0  0  0  0  0
  2  1  1  0
  3  2  2  0
  5  4  1  0
  6  5  1  0
  7  6  1  0
  8  7  2  0
  9  8  1  0
  9  5  1  0
  9  1  1  0
 10  8  1  0
 11 10  2  0
 12 11  1  0
 13 12  2  0
 13  7  1  0
 14  2  1  0
 15 14  2  0
 16 15  1  0
 17 16  2  0
 18 17  1  0
 19 18  2  0
 19 14  1  0
 20 17  1  0
 21 18  1  0
 22 21  2  0
 23 21  2  0
 24 21  1  0
  1 25  1  0
  4 26  1  0
  4 27  1  0
  4 28  1  0
  5 29  1  6
  6 30  1  0
  6 31  1  0
 10 32  1  0
 11 33  1  0
 12 34  1  0
 13 35  1  0
 15 36  1  0
 16 37  1  0
 19 38  1  0
 24 39  1  0
 24 40  1  0
M  END
>  <score>  (5) 
-8.023

$$$$
=
     RDKit          3D

 40 42  0  0  0  0  0  0  0  0999 V2000
    0.3260   67.0990   67.7660 N   0  0  0  0  0  0  0  0  0  0  0  0
    1.0640   67.2330   68.9310 C   0  0  0  0  0  0  0  0  0  0  0  0
    1.6710   68.2390   69.2840 O   0  0  0  0  0  0  0  0  0  0  0  0
   -1.5750   69.5580   66.8140 C   0  0  0  0  0  0  0  0  0  0  0  0
   -0.8200   68.4580   66.0810 C   0  0  1  0  0  0  0  0  0  0  0  0
   -0.4270   68.8900   64.6490 C   0  0  0  0  0  0  0  0  0  0  0  0
    0.8950   68.2170   64.5020 C   0  0  0  0  0  0  0  0  0  0  0  0
    1.3530   67.8100   65.7570 C   0  0  0  0  0  0  0  0  0  0  0  0
    0.4350   68.1160   66.8000 N   0  0  0  0  0  0  0  0  0  0  0  0
    2.5980   67.2130   65.8850 C   0  0  0  0  0  0  0  0  0  0  0  0
    3.3660   67.0060   64.7350 C   0  0  0  0  0  0  0  0  0  0  0  0
    2.8910   67.4080   63.4770 C   0  0  0  0  0  0  0  0  0  0  0  0
    1.6470   68.0280   63.3540 C   0  0  0  0  0  0  0  0  0  0  0  0
    1.1140   66.0210   69.7980 C   0  0  0  0  0  0  0  0  0  0  0  0
    0.2460   65.8480   70.8800 C   0  0  0  0  0  0  0  0  0  0  0  0
    0.3360   64.6980   71.6710 C   0  0  0  0  0  0  0  0  0  0  0  0
    1.2940   63.7130   71.3960 C   0  0  0  0  0  0  0  0  0  0  0  0
    2.1700   63.8910   70.3220 C   0  0  0  0  0  0  0  0  0  0  0  0
    2.0850   65.0470   69.5290 C   0  0  0  0  0  0  0  0  0  0  0  0
    1.2970   62.3330   72.4330 Cl  0  0  0  0  0  0  0  0  0  0  0  0
    3.4160   62.7050   69.9380 S   0  0  0  0  0  6  0  0  0  0  0  0
    2.8800   61.3750   70.0960 O   0  0  0  0  0  0  0  0  0  0  0  0
    4.6560   63.1040   70.5640 O   0  0  0  0  0  0  0  0  0  0  0  0
    3.6790   62.9450   68.2970 N   0  0  0  0  0  0  0  0  0  0  0  0
   -0.2822   66.2820   67.6123 H   0  0  0  0  0  0  0  0  0  0  0  0
   -1.4743   69.4112   67.8995 H   0  0  0  0  0  0  0  0  0  0  0  0
   -1.1577   70.5371   66.5361 H   0  0  0  0  0  0  0  0  0  0  0  0
   -2.6387   69.5206   66.5361 H   0  0  0  0  0  0  0  0  0  0  0  0
   -1.4964   67.5916   66.0369 H   0  0  0  0  0  0  0  0  0  0  0  0
   -1.1505   68.5264   63.9044 H   0  0  0  0  0  0  0  0  0  0  0  0
   -0.4014   69.9788   64.4946 H   0  0  0  0  0  0  0  0  0  0  0  0
    2.9744   66.9080   66.8726 H   0  0  0  0  0  0  0  0  0  0  0  0
    4.3513   66.5238   64.8170 H   0  0  0  0  0  0  0  0  0  0  0  0
    3.5043   67.2329   62.5808 H   0  0  0  0  0  0  0  0  0  0  0  0
    1.2739   68.3574   62.3730 H   0  0  0  0  0  0  0  0  0  0  0  0
   -0.5075   66.6159   71.1092 H   0  0  0  0  0  0  0  0  0  0  0  0
   -0.3528   64.5653   72.5183 H   0  0  0  0  0  0  0  0  0  0  0  0
    2.7846   65.1887   68.6920 H   0  0  0  0  0  0  0  0  0  0  0  0
    4.4338   63.6338   68.1674 H   0  0  0  0  0  0  0  0  0  0  0  0
    3.9492   62.0530   67.8585 H   0  0  0  0  0  0  0  0  0  0  0  0
  2  1  1  0
  3  2  2  0
  5  4  1  0
  6  5  1  0
  7  6  1  0
  8  7  2  0
  9  8  1  0
  9  5  1  0
  9  1  1  0
 10  8  1  0
 11 10  2  0
 12 11  1  0
 13 12  2  0
 13  7  1  0
 14  2  1  0
 15 14  2  0
 16 15  1  0
 17 16  2  0
 18 17  1  0
 19 18  2  0
 19 14  1  0
 20 17  1  0
 21 18  1  0
 22 21  2  0
 23 21  2  0
 24 21  1  0
  1 25  1  0
  4 26  1  0
  4 27  1  0
  4 28  1  0
  5 29  1  6
  6 30  1  0
  6 31  1  0
 10 32  1  0
 11 33  1  0
 12 34  1  0
 13 35  1  0
 15 36  1  0
 16 37  1  0
 19 38  1  0
 24 39  1  0
 24 40  1  0
M  END
>  <score>  (6) 
-7.982

$$$$
=
     RDKit          3D

 40 42  0  0  0  0  0  0  0  0999 V2000
    0.9610   60.5580   72.8820 N   0  0  0  0  0  0  0  0  0  0  0  0
    1.4510   59.8060   73.9370 C   0  0  0  0  0  0  0  0  0  0  0  0
    2.3400   60.1490   74.7100 O   0  0  0  0  0  0  0  0  0  0  0  0
    0.6580   63.7160   73.5890 C   0  0  0  0  0  0  0  0  0  0  0  0
    0.8310   62.9320   72.2950 C   0  0  1  0  0  0  0  0  0  0  0  0
    1.5330   63.7750   71.2050 C   0  0  0  0  0  0  0  0  0  0  0  0
    2.3480   62.7320   70.5190 C   0  0  0  0  0  0  0  0  0  0  0  0
    2.4080   61.5880   71.3180 C   0  0  0  0  0  0  0  0  0  0  0  0
    1.6640   61.7220   72.5240 N   0  0  0  0  0  0  0  0  0  0  0  0
    3.1650   60.4970   70.9180 C   0  0  0  0  0  0  0  0  0  0  0  0
    3.8400   60.5580   69.6960 C   0  0  0  0  0  0  0  0  0  0  0  0
    3.7630   61.7080   68.8940 C   0  0  0  0  0  0  0  0  0  0  0  0
    3.0180   62.8120   69.3090 C   0  0  0  0  0  0  0  0  0  0  0  0
    0.8280   58.4630   74.1090 C   0  0  0  0  0  0  0  0  0  0  0  0
   -0.5550   58.2720   74.0300 C   0  0  0  0  0  0  0  0  0  0  0  0
   -1.0940   56.9930   74.2070 C   0  0  0  0  0  0  0  0  0  0  0  0
   -0.2640   55.8950   74.4690 C   0  0  0  0  0  0  0  0  0  0  0  0
    1.1160   56.0880   74.5600 C   0  0  0  0  0  0  0  0  0  0  0  0
    1.6610   57.3710   74.3880 C   0  0  0  0  0  0  0  0  0  0  0  0
   -1.0460   54.3670   74.6520 Cl  0  0  0  0  0  0  0  0  0  0  0  0
    2.2150   54.7550   74.9150 S   0  0  0  0  0  6  0  0  0  0  0  0
    2.5430   54.0630   73.6920 O   0  0  0  0  0  0  0  0  0  0  0  0
    1.7410   54.0510   76.0840 O   0  0  0  0  0  0  0  0  0  0  0  0
    3.6080   55.5370   75.4340 N   0  0  0  0  0  0  0  0  0  0  0  0
    0.1098   60.2739   72.3764 H   0  0  0  0  0  0  0  0  0  0  0  0
    0.8062   63.0442   74.4473 H   0  0  0  0  0  0  0  0  0  0  0  0
    1.3984   64.5286   73.6272 H   0  0  0  0  0  0  0  0  0  0  0  0
   -0.3556   64.1415   73.6272 H   0  0  0  0  0  0  0  0  0  0  0  0
   -0.1796   62.6559   71.9596 H   0  0  0  0  0  0  0  0  0  0  0  0
    0.8060   64.2351   70.5196 H   0  0  0  0  0  0  0  0  0  0  0  0
    2.1160   64.6231   71.5933 H   0  0  0  0  0  0  0  0  0  0  0  0
    3.2328   59.6000   71.5511 H   0  0  0  0  0  0  0  0  0  0  0  0
    4.4369   59.6976   69.3594 H   0  0  0  0  0  0  0  0  0  0  0  0
    4.2941   61.7386   67.9312 H   0  0  0  0  0  0  0  0  0  0  0  0
    2.9640   63.7213   68.6923 H   0  0  0  0  0  0  0  0  0  0  0  0
   -1.2183   59.1262   73.8290 H   0  0  0  0  0  0  0  0  0  0  0  0
   -2.1823   56.8478   74.1397 H   0  0  0  0  0  0  0  0  0  0  0  0
    2.7476   57.5196   74.4727 H   0  0  0  0  0  0  0  0  0  0  0  0
    3.6311   55.5500   76.4637 H   0  0  0  0  0  0  0  0  0  0  0  0
    4.4352   55.0369   75.0783 H   0  0  0  0  0  0  0  0  0  0  0  0
  2  1  1  0
  3  2  2  0
  5  4  1  0
  6  5  1  0
  7  6  1  0
  8  7  2  0
  9  8  1  0
  9  5  1  0
  9  1  1  0
 10  8  1  0
 11 10  2  0
 12 11  1  0
 13 12  2  0
 13  7  1  0
 14  2  1  0
 15 14  2  0
 16 15  1  0
 17 16  2  0
 18 17  1  0
 19 18  2  0
 19 14  1  0
 20 17  1  0
 21 18  1  0
 22 21  2  0
 23 21  2  0
 24 21  1  0
  1 25  1  0
  4 26  1  0
  4 27  1  0
  4 28  1  0
  5 29  1  6
  6 30  1  0
  6 31  1  0
 10 32  1  0
 11 33  1  0
 12 34  1  0
 13 35  1  0
 15 36  1  0
 16 37  1  0
 19 38  1  0
 24 39  1  0
 24 40  1  0
M  END
>  <score>  (7) 
-7.969

$$$$
=
     RDKit          3D

 40 42  0  0  0  0  0  0  0  0999 V2000
    0.6250   61.6060   72.2680 N   0  0  0  0  0  0  0  0  0  0  0  0
   -0.3230   61.9480   73.2190 C   0  0  0  0  0  0  0  0  0  0  0  0
   -0.5440   63.0810   73.6350 O   0  0  0  0  0  0  0  0  0  0  0  0
    0.4580   64.3740   70.5740 C   0  0  0  0  0  0  0  0  0  0  0  0
    1.3710   63.1560   70.5260 C   0  0  1  0  0  0  0  0  0  0  0  0
    2.7740   63.5140   69.9820 C   0  0  0  0  0  0  0  0  0  0  0  0
    3.6340   62.6120   70.7980 C   0  0  0  0  0  0  0  0  0  0  0  0
    2.9010   62.1230   71.8820 C   0  0  0  0  0  0  0  0  0  0  0  0
    1.5560   62.5880   71.8880 N   0  0  0  0  0  0  0  0  0  0  0  0
    3.5090   61.3080   72.8250 C   0  0  0  0  0  0  0  0  0  0  0  0
    4.8540   60.9670   72.6520 C   0  0  0  0  0  0  0  0  0  0  0  0
    5.5790   61.4530   71.5530 C   0  0  0  0  0  0  0  0  0  0  0  0
    4.9700   62.2910   70.6180 C   0  0  0  0  0  0  0  0  0  0  0  0
   -1.1140   60.8120   73.7720 C   0  0  0  0  0  0  0  0  0  0  0  0
   -2.4570   60.9510   74.1360 C   0  0  0  0  0  0  0  0  0  0  0  0
   -3.1550   59.8580   74.6590 C   0  0  0  0  0  0  0  0  0  0  0  0
   -2.5230   58.6180   74.8280 C   0  0  0  0  0  0  0  0  0  0  0  0
   -1.1790   58.4820   74.4750 C   0  0  0  0  0  0  0  0  0  0  0  0
   -0.4730   59.5790   73.9550 C   0  0  0  0  0  0  0  0  0  0  0  0
   -3.4940   57.3420   75.4670 Cl  0  0  0  0  0  0  0  0  0  0  0  0
   -0.3160   56.9590   74.6880 S   0  0  0  0  0  6  0  0  0  0  0  0
   -0.7260   56.0260   73.6670 O   0  0  0  0  0  0  0  0  0  0  0  0
   -0.3230   56.6050   76.0890 O   0  0  0  0  0  0  0  0  0  0  0  0
    1.2790   57.3770   74.3700 N   0  0  0  0  0  0  0  0  0  0  0  0
    0.6467   60.6634   71.8533 H   0  0  0  0  0  0  0  0  0  0  0  0
    0.2578   64.6411   71.6221 H   0  0  0  0  0  0  0  0  0  0  0  0
    0.9470   65.2190   70.0673 H   0  0  0  0  0  0  0  0  0  0  0  0
   -0.4903   64.1416   70.0673 H   0  0  0  0  0  0  0  0  0  0  0  0
    0.8868   62.4282   69.8583 H   0  0  0  0  0  0  0  0  0  0  0  0
    2.8598   63.2915   68.9082 H   0  0  0  0  0  0  0  0  0  0  0  0
    3.0323   64.5803   70.0607 H   0  0  0  0  0  0  0  0  0  0  0  0
    2.9439   60.9368   73.6927 H   0  0  0  0  0  0  0  0  0  0  0  0
    5.3485   60.3117   73.3842 H   0  0  0  0  0  0  0  0  0  0  0  0
    6.6349   61.1713   71.4277 H   0  0  0  0  0  0  0  0  0  0  0  0
    5.5353   62.6862   69.7611 H   0  0  0  0  0  0  0  0  0  0  0  0
   -2.9639   61.9192   74.0110 H   0  0  0  0  0  0  0  0  0  0  0  0
   -4.2121   59.9724   74.9410 H   0  0  0  0  0  0  0  0  0  0  0  0
    0.5890   59.4700   73.6898 H   0  0  0  0  0  0  0  0  0  0  0  0
    1.7830   57.5091   75.2585 H   0  0  0  0  0  0  0  0  0  0  0  0
    1.7294   56.6256   73.8282 H   0  0  0  0  0  0  0  0  0  0  0  0
  2  1  1  0
  3  2  2  0
  5  4  1  0
  6  5  1  0
  7  6  1  0
  8  7  2  0
  9  8  1  0
  9  5  1  0
  9  1  1  0
 10  8  1  0
 11 10  2  0
 12 11  1  0
 13 12  2  0
 13  7  1  0
 14  2  1  0
 15 14  2  0
 16 15  1  0
 17 16  2  0
 18 17  1  0
 19 18  2  0
 19 14  1  0
 20 17  1  0
 21 18  1  0
 22 21  2  0
 23 21  2  0
 24 21  1  0
  1 25  1  0
  4 26  1  0
  4 27  1  0
  4 28  1  0
  5 29  1  6
  6 30  1  0
  6 31  1  0
 10 32  1  0
 11 33  1  0
 12 34  1  0
 13 35  1  0
 15 36  1  0
 16 37  1  0
 19 38  1  0
 24 39  1  0
 24 40  1  0
M  END
>  <score>  (8) 
-7.819

$$$$
=
     RDKit          3D

 40 42  0  0  0  0  0  0  0  0999 V2000
    2.8890   60.2890   72.4150 N   0  0  0  0  0  0  0  0  0  0  0  0
    2.8540   58.9300   72.1480 C   0  0  0  0  0  0  0  0  0  0  0  0
    3.3150   58.3830   71.1520 O   0  0  0  0  0  0  0  0  0  0  0  0
    5.7310   60.9430   70.9800 C   0  0  0  0  0  0  0  0  0  0  0  0
    4.6220   61.8010   71.5720 C   0  0  1  0  0  0  0  0  0  0  0  0
    4.5520   63.1910   70.8970 C   0  0  0  0  0  0  0  0  0  0  0  0
    3.0820   63.4370   70.9030 C   0  0  0  0  0  0  0  0  0  0  0  0
    2.4110   62.2400   71.1650 C   0  0  0  0  0  0  0  0  0  0  0  0
    3.2990   61.1500   71.3800 N   0  0  0  0  0  0  0  0  0  0  0  0
    1.0240   62.2030   71.1590 C   0  0  0  0  0  0  0  0  0  0  0  0
    0.3210   63.3860   70.9130 C   0  0  0  0  0  0  0  0  0  0  0  0
    1.0050   64.5860   70.6630 C   0  0  0  0  0  0  0  0  0  0  0  0
    2.4000   64.6160   70.6490 C   0  0  0  0  0  0  0  0  0  0  0  0
    2.1750   58.0940   73.1790 C   0  0  0  0  0  0  0  0  0  0  0  0
    1.1320   57.2200   72.8560 C   0  0  0  0  0  0  0  0  0  0  0  0
    0.5200   56.4630   73.8600 C   0  0  0  0  0  0  0  0  0  0  0  0
    0.9360   56.5700   75.1930 C   0  0  0  0  0  0  0  0  0  0  0  0
    1.9700   57.4510   75.5180 C   0  0  0  0  0  0  0  0  0  0  0  0
    2.5830   58.2170   74.5140 C   0  0  0  0  0  0  0  0  0  0  0  0
    0.1150   55.5720   76.3370 Cl  0  0  0  0  0  0  0  0  0  0  0  0
    2.5230   57.6560   77.1800 S   0  0  0  0  0  6  0  0  0  0  0  0
    1.3870   57.8620   78.0440 O   0  0  0  0  0  0  0  0  0  0  0  0
    3.6600   58.5480   77.1920 O   0  0  0  0  0  0  0  0  0  0  0  0
    3.1690   56.1520   77.5550 N   0  0  0  0  0  0  0  0  0  0  0  0
    2.6239   60.6568   73.3398 H   0  0  0  0  0  0  0  0  0  0  0  0
    6.3172   60.4895   71.7928 H   0  0  0  0  0  0  0  0  0  0  0  0
    5.2891   60.1494   70.3597 H   0  0  0  0  0  0  0  0  0  0  0  0
    6.3882   61.5701   70.3597 H   0  0  0  0  0  0  0  0  0  0  0  0
    4.8532   61.9163   72.6412 H   0  0  0  0  0  0  0  0  0  0  0  0
    5.0911   63.9513   71.4812 H   0  0  0  0  0  0  0  0  0  0  0  0
    5.0147   63.2345   69.9000 H   0  0  0  0  0  0  0  0  0  0  0  0
    0.4877   61.2606   71.3443 H   0  0  0  0  0  0  0  0  0  0  0  0
   -0.7790   63.3764   70.9154 H   0  0  0  0  0  0  0  0  0  0  0  0
    0.4372   65.5095   70.4768 H   0  0  0  0  0  0  0  0  0  0  0  0
    2.9432   65.5499   70.4420 H   0  0  0  0  0  0  0  0  0  0  0  0
    0.7935   57.1282   71.8134 H   0  0  0  0  0  0  0  0  0  0  0  0
   -0.2980   55.7752   73.5996 H   0  0  0  0  0  0  0  0  0  0  0  0
    3.3887   58.9182   74.7768 H   0  0  0  0  0  0  0  0  0  0  0  0
    3.2155   56.0438   78.5782 H   0  0  0  0  0  0  0  0  0  0  0  0
    2.5711   55.4130   77.1584 H   0  0  0  0  0  0  0  0  0  0  0  0
  2  1  1  0
  3  2  2  0
  5  4  1  0
  6  5  1  0
  7  6  1  0
  8  7  2  0
  9  8  1  0
  9  5  1  0
  9  1  1  0
 10  8  1  0
 11 10  2  0
 12 11  1  0
 13 12  2  0
 13  7  1  0
 14  2  1  0
 15 14  2  0
 16 15  1  0
 17 16  2  0
 18 17  1  0
 19 18  2  0
 19 14  1  0
 20 17  1  0
 21 18  1  0
 22 21  2  0
 23 21  2  0
 24 21  1  0
  1 25  1  0
  4 26  1  0
  4 27  1  0
  4 28  1  0
  5 29  1  1
  6 30  1  0
  6 31  1  0
 10 32  1  0
 11 33  1  0
 12 34  1  0
 13 35  1  0
 15 36  1  0
 16 37  1  0
 19 38  1  0
 24 39  1  0
 24 40  1  0
M  END
>  <score>  (9) 
-7.558

$$$$
