=
     RDKit          3D

 44 46  0  0  0  0  0  0  0  0999 V2000
    0.3050   66.4340   69.8600 C   0  0  0  0  0  0  0  0  0  0  0  0
   -0.5690   66.4740   68.7790 C   0  0  0  0  0  0  0  0  0  0  0  0
   -0.2490   67.2150   67.6340 C   0  0  0  0  0  0  0  0  0  0  0  0
    0.9520   67.9360   67.5510 C   0  0  0  0  0  0  0  0  0  0  0  0
    1.8240   67.8990   68.6460 C   0  0  0  0  0  0  0  0  0  0  0  0
    1.4980   67.1560   69.7840 C   0  0  0  0  0  0  0  0  0  0  0  0
    1.3000   68.7630   66.3210 C   0  0  2  0  0  0  0  0  0  0  0  0
    0.7370   68.0650   65.0660 C   0  0  0  0  0  0  0  0  0  0  0  0
    1.1910   68.7760   63.8000 C   0  0  0  0  0  0  0  0  0  0  0  0
    2.7090   68.7030   63.6770 C   0  0  0  0  0  0  0  0  0  0  0  0
    3.4220   69.1350   64.9340 C   0  0  0  0  0  0  0  0  0  0  0  0
    2.7780   69.1330   66.1890 C   0  0  0  0  0  0  0  0  0  0  0  0
    3.5020   69.5580   67.3180 C   0  0  0  0  0  0  0  0  0  0  0  0
    4.8430   69.9290   67.2170 C   0  0  0  0  0  0  0  0  0  0  0  0
    5.4820   69.8960   65.9820 C   0  0  0  0  0  0  0  0  0  0  0  0
    4.7750   69.5010   64.8470 C   0  0  0  0  0  0  0  0  0  0  0  0
    0.1370   65.7610   71.0340 O   0  0  0  0  0  0  0  0  0  0  0  0
    0.5650   64.3830   71.2030 C   0  0  0  0  0  0  0  0  0  0  0  0
    2.0410   64.3760   70.7610 C   0  0  0  0  0  0  0  0  0  0  0  0
   -0.2060   63.4550   70.2590 C   0  0  0  0  0  0  0  0  0  0  0  0
   -0.2210   64.4270   73.4910 O   0  0  0  0  0  1  0  0  0  0  0  0
    0.6400   63.9370   72.7030 C   0  0  0  0  0  0  0  0  0  0  0  0
    1.5830   63.1330   72.9790 O   0  0  0  0  0  0  0  0  0  0  0  0
   -1.5182   65.9199   68.8233 H   0  0  0  0  0  0  0  0  0  0  0  0
   -0.9502   67.2319   66.7867 H   0  0  0  0  0  0  0  0  0  0  0  0
    2.7708   68.4578   68.6103 H   0  0  0  0  0  0  0  0  0  0  0  0
    2.1940   67.1396   70.6356 H   0  0  0  0  0  0  0  0  0  0  0  0
    0.8152   69.7431   66.4407 H   0  0  0  0  0  0  0  0  0  0  0  0
    1.0932   67.0245   65.0422 H   0  0  0  0  0  0  0  0  0  0  0  0
   -0.3617   68.0939   65.1107 H   0  0  0  0  0  0  0  0  0  0  0  0
    0.7310   68.2924   62.9256 H   0  0  0  0  0  0  0  0  0  0  0  0
    0.8828   69.8309   63.8479 H   0  0  0  0  0  0  0  0  0  0  0  0
    2.9932   67.6645   63.4517 H   0  0  0  0  0  0  0  0  0  0  0  0
    3.0083   69.3931   62.8744 H   0  0  0  0  0  0  0  0  0  0  0  0
    3.0021   69.5984   68.2970 H   0  0  0  0  0  0  0  0  0  0  0  0
    5.3948   70.2475   68.1137 H   0  0  0  0  0  0  0  0  0  0  0  0
    6.5415   70.1805   65.9010 H   0  0  0  0  0  0  0  0  0  0  0  0
    5.2831   69.4758   63.8717 H   0  0  0  0  0  0  0  0  0  0  0  0
    2.6898   64.3729   71.6493 H   0  0  0  0  0  0  0  0  0  0  0  0
    2.2392   63.4769   70.1591 H   0  0  0  0  0  0  0  0  0  0  0  0
    2.2478   65.2732   70.1591 H   0  0  0  0  0  0  0  0  0  0  0  0
   -0.7989   62.7413   70.8498 H   0  0  0  0  0  0  0  0  0  0  0  0
   -0.8772   64.0526   69.6247 H   0  0  0  0  0  0  0  0  0  0  0  0
    0.5045   62.9047   69.6247 H   0  0  0  0  0  0  0  0  0  0  0  0
  2  1  2  0
  3  2  1  0
  4  3  2  0
  5  4  1  0
  6  5  2  0
  6  1  1  0
  7  4  1  0
  8  7  1  0
  9  8  1  0
 10  9  1  0
 11 10  1  0
 12 11  2  0
 12  7  1  0
 13 12  1  0
 14 13  2  0
 15 14  1  0
 16 11  1  0
 16 15  2  0
 17  1  1  0
 18 17  1  0
 19 18  1  0
 20 18  1  0
 22 21  1  0
 22 18  1  0
 23 22  2  0
  2 24  1  0
  3 25  1  0
  5 26  1  0
  6 27  1  0
  7 28  1  1
  8 29  1  0
  8 30  1  0
  9 31  1  0
  9 32  1  0
 10 33  1  0
 10 34  1  0
 13 35  1  0
 14 36  1  0
 15 37  1  0
 16 38  1  0
 19 39  1  0
 19 40  1  0
 19 41  1  0
 20 42  1  0
 20 43  1  0
 20 44  1  0
M  CHG  1  21  -1
M  END
>  <score>  (1) 
-10.331

$$$$
=
     RDKit          3D

 44 46  0  0  0  0  0  0  0  0999 V2000
    0.9180   66.4790   69.8160 C   0  0  0  0  0  0  0  0  0  0  0  0
   -0.0370   66.0270   70.7200 C   0  0  0  0  0  0  0  0  0  0  0  0
    0.1510   64.8210   71.4080 C   0  0  0  0  0  0  0  0  0  0  0  0
    1.2990   64.0400   71.2000 C   0  0  0  0  0  0  0  0  0  0  0  0
    2.2520   64.4960   70.2810 C   0  0  0  0  0  0  0  0  0  0  0  0
    2.0580   65.7010   69.6000 C   0  0  0  0  0  0  0  0  0  0  0  0
    1.5030   62.7170   71.9250 C   0  0  2  0  0  0  0  0  0  0  0  0
    1.7170   62.9910   73.4270 C   0  0  0  0  0  0  0  0  0  0  0  0
    2.0760   61.7110   74.1660 C   0  0  0  0  0  0  0  0  0  0  0  0
    3.4000   61.1630   73.6460 C   0  0  0  0  0  0  0  0  0  0  0  0
    3.4410   61.0560   72.1420 C   0  0  0  0  0  0  0  0  0  0  0  0
    2.5770   61.8100   71.3220 C   0  0  0  0  0  0  0  0  0  0  0  0
    2.6640   61.6530   69.9270 C   0  0  0  0  0  0  0  0  0  0  0  0
    3.6160   60.8090   69.3550 C   0  0  0  0  0  0  0  0  0  0  0  0
    4.4890   60.0940   70.1680 C   0  0  0  0  0  0  0  0  0  0  0  0
    4.4020   60.2170   71.5530 C   0  0  0  0  0  0  0  0  0  0  0  0
    0.8800   67.6250   69.0780 O   0  0  0  0  0  0  0  0  0  0  0  0
    0.2110   67.6930   67.7910 C   0  0  0  0  0  0  0  0  0  0  0  0
   -0.1600   69.1780   67.6220 C   0  0  0  0  0  0  0  0  0  0  0  0
   -1.0930   66.8890   67.8140 C   0  0  0  0  0  0  0  0  0  0  0  0
    0.8060   66.5430   65.7460 O   0  0  0  0  0  1  0  0  0  0  0  0
    1.1680   67.4250   66.5790 C   0  0  0  0  0  0  0  0  0  0  0  0
    2.2310   68.1170   66.5700 O   0  0  0  0  0  0  0  0  0  0  0  0
   -0.9463   66.6203   70.8962 H   0  0  0  0  0  0  0  0  0  0  0  0
   -0.6130   64.4807   72.1225 H   0  0  0  0  0  0  0  0  0  0  0  0
    3.1589   63.9022   70.0939 H   0  0  0  0  0  0  0  0  0  0  0  0
    2.8168   66.0430   68.8808 H   0  0  0  0  0  0  0  0  0  0  0  0
    0.5843   62.1273   71.7901 H   0  0  0  0  0  0  0  0  0  0  0  0
    2.5338   63.7179   73.5478 H   0  0  0  0  0  0  0  0  0  0  0  0
    0.7825   63.3900   73.8483 H   0  0  0  0  0  0  0  0  0  0  0  0
    2.1672   61.9244   75.2412 H   0  0  0  0  0  0  0  0  0  0  0  0
    1.2857   60.9641   73.9998 H   0  0  0  0  0  0  0  0  0  0  0  0
    4.2094   61.8326   73.9724 H   0  0  0  0  0  0  0  0  0  0  0  0
    3.5194   60.1479   74.0525 H   0  0  0  0  0  0  0  0  0  0  0  0
    1.9698   62.2049   69.2763 H   0  0  0  0  0  0  0  0  0  0  0  0
    3.6762   60.7090   68.2612 H   0  0  0  0  0  0  0  0  0  0  0  0
    5.2455   59.4337   69.7190 H   0  0  0  0  0  0  0  0  0  0  0  0
    5.0941   59.6504   72.1933 H   0  0  0  0  0  0  0  0  0  0  0  0
   -0.2759   69.6420   68.6126 H   0  0  0  0  0  0  0  0  0  0  0  0
    0.6368   69.6941   67.0663 H   0  0  0  0  0  0  0  0  0  0  0  0
   -1.1059   69.2587   67.0663 H   0  0  0  0  0  0  0  0  0  0  0  0
   -1.3918   66.7048   68.8565 H   0  0  0  0  0  0  0  0  0  0  0  0
   -1.8831   67.4570   67.3010 H   0  0  0  0  0  0  0  0  0  0  0  0
   -0.9403   65.9280   67.3010 H   0  0  0  0  0  0  0  0  0  0  0  0
  2  1  2  0
  3  2  1  0
  4  3  2  0
  5  4  1  0
  6  5  2  0
  6  1  1  0
  7  4  1  0
  8  7  1  0
  9  8  1  0
 10  9  1  0
 11 10  1  0
 12 11  2  0
 12  7  1  0
 13 12  1  0
 14 13  2  0
 15 14  1  0
 16 11  1  0
 16 15  2  0
 17  1  1  0
 18 17  1  0
 19 18  1  0
 20 18  1  0
 22 21  1  0
 22 18  1  0
 23 22  2  0
  2 24  1  0
  3 25  1  0
  5 26  1  0
  6 27  1  0
  7 28  1  1
  8 29  1  0
  8 30  1  0
  9 31  1  0
  9 32  1  0
 10 33  1  0
 10 34  1  0
 13 35  1  0
 14 36  1  0
 15 37  1  0
 16 38  1  0
 19 39  1  0
 19 40  1  0
 19 41  1  0
 20 42  1  0
 20 43  1  0
 20 44  1  0
M  CHG  1  21  -1
M  END
>  <score>  (2) 
-9.338

$$$$
=
     RDKit          3D

 44 46  0  0  0  0  0  0  0  0999 V2000
    0.5070   67.6580   68.1090 C   0  0  0  0  0  0  0  0  0  0  0  0
   -0.6290   66.8600   68.1830 C   0  0  0  0  0  0  0  0  0  0  0  0
   -0.7210   65.8430   69.1410 C   0  0  0  0  0  0  0  0  0  0  0  0
    0.3260   65.6000   70.0430 C   0  0  0  0  0  0  0  0  0  0  0  0
    1.4720   66.4000   69.9580 C   0  0  0  0  0  0  0  0  0  0  0  0
    1.5560   67.4150   69.0000 C   0  0  0  0  0  0  0  0  0  0  0  0
    0.2470   64.4820   71.0740 C   0  0  2  0  0  0  0  0  0  0  0  0
    0.1160   65.1010   72.4810 C   0  0  0  0  0  0  0  0  0  0  0  0
    0.1860   64.0240   73.5540 C   0  0  0  0  0  0  0  0  0  0  0  0
    1.5490   63.3420   73.5200 C   0  0  0  0  0  0  0  0  0  0  0  0
    1.9400   62.8820   72.1380 C   0  0  0  0  0  0  0  0  0  0  0  0
    1.3600   63.4380   70.9790 C   0  0  0  0  0  0  0  0  0  0  0  0
    1.7660   62.9520   69.7230 C   0  0  0  0  0  0  0  0  0  0  0  0
    2.7580   61.9780   69.6130 C   0  0  0  0  0  0  0  0  0  0  0  0
    3.3510   61.4590   70.7580 C   0  0  0  0  0  0  0  0  0  0  0  0
    2.9460   61.9080   72.0130 C   0  0  0  0  0  0  0  0  0  0  0  0
    0.7430   68.6820   67.2400 O   0  0  0  0  0  0  0  0  0  0  0  0
    1.3740   68.4700   65.9490 C   0  0  0  0  0  0  0  0  0  0  0  0
    1.6030   66.9490   65.8720 C   0  0  0  0  0  0  0  0  0  0  0  0
    2.7460   69.1490   65.8970 C   0  0  0  0  0  0  0  0  0  0  0  0
    0.9550   69.1400   63.6610 O   0  0  0  0  0  1  0  0  0  0  0  0
    0.4180   68.7490   64.7390 C   0  0  0  0  0  0  0  0  0  0  0  0
   -0.8160   68.5690   64.9760 O   0  0  0  0  0  0  0  0  0  0  0  0
   -1.4614   67.0288   67.4840 H   0  0  0  0  0  0  0  0  0  0  0  0
   -1.6293   65.2242   69.1873 H   0  0  0  0  0  0  0  0  0  0  0  0
    2.3109   66.2290   70.6487 H   0  0  0  0  0  0  0  0  0  0  0  0
    2.4641   68.0334   68.9466 H   0  0  0  0  0  0  0  0  0  0  0  0
   -0.6554   63.8943   70.8495 H   0  0  0  0  0  0  0  0  0  0  0  0
    0.9347   65.8190   72.6368 H   0  0  0  0  0  0  0  0  0  0  0  0
   -0.8573   65.6084   72.5537 H   0  0  0  0  0  0  0  0  0  0  0  0
    0.0330   64.4834   74.5417 H   0  0  0  0  0  0  0  0  0  0  0  0
   -0.5973   63.2751   73.3655 H   0  0  0  0  0  0  0  0  0  0  0  0
    2.3066   64.0533   73.8808 H   0  0  0  0  0  0  0  0  0  0  0  0
    1.4880   62.4497   74.1603 H   0  0  0  0  0  0  0  0  0  0  0  0
    1.2929   63.3470   68.8119 H   0  0  0  0  0  0  0  0  0  0  0  0
    3.0709   61.6207   68.6208 H   0  0  0  0  0  0  0  0  0  0  0  0
    4.1383   60.6955   70.6733 H   0  0  0  0  0  0  0  0  0  0  0  0
    3.4188   61.4957   72.9166 H   0  0  0  0  0  0  0  0  0  0  0  0
    1.6652   66.5356   66.8895 H   0  0  0  0  0  0  0  0  0  0  0  0
    0.7655   66.4788   65.3358 H   0  0  0  0  0  0  0  0  0  0  0  0
    2.5418   66.7462   65.3358 H   0  0  0  0  0  0  0  0  0  0  0  0
    3.1060   69.3272   66.9210 H   0  0  0  0  0  0  0  0  0  0  0  0
    3.4570   68.4988   65.3663 H   0  0  0  0  0  0  0  0  0  0  0  0
    2.6603   70.1087   65.3663 H   0  0  0  0  0  0  0  0  0  0  0  0
  2  1  2  0
  3  2  1  0
  4  3  2  0
  5  4  1  0
  6  5  2  0
  6  1  1  0
  7  4  1  0
  8  7  1  0
  9  8  1  0
 10  9  1  0
 11 10  1  0
 12 11  2  0
 12  7  1  0
 13 12  1  0
 14 13  2  0
 15 14  1  0
 16 11  1  0
 16 15  2  0
 17  1  1  0
 18 17  1  0
 19 18  1  0
 20 18  1  0
 22 21  1  0
 22 18  1  0
 23 22  2  0
  2 24  1  0
  3 25  1  0
  5 26  1  0
  6 27  1  0
  7 28  1  6
  8 29  1  0
  8 30  1  0
  9 31  1  0
  9 32  1  0
 10 33  1  0
 10 34  1  0
 13 35  1  0
 14 36  1  0
 15 37  1  0
 16 38  1  0
 19 39  1  0
 19 40  1  0
 19 41  1  0
 20 42  1  0
 20 43  1  0
 20 44  1  0
M  CHG  1  21  -1
M  END
>  <score>  (3) 
-9.336

$$$$
=
     RDKit          3D

 44 46  0  0  0  0  0  0  0  0999 V2000
    5.0800   69.6490   66.8800 C   0  0  0  0  0  0  0  0  0  0  0  0
    3.7800   69.5010   67.3500 C   0  0  0  0  0  0  0  0  0  0  0  0
    2.7550   69.0930   66.4850 C   0  0  0  0  0  0  0  0  0  0  0  0
    3.0120   68.8280   65.1310 C   0  0  0  0  0  0  0  0  0  0  0  0
    4.3220   68.9880   64.6620 C   0  0  0  0  0  0  0  0  0  0  0  0
    5.3390   69.3950   65.5310 C   0  0  0  0  0  0  0  0  0  0  0  0
    1.9020   68.4060   64.1780 C   0  0  2  0  0  0  0  0  0  0  0  0
    2.0760   69.1510   62.8390 C   0  0  0  0  0  0  0  0  0  0  0  0
    0.9030   68.8760   61.9090 C   0  0  0  0  0  0  0  0  0  0  0  0
   -0.3850   69.4100   62.5240 C   0  0  0  0  0  0  0  0  0  0  0  0
   -0.5890   68.9570   63.9480 C   0  0  0  0  0  0  0  0  0  0  0  0
    0.4870   68.5170   64.7470 C   0  0  0  0  0  0  0  0  0  0  0  0
    0.2220   68.0990   66.0640 C   0  0  0  0  0  0  0  0  0  0  0  0
   -1.0660   68.1630   66.5940 C   0  0  0  0  0  0  0  0  0  0  0  0
   -2.1170   68.6310   65.8130 C   0  0  0  0  0  0  0  0  0  0  0  0
   -1.8800   69.0260   64.4980 C   0  0  0  0  0  0  0  0  0  0  0  0
    6.1770   70.0340   67.5920 O   0  0  0  0  0  0  0  0  0  0  0  0
    6.1070   71.0410   68.6360 C   0  0  0  0  0  0  0  0  0  0  0  0
    4.9140   70.6130   69.5120 C   0  0  0  0  0  0  0  0  0  0  0  0
    5.7770   72.4150   68.0430 C   0  0  0  0  0  0  0  0  0  0  0  0
    7.1950   70.2410   70.6440 O   0  0  0  0  0  1  0  0  0  0  0  0
    7.3160   70.9890   69.6300 C   0  0  0  0  0  0  0  0  0  0  0  0
    8.3000   71.7300   69.3210 O   0  0  0  0  0  0  0  0  0  0  0  0
    3.5543   69.7053   68.4070 H   0  0  0  0  0  0  0  0  0  0  0  0
    1.7324   68.9787   66.8740 H   0  0  0  0  0  0  0  0  0  0  0  0
    4.5520   68.7924   63.6043 H   0  0  0  0  0  0  0  0  0  0  0  0
    6.3619   69.5174   65.1453 H   0  0  0  0  0  0  0  0  0  0  0  0
    2.0105   67.3244   64.0095 H   0  0  0  0  0  0  0  0  0  0  0  0
    2.1360   70.2320   63.0333 H   0  0  0  0  0  0  0  0  0  0  0  0
    2.9985   68.7961   62.3562 H   0  0  0  0  0  0  0  0  0  0  0  0
    1.0791   69.3728   60.9435 H   0  0  0  0  0  0  0  0  0  0  0  0
    0.8084   67.7906   61.7578 H   0  0  0  0  0  0  0  0  0  0  0  0
   -0.3523   70.5094   62.5070 H   0  0  0  0  0  0  0  0  0  0  0  0
   -1.2222   69.0154   61.9296 H   0  0  0  0  0  0  0  0  0  0  0  0
    1.0444   67.7154   66.6857 H   0  0  0  0  0  0  0  0  0  0  0  0
   -1.2508   67.8432   67.6301 H   0  0  0  0  0  0  0  0  0  0  0  0
   -3.1324   68.6892   66.2320 H   0  0  0  0  0  0  0  0  0  0  0  0
   -2.7136   69.3963   63.8832 H   0  0  0  0  0  0  0  0  0  0  0  0
    5.1851   70.7103   70.5736 H   0  0  0  0  0  0  0  0  0  0  0  0
    4.0493   71.2570   69.2939 H   0  0  0  0  0  0  0  0  0  0  0  0
    4.6559   69.5662   69.2939 H   0  0  0  0  0  0  0  0  0  0  0  0
    5.6043   73.1340   68.8574 H   0  0  0  0  0  0  0  0  0  0  0  0
    6.6182   72.7584   67.4230 H   0  0  0  0  0  0  0  0  0  0  0  0
    4.8716   72.3389   67.4230 H   0  0  0  0  0  0  0  0  0  0  0  0
  2  1  2  0
  3  2  1  0
  4  3  2  0
  5  4  1  0
  6  5  2  0
  6  1  1  0
  7  4  1  0
  8  7  1  0
  9  8  1  0
 10  9  1  0
 11 10  1  0
 12 11  2  0
 12  7  1  0
 13 12  1  0
 14 13  2  0
 15 14  1  0
 16 11  1  0
 16 15  2  0
 17  1  1  0
 18 17  1  0
 19 18  1  0
 20 18  1  0
 22 21  1  0
 22 18  1  0
 23 22  2  0
  2 24  1  0
  3 25  1  0
  5 26  1  0
  6 27  1  0
  7 28  1  6
  8 29  1  0
  8 30  1  0
  9 31  1  0
  9 32  1  0
 10 33  1  0
 10 34  1  0
 13 35  1  0
 14 36  1  0
 15 37  1  0
 16 38  1  0
 19 39  1  0
 19 40  1  0
 19 41  1  0
 20 42  1  0
 20 43  1  0
 20 44  1  0
M  CHG  1  21  -1
M  END
>  <score>  (4) 
-9.264

$$$$
=
     RDKit          3D

 44 46  0  0  0  0  0  0  0  0999 V2000
    0.8250   57.4770   73.3470 C   0  0  0  0  0  0  0  0  0  0  0  0
    1.9110   57.9680   72.6310 C   0  0  0  0  0  0  0  0  0  0  0  0
    2.0650   59.3460   72.4310 C   0  0  0  0  0  0  0  0  0  0  0  0
    1.1310   60.2610   72.9410 C   0  0  0  0  0  0  0  0  0  0  0  0
    0.0340   59.7600   73.6530 C   0  0  0  0  0  0  0  0  0  0  0  0
   -0.1120   58.3840   73.8500 C   0  0  0  0  0  0  0  0  0  0  0  0
    1.2750   61.7590   72.7110 C   0  0  2  0  0  0  0  0  0  0  0  0
   -0.0020   62.2910   72.0290 C   0  0  0  0  0  0  0  0  0  0  0  0
    0.1600   63.7530   71.6410 C   0  0  0  0  0  0  0  0  0  0  0  0
    1.2760   63.9000   70.6140 C   0  0  0  0  0  0  0  0  0  0  0  0
    2.5530   63.2140   71.0330 C   0  0  0  0  0  0  0  0  0  0  0  0
    2.5580   62.1800   71.9920 C   0  0  0  0  0  0  0  0  0  0  0  0
    3.7870   61.5910   72.3410 C   0  0  0  0  0  0  0  0  0  0  0  0
    4.9740   61.9800   71.7210 C   0  0  0  0  0  0  0  0  0  0  0  0
    4.9570   62.9760   70.7500 C   0  0  0  0  0  0  0  0  0  0  0  0
    3.7540   63.5890   70.4080 C   0  0  0  0  0  0  0  0  0  0  0  0
    0.5410   56.1730   73.6260 O   0  0  0  0  0  0  0  0  0  0  0  0
    1.1550   55.4690   74.7380 C   0  0  0  0  0  0  0  0  0  0  0  0
   -0.0280   55.0310   75.6230 C   0  0  0  0  0  0  0  0  0  0  0  0
    2.0270   56.4180   75.5660 C   0  0  0  0  0  0  0  0  0  0  0  0
    2.6010   54.1300   73.3330 O   0  0  0  0  0  1  0  0  0  0  0  0
    1.8130   54.1090   74.3230 C   0  0  0  0  0  0  0  0  0  0  0  0
    1.4650   53.1080   75.0220 O   0  0  0  0  0  0  0  0  0  0  0  0
    2.6543   57.2697   72.2188 H   0  0  0  0  0  0  0  0  0  0  0  0
    2.9322   59.7169   71.8650 H   0  0  0  0  0  0  0  0  0  0  0  0
   -0.7170   60.4534   74.0595 H   0  0  0  0  0  0  0  0  0  0  0  0
   -0.9802   58.0080   74.4112 H   0  0  0  0  0  0  0  0  0  0  0  0
    1.3838   62.2311   73.6986 H   0  0  0  0  0  0  0  0  0  0  0  0
   -0.2011   61.6980   71.1242 H   0  0  0  0  0  0  0  0  0  0  0  0
   -0.8403   62.2053   72.7360 H   0  0  0  0  0  0  0  0  0  0  0  0
   -0.7824   64.1219   71.2100 H   0  0  0  0  0  0  0  0  0  0  0  0
    0.4151   64.3378   72.5370 H   0  0  0  0  0  0  0  0  0  0  0  0
    0.9380   63.4623   69.6631 H   0  0  0  0  0  0  0  0  0  0  0  0
    1.4948   64.9735   70.5153 H   0  0  0  0  0  0  0  0  0  0  0  0
    3.8121   60.8106   73.1158 H   0  0  0  0  0  0  0  0  0  0  0  0
    5.9234   61.4994   71.9997 H   0  0  0  0  0  0  0  0  0  0  0  0
    5.8909   63.2786   70.2537 H   0  0  0  0  0  0  0  0  0  0  0  0
    3.7442   64.3760   69.6395 H   0  0  0  0  0  0  0  0  0  0  0  0
    0.2491   55.1336   76.6826 H   0  0  0  0  0  0  0  0  0  0  0  0
   -0.9006   55.6656   75.4091 H   0  0  0  0  0  0  0  0  0  0  0  0
   -0.2769   53.9811   75.4091 H   0  0  0  0  0  0  0  0  0  0  0  0
    1.8564   56.2324   76.6367 H   0  0  0  0  0  0  0  0  0  0  0  0
    3.0867   56.2439   75.3279 H   0  0  0  0  0  0  0  0  0  0  0  0
    1.7640   57.4592   75.3279 H   0  0  0  0  0  0  0  0  0  0  0  0
  2  1  2  0
  3  2  1  0
  4  3  2  0
  5  4  1  0
  6  5  2  0
  6  1  1  0
  7  4  1  0
  8  7  1  0
  9  8  1  0
 10  9  1  0
 11 10  1  0
 12 11  2  0
 12  7  1  0
 13 12  1  0
 14 13  2  0
 15 14  1  0
 16 11  1  0
 16 15  2  0
 17  1  1  0
 18 17  1  0
 19 18  1  0
 20 18  1  0
 22 21  1  0
 22 18  1  0
 23 22  2  0
  2 24  1  0
  3 25  1  0
  5 26  1  0
  6 27  1  0
  7 28  1  1
  8 29  1  0
  8 30  1  0
  9 31  1  0
  9 32  1  0
 10 33  1  0
 10 34  1  0
 13 35  1  0
 14 36  1  0
 15 37  1  0
 16 38  1  0
 19 39  1  0
 19 40  1  0
 19 41  1  0
 20 42  1  0
 20 43  1  0
 20 44  1  0
M  CHG  1  21  -1
M  END
>  <score>  (5) 
-9.011

$$$$
=
     RDKit          3D

 44 46  0  0  0  0  0  0  0  0999 V2000
    1.7980   57.4160   73.9400 C   0  0  0  0  0  0  0  0  0  0  0  0
    1.5340   58.3670   74.9190 C   0  0  0  0  0  0  0  0  0  0  0  0
    1.4430   59.7240   74.5840 C   0  0  0  0  0  0  0  0  0  0  0  0
    1.6170   60.1560   73.2600 C   0  0  0  0  0  0  0  0  0  0  0  0
    1.8920   59.1950   72.2800 C   0  0  0  0  0  0  0  0  0  0  0  0
    1.9810   57.8430   72.6230 C   0  0  0  0  0  0  0  0  0  0  0  0
    1.5420   61.6310   72.8890 C   0  0  2  0  0  0  0  0  0  0  0  0
    0.1530   61.9310   72.2900 C   0  0  0  0  0  0  0  0  0  0  0  0
    0.0850   63.3570   71.7650 C   0  0  0  0  0  0  0  0  0  0  0  0
    1.0820   63.5400   70.6250 C   0  0  0  0  0  0  0  0  0  0  0  0
    2.4690   63.0620   70.9760 C   0  0  0  0  0  0  0  0  0  0  0  0
    2.6920   62.1350   72.0160 C   0  0  0  0  0  0  0  0  0  0  0  0
    4.0130   61.7410   72.2940 C   0  0  0  0  0  0  0  0  0  0  0  0
    5.0820   62.2110   71.5300 C   0  0  0  0  0  0  0  0  0  0  0  0
    4.8510   63.0980   70.4840 C   0  0  0  0  0  0  0  0  0  0  0  0
    3.5520   63.5200   70.2080 C   0  0  0  0  0  0  0  0  0  0  0  0
    1.9140   56.0680   74.1070 O   0  0  0  0  0  0  0  0  0  0  0  0
    0.7950   55.2410   74.5250 C   0  0  0  0  0  0  0  0  0  0  0  0
    1.1710   53.8180   74.0720 C   0  0  0  0  0  0  0  0  0  0  0  0
   -0.4830   55.6420   73.7800 C   0  0  0  0  0  0  0  0  0  0  0  0
   -0.4910   54.9710   76.5570 O   0  0  0  0  0  1  0  0  0  0  0  0
    0.6740   55.1000   76.0800 C   0  0  0  0  0  0  0  0  0  0  0  0
    1.7740   55.1510   76.7120 O   0  0  0  0  0  0  0  0  0  0  0  0
    1.3956   58.0517   75.9637 H   0  0  0  0  0  0  0  0  0  0  0  0
    1.2318   60.4628   75.3711 H   0  0  0  0  0  0  0  0  0  0  0  0
    2.0388   59.5054   71.2350 H   0  0  0  0  0  0  0  0  0  0  0  0
    2.1993   57.1012   71.8407 H   0  0  0  0  0  0  0  0  0  0  0  0
    1.6710   62.2074   73.8170 H   0  0  0  0  0  0  0  0  0  0  0  0
   -0.0407   61.2328   71.4623 H   0  0  0  0  0  0  0  0  0  0  0  0
   -0.6037   61.8105   73.0793 H   0  0  0  0  0  0  0  0  0  0  0  0
   -0.9312   63.5619   71.3970 H   0  0  0  0  0  0  0  0  0  0  0  0
    0.3340   64.0542   72.5786 H   0  0  0  0  0  0  0  0  0  0  0  0
    0.7256   62.9728   69.7525 H   0  0  0  0  0  0  0  0  0  0  0  0
    1.1477   64.6175   70.4137 H   0  0  0  0  0  0  0  0  0  0  0  0
    4.2070   61.0505   73.1280 H   0  0  0  0  0  0  0  0  0  0  0  0
    6.1067   61.8802   71.7549 H   0  0  0  0  0  0  0  0  0  0  0  0
    5.6912   63.4653   69.8764 H   0  0  0  0  0  0  0  0  0  0  0  0
    3.3727   64.2202   69.3788 H   0  0  0  0  0  0  0  0  0  0  0  0
    1.3385   53.1842   74.9553 H   0  0  0  0  0  0  0  0  0  0  0  0
    0.3532   53.3972   73.4685 H   0  0  0  0  0  0  0  0  0  0  0  0
    2.0899   53.8561   73.4685 H   0  0  0  0  0  0  0  0  0  0  0  0
   -1.2697   55.8889   74.5081 H   0  0  0  0  0  0  0  0  0  0  0  0
   -0.2794   56.5194   73.1486 H   0  0  0  0  0  0  0  0  0  0  0  0
   -0.8171   54.8055   73.1486 H   0  0  0  0  0  0  0  0  0  0  0  0
  2  1  2  0
  3  2  1  0
  4  3  2  0
  5  4  1  0
  6  5  2  0
  6  1  1  0
  7  4  1  0
  8  7  1  0
  9  8  1  0
 10  9  1  0
 11 10  1  0
 12 11  2  0
 12  7  1  0
 13 12  1  0
 14 13  2  0
 15 14  1  0
 16 11  1  0
 16 15  2  0
 17  1  1  0
 18 17  1  0
 19 18  1  0
 20 18  1  0
 22 21  1  0
 22 18  1  0
 23 22  2  0
  2 24  1  0
  3 25  1  0
  5 26  1  0
  6 27  1  0
  7 28  1  1
  8 29  1  0
  8 30  1  0
  9 31  1  0
  9 32  1  0
 10 33  1  0
 10 34  1  0
 13 35  1  0
 14 36  1  0
 15 37  1  0
 16 38  1  0
 19 39  1  0
 19 40  1  0
 19 41  1  0
 20 42  1  0
 20 43  1  0
 20 44  1  0
M  CHG  1  21  -1
M  END
>  <score>  (6) 
-8.839

$$$$
=
     RDKit          3D

 44 46  0  0  0  0  0  0  0  0999 V2000
    1.3330   57.9660   73.6110 C   0  0  0  0  0  0  0  0  0  0  0  0
    2.0100   57.5340   72.4760 C   0  0  0  0  0  0  0  0  0  0  0  0
    2.5880   58.4600   71.5990 C   0  0  0  0  0  0  0  0  0  0  0  0
    2.4960   59.8400   71.8390 C   0  0  0  0  0  0  0  0  0  0  0  0
    1.8050   60.2690   72.9780 C   0  0  0  0  0  0  0  0  0  0  0  0
    1.2320   59.3390   73.8490 C   0  0  0  0  0  0  0  0  0  0  0  0
    3.1010   60.8570   70.8800 C   0  0  2  0  0  0  0  0  0  0  0  0
    4.6150   60.9690   71.1520 C   0  0  0  0  0  0  0  0  0  0  0  0
    5.2340   62.0830   70.3210 C   0  0  0  0  0  0  0  0  0  0  0  0
    4.6340   63.4260   70.7220 C   0  0  0  0  0  0  0  0  0  0  0  0
    3.1260   63.4140   70.7380 C   0  0  0  0  0  0  0  0  0  0  0  0
    2.3960   62.2130   70.8490 C   0  0  0  0  0  0  0  0  0  0  0  0
    0.9900   62.2770   70.8480 C   0  0  0  0  0  0  0  0  0  0  0  0
    0.3240   63.5010   70.7910 C   0  0  0  0  0  0  0  0  0  0  0  0
    1.0510   64.6850   70.7170 C   0  0  0  0  0  0  0  0  0  0  0  0
    2.4440   64.6410   70.6910 C   0  0  0  0  0  0  0  0  0  0  0  0
    0.7240   57.1930   74.5540 O   0  0  0  0  0  0  0  0  0  0  0  0
    1.4120   56.1030   75.2230 C   0  0  0  0  0  0  0  0  0  0  0  0
    0.5320   55.7760   76.4440 C   0  0  0  0  0  0  0  0  0  0  0  0
    2.7770   56.5620   75.7450 C   0  0  0  0  0  0  0  0  0  0  0  0
    2.5200   54.2370   74.1510 O   0  0  0  0  0  1  0  0  0  0  0  0
    1.3980   54.7660   74.4060 C   0  0  0  0  0  0  0  0  0  0  0  0
    0.2470   54.3570   74.0630 O   0  0  0  0  0  0  0  0  0  0  0  0
    2.0921   56.4574   72.2656 H   0  0  0  0  0  0  0  0  0  0  0  0
    3.1228   58.1002   70.7076 H   0  0  0  0  0  0  0  0  0  0  0  0
    1.7125   61.3447   73.1886 H   0  0  0  0  0  0  0  0  0  0  0  0
    0.6913   59.6943   74.7386 H   0  0  0  0  0  0  0  0  0  0  0  0
    2.9410   60.4779   69.8599 H   0  0  0  0  0  0  0  0  0  0  0  0
    4.7745   61.1842   72.2189 H   0  0  0  0  0  0  0  0  0  0  0  0
    5.0933   60.0174   70.8768 H   0  0  0  0  0  0  0  0  0  0  0  0
    6.3206   62.1039   70.4910 H   0  0  0  0  0  0  0  0  0  0  0  0
    5.0270   61.8979   69.2566 H   0  0  0  0  0  0  0  0  0  0  0  0
    4.9936   63.6844   71.7289 H   0  0  0  0  0  0  0  0  0  0  0  0
    4.9502   64.1658   69.9719 H   0  0  0  0  0  0  0  0  0  0  0  0
    0.4064   61.3456   70.8929 H   0  0  0  0  0  0  0  0  0  0  0  0
   -0.7755   63.5303   70.8045 H   0  0  0  0  0  0  0  0  0  0  0  0
    0.5284   65.6522   70.6792 H   0  0  0  0  0  0  0  0  0  0  0  0
    3.0162   65.5787   70.6330 H   0  0  0  0  0  0  0  0  0  0  0  0
    1.0932   55.9845   77.3668 H   0  0  0  0  0  0  0  0  0  0  0  0
   -0.3757   56.3969   76.4186 H   0  0  0  0  0  0  0  0  0  0  0  0
    0.2500   54.7131   76.4186 H   0  0  0  0  0  0  0  0  0  0  0  0
    2.7688   56.5592   76.8450 H   0  0  0  0  0  0  0  0  0  0  0  0
    3.5575   55.8769   75.3824 H   0  0  0  0  0  0  0  0  0  0  0  0
    2.9850   57.5795   75.3824 H   0  0  0  0  0  0  0  0  0  0  0  0
  2  1  2  0
  3  2  1  0
  4  3  2  0
  5  4  1  0
  6  5  2  0
  6  1  1  0
  7  4  1  0
  8  7  1  0
  9  8  1  0
 10  9  1  0
 11 10  1  0
 12 11  2  0
 12  7  1  0
 13 12  1  0
 14 13  2  0
 15 14  1  0
 16 11  1  0
 16 15  2  0
 17  1  1  0
 18 17  1  0
 19 18  1  0
 20 18  1  0
 22 21  1  0
 22 18  1  0
 23 22  2  0
  2 24  1  0
  3 25  1  0
  5 26  1  0
  6 27  1  0
  7 28  1  6
  8 29  1  0
  8 30  1  0
  9 31  1  0
  9 32  1  0
 10 33  1  0
 10 34  1  0
 13 35  1  0
 14 36  1  0
 15 37  1  0
 16 38  1  0
 19 39  1  0
 19 40  1  0
 19 41  1  0
 20 42  1  0
 20 43  1  0
 20 44  1  0
M  CHG  1  21  -1
M  END
>  <score>  (7) 
-8.629

$$$$
=
     RDKit          3D

 44 46  0  0  0  0  0  0  0  0999 V2000
   -1.6420   61.4860   74.6620 C   0  0  0  0  0  0  0  0  0  0  0  0
   -1.6680   61.3690   73.2760 C   0  0  0  0  0  0  0  0  0  0  0  0
   -0.5190   61.6350   72.5200 C   0  0  0  0  0  0  0  0  0  0  0  0
    0.6800   62.0270   73.1360 C   0  0  0  0  0  0  0  0  0  0  0  0
    0.6970   62.1520   74.5300 C   0  0  0  0  0  0  0  0  0  0  0  0
   -0.4530   61.8850   75.2780 C   0  0  0  0  0  0  0  0  0  0  0  0
    1.9280   62.3400   72.3220 C   0  0  2  0  0  0  0  0  0  0  0  0
    1.6580   63.5750   71.4390 C   0  0  0  0  0  0  0  0  0  0  0  0
    2.8250   63.8330   70.4970 C   0  0  0  0  0  0  0  0  0  0  0  0
    2.9900   62.6590   69.5380 C   0  0  0  0  0  0  0  0  0  0  0  0
    3.0310   61.3260   70.2440 C   0  0  0  0  0  0  0  0  0  0  0  0
    2.5010   61.1580   71.5400 C   0  0  0  0  0  0  0  0  0  0  0  0
    2.5830   59.8880   72.1410 C   0  0  0  0  0  0  0  0  0  0  0  0
    3.1290   58.8010   71.4590 C   0  0  0  0  0  0  0  0  0  0  0  0
    3.6190   58.9670   70.1680 C   0  0  0  0  0  0  0  0  0  0  0  0
    3.5690   60.2220   69.5640 C   0  0  0  0  0  0  0  0  0  0  0  0
   -2.6690   61.2620   75.5290 O   0  0  0  0  0  0  0  0  0  0  0  0
   -3.2960   59.9590   75.6640 C   0  0  0  0  0  0  0  0  0  0  0  0
   -3.7190   59.8810   77.1430 C   0  0  0  0  0  0  0  0  0  0  0  0
   -2.2810   58.8390   75.4120 C   0  0  0  0  0  0  0  0  0  0  0  0
   -5.1410   58.6830   74.7550 O   0  0  0  0  0  1  0  0  0  0  0  0
   -4.6580   59.8440   74.8970 C   0  0  0  0  0  0  0  0  0  0  0  0
   -5.1320   60.9430   74.4750 O   0  0  0  0  0  0  0  0  0  0  0  0
   -2.5967   61.0657   72.7705 H   0  0  0  0  0  0  0  0  0  0  0  0
   -0.5569   61.5350   71.4252 H   0  0  0  0  0  0  0  0  0  0  0  0
    1.6210   62.4622   75.0399 H   0  0  0  0  0  0  0  0  0  0  0  0
   -0.4215   61.9910   76.3724 H   0  0  0  0  0  0  0  0  0  0  0  0
    2.7328   62.5709   73.0354 H   0  0  0  0  0  0  0  0  0  0  0  0
    0.7477   63.4021   70.8461 H   0  0  0  0  0  0  0  0  0  0  0  0
    1.5307   64.4523   72.0902 H   0  0  0  0  0  0  0  0  0  0  0  0
    2.6322   64.7499   69.9207 H   0  0  0  0  0  0  0  0  0  0  0  0
    3.7462   63.9500   71.0867 H   0  0  0  0  0  0  0  0  0  0  0  0
    2.1438   62.6582   68.8352 H   0  0  0  0  0  0  0  0  0  0  0  0
    3.9518   62.7882   69.0201 H   0  0  0  0  0  0  0  0  0  0  0  0
    2.2099   59.7504   73.1666 H   0  0  0  0  0  0  0  0  0  0  0  0
    3.1721   57.8134   71.9416 H   0  0  0  0  0  0  0  0  0  0  0  0
    4.0448   58.1102   69.6252 H   0  0  0  0  0  0  0  0  0  0  0  0
    3.9558   60.3490   68.5421 H   0  0  0  0  0  0  0  0  0  0  0  0
   -2.8404   60.0430   77.7847 H   0  0  0  0  0  0  0  0  0  0  0  0
   -4.4722   60.6554   77.3503 H   0  0  0  0  0  0  0  0  0  0  0  0
   -4.1465   58.8889   77.3503 H   0  0  0  0  0  0  0  0  0  0  0  0
   -1.9236   58.4446   76.3747 H   0  0  0  0  0  0  0  0  0  0  0  0
   -2.7609   58.0311   74.8402 H   0  0  0  0  0  0  0  0  0  0  0  0
   -1.4299   59.2373   74.8402 H   0  0  0  0  0  0  0  0  0  0  0  0
  2  1  2  0
  3  2  1  0
  4  3  2  0
  5  4  1  0
  6  5  2  0
  6  1  1  0
  7  4  1  0
  8  7  1  0
  9  8  1  0
 10  9  1  0
 11 10  1  0
 12 11  2  0
 12  7  1  0
 13 12  1  0
 14 13  2  0
 15 14  1  0
 16 11  1  0
 16 15  2  0
 17  1  1  0
 18 17  1  0
 19 18  1  0
 20 18  1  0
 22 21  1  0
 22 18  1  0
 23 22  2  0
  2 24  1  0
  3 25  1  0
  5 26  1  0
  6 27  1  0
  7 28  1  1
  8 29  1  0
  8 30  1  0
  9 31  1  0
  9 32  1  0
 10 33  1  0
 10 34  1  0
 13 35  1  0
 14 36  1  0
 15 37  1  0
 16 38  1  0
 19 39  1  0
 19 40  1  0
 19 41  1  0
 20 42  1  0
 20 43  1  0
 20 44  1  0
M  CHG  1  21  -1
M  END
>  <score>  (8) 
-8.611

$$$$
=
     RDKit          3D

 44 46  0  0  0  0  0  0  0  0999 V2000
    2.1800   61.7520   72.2150 C   0  0  0  0  0  0  0  0  0  0  0  0
    2.4140   60.6000   72.9580 C   0  0  0  0  0  0  0  0  0  0  0  0
    1.3430   59.8530   73.4650 C   0  0  0  0  0  0  0  0  0  0  0  0
    0.0140   60.2480   73.2420 C   0  0  0  0  0  0  0  0  0  0  0  0
   -0.2150   61.4140   72.5020 C   0  0  0  0  0  0  0  0  0  0  0  0
    0.8590   62.1530   71.9980 C   0  0  0  0  0  0  0  0  0  0  0  0
   -1.1570   59.4560   73.8080 C   0  0  2  0  0  0  0  0  0  0  0  0
   -1.8210   60.2730   74.9360 C   0  0  0  0  0  0  0  0  0  0  0  0
   -2.9000   59.4570   75.6320 C   0  0  0  0  0  0  0  0  0  0  0  0
   -2.2790   58.2390   76.3050 C   0  0  0  0  0  0  0  0  0  0  0  0
   -1.3890   57.4470   75.3800 C   0  0  0  0  0  0  0  0  0  0  0  0
   -0.8260   58.0220   74.2220 C   0  0  0  0  0  0  0  0  0  0  0  0
   -0.0120   57.2210   73.4000 C   0  0  0  0  0  0  0  0  0  0  0  0
    0.2790   55.9010   73.7410 C   0  0  0  0  0  0  0  0  0  0  0  0
   -0.2500   55.3500   74.9030 C   0  0  0  0  0  0  0  0  0  0  0  0
   -1.0790   56.1190   75.7180 C   0  0  0  0  0  0  0  0  0  0  0  0
    3.1100   62.5780   71.6570 O   0  0  0  0  0  0  0  0  0  0  0  0
    3.8780   62.1970   70.4840 C   0  0  0  0  0  0  0  0  0  0  0  0
    4.8890   63.3420   70.2910 C   0  0  0  0  0  0  0  0  0  0  0  0
    2.9840   62.1530   69.2410 C   0  0  0  0  0  0  0  0  0  0  0  0
    5.7360   61.0790   71.5580 O   0  0  0  0  0  1  0  0  0  0  0  0
    4.7940   60.9490   70.7220 C   0  0  0  0  0  0  0  0  0  0  0  0
    4.5030   59.9270   70.0280 O   0  0  0  0  0  0  0  0  0  0  0  0
    3.4469   60.2733   73.1488 H   0  0  0  0  0  0  0  0  0  0  0  0
    1.5463   58.9422   74.0473 H   0  0  0  0  0  0  0  0  0  0  0  0
   -1.2457   61.7504   72.3162 H   0  0  0  0  0  0  0  0  0  0  0  0
    0.6607   63.0674   71.4197 H   0  0  0  0  0  0  0  0  0  0  0  0
   -1.8778   59.3111   72.9898 H   0  0  0  0  0  0  0  0  0  0  0  0
   -1.0554   60.5602   75.6717 H   0  0  0  0  0  0  0  0  0  0  0  0
   -2.2850   61.1682   74.4963 H   0  0  0  0  0  0  0  0  0  0  0  0
   -3.3950   60.0801   76.3914 H   0  0  0  0  0  0  0  0  0  0  0  0
   -3.6365   59.1218   74.8869 H   0  0  0  0  0  0  0  0  0  0  0  0
   -1.6798   58.5792   77.1624 H   0  0  0  0  0  0  0  0  0  0  0  0
   -3.1018   57.5788   76.6166 H   0  0  0  0  0  0  0  0  0  0  0  0
    0.4018   57.6436   72.4725 H   0  0  0  0  0  0  0  0  0  0  0  0
    0.9272   55.2952   73.0908 H   0  0  0  0  0  0  0  0  0  0  0  0
   -0.0151   54.3111   75.1780 H   0  0  0  0  0  0  0  0  0  0  0  0
   -1.4956   55.6808   76.6370 H   0  0  0  0  0  0  0  0  0  0  0  0
    5.2158   63.7121   71.2739 H   0  0  0  0  0  0  0  0  0  0  0  0
    5.7600   62.9715   69.7306 H   0  0  0  0  0  0  0  0  0  0  0  0
    4.4135   64.1604   69.7306 H   0  0  0  0  0  0  0  0  0  0  0  0
    1.9294   62.1011   69.5495 H   0  0  0  0  0  0  0  0  0  0  0  0
    3.1461   63.0602   68.6404 H   0  0  0  0  0  0  0  0  0  0  0  0
    3.2344   61.2661   68.6404 H   0  0  0  0  0  0  0  0  0  0  0  0
  2  1  2  0
  3  2  1  0
  4  3  2  0
  5  4  1  0
  6  5  2  0
  6  1  1  0
  7  4  1  0
  8  7  1  0
  9  8  1  0
 10  9  1  0
 11 10  1  0
 12 11  2  0
 12  7  1  0
 13 12  1  0
 14 13  2  0
 15 14  1  0
 16 11  1  0
 16 15  2  0
 17  1  1  0
 18 17  1  0
 19 18  1  0
 20 18  1  0
 22 21  1  0
 22 18  1  0
 23 22  2  0
  2 24  1  0
  3 25  1  0
  5 26  1  0
  6 27  1  0
  7 28  1  6
  8 29  1  0
  8 30  1  0
  9 31  1  0
  9 32  1  0
 10 33  1  0
 10 34  1  0
 13 35  1  0
 14 36  1  0
 15 37  1  0
 16 38  1  0
 19 39  1  0
 19 40  1  0
 19 41  1  0
 20 42  1  0
 20 43  1  0
 20 44  1  0
M  CHG  1  21  -1
M  END
>  <score>  (9) 
-8.47

$$$$
