=
     RDKit          3D

 12 11  0  0  0  0  0  0  0  0999 V2000
    7.1770   70.9110   69.2440 C   0  0  0  0  0  0  0  0  0  0  0  0
    5.9600   71.4590   68.5590 C   0  0  0  0  0  0  0  0  0  0  0  0
    5.9270   72.5410   67.9890 O   0  0  0  0  0  0  0  0  0  0  0  0
    4.7130   70.5900   68.5990 C   0  0  0  0  0  0  0  0  0  0  0  0
    4.0890   70.4730   69.6440 O   0  0  0  0  0  0  0  0  0  0  0  0
    4.3280   69.9180   67.3140 C   0  0  0  0  0  0  0  0  0  0  0  0
    7.0427   70.9715   70.3341 H   0  0  0  0  0  0  0  0  0  0  0  0
    7.3216   69.8609   68.9501 H   0  0  0  0  0  0  0  0  0  0  0  0
    8.0591   71.4988   68.9501 H   0  0  0  0  0  0  0  0  0  0  0  0
    3.7924   68.9831   67.5353 H   0  0  0  0  0  0  0  0  0  0  0  0
    3.6754   70.5856   66.7323 H   0  0  0  0  0  0  0  0  0  0  0  0
    5.2340   69.6926   66.7323 H   0  0  0  0  0  0  0  0  0  0  0  0
  2  1  1  0
  3  2  2  0
  4  2  1  0
  5  4  2  0
  6  4  1  0
  1  7  1  0
  1  8  1  0
  1  9  1  0
  6 10  1  0
  6 11  1  0
  6 12  1  0
M  END
>  <score>  (1) 
-4.505

$$$$
=
     RDKit          3D

 12 11  0  0  0  0  0  0  0  0999 V2000
    5.6610   69.8630   66.2730 C   0  0  0  0  0  0  0  0  0  0  0  0
    5.1980   70.3810   67.6020 C   0  0  0  0  0  0  0  0  0  0  0  0
    4.1720   70.0130   68.1590 O   0  0  0  0  0  0  0  0  0  0  0  0
    6.0820   71.4250   68.2660 C   0  0  0  0  0  0  0  0  0  0  0  0
    5.8970   72.6120   68.0350 O   0  0  0  0  0  0  0  0  0  0  0  0
    7.1500   70.9070   69.1850 C   0  0  0  0  0  0  0  0  0  0  0  0
    6.3867   69.0511   66.4285 H   0  0  0  0  0  0  0  0  0  0  0  0
    4.7983   69.4804   65.7078 H   0  0  0  0  0  0  0  0  0  0  0  0
    6.1376   70.6775   65.7078 H   0  0  0  0  0  0  0  0  0  0  0  0
    6.8396   71.0575   70.2295 H   0  0  0  0  0  0  0  0  0  0  0  0
    7.3045   69.8338   68.9995 H   0  0  0  0  0  0  0  0  0  0  0  0
    8.0884   71.4501   68.9995 H   0  0  0  0  0  0  0  0  0  0  0  0
  2  1  1  0
  3  2  2  0
  4  2  1  0
  5  4  2  0
  6  4  1  0
  1  7  1  0
  1  8  1  0
  1  9  1  0
  6 10  1  0
  6 11  1  0
  6 12  1  0
M  END
>  <score>  (2) 
-4.479

$$$$
=
     RDKit          3D

 12 11  0  0  0  0  0  0  0  0999 V2000
    7.2170   70.9230   69.2080 C   0  0  0  0  0  0  0  0  0  0  0  0
    6.0530   71.4410   68.4150 C   0  0  0  0  0  0  0  0  0  0  0  0
    5.9650   72.5900   68.0040 O   0  0  0  0  0  0  0  0  0  0  0  0
    4.9370   70.4500   68.1250 C   0  0  0  0  0  0  0  0  0  0  0  0
    5.0210   69.7090   67.1550 O   0  0  0  0  0  0  0  0  0  0  0  0
    3.7790   70.4510   69.0790 C   0  0  0  0  0  0  0  0  0  0  0  0
    7.0007   71.0193   70.2822 H   0  0  0  0  0  0  0  0  0  0  0  0
    7.3866   69.8645   68.9615 H   0  0  0  0  0  0  0  0  0  0  0  0
    8.1169   71.5056   68.9615 H   0  0  0  0  0  0  0  0  0  0  0  0
    4.1554   70.4507   70.1126 H   0  0  0  0  0  0  0  0  0  0  0  0
    3.1671   71.3497   68.9119 H   0  0  0  0  0  0  0  0  0  0  0  0
    3.1655   69.5534   68.9119 H   0  0  0  0  0  0  0  0  0  0  0  0
  2  1  1  0
  3  2  2  0
  4  2  1  0
  5  4  2  0
  6  4  1  0
  1  7  1  0
  1  8  1  0
  1  9  1  0
  6 10  1  0
  6 11  1  0
  6 12  1  0
M  END
>  <score>  (3) 
-4.455

$$$$
=
     RDKit          3D

 12 11  0  0  0  0  0  0  0  0999 V2000
    3.5100   69.9480   67.8760 C   0  0  0  0  0  0  0  0  0  0  0  0
    4.5210   70.6070   68.7680 C   0  0  0  0  0  0  0  0  0  0  0  0
    4.4310   70.6470   69.9870 O   0  0  0  0  0  0  0  0  0  0  0  0
    5.7130   71.2510   68.0780 C   0  0  0  0  0  0  0  0  0  0  0  0
    5.8630   72.4640   68.1340 O   0  0  0  0  0  0  0  0  0  0  0  0
    6.6480   70.3250   67.3570 C   0  0  0  0  0  0  0  0  0  0  0  0
    2.7466   69.4504   68.4921 H   0  0  0  0  0  0  0  0  0  0  0  0
    3.0307   70.7077   67.2411 H   0  0  0  0  0  0  0  0  0  0  0  0
    4.0116   69.2029   67.2411 H   0  0  0  0  0  0  0  0  0  0  0  0
    7.2305   69.7481   68.0903 H   0  0  0  0  0  0  0  0  0  0  0  0
    6.0674   69.6359   66.7261 H   0  0  0  0  0  0  0  0  0  0  0  0
    7.3314   70.9122   66.7261 H   0  0  0  0  0  0  0  0  0  0  0  0
  2  1  1  0
  3  2  2  0
  4  2  1  0
  5  4  2  0
  6  4  1  0
  1  7  1  0
  1  8  1  0
  1  9  1  0
  6 10  1  0
  6 11  1  0
  6 12  1  0
M  END
>  <score>  (4) 
-4.187

$$$$
=
     RDKit          3D

 12 11  0  0  0  0  0  0  0  0999 V2000
    3.7890   63.8240   65.2080 C   0  0  0  0  0  0  0  0  0  0  0  0
    4.3260   64.2160   63.8630 C   0  0  0  0  0  0  0  0  0  0  0  0
    4.8310   63.4290   63.0740 O   0  0  0  0  0  0  0  0  0  0  0  0
    4.2200   65.6870   63.4950 C   0  0  0  0  0  0  0  0  0  0  0  0
    4.8540   66.1210   62.5420 O   0  0  0  0  0  0  0  0  0  0  0  0
    3.3180   66.5260   64.3520 C   0  0  0  0  0  0  0  0  0  0  0  0
    4.4087   64.2764   65.9963 H   0  0  0  0  0  0  0  0  0  0  0  0
    2.7528   64.1795   65.3069 H   0  0  0  0  0  0  0  0  0  0  0  0
    3.8119   62.7287   65.3069 H   0  0  0  0  0  0  0  0  0  0  0  0
    3.5313   66.3276   65.4127 H   0  0  0  0  0  0  0  0  0  0  0  0
    3.4925   67.5903   64.1357 H   0  0  0  0  0  0  0  0  0  0  0  0
    2.2691   66.2751   64.1357 H   0  0  0  0  0  0  0  0  0  0  0  0
  2  1  1  0
  3  2  2  0
  4  2  1  0
  5  4  2  0
  6  4  1  0
  1  7  1  0
  1  8  1  0
  1  9  1  0
  6 10  1  0
  6 11  1  0
  6 12  1  0
M  END
>  <score>  (5) 
-4.028

$$$$
=
     RDKit          3D

 12 11  0  0  0  0  0  0  0  0999 V2000
    3.2250   66.5020   64.3020 C   0  0  0  0  0  0  0  0  0  0  0  0
    4.1850   65.7360   63.4410 C   0  0  0  0  0  0  0  0  0  0  0  0
    4.6720   66.1720   62.4060 O   0  0  0  0  0  0  0  0  0  0  0  0
    4.5510   64.3380   63.9150 C   0  0  0  0  0  0  0  0  0  0  0  0
    5.4020   63.6970   63.3140 O   0  0  0  0  0  0  0  0  0  0  0  0
    3.8180   63.8300   65.1220 C   0  0  0  0  0  0  0  0  0  0  0  0
    3.4557   66.3179   65.3617 H   0  0  0  0  0  0  0  0  0  0  0  0
    3.3178   67.5770   64.0879 H   0  0  0  0  0  0  0  0  0  0  0  0
    2.1975   66.1729   64.0879 H   0  0  0  0  0  0  0  0  0  0  0  0
    4.3245   64.1810   66.0332 H   0  0  0  0  0  0  0  0  0  0  0  0
    2.7845   64.2065   65.1088 H   0  0  0  0  0  0  0  0  0  0  0  0
    3.8077   62.7301   65.1088 H   0  0  0  0  0  0  0  0  0  0  0  0
  2  1  1  0
  3  2  2  0
  4  2  1  0
  5  4  2  0
  6  4  1  0
  1  7  1  0
  1  8  1  0
  1  9  1  0
  6 10  1  0
  6 11  1  0
  6 12  1  0
M  END
>  <score>  (6) 
-4.021

$$$$
=
     RDKit          3D

 12 11  0  0  0  0  0  0  0  0999 V2000
    6.3020   70.9520   68.8390 C   0  0  0  0  0  0  0  0  0  0  0  0
    4.8480   70.5890   68.7760 C   0  0  0  0  0  0  0  0  0  0  0  0
    4.0630   70.7520   69.7000 O   0  0  0  0  0  0  0  0  0  0  0  0
    4.3570   69.9840   67.4690 C   0  0  0  0  0  0  0  0  0  0  0  0
    3.1950   69.6170   67.3700 O   0  0  0  0  0  0  0  0  0  0  0  0
    5.3660   69.8790   66.3630 C   0  0  0  0  0  0  0  0  0  0  0  0
    6.6152   71.0302   69.8906 H   0  0  0  0  0  0  0  0  0  0  0  0
    6.8961   70.1746   68.3363 H   0  0  0  0  0  0  0  0  0  0  0  0
    6.4610   71.9174   68.3363 H   0  0  0  0  0  0  0  0  0  0  0  0
    6.3727   69.7742   66.7938 H   0  0  0  0  0  0  0  0  0  0  0  0
    5.1395   68.9996   65.7423 H   0  0  0  0  0  0  0  0  0  0  0  0
    5.3254   70.7862   65.7423 H   0  0  0  0  0  0  0  0  0  0  0  0
  2  1  1  0
  3  2  2  0
  4  2  1  0
  5  4  2  0
  6  4  1  0
  1  7  1  0
  1  8  1  0
  1  9  1  0
  6 10  1  0
  6 11  1  0
  6 12  1  0
M  END
>  <score>  (7) 
-3.908

$$$$
=
     RDKit          3D

 12 11  0  0  0  0  0  0  0  0999 V2000
    4.0370   63.7870   64.8990 C   0  0  0  0  0  0  0  0  0  0  0  0
    3.8000   64.9290   63.9560 C   0  0  0  0  0  0  0  0  0  0  0  0
    4.1810   64.9450   62.7940 O   0  0  0  0  0  0  0  0  0  0  0  0
    3.0390   66.1210   64.5160 C   0  0  0  0  0  0  0  0  0  0  0  0
    2.0200   65.9370   65.1680 O   0  0  0  0  0  0  0  0  0  0  0  0
    3.6090   67.4760   64.2180 C   0  0  0  0  0  0  0  0  0  0  0  0
    3.9624   64.1463   65.9360 H   0  0  0  0  0  0  0  0  0  0  0  0
    3.2818   63.0061   64.7263 H   0  0  0  0  0  0  0  0  0  0  0  0
    5.0406   63.3711   64.7263 H   0  0  0  0  0  0  0  0  0  0  0  0
    3.8282   67.9972   65.1616 H   0  0  0  0  0  0  0  0  0  0  0  0
    4.5363   67.3640   63.6369 H   0  0  0  0  0  0  0  0  0  0  0  0
    2.8805   68.0605   63.6369 H   0  0  0  0  0  0  0  0  0  0  0  0
  2  1  1  0
  3  2  2  0
  4  2  1  0
  5  4  2  0
  6  4  1  0
  1  7  1  0
  1  8  1  0
  1  9  1  0
  6 10  1  0
  6 11  1  0
  6 12  1  0
M  END
>  <score>  (8) 
-3.714

$$$$
=
     RDKit          3D

 12 11  0  0  0  0  0  0  0  0999 V2000
    3.2920   69.4380   66.9860 C   0  0  0  0  0  0  0  0  0  0  0  0
    4.6580   69.7970   66.4770 C   0  0  0  0  0  0  0  0  0  0  0  0
    4.9760   69.7670   65.2960 O   0  0  0  0  0  0  0  0  0  0  0  0
    5.6800   70.2160   67.5220 C   0  0  0  0  0  0  0  0  0  0  0  0
    6.8740   70.1230   67.2730 O   0  0  0  0  0  0  0  0  0  0  0  0
    5.1330   70.7300   68.8210 C   0  0  0  0  0  0  0  0  0  0  0  0
    3.2984   69.4397   68.0860 H   0  0  0  0  0  0  0  0  0  0  0  0
    2.5601   70.1743   66.6225 H   0  0  0  0  0  0  0  0  0  0  0  0
    3.0166   68.4370   66.6225 H   0  0  0  0  0  0  0  0  0  0  0  0
    5.6537   70.2407   69.6573 H   0  0  0  0  0  0  0  0  0  0  0  0
    5.2872   71.8176   68.8790 H   0  0  0  0  0  0  0  0  0  0  0  0
    4.0571   70.5086   68.8790 H   0  0  0  0  0  0  0  0  0  0  0  0
  2  1  1  0
  3  2  2  0
  4  2  1  0
  5  4  2  0
  6  4  1  0
  1  7  1  0
  1  8  1  0
  1  9  1  0
  6 10  1  0
  6 11  1  0
  6 12  1  0
M  END
>  <score>  (9) 
-3.671

$$$$
