=
     RDKit          3D

 23 24  0  0  0  0  0  0  0  0999 V2000
    2.8080   70.1500   68.5750 O   0  0  0  0  0  0  0  0  0  0  0  0
    4.0160   70.2570   68.4280 C   0  0  0  0  0  0  0  0  0  0  0  0
    4.9620   70.6740   69.5140 C   0  0  0  0  0  0  0  0  0  0  0  0
    6.2680   70.6340   68.7920 C   0  0  0  0  0  0  0  0  0  0  0  0
    6.1790   70.2790   67.5500 N   0  0  0  0  0  0  0  0  0  0  0  0
    4.8350   70.0470   67.3070 N   0  0  0  0  0  0  0  0  0  0  0  0
    7.5490   70.9790   69.4690 C   0  0  0  0  0  0  0  0  0  0  0  0
    4.4430   69.6380   66.0060 C   0  0  0  0  0  0  0  0  0  0  0  0
    5.3160   69.7050   64.9130 C   0  0  0  0  0  0  0  0  0  0  0  0
    4.9080   69.2960   63.6380 C   0  0  0  0  0  0  0  0  0  0  0  0
    3.6170   68.8140   63.4370 C   0  0  0  0  0  0  0  0  0  0  0  0
    2.7350   68.7400   64.5090 C   0  0  0  0  0  0  0  0  0  0  0  0
    3.1450   69.1500   65.7810 C   0  0  0  0  0  0  0  0  0  0  0  0
    4.7346   71.6861   69.8801 H   0  0  0  0  0  0  0  0  0  0  0  0
    4.9238   70.0418   70.4134 H   0  0  0  0  0  0  0  0  0  0  0  0
    7.4092   70.9413   70.5594 H   0  0  0  0  0  0  0  0  0  0  0  0
    8.3255   70.2580   69.1738 H   0  0  0  0  0  0  0  0  0  0  0  0
    7.8584   71.9925   69.1738 H   0  0  0  0  0  0  0  0  0  0  0  0
    6.3380   70.0849   65.0587 H   0  0  0  0  0  0  0  0  0  0  0  0
    5.6091   69.3555   62.7924 H   0  0  0  0  0  0  0  0  0  0  0  0
    3.2967   68.4933   62.4347 H   0  0  0  0  0  0  0  0  0  0  0  0
    1.7145   68.3588   64.3563 H   0  0  0  0  0  0  0  0  0  0  0  0
    2.4380   69.0894   66.6215 H   0  0  0  0  0  0  0  0  0  0  0  0
  2  1  2  0
  3  2  1  0
  4  3  1  0
  5  4  2  0
  6  2  1  0
  6  5  1  0
  7  4  1  0
  8  6  1  0
  9  8  2  0
 10  9  1  0
 11 10  2  0
 12 11  1  0
 13 12  2  0
 13  8  1  0
  3 14  1  0
  3 15  1  0
  7 16  1  0
  7 17  1  0
  7 18  1  0
  9 19  1  0
 10 20  1  0
 11 21  1  0
 12 22  1  0
 13 23  1  0
M  END
>  <score>  (1) 
-8.189

$$$$
=
     RDKit          3D

 23 24  0  0  0  0  0  0  0  0999 V2000
    1.9750   68.9250   66.3800 O   0  0  0  0  0  0  0  0  0  0  0  0
    2.8720   69.0480   65.5620 C   0  0  0  0  0  0  0  0  0  0  0  0
    2.7350   68.7160   64.1060 C   0  0  0  0  0  0  0  0  0  0  0  0
    4.0990   69.0500   63.6020 C   0  0  0  0  0  0  0  0  0  0  0  0
    4.9100   69.4880   64.5110 N   0  0  0  0  0  0  0  0  0  0  0  0
    4.1960   69.4960   65.6980 N   0  0  0  0  0  0  0  0  0  0  0  0
    4.4690   68.8830   62.1690 C   0  0  0  0  0  0  0  0  0  0  0  0
    4.8490   69.9370   66.8780 C   0  0  0  0  0  0  0  0  0  0  0  0
    4.1480   70.1840   68.0650 C   0  0  0  0  0  0  0  0  0  0  0  0
    4.8130   70.6190   69.2180 C   0  0  0  0  0  0  0  0  0  0  0  0
    6.1910   70.8150   69.2000 C   0  0  0  0  0  0  0  0  0  0  0  0
    6.9050   70.5760   68.0320 C   0  0  0  0  0  0  0  0  0  0  0  0
    6.2390   70.1410   66.8810 C   0  0  0  0  0  0  0  0  0  0  0  0
    2.4992   67.6521   63.9557 H   0  0  0  0  0  0  0  0  0  0  0  0
    1.9216   69.2525   63.5956 H   0  0  0  0  0  0  0  0  0  0  0  0
    5.4696   68.4314   62.0989 H   0  0  0  0  0  0  0  0  0  0  0  0
    3.7359   68.2285   61.6749 H   0  0  0  0  0  0  0  0  0  0  0  0
    4.4748   69.8658   61.6749 H   0  0  0  0  0  0  0  0  0  0  0  0
    3.0586   70.0340   68.0920 H   0  0  0  0  0  0  0  0  0  0  0  0
    4.2446   70.8064   70.1409 H   0  0  0  0  0  0  0  0  0  0  0  0
    6.7123   71.1575   70.1061 H   0  0  0  0  0  0  0  0  0  0  0  0
    7.9941   70.7289   68.0124 H   0  0  0  0  0  0  0  0  0  0  0  0
    6.8141   69.9554   65.9619 H   0  0  0  0  0  0  0  0  0  0  0  0
  2  1  2  0
  3  2  1  0
  4  3  1  0
  5  4  2  0
  6  2  1  0
  6  5  1  0
  7  4  1  0
  8  6  1  0
  9  8  2  0
 10  9  1  0
 11 10  2  0
 12 11  1  0
 13 12  2  0
 13  8  1  0
  3 14  1  0
  3 15  1  0
  7 16  1  0
  7 17  1  0
  7 18  1  0
  9 19  1  0
 10 20  1  0
 11 21  1  0
 12 22  1  0
 13 23  1  0
M  END
>  <score>  (2) 
-8.132

$$$$
=
     RDKit          3D

 23 24  0  0  0  0  0  0  0  0999 V2000
    5.6340   69.7760   63.8730 O   0  0  0  0  0  0  0  0  0  0  0  0
    4.5730   69.4470   64.3810 C   0  0  0  0  0  0  0  0  0  0  0  0
    3.4120   68.8850   63.6160 C   0  0  0  0  0  0  0  0  0  0  0  0
    2.4190   68.6730   64.7090 C   0  0  0  0  0  0  0  0  0  0  0  0
    2.8410   69.0160   65.8850 N   0  0  0  0  0  0  0  0  0  0  0  0
    4.1330   69.4850   65.7140 N   0  0  0  0  0  0  0  0  0  0  0  0
    1.0660   68.1140   64.4430 C   0  0  0  0  0  0  0  0  0  0  0  0
    4.8470   69.9340   66.8540 C   0  0  0  0  0  0  0  0  0  0  0  0
    6.2360   70.1120   66.8370 C   0  0  0  0  0  0  0  0  0  0  0  0
    6.9200   70.5560   67.9750 C   0  0  0  0  0  0  0  0  0  0  0  0
    6.2240   70.8290   69.1490 C   0  0  0  0  0  0  0  0  0  0  0  0
    4.8450   70.6590   69.1870 C   0  0  0  0  0  0  0  0  0  0  0  0
    4.1630   70.2150   68.0490 C   0  0  0  0  0  0  0  0  0  0  0  0
    3.0399   69.5989   62.8664 H   0  0  0  0  0  0  0  0  0  0  0  0
    3.6482   67.9787   63.0390 H   0  0  0  0  0  0  0  0  0  0  0  0
    0.5612   67.9054   65.3978 H   0  0  0  0  0  0  0  0  0  0  0  0
    0.4753   68.8417   63.8673 H   0  0  0  0  0  0  0  0  0  0  0  0
    1.1612   67.1816   63.8673 H   0  0  0  0  0  0  0  0  0  0  0  0
    6.7981   69.8997   65.9156 H   0  0  0  0  0  0  0  0  0  0  0  0
    8.0113   70.6896   67.9412 H   0  0  0  0  0  0  0  0  0  0  0  0
    6.7627   71.1776   70.0425 H   0  0  0  0  0  0  0  0  0  0  0  0
    4.2898   70.8736   70.1120 H   0  0  0  0  0  0  0  0  0  0  0  0
    3.0717   70.0835   68.0904 H   0  0  0  0  0  0  0  0  0  0  0  0
  2  1  2  0
  3  2  1  0
  4  3  1  0
  5  4  2  0
  6  2  1  0
  6  5  1  0
  7  4  1  0
  8  6  1  0
  9  8  2  0
 10  9  1  0
 11 10  2  0
 12 11  1  0
 13 12  2  0
 13  8  1  0
  3 14  1  0
  3 15  1  0
  7 16  1  0
  7 17  1  0
  7 18  1  0
  9 19  1  0
 10 20  1  0
 11 21  1  0
 12 22  1  0
 13 23  1  0
M  END
>  <score>  (3) 
-8.06

$$$$
=
     RDKit          3D

 23 24  0  0  0  0  0  0  0  0999 V2000
    0.0990   66.5190   68.4770 O   0  0  0  0  0  0  0  0  0  0  0  0
   -0.4260   67.3060   67.7050 C   0  0  0  0  0  0  0  0  0  0  0  0
   -1.8820   67.2910   67.3480 C   0  0  0  0  0  0  0  0  0  0  0  0
   -1.9600   68.4380   66.3960 C   0  0  0  0  0  0  0  0  0  0  0  0
   -0.8310   69.0400   66.1940 N   0  0  0  0  0  0  0  0  0  0  0  0
    0.1070   68.3770   66.9690 N   0  0  0  0  0  0  0  0  0  0  0  0
   -3.2410   68.8350   65.7490 C   0  0  0  0  0  0  0  0  0  0  0  0
    1.4500   68.8310   66.9410 C   0  0  0  0  0  0  0  0  0  0  0  0
    2.0550   69.4280   68.0540 C   0  0  0  0  0  0  0  0  0  0  0  0
    3.3830   69.8690   68.0030 C   0  0  0  0  0  0  0  0  0  0  0  0
    4.1270   69.7190   66.8370 C   0  0  0  0  0  0  0  0  0  0  0  0
    3.5450   69.1300   65.7200 C   0  0  0  0  0  0  0  0  0  0  0  0
    2.2190   68.6900   65.7730 C   0  0  0  0  0  0  0  0  0  0  0  0
   -2.1685   66.3456   66.8642 H   0  0  0  0  0  0  0  0  0  0  0  0
   -2.5589   67.3743   68.2110 H   0  0  0  0  0  0  0  0  0  0  0  0
   -3.9869   69.0662   66.5238 H   0  0  0  0  0  0  0  0  0  0  0  0
   -3.0754   69.7240   65.1226 H   0  0  0  0  0  0  0  0  0  0  0  0
   -3.6071   68.0082   65.1226 H   0  0  0  0  0  0  0  0  0  0  0  0
    1.4782   69.5524   68.9824 H   0  0  0  0  0  0  0  0  0  0  0  0
    3.8397   70.3358   68.8882 H   0  0  0  0  0  0  0  0  0  0  0  0
    5.1706   70.0647   66.7990 H   0  0  0  0  0  0  0  0  0  0  0  0
    4.1278   69.0102   64.7948 H   0  0  0  0  0  0  0  0  0  0  0  0
    1.7690   68.2246   64.8837 H   0  0  0  0  0  0  0  0  0  0  0  0
  2  1  2  0
  3  2  1  0
  4  3  1  0
  5  4  2  0
  6  2  1  0
  6  5  1  0
  7  4  1  0
  8  6  1  0
  9  8  2  0
 10  9  1  0
 11 10  2  0
 12 11  1  0
 13 12  2  0
 13  8  1  0
  3 14  1  0
  3 15  1  0
  7 16  1  0
  7 17  1  0
  7 18  1  0
  9 19  1  0
 10 20  1  0
 11 21  1  0
 12 22  1  0
 13 23  1  0
M  END
>  <score>  (4) 
-7.878

$$$$
=
     RDKit          3D

 23 24  0  0  0  0  0  0  0  0999 V2000
    3.1920   69.1850   64.3150 O   0  0  0  0  0  0  0  0  0  0  0  0
    2.5740   68.9410   65.3390 C   0  0  0  0  0  0  0  0  0  0  0  0
    1.2200   68.2980   65.3720 C   0  0  0  0  0  0  0  0  0  0  0  0
    0.9570   68.2470   66.8400 C   0  0  0  0  0  0  0  0  0  0  0  0
    1.9100   68.7370   67.5680 N   0  0  0  0  0  0  0  0  0  0  0  0
    2.8930   69.1610   66.6890 N   0  0  0  0  0  0  0  0  0  0  0  0
   -0.3010   67.6750   67.3920 C   0  0  0  0  0  0  0  0  0  0  0  0
    4.0690   69.7480   67.2210 C   0  0  0  0  0  0  0  0  0  0  0  0
    4.0970   70.3320   68.4940 C   0  0  0  0  0  0  0  0  0  0  0  0
    5.2700   70.9060   68.9990 C   0  0  0  0  0  0  0  0  0  0  0  0
    6.4350   70.9050   68.2370 C   0  0  0  0  0  0  0  0  0  0  0  0
    6.4290   70.3300   66.9710 C   0  0  0  0  0  0  0  0  0  0  0  0
    5.2560   69.7580   66.4680 C   0  0  0  0  0  0  0  0  0  0  0  0
    0.4704   68.9105   64.8495 H   0  0  0  0  0  0  0  0  0  0  0  0
    1.1733   67.3196   64.8715 H   0  0  0  0  0  0  0  0  0  0  0  0
   -0.2608   67.6933   68.4911 H   0  0  0  0  0  0  0  0  0  0  0  0
   -1.1578   68.2720   67.0465 H   0  0  0  0  0  0  0  0  0  0  0  0
   -0.4143   66.6368   67.0465 H   0  0  0  0  0  0  0  0  0  0  0  0
    3.1833   70.3397   69.1064 H   0  0  0  0  0  0  0  0  0  0  0  0
    5.2710   71.3593   70.0013 H   0  0  0  0  0  0  0  0  0  0  0  0
    7.3558   71.3569   68.6345 H   0  0  0  0  0  0  0  0  0  0  0  0
    7.3470   70.3250   66.3650 H   0  0  0  0  0  0  0  0  0  0  0  0
    5.2624   69.3076   65.4645 H   0  0  0  0  0  0  0  0  0  0  0  0
  2  1  2  0
  3  2  1  0
  4  3  1  0
  5  4  2  0
  6  2  1  0
  6  5  1  0
  7  4  1  0
  8  6  1  0
  9  8  2  0
 10  9  1  0
 11 10  2  0
 12 11  1  0
 13 12  2  0
 13  8  1  0
  3 14  1  0
  3 15  1  0
  7 16  1  0
  7 17  1  0
  7 18  1  0
  9 19  1  0
 10 20  1  0
 11 21  1  0
 12 22  1  0
 13 23  1  0
M  END
>  <score>  (5) 
-7.631

$$$$
=
     RDKit          3D

 23 24  0  0  0  0  0  0  0  0999 V2000
   -0.6730   68.7270   64.8070 O   0  0  0  0  0  0  0  0  0  0  0  0
   -0.2260   68.2460   65.8360 C   0  0  0  0  0  0  0  0  0  0  0  0
   -1.0680   67.6210   66.9090 C   0  0  0  0  0  0  0  0  0  0  0  0
   -0.0260   67.2170   67.8980 C   0  0  0  0  0  0  0  0  0  0  0  0
    1.1850   67.5110   67.5450 N   0  0  0  0  0  0  0  0  0  0  0  0
    1.0910   68.1300   66.3090 N   0  0  0  0  0  0  0  0  0  0  0  0
   -0.3780   66.5360   69.1740 C   0  0  0  0  0  0  0  0  0  0  0  0
    2.2850   68.5640   65.6770 C   0  0  0  0  0  0  0  0  0  0  0  0
    2.4930   68.4090   64.3010 C   0  0  0  0  0  0  0  0  0  0  0  0
    3.6800   68.8450   63.6980 C   0  0  0  0  0  0  0  0  0  0  0  0
    4.6760   69.4420   64.4640 C   0  0  0  0  0  0  0  0  0  0  0  0
    4.4890   69.6050   65.8320 C   0  0  0  0  0  0  0  0  0  0  0  0
    3.3040   69.1690   66.4320 C   0  0  0  0  0  0  0  0  0  0  0  0
   -1.7738   68.3458   67.3407 H   0  0  0  0  0  0  0  0  0  0  0  0
   -1.7031   66.7936   66.5595 H   0  0  0  0  0  0  0  0  0  0  0  0
   -0.0565   67.1580   70.0224 H   0  0  0  0  0  0  0  0  0  0  0  0
   -1.4667   66.3858   69.2213 H   0  0  0  0  0  0  0  0  0  0  0  0
    0.1291   65.5610   69.2213 H   0  0  0  0  0  0  0  0  0  0  0  0
    1.7131   67.9381   63.6846 H   0  0  0  0  0  0  0  0  0  0  0  0
    3.8249   68.7149   62.6154 H   0  0  0  0  0  0  0  0  0  0  0  0
    5.6076   69.7837   63.9893 H   0  0  0  0  0  0  0  0  0  0  0  0
    5.2733   70.0769   66.4421 H   0  0  0  0  0  0  0  0  0  0  0  0
    3.1667   69.3020   67.5153 H   0  0  0  0  0  0  0  0  0  0  0  0
  2  1  2  0
  3  2  1  0
  4  3  1  0
  5  4  2  0
  6  2  1  0
  6  5  1  0
  7  4  1  0
  8  6  1  0
  9  8  2  0
 10  9  1  0
 11 10  2  0
 12 11  1  0
 13 12  2  0
 13  8  1  0
  3 14  1  0
  3 15  1  0
  7 16  1  0
  7 17  1  0
  7 18  1  0
  9 19  1  0
 10 20  1  0
 11 21  1  0
 12 22  1  0
 13 23  1  0
M  END
>  <score>  (6) 
-7.436

$$$$
=
     RDKit          3D

 23 24  0  0  0  0  0  0  0  0999 V2000
    5.0120   67.2110   64.2530 O   0  0  0  0  0  0  0  0  0  0  0  0
    3.9330   67.7810   64.1980 C   0  0  0  0  0  0  0  0  0  0  0  0
    2.8930   67.5140   63.1520 C   0  0  0  0  0  0  0  0  0  0  0  0
    1.8180   68.4640   63.5610 C   0  0  0  0  0  0  0  0  0  0  0  0
    2.1000   69.1660   64.6120 N   0  0  0  0  0  0  0  0  0  0  0  0
    3.3670   68.7740   65.0130 N   0  0  0  0  0  0  0  0  0  0  0  0
    0.5390   68.5740   62.8070 C   0  0  0  0  0  0  0  0  0  0  0  0
    3.9360   69.3900   66.1570 C   0  0  0  0  0  0  0  0  0  0  0  0
    3.2070   69.5750   67.3390 C   0  0  0  0  0  0  0  0  0  0  0  0
    3.7890   70.1860   68.4560 C   0  0  0  0  0  0  0  0  0  0  0  0
    5.1100   70.6220   68.4080 C   0  0  0  0  0  0  0  0  0  0  0  0
    5.8510   70.4480   67.2440 C   0  0  0  0  0  0  0  0  0  0  0  0
    5.2670   69.8380   66.1290 C   0  0  0  0  0  0  0  0  0  0  0  0
    3.2686   67.7407   62.1433 H   0  0  0  0  0  0  0  0  0  0  0  0
    2.5695   66.4642   63.0955 H   0  0  0  0  0  0  0  0  0  0  0  0
   -0.2993   68.6461   63.5155 H   0  0  0  0  0  0  0  0  0  0  0  0
    0.5626   69.4734   62.1742 H   0  0  0  0  0  0  0  0  0  0  0  0
    0.4087   67.6837   62.1742 H   0  0  0  0  0  0  0  0  0  0  0  0
    2.1621   69.2352   67.3901 H   0  0  0  0  0  0  0  0  0  0  0  0
    3.2001   70.3221   69.3751 H   0  0  0  0  0  0  0  0  0  0  0  0
    5.5658   71.1019   69.2866 H   0  0  0  0  0  0  0  0  0  0  0  0
    6.8956   70.7899   67.2003 H   0  0  0  0  0  0  0  0  0  0  0  0
    5.8613   69.7066   65.2128 H   0  0  0  0  0  0  0  0  0  0  0  0
  2  1  2  0
  3  2  1  0
  4  3  1  0
  5  4  2  0
  6  2  1  0
  6  5  1  0
  7  4  1  0
  8  6  1  0
  9  8  2  0
 10  9  1  0
 11 10  2  0
 12 11  1  0
 13 12  2  0
 13  8  1  0
  3 14  1  0
  3 15  1  0
  7 16  1  0
  7 17  1  0
  7 18  1  0
  9 19  1  0
 10 20  1  0
 11 21  1  0
 12 22  1  0
 13 23  1  0
M  END
>  <score>  (7) 
-7.433

$$$$
=
     RDKit          3D

 23 24  0  0  0  0  0  0  0  0999 V2000
    1.2670   67.3740   66.0180 O   0  0  0  0  0  0  0  0  0  0  0  0
    1.9780   67.9100   65.1840 C   0  0  0  0  0  0  0  0  0  0  0  0
    1.8710   67.6710   63.7070 C   0  0  0  0  0  0  0  0  0  0  0  0
    2.9520   68.5600   63.1890 C   0  0  0  0  0  0  0  0  0  0  0  0
    3.5930   69.2100   64.1090 N   0  0  0  0  0  0  0  0  0  0  0  0
    3.0270   68.8360   65.3160 N   0  0  0  0  0  0  0  0  0  0  0  0
    3.2460   68.6720   61.7340 C   0  0  0  0  0  0  0  0  0  0  0  0
    3.5420   69.4020   66.5100 C   0  0  0  0  0  0  0  0  0  0  0  0
    4.8740   69.8210   66.6170 C   0  0  0  0  0  0  0  0  0  0  0  0
    5.3610   70.3780   67.8060 C   0  0  0  0  0  0  0  0  0  0  0  0
    4.5220   70.5240   68.9070 C   0  0  0  0  0  0  0  0  0  0  0  0
    3.1960   70.1150   68.8210 C   0  0  0  0  0  0  0  0  0  0  0  0
    2.7120   69.5580   67.6330 C   0  0  0  0  0  0  0  0  0  0  0  0
    2.0605   66.6172   63.4546 H   0  0  0  0  0  0  0  0  0  0  0  0
    0.8758   67.8797   63.2874 H   0  0  0  0  0  0  0  0  0  0  0  0
    4.2657   69.0604   61.5948 H   0  0  0  0  0  0  0  0  0  0  0  0
    3.1645   67.6799   61.2660 H   0  0  0  0  0  0  0  0  0  0  0  0
    2.5251   69.3585   61.2660 H   0  0  0  0  0  0  0  0  0  0  0  0
    5.5476   69.7110   65.7544 H   0  0  0  0  0  0  0  0  0  0  0  0
    6.4105   70.7013   67.8701 H   0  0  0  0  0  0  0  0  0  0  0  0
    4.9062   70.9608   69.8406 H   0  0  0  0  0  0  0  0  0  0  0  0
    2.5277   70.2295   69.6872 H   0  0  0  0  0  0  0  0  0  0  0  0
    1.6617   69.2359   67.5767 H   0  0  0  0  0  0  0  0  0  0  0  0
  2  1  2  0
  3  2  1  0
  4  3  1  0
  5  4  2  0
  6  2  1  0
  6  5  1  0
  7  4  1  0
  8  6  1  0
  9  8  2  0
 10  9  1  0
 11 10  2  0
 12 11  1  0
 13 12  2  0
 13  8  1  0
  3 14  1  0
  3 15  1  0
  7 16  1  0
  7 17  1  0
  7 18  1  0
  9 19  1  0
 10 20  1  0
 11 21  1  0
 12 22  1  0
 13 23  1  0
M  END
>  <score>  (8) 
-7.424

$$$$
=
     RDKit          3D

 23 24  0  0  0  0  0  0  0  0999 V2000
    2.4440   68.2740   64.6740 O   0  0  0  0  0  0  0  0  0  0  0  0
    2.6200   68.7650   65.7780 C   0  0  0  0  0  0  0  0  0  0  0  0
    3.8910   69.4350   66.2080 C   0  0  0  0  0  0  0  0  0  0  0  0
    3.5520   69.8320   67.6060 C   0  0  0  0  0  0  0  0  0  0  0  0
    2.3570   69.4990   67.9780 N   0  0  0  0  0  0  0  0  0  0  0  0
    1.7770   68.8560   66.8970 N   0  0  0  0  0  0  0  0  0  0  0  0
    4.5240   70.5490   68.4760 C   0  0  0  0  0  0  0  0  0  0  0  0
    0.4480   68.3770   67.0270 C   0  0  0  0  0  0  0  0  0  0  0  0
   -0.5990   68.8740   66.2410 C   0  0  0  0  0  0  0  0  0  0  0  0
   -1.9040   68.3870   66.3870 C   0  0  0  0  0  0  0  0  0  0  0  0
   -2.1810   67.3940   67.3220 C   0  0  0  0  0  0  0  0  0  0  0  0
   -1.1550   66.8870   68.1120 C   0  0  0  0  0  0  0  0  0  0  0  0
    0.1470   67.3760   67.9650 C   0  0  0  0  0  0  0  0  0  0  0  0
    4.7422   68.7388   66.1820 H   0  0  0  0  0  0  0  0  0  0  0  0
    4.2002   70.2714   65.5640 H   0  0  0  0  0  0  0  0  0  0  0  0
    4.2756   70.3658   69.5318 H   0  0  0  0  0  0  0  0  0  0  0  0
    5.5405   70.1827   68.2695 H   0  0  0  0  0  0  0  0  0  0  0  0
    4.4742   71.6283   68.2695 H   0  0  0  0  0  0  0  0  0  0  0  0
   -0.3934   69.6585   65.4979 H   0  0  0  0  0  0  0  0  0  0  0  0
   -2.7129   68.7908   65.7604 H   0  0  0  0  0  0  0  0  0  0  0  0
   -3.2063   67.0121   67.4355 H   0  0  0  0  0  0  0  0  0  0  0  0
   -1.3674   66.1016   68.8523 H   0  0  0  0  0  0  0  0  0  0  0  0
    0.9507   66.9688   68.5961 H   0  0  0  0  0  0  0  0  0  0  0  0
  2  1  2  0
  3  2  1  0
  4  3  1  0
  5  4  2  0
  6  2  1  0
  6  5  1  0
  7  4  1  0
  8  6  1  0
  9  8  2  0
 10  9  1  0
 11 10  2  0
 12 11  1  0
 13 12  2  0
 13  8  1  0
  3 14  1  0
  3 15  1  0
  7 16  1  0
  7 17  1  0
  7 18  1  0
  9 19  1  0
 10 20  1  0
 11 21  1  0
 12 22  1  0
 13 23  1  0
M  END
>  <score>  (9) 
-7.266

$$$$
