=
     RDKit          3D

 29 29  0  0  0  0  0  0  0  0999 V2000
    1.4050   69.1180   66.9540 C   0  0  0  0  0  0  0  0  0  0  0  0
    2.8890   69.4440   66.8840 C   0  0  0  0  0  0  0  0  0  0  0  0
    3.6120   69.2340   65.6950 C   0  0  0  0  0  0  0  0  0  0  0  0
    4.9790   69.5170   65.6290 C   0  0  0  0  0  0  0  0  0  0  0  0
    5.6230   70.0140   66.7510 C   0  0  0  0  0  0  0  0  0  0  0  0
    4.9190   70.2310   67.9310 C   0  0  0  0  0  0  0  0  0  0  0  0
    3.5630   69.9410   68.0080 C   0  0  0  0  0  0  0  0  0  0  0  0
    5.6000   70.7400   69.0060 O   0  0  0  0  0  0  0  0  0  0  0  0
    6.9570   70.2990   66.6960 O   0  0  0  0  0  0  0  0  0  0  0  0
    1.0110   67.6290   67.1860 C   0  0  1  0  0  0  0  0  0  0  0  0
    1.2080   67.3190   68.6850 C   0  0  0  0  0  0  0  0  0  0  0  0
   -0.5460   67.3780   66.9760 C   0  0  0  0  0  0  0  0  0  0  0  0
   -1.0980   66.5880   67.8000 O   0  0  0  0  0  0  0  0  0  0  0  0
   -1.0830   67.9320   65.9650 O   0  0  0  0  0  1  0  0  0  0  0  0
    1.8970   66.7580   66.3340 N   0  0  0  0  0  0  0  0  0  0  0  0
    1.2820   66.3580   65.0810 N   0  0  0  0  0  0  0  0  0  0  0  0
    0.9761   69.7057   67.7790 H   0  0  0  0  0  0  0  0  0  0  0  0
    1.0150   69.3609   65.9546 H   0  0  0  0  0  0  0  0  0  0  0  0
    3.0948   68.8423   64.8067 H   0  0  0  0  0  0  0  0  0  0  0  0
    5.5376   69.3471   64.6968 H   0  0  0  0  0  0  0  0  0  0  0  0
    3.0184   70.1012   68.9502 H   0  0  0  0  0  0  0  0  0  0  0  0
    5.1259   70.9051   69.8593 H   0  0  0  0  0  0  0  0  0  0  0  0
    7.4207   70.6542   67.4954 H   0  0  0  0  0  0  0  0  0  0  0  0
    0.7145   68.0955   69.2879 H   0  0  0  0  0  0  0  0  0  0  0  0
    0.7669   66.3386   68.9177 H   0  0  0  0  0  0  0  0  0  0  0  0
    2.2830   67.3020   68.9177 H   0  0  0  0  0  0  0  0  0  0  0  0
    2.7600   67.2789   66.1222 H   0  0  0  0  0  0  0  0  0  0  0  0
    0.4341   65.8065   65.2754 H   0  0  0  0  0  0  0  0  0  0  0  0
    1.0293   67.1969   64.5394 H   0  0  0  0  0  0  0  0  0  0  0  0
  2  1  1  0
  3  2  2  0
  4  3  1  0
  5  4  2  0
  6  5  1  0
  7  6  2  0
  7  2  1  0
  8  6  1  0
  9  5  1  0
 10  1  1  0
 11 10  1  0
 12 10  1  0
 13 12  2  0
 14 12  1  0
 10 15  1  6
 16 15  1  0
  1 17  1  0
  1 18  1  0
  3 19  1  0
  4 20  1  0
  7 21  1  0
  8 22  1  0
  9 23  1  0
 11 24  1  0
 11 25  1  0
 11 26  1  0
 15 27  1  0
 16 28  1  0
 16 29  1  0
M  CHG  1  14  -1
M  END
>  <score>  (1) 
-7.796

$$$$
=
     RDKit          3D

 29 29  0  0  0  0  0  0  0  0999 V2000
    1.2900   69.1170   67.1850 C   0  0  0  0  0  0  0  0  0  0  0  0
    2.7160   69.5620   67.4700 C   0  0  0  0  0  0  0  0  0  0  0  0
    3.0540   70.1280   68.7130 C   0  0  0  0  0  0  0  0  0  0  0  0
    4.3590   70.5530   68.9760 C   0  0  0  0  0  0  0  0  0  0  0  0
    5.3280   70.4080   67.9960 C   0  0  0  0  0  0  0  0  0  0  0  0
    5.0090   69.8460   66.7640 C   0  0  0  0  0  0  0  0  0  0  0  0
    3.7120   69.4310   66.4910 C   0  0  0  0  0  0  0  0  0  0  0  0
    6.0090   69.7100   65.8370 O   0  0  0  0  0  0  0  0  0  0  0  0
    6.6080   70.8160   68.2440 O   0  0  0  0  0  0  0  0  0  0  0  0
    0.9700   67.6000   67.3380 C   0  0  1  0  0  0  0  0  0  0  0  0
    1.2000   67.2190   68.8160 C   0  0  0  0  0  0  0  0  0  0  0  0
   -0.5750   67.2860   67.1300 C   0  0  0  0  0  0  0  0  0  0  0  0
   -1.1310   67.8550   66.1430 O   0  0  0  0  0  0  0  0  0  0  0  0
   -1.1310   66.5510   68.0080 O   0  0  0  0  0  1  0  0  0  0  0  0
    1.8860   66.8210   66.4310 N   0  0  0  0  0  0  0  0  0  0  0  0
    1.2680   66.4390   65.1750 N   0  0  0  0  0  0  0  0  0  0  0  0
    0.6293   69.6649   67.8729 H   0  0  0  0  0  0  0  0  0  0  0  0
    1.1357   69.3315   66.1172 H   0  0  0  0  0  0  0  0  0  0  0  0
    2.2809   70.2374   69.4879 H   0  0  0  0  0  0  0  0  0  0  0  0
    4.6140   70.9974   69.9494 H   0  0  0  0  0  0  0  0  0  0  0  0
    3.4663   69.0005   65.5090 H   0  0  0  0  0  0  0  0  0  0  0  0
    5.8124   69.3136   64.9514 H   0  0  0  0  0  0  0  0  0  0  0  0
    7.3037   70.7145   67.5470 H   0  0  0  0  0  0  0  0  0  0  0  0
    0.7414   67.9786   69.4661 H   0  0  0  0  0  0  0  0  0  0  0  0
    0.7423   66.2393   69.0176 H   0  0  0  0  0  0  0  0  0  0  0  0
    2.2801   67.1676   69.0176 H   0  0  0  0  0  0  0  0  0  0  0  0
    2.7117   67.4012   66.2250 H   0  0  0  0  0  0  0  0  0  0  0  0
    0.4067   65.9066   65.3640 H   0  0  0  0  0  0  0  0  0  0  0  0
    1.0371   67.2850   64.6347 H   0  0  0  0  0  0  0  0  0  0  0  0
  2  1  1  0
  3  2  2  0
  4  3  1  0
  5  4  2  0
  6  5  1  0
  7  6  2  0
  7  2  1  0
  8  6  1  0
  9  5  1  0
 10  1  1  0
 11 10  1  0
 12 10  1  0
 13 12  2  0
 14 12  1  0
 10 15  1  6
 16 15  1  0
  1 17  1  0
  1 18  1  0
  3 19  1  0
  4 20  1  0
  7 21  1  0
  8 22  1  0
  9 23  1  0
 11 24  1  0
 11 25  1  0
 11 26  1  0
 15 27  1  0
 16 28  1  0
 16 29  1  0
M  CHG  1  14  -1
M  END
>  <score>  (2) 
-7.723

$$$$
=
     RDKit          3D

 29 29  0  0  0  0  0  0  0  0999 V2000
    4.2980   68.9870   64.2860 C   0  0  0  0  0  0  0  0  0  0  0  0
    4.1830   69.4160   65.7400 C   0  0  0  0  0  0  0  0  0  0  0  0
    5.3080   69.8970   66.4360 C   0  0  0  0  0  0  0  0  0  0  0  0
    5.2120   70.2790   67.7770 C   0  0  0  0  0  0  0  0  0  0  0  0
    3.9890   70.1840   68.4220 C   0  0  0  0  0  0  0  0  0  0  0  0
    2.8680   69.7140   67.7450 C   0  0  0  0  0  0  0  0  0  0  0  0
    2.9580   69.3220   66.4160 C   0  0  0  0  0  0  0  0  0  0  0  0
    1.6800   69.6560   68.4260 O   0  0  0  0  0  0  0  0  0  0  0  0
    3.8830   70.5580   69.7310 O   0  0  0  0  0  0  0  0  0  0  0  0
    3.4670   67.7480   63.8380 C   0  0  1  0  0  0  0  0  0  0  0  0
    2.1280   68.2610   63.2700 C   0  0  0  0  0  0  0  0  0  0  0  0
    4.1170   67.0050   62.5920 C   0  0  0  0  0  0  0  0  0  0  0  0
    3.8100   67.4620   61.4490 O   0  0  0  0  0  0  0  0  0  0  0  0
    4.8270   65.9790   62.8440 O   0  0  0  0  0  1  0  0  0  0  0  0
    3.2410   66.8620   65.0360 N   0  0  0  0  0  0  0  0  0  0  0  0
    2.4000   65.7130   64.7540 N   0  0  0  0  0  0  0  0  0  0  0  0
    3.9829   69.8382   63.6646 H   0  0  0  0  0  0  0  0  0  0  0  0
    5.3477   68.6815   64.1643 H   0  0  0  0  0  0  0  0  0  0  0  0
    6.2753   69.9732   65.9177 H   0  0  0  0  0  0  0  0  0  0  0  0
    6.0969   70.6508   68.3143 H   0  0  0  0  0  0  0  0  0  0  0  0
    2.0692   68.9381   65.8939 H   0  0  0  0  0  0  0  0  0  0  0  0
    0.8646   69.3261   67.9717 H   0  0  0  0  0  0  0  0  0  0  0  0
    3.0113   70.4918   70.1957 H   0  0  0  0  0  0  0  0  0  0  0  0
    1.4530   68.5196   64.0992 H   0  0  0  0  0  0  0  0  0  0  0  0
    2.3093   69.1533   62.6529 H   0  0  0  0  0  0  0  0  0  0  0  0
    1.6667   67.4759   62.6529 H   0  0  0  0  0  0  0  0  0  0  0  0
    4.1552   66.5235   65.3686 H   0  0  0  0  0  0  0  0  0  0  0  0
    2.0897   65.2890   65.6399 H   0  0  0  0  0  0  0  0  0  0  0  0
    1.5782   66.0141   64.2110 H   0  0  0  0  0  0  0  0  0  0  0  0
  2  1  1  0
  3  2  2  0
  4  3  1  0
  5  4  2  0
  6  5  1  0
  7  6  2  0
  7  2  1  0
  8  6  1  0
  9  5  1  0
 10  1  1  0
 11 10  1  0
 12 10  1  0
 13 12  2  0
 14 12  1  0
 10 15  1  1
 16 15  1  0
  1 17  1  0
  1 18  1  0
  3 19  1  0
  4 20  1  0
  7 21  1  0
  8 22  1  0
  9 23  1  0
 11 24  1  0
 11 25  1  0
 11 26  1  0
 15 27  1  0
 16 28  1  0
 16 29  1  0
M  CHG  1  14  -1
M  END
>  <score>  (3) 
-7.505

$$$$
=
     RDKit          3D

 29 29  0  0  0  0  0  0  0  0999 V2000
    1.5890   69.0230   66.8820 C   0  0  0  0  0  0  0  0  0  0  0  0
    2.8100   69.1460   65.9830 C   0  0  0  0  0  0  0  0  0  0  0  0
    2.6960   68.9560   64.5930 C   0  0  0  0  0  0  0  0  0  0  0  0
    3.8170   69.0530   63.7630 C   0  0  0  0  0  0  0  0  0  0  0  0
    5.0510   69.3440   64.3240 C   0  0  0  0  0  0  0  0  0  0  0  0
    5.1760   69.5380   65.6960 C   0  0  0  0  0  0  0  0  0  0  0  0
    4.0690   69.4320   66.5280 C   0  0  0  0  0  0  0  0  0  0  0  0
    6.4160   69.8390   66.1950 O   0  0  0  0  0  0  0  0  0  0  0  0
    6.1520   69.4450   63.5220 O   0  0  0  0  0  0  0  0  0  0  0  0
    0.8710   67.6410   66.9260 C   0  0  1  0  0  0  0  0  0  0  0  0
    0.6490   67.2750   68.4090 C   0  0  0  0  0  0  0  0  0  0  0  0
   -0.6120   67.7140   66.3570 C   0  0  0  0  0  0  0  0  0  0  0  0
   -1.4450   66.9050   66.8670 O   0  0  0  0  0  0  0  0  0  0  0  0
   -0.8160   68.5230   65.3960 O   0  0  0  0  0  1  0  0  0  0  0  0
    1.7450   66.6220   66.2430 N   0  0  0  0  0  0  0  0  0  0  0  0
    1.1600   66.0770   65.0320 N   0  0  0  0  0  0  0  0  0  0  0  0
    1.9079   69.2626   67.9071 H   0  0  0  0  0  0  0  0  0  0  0  0
    0.8489   69.7123   66.4494 H   0  0  0  0  0  0  0  0  0  0  0  0
    1.7132   68.7285   64.1544 H   0  0  0  0  0  0  0  0  0  0  0  0
    3.7210   68.9003   62.6779 H   0  0  0  0  0  0  0  0  0  0  0  0
    4.1803   69.5724   67.6133 H   0  0  0  0  0  0  0  0  0  0  0  0
    6.5369   69.9827   67.1670 H   0  0  0  0  0  0  0  0  0  0  0  0
    7.0354   69.6526   63.9178 H   0  0  0  0  0  0  0  0  0  0  0  0
    1.1130   68.0400   69.0489 H   0  0  0  0  0  0  0  0  0  0  0  0
   -0.4300   67.2279   68.6175 H   0  0  0  0  0  0  0  0  0  0  0  0
    1.1058   66.2963   68.6175 H   0  0  0  0  0  0  0  0  0  0  0  0
    2.6397   67.0705   65.9997 H   0  0  0  0  0  0  0  0  0  0  0  0
    0.4286   65.3956   65.2805 H   0  0  0  0  0  0  0  0  0  0  0  0
    0.7448   66.8396   64.4780 H   0  0  0  0  0  0  0  0  0  0  0  0
  2  1  1  0
  3  2  2  0
  4  3  1  0
  5  4  2  0
  6  5  1  0
  7  6  2  0
  7  2  1  0
  8  6  1  0
  9  5  1  0
 10  1  1  0
 11 10  1  0
 12 10  1  0
 13 12  2  0
 14 12  1  0
 10 15  1  6
 16 15  1  0
  1 17  1  0
  1 18  1  0
  3 19  1  0
  4 20  1  0
  7 21  1  0
  8 22  1  0
  9 23  1  0
 11 24  1  0
 11 25  1  0
 11 26  1  0
 15 27  1  0
 16 28  1  0
 16 29  1  0
M  CHG  1  14  -1
M  END
>  <score>  (4) 
-7.465

$$$$
=
     RDKit          3D

 29 29  0  0  0  0  0  0  0  0999 V2000
    4.2780   69.0230   64.2260 C   0  0  0  0  0  0  0  0  0  0  0  0
    4.2550   69.4190   65.6940 C   0  0  0  0  0  0  0  0  0  0  0  0
    3.0550   69.3670   66.4300 C   0  0  0  0  0  0  0  0  0  0  0  0
    3.0230   69.7440   67.7750 C   0  0  0  0  0  0  0  0  0  0  0  0
    4.1920   70.1680   68.3870 C   0  0  0  0  0  0  0  0  0  0  0  0
    5.3860   70.2190   67.6740 C   0  0  0  0  0  0  0  0  0  0  0  0
    5.4230   69.8580   66.3330 C   0  0  0  0  0  0  0  0  0  0  0  0
    6.5150   70.6310   68.3320 O   0  0  0  0  0  0  0  0  0  0  0  0
    4.1730   70.5340   69.7030 O   0  0  0  0  0  0  0  0  0  0  0  0
    3.4600   67.7650   63.8110 C   0  0  1  0  0  0  0  0  0  0  0  0
    2.0840   68.2460   63.3030 C   0  0  0  0  0  0  0  0  0  0  0  0
    4.0730   67.0410   62.5350 C   0  0  0  0  0  0  0  0  0  0  0  0
    4.8640   66.0780   62.7680 O   0  0  0  0  0  0  0  0  0  0  0  0
    3.7720   67.5320   61.4000 O   0  0  0  0  0  1  0  0  0  0  0  0
    3.3080   66.8710   65.0150 N   0  0  0  0  0  0  0  0  0  0  0  0
    2.5000   65.6930   64.7610 N   0  0  0  0  0  0  0  0  0  0  0  0
    3.8895   69.8747   63.6483 H   0  0  0  0  0  0  0  0  0  0  0  0
    5.3258   68.7573   64.0224 H   0  0  0  0  0  0  0  0  0  0  0  0
    2.1315   69.0253   65.9397 H   0  0  0  0  0  0  0  0  0  0  0  0
    2.0810   69.7047   68.3416 H   0  0  0  0  0  0  0  0  0  0  0  0
    6.3680   69.9166   65.7731 H   0  0  0  0  0  0  0  0  0  0  0  0
    7.3791   70.6775   67.8511 H   0  0  0  0  0  0  0  0  0  0  0  0
    5.0055   70.8375   70.1444 H   0  0  0  0  0  0  0  0  0  0  0  0
    1.4350   68.4729   64.1617 H   0  0  0  0  0  0  0  0  0  0  0  0
    2.2146   69.1518   62.6927 H   0  0  0  0  0  0  0  0  0  0  0  0
    1.6219   67.4561   62.6927 H   0  0  0  0  0  0  0  0  0  0  0  0
    4.2448   66.5656   65.3150 H   0  0  0  0  0  0  0  0  0  0  0  0
    2.2126   65.2740   65.6570 H   0  0  0  0  0  0  0  0  0  0  0  0
    1.6634   65.9600   64.2228 H   0  0  0  0  0  0  0  0  0  0  0  0
  2  1  1  0
  3  2  2  0
  4  3  1  0
  5  4  2  0
  6  5  1  0
  7  6  2  0
  7  2  1  0
  8  6  1  0
  9  5  1  0
 10  1  1  0
 11 10  1  0
 12 10  1  0
 13 12  2  0
 14 12  1  0
 10 15  1  1
 16 15  1  0
  1 17  1  0
  1 18  1  0
  3 19  1  0
  4 20  1  0
  7 21  1  0
  8 22  1  0
  9 23  1  0
 11 24  1  0
 11 25  1  0
 11 26  1  0
 15 27  1  0
 16 28  1  0
 16 29  1  0
M  CHG  1  14  -1
M  END
>  <score>  (5) 
-7.342

$$$$
=
     RDKit          3D

 29 29  0  0  0  0  0  0  0  0999 V2000
    1.5770   69.0570   65.3750 C   0  0  0  0  0  0  0  0  0  0  0  0
    2.8320   68.9640   64.5210 C   0  0  0  0  0  0  0  0  0  0  0  0
    4.0950   69.2490   65.0730 C   0  0  0  0  0  0  0  0  0  0  0  0
    5.2510   69.1820   64.2910 C   0  0  0  0  0  0  0  0  0  0  0  0
    5.1450   68.8230   62.9560 C   0  0  0  0  0  0  0  0  0  0  0  0
    3.9030   68.5340   62.3980 C   0  0  0  0  0  0  0  0  0  0  0  0
    2.7490   68.6110   63.1670 C   0  0  0  0  0  0  0  0  0  0  0  0
    3.8560   68.1700   61.0780 O   0  0  0  0  0  0  0  0  0  0  0  0
    6.2680   68.7490   62.1830 O   0  0  0  0  0  0  0  0  0  0  0  0
    1.2540   67.8490   66.3040 C   0  0  1  0  0  0  0  0  0  0  0  0
    1.7020   68.2220   67.7320 C   0  0  0  0  0  0  0  0  0  0  0  0
   -0.3110   67.6210   66.4740 C   0  0  0  0  0  0  0  0  0  0  0  0
   -0.6580   66.7860   67.3620 O   0  0  0  0  0  0  0  0  0  0  0  0
   -1.0700   68.2410   65.6620 O   0  0  0  0  0  1  0  0  0  0  0  0
    2.0020   66.6420   65.8010 N   0  0  0  0  0  0  0  0  0  0  0  0
    1.2480   65.8500   64.8470 N   0  0  0  0  0  0  0  0  0  0  0  0
    1.6769   69.9473   66.0133 H   0  0  0  0  0  0  0  0  0  0  0  0
    0.7466   69.0890   64.6542 H   0  0  0  0  0  0  0  0  0  0  0  0
    4.1730   69.5282   66.1341 H   0  0  0  0  0  0  0  0  0  0  0  0
    6.2335   69.4113   64.7293 H   0  0  0  0  0  0  0  0  0  0  0  0
    1.7703   68.3951   62.7137 H   0  0  0  0  0  0  0  0  0  0  0  0
    2.9870   67.9585   60.6535 H   0  0  0  0  0  0  0  0  0  0  0  0
    6.1965   68.4930   61.2293 H   0  0  0  0  0  0  0  0  0  0  0  0
    1.0706   67.6963   68.4634 H   0  0  0  0  0  0  0  0  0  0  0  0
    2.7521   67.9276   67.8755 H   0  0  0  0  0  0  0  0  0  0  0  0
    1.6028   69.3081   67.8755 H   0  0  0  0  0  0  0  0  0  0  0  0
    2.8690   66.9619   65.3461 H   0  0  0  0  0  0  0  0  0  0  0  0
    0.6294   65.2003   65.3531 H   0  0  0  0  0  0  0  0  0  0  0  0
    0.6806   66.4737   64.2554 H   0  0  0  0  0  0  0  0  0  0  0  0
  2  1  1  0
  3  2  2  0
  4  3  1  0
  5  4  2  0
  6  5  1  0
  7  6  2  0
  7  2  1  0
  8  6  1  0
  9  5  1  0
 10  1  1  0
 11 10  1  0
 12 10  1  0
 13 12  2  0
 14 12  1  0
 10 15  1  6
 16 15  1  0
  1 17  1  0
  1 18  1  0
  3 19  1  0
  4 20  1  0
  7 21  1  0
  8 22  1  0
  9 23  1  0
 11 24  1  0
 11 25  1  0
 11 26  1  0
 15 27  1  0
 16 28  1  0
 16 29  1  0
M  CHG  1  14  -1
M  END
>  <score>  (6) 
-7.318

$$$$
=
     RDKit          3D

 29 29  0  0  0  0  0  0  0  0999 V2000
    3.4830   69.0780   64.3890 C   0  0  0  0  0  0  0  0  0  0  0  0
    3.9440   69.5010   65.7760 C   0  0  0  0  0  0  0  0  0  0  0  0
    5.2700   69.9210   65.9910 C   0  0  0  0  0  0  0  0  0  0  0  0
    5.7040   70.2970   67.2660 C   0  0  0  0  0  0  0  0  0  0  0  0
    4.8100   70.2560   68.3240 C   0  0  0  0  0  0  0  0  0  0  0  0
    3.4950   69.8480   68.1240 C   0  0  0  0  0  0  0  0  0  0  0  0
    3.0600   69.4620   66.8630 C   0  0  0  0  0  0  0  0  0  0  0  0
    2.6490   69.8420   69.2020 O   0  0  0  0  0  0  0  0  0  0  0  0
    5.2230   70.6250   69.5730 O   0  0  0  0  0  0  0  0  0  0  0  0
    4.2500   67.9060   63.7080 C   0  0  1  0  0  0  0  0  0  0  0  0
    3.9190   66.6140   64.4840 C   0  0  0  0  0  0  0  0  0  0  0  0
    3.6980   67.5920   62.2500 C   0  0  0  0  0  0  0  0  0  0  0  0
    2.7370   68.3150   61.8510 O   0  0  0  0  0  0  0  0  0  0  0  0
    4.2200   66.6020   61.6430 O   0  0  0  0  0  1  0  0  0  0  0  0
    5.7260   68.2030   63.7590 N   0  0  0  0  0  0  0  0  0  0  0  0
    6.2480   68.7540   62.5220 N   0  0  0  0  0  0  0  0  0  0  0  0
    2.4271   68.7800   64.4683 H   0  0  0  0  0  0  0  0  0  0  0  0
    3.6757   69.9515   63.7487 H   0  0  0  0  0  0  0  0  0  0  0  0
    5.9734   69.9539   65.1459 H   0  0  0  0  0  0  0  0  0  0  0  0
    6.7426   70.6214   67.4272 H   0  0  0  0  0  0  0  0  0  0  0  0
    2.0228   69.1260   66.7174 H   0  0  0  0  0  0  0  0  0  0  0  0
    1.7075   69.5567   69.0908 H   0  0  0  0  0  0  0  0  0  0  0  0
    4.5884   70.5976   70.3324 H   0  0  0  0  0  0  0  0  0  0  0  0
    3.9698   66.8122   65.5648 H   0  0  0  0  0  0  0  0  0  0  0  0
    2.9056   66.2773   64.2202 H   0  0  0  0  0  0  0  0  0  0  0  0
    4.6457   65.8315   64.2202 H   0  0  0  0  0  0  0  0  0  0  0  0
    5.8963   68.8809   64.5155 H   0  0  0  0  0  0  0  0  0  0  0  0
    6.9407   69.4852   62.7372 H   0  0  0  0  0  0  0  0  0  0  0  0
    6.6974   68.0055   61.9754 H   0  0  0  0  0  0  0  0  0  0  0  0
  2  1  1  0
  3  2  2  0
  4  3  1  0
  5  4  2  0
  6  5  1  0
  7  6  2  0
  7  2  1  0
  8  6  1  0
  9  5  1  0
 10  1  1  0
 11 10  1  0
 12 10  1  0
 13 12  2  0
 14 12  1  0
 10 15  1  6
 16 15  1  0
  1 17  1  0
  1 18  1  0
  3 19  1  0
  4 20  1  0
  7 21  1  0
  8 22  1  0
  9 23  1  0
 11 24  1  0
 11 25  1  0
 11 26  1  0
 15 27  1  0
 16 28  1  0
 16 29  1  0
M  CHG  1  14  -1
M  END
>  <score>  (7) 
-7.25

$$$$
=
     RDKit          3D

 29 29  0  0  0  0  0  0  0  0999 V2000
    1.7740   68.6260   65.2790 C   0  0  0  0  0  0  0  0  0  0  0  0
    0.4280   68.3770   65.9410 C   0  0  0  0  0  0  0  0  0  0  0  0
    0.3300   67.5410   67.0700 C   0  0  0  0  0  0  0  0  0  0  0  0
   -0.9060   67.2950   67.6740 C   0  0  0  0  0  0  0  0  0  0  0  0
   -2.0440   67.8880   67.1520 C   0  0  0  0  0  0  0  0  0  0  0  0
   -1.9620   68.7200   66.0400 C   0  0  0  0  0  0  0  0  0  0  0  0
   -0.7380   68.9600   65.4270 C   0  0  0  0  0  0  0  0  0  0  0  0
   -3.1150   69.2940   65.5740 O   0  0  0  0  0  0  0  0  0  0  0  0
   -3.2570   67.6580   67.7370 O   0  0  0  0  0  0  0  0  0  0  0  0
    2.1270   67.7650   64.0300 C   0  0  1  0  0  0  0  0  0  0  0  0
    1.4950   68.4450   62.7970 C   0  0  0  0  0  0  0  0  0  0  0  0
    3.6810   67.8000   63.6930 C   0  0  0  0  0  0  0  0  0  0  0  0
    4.4570   68.0300   64.6690 O   0  0  0  0  0  0  0  0  0  0  0  0
    4.0030   67.6640   62.4700 O   0  0  0  0  0  1  0  0  0  0  0  0
    1.5690   66.3800   64.2280 N   0  0  0  0  0  0  0  0  0  0  0  0
    2.4860   65.4770   64.8980 N   0  0  0  0  0  0  0  0  0  0  0  0
    1.8001   69.6815   64.9705 H   0  0  0  0  0  0  0  0  0  0  0  0
    2.5182   68.3411   66.0373 H   0  0  0  0  0  0  0  0  0  0  0  0
    1.2378   67.0757   67.4817 H   0  0  0  0  0  0  0  0  0  0  0  0
   -0.9745   66.6381   68.5537 H   0  0  0  0  0  0  0  0  0  0  0  0
   -0.6846   69.6071   64.5391 H   0  0  0  0  0  0  0  0  0  0  0  0
   -3.0869   69.8905   64.7844 H   0  0  0  0  0  0  0  0  0  0  0  0
   -4.0728   68.0797   67.3673 H   0  0  0  0  0  0  0  0  0  0  0  0
    0.7808   69.2134   63.1279 H   0  0  0  0  0  0  0  0  0  0  0  0
    2.2848   68.9146   62.1922 H   0  0  0  0  0  0  0  0  0  0  0  0
    0.9690   67.6917   62.1922 H   0  0  0  0  0  0  0  0  0  0  0  0
    0.7110   66.4519   64.7932 H   0  0  0  0  0  0  0  0  0  0  0  0
    2.3835   65.5780   65.9179 H   0  0  0  0  0  0  0  0  0  0  0  0
    2.2727   64.5068   64.6259 H   0  0  0  0  0  0  0  0  0  0  0  0
  2  1  1  0
  3  2  2  0
  4  3  1  0
  5  4  2  0
  6  5  1  0
  7  6  2  0
  7  2  1  0
  8  6  1  0
  9  5  1  0
 10  1  1  0
 11 10  1  0
 12 10  1  0
 13 12  2  0
 14 12  1  0
 10 15  1  1
 16 15  1  0
  1 17  1  0
  1 18  1  0
  3 19  1  0
  4 20  1  0
  7 21  1  0
  8 22  1  0
  9 23  1  0
 11 24  1  0
 11 25  1  0
 11 26  1  0
 15 27  1  0
 16 28  1  0
 16 29  1  0
M  CHG  1  14  -1
M  END
>  <score>  (8) 
-6.808

$$$$
=
     RDKit          3D

 29 29  0  0  0  0  0  0  0  0999 V2000
    3.2420   69.0570   64.0980 C   0  0  0  0  0  0  0  0  0  0  0  0
    1.9730   68.6310   64.8210 C   0  0  0  0  0  0  0  0  0  0  0  0
    2.0450   67.8800   66.0090 C   0  0  0  0  0  0  0  0  0  0  0  0
    0.8830   67.4720   66.6700 C   0  0  0  0  0  0  0  0  0  0  0  0
   -0.3520   67.8200   66.1440 C   0  0  0  0  0  0  0  0  0  0  0  0
   -0.4370   68.5660   64.9730 C   0  0  0  0  0  0  0  0  0  0  0  0
    0.7130   68.9650   64.3040 C   0  0  0  0  0  0  0  0  0  0  0  0
   -1.6820   68.8950   64.5060 O   0  0  0  0  0  0  0  0  0  0  0  0
   -1.4940   67.4300   66.7840 O   0  0  0  0  0  0  0  0  0  0  0  0
    3.6380   68.2600   62.8200 C   0  0  1  0  0  0  0  0  0  0  0  0
    4.7700   69.0360   62.1140 C   0  0  0  0  0  0  0  0  0  0  0  0
    4.3270   66.8700   63.1650 C   0  0  0  0  0  0  0  0  0  0  0  0
    4.1680   65.9430   62.3140 O   0  0  0  0  0  0  0  0  0  0  0  0
    4.9140   66.7870   64.2910 O   0  0  0  0  0  1  0  0  0  0  0  0
    2.4270   68.1460   61.9300 N   0  0  0  0  0  0  0  0  0  0  0  0
    2.3880   69.1420   60.8760 N   0  0  0  0  0  0  0  0  0  0  0  0
    3.1178   70.1101   63.8054 H   0  0  0  0  0  0  0  0  0  0  0  0
    4.0538   68.8630   64.8145 H   0  0  0  0  0  0  0  0  0  0  0  0
    3.0281   67.6107   66.4226 H   0  0  0  0  0  0  0  0  0  0  0  0
    0.9474   66.8820   67.5962 H   0  0  0  0  0  0  0  0  0  0  0  0
    0.6355   69.5418   63.3706 H   0  0  0  0  0  0  0  0  0  0  0  0
   -1.7748   69.4252   63.6751 H   0  0  0  0  0  0  0  0  0  0  0  0
   -2.3782   67.6759   66.4126 H   0  0  0  0  0  0  0  0  0  0  0  0
    5.4302   69.4886   62.8685 H   0  0  0  0  0  0  0  0  0  0  0  0
    5.3511   68.3454   61.4852 H   0  0  0  0  0  0  0  0  0  0  0  0
    4.3355   69.8270   61.4852 H   0  0  0  0  0  0  0  0  0  0  0  0
    2.4281   67.2119   61.4960 H   0  0  0  0  0  0  0  0  0  0  0  0
    2.3512   70.0827   61.2938 H   0  0  0  0  0  0  0  0  0  0  0  0
    3.2329   69.0581   60.2929 H   0  0  0  0  0  0  0  0  0  0  0  0
  2  1  1  0
  3  2  2  0
  4  3  1  0
  5  4  2  0
  6  5  1  0
  7  6  2  0
  7  2  1  0
  8  6  1  0
  9  5  1  0
 10  1  1  0
 11 10  1  0
 12 10  1  0
 13 12  2  0
 14 12  1  0
 10 15  1  6
 16 15  1  0
  1 17  1  0
  1 18  1  0
  3 19  1  0
  4 20  1  0
  7 21  1  0
  8 22  1  0
  9 23  1  0
 11 24  1  0
 11 25  1  0
 11 26  1  0
 15 27  1  0
 16 28  1  0
 16 29  1  0
M  CHG  1  14  -1
M  END
>  <score>  (9) 
-6.534

$$$$
