=
     RDKit          3D

 35 36  0  0  0  0  0  0  0  0999 V2000
    4.1550   70.3190   68.5340 C   0  0  0  0  0  0  0  0  0  0  0  0
    5.4200   70.4040   67.9660 C   0  0  0  0  0  0  0  0  0  0  0  0
    5.6090   69.9670   66.6540 C   0  0  0  0  0  0  0  0  0  0  0  0
    4.5400   69.4400   65.9120 C   0  0  0  0  0  0  0  0  0  0  0  0
    3.2600   69.3760   66.4900 C   0  0  0  0  0  0  0  0  0  0  0  0
    3.0820   69.8110   67.8130 C   0  0  0  0  0  0  0  0  0  0  0  0
    2.0790   68.7980   65.7500 C   0  0  0  0  0  0  0  0  0  0  0  0
    2.3110   68.6360   64.2490 C   0  0  0  0  0  0  0  0  0  0  0  0
    3.6960   68.0680   63.9350 C   0  0  1  0  0  0  0  0  0  0  0  0
    4.7850   69.0080   64.4820 C   0  0  0  0  0  0  0  0  0  0  0  0
    3.8360   66.7050   64.4490 N   0  0  0  0  0  0  0  0  0  0  0  0
    4.4080   65.7250   63.6750 C   0  0  0  0  0  0  0  0  0  0  0  0
    4.7800   65.9360   62.5230 O   0  0  0  0  0  0  0  0  0  0  0  0
    4.5340   64.4940   64.3030 N   0  0  0  0  0  0  0  0  0  0  0  0
    3.7060   64.0670   65.4240 C   0  0  0  0  0  0  0  0  0  0  0  0
    5.1510   63.4240   63.5380 C   0  0  0  0  0  0  0  0  0  0  0  0
    3.9220   70.7290   69.8140 O   0  0  0  0  0  0  0  0  0  0  0  0
    6.2630   70.8110   68.5437 H   0  0  0  0  0  0  0  0  0  0  0  0
    6.6068   70.0363   66.1962 H   0  0  0  0  0  0  0  0  0  0  0  0
    2.0883   69.7492   68.2807 H   0  0  0  0  0  0  0  0  0  0  0  0
    1.8540   67.8086   66.1749 H   0  0  0  0  0  0  0  0  0  0  0  0
    1.2470   69.5073   65.8708 H   0  0  0  0  0  0  0  0  0  0  0  0
    1.5487   67.9539   63.8446 H   0  0  0  0  0  0  0  0  0  0  0  0
    2.2428   69.6324   63.7879 H   0  0  0  0  0  0  0  0  0  0  0  0
    3.8184   68.0073   62.8435 H   0  0  0  0  0  0  0  0  0  0  0  0
    5.7522   68.4861   64.4358 H   0  0  0  0  0  0  0  0  0  0  0  0
    4.7738   69.9158   63.8609 H   0  0  0  0  0  0  0  0  0  0  0  0
    3.5035   66.4791   65.3973 H   0  0  0  0  0  0  0  0  0  0  0  0
    4.2066   64.3252   66.3689 H   0  0  0  0  0  0  0  0  0  0  0  0
    2.7316   64.5750   65.3746 H   0  0  0  0  0  0  0  0  0  0  0  0
    3.5549   62.9785   65.3746 H   0  0  0  0  0  0  0  0  0  0  0  0
    5.5795   62.6809   64.2266 H   0  0  0  0  0  0  0  0  0  0  0  0
    4.3923   62.9418   62.9041 H   0  0  0  0  0  0  0  0  0  0  0  0
    5.9484   63.8391   62.9041 H   0  0  0  0  0  0  0  0  0  0  0  0
    3.0123   70.6591   70.1983 H   0  0  0  0  0  0  0  0  0  0  0  0
  2  1  2  0
  3  2  1  0
  4  3  2  0
  5  4  1  0
  6  5  2  0
  6  1  1  0
  7  5  1  0
  8  7  1  0
  9  8  1  0
 10  9  1  0
 10  4  1  0
 11  9  1  0
 12 11  1  0
 13 12  2  0
 14 12  1  0
 15 14  1  0
 16 14  1  0
 17  1  1  0
  2 18  1  0
  3 19  1  0
  6 20  1  0
  7 21  1  0
  7 22  1  0
  8 23  1  0
  8 24  1  0
  9 25  1  6
 10 26  1  0
 10 27  1  0
 11 28  1  0
 15 29  1  0
 15 30  1  0
 15 31  1  0
 16 32  1  0
 16 33  1  0
 16 34  1  0
 17 35  1  0
M  END
>  <score>  (1) 
-9.79

$$$$
=
     RDKit          3D

 35 36  0  0  0  0  0  0  0  0999 V2000
    4.5660   64.1250   63.7550 C   0  0  0  0  0  0  0  0  0  0  0  0
    3.8230   63.8610   64.8990 C   0  0  0  0  0  0  0  0  0  0  0  0
    3.0630   64.8820   65.4710 C   0  0  0  0  0  0  0  0  0  0  0  0
    3.0490   66.1680   64.9070 C   0  0  0  0  0  0  0  0  0  0  0  0
    3.7890   66.4200   63.7380 C   0  0  0  0  0  0  0  0  0  0  0  0
    4.5570   65.3880   63.1760 C   0  0  0  0  0  0  0  0  0  0  0  0
    3.8310   67.7860   63.1010 C   0  0  0  0  0  0  0  0  0  0  0  0
    2.7490   68.7370   63.6080 C   0  0  0  0  0  0  0  0  0  0  0  0
    2.5790   68.6640   65.1260 C   0  0  1  0  0  0  0  0  0  0  0  0
    2.1850   67.2360   65.5410 C   0  0  0  0  0  0  0  0  0  0  0  0
    3.7840   69.1260   65.8140 N   0  0  0  0  0  0  0  0  0  0  0  0
    3.6980   69.7060   67.0560 C   0  0  0  0  0  0  0  0  0  0  0  0
    2.6210   69.8990   67.6140 O   0  0  0  0  0  0  0  0  0  0  0  0
    4.9200   70.0430   67.6220 N   0  0  0  0  0  0  0  0  0  0  0  0
    6.1310   70.2870   66.8500 C   0  0  0  0  0  0  0  0  0  0  0  0
    4.8910   70.6430   68.9450 C   0  0  0  0  0  0  0  0  0  0  0  0
    5.3280   63.1610   63.1640 O   0  0  0  0  0  0  0  0  0  0  0  0
    3.8338   62.8574   65.3492 H   0  0  0  0  0  0  0  0  0  0  0  0
    2.4684   64.6773   66.3735 H   0  0  0  0  0  0  0  0  0  0  0  0
    5.1546   65.5802   62.2727 H   0  0  0  0  0  0  0  0  0  0  0  0
    4.8131   68.2356   63.3094 H   0  0  0  0  0  0  0  0  0  0  0  0
    3.6527   67.6429   62.0250 H   0  0  0  0  0  0  0  0  0  0  0  0
    3.0239   69.7656   63.3316 H   0  0  0  0  0  0  0  0  0  0  0  0
    1.7956   68.4392   63.1473 H   0  0  0  0  0  0  0  0  0  0  0  0
    1.7658   69.3402   65.4284 H   0  0  0  0  0  0  0  0  0  0  0  0
    2.2738   67.1532   66.6343 H   0  0  0  0  0  0  0  0  0  0  0  0
    1.1544   67.0690   65.1947 H   0  0  0  0  0  0  0  0  0  0  0  0
    4.7038   69.0156   65.3639 H   0  0  0  0  0  0  0  0  0  0  0  0
    6.9746   70.4570   67.5352 H   0  0  0  0  0  0  0  0  0  0  0  0
    6.3438   69.4137   66.2159 H   0  0  0  0  0  0  0  0  0  0  0  0
    5.9890   71.1746   66.2159 H   0  0  0  0  0  0  0  0  0  0  0  0
    4.9293   69.8512   69.7076 H   0  0  0  0  0  0  0  0  0  0  0  0
    5.7580   71.3094   69.0645 H   0  0  0  0  0  0  0  0  0  0  0  0
    3.9638   71.2227   69.0645 H   0  0  0  0  0  0  0  0  0  0  0  0
    5.8492   63.3723   62.3492 H   0  0  0  0  0  0  0  0  0  0  0  0
  2  1  2  0
  3  2  1  0
  4  3  2  0
  5  4  1  0
  6  5  2  0
  6  1  1  0
  7  5  1  0
  8  7  1  0
  9  8  1  0
 10  9  1  0
 10  4  1  0
 11  9  1  0
 12 11  1  0
 13 12  2  0
 14 12  1  0
 15 14  1  0
 16 14  1  0
 17  1  1  0
  2 18  1  0
  3 19  1  0
  6 20  1  0
  7 21  1  0
  7 22  1  0
  8 23  1  0
  8 24  1  0
  9 25  1  1
 10 26  1  0
 10 27  1  0
 11 28  1  0
 15 29  1  0
 15 30  1  0
 15 31  1  0
 16 32  1  0
 16 33  1  0
 16 34  1  0
 17 35  1  0
M  END
>  <score>  (2) 
-8.102

$$$$
=
     RDKit          3D

 35 36  0  0  0  0  0  0  0  0999 V2000
   -0.5360   69.0240   66.8090 C   0  0  0  0  0  0  0  0  0  0  0  0
    0.5160   69.3750   67.6460 C   0  0  0  0  0  0  0  0  0  0  0  0
    1.8230   69.3180   67.1600 C   0  0  0  0  0  0  0  0  0  0  0  0
    2.0820   68.9050   65.8430 C   0  0  0  0  0  0  0  0  0  0  0  0
    1.0080   68.5700   64.9990 C   0  0  0  0  0  0  0  0  0  0  0  0
   -0.3020   68.6230   65.5000 C   0  0  0  0  0  0  0  0  0  0  0  0
    1.2260   68.0970   63.5830 C   0  0  0  0  0  0  0  0  0  0  0  0
    2.6350   68.3580   63.0550 C   0  0  0  0  0  0  0  0  0  0  0  0
    3.7120   68.0270   64.0900 C   0  0  1  0  0  0  0  0  0  0  0  0
    3.5120   68.8900   65.3480 C   0  0  0  0  0  0  0  0  0  0  0  0
    3.7250   66.5970   64.3980 N   0  0  0  0  0  0  0  0  0  0  0  0
    4.4510   65.7250   63.6250 C   0  0  0  0  0  0  0  0  0  0  0  0
    5.0740   66.0950   62.6320 O   0  0  0  0  0  0  0  0  0  0  0  0
    4.4260   64.4080   64.0610 N   0  0  0  0  0  0  0  0  0  0  0  0
    3.3650   63.8480   64.8880 C   0  0  0  0  0  0  0  0  0  0  0  0
    5.1940   63.4440   63.2910 C   0  0  0  0  0  0  0  0  0  0  0  0
   -1.8290   69.0590   67.2410 O   0  0  0  0  0  0  0  0  0  0  0  0
    0.3208   69.6943   68.6804 H   0  0  0  0  0  0  0  0  0  0  0  0
    2.6598   69.5998   67.8160 H   0  0  0  0  0  0  0  0  0  0  0  0
   -1.1472   68.3457   64.8530 H   0  0  0  0  0  0  0  0  0  0  0  0
    1.0372   67.0139   63.5464 H   0  0  0  0  0  0  0  0  0  0  0  0
    0.5346   68.6672   62.9452 H   0  0  0  0  0  0  0  0  0  0  0  0
    2.7992   67.7368   62.1622 H   0  0  0  0  0  0  0  0  0  0  0  0
    2.7131   69.4293   62.8180 H   0  0  0  0  0  0  0  0  0  0  0  0
    4.6996   68.2668   63.6691 H   0  0  0  0  0  0  0  0  0  0  0  0
    4.1543   68.4943   66.1485 H   0  0  0  0  0  0  0  0  0  0  0  0
    3.7742   69.9238   65.0787 H   0  0  0  0  0  0  0  0  0  0  0  0
    3.1857   66.2418   65.2004 H   0  0  0  0  0  0  0  0  0  0  0  0
    3.6186   63.9818   65.9500 H   0  0  0  0  0  0  0  0  0  0  0  0
    2.4185   64.3640   64.6692 H   0  0  0  0  0  0  0  0  0  0  0  0
    3.2570   62.7754   64.6692 H   0  0  0  0  0  0  0  0  0  0  0  0
    5.7302   62.7710   63.9763 H   0  0  0  0  0  0  0  0  0  0  0  0
    4.5141   62.8560   62.6569 H   0  0  0  0  0  0  0  0  0  0  0  0
    5.9190   63.9753   62.6569 H   0  0  0  0  0  0  0  0  0  0  0  0
   -2.5630   68.8046   66.6273 H   0  0  0  0  0  0  0  0  0  0  0  0
  2  1  2  0
  3  2  1  0
  4  3  2  0
  5  4  1  0
  6  5  2  0
  6  1  1  0
  7  5  1  0
  8  7  1  0
  9  8  1  0
 10  9  1  0
 10  4  1  0
 11  9  1  0
 12 11  1  0
 13 12  2  0
 14 12  1  0
 15 14  1  0
 16 14  1  0
 17  1  1  0
  2 18  1  0
  3 19  1  0
  6 20  1  0
  7 21  1  0
  7 22  1  0
  8 23  1  0
  8 24  1  0
  9 25  1  6
 10 26  1  0
 10 27  1  0
 11 28  1  0
 15 29  1  0
 15 30  1  0
 15 31  1  0
 16 32  1  0
 16 33  1  0
 16 34  1  0
 17 35  1  0
M  END
>  <score>  (3) 
-7.947

$$$$
=
     RDKit          3D

 35 36  0  0  0  0  0  0  0  0999 V2000
   -1.9030   67.7450   67.0220 C   0  0  0  0  0  0  0  0  0  0  0  0
   -2.0630   68.7890   66.1210 C   0  0  0  0  0  0  0  0  0  0  0  0
   -0.9950   69.1490   65.2970 C   0  0  0  0  0  0  0  0  0  0  0  0
    0.2330   68.4730   65.3780 C   0  0  0  0  0  0  0  0  0  0  0  0
    0.3780   67.4050   66.2810 C   0  0  0  0  0  0  0  0  0  0  0  0
   -0.6990   67.0560   67.1100 C   0  0  0  0  0  0  0  0  0  0  0  0
    1.6800   66.6580   66.4290 C   0  0  0  0  0  0  0  0  0  0  0  0
    2.6710   66.9140   65.2960 C   0  0  0  0  0  0  0  0  0  0  0  0
    2.7380   68.3920   64.9090 C   0  0  1  0  0  0  0  0  0  0  0  0
    1.3530   68.8760   64.4430 C   0  0  0  0  0  0  0  0  0  0  0  0
    3.2640   69.2010   66.0080 N   0  0  0  0  0  0  0  0  0  0  0  0
    4.6030   69.5000   66.0730 C   0  0  0  0  0  0  0  0  0  0  0  0
    5.4090   69.0710   65.2510 O   0  0  0  0  0  0  0  0  0  0  0  0
    4.9600   70.3240   67.1320 N   0  0  0  0  0  0  0  0  0  0  0  0
    4.1840   70.4510   68.3580 C   0  0  0  0  0  0  0  0  0  0  0  0
    6.3620   70.6890   67.2390 C   0  0  0  0  0  0  0  0  0  0  0  0
   -2.9170   67.3600   67.8510 O   0  0  0  0  0  0  0  0  0  0  0  0
   -3.0206   69.3266   66.0570 H   0  0  0  0  0  0  0  0  0  0  0  0
   -1.1169   69.9712   64.5765 H   0  0  0  0  0  0  0  0  0  0  0  0
   -0.5900   66.2337   67.8325 H   0  0  0  0  0  0  0  0  0  0  0  0
    2.1493   66.9638   67.3757 H   0  0  0  0  0  0  0  0  0  0  0  0
    1.4377   65.5853   66.4057 H   0  0  0  0  0  0  0  0  0  0  0  0
    3.6703   66.5869   65.6190 H   0  0  0  0  0  0  0  0  0  0  0  0
    2.3298   66.3499   64.4155 H   0  0  0  0  0  0  0  0  0  0  0  0
    3.4374   68.5105   64.0683 H   0  0  0  0  0  0  0  0  0  0  0  0
    1.3718   69.9736   64.3732 H   0  0  0  0  0  0  0  0  0  0  0  0
    1.1523   68.4026   63.4706 H   0  0  0  0  0  0  0  0  0  0  0  0
    2.6261   69.5488   66.7381 H   0  0  0  0  0  0  0  0  0  0  0  0
    4.8502   70.3420   69.2265 H   0  0  0  0  0  0  0  0  0  0  0  0
    3.7030   71.4398   68.3867 H   0  0  0  0  0  0  0  0  0  0  0  0
    3.4128   69.6671   68.3867 H   0  0  0  0  0  0  0  0  0  0  0  0
    6.6419   70.7619   68.3003 H   0  0  0  0  0  0  0  0  0  0  0  0
    6.9791   69.9216   66.7489 H   0  0  0  0  0  0  0  0  0  0  0  0
    6.5266   71.6599   66.7489 H   0  0  0  0  0  0  0  0  0  0  0  0
   -2.7807   66.6127   68.4859 H   0  0  0  0  0  0  0  0  0  0  0  0
  2  1  2  0
  3  2  1  0
  4  3  2  0
  5  4  1  0
  6  5  2  0
  6  1  1  0
  7  5  1  0
  8  7  1  0
  9  8  1  0
 10  9  1  0
 10  4  1  0
 11  9  1  0
 12 11  1  0
 13 12  2  0
 14 12  1  0
 15 14  1  0
 16 14  1  0
 17  1  1  0
  2 18  1  0
  3 19  1  0
  6 20  1  0
  7 21  1  0
  7 22  1  0
  8 23  1  0
  8 24  1  0
  9 25  1  6
 10 26  1  0
 10 27  1  0
 11 28  1  0
 15 29  1  0
 15 30  1  0
 15 31  1  0
 16 32  1  0
 16 33  1  0
 16 34  1  0
 17 35  1  0
M  END
>  <score>  (4) 
-7.776

$$$$
=
     RDKit          3D

 35 36  0  0  0  0  0  0  0  0999 V2000
    4.9890   67.7420   62.8550 C   0  0  0  0  0  0  0  0  0  0  0  0
    5.2020   69.0410   63.3000 C   0  0  0  0  0  0  0  0  0  0  0  0
    4.5020   69.5030   64.4160 C   0  0  0  0  0  0  0  0  0  0  0  0
    3.5860   68.6740   65.0830 C   0  0  0  0  0  0  0  0  0  0  0  0
    3.3920   67.3550   64.6350 C   0  0  0  0  0  0  0  0  0  0  0  0
    4.0950   66.9020   63.5080 C   0  0  0  0  0  0  0  0  0  0  0  0
    2.4050   66.4260   65.2960 C   0  0  0  0  0  0  0  0  0  0  0  0
    1.9260   66.9070   66.6640 C   0  0  0  0  0  0  0  0  0  0  0  0
    1.6130   68.4050   66.6750 C   0  0  1  0  0  0  0  0  0  0  0  0
    2.8740   69.2060   66.3070 C   0  0  0  0  0  0  0  0  0  0  0  0
    0.4870   68.7140   65.7940 N   0  0  0  0  0  0  0  0  0  0  0  0
   -0.8050   68.5250   66.2230 C   0  0  0  0  0  0  0  0  0  0  0  0
   -1.0640   68.0550   67.3280 O   0  0  0  0  0  0  0  0  0  0  0  0
   -1.7780   68.9140   65.3130 N   0  0  0  0  0  0  0  0  0  0  0  0
   -1.5550   69.0040   63.8760 C   0  0  0  0  0  0  0  0  0  0  0  0
   -3.1630   68.7550   65.7210 C   0  0  0  0  0  0  0  0  0  0  0  0
    5.6460   67.2480   61.7670 O   0  0  0  0  0  0  0  0  0  0  0  0
    5.9141   69.6978   62.7789 H   0  0  0  0  0  0  0  0  0  0  0  0
    4.6701   70.5284   64.7769 H   0  0  0  0  0  0  0  0  0  0  0  0
    3.9377   65.8774   63.1399 H   0  0  0  0  0  0  0  0  0  0  0  0
    1.5294   66.3251   64.6378 H   0  0  0  0  0  0  0  0  0  0  0  0
    2.9238   65.4694   65.4566 H   0  0  0  0  0  0  0  0  0  0  0  0
    1.0151   66.3531   66.9349 H   0  0  0  0  0  0  0  0  0  0  0  0
    2.7352   66.7266   67.3869 H   0  0  0  0  0  0  0  0  0  0  0  0
    1.3088   68.7004   67.6900 H   0  0  0  0  0  0  0  0  0  0  0  0
    2.5813   70.2488   66.1147 H   0  0  0  0  0  0  0  0  0  0  0  0
    3.5723   69.1201   67.1526 H   0  0  0  0  0  0  0  0  0  0  0  0
    0.6635   69.0756   64.8459 H   0  0  0  0  0  0  0  0  0  0  0  0
   -0.5503   69.4095   63.6855 H   0  0  0  0  0  0  0  0  0  0  0  0
   -1.6370   68.0024   63.4288 H   0  0  0  0  0  0  0  0  0  0  0  0
   -2.3093   69.6681   63.4288 H   0  0  0  0  0  0  0  0  0  0  0  0
   -3.2232   68.7481   66.8193 H   0  0  0  0  0  0  0  0  0  0  0  0
   -3.7597   69.5905   65.3263 H   0  0  0  0  0  0  0  0  0  0  0  0
   -3.5549   67.8060   65.3263 H   0  0  0  0  0  0  0  0  0  0  0  0
    5.4789   66.3194   61.4673 H   0  0  0  0  0  0  0  0  0  0  0  0
  2  1  2  0
  3  2  1  0
  4  3  2  0
  5  4  1  0
  6  5  2  0
  6  1  1  0
  7  5  1  0
  8  7  1  0
  9  8  1  0
 10  9  1  0
 10  4  1  0
 11  9  1  0
 12 11  1  0
 13 12  2  0
 14 12  1  0
 15 14  1  0
 16 14  1  0
 17  1  1  0
  2 18  1  0
  3 19  1  0
  6 20  1  0
  7 21  1  0
  7 22  1  0
  8 23  1  0
  8 24  1  0
  9 25  1  1
 10 26  1  0
 10 27  1  0
 11 28  1  0
 15 29  1  0
 15 30  1  0
 15 31  1  0
 16 32  1  0
 16 33  1  0
 16 34  1  0
 17 35  1  0
M  END
>  <score>  (5) 
-7.555

$$$$
=
     RDKit          3D

 35 36  0  0  0  0  0  0  0  0999 V2000
    3.8080   62.7240   68.8930 C   0  0  0  0  0  0  0  0  0  0  0  0
    4.6410   63.3690   69.7990 C   0  0  0  0  0  0  0  0  0  0  0  0
    4.9880   62.7220   70.9860 C   0  0  0  0  0  0  0  0  0  0  0  0
    4.5000   61.4360   71.2720 C   0  0  0  0  0  0  0  0  0  0  0  0
    3.6730   60.7860   70.3390 C   0  0  0  0  0  0  0  0  0  0  0  0
    3.3240   61.4480   69.1520 C   0  0  0  0  0  0  0  0  0  0  0  0
    3.1000   59.4160   70.6020 C   0  0  0  0  0  0  0  0  0  0  0  0
    3.7690   58.6780   71.7600 C   0  0  0  0  0  0  0  0  0  0  0  0
    4.0150   59.5910   72.9630 C   0  0  1  0  0  0  0  0  0  0  0  0
    4.9280   60.7600   72.5560 C   0  0  0  0  0  0  0  0  0  0  0  0
    2.7520   60.0520   73.5400 N   0  0  0  0  0  0  0  0  0  0  0  0
    2.5250   59.9480   74.8900 C   0  0  0  0  0  0  0  0  0  0  0  0
    3.3380   59.4310   75.6520 O   0  0  0  0  0  0  0  0  0  0  0  0
    1.3130   60.4770   75.3140 N   0  0  0  0  0  0  0  0  0  0  0  0
    0.1530   60.6410   74.4490 C   0  0  0  0  0  0  0  0  0  0  0  0
    1.0280   60.4120   76.7370 C   0  0  0  0  0  0  0  0  0  0  0  0
    3.4380   63.3180   67.7220 O   0  0  0  0  0  0  0  0  0  0  0  0
    5.0226   64.3779   69.5832 H   0  0  0  0  0  0  0  0  0  0  0  0
    5.6510   63.2246   71.7056 H   0  0  0  0  0  0  0  0  0  0  0  0
    2.6642   60.9543   68.4234 H   0  0  0  0  0  0  0  0  0  0  0  0
    2.0303   59.5264   70.8333 H   0  0  0  0  0  0  0  0  0  0  0  0
    3.2762   58.8166   69.6966 H   0  0  0  0  0  0  0  0  0  0  0  0
    3.1195   57.8472   72.0729 H   0  0  0  0  0  0  0  0  0  0  0  0
    4.7452   58.3128   71.4084 H   0  0  0  0  0  0  0  0  0  0  0  0
    4.5300   59.0185   73.7485 H   0  0  0  0  0  0  0  0  0  0  0  0
    4.9192   61.5071   73.3634 H   0  0  0  0  0  0  0  0  0  0  0  0
    5.9322   60.3445   72.3858 H   0  0  0  0  0  0  0  0  0  0  0  0
    2.0283   60.4573   72.9293 H   0  0  0  0  0  0  0  0  0  0  0  0
   -0.7490   60.7685   75.0655 H   0  0  0  0  0  0  0  0  0  0  0  0
    0.2916   61.5285   73.8140 H   0  0  0  0  0  0  0  0  0  0  0  0
    0.0402   59.7499   73.8140 H   0  0  0  0  0  0  0  0  0  0  0  0
    1.9465   60.6215   77.3048 H   0  0  0  0  0  0  0  0  0  0  0  0
    0.2611   61.1583   76.9918 H   0  0  0  0  0  0  0  0  0  0  0  0
    0.6606   59.4070   76.9918 H   0  0  0  0  0  0  0  0  0  0  0  0
    2.8436   62.8402   67.0908 H   0  0  0  0  0  0  0  0  0  0  0  0
  2  1  2  0
  3  2  1  0
  4  3  2  0
  5  4  1  0
  6  5  2  0
  6  1  1  0
  7  5  1  0
  8  7  1  0
  9  8  1  0
 10  9  1  0
 10  4  1  0
 11  9  1  0
 12 11  1  0
 13 12  2  0
 14 12  1  0
 15 14  1  0
 16 14  1  0
 17  1  1  0
  2 18  1  0
  3 19  1  0
  6 20  1  0
  7 21  1  0
  7 22  1  0
  8 23  1  0
  8 24  1  0
  9 25  1  1
 10 26  1  0
 10 27  1  0
 11 28  1  0
 15 29  1  0
 15 30  1  0
 15 31  1  0
 16 32  1  0
 16 33  1  0
 16 34  1  0
 17 35  1  0
M  END
>  <score>  (6) 
-6.922

$$$$
