=
     RDKit          3D

 55 58  0  0  0  0  0  0  0  0999 V2000
    1.6750   62.2970   72.7000 C   0  0  0  0  0  0  0  0  0  0  0  0
    2.1030   61.2760   71.9120 C   0  0  0  0  0  0  0  0  0  0  0  0
    1.9410   61.0850   70.6680 O   0  0  0  0  0  1  0  0  0  0  0  0
    2.8280   60.0870   72.5760 C   0  0  2  0  0  0  0  0  0  0  0  0
    3.2070   60.2130   74.0850 C   0  0  1  0  0  0  0  0  0  0  0  0
    2.1020   60.9400   74.8610 C   0  0  1  0  0  0  0  0  0  0  0  0
    1.9020   62.3120   74.1710 C   0  0  0  0  0  0  0  0  0  0  0  0
    1.9760   63.3790   74.7920 O   0  0  0  0  0  0  0  0  0  0  0  0
    0.8800   60.0150   75.0620 C   0  0  0  0  0  0  0  0  0  0  0  0
    1.1640   58.7630   75.5060 C   0  0  0  0  0  0  0  0  0  0  0  0
    2.5900   58.3620   75.8340 C   0  0  2  0  0  0  0  0  0  0  0  0
    3.5320   58.8130   74.6930 C   0  0  0  0  0  0  0  0  0  0  0  0
    2.7780   56.8590   76.2080 C   0  0  1  0  0  0  0  0  0  0  0  0
    2.4080   56.5980   77.6810 C   0  0  0  0  0  0  0  0  0  0  0  0
    1.9210   55.9710   75.3230 C   0  0  0  0  0  0  0  0  0  0  0  0
    0.5980   56.3680   75.0580 C   0  0  0  0  0  0  0  0  0  0  0  0
    0.1280   57.6820   75.5450 C   0  0  0  0  0  0  0  0  0  0  0  0
   -1.0270   57.7700   75.9390 O   0  0  0  0  0  0  0  0  0  0  0  0
   -0.2760   55.5240   74.3630 C   0  0  0  0  0  0  0  0  0  0  0  0
    0.1750   54.3010   73.8800 C   0  0  0  0  0  0  0  0  0  0  0  0
    1.4930   53.9060   74.1120 C   0  0  0  0  0  0  0  0  0  0  0  0
    2.3590   54.7300   74.8380 C   0  0  0  0  0  0  0  0  0  0  0  0
   -0.2040   60.5480   74.7110 O   0  0  0  0  0  1  0  0  0  0  0  0
    1.4040   64.0610   71.1440 N   0  0  0  0  0  0  0  0  0  0  0  0
    0.7980   63.3660   72.1550 C   0  0  0  0  0  0  0  0  0  0  0  0
   -0.3530   63.5780   72.5190 O   0  0  0  0  0  0  0  0  0  0  0  0
    4.1570   59.6710   71.8360 N   0  0  0  0  0  4  0  0  0  0  0  0
    3.8680   58.8910   70.5900 C   0  0  0  0  0  0  0  0  0  0  0  0
    5.0530   60.8390   71.5630 C   0  0  0  0  0  0  0  0  0  0  0  0
    2.6100   61.2350   76.1850 O   0  0  0  0  0  0  0  0  0  0  0  0
    4.1620   56.4970   76.0630 O   0  0  0  0  0  0  0  0  0  0  0  0
   -1.5850   55.8440   74.1300 O   0  0  0  0  0  0  0  0  0  0  0  0
    2.0347   59.3298   72.4896 H   0  0  0  0  0  0  0  0  0  0  0  0
    4.1193   60.8216   74.1709 H   0  0  0  0  0  0  0  0  0  0  0  0
    2.8627   58.8901   76.7596 H   0  0  0  0  0  0  0  0  0  0  0  0
    4.5579   58.8425   75.0888 H   0  0  0  0  0  0  0  0  0  0  0  0
    3.3993   58.0855   73.8787 H   0  0  0  0  0  0  0  0  0  0  0  0
    3.1300   57.1073   78.3362 H   0  0  0  0  0  0  0  0  0  0  0  0
    1.3972   56.9841   77.8791 H   0  0  0  0  0  0  0  0  0  0  0  0
    2.4326   55.5163   77.8791 H   0  0  0  0  0  0  0  0  0  0  0  0
   -0.5056   53.6461   73.3162 H   0  0  0  0  0  0  0  0  0  0  0  0
    1.8525   52.9423   73.7222 H   0  0  0  0  0  0  0  0  0  0  0  0
    3.3914   54.4023   75.0301 H   0  0  0  0  0  0  0  0  0  0  0  0
    0.9045   64.8314   70.6772 H   0  0  0  0  0  0  0  0  0  0  0  0
    2.3596   63.8137   70.8498 H   0  0  0  0  0  0  0  0  0  0  0  0
    4.6729   59.0535   72.4789 H   0  0  0  0  0  0  0  0  0  0  0  0
    3.4976   57.8913   70.8609 H   0  0  0  0  0  0  0  0  0  0  0  0
    3.1049   59.4165   69.9971 H   0  0  0  0  0  0  0  0  0  0  0  0
    4.7893   58.7925   69.9971 H   0  0  0  0  0  0  0  0  0  0  0  0
    5.3875   61.2751   72.5158 H   0  0  0  0  0  0  0  0  0  0  0  0
    5.9275   60.5034   70.9863 H   0  0  0  0  0  0  0  0  0  0  0  0
    4.5023   61.5967   70.9863 H   0  0  0  0  0  0  0  0  0  0  0  0
    1.9879   60.8738   76.8652 H   0  0  0  0  0  0  0  0  0  0  0  0
    4.5707   56.3901   76.9583 H   0  0  0  0  0  0  0  0  0  0  0  0
   -2.1673   55.2159   73.6334 H   0  0  0  0  0  0  0  0  0  0  0  0
  2  1  2  0
  3  2  1  0
  4  2  1  0
  5  4  1  0
  6  5  1  0
  7  6  1  0
  7  1  1  0
  8  7  2  0
  9  6  1  0
 10  9  2  0
 11 10  1  0
 12 11  1  0
 12  5  1  0
 13 11  1  0
 14 13  1  0
 15 13  1  0
 16 15  2  0
 17 16  1  0
 17 10  1  0
 18 17  2  0
 19 16  1  0
 20 19  2  0
 21 20  1  0
 22 21  2  0
 22 15  1  0
 23  9  1  0
 25 24  1  0
 25  1  1  0
 26 25  2  0
 27  4  1  0
 28 27  1  0
 29 27  1  0
  6 30  1  1
 13 31  1  1
 32 19  1  0
  4 33  1  1
  5 34  1  6
 11 35  1  1
 12 36  1  0
 12 37  1  0
 14 38  1  0
 14 39  1  0
 14 40  1  0
 20 41  1  0
 21 42  1  0
 22 43  1  0
 24 44  1  0
 24 45  1  0
 27 46  1  0
 28 47  1  0
 28 48  1  0
 28 49  1  0
 29 50  1  0
 29 51  1  0
 29 52  1  0
 30 53  1  0
 31 54  1  0
 32 55  1  0
M  CHG  3   3  -1  23  -1  27   1
M  END
>  <score>  (1) 
-7.782

$$$$
=
     RDKit          3D

 55 58  0  0  0  0  0  0  0  0999 V2000
    3.0060   61.7490   71.5820 C   0  0  0  0  0  0  0  0  0  0  0  0
    2.1180   62.1350   72.5360 C   0  0  0  0  0  0  0  0  0  0  0  0
    1.9250   63.2770   73.0520 O   0  0  0  0  0  1  0  0  0  0  0  0
    1.2370   61.0570   73.2020 C   0  0  2  0  0  0  0  0  0  0  0  0
    1.2720   59.6150   72.6060 C   0  0  1  0  0  0  0  0  0  0  0  0
    2.6930   59.2460   72.1630 C   0  0  1  0  0  0  0  0  0  0  0  0
    3.1390   60.3310   71.1500 C   0  0  0  0  0  0  0  0  0  0  0  0
    3.5390   60.0470   70.0150 O   0  0  0  0  0  0  0  0  0  0  0  0
    3.5860   58.9520   73.3900 C   0  0  0  0  0  0  0  0  0  0  0  0
    3.0430   58.1260   74.3210 C   0  0  0  0  0  0  0  0  0  0  0  0
    1.6780   57.5010   74.1000 C   0  0  2  0  0  0  0  0  0  0  0  0
    0.6830   58.5830   73.6180 C   0  0  0  0  0  0  0  0  0  0  0  0
    1.1300   56.6800   75.3080 C   0  0  1  0  0  0  0  0  0  0  0  0
    1.7310   55.2600   75.3390 C   0  0  0  0  0  0  0  0  0  0  0  0
    1.4490   57.3730   76.6210 C   0  0  0  0  0  0  0  0  0  0  0  0
    2.7310   57.9230   76.7940 C   0  0  0  0  0  0  0  0  0  0  0  0
    3.6780   57.9130   75.6600 C   0  0  0  0  0  0  0  0  0  0  0  0
    4.8640   57.7260   75.9020 O   0  0  0  0  0  0  0  0  0  0  0  0
    3.1220   58.4520   78.0290 C   0  0  0  0  0  0  0  0  0  0  0  0
    2.2200   58.4870   79.0880 C   0  0  0  0  0  0  0  0  0  0  0  0
    0.9350   57.9710   78.9220 C   0  0  0  0  0  0  0  0  0  0  0  0
    0.5530   57.4070   77.7010 C   0  0  0  0  0  0  0  0  0  0  0  0
    4.6700   59.5910   73.3740 O   0  0  0  0  0  1  0  0  0  0  0  0
    5.2930   62.3280   71.3830 N   0  0  0  0  0  0  0  0  0  0  0  0
    4.0180   62.6990   71.0530 C   0  0  0  0  0  0  0  0  0  0  0  0
    3.7630   63.6750   70.3550 O   0  0  0  0  0  0  0  0  0  0  0  0
   -0.2870   61.4520   73.2750 N   0  0  0  0  0  4  0  0  0  0  0  0
   -0.6350   62.0470   74.6050 C   0  0  0  0  0  0  0  0  0  0  0  0
   -0.7070   62.3400   72.1440 C   0  0  0  0  0  0  0  0  0  0  0  0
    2.6170   58.0120   71.4110 O   0  0  0  0  0  0  0  0  0  0  0  0
   -0.2930   56.5200   75.1770 O   0  0  0  0  0  0  0  0  0  0  0  0
    4.3760   58.9460   78.2600 O   0  0  0  0  0  0  0  0  0  0  0  0
    1.7185   61.0245   74.1905 H   0  0  0  0  0  0  0  0  0  0  0  0
    0.6350   59.5883   71.7096 H   0  0  0  0  0  0  0  0  0  0  0  0
    1.8010   56.7434   73.3121 H   0  0  0  0  0  0  0  0  0  0  0  0
   -0.1649   58.0760   73.1342 H   0  0  0  0  0  0  0  0  0  0  0  0
    0.3957   59.1571   74.5112 H   0  0  0  0  0  0  0  0  0  0  0  0
    1.8658   54.9416   76.3833 H   0  0  0  0  0  0  0  0  0  0  0  0
    1.0508   54.5627   74.8279 H   0  0  0  0  0  0  0  0  0  0  0  0
    2.7051   55.2629   74.8279 H   0  0  0  0  0  0  0  0  0  0  0  0
    2.5197   58.9205   80.0535 H   0  0  0  0  0  0  0  0  0  0  0  0
    0.2185   58.0079   79.7558 H   0  0  0  0  0  0  0  0  0  0  0  0
   -0.4571   56.9868   77.5859 H   0  0  0  0  0  0  0  0  0  0  0  0
    6.0918   62.9019   71.0773 H   0  0  0  0  0  0  0  0  0  0  0  0
    5.4540   61.4748   71.9371 H   0  0  0  0  0  0  0  0  0  0  0  0
   -0.8236   60.5788   73.1728 H   0  0  0  0  0  0  0  0  0  0  0  0
   -0.2553   61.3978   75.4077 H   0  0  0  0  0  0  0  0  0  0  0  0
   -0.1773   63.0435   74.6919 H   0  0  0  0  0  0  0  0  0  0  0  0
   -1.7279   62.1366   74.6919 H   0  0  0  0  0  0  0  0  0  0  0  0
   -1.1446   63.2652   72.5472 H   0  0  0  0  0  0  0  0  0  0  0  0
    0.1695   62.5875   71.5271 H   0  0  0  0  0  0  0  0  0  0  0  0
   -1.4543   61.8194   71.5271 H   0  0  0  0  0  0  0  0  0  0  0  0
    2.5699   57.2465   72.0370 H   0  0  0  0  0  0  0  0  0  0  0  0
   -0.7041   56.4738   76.0764 H   0  0  0  0  0  0  0  0  0  0  0  0
    4.6080   59.3108   79.1506 H   0  0  0  0  0  0  0  0  0  0  0  0
  2  1  2  0
  3  2  1  0
  4  2  1  0
  5  4  1  0
  6  5  1  0
  7  6  1  0
  7  1  1  0
  8  7  2  0
  9  6  1  0
 10  9  2  0
 11 10  1  0
 12 11  1  0
 12  5  1  0
 13 11  1  0
 14 13  1  0
 15 13  1  0
 16 15  2  0
 17 16  1  0
 17 10  1  0
 18 17  2  0
 19 16  1  0
 20 19  2  0
 21 20  1  0
 22 21  2  0
 22 15  1  0
 23  9  1  0
 25 24  1  0
 25  1  1  0
 26 25  2  0
 27  4  1  0
 28 27  1  0
 29 27  1  0
  6 30  1  6
 13 31  1  6
 32 19  1  0
  4 33  1  1
  5 34  1  6
 11 35  1  6
 12 36  1  0
 12 37  1  0
 14 38  1  0
 14 39  1  0
 14 40  1  0
 20 41  1  0
 21 42  1  0
 22 43  1  0
 24 44  1  0
 24 45  1  0
 27 46  1  0
 28 47  1  0
 28 48  1  0
 28 49  1  0
 29 50  1  0
 29 51  1  0
 29 52  1  0
 30 53  1  0
 31 54  1  0
 32 55  1  0
M  CHG  3   3  -1  23  -1  27   1
M  END
>  <score>  (2) 
-7.551

$$$$
=
     RDKit          3D

 55 58  0  0  0  0  0  0  0  0999 V2000
    1.5850   55.6240   75.8520 C   0  0  0  0  0  0  0  0  0  0  0  0
    1.9820   56.5870   76.7260 C   0  0  0  0  0  0  0  0  0  0  0  0
    1.8540   56.6430   77.9870 O   0  0  0  0  0  1  0  0  0  0  0  0
    2.6130   57.8780   76.1630 C   0  0  2  0  0  0  0  0  0  0  0  0
    2.9420   57.9240   74.6390 C   0  0  1  0  0  0  0  0  0  0  0  0
    1.8530   57.2120   73.8270 C   0  0  1  0  0  0  0  0  0  0  0  0
    1.7570   55.7690   74.3810 C   0  0  0  0  0  0  0  0  0  0  0  0
    1.8690   54.7750   73.6540 O   0  0  0  0  0  0  0  0  0  0  0  0
    0.5740   58.0770   73.7580 C   0  0  0  0  0  0  0  0  0  0  0  0
    0.7690   59.3820   73.4350 C   0  0  0  0  0  0  0  0  0  0  0  0
    2.1560   59.8980   73.1050 C   0  0  2  0  0  0  0  0  0  0  0  0
    3.1650   59.3950   74.1650 C   0  0  0  0  0  0  0  0  0  0  0  0
    2.2450   61.4390   72.8790 C   0  0  1  0  0  0  0  0  0  0  0  0
    1.8060   61.8230   71.4520 C   0  0  0  0  0  0  0  0  0  0  0  0
    1.3710   62.1820   73.8750 C   0  0  0  0  0  0  0  0  0  0  0  0
    0.0840   61.6810   74.1390 C   0  0  0  0  0  0  0  0  0  0  0  0
   -0.3280   60.3960   73.5370 C   0  0  0  0  0  0  0  0  0  0  0  0
   -1.4900   60.2780   73.1720 O   0  0  0  0  0  0  0  0  0  0  0  0
   -0.8110   62.3980   74.9420 C   0  0  0  0  0  0  0  0  0  0  0  0
   -0.4130   63.5930   75.5320 C   0  0  0  0  0  0  0  0  0  0  0  0
    0.8700   64.0870   75.3010 C   0  0  0  0  0  0  0  0  0  0  0  0
    1.7540   63.3940   74.4690 C   0  0  0  0  0  0  0  0  0  0  0  0
   -0.4640   57.4460   74.0870 O   0  0  0  0  0  1  0  0  0  0  0  0
    1.5230   53.6200   77.1120 N   0  0  0  0  0  0  0  0  0  0  0  0
    0.7910   54.4560   76.3130 C   0  0  0  0  0  0  0  0  0  0  0  0
   -0.3950   54.2740   76.0630 O   0  0  0  0  0  0  0  0  0  0  0  0
    3.9410   58.2980   76.9000 N   0  0  0  0  0  4  0  0  0  0  0  0
    3.6530   59.0790   78.1450 C   0  0  0  0  0  0  0  0  0  0  0  0
    4.8410   57.1320   77.1740 C   0  0  0  0  0  0  0  0  0  0  0  0
    2.3280   57.0810   72.4650 O   0  0  0  0  0  0  0  0  0  0  0  0
    3.6100   61.8690   73.0170 O   0  0  0  0  0  0  0  0  0  0  0  0
   -2.0910   61.9780   75.1820 O   0  0  0  0  0  0  0  0  0  0  0  0
    1.7822   58.5744   76.3493 H   0  0  0  0  0  0  0  0  0  0  0  0
    3.8831   57.3818   74.4648 H   0  0  0  0  0  0  0  0  0  0  0  0
    2.4226   59.4801   72.1230 H   0  0  0  0  0  0  0  0  0  0  0  0
    4.1754   59.4663   73.7359 H   0  0  0  0  0  0  0  0  0  0  0  0
    3.0228   60.0299   75.0520 H   0  0  0  0  0  0  0  0  0  0  0  0
    0.9790   62.5464   71.5050 H   0  0  0  0  0  0  0  0  0  0  0  0
    2.6542   62.2743   70.9164 H   0  0  0  0  0  0  0  0  0  0  0  0
    1.4715   60.9223   70.9164 H   0  0  0  0  0  0  0  0  0  0  0  0
   -1.1088   64.1469   76.1793 H   0  0  0  0  0  0  0  0  0  0  0  0
    1.1883   65.0268   75.7758 H   0  0  0  0  0  0  0  0  0  0  0  0
    2.7576   63.8020   74.2785 H   0  0  0  0  0  0  0  0  0  0  0  0
    1.0908   52.7695   77.5003 H   0  0  0  0  0  0  0  0  0  0  0  0
    2.5061   53.8413   77.3250 H   0  0  0  0  0  0  0  0  0  0  0  0
    4.4538   58.9158   76.2548 H   0  0  0  0  0  0  0  0  0  0  0  0
    3.8808   58.4613   79.0262 H   0  0  0  0  0  0  0  0  0  0  0  0
    4.2760   59.9854   78.1616 H   0  0  0  0  0  0  0  0  0  0  0  0
    2.5907   59.3639   78.1616 H   0  0  0  0  0  0  0  0  0  0  0  0
    4.9454   56.9968   78.2607 H   0  0  0  0  0  0  0  0  0  0  0  0
    4.4082   56.2228   76.7313 H   0  0  0  0  0  0  0  0  0  0  0  0
    5.8302   57.3204   76.7313 H   0  0  0  0  0  0  0  0  0  0  0  0
    3.2823   56.8178   72.4722 H   0  0  0  0  0  0  0  0  0  0  0  0
    3.8378   61.9408   73.9777 H   0  0  0  0  0  0  0  0  0  0  0  0
   -2.6895   62.5178   75.7569 H   0  0  0  0  0  0  0  0  0  0  0  0
  2  1  2  0
  3  2  1  0
  4  2  1  0
  5  4  1  0
  6  5  1  0
  7  6  1  0
  7  1  1  0
  8  7  2  0
  9  6  1  0
 10  9  2  0
 11 10  1  0
 12 11  1  0
 12  5  1  0
 13 11  1  0
 14 13  1  0
 15 13  1  0
 16 15  2  0
 17 16  1  0
 17 10  1  0
 18 17  2  0
 19 16  1  0
 20 19  2  0
 21 20  1  0
 22 21  2  0
 22 15  1  0
 23  9  1  0
 25 24  1  0
 25  1  1  0
 26 25  2  0
 27  4  1  0
 28 27  1  0
 29 27  1  0
  6 30  1  6
 13 31  1  1
 32 19  1  0
  4 33  1  6
  5 34  1  1
 11 35  1  6
 12 36  1  0
 12 37  1  0
 14 38  1  0
 14 39  1  0
 14 40  1  0
 20 41  1  0
 21 42  1  0
 22 43  1  0
 24 44  1  0
 24 45  1  0
 27 46  1  0
 28 47  1  0
 28 48  1  0
 28 49  1  0
 29 50  1  0
 29 51  1  0
 29 52  1  0
 30 53  1  0
 31 54  1  0
 32 55  1  0
M  CHG  3   3  -1  23  -1  27   1
M  END
>  <score>  (3) 
-7.402

$$$$
=
     RDKit          3D

 55 58  0  0  0  0  0  0  0  0999 V2000
    3.4410   60.7160   71.3020 C   0  0  0  0  0  0  0  0  0  0  0  0
    2.8610   61.8580   71.7550 C   0  0  0  0  0  0  0  0  0  0  0  0
    3.2130   63.0670   71.5990 O   0  0  0  0  0  1  0  0  0  0  0  0
    1.6310   61.7430   72.6800 C   0  0  2  0  0  0  0  0  0  0  0  0
    1.0020   60.3300   72.8840 C   0  0  1  0  0  0  0  0  0  0  0  0
    2.0930   59.2560   72.9590 C   0  0  1  0  0  0  0  0  0  0  0  0
    2.9180   59.3670   71.6520 C   0  0  0  0  0  0  0  0  0  0  0  0
    3.0960   58.4010   70.9010 O   0  0  0  0  0  0  0  0  0  0  0  0
    2.8270   59.3200   74.3180 C   0  0  0  0  0  0  0  0  0  0  0  0
    2.0240   59.3980   75.4110 C   0  0  0  0  0  0  0  0  0  0  0  0
    0.5150   59.3540   75.2670 C   0  0  2  0  0  0  0  0  0  0  0  0
    0.0710   60.3140   74.1370 C   0  0  0  0  0  0  0  0  0  0  0  0
   -0.2760   59.5830   76.5920 C   0  0  1  0  0  0  0  0  0  0  0  0
   -0.3570   58.2890   77.4270 C   0  0  0  0  0  0  0  0  0  0  0  0
    0.3790   60.6660   77.4320 C   0  0  0  0  0  0  0  0  0  0  0  0
    1.7790   60.6620   77.5550 C   0  0  0  0  0  0  0  0  0  0  0  0
    2.5690   59.6850   76.7760 C   0  0  0  0  0  0  0  0  0  0  0  0
    3.5630   59.1990   77.3000 O   0  0  0  0  0  0  0  0  0  0  0  0
    2.4230   61.5510   78.4230 C   0  0  0  0  0  0  0  0  0  0  0  0
    1.6820   62.4880   79.1340 C   0  0  0  0  0  0  0  0  0  0  0  0
    0.2940   62.5230   79.0000 C   0  0  0  0  0  0  0  0  0  0  0  0
   -0.3560   61.6110   78.1630 C   0  0  0  0  0  0  0  0  0  0  0  0
    4.0790   59.3630   74.1990 O   0  0  0  0  0  1  0  0  0  0  0  0
    5.7780   61.0830   71.4080 N   0  0  0  0  0  0  0  0  0  0  0  0
    4.7390   60.7540   70.5800 C   0  0  0  0  0  0  0  0  0  0  0  0
    4.8890   60.4750   69.3950 O   0  0  0  0  0  0  0  0  0  0  0  0
    0.4390   62.6840   72.2580 N   0  0  0  0  0  4  0  0  0  0  0  0
    0.3480   63.8840   73.1500 C   0  0  0  0  0  0  0  0  0  0  0  0
    0.4960   63.0720   70.8120 C   0  0  0  0  0  0  0  0  0  0  0  0
    1.4470   57.9610   72.9080 O   0  0  0  0  0  0  0  0  0  0  0  0
   -1.6300   59.9590   76.2860 O   0  0  0  0  0  0  0  0  0  0  0  0
    3.7770   61.5460   78.6170 O   0  0  0  0  0  0  0  0  0  0  0  0
    2.0981   62.0449   73.6290 H   0  0  0  0  0  0  0  0  0  0  0  0
    0.3745   60.0943   72.0118 H   0  0  0  0  0  0  0  0  0  0  0  0
    0.2542   58.3221   74.9893 H   0  0  0  0  0  0  0  0  0  0  0  0
   -0.9360   60.0149   73.8106 H   0  0  0  0  0  0  0  0  0  0  0  0
    0.1080   61.3281   74.5616 H   0  0  0  0  0  0  0  0  0  0  0  0
   -0.3412   58.5418   78.4974 H   0  0  0  0  0  0  0  0  0  0  0  0
   -1.2902   57.7572   77.1896 H   0  0  0  0  0  0  0  0  0  0  0  0
    0.5026   57.6450   77.1896 H   0  0  0  0  0  0  0  0  0  0  0  0
    2.1893   63.2005   79.8010 H   0  0  0  0  0  0  0  0  0  0  0  0
   -0.2914   63.2709   79.5549 H   0  0  0  0  0  0  0  0  0  0  0  0
   -1.4524   61.6347   78.0771 H   0  0  0  0  0  0  0  0  0  0  0  0
    6.7355   61.1446   71.0334 H   0  0  0  0  0  0  0  0  0  0  0  0
    5.6024   61.2690   72.4057 H   0  0  0  0  0  0  0  0  0  0  0  0
   -0.4260   62.1380   72.3782 H   0  0  0  0  0  0  0  0  0  0  0  0
    0.3724   63.5619   74.2015 H   0  0  0  0  0  0  0  0  0  0  0  0
    1.1980   64.5535   72.9518 H   0  0  0  0  0  0  0  0  0  0  0  0
   -0.5932   64.4177   72.9518 H   0  0  0  0  0  0  0  0  0  0  0  0
    0.6554   64.1573   70.7296 H   0  0  0  0  0  0  0  0  0  0  0  0
    1.3258   62.5413   70.3224 H   0  0  0  0  0  0  0  0  0  0  0  0
   -0.4514   62.8023   70.3224 H   0  0  0  0  0  0  0  0  0  0  0  0
    1.2851   57.6365   73.8292 H   0  0  0  0  0  0  0  0  0  0  0  0
   -2.1320   60.0984   77.1278 H   0  0  0  0  0  0  0  0  0  0  0  0
    4.1900   62.1939   79.2413 H   0  0  0  0  0  0  0  0  0  0  0  0
  2  1  2  0
  3  2  1  0
  4  2  1  0
  5  4  1  0
  6  5  1  0
  7  6  1  0
  7  1  1  0
  8  7  2  0
  9  6  1  0
 10  9  2  0
 11 10  1  0
 12 11  1  0
 12  5  1  0
 13 11  1  0
 14 13  1  0
 15 13  1  0
 16 15  2  0
 17 16  1  0
 17 10  1  0
 18 17  2  0
 19 16  1  0
 20 19  2  0
 21 20  1  0
 22 21  2  0
 22 15  1  0
 23  9  1  0
 25 24  1  0
 25  1  1  0
 26 25  2  0
 27  4  1  0
 28 27  1  0
 29 27  1  0
  6 30  1  6
 13 31  1  6
 32 19  1  0
  4 33  1  1
  5 34  1  6
 11 35  1  6
 12 36  1  0
 12 37  1  0
 14 38  1  0
 14 39  1  0
 14 40  1  0
 20 41  1  0
 21 42  1  0
 22 43  1  0
 24 44  1  0
 24 45  1  0
 27 46  1  0
 28 47  1  0
 28 48  1  0
 28 49  1  0
 29 50  1  0
 29 51  1  0
 29 52  1  0
 30 53  1  0
 31 54  1  0
 32 55  1  0
M  CHG  3   3  -1  23  -1  27   1
M  END
>  <score>  (4) 
-7.196

$$$$
=
     RDKit          3D

 55 58  0  0  0  0  0  0  0  0999 V2000
    1.3210   56.6370   75.7240 C   0  0  0  0  0  0  0  0  0  0  0  0
    0.3780   56.9020   74.7830 C   0  0  0  0  0  0  0  0  0  0  0  0
   -0.0730   56.1670   73.8530 O   0  0  0  0  0  1  0  0  0  0  0  0
   -0.2190   58.3240   74.7180 C   0  0  2  0  0  0  0  0  0  0  0  0
    0.1480   59.3220   75.8600 C   0  0  1  0  0  0  0  0  0  0  0  0
    1.6110   59.1470   76.2850 C   0  0  1  0  0  0  0  0  0  0  0  0
    1.7780   57.6630   76.7000 C   0  0  0  0  0  0  0  0  0  0  0  0
    2.2220   57.3350   77.8070 O   0  0  0  0  0  0  0  0  0  0  0  0
    2.5610   59.7400   75.2210 C   0  0  0  0  0  0  0  0  0  0  0  0
    2.2370   60.9840   74.7790 C   0  0  0  0  0  0  0  0  0  0  0  0
    1.0550   61.7310   75.3670 C   0  0  2  0  0  0  0  0  0  0  0  0
   -0.1710   60.7900   75.4370 C   0  0  0  0  0  0  0  0  0  0  0  0
    0.7290   63.0900   74.6740 C   0  0  1  0  0  0  0  0  0  0  0  0
    1.6470   64.2160   75.1910 C   0  0  0  0  0  0  0  0  0  0  0  0
    0.8900   62.9800   73.1680 C   0  0  0  0  0  0  0  0  0  0  0  0
    2.0090   62.2960   72.6630 C   0  0  0  0  0  0  0  0  0  0  0  0
    2.9200   61.6100   73.6030 C   0  0  0  0  0  0  0  0  0  0  0  0
    4.1190   61.6220   73.3550 O   0  0  0  0  0  0  0  0  0  0  0  0
    2.2780   62.2810   71.2890 C   0  0  0  0  0  0  0  0  0  0  0  0
    1.4050   62.9030   70.4030 C   0  0  0  0  0  0  0  0  0  0  0  0
    0.2760   63.5620   70.8880 C   0  0  0  0  0  0  0  0  0  0  0  0
    0.0240   63.6110   72.2620 C   0  0  0  0  0  0  0  0  0  0  0  0
    3.4650   58.9390   74.8660 O   0  0  0  0  0  1  0  0  0  0  0  0
    3.4150   55.5530   75.5090 N   0  0  0  0  0  0  0  0  0  0  0  0
    2.0760   55.3570   75.7080 C   0  0  0  0  0  0  0  0  0  0  0  0
    1.5820   54.2520   75.9030 O   0  0  0  0  0  0  0  0  0  0  0  0
   -1.7920   58.3400   74.6250 N   0  0  0  0  0  4  0  0  0  0  0  0
   -2.4190   57.8450   75.8920 C   0  0  0  0  0  0  0  0  0  0  0  0
   -2.3320   59.6800   74.2280 C   0  0  0  0  0  0  0  0  0  0  0  0
    1.8190   59.9190   77.4920 O   0  0  0  0  0  0  0  0  0  0  0  0
   -0.6180   63.4810   74.9910 O   0  0  0  0  0  0  0  0  0  0  0  0
    3.3840   61.6760   70.7570 O   0  0  0  0  0  0  0  0  0  0  0  0
    0.2666   58.6744   73.7953 H   0  0  0  0  0  0  0  0  0  0  0  0
   -0.4745   59.0958   76.7382 H   0  0  0  0  0  0  0  0  0  0  0  0
    1.3429   62.0284   76.3862 H   0  0  0  0  0  0  0  0  0  0  0  0
   -0.8812   61.2084   76.1654 H   0  0  0  0  0  0  0  0  0  0  0  0
   -0.5751   60.7348   74.4154 H   0  0  0  0  0  0  0  0  0  0  0  0
    1.6456   64.2142   76.2910 H   0  0  0  0  0  0  0  0  0  0  0  0
    2.6713   64.0510   74.8254 H   0  0  0  0  0  0  0  0  0  0  0  0
    1.2790   65.1860   74.8254 H   0  0  0  0  0  0  0  0  0  0  0  0
    1.6048   62.8751   69.3217 H   0  0  0  0  0  0  0  0  0  0  0  0
   -0.4195   64.0455   70.1862 H   0  0  0  0  0  0  0  0  0  0  0  0
   -0.8600   64.1483   72.6359 H   0  0  0  0  0  0  0  0  0  0  0  0
    4.0543   54.7461   75.4763 H   0  0  0  0  0  0  0  0  0  0  0  0
    3.7840   56.5075   75.3919 H   0  0  0  0  0  0  0  0  0  0  0  0
   -2.0502   57.6876   73.8710 H   0  0  0  0  0  0  0  0  0  0  0  0
   -1.8839   58.2674   76.7553 H   0  0  0  0  0  0  0  0  0  0  0  0
   -3.4733   58.1570   75.9256 H   0  0  0  0  0  0  0  0  0  0  0  0
   -2.3602   56.7471   75.9256 H   0  0  0  0  0  0  0  0  0  0  0  0
   -2.5669   60.2628   75.1309 H   0  0  0  0  0  0  0  0  0  0  0  0
   -1.5797   60.2162   73.6308 H   0  0  0  0  0  0  0  0  0  0  0  0
   -3.2458   59.5448   73.6308 H   0  0  0  0  0  0  0  0  0  0  0  0
    1.6640   59.3436   78.2826 H   0  0  0  0  0  0  0  0  0  0  0  0
   -0.7295   63.5134   75.9742 H   0  0  0  0  0  0  0  0  0  0  0  0
    3.5336   61.6904   69.7785 H   0  0  0  0  0  0  0  0  0  0  0  0
  2  1  2  0
  3  2  1  0
  4  2  1  0
  5  4  1  0
  6  5  1  0
  7  6  1  0
  7  1  1  0
  8  7  2  0
  9  6  1  0
 10  9  2  0
 11 10  1  0
 12 11  1  0
 12  5  1  0
 13 11  1  0
 14 13  1  0
 15 13  1  0
 16 15  2  0
 17 16  1  0
 17 10  1  0
 18 17  2  0
 19 16  1  0
 20 19  2  0
 21 20  1  0
 22 21  2  0
 22 15  1  0
 23  9  1  0
 25 24  1  0
 25  1  1  0
 26 25  2  0
 27  4  1  0
 28 27  1  0
 29 27  1  0
  6 30  1  1
 13 31  1  6
 32 19  1  0
  4 33  1  6
  5 34  1  1
 11 35  1  1
 12 36  1  0
 12 37  1  0
 14 38  1  0
 14 39  1  0
 14 40  1  0
 20 41  1  0
 21 42  1  0
 22 43  1  0
 24 44  1  0
 24 45  1  0
 27 46  1  0
 28 47  1  0
 28 48  1  0
 28 49  1  0
 29 50  1  0
 29 51  1  0
 29 52  1  0
 30 53  1  0
 31 54  1  0
 32 55  1  0
M  CHG  3   3  -1  23  -1  27   1
M  END
>  <score>  (5) 
-7.037

$$$$
=
     RDKit          3D

 55 58  0  0  0  0  0  0  0  0999 V2000
   -0.3960   63.4850   74.7830 C   0  0  0  0  0  0  0  0  0  0  0  0
   -0.9150   62.6560   75.7270 C   0  0  0  0  0  0  0  0  0  0  0  0
   -1.2430   62.8960   76.9290 O   0  0  0  0  0  1  0  0  0  0  0  0
   -1.0750   61.1600   75.3860 C   0  0  2  0  0  0  0  0  0  0  0  0
   -0.8190   60.7160   73.9120 C   0  0  1  0  0  0  0  0  0  0  0  0
    0.3540   61.4960   73.3070 C   0  0  1  0  0  0  0  0  0  0  0  0
    0.0010   62.9990   73.4330 C   0  0  0  0  0  0  0  0  0  0  0  0
   -0.0050   63.7590   72.4570 O   0  0  0  0  0  0  0  0  0  0  0  0
    1.6970   60.9890   73.8790 C   0  0  0  0  0  0  0  0  0  0  0  0
    1.8520   59.6400   73.8940 C   0  0  0  0  0  0  0  0  0  0  0  0
    0.7850   58.7310   73.3140 C   0  0  2  0  0  0  0  0  0  0  0  0
   -0.6070   59.1720   73.8270 C   0  0  0  0  0  0  0  0  0  0  0  0
    1.0420   57.2060   73.5170 C   0  0  1  0  0  0  0  0  0  0  0  0
    2.0240   56.6590   72.4610 C   0  0  0  0  0  0  0  0  0  0  0  0
    1.6090   56.9330   74.8990 C   0  0  0  0  0  0  0  0  0  0  0  0
    2.6100   57.7870   75.3920 C   0  0  0  0  0  0  0  0  0  0  0  0
    2.9910   58.9800   74.6080 C   0  0  0  0  0  0  0  0  0  0  0  0
    4.1700   59.3120   74.5990 O   0  0  0  0  0  0  0  0  0  0  0  0
    3.2620   57.5030   76.5980 C   0  0  0  0  0  0  0  0  0  0  0  0
    2.8830   56.3960   77.3500 C   0  0  0  0  0  0  0  0  0  0  0  0
    1.8710   55.5550   76.8860 C   0  0  0  0  0  0  0  0  0  0  0  0
    1.2450   55.8140   75.6630 C   0  0  0  0  0  0  0  0  0  0  0  0
    2.4250   61.9160   74.3190 O   0  0  0  0  0  1  0  0  0  0  0  0
    1.1020   64.9510   75.8850 N   0  0  0  0  0  0  0  0  0  0  0  0
   -0.0290   64.8850   75.1160 C   0  0  0  0  0  0  0  0  0  0  0  0
   -0.6250   65.8780   74.7140 O   0  0  0  0  0  0  0  0  0  0  0  0
   -2.4900   60.5790   75.7670 N   0  0  0  0  0  4  0  0  0  0  0  0
   -2.5450   60.1750   77.2090 C   0  0  0  0  0  0  0  0  0  0  0  0
   -3.6090   61.5070   75.4090 C   0  0  0  0  0  0  0  0  0  0  0  0
    0.3870   61.2170   71.8860 O   0  0  0  0  0  0  0  0  0  0  0  0
   -0.1880   56.4830   73.3450 O   0  0  0  0  0  0  0  0  0  0  0  0
    4.2790   58.2740   77.0900 O   0  0  0  0  0  0  0  0  0  0  0  0
   -0.2636   60.7521   76.0067 H   0  0  0  0  0  0  0  0  0  0  0  0
   -1.7104   60.9530   73.3127 H   0  0  0  0  0  0  0  0  0  0  0  0
    0.8255   58.8521   72.2214 H   0  0  0  0  0  0  0  0  0  0  0  0
   -1.3676   58.7599   73.1475 H   0  0  0  0  0  0  0  0  0  0  0  0
   -0.6900   58.7928   74.8562 H   0  0  0  0  0  0  0  0  0  0  0  0
    2.8778   56.1834   72.9658 H   0  0  0  0  0  0  0  0  0  0  0  0
    1.5102   55.9171   71.8320 H   0  0  0  0  0  0  0  0  0  0  0  0
    2.3844   57.4864   71.8320 H   0  0  0  0  0  0  0  0  0  0  0  0
    3.3799   56.1841   78.3082 H   0  0  0  0  0  0  0  0  0  0  0  0
    1.5644   54.6847   77.4848 H   0  0  0  0  0  0  0  0  0  0  0  0
    0.4608   55.1350   75.2969 H   0  0  0  0  0  0  0  0  0  0  0  0
    1.4667   65.8657   76.1871 H   0  0  0  0  0  0  0  0  0  0  0  0
    1.5880   64.0860   76.1614 H   0  0  0  0  0  0  0  0  0  0  0  0
   -2.6240   59.7305   75.1987 H   0  0  0  0  0  0  0  0  0  0  0  0
   -2.4238   61.0650   77.8440 H   0  0  0  0  0  0  0  0  0  0  0  0
   -3.5157   59.7029   77.4207 H   0  0  0  0  0  0  0  0  0  0  0  0
   -1.7358   59.4606   77.4207 H   0  0  0  0  0  0  0  0  0  0  0  0
   -4.0739   61.8926   76.3283 H   0  0  0  0  0  0  0  0  0  0  0  0
   -3.2143   62.3465   74.8178 H   0  0  0  0  0  0  0  0  0  0  0  0
   -4.3609   60.9638   74.8178 H   0  0  0  0  0  0  0  0  0  0  0  0
    0.5021   60.2441   71.7433 H   0  0  0  0  0  0  0  0  0  0  0  0
   -0.5668   56.2604   74.2322 H   0  0  0  0  0  0  0  0  0  0  0  0
    4.7112   58.0346   77.9479 H   0  0  0  0  0  0  0  0  0  0  0  0
  2  1  2  0
  3  2  1  0
  4  2  1  0
  5  4  1  0
  6  5  1  0
  7  6  1  0
  7  1  1  0
  8  7  2  0
  9  6  1  0
 10  9  2  0
 11 10  1  0
 12 11  1  0
 12  5  1  0
 13 11  1  0
 14 13  1  0
 15 13  1  0
 16 15  2  0
 17 16  1  0
 17 10  1  0
 18 17  2  0
 19 16  1  0
 20 19  2  0
 21 20  1  0
 22 21  2  0
 22 15  1  0
 23  9  1  0
 25 24  1  0
 25  1  1  0
 26 25  2  0
 27  4  1  0
 28 27  1  0
 29 27  1  0
  6 30  1  6
 13 31  1  1
 32 19  1  0
  4 33  1  1
  5 34  1  6
 11 35  1  6
 12 36  1  0
 12 37  1  0
 14 38  1  0
 14 39  1  0
 14 40  1  0
 20 41  1  0
 21 42  1  0
 22 43  1  0
 24 44  1  0
 24 45  1  0
 27 46  1  0
 28 47  1  0
 28 48  1  0
 28 49  1  0
 29 50  1  0
 29 51  1  0
 29 52  1  0
 30 53  1  0
 31 54  1  0
 32 55  1  0
M  CHG  3   3  -1  23  -1  27   1
M  END
>  <score>  (6) 
-6.87

$$$$
=
     RDKit          3D

 55 58  0  0  0  0  0  0  0  0999 V2000
   -1.6150   62.1960   76.3170 C   0  0  0  0  0  0  0  0  0  0  0  0
   -0.3350   62.3490   76.7490 C   0  0  0  0  0  0  0  0  0  0  0  0
    0.1770   63.2600   77.4680 O   0  0  0  0  0  1  0  0  0  0  0  0
    0.7320   61.3490   76.2590 C   0  0  2  0  0  0  0  0  0  0  0  0
    0.2490   60.1020   75.4540 C   0  0  1  0  0  0  0  0  0  0  0  0
   -0.9070   60.4750   74.5190 C   0  0  1  0  0  0  0  0  0  0  0  0
   -2.0180   61.0890   75.4080 C   0  0  0  0  0  0  0  0  0  0  0  0
   -3.1760   60.6540   75.4100 O   0  0  0  0  0  0  0  0  0  0  0  0
   -0.3880   61.2780   73.3050 C   0  0  0  0  0  0  0  0  0  0  0  0
    0.7040   60.7590   72.6870 C   0  0  0  0  0  0  0  0  0  0  0  0
    1.3010   59.4420   73.1460 C   0  0  2  0  0  0  0  0  0  0  0  0
    1.4390   59.4430   74.6870 C   0  0  0  0  0  0  0  0  0  0  0  0
    2.6240   59.0360   72.4270 C   0  0  1  0  0  0  0  0  0  0  0  0
    2.3420   58.3850   71.0590 C   0  0  0  0  0  0  0  0  0  0  0  0
    3.5180   60.2470   72.2170 C   0  0  0  0  0  0  0  0  0  0  0  0
    2.9290   61.4430   71.7720 C   0  0  0  0  0  0  0  0  0  0  0  0
    1.4590   61.5180   71.6400 C   0  0  0  0  0  0  0  0  0  0  0  0
    0.9970   62.1640   70.7080 O   0  0  0  0  0  0  0  0  0  0  0  0
    3.7210   62.5470   71.4330 C   0  0  0  0  0  0  0  0  0  0  0  0
    5.1020   62.4850   71.5860 C   0  0  0  0  0  0  0  0  0  0  0  0
    5.6970   61.3140   72.0520 C   0  0  0  0  0  0  0  0  0  0  0  0
    4.9130   60.1970   72.3560 C   0  0  0  0  0  0  0  0  0  0  0  0
   -1.0230   62.3480   73.1140 O   0  0  0  0  0  1  0  0  0  0  0  0
   -3.5390   62.8360   77.5400 N   0  0  0  0  0  0  0  0  0  0  0  0
   -2.6410   63.2360   76.5880 C   0  0  0  0  0  0  0  0  0  0  0  0
   -2.6650   64.3460   76.0690 O   0  0  0  0  0  0  0  0  0  0  0  0
    1.6410   60.7840   77.4160 N   0  0  0  0  0  4  0  0  0  0  0  0
    0.8980   59.7950   78.2620 C   0  0  0  0  0  0  0  0  0  0  0  0
    2.9330   60.2200   76.9110 C   0  0  0  0  0  0  0  0  0  0  0  0
   -1.4620   59.2480   73.9870 O   0  0  0  0  0  0  0  0  0  0  0  0
    3.3180   58.0530   73.2140 O   0  0  0  0  0  0  0  0  0  0  0  0
    3.1970   63.7120   70.9440 O   0  0  0  0  0  0  0  0  0  0  0  0
    1.2798   62.0058   75.5673 H   0  0  0  0  0  0  0  0  0  0  0  0
   -0.1346   59.3522   76.1616 H   0  0  0  0  0  0  0  0  0  0  0  0
    0.5958   58.6533   72.8447 H   0  0  0  0  0  0  0  0  0  0  0  0
    1.5256   58.3991   75.0229 H   0  0  0  0  0  0  0  0  0  0  0  0
    2.3273   60.0498   74.9165 H   0  0  0  0  0  0  0  0  0  0  0  0
    1.9090   57.3853   71.2110 H   0  0  0  0  0  0  0  0  0  0  0  0
    1.6337   59.0095   70.4948 H   0  0  0  0  0  0  0  0  0  0  0  0
    3.2820   58.2955   70.4948 H   0  0  0  0  0  0  0  0  0  0  0  0
    5.7235   63.3586   71.3397 H   0  0  0  0  0  0  0  0  0  0  0  0
    6.7884   61.2684   72.1812 H   0  0  0  0  0  0  0  0  0  0  0  0
    5.3937   59.2719   72.7069 H   0  0  0  0  0  0  0  0  0  0  0  0
   -4.3044   63.4647   77.8225 H   0  0  0  0  0  0  0  0  0  0  0  0
   -3.4495   61.9062   77.9741 H   0  0  0  0  0  0  0  0  0  0  0  0
    1.8887   61.5848   78.0145 H   0  0  0  0  0  0  0  0  0  0  0  0
    1.0679   60.0211   79.3250 H   0  0  0  0  0  0  0  0  0  0  0  0
   -0.1777   59.8584   78.0410 H   0  0  0  0  0  0  0  0  0  0  0  0
    1.2585   58.7795   78.0410 H   0  0  0  0  0  0  0  0  0  0  0  0
    3.5699   59.9420   77.7637 H   0  0  0  0  0  0  0  0  0  0  0  0
    2.7298   59.3287   76.2992 H   0  0  0  0  0  0  0  0  0  0  0  0
    3.4484   60.9750   76.2992 H   0  0  0  0  0  0  0  0  0  0  0  0
   -1.7298   58.6559   74.7339 H   0  0  0  0  0  0  0  0  0  0  0  0
    3.1826   58.2448   74.1758 H   0  0  0  0  0  0  0  0  0  0  0  0
    3.7956   64.4673   70.7175 H   0  0  0  0  0  0  0  0  0  0  0  0
  2  1  2  0
  3  2  1  0
  4  2  1  0
  5  4  1  0
  6  5  1  0
  7  6  1  0
  7  1  1  0
  8  7  2  0
  9  6  1  0
 10  9  2  0
 11 10  1  0
 12 11  1  0
 12  5  1  0
 13 11  1  0
 14 13  1  0
 15 13  1  0
 16 15  2  0
 17 16  1  0
 17 10  1  0
 18 17  2  0
 19 16  1  0
 20 19  2  0
 21 20  1  0
 22 21  2  0
 22 15  1  0
 23  9  1  0
 25 24  1  0
 25  1  1  0
 26 25  2  0
 27  4  1  0
 28 27  1  0
 29 27  1  0
  6 30  1  6
 13 31  1  1
 32 19  1  0
  4 33  1  6
  5 34  1  1
 11 35  1  1
 12 36  1  0
 12 37  1  0
 14 38  1  0
 14 39  1  0
 14 40  1  0
 20 41  1  0
 21 42  1  0
 22 43  1  0
 24 44  1  0
 24 45  1  0
 27 46  1  0
 28 47  1  0
 28 48  1  0
 28 49  1  0
 29 50  1  0
 29 51  1  0
 29 52  1  0
 30 53  1  0
 31 54  1  0
 32 55  1  0
M  CHG  3   3  -1  23  -1  27   1
M  END
>  <score>  (7) 
-6.63

$$$$
=
     RDKit          3D

 55 58  0  0  0  0  0  0  0  0999 V2000
    2.7360   60.5340   71.7000 C   0  0  0  0  0  0  0  0  0  0  0  0
    2.5090   59.2860   72.1870 C   0  0  0  0  0  0  0  0  0  0  0  0
    2.4290   58.1770   71.5770 O   0  0  0  0  0  1  0  0  0  0  0  0
    2.2080   59.1260   73.6930 C   0  0  2  0  0  0  0  0  0  0  0  0
    2.3760   60.3790   74.6080 C   0  0  1  0  0  0  0  0  0  0  0  0
    1.9030   61.6450   73.8840 C   0  0  1  0  0  0  0  0  0  0  0  0
    2.7220   61.7400   72.5720 C   0  0  0  0  0  0  0  0  0  0  0  0
    3.3790   62.7460   72.2770 O   0  0  0  0  0  0  0  0  0  0  0  0
    0.3600   61.6850   73.8100 C   0  0  0  0  0  0  0  0  0  0  0  0
   -0.2870   61.4150   74.9740 C   0  0  0  0  0  0  0  0  0  0  0  0
    0.4920   61.1640   76.2510 C   0  0  2  0  0  0  0  0  0  0  0  0
    1.6450   60.1710   75.9710 C   0  0  0  0  0  0  0  0  0  0  0  0
   -0.3780   60.7410   77.4760 C   0  0  1  0  0  0  0  0  0  0  0  0
   -1.0210   61.9660   78.1560 C   0  0  0  0  0  0  0  0  0  0  0  0
   -1.4780   59.7840   77.0520 C   0  0  0  0  0  0  0  0  0  0  0  0
   -2.1890   60.0620   75.8710 C   0  0  0  0  0  0  0  0  0  0  0  0
   -1.7680   61.2000   75.0270 C   0  0  0  0  0  0  0  0  0  0  0  0
   -2.6380   61.8570   74.4700 O   0  0  0  0  0  0  0  0  0  0  0  0
   -3.2990   59.2920   75.5060 C   0  0  0  0  0  0  0  0  0  0  0  0
   -3.6770   58.2040   76.2860 C   0  0  0  0  0  0  0  0  0  0  0  0
   -2.9640   57.8990   77.4450 C   0  0  0  0  0  0  0  0  0  0  0  0
   -1.8780   58.6890   77.8330 C   0  0  0  0  0  0  0  0  0  0  0  0
   -0.0720   61.8960   72.6470 O   0  0  0  0  0  1  0  0  0  0  0  0
    3.5700   59.8170   69.6040 N   0  0  0  0  0  0  0  0  0  0  0  0
    2.8290   60.7770   70.2370 C   0  0  0  0  0  0  0  0  0  0  0  0
    2.2700   61.6930   69.6440 O   0  0  0  0  0  0  0  0  0  0  0  0
    3.0450   57.9810   74.3800 N   0  0  0  0  0  4  0  0  0  0  0  0
    4.1640   58.5400   75.2050 C   0  0  0  0  0  0  0  0  0  0  0  0
    2.1900   57.0400   75.1730 C   0  0  0  0  0  0  0  0  0  0  0  0
    2.3010   62.7870   74.6810 O   0  0  0  0  0  0  0  0  0  0  0  0
    0.4560   60.1140   78.4650 O   0  0  0  0  0  0  0  0  0  0  0  0
   -4.0540   59.5590   74.3970 O   0  0  0  0  0  0  0  0  0  0  0  0
    1.1344   58.8942   73.6326 H   0  0  0  0  0  0  0  0  0  0  0  0
    3.4447   60.5124   74.8317 H   0  0  0  0  0  0  0  0  0  0  0  0
    0.9139   62.1319   76.5594 H   0  0  0  0  0  0  0  0  0  0  0  0
    2.3875   60.2740   76.7760 H   0  0  0  0  0  0  0  0  0  0  0  0
    1.1870   59.1719   75.9257 H   0  0  0  0  0  0  0  0  0  0  0  0
   -0.9613   61.8523   79.2485 H   0  0  0  0  0  0  0  0  0  0  0  0
   -0.4850   62.8773   77.8524 H   0  0  0  0  0  0  0  0  0  0  0  0
   -2.0755   62.0425   77.8524 H   0  0  0  0  0  0  0  0  0  0  0  0
   -4.5367   57.5854   75.9891 H   0  0  0  0  0  0  0  0  0  0  0  0
   -3.2574   57.0330   78.0565 H   0  0  0  0  0  0  0  0  0  0  0  0
   -1.3326   58.4504   78.7580 H   0  0  0  0  0  0  0  0  0  0  0  0
    3.7139   59.8659   68.5853 H   0  0  0  0  0  0  0  0  0  0  0  0
    3.9840   59.0453   70.1461 H   0  0  0  0  0  0  0  0  0  0  0  0
    3.4635   57.4249   73.6208 H   0  0  0  0  0  0  0  0  0  0  0  0
    3.9270   58.4216   76.2726 H   0  0  0  0  0  0  0  0  0  0  0  0
    5.0946   58.0009   74.9740 H   0  0  0  0  0  0  0  0  0  0  0  0
    4.2919   59.6078   74.9740 H   0  0  0  0  0  0  0  0  0  0  0  0
    2.3499   57.2160   76.2470 H   0  0  0  0  0  0  0  0  0  0  0  0
    1.1315   57.2106   74.9271 H   0  0  0  0  0  0  0  0  0  0  0  0
    2.4610   56.0027   74.9271 H   0  0  0  0  0  0  0  0  0  0  0  0
    2.2227   62.5622   75.6419 H   0  0  0  0  0  0  0  0  0  0  0  0
    0.1342   60.3559   79.3694 H   0  0  0  0  0  0  0  0  0  0  0  0
   -4.8313   58.9864   74.1777 H   0  0  0  0  0  0  0  0  0  0  0  0
  2  1  2  0
  3  2  1  0
  4  2  1  0
  5  4  1  0
  6  5  1  0
  7  6  1  0
  7  1  1  0
  8  7  2  0
  9  6  1  0
 10  9  2  0
 11 10  1  0
 12 11  1  0
 12  5  1  0
 13 11  1  0
 14 13  1  0
 15 13  1  0
 16 15  2  0
 17 16  1  0
 17 10  1  0
 18 17  2  0
 19 16  1  0
 20 19  2  0
 21 20  1  0
 22 21  2  0
 22 15  1  0
 23  9  1  0
 25 24  1  0
 25  1  1  0
 26 25  2  0
 27  4  1  0
 28 27  1  0
 29 27  1  0
  6 30  1  1
 13 31  1  1
 32 19  1  0
  4 33  1  6
  5 34  1  1
 11 35  1  1
 12 36  1  0
 12 37  1  0
 14 38  1  0
 14 39  1  0
 14 40  1  0
 20 41  1  0
 21 42  1  0
 22 43  1  0
 24 44  1  0
 24 45  1  0
 27 46  1  0
 28 47  1  0
 28 48  1  0
 28 49  1  0
 29 50  1  0
 29 51  1  0
 29 52  1  0
 30 53  1  0
 31 54  1  0
 32 55  1  0
M  CHG  3   3  -1  23  -1  27   1
M  END
>  <score>  (8) 
-5.997

$$$$
=
     RDKit          3D

 55 58  0  0  0  0  0  0  0  0999 V2000
   -1.2550   63.1220   75.9340 C   0  0  0  0  0  0  0  0  0  0  0  0
   -1.7640   62.2930   74.9850 C   0  0  0  0  0  0  0  0  0  0  0  0
   -1.2990   61.9730   73.8490 O   0  0  0  0  0  1  0  0  0  0  0  0
   -3.1600   61.6760   75.2170 C   0  0  2  0  0  0  0  0  0  0  0  0
   -3.8250   61.8800   76.6140 C   0  0  1  0  0  0  0  0  0  0  0  0
   -3.5320   63.2850   77.1540 C   0  0  1  0  0  0  0  0  0  0  0  0
   -1.9900   63.4360   77.1890 C   0  0  0  0  0  0  0  0  0  0  0  0
   -1.3820   63.7500   78.2200 O   0  0  0  0  0  0  0  0  0  0  0  0
   -4.3720   64.3430   76.4020 C   0  0  0  0  0  0  0  0  0  0  0  0
   -5.6900   64.0470   76.2610 C   0  0  0  0  0  0  0  0  0  0  0  0
   -6.2700   62.7860   76.8730 C   0  0  2  0  0  0  0  0  0  0  0  0
   -5.3550   61.5810   76.5480 C   0  0  0  0  0  0  0  0  0  0  0  0
   -7.7650   62.5140   76.5200 C   0  0  1  0  0  0  0  0  0  0  0  0
   -8.7110   63.3380   77.4170 C   0  0  0  0  0  0  0  0  0  0  0  0
   -8.0480   62.8580   75.0680 C   0  0  0  0  0  0  0  0  0  0  0  0
   -7.5070   64.0440   74.5430 C   0  0  0  0  0  0  0  0  0  0  0  0
   -6.5930   64.8510   75.3780 C   0  0  0  0  0  0  0  0  0  0  0  0
   -6.6580   66.0700   75.2900 O   0  0  0  0  0  0  0  0  0  0  0  0
   -7.8460   64.4760   73.2560 C   0  0  0  0  0  0  0  0  0  0  0  0
   -8.6840   63.7020   72.4600 C   0  0  0  0  0  0  0  0  0  0  0  0
   -9.2050   62.5080   72.9570 C   0  0  0  0  0  0  0  0  0  0  0  0
   -8.8990   62.0920   74.2560 C   0  0  0  0  0  0  0  0  0  0  0  0
   -3.6820   65.3000   75.9660 O   0  0  0  0  0  1  0  0  0  0  0  0
   -0.2700   65.2400   75.5490 N   0  0  0  0  0  0  0  0  0  0  0  0
   -0.0160   63.9020   75.6800 C   0  0  0  0  0  0  0  0  0  0  0  0
    1.1130   63.4270   75.6430 O   0  0  0  0  0  0  0  0  0  0  0  0
   -3.2140   60.1260   74.9410 N   0  0  0  0  0  4  0  0  0  0  0  0
   -2.6170   59.3470   76.0730 C   0  0  0  0  0  0  0  0  0  0  0  0
   -4.5940   59.6480   74.6070 C   0  0  0  0  0  0  0  0  0  0  0  0
   -3.9640   63.3300   78.5350 O   0  0  0  0  0  0  0  0  0  0  0  0
   -8.0740   61.1310   76.7600 O   0  0  0  0  0  0  0  0  0  0  0  0
   -7.3890   65.6510   72.7240 O   0  0  0  0  0  0  0  0  0  0  0  0
   -3.7325   62.2610   74.4822 H   0  0  0  0  0  0  0  0  0  0  0  0
   -3.3856   61.1618   77.3219 H   0  0  0  0  0  0  0  0  0  0  0  0
   -6.2898   62.9438   77.9614 H   0  0  0  0  0  0  0  0  0  0  0  0
   -5.5776   60.7793   77.2675 H   0  0  0  0  0  0  0  0  0  0  0  0
   -5.5699   61.3033   75.5056 H   0  0  0  0  0  0  0  0  0  0  0  0
   -8.4811   63.1377   78.4739 H   0  0  0  0  0  0  0  0  0  0  0  0
   -8.5734   64.4093   77.2084 H   0  0  0  0  0  0  0  0  0  0  0  0
   -9.7532   63.0547   77.2084 H   0  0  0  0  0  0  0  0  0  0  0  0
   -8.9351   64.0311   71.4409 H   0  0  0  0  0  0  0  0  0  0  0  0
   -9.8596   61.8907   72.3242 H   0  0  0  0  0  0  0  0  0  0  0  0
   -9.3285   61.1570   74.6449 H   0  0  0  0  0  0  0  0  0  0  0  0
    0.5036   65.8959   75.3698 H   0  0  0  0  0  0  0  0  0  0  0  0
   -1.2349   65.5913   75.6296 H   0  0  0  0  0  0  0  0  0  0  0  0
   -2.6372   59.9548   74.1050 H   0  0  0  0  0  0  0  0  0  0  0  0
   -2.9475   59.7783   77.0294 H   0  0  0  0  0  0  0  0  0  0  0  0
   -2.9454   58.2991   76.0104 H   0  0  0  0  0  0  0  0  0  0  0  0
   -1.5197   59.3917   76.0104 H   0  0  0  0  0  0  0  0  0  0  0  0
   -5.1502   59.4553   75.5362 H   0  0  0  0  0  0  0  0  0  0  0  0
   -5.1165   60.4175   74.0198 H   0  0  0  0  0  0  0  0  0  0  0  0
   -4.5286   58.7202   74.0198 H   0  0  0  0  0  0  0  0  0  0  0  0
   -3.1769   63.2480   79.1298 H   0  0  0  0  0  0  0  0  0  0  0  0
   -8.1110   60.9656   77.7354 H   0  0  0  0  0  0  0  0  0  0  0  0
   -7.6554   65.9164   71.8082 H   0  0  0  0  0  0  0  0  0  0  0  0
  2  1  2  0
  3  2  1  0
  4  2  1  0
  5  4  1  0
  6  5  1  0
  7  6  1  0
  7  1  1  0
  8  7  2  0
  9  6  1  0
 10  9  2  0
 11 10  1  0
 12 11  1  0
 12  5  1  0
 13 11  1  0
 14 13  1  0
 15 13  1  0
 16 15  2  0
 17 16  1  0
 17 10  1  0
 18 17  2  0
 19 16  1  0
 20 19  2  0
 21 20  1  0
 22 21  2  0
 22 15  1  0
 23  9  1  0
 25 24  1  0
 25  1  1  0
 26 25  2  0
 27  4  1  0
 28 27  1  0
 29 27  1  0
  6 30  1  1
 13 31  1  6
 32 19  1  0
  4 33  1  6
  5 34  1  1
 11 35  1  1
 12 36  1  0
 12 37  1  0
 14 38  1  0
 14 39  1  0
 14 40  1  0
 20 41  1  0
 21 42  1  0
 22 43  1  0
 24 44  1  0
 24 45  1  0
 27 46  1  0
 28 47  1  0
 28 48  1  0
 28 49  1  0
 29 50  1  0
 29 51  1  0
 29 52  1  0
 30 53  1  0
 31 54  1  0
 32 55  1  0
M  CHG  3   3  -1  23  -1  27   1
M  END
>  <score>  (9) 
-5.769

$$$$
