=
     RDKit          3D

 49 52  0  0  0  0  0  0  0  0999 V2000
    1.2040   65.8170   70.1490 O   0  0  0  0  0  0  0  0  0  0  0  0
    1.4160   64.6950   70.6050 C   0  0  0  0  0  0  0  0  0  0  0  0
    2.7930   64.0780   70.5970 C   0  0  0  0  0  0  0  0  0  0  0  0
    2.7620   62.5700   70.8450 C   0  0  0  0  0  0  0  0  0  0  0  0
    1.8750   62.1620   72.0500 C   0  0  1  0  0  0  0  0  0  0  0  0
    0.4840   62.7690   71.8410 C   0  0  0  0  0  0  0  0  0  0  0  0
    0.2900   63.9320   71.1940 C   0  0  0  0  0  0  0  0  0  0  0  0
   -0.7170   61.9590   72.2810 C   0  0  0  0  0  0  0  0  0  0  0  0
   -0.4510   61.0430   73.4740 C   0  0  0  0  0  0  0  0  0  0  0  0
    0.8230   60.1860   73.3400 C   0  0  2  0  0  0  0  0  0  0  0  0
    1.7080   60.6070   72.1210 C   0  0  2  0  0  0  0  0  0  0  0  0
    3.0200   59.7860   72.0750 C   0  0  0  0  0  0  0  0  0  0  0  0
    2.7640   58.2650   72.1080 C   0  0  0  0  0  0  0  0  0  0  0  0
    1.8740   57.8620   73.2920 C   0  0  1  0  0  0  0  0  0  0  0  0
    0.5620   58.6810   73.2300 C   0  0  1  0  0  0  0  0  0  0  0  0
   -0.3310   57.9850   74.2550 C   0  0  0  0  0  0  0  0  0  0  0  0
    0.0510   56.4970   74.1330 C   0  0  0  0  0  0  0  0  0  0  0  0
    1.2800   56.4410   73.2070 C   0  0  2  0  0  0  0  0  0  0  0  0
    2.6820   58.0220   74.6080 C   0  0  0  0  0  0  0  0  0  0  0  0
    2.4980   62.7280   73.3490 C   0  0  0  0  0  0  0  0  0  0  0  0
    2.1730   55.4220   73.6150 O   0  0  0  0  0  0  0  0  0  0  0  0
    3.2571   64.2646   69.6173 H   0  0  0  0  0  0  0  0  0  0  0  0
    3.3695   64.5384   71.4129 H   0  0  0  0  0  0  0  0  0  0  0  0
    2.3727   62.0762   69.9425 H   0  0  0  0  0  0  0  0  0  0  0  0
    3.7907   62.2582   71.0787 H   0  0  0  0  0  0  0  0  0  0  0  0
   -0.7320   64.3277   71.0994 H   0  0  0  0  0  0  0  0  0  0  0  0
   -1.5223   62.6567   72.5545 H   0  0  0  0  0  0  0  0  0  0  0  0
   -0.9860   61.3079   71.4362 H   0  0  0  0  0  0  0  0  0  0  0  0
   -0.3534   61.6680   74.3739 H   0  0  0  0  0  0  0  0  0  0  0  0
   -1.2982   60.3437   73.5310 H   0  0  0  0  0  0  0  0  0  0  0  0
    1.3550   60.3804   74.2829 H   0  0  0  0  0  0  0  0  0  0  0  0
    1.1918   60.3492   71.1845 H   0  0  0  0  0  0  0  0  0  0  0  0
    3.5591   60.0334   71.1486 H   0  0  0  0  0  0  0  0  0  0  0  0
    3.6096   60.0461   72.9665 H   0  0  0  0  0  0  0  0  0  0  0  0
    2.2682   57.9670   71.1724 H   0  0  0  0  0  0  0  0  0  0  0  0
    3.7334   57.7576   72.2209 H   0  0  0  0  0  0  0  0  0  0  0  0
    0.0294   58.6836   72.2676 H   0  0  0  0  0  0  0  0  0  0  0  0
   -0.1272   58.3591   75.2692 H   0  0  0  0  0  0  0  0  0  0  0  0
   -1.4013   58.1635   74.0745 H   0  0  0  0  0  0  0  0  0  0  0  0
    0.3003   56.0854   75.1222 H   0  0  0  0  0  0  0  0  0  0  0  0
   -0.7815   55.9023   73.7290 H   0  0  0  0  0  0  0  0  0  0  0  0
    1.0398   56.1793   72.1659 H   0  0  0  0  0  0  0  0  0  0  0  0
    2.0105   57.8890   75.4690 H   0  0  0  0  0  0  0  0  0  0  0  0
    3.4785   57.2641   74.6437 H   0  0  0  0  0  0  0  0  0  0  0  0
    3.1295   59.0262   74.6437 H   0  0  0  0  0  0  0  0  0  0  0  0
    2.0014   62.2768   74.2207 H   0  0  0  0  0  0  0  0  0  0  0  0
    3.5716   62.4899   73.3747 H   0  0  0  0  0  0  0  0  0  0  0  0
    2.3637   63.8195   73.3747 H   0  0  0  0  0  0  0  0  0  0  0  0
    2.2039   55.3868   74.6039 H   0  0  0  0  0  0  0  0  0  0  0  0
  2  1  2  0
  3  2  1  0
  4  3  1  0
  5  4  1  0
  6  5  1  0
  7  2  1  0
  7  6  2  0
  8  6  1  0
  9  8  1  0
 10  9  1  0
 11 10  1  0
 11  5  1  0
 12 11  1  0
 13 12  1  0
 14 13  1  0
 15 14  1  0
 15 10  1  0
 16 15  1  0
 17 16  1  0
 18 17  1  0
 18 14  1  0
 14 19  1  1
  5 20  1  1
 21 18  1  0
  3 22  1  0
  3 23  1  0
  4 24  1  0
  4 25  1  0
  7 26  1  0
  8 27  1  0
  8 28  1  0
  9 29  1  0
  9 30  1  0
 10 31  1  1
 11 32  1  6
 12 33  1  0
 12 34  1  0
 13 35  1  0
 13 36  1  0
 15 37  1  6
 16 38  1  0
 16 39  1  0
 17 40  1  0
 17 41  1  0
 18 42  1  6
 19 43  1  0
 19 44  1  0
 19 45  1  0
 20 46  1  0
 20 47  1  0
 20 48  1  0
 21 49  1  0
M  END
>  <score>  (1) 
-9.085

$$$$
=
     RDKit          3D

 49 52  0  0  0  0  0  0  0  0999 V2000
    0.5030   54.4940   74.3510 O   0  0  0  0  0  0  0  0  0  0  0  0
    0.4770   55.7030   74.1280 C   0  0  0  0  0  0  0  0  0  0  0  0
   -0.5900   56.5980   74.7100 C   0  0  0  0  0  0  0  0  0  0  0  0
   -0.6640   57.9550   74.0100 C   0  0  0  0  0  0  0  0  0  0  0  0
    0.7200   58.6290   73.8260 C   0  0  1  0  0  0  0  0  0  0  0  0
    1.6420   57.6320   73.1150 C   0  0  0  0  0  0  0  0  0  0  0  0
    1.5290   56.3020   73.2740 C   0  0  0  0  0  0  0  0  0  0  0  0
    2.6340   58.1760   72.1100 C   0  0  0  0  0  0  0  0  0  0  0  0
    3.1240   59.5890   72.4140 C   0  0  0  0  0  0  0  0  0  0  0  0
    1.9980   60.5930   72.7350 C   0  0  2  0  0  0  0  0  0  0  0  0
    0.6080   59.8990   72.9170 C   0  0  2  0  0  0  0  0  0  0  0  0
   -0.4770   60.9260   73.3280 C   0  0  0  0  0  0  0  0  0  0  0  0
   -0.5480   62.1250   72.3590 C   0  0  0  0  0  0  0  0  0  0  0  0
    0.8240   62.7850   72.1640 C   0  0  1  0  0  0  0  0  0  0  0  0
    1.8320   61.7070   71.6970 C   0  0  1  0  0  0  0  0  0  0  0  0
    3.0430   62.5280   71.2600 C   0  0  0  0  0  0  0  0  0  0  0  0
    2.4280   63.8040   70.6540 C   0  0  0  0  0  0  0  0  0  0  0  0
    0.9200   63.7470   70.9630 C   0  0  2  0  0  0  0  0  0  0  0  0
    1.2180   63.5240   73.4700 C   0  0  0  0  0  0  0  0  0  0  0  0
    1.3030   58.9740   75.2170 C   0  0  0  0  0  0  0  0  0  0  0  0
    0.4080   65.0400   71.2240 O   0  0  0  0  0  0  0  0  0  0  0  0
   -1.5638   56.0963   74.6102 H   0  0  0  0  0  0  0  0  0  0  0  0
   -0.3341   56.7800   75.7642 H   0  0  0  0  0  0  0  0  0  0  0  0
   -1.1166   57.8113   73.0178 H   0  0  0  0  0  0  0  0  0  0  0  0
   -1.2656   58.6178   74.6493 H   0  0  0  0  0  0  0  0  0  0  0  0
    2.2377   55.6396   72.7553 H   0  0  0  0  0  0  0  0  0  0  0  0
    3.5060   57.5059   72.0891 H   0  0  0  0  0  0  0  0  0  0  0  0
    2.1097   58.2250   71.1442 H   0  0  0  0  0  0  0  0  0  0  0  0
    3.8005   59.5407   73.2801 H   0  0  0  0  0  0  0  0  0  0  0  0
    3.6226   59.9535   71.5037 H   0  0  0  0  0  0  0  0  0  0  0  0
    2.3267   61.0452   73.6824 H   0  0  0  0  0  0  0  0  0  0  0  0
    0.2630   59.5070   71.9489 H   0  0  0  0  0  0  0  0  0  0  0  0
   -1.4547   60.4220   73.3389 H   0  0  0  0  0  0  0  0  0  0  0  0
   -0.2128   61.3136   74.3230 H   0  0  0  0  0  0  0  0  0  0  0  0
   -0.9151   61.7728   71.3837 H   0  0  0  0  0  0  0  0  0  0  0  0
   -1.2280   62.8735   72.7918 H   0  0  0  0  0  0  0  0  0  0  0  0
    1.5242   61.0838   70.8445 H   0  0  0  0  0  0  0  0  0  0  0  0
    3.6813   62.7727   72.1218 H   0  0  0  0  0  0  0  0  0  0  0  0
    3.6863   61.9888   70.5491 H   0  0  0  0  0  0  0  0  0  0  0  0
    2.8770   64.6976   71.1121 H   0  0  0  0  0  0  0  0  0  0  0  0
    2.6120   63.8606   69.5710 H   0  0  0  0  0  0  0  0  0  0  0  0
    0.3086   63.3869   70.1225 H   0  0  0  0  0  0  0  0  0  0  0  0
    0.9004   62.9283   74.3385 H   0  0  0  0  0  0  0  0  0  0  0  0
    2.3090   63.6613   73.4987 H   0  0  0  0  0  0  0  0  0  0  0  0
    0.7239   64.5064   73.4987 H   0  0  0  0  0  0  0  0  0  0  0  0
    0.6387   58.5809   76.0007 H   0  0  0  0  0  0  0  0  0  0  0  0
    2.2998   58.5202   75.3196 H   0  0  0  0  0  0  0  0  0  0  0  0
    1.3850   60.0661   75.3196 H   0  0  0  0  0  0  0  0  0  0  0  0
    0.3520   65.1815   72.2022 H   0  0  0  0  0  0  0  0  0  0  0  0
  2  1  2  0
  3  2  1  0
  4  3  1  0
  5  4  1  0
  6  5  1  0
  7  2  1  0
  7  6  2  0
  8  6  1  0
  9  8  1  0
 10  9  1  0
 11 10  1  0
 11  5  1  0
 12 11  1  0
 13 12  1  0
 14 13  1  0
 15 14  1  0
 15 10  1  0
 16 15  1  0
 17 16  1  0
 18 17  1  0
 18 14  1  0
 14 19  1  1
  5 20  1  1
 21 18  1  0
  3 22  1  0
  3 23  1  0
  4 24  1  0
  4 25  1  0
  7 26  1  0
  8 27  1  0
  8 28  1  0
  9 29  1  0
  9 30  1  0
 10 31  1  1
 11 32  1  6
 12 33  1  0
 12 34  1  0
 13 35  1  0
 13 36  1  0
 15 37  1  6
 16 38  1  0
 16 39  1  0
 17 40  1  0
 17 41  1  0
 18 42  1  6
 19 43  1  0
 19 44  1  0
 19 45  1  0
 20 46  1  0
 20 47  1  0
 20 48  1  0
 21 49  1  0
M  END
>  <score>  (2) 
-8.523

$$$$
=
     RDKit          3D

 49 52  0  0  0  0  0  0  0  0999 V2000
   -3.4490   58.8010   75.6900 O   0  0  0  0  0  0  0  0  0  0  0  0
   -2.6170   59.3780   74.9920 C   0  0  0  0  0  0  0  0  0  0  0  0
   -2.7570   60.8360   74.6280 C   0  0  0  0  0  0  0  0  0  0  0  0
   -1.8500   61.2390   73.4650 C   0  0  0  0  0  0  0  0  0  0  0  0
   -0.3880   60.7460   73.6240 C   0  0  1  0  0  0  0  0  0  0  0  0
   -0.4220   59.2340   73.8680 C   0  0  0  0  0  0  0  0  0  0  0  0
   -1.4370   58.6250   74.5060 C   0  0  0  0  0  0  0  0  0  0  0  0
    0.6780   58.3930   73.2570 C   0  0  0  0  0  0  0  0  0  0  0  0
    2.0150   59.1160   73.1150 C   0  0  0  0  0  0  0  0  0  0  0  0
    1.9120   60.5130   72.4700 C   0  0  2  0  0  0  0  0  0  0  0  0
    0.4330   60.9970   72.3150 C   0  0  2  0  0  0  0  0  0  0  0  0
    0.3750   62.4380   71.7500 C   0  0  0  0  0  0  0  0  0  0  0  0
    1.1750   62.5880   70.4390 C   0  0  0  0  0  0  0  0  0  0  0  0
    2.6190   62.0870   70.5910 C   0  0  1  0  0  0  0  0  0  0  0  0
    2.5870   60.6260   71.1000 C   0  0  1  0  0  0  0  0  0  0  0  0
    4.0310   60.1630   70.9210 C   0  0  0  0  0  0  0  0  0  0  0  0
    4.4940   60.8780   69.6370 C   0  0  0  0  0  0  0  0  0  0  0  0
    3.3760   61.8690   69.2660 C   0  0  2  0  0  0  0  0  0  0  0  0
    3.4030   63.0760   71.4950 C   0  0  0  0  0  0  0  0  0  0  0  0
    0.2530   61.4530   74.8420 C   0  0  0  0  0  0  0  0  0  0  0  0
    3.9140   63.0550   68.7130 O   0  0  0  0  0  0  0  0  0  0  0  0
   -3.8019   61.0299   74.3440 H   0  0  0  0  0  0  0  0  0  0  0  0
   -2.4594   61.4294   75.5051 H   0  0  0  0  0  0  0  0  0  0  0  0
   -2.2623   60.8141   72.5379 H   0  0  0  0  0  0  0  0  0  0  0  0
   -1.8211   62.3384   73.4418 H   0  0  0  0  0  0  0  0  0  0  0  0
   -1.3901   57.5385   74.6716 H   0  0  0  0  0  0  0  0  0  0  0  0
    0.8301   57.5090   73.8938 H   0  0  0  0  0  0  0  0  0  0  0  0
    0.3494   58.1349   72.2395 H   0  0  0  0  0  0  0  0  0  0  0  0
    2.4538   59.2301   74.1172 H   0  0  0  0  0  0  0  0  0  0  0  0
    2.6365   58.5033   72.4453 H   0  0  0  0  0  0  0  0  0  0  0  0
    2.4521   61.1572   73.1794 H   0  0  0  0  0  0  0  0  0  0  0  0
   -0.0772   60.3849   71.5567 H   0  0  0  0  0  0  0  0  0  0  0  0
   -0.6756   62.6989   71.5547 H   0  0  0  0  0  0  0  0  0  0  0  0
    0.8248   63.1094   72.4963 H   0  0  0  0  0  0  0  0  0  0  0  0
    0.6773   62.0055   69.6497 H   0  0  0  0  0  0  0  0  0  0  0  0
    1.2095   63.6565   70.1800 H   0  0  0  0  0  0  0  0  0  0  0  0
    1.9402   59.9281   70.5481 H   0  0  0  0  0  0  0  0  0  0  0  0
    4.6478   60.4642   71.7806 H   0  0  0  0  0  0  0  0  0  0  0  0
    4.1198   59.0687   70.8523 H   0  0  0  0  0  0  0  0  0  0  0  0
    5.4353   61.4170   69.8197 H   0  0  0  0  0  0  0  0  0  0  0  0
    4.6773   60.1601   68.8240 H   0  0  0  0  0  0  0  0  0  0  0  0
    2.6974   61.4986   68.4835 H   0  0  0  0  0  0  0  0  0  0  0  0
    3.2130   62.8363   72.5516 H   0  0  0  0  0  0  0  0  0  0  0  0
    4.4796   62.9883   71.2870 H   0  0  0  0  0  0  0  0  0  0  0  0
    3.0719   64.1042   71.2870 H   0  0  0  0  0  0  0  0  0  0  0  0
   -0.1434   61.0157   75.7702 H   0  0  0  0  0  0  0  0  0  0  0  0
    1.3444   61.3197   74.8108 H   0  0  0  0  0  0  0  0  0  0  0  0
    0.0137   62.5262   74.8108 H   0  0  0  0  0  0  0  0  0  0  0  0
    4.1902   63.6638   69.4432 H   0  0  0  0  0  0  0  0  0  0  0  0
  2  1  2  0
  3  2  1  0
  4  3  1  0
  5  4  1  0
  6  5  1  0
  7  2  1  0
  7  6  2  0
  8  6  1  0
  9  8  1  0
 10  9  1  0
 11 10  1  0
 11  5  1  0
 12 11  1  0
 13 12  1  0
 14 13  1  0
 15 14  1  0
 15 10  1  0
 16 15  1  0
 17 16  1  0
 18 17  1  0
 18 14  1  0
 14 19  1  1
  5 20  1  1
 21 18  1  0
  3 22  1  0
  3 23  1  0
  4 24  1  0
  4 25  1  0
  7 26  1  0
  8 27  1  0
  8 28  1  0
  9 29  1  0
  9 30  1  0
 10 31  1  1
 11 32  1  6
 12 33  1  0
 12 34  1  0
 13 35  1  0
 13 36  1  0
 15 37  1  6
 16 38  1  0
 16 39  1  0
 17 40  1  0
 17 41  1  0
 18 42  1  6
 19 43  1  0
 19 44  1  0
 19 45  1  0
 20 46  1  0
 20 47  1  0
 20 48  1  0
 21 49  1  0
M  END
>  <score>  (3) 
-8.404

$$$$
=
     RDKit          3D

 49 52  0  0  0  0  0  0  0  0999 V2000
    3.6760   63.1670   68.1510 O   0  0  0  0  0  0  0  0  0  0  0  0
    3.4100   62.3120   68.9930 C   0  0  0  0  0  0  0  0  0  0  0  0
    4.1850   61.0210   69.0910 C   0  0  0  0  0  0  0  0  0  0  0  0
    3.4610   59.9630   69.9230 C   0  0  0  0  0  0  0  0  0  0  0  0
    2.9250   60.5030   71.2740 C   0  0  1  0  0  0  0  0  0  0  0  0
    2.0650   61.7370   70.9840 C   0  0  0  0  0  0  0  0  0  0  0  0
    2.3060   62.5620   69.9500 C   0  0  0  0  0  0  0  0  0  0  0  0
    0.8310   61.9560   71.8330 C   0  0  0  0  0  0  0  0  0  0  0  0
    0.9460   61.4200   73.2570 C   0  0  0  0  0  0  0  0  0  0  0  0
    1.4760   59.9750   73.3480 C   0  0  2  0  0  0  0  0  0  0  0  0
    2.0120   59.4440   71.9770 C   0  0  2  0  0  0  0  0  0  0  0  0
    2.6180   58.0260   72.1290 C   0  0  0  0  0  0  0  0  0  0  0  0
    1.6400   57.0360   72.7930 C   0  0  0  0  0  0  0  0  0  0  0  0
    1.0970   57.5750   74.1250 C   0  0  1  0  0  0  0  0  0  0  0  0
    0.4570   58.9620   73.8760 C   0  0  1  0  0  0  0  0  0  0  0  0
   -0.2900   59.2390   75.1780 C   0  0  0  0  0  0  0  0  0  0  0  0
   -0.7920   57.8520   75.6230 C   0  0  0  0  0  0  0  0  0  0  0  0
   -0.1350   56.8310   74.6760 C   0  0  2  0  0  0  0  0  0  0  0  0
    2.2390   57.5630   75.1760 C   0  0  0  0  0  0  0  0  0  0  0  0
    4.1240   60.9040   72.1670 C   0  0  0  0  0  0  0  0  0  0  0  0
    0.1790   55.6340   75.3630 O   0  0  0  0  0  0  0  0  0  0  0  0
    4.3407   60.6256   68.0764 H   0  0  0  0  0  0  0  0  0  0  0  0
    5.1395   61.2424   69.5909 H   0  0  0  0  0  0  0  0  0  0  0  0
    2.6112   59.5810   69.3383 H   0  0  0  0  0  0  0  0  0  0  0  0
    4.1931   59.1756   70.1554 H   0  0  0  0  0  0  0  0  0  0  0  0
    1.6667   63.4462   69.8105 H   0  0  0  0  0  0  0  0  0  0  0  0
    0.6370   63.0374   71.8865 H   0  0  0  0  0  0  0  0  0  0  0  0
    0.0140   61.3987   71.3514 H   0  0  0  0  0  0  0  0  0  0  0  0
    1.6300   62.0742   73.8175 H   0  0  0  0  0  0  0  0  0  0  0  0
   -0.0719   61.4100   73.6739 H   0  0  0  0  0  0  0  0  0  0  0  0
    2.2976   60.0537   74.0751 H   0  0  0  0  0  0  0  0  0  0  0  0
    1.1722   59.3099   71.2793 H   0  0  0  0  0  0  0  0  0  0  0  0
    2.8819   57.6459   71.1310 H   0  0  0  0  0  0  0  0  0  0  0  0
    3.5033   58.1077   72.7767 H   0  0  0  0  0  0  0  0  0  0  0  0
    0.7958   56.8581   72.1106 H   0  0  0  0  0  0  0  0  0  0  0  0
    2.1859   56.1036   72.9993 H   0  0  0  0  0  0  0  0  0  0  0  0
   -0.2692   59.0272   73.0524 H   0  0  0  0  0  0  0  0  0  0  0  0
    0.3850   59.6707   75.9317 H   0  0  0  0  0  0  0  0  0  0  0  0
   -1.1075   59.9640   75.0507 H   0  0  0  0  0  0  0  0  0  0  0  0
   -0.4931   57.6543   76.6630 H   0  0  0  0  0  0  0  0  0  0  0  0
   -1.8894   57.7905   75.5784 H   0  0  0  0  0  0  0  0  0  0  0  0
   -0.7905   56.5001   73.8570 H   0  0  0  0  0  0  0  0  0  0  0  0
    1.8065   57.5675   76.1874 H   0  0  0  0  0  0  0  0  0  0  0  0
    2.8505   56.6584   75.0427 H   0  0  0  0  0  0  0  0  0  0  0  0
    2.8693   58.4546   75.0427 H   0  0  0  0  0  0  0  0  0  0  0  0
    3.8406   60.8092   73.2256 H   0  0  0  0  0  0  0  0  0  0  0  0
    4.9766   60.2421   71.9550 H   0  0  0  0  0  0  0  0  0  0  0  0
    4.4069   61.9457   71.9550 H   0  0  0  0  0  0  0  0  0  0  0  0
    0.1373   55.7931   76.3392 H   0  0  0  0  0  0  0  0  0  0  0  0
  2  1  2  0
  3  2  1  0
  4  3  1  0
  5  4  1  0
  6  5  1  0
  7  2  1  0
  7  6  2  0
  8  6  1  0
  9  8  1  0
 10  9  1  0
 11 10  1  0
 11  5  1  0
 12 11  1  0
 13 12  1  0
 14 13  1  0
 15 14  1  0
 15 10  1  0
 16 15  1  0
 17 16  1  0
 18 17  1  0
 18 14  1  0
 14 19  1  1
  5 20  1  1
 21 18  1  0
  3 22  1  0
  3 23  1  0
  4 24  1  0
  4 25  1  0
  7 26  1  0
  8 27  1  0
  8 28  1  0
  9 29  1  0
  9 30  1  0
 10 31  1  1
 11 32  1  6
 12 33  1  0
 12 34  1  0
 13 35  1  0
 13 36  1  0
 15 37  1  6
 16 38  1  0
 16 39  1  0
 17 40  1  0
 17 41  1  0
 18 42  1  6
 19 43  1  0
 19 44  1  0
 19 45  1  0
 20 46  1  0
 20 47  1  0
 20 48  1  0
 21 49  1  0
M  END
>  <score>  (4) 
-8.376

$$$$
=
     RDKit          3D

 49 52  0  0  0  0  0  0  0  0999 V2000
    0.3480   56.2860   76.8080 O   0  0  0  0  0  0  0  0  0  0  0  0
    0.9200   56.9960   75.9830 C   0  0  0  0  0  0  0  0  0  0  0  0
    2.3200   56.6940   75.5060 C   0  0  0  0  0  0  0  0  0  0  0  0
    2.9690   57.8850   74.8000 C   0  0  0  0  0  0  0  0  0  0  0  0
    2.0500   58.5480   73.7410 C   0  0  1  0  0  0  0  0  0  0  0  0
    0.7210   58.8980   74.4190 C   0  0  0  0  0  0  0  0  0  0  0  0
    0.2110   58.1730   75.4290 C   0  0  0  0  0  0  0  0  0  0  0  0
    0.0290   60.1780   74.0020 C   0  0  0  0  0  0  0  0  0  0  0  0
    0.2800   60.5830   72.5520 C   0  0  0  0  0  0  0  0  0  0  0  0
    1.7630   60.5520   72.1350 C   0  0  2  0  0  0  0  0  0  0  0  0
    2.6780   59.8810   73.2130 C   0  0  2  0  0  0  0  0  0  0  0  0
    4.1430   59.7860   72.7190 C   0  0  0  0  0  0  0  0  0  0  0  0
    4.6960   61.1490   72.2540 C   0  0  0  0  0  0  0  0  0  0  0  0
    3.7810   61.8140   71.2160 C   0  0  1  0  0  0  0  0  0  0  0  0
    2.3560   61.9260   71.8090 C   0  0  1  0  0  0  0  0  0  0  0  0
    1.6420   62.8510   70.8260 C   0  0  0  0  0  0  0  0  0  0  0  0
    2.7360   63.8400   70.3830 C   0  0  0  0  0  0  0  0  0  0  0  0
    4.0600   63.3090   70.9640 C   0  0  2  0  0  0  0  0  0  0  0  0
    3.8730   61.0240   69.8830 C   0  0  0  0  0  0  0  0  0  0  0  0
    1.7980   57.5430   72.5920 C   0  0  0  0  0  0  0  0  0  0  0  0
    5.1340   63.5490   70.0740 O   0  0  0  0  0  0  0  0  0  0  0  0
    2.9369   56.4200   76.3745 H   0  0  0  0  0  0  0  0  0  0  0  0
    2.2547   55.8705   74.7796 H   0  0  0  0  0  0  0  0  0  0  0  0
    3.2297   58.6394   75.5569 H   0  0  0  0  0  0  0  0  0  0  0  0
    3.8547   57.5052   74.2696 H   0  0  0  0  0  0  0  0  0  0  0  0
   -0.7605   58.4616   75.8566 H   0  0  0  0  0  0  0  0  0  0  0  0
   -1.0542   60.0450   74.1402 H   0  0  0  0  0  0  0  0  0  0  0  0
    0.4443   60.9800   74.6299 H   0  0  0  0  0  0  0  0  0  0  0  0
   -0.2761   59.8933   71.9000 H   0  0  0  0  0  0  0  0  0  0  0  0
   -0.0544   61.6262   72.4529 H   0  0  0  0  0  0  0  0  0  0  0  0
    1.7515   59.9497   71.2146 H   0  0  0  0  0  0  0  0  0  0  0  0
    2.7312   60.5243   74.1037 H   0  0  0  0  0  0  0  0  0  0  0  0
    4.7699   59.4126   73.5421 H   0  0  0  0  0  0  0  0  0  0  0  0
    4.1626   59.1039   71.8562 H   0  0  0  0  0  0  0  0  0  0  0  0
    4.7854   61.8129   73.1265 H   0  0  0  0  0  0  0  0  0  0  0  0
    5.6758   60.9771   71.7844 H   0  0  0  0  0  0  0  0  0  0  0  0
    2.2747   62.3735   72.8106 H   0  0  0  0  0  0  0  0  0  0  0  0
    1.2557   62.2843   69.9660 H   0  0  0  0  0  0  0  0  0  0  0  0
    0.7724   63.3544   71.2738 H   0  0  0  0  0  0  0  0  0  0  0  0
    2.7909   63.8805   69.2851 H   0  0  0  0  0  0  0  0  0  0  0  0
    2.5227   64.8583   70.7401 H   0  0  0  0  0  0  0  0  0  0  0  0
    4.3704   63.8109   71.8923 H   0  0  0  0  0  0  0  0  0  0  0  0
    3.9978   59.9528   70.0995 H   0  0  0  0  0  0  0  0  0  0  0  0
    2.9511   61.1758   69.3024 H   0  0  0  0  0  0  0  0  0  0  0  0
    4.7353   61.3836   69.3024 H   0  0  0  0  0  0  0  0  0  0  0  0
    1.5510   56.5578   73.0142 H   0  0  0  0  0  0  0  0  0  0  0  0
    0.9608   57.8968   71.9724 H   0  0  0  0  0  0  0  0  0  0  0  0
    2.7031   57.4599   71.9724 H   0  0  0  0  0  0  0  0  0  0  0  0
    5.9572   63.7330   70.5922 H   0  0  0  0  0  0  0  0  0  0  0  0
  2  1  2  0
  3  2  1  0
  4  3  1  0
  5  4  1  0
  6  5  1  0
  7  2  1  0
  7  6  2  0
  8  6  1  0
  9  8  1  0
 10  9  1  0
 11 10  1  0
 11  5  1  0
 12 11  1  0
 13 12  1  0
 14 13  1  0
 15 14  1  0
 15 10  1  0
 16 15  1  0
 17 16  1  0
 18 17  1  0
 18 14  1  0
 14 19  1  6
  5 20  1  6
 21 18  1  0
  3 22  1  0
  3 23  1  0
  4 24  1  0
  4 25  1  0
  7 26  1  0
  8 27  1  0
  8 28  1  0
  9 29  1  0
  9 30  1  0
 10 31  1  6
 11 32  1  1
 12 33  1  0
 12 34  1  0
 13 35  1  0
 13 36  1  0
 15 37  1  1
 16 38  1  0
 16 39  1  0
 17 40  1  0
 17 41  1  0
 18 42  1  1
 19 43  1  0
 19 44  1  0
 19 45  1  0
 20 46  1  0
 20 47  1  0
 20 48  1  0
 21 49  1  0
M  END
>  <score>  (5) 
-7.986

$$$$
=
     RDKit          3D

 49 52  0  0  0  0  0  0  0  0999 V2000
   -2.9830   68.3770   67.6470 O   0  0  0  0  0  0  0  0  0  0  0  0
   -1.8840   68.3300   67.0980 C   0  0  0  0  0  0  0  0  0  0  0  0
   -0.6460   67.8770   67.8320 C   0  0  0  0  0  0  0  0  0  0  0  0
    0.6420   68.2570   67.1000 C   0  0  0  0  0  0  0  0  0  0  0  0
    0.6170   67.9060   65.5900 C   0  0  1  0  0  0  0  0  0  0  0  0
   -0.6360   68.5400   64.9760 C   0  0  0  0  0  0  0  0  0  0  0  0
   -1.7740   68.7130   65.6710 C   0  0  0  0  0  0  0  0  0  0  0  0
   -0.5350   69.0940   63.5710 C   0  0  0  0  0  0  0  0  0  0  0  0
    0.4700   68.3660   62.6810 C   0  0  0  0  0  0  0  0  0  0  0  0
    1.8510   68.1520   63.3330 C   0  0  2  0  0  0  0  0  0  0  0  0
    1.8610   68.5100   64.8550 C   0  0  2  0  0  0  0  0  0  0  0  0
    3.2370   68.1950   65.4920 C   0  0  0  0  0  0  0  0  0  0  0  0
    4.4030   68.8600   64.7320 C   0  0  0  0  0  0  0  0  0  0  0  0
    4.3720   68.5260   63.2330 C   0  0  1  0  0  0  0  0  0  0  0  0
    2.9900   68.9260   62.6630 C   0  0  1  0  0  0  0  0  0  0  0  0
    3.1950   68.8270   61.1530 C   0  0  0  0  0  0  0  0  0  0  0  0
    4.6520   69.2830   60.9440 C   0  0  0  0  0  0  0  0  0  0  0  0
    5.2690   69.4150   62.3490 C   0  0  2  0  0  0  0  0  0  0  0  0
    4.7500   67.0330   63.0420 C   0  0  0  0  0  0  0  0  0  0  0  0
    0.5530   66.3680   65.4300 C   0  0  0  0  0  0  0  0  0  0  0  0
    6.6300   69.0270   62.3410 O   0  0  0  0  0  0  0  0  0  0  0  0
   -0.6362   68.3435   68.8281 H   0  0  0  0  0  0  0  0  0  0  0  0
   -0.6805   66.7796   67.8991 H   0  0  0  0  0  0  0  0  0  0  0  0
    0.7954   69.3413   67.2037 H   0  0  0  0  0  0  0  0  0  0  0  0
    1.4582   67.6769   67.5553 H   0  0  0  0  0  0  0  0  0  0  0  0
   -2.6476   69.1511   65.1661 H   0  0  0  0  0  0  0  0  0  0  0  0
   -1.5268   69.0235   63.1004 H   0  0  0  0  0  0  0  0  0  0  0  0
   -0.1802   70.1310   63.6652 H   0  0  0  0  0  0  0  0  0  0  0  0
    0.0533   67.3810   62.4238 H   0  0  0  0  0  0  0  0  0  0  0  0
    0.6316   69.0031   61.7990 H   0  0  0  0  0  0  0  0  0  0  0  0
    2.0302   67.0757   63.1936 H   0  0  0  0  0  0  0  0  0  0  0  0
    1.7444   69.5968   64.9782 H   0  0  0  0  0  0  0  0  0  0  0  0
    3.2378   68.5601   66.5296 H   0  0  0  0  0  0  0  0  0  0  0  0
    3.3856   67.1060   65.4477 H   0  0  0  0  0  0  0  0  0  0  0  0
    4.3320   69.9508   64.8552 H   0  0  0  0  0  0  0  0  0  0  0  0
    5.3457   68.4753   65.1483 H   0  0  0  0  0  0  0  0  0  0  0  0
    2.6414   69.9448   62.8880 H   0  0  0  0  0  0  0  0  0  0  0  0
    3.0556   67.7924   60.8065 H   0  0  0  0  0  0  0  0  0  0  0  0
    2.4752   69.4367   60.5871 H   0  0  0  0  0  0  0  0  0  0  0  0
    5.2039   68.5364   60.3542 H   0  0  0  0  0  0  0  0  0  0  0  0
    4.6982   70.2355   60.3958 H   0  0  0  0  0  0  0  0  0  0  0  0
    5.2919   70.4472   62.7286 H   0  0  0  0  0  0  0  0  0  0  0  0
    4.8706   66.5565   64.0261 H   0  0  0  0  0  0  0  0  0  0  0  0
    3.9530   66.5217   62.4823 H   0  0  0  0  0  0  0  0  0  0  0  0
    5.6943   66.9626   62.4823 H   0  0  0  0  0  0  0  0  0  0  0  0
    0.5334   65.8965   66.4236 H   0  0  0  0  0  0  0  0  0  0  0  0
   -0.3573   66.0945   64.8763 H   0  0  0  0  0  0  0  0  0  0  0  0
    1.4374   66.0198   64.8763 H   0  0  0  0  0  0  0  0  0  0  0  0
    6.9524   68.9351   63.2725 H   0  0  0  0  0  0  0  0  0  0  0  0
  2  1  2  0
  3  2  1  0
  4  3  1  0
  5  4  1  0
  6  5  1  0
  7  2  1  0
  7  6  2  0
  8  6  1  0
  9  8  1  0
 10  9  1  0
 11 10  1  0
 11  5  1  0
 12 11  1  0
 13 12  1  0
 14 13  1  0
 15 14  1  0
 15 10  1  0
 16 15  1  0
 17 16  1  0
 18 17  1  0
 18 14  1  0
 14 19  1  1
  5 20  1  1
 21 18  1  0
  3 22  1  0
  3 23  1  0
  4 24  1  0
  4 25  1  0
  7 26  1  0
  8 27  1  0
  8 28  1  0
  9 29  1  0
  9 30  1  0
 10 31  1  1
 11 32  1  6
 12 33  1  0
 12 34  1  0
 13 35  1  0
 13 36  1  0
 15 37  1  6
 16 38  1  0
 16 39  1  0
 17 40  1  0
 17 41  1  0
 18 42  1  1
 19 43  1  0
 19 44  1  0
 19 45  1  0
 20 46  1  0
 20 47  1  0
 20 48  1  0
 21 49  1  0
M  END
>  <score>  (6) 
-7.696

$$$$
=
     RDKit          3D

 49 52  0  0  0  0  0  0  0  0999 V2000
   -2.6700   62.0640   77.3190 O   0  0  0  0  0  0  0  0  0  0  0  0
   -1.7740   61.8050   76.5180 C   0  0  0  0  0  0  0  0  0  0  0  0
   -1.2680   60.3970   76.3170 C   0  0  0  0  0  0  0  0  0  0  0  0
    0.0730   60.3550   75.5850 C   0  0  0  0  0  0  0  0  0  0  0  0
    0.1120   61.2460   74.3170 C   0  0  1  0  0  0  0  0  0  0  0  0
   -0.3130   62.6620   74.7200 C   0  0  0  0  0  0  0  0  0  0  0  0
   -1.1840   62.9020   75.7150 C   0  0  0  0  0  0  0  0  0  0  0  0
    0.3750   63.8280   74.0420 C   0  0  0  0  0  0  0  0  0  0  0  0
    0.8310   63.5420   72.6130 C   0  0  0  0  0  0  0  0  0  0  0  0
    1.6100   62.2220   72.4510 C   0  0  2  0  0  0  0  0  0  0  0  0
    1.5640   61.3340   73.7380 C   0  0  2  0  0  0  0  0  0  0  0  0
    2.2780   59.9790   73.5050 C   0  0  0  0  0  0  0  0  0  0  0  0
    3.7150   60.1560   72.9740 C   0  0  0  0  0  0  0  0  0  0  0  0
    3.7570   61.0500   71.7260 C   0  0  1  0  0  0  0  0  0  0  0  0
    3.0800   62.4010   72.0600 C   0  0  1  0  0  0  0  0  0  0  0  0
    3.4490   63.2800   70.8670 C   0  0  0  0  0  0  0  0  0  0  0  0
    4.8700   62.8180   70.4900 C   0  0  0  0  0  0  0  0  0  0  0  0
    5.1570   61.5660   71.3400 C   0  0  2  0  0  0  0  0  0  0  0  0
    3.1270   60.2810   70.5340 C   0  0  0  0  0  0  0  0  0  0  0  0
   -0.8840   60.6830   73.2750 C   0  0  0  0  0  0  0  0  0  0  0  0
    5.9330   60.6310   70.6160 O   0  0  0  0  0  0  0  0  0  0  0  0
   -1.1473   59.9218   77.3017 H   0  0  0  0  0  0  0  0  0  0  0  0
   -2.0035   59.8632   75.6973 H   0  0  0  0  0  0  0  0  0  0  0  0
    0.8578   60.6973   76.2756 H   0  0  0  0  0  0  0  0  0  0  0  0
    0.2307   59.3170   75.2568 H   0  0  0  0  0  0  0  0  0  0  0  0
   -1.4667   63.9411   75.9395 H   0  0  0  0  0  0  0  0  0  0  0  0
   -0.3263   64.6751   74.0171 H   0  0  0  0  0  0  0  0  0  0  0  0
    1.2822   64.0422   74.6260 H   0  0  0  0  0  0  0  0  0  0  0  0
   -0.0596   63.4983   71.9689 H   0  0  0  0  0  0  0  0  0  0  0  0
    1.5201   64.3523   72.3328 H   0  0  0  0  0  0  0  0  0  0  0  0
    1.0866   61.7223   71.6225 H   0  0  0  0  0  0  0  0  0  0  0  0
    2.1441   61.8160   74.5387 H   0  0  0  0  0  0  0  0  0  0  0  0
    2.3185   59.4323   74.4587 H   0  0  0  0  0  0  0  0  0  0  0  0
    1.7059   59.4242   72.7467 H   0  0  0  0  0  0  0  0  0  0  0  0
    4.3313   60.6147   73.7612 H   0  0  0  0  0  0  0  0  0  0  0  0
    4.1011   59.1640   72.6966 H   0  0  0  0  0  0  0  0  0  0  0  0
    3.4251   62.9103   72.9719 H   0  0  0  0  0  0  0  0  0  0  0  0
    2.7511   63.1194   70.0321 H   0  0  0  0  0  0  0  0  0  0  0  0
    3.4007   64.3538   71.1008 H   0  0  0  0  0  0  0  0  0  0  0  0
    4.9187   62.5708   69.4192 H   0  0  0  0  0  0  0  0  0  0  0  0
    5.6110   63.6085   70.6796 H   0  0  0  0  0  0  0  0  0  0  0  0
    5.7598   61.7680   72.2377 H   0  0  0  0  0  0  0  0  0  0  0  0
    2.4734   59.4832   70.9166 H   0  0  0  0  0  0  0  0  0  0  0  0
    2.5358   60.9766   69.9203 H   0  0  0  0  0  0  0  0  0  0  0  0
    3.9253   59.8382   69.9203 H   0  0  0  0  0  0  0  0  0  0  0  0
   -1.7279   60.2060   73.7949 H   0  0  0  0  0  0  0  0  0  0  0  0
   -1.2580   61.5033   72.6447 H   0  0  0  0  0  0  0  0  0  0  0  0
   -0.3741   59.9395   72.6447 H   0  0  0  0  0  0  0  0  0  0  0  0
    6.4192   60.0452   71.2489 H   0  0  0  0  0  0  0  0  0  0  0  0
  2  1  2  0
  3  2  1  0
  4  3  1  0
  5  4  1  0
  6  5  1  0
  7  2  1  0
  7  6  2  0
  8  6  1  0
  9  8  1  0
 10  9  1  0
 11 10  1  0
 11  5  1  0
 12 11  1  0
 13 12  1  0
 14 13  1  0
 15 14  1  0
 15 10  1  0
 16 15  1  0
 17 16  1  0
 18 17  1  0
 18 14  1  0
 14 19  1  6
  5 20  1  6
 21 18  1  0
  3 22  1  0
  3 23  1  0
  4 24  1  0
  4 25  1  0
  7 26  1  0
  8 27  1  0
  8 28  1  0
  9 29  1  0
  9 30  1  0
 10 31  1  6
 11 32  1  1
 12 33  1  0
 12 34  1  0
 13 35  1  0
 13 36  1  0
 15 37  1  1
 16 38  1  0
 16 39  1  0
 17 40  1  0
 17 41  1  0
 18 42  1  1
 19 43  1  0
 19 44  1  0
 19 45  1  0
 20 46  1  0
 20 47  1  0
 20 48  1  0
 21 49  1  0
M  END
>  <score>  (7) 
-7.648

$$$$
=
     RDKit          3D

 49 52  0  0  0  0  0  0  0  0999 V2000
    5.0320   60.5740   70.2490 O   0  0  0  0  0  0  0  0  0  0  0  0
    4.0870   60.2990   70.9860 C   0  0  0  0  0  0  0  0  0  0  0  0
    4.1080   59.0930   71.8930 C   0  0  0  0  0  0  0  0  0  0  0  0
    2.7190   58.7270   72.4150 C   0  0  0  0  0  0  0  0  0  0  0  0
    1.9300   59.9410   72.9690 C   0  0  1  0  0  0  0  0  0  0  0  0
    1.9020   61.0230   71.8840 C   0  0  0  0  0  0  0  0  0  0  0  0
    2.8990   61.1840   70.9960 C   0  0  0  0  0  0  0  0  0  0  0  0
    0.6450   61.8550   71.7450 C   0  0  0  0  0  0  0  0  0  0  0  0
   -0.1190   62.0600   73.0510 C   0  0  0  0  0  0  0  0  0  0  0  0
   -0.3530   60.7660   73.8550 C   0  0  2  0  0  0  0  0  0  0  0  0
    0.4480   59.5490   73.2850 C   0  0  2  0  0  0  0  0  0  0  0  0
    0.2580   58.2930   74.1710 C   0  0  0  0  0  0  0  0  0  0  0  0
   -1.2290   57.9530   74.3990 C   0  0  0  0  0  0  0  0  0  0  0  0
   -2.0150   59.1590   74.9340 C   0  0  1  0  0  0  0  0  0  0  0  0
   -1.8230   60.3480   73.9630 C   0  0  1  0  0  0  0  0  0  0  0  0
   -2.8690   61.3560   74.4340 C   0  0  0  0  0  0  0  0  0  0  0  0
   -4.0520   60.4790   74.8890 C   0  0  0  0  0  0  0  0  0  0  0  0
   -3.5490   59.0240   74.8560 C   0  0  2  0  0  0  0  0  0  0  0  0
   -1.5800   59.4350   76.3980 C   0  0  0  0  0  0  0  0  0  0  0  0
    2.6550   60.4840   74.2240 C   0  0  0  0  0  0  0  0  0  0  0  0
   -4.1120   58.2710   75.9130 O   0  0  0  0  0  0  0  0  0  0  0  0
    4.5105   58.2368   71.3317 H   0  0  0  0  0  0  0  0  0  0  0  0
    4.7364   59.3397   72.7615 H   0  0  0  0  0  0  0  0  0  0  0  0
    2.1422   58.2833   71.5901 H   0  0  0  0  0  0  0  0  0  0  0  0
    2.8604   58.0236   73.2488 H   0  0  0  0  0  0  0  0  0  0  0  0
    2.8305   61.9954   70.2565 H   0  0  0  0  0  0  0  0  0  0  0  0
    0.9272   62.8429   71.3520 H   0  0  0  0  0  0  0  0  0  0  0  0
   -0.0258   61.3029   71.0703 H   0  0  0  0  0  0  0  0  0  0  0  0
    0.4532   62.7582   73.6796 H   0  0  0  0  0  0  0  0  0  0  0  0
   -1.1119   62.4476   72.7792 H   0  0  0  0  0  0  0  0  0  0  0  0
    0.0113   61.0262   74.8598 H   0  0  0  0  0  0  0  0  0  0  0  0
    0.0329   59.2599   72.3082 H   0  0  0  0  0  0  0  0  0  0  0  0
    0.7446   57.4374   73.6798 H   0  0  0  0  0  0  0  0  0  0  0  0
    0.7078   58.5040   75.1524 H   0  0  0  0  0  0  0  0  0  0  0  0
   -1.6719   57.6349   73.4437 H   0  0  0  0  0  0  0  0  0  0  0  0
   -1.2847   57.1494   75.1481 H   0  0  0  0  0  0  0  0  0  0  0  0
   -2.0081   60.1457   72.8977 H   0  0  0  0  0  0  0  0  0  0  0  0
   -2.4837   61.9577   75.2704 H   0  0  0  0  0  0  0  0  0  0  0  0
   -3.1504   62.0730   73.6487 H   0  0  0  0  0  0  0  0  0  0  0  0
   -4.3589   60.7529   75.9092 H   0  0  0  0  0  0  0  0  0  0  0  0
   -4.9255   60.6150   74.2345 H   0  0  0  0  0  0  0  0  0  0  0  0
   -3.8471   58.4722   73.9523 H   0  0  0  0  0  0  0  0  0  0  0  0
   -2.3033   58.9761   77.0881 H   0  0  0  0  0  0  0  0  0  0  0  0
   -0.5830   59.0039   76.5718 H   0  0  0  0  0  0  0  0  0  0  0  0
   -1.5454   60.5206   76.5718 H   0  0  0  0  0  0  0  0  0  0  0  0
    2.1537   60.1085   75.1283 H   0  0  0  0  0  0  0  0  0  0  0  0
    3.7017   60.1458   74.2178 H   0  0  0  0  0  0  0  0  0  0  0  0
    2.6249   61.5836   74.2178 H   0  0  0  0  0  0  0  0  0  0  0  0
   -3.8257   58.6539   76.7799 H   0  0  0  0  0  0  0  0  0  0  0  0
  2  1  2  0
  3  2  1  0
  4  3  1  0
  5  4  1  0
  6  5  1  0
  7  2  1  0
  7  6  2  0
  8  6  1  0
  9  8  1  0
 10  9  1  0
 11 10  1  0
 11  5  1  0
 12 11  1  0
 13 12  1  0
 14 13  1  0
 15 14  1  0
 15 10  1  0
 16 15  1  0
 17 16  1  0
 18 17  1  0
 18 14  1  0
 14 19  1  1
  5 20  1  1
 21 18  1  0
  3 22  1  0
  3 23  1  0
  4 24  1  0
  4 25  1  0
  7 26  1  0
  8 27  1  0
  8 28  1  0
  9 29  1  0
  9 30  1  0
 10 31  1  1
 11 32  1  6
 12 33  1  0
 12 34  1  0
 13 35  1  0
 13 36  1  0
 15 37  1  6
 16 38  1  0
 16 39  1  0
 17 40  1  0
 17 41  1  0
 18 42  1  6
 19 43  1  0
 19 44  1  0
 19 45  1  0
 20 46  1  0
 20 47  1  0
 20 48  1  0
 21 49  1  0
M  END
>  <score>  (8) 
-7.536

$$$$
=
     RDKit          3D

 49 52  0  0  0  0  0  0  0  0999 V2000
    3.8670   61.4420   70.2990 O   0  0  0  0  0  0  0  0  0  0  0  0
    3.2500   60.6250   70.9790 C   0  0  0  0  0  0  0  0  0  0  0  0
    3.7590   59.2200   71.1930 C   0  0  0  0  0  0  0  0  0  0  0  0
    2.6790   58.2800   71.7270 C   0  0  0  0  0  0  0  0  0  0  0  0
    1.8810   58.8700   72.9180 C   0  0  1  0  0  0  0  0  0  0  0  0
    1.3360   60.2370   72.4920 C   0  0  0  0  0  0  0  0  0  0  0  0
    1.9780   61.0330   71.6190 C   0  0  0  0  0  0  0  0  0  0  0  0
   -0.0350   60.6400   72.9910 C   0  0  0  0  0  0  0  0  0  0  0  0
   -0.4020   60.0600   74.3540 C   0  0  0  0  0  0  0  0  0  0  0  0
   -0.1470   58.5460   74.4860 C   0  0  2  0  0  0  0  0  0  0  0  0
    0.6570   57.9630   73.2770 C   0  0  2  0  0  0  0  0  0  0  0  0
    0.9720   56.4610   73.4890 C   0  0  0  0  0  0  0  0  0  0  0  0
   -0.2930   55.6340   73.7980 C   0  0  0  0  0  0  0  0  0  0  0  0
   -1.0920   56.2250   74.9680 C   0  0  1  0  0  0  0  0  0  0  0  0
   -1.4160   57.7050   74.6510 C   0  0  1  0  0  0  0  0  0  0  0  0
   -2.4410   58.0740   75.7210 C   0  0  0  0  0  0  0  0  0  0  0  0
   -3.2550   56.7800   75.9190 C   0  0  0  0  0  0  0  0  0  0  0  0
   -2.5280   55.6850   75.1170 C   0  0  2  0  0  0  0  0  0  0  0  0
   -0.3000   55.9990   76.2840 C   0  0  0  0  0  0  0  0  0  0  0  0
    2.8340   59.0450   74.1250 C   0  0  0  0  0  0  0  0  0  0  0  0
   -2.6040   54.4380   75.7800 O   0  0  0  0  0  0  0  0  0  0  0  0
    4.1247   58.8274   70.2327 H   0  0  0  0  0  0  0  0  0  0  0  0
    4.5617   59.2666   71.9436 H   0  0  0  0  0  0  0  0  0  0  0  0
    1.9749   58.0591   70.9112 H   0  0  0  0  0  0  0  0  0  0  0  0
    3.1882   57.3766   72.0939 H   0  0  0  0  0  0  0  0  0  0  0  0
    1.5466   62.0146   71.3732 H   0  0  0  0  0  0  0  0  0  0  0  0
   -0.0666   61.7372   73.0635 H   0  0  0  0  0  0  0  0  0  0  0  0
   -0.7632   60.2384   72.2710 H   0  0  0  0  0  0  0  0  0  0  0  0
    0.1927   60.5781   75.1208 H   0  0  0  0  0  0  0  0  0  0  0  0
   -1.4843   60.2103   74.4803 H   0  0  0  0  0  0  0  0  0  0  0  0
    0.4445   58.4713   75.4104 H   0  0  0  0  0  0  0  0  0  0  0  0
    0.0305   57.9861   72.3732 H   0  0  0  0  0  0  0  0  0  0  0  0
    1.4385   56.0652   72.5748 H   0  0  0  0  0  0  0  0  0  0  0  0
    1.6470   56.3781   74.3536 H   0  0  0  0  0  0  0  0  0  0  0  0
   -0.9331   55.6157   72.9036 H   0  0  0  0  0  0  0  0  0  0  0  0
    0.0238   54.6191   74.0799 H   0  0  0  0  0  0  0  0  0  0  0  0
   -1.8676   57.9085   73.6688 H   0  0  0  0  0  0  0  0  0  0  0  0
   -1.9417   58.3688   76.6558 H   0  0  0  0  0  0  0  0  0  0  0  0
   -3.0688   58.9288   75.4293 H   0  0  0  0  0  0  0  0  0  0  0  0
   -3.2900   56.5114   76.9851 H   0  0  0  0  0  0  0  0  0  0  0  0
   -4.2928   56.9042   75.5762 H   0  0  0  0  0  0  0  0  0  0  0  0
   -2.9756   55.4866   74.1319 H   0  0  0  0  0  0  0  0  0  0  0  0
   -0.9583   56.1869   77.1450 H   0  0  0  0  0  0  0  0  0  0  0  0
    0.0633   54.9613   76.3197 H   0  0  0  0  0  0  0  0  0  0  0  0
    0.5562   56.6887   76.3197 H   0  0  0  0  0  0  0  0  0  0  0  0
    2.2643   58.9404   75.0602 H   0  0  0  0  0  0  0  0  0  0  0  0
    3.6197   58.2761   74.0863 H   0  0  0  0  0  0  0  0  0  0  0  0
    3.2953   60.0429   74.0863 H   0  0  0  0  0  0  0  0  0  0  0  0
   -2.5951   54.5838   76.7592 H   0  0  0  0  0  0  0  0  0  0  0  0
  2  1  2  0
  3  2  1  0
  4  3  1  0
  5  4  1  0
  6  5  1  0
  7  2  1  0
  7  6  2  0
  8  6  1  0
  9  8  1  0
 10  9  1  0
 11 10  1  0
 11  5  1  0
 12 11  1  0
 13 12  1  0
 14 13  1  0
 15 14  1  0
 15 10  1  0
 16 15  1  0
 17 16  1  0
 18 17  1  0
 18 14  1  0
 14 19  1  1
  5 20  1  1
 21 18  1  0
  3 22  1  0
  3 23  1  0
  4 24  1  0
  4 25  1  0
  7 26  1  0
  8 27  1  0
  8 28  1  0
  9 29  1  0
  9 30  1  0
 10 31  1  1
 11 32  1  6
 12 33  1  0
 12 34  1  0
 13 35  1  0
 13 36  1  0
 15 37  1  6
 16 38  1  0
 16 39  1  0
 17 40  1  0
 17 41  1  0
 18 42  1  6
 19 43  1  0
 19 44  1  0
 19 45  1  0
 20 46  1  0
 20 47  1  0
 20 48  1  0
 21 49  1  0
M  END
>  <score>  (9) 
-7.423

$$$$
