=
     RDKit          3D

 33 34  0  0  0  0  0  0  0  0999 V2000
    2.5230   68.3810   64.4770 C   0  0  2  0  0  0  0  0  0  0  0  0
    2.9270   68.8850   63.0700 C   0  0  0  0  0  0  0  0  0  0  0  0
    1.8540   68.6630   62.0130 C   0  0  0  0  0  0  0  0  0  0  0  0
    0.5910   69.4080   62.4140 C   0  0  0  0  0  0  0  0  0  0  0  0
    0.0120   68.8610   63.7040 C   0  0  0  0  0  0  0  0  0  0  0  0
    1.0120   68.6180   64.8160 C   0  0  0  0  0  0  0  0  0  0  0  0
    0.6040   68.3500   65.9530 O   0  0  0  0  0  0  0  0  0  0  0  0
    3.4050   69.0510   65.5640 C   0  0  0  0  0  0  0  0  0  0  0  0
    2.9230   69.3020   66.8690 C   0  0  0  0  0  0  0  0  0  0  0  0
    3.7230   69.9020   67.8490 C   0  0  0  0  0  0  0  0  0  0  0  0
    5.0250   70.2790   67.5590 C   0  0  0  0  0  0  0  0  0  0  0  0
    5.5300   70.0610   66.2840 C   0  0  0  0  0  0  0  0  0  0  0  0
    4.7370   69.4620   65.2980 C   0  0  0  0  0  0  0  0  0  0  0  0
    5.4930   69.2780   63.7510 Cl  0  0  0  0  0  0  0  0  0  0  0  0
    3.8110   66.1330   63.9140 C   0  0  0  0  0  0  0  0  0  0  0  0
    2.6260   66.8210   64.4870 N   0  0  0  0  0  4  0  0  0  0  0  0
    3.1354   69.9632   63.1332 H   0  0  0  0  0  0  0  0  0  0  0  0
    3.8098   68.3063   62.7607 H   0  0  0  0  0  0  0  0  0  0  0  0
    2.2104   69.0398   61.0430 H   0  0  0  0  0  0  0  0  0  0  0  0
    1.6365   67.5880   61.9293 H   0  0  0  0  0  0  0  0  0  0  0  0
    0.8321   70.4722   62.5529 H   0  0  0  0  0  0  0  0  0  0  0  0
   -0.1556   69.2777   61.6168 H   0  0  0  0  0  0  0  0  0  0  0  0
   -0.7356   69.5794   64.0714 H   0  0  0  0  0  0  0  0  0  0  0  0
   -0.4065   67.8751   63.4532 H   0  0  0  0  0  0  0  0  0  0  0  0
    1.8907   69.0180   67.1216 H   0  0  0  0  0  0  0  0  0  0  0  0
    3.3155   70.0754   68.8559 H   0  0  0  0  0  0  0  0  0  0  0  0
    5.6525   70.7467   68.3320 H   0  0  0  0  0  0  0  0  0  0  0  0
    6.5613   70.3613   66.0469 H   0  0  0  0  0  0  0  0  0  0  0  0
    4.4496   65.7623   64.7293 H   0  0  0  0  0  0  0  0  0  0  0  0
    3.4796   65.2869   63.2941 H   0  0  0  0  0  0  0  0  0  0  0  0
    4.3815   66.8403   63.2941 H   0  0  0  0  0  0  0  0  0  0  0  0
    1.8054   66.4692   63.9734 H   0  0  0  0  0  0  0  0  0  0  0  0
    2.6990   66.6034   65.4911 H   0  0  0  0  0  0  0  0  0  0  0  0
  2  1  1  0
  3  2  1  0
  4  3  1  0
  5  4  1  0
  6  5  1  0
  6  1  1  0
  7  6  2  0
  8  1  1  0
  9  8  2  0
 10  9  1  0
 11 10  2  0
 12 11  1  0
 13  8  1  0
 13 12  2  0
 14 13  1  0
 16 15  1  0
  1 16  1  6
  2 17  1  0
  2 18  1  0
  3 19  1  0
  3 20  1  0
  4 21  1  0
  4 22  1  0
  5 23  1  0
  5 24  1  0
  9 25  1  0
 10 26  1  0
 11 27  1  0
 12 28  1  0
 15 29  1  0
 15 30  1  0
 15 31  1  0
 16 32  1  0
 16 33  1  0
M  CHG  1  16   1
M  END
>  <score>  (1) 
-8.728

$$$$
=
     RDKit          3D

 33 34  0  0  0  0  0  0  0  0999 V2000
    1.2870   68.0960   65.2840 C   0  0  2  0  0  0  0  0  0  0  0  0
    0.3410   68.9950   64.4510 C   0  0  0  0  0  0  0  0  0  0  0  0
   -1.1360   68.7370   64.7160 C   0  0  0  0  0  0  0  0  0  0  0  0
   -1.4370   69.0010   66.1830 C   0  0  0  0  0  0  0  0  0  0  0  0
   -0.6870   68.0410   67.0840 C   0  0  0  0  0  0  0  0  0  0  0  0
    0.7750   67.8330   66.7410 C   0  0  0  0  0  0  0  0  0  0  0  0
    1.5020   67.2140   67.5290 O   0  0  0  0  0  0  0  0  0  0  0  0
    2.7080   68.7160   65.3430 C   0  0  0  0  0  0  0  0  0  0  0  0
    3.2970   69.1230   66.5620 C   0  0  0  0  0  0  0  0  0  0  0  0
    4.5820   69.6770   66.6120 C   0  0  0  0  0  0  0  0  0  0  0  0
    5.3180   69.8520   65.4510 C   0  0  0  0  0  0  0  0  0  0  0  0
    4.7670   69.4780   64.2320 C   0  0  0  0  0  0  0  0  0  0  0  0
    3.4830   68.9220   64.1730 C   0  0  0  0  0  0  0  0  0  0  0  0
    2.9200   68.5270   62.5830 Cl  0  0  0  0  0  0  0  0  0  0  0  0
    2.4820   65.7990   64.7150 C   0  0  0  0  0  0  0  0  0  0  0  0
    1.2730   66.6620   64.6620 N   0  0  0  0  0  4  0  0  0  0  0  0
    0.5590   70.0460   64.6916 H   0  0  0  0  0  0  0  0  0  0  0  0
    0.5241   68.7613   63.3918 H   0  0  0  0  0  0  0  0  0  0  0  0
   -1.7441   69.4065   64.0899 H   0  0  0  0  0  0  0  0  0  0  0  0
   -1.3769   67.6916   64.4727 H   0  0  0  0  0  0  0  0  0  0  0  0
   -1.1383   70.0305   66.4298 H   0  0  0  0  0  0  0  0  0  0  0  0
   -2.5153   68.8571   66.3460 H   0  0  0  0  0  0  0  0  0  0  0  0
   -0.7424   68.4276   68.1123 H   0  0  0  0  0  0  0  0  0  0  0  0
   -1.1709   67.0619   66.9524 H   0  0  0  0  0  0  0  0  0  0  0  0
    2.7303   69.0011   67.4969 H   0  0  0  0  0  0  0  0  0  0  0  0
    5.0104   69.9755   67.5801 H   0  0  0  0  0  0  0  0  0  0  0  0
    6.3291   70.2830   65.4943 H   0  0  0  0  0  0  0  0  0  0  0  0
    5.3436   69.6196   63.3060 H   0  0  0  0  0  0  0  0  0  0  0  0
    2.7501   65.6076   65.7645 H   0  0  0  0  0  0  0  0  0  0  0  0
    2.2735   64.8444   64.2099 H   0  0  0  0  0  0  0  0  0  0  0  0
    3.3171   66.3064   64.2099 H   0  0  0  0  0  0  0  0  0  0  0  0
    1.0365   66.7758   63.6660 H   0  0  0  0  0  0  0  0  0  0  0  0
    0.6053   66.1581   65.2629 H   0  0  0  0  0  0  0  0  0  0  0  0
  2  1  1  0
  3  2  1  0
  4  3  1  0
  5  4  1  0
  6  5  1  0
  6  1  1  0
  7  6  2  0
  8  1  1  0
  9  8  2  0
 10  9  1  0
 11 10  2  0
 12 11  1  0
 13  8  1  0
 13 12  2  0
 14 13  1  0
 16 15  1  0
  1 16  1  6
  2 17  1  0
  2 18  1  0
  3 19  1  0
  3 20  1  0
  4 21  1  0
  4 22  1  0
  5 23  1  0
  5 24  1  0
  9 25  1  0
 10 26  1  0
 11 27  1  0
 12 28  1  0
 15 29  1  0
 15 30  1  0
 15 31  1  0
 16 32  1  0
 16 33  1  0
M  CHG  1  16   1
M  END
>  <score>  (2) 
-8.715

$$$$
=
     RDKit          3D

 33 34  0  0  0  0  0  0  0  0999 V2000
    3.0810   67.9160   64.3600 C   0  0  2  0  0  0  0  0  0  0  0  0
    4.3880   67.5750   63.6030 C   0  0  0  0  0  0  0  0  0  0  0  0
    4.1700   67.2340   62.1350 C   0  0  0  0  0  0  0  0  0  0  0  0
    3.5370   68.4230   61.4310 C   0  0  0  0  0  0  0  0  0  0  0  0
    2.1600   68.7280   61.9880 C   0  0  0  0  0  0  0  0  0  0  0  0
    2.0540   68.7270   63.5000 C   0  0  0  0  0  0  0  0  0  0  0  0
    1.0190   69.1440   64.0360 O   0  0  0  0  0  0  0  0  0  0  0  0
    3.3990   68.7040   65.6580 C   0  0  0  0  0  0  0  0  0  0  0  0
    4.6090   69.4180   65.8220 C   0  0  0  0  0  0  0  0  0  0  0  0
    4.8920   70.1330   66.9930 C   0  0  0  0  0  0  0  0  0  0  0  0
    3.9840   70.1530   68.0400 C   0  0  0  0  0  0  0  0  0  0  0  0
    2.7910   69.4520   67.9220 C   0  0  0  0  0  0  0  0  0  0  0  0
    2.5000   68.7340   66.7550 C   0  0  0  0  0  0  0  0  0  0  0  0
    0.9880   67.8910   66.7620 Cl  0  0  0  0  0  0  0  0  0  0  0  0
    3.0330   65.2880   64.7120 C   0  0  0  0  0  0  0  0  0  0  0  0
    2.3090   66.5840   64.6310 N   0  0  0  0  0  4  0  0  0  0  0  0
    5.0610   68.4431   63.6623 H   0  0  0  0  0  0  0  0  0  0  0  0
    4.8150   66.6816   64.0821 H   0  0  0  0  0  0  0  0  0  0  0  0
    5.1366   67.0006   61.6647 H   0  0  0  0  0  0  0  0  0  0  0  0
    3.5048   66.3616   62.0545 H   0  0  0  0  0  0  0  0  0  0  0  0
    4.1813   69.3041   61.5674 H   0  0  0  0  0  0  0  0  0  0  0  0
    3.4318   68.1773   60.3640 H   0  0  0  0  0  0  0  0  0  0  0  0
    1.8614   69.7235   61.6278 H   0  0  0  0  0  0  0  0  0  0  0  0
    1.5056   67.9159   61.6384 H   0  0  0  0  0  0  0  0  0  0  0  0
    5.3483   69.4117   65.0075 H   0  0  0  0  0  0  0  0  0  0  0  0
    5.8410   70.6821   67.0821 H   0  0  0  0  0  0  0  0  0  0  0  0
    4.2064   70.7192   68.9565 H   0  0  0  0  0  0  0  0  0  0  0  0
    2.0688   69.4607   68.7516 H   0  0  0  0  0  0  0  0  0  0  0  0
    3.1840   65.0177   65.7675 H   0  0  0  0  0  0  0  0  0  0  0  0
    2.4412   64.5057   64.2142 H   0  0  0  0  0  0  0  0  0  0  0  0
    4.0094   65.3817   64.2142 H   0  0  0  0  0  0  0  0  0  0  0  0
    1.6163   66.4868   63.8750 H   0  0  0  0  0  0  0  0  0  0  0  0
    1.9616   66.7124   65.5921 H   0  0  0  0  0  0  0  0  0  0  0  0
  2  1  1  0
  3  2  1  0
  4  3  1  0
  5  4  1  0
  6  5  1  0
  6  1  1  0
  7  6  2  0
  8  1  1  0
  9  8  2  0
 10  9  1  0
 11 10  2  0
 12 11  1  0
 13  8  1  0
 13 12  2  0
 14 13  1  0
 16 15  1  0
  1 16  1  1
  2 17  1  0
  2 18  1  0
  3 19  1  0
  3 20  1  0
  4 21  1  0
  4 22  1  0
  5 23  1  0
  5 24  1  0
  9 25  1  0
 10 26  1  0
 11 27  1  0
 12 28  1  0
 15 29  1  0
 15 30  1  0
 15 31  1  0
 16 32  1  0
 16 33  1  0
M  CHG  1  16   1
M  END
>  <score>  (3) 
-8.682

$$$$
=
     RDKit          3D

 33 34  0  0  0  0  0  0  0  0999 V2000
    1.3340   68.3560   65.2770 C   0  0  2  0  0  0  0  0  0  0  0  0
    0.3060   69.4900   65.5080 C   0  0  0  0  0  0  0  0  0  0  0  0
   -1.0930   68.9860   65.8370 C   0  0  0  0  0  0  0  0  0  0  0  0
   -1.0420   68.1570   67.1100 C   0  0  0  0  0  0  0  0  0  0  0  0
   -0.1920   66.9140   66.9280 C   0  0  0  0  0  0  0  0  0  0  0  0
    1.1360   67.1290   66.2310 C   0  0  0  0  0  0  0  0  0  0  0  0
    1.9650   66.2110   66.2070 O   0  0  0  0  0  0  0  0  0  0  0  0
    2.7790   68.8990   65.4320 C   0  0  0  0  0  0  0  0  0  0  0  0
    3.6850   68.9390   64.3470 C   0  0  0  0  0  0  0  0  0  0  0  0
    4.9870   69.4350   64.4880 C   0  0  0  0  0  0  0  0  0  0  0  0
    5.4320   69.8990   65.7170 C   0  0  0  0  0  0  0  0  0  0  0  0
    4.5770   69.8620   66.8100 C   0  0  0  0  0  0  0  0  0  0  0  0
    3.2730   69.3680   66.6770 C   0  0  0  0  0  0  0  0  0  0  0  0
    2.3320   69.3620   68.1310 Cl  0  0  0  0  0  0  0  0  0  0  0  0
    0.5860   68.5700   62.7430 C   0  0  0  0  0  0  0  0  0  0  0  0
    1.0670   67.7300   63.8700 N   0  0  0  0  0  4  0  0  0  0  0  0
    0.6570   70.1128   66.3441 H   0  0  0  0  0  0  0  0  0  0  0  0
    0.2325   70.0557   64.5675 H   0  0  0  0  0  0  0  0  0  0  0  0
   -1.7672   69.8427   65.9832 H   0  0  0  0  0  0  0  0  0  0  0  0
   -1.4656   68.3660   65.0083 H   0  0  0  0  0  0  0  0  0  0  0  0
   -0.6136   68.7682   67.9181 H   0  0  0  0  0  0  0  0  0  0  0  0
   -2.0662   67.8423   67.3591 H   0  0  0  0  0  0  0  0  0  0  0  0
    0.0120   66.4939   67.9240 H   0  0  0  0  0  0  0  0  0  0  0  0
   -0.7712   66.2446   66.2750 H   0  0  0  0  0  0  0  0  0  0  0  0
    3.3576   68.5699   63.3639 H   0  0  0  0  0  0  0  0  0  0  0  0
    5.6608   69.4567   63.6188 H   0  0  0  0  0  0  0  0  0  0  0  0
    6.4534   70.2928   65.8246 H   0  0  0  0  0  0  0  0  0  0  0  0
    4.9263   70.2235   67.7884 H   0  0  0  0  0  0  0  0  0  0  0  0
    0.0763   69.4600   63.1406 H   0  0  0  0  0  0  0  0  0  0  0  0
    1.4422   68.8823   62.1270 H   0  0  0  0  0  0  0  0  0  0  0  0
   -0.1167   67.9897   62.1270 H   0  0  0  0  0  0  0  0  0  0  0  0
    0.3634   66.9903   64.0063 H   0  0  0  0  0  0  0  0  0  0  0  0
    2.0092   67.4508   63.5613 H   0  0  0  0  0  0  0  0  0  0  0  0
  2  1  1  0
  3  2  1  0
  4  3  1  0
  5  4  1  0
  6  5  1  0
  6  1  1  0
  7  6  2  0
  8  1  1  0
  9  8  2  0
 10  9  1  0
 11 10  2  0
 12 11  1  0
 13  8  1  0
 13 12  2  0
 14 13  1  0
 16 15  1  0
  1 16  1  6
  2 17  1  0
  2 18  1  0
  3 19  1  0
  3 20  1  0
  4 21  1  0
  4 22  1  0
  5 23  1  0
  5 24  1  0
  9 25  1  0
 10 26  1  0
 11 27  1  0
 12 28  1  0
 15 29  1  0
 15 30  1  0
 15 31  1  0
 16 32  1  0
 16 33  1  0
M  CHG  1  16   1
M  END
>  <score>  (4) 
-8.495

$$$$
=
     RDKit          3D

 33 34  0  0  0  0  0  0  0  0999 V2000
    3.1900   68.3360   64.9800 C   0  0  2  0  0  0  0  0  0  0  0  0
    2.8100   66.9070   65.4370 C   0  0  0  0  0  0  0  0  0  0  0  0
    2.7090   65.9080   64.2930 C   0  0  0  0  0  0  0  0  0  0  0  0
    4.0530   65.8140   63.5890 C   0  0  0  0  0  0  0  0  0  0  0  0
    4.4350   67.1320   62.9460 C   0  0  0  0  0  0  0  0  0  0  0  0
    4.2320   68.3610   63.8100 C   0  0  0  0  0  0  0  0  0  0  0  0
    4.6860   69.4490   63.4360 O   0  0  0  0  0  0  0  0  0  0  0  0
    3.7420   69.1560   66.1760 C   0  0  0  0  0  0  0  0  0  0  0  0
    5.0880   69.5840   66.2340 C   0  0  0  0  0  0  0  0  0  0  0  0
    5.5820   70.3280   67.3120 C   0  0  0  0  0  0  0  0  0  0  0  0
    4.7540   70.6640   68.3710 C   0  0  0  0  0  0  0  0  0  0  0  0
    3.4280   70.2500   68.3580 C   0  0  0  0  0  0  0  0  0  0  0  0
    2.9260   69.5060   67.2830 C   0  0  0  0  0  0  0  0  0  0  0  0
    1.2640   69.0410   67.4180 Cl  0  0  0  0  0  0  0  0  0  0  0  0
    1.2180   68.3160   63.2070 C   0  0  0  0  0  0  0  0  0  0  0  0
    1.9330   68.9920   64.3210 N   0  0  0  0  0  4  0  0  0  0  0  0
    3.5762   66.5521   66.1420 H   0  0  0  0  0  0  0  0  0  0  0  0
    1.8137   66.9703   65.8989 H   0  0  0  0  0  0  0  0  0  0  0  0
    2.4325   64.9204   64.6907 H   0  0  0  0  0  0  0  0  0  0  0  0
    1.9412   66.2411   63.5792 H   0  0  0  0  0  0  0  0  0  0  0  0
    4.8233   65.5381   64.3242 H   0  0  0  0  0  0  0  0  0  0  0  0
    3.9767   65.0529   62.7985 H   0  0  0  0  0  0  0  0  0  0  0  0
    5.4996   67.0807   62.6739 H   0  0  0  0  0  0  0  0  0  0  0  0
    3.7632   67.2540   62.0836 H   0  0  0  0  0  0  0  0  0  0  0  0
    5.7669   69.3249   65.4082 H   0  0  0  0  0  0  0  0  0  0  0  0
    6.6344   70.6480   67.3184 H   0  0  0  0  0  0  0  0  0  0  0  0
    5.1431   71.2533   69.2144 H   0  0  0  0  0  0  0  0  0  0  0  0
    2.7673   70.5086   69.1986 H   0  0  0  0  0  0  0  0  0  0  0  0
    0.4768   67.6152   63.6188 H   0  0  0  0  0  0  0  0  0  0  0  0
    0.7070   69.0689   62.5889 H   0  0  0  0  0  0  0  0  0  0  0  0
    1.9411   67.7636   62.5889 H   0  0  0  0  0  0  0  0  0  0  0  0
    2.2342   69.9096   63.9629 H   0  0  0  0  0  0  0  0  0  0  0  0
    1.2396   68.9734   65.0824 H   0  0  0  0  0  0  0  0  0  0  0  0
  2  1  1  0
  3  2  1  0
  4  3  1  0
  5  4  1  0
  6  5  1  0
  6  1  1  0
  7  6  2  0
  8  1  1  0
  9  8  2  0
 10  9  1  0
 11 10  2  0
 12 11  1  0
 13  8  1  0
 13 12  2  0
 14 13  1  0
 16 15  1  0
  1 16  1  6
  2 17  1  0
  2 18  1  0
  3 19  1  0
  3 20  1  0
  4 21  1  0
  4 22  1  0
  5 23  1  0
  5 24  1  0
  9 25  1  0
 10 26  1  0
 11 27  1  0
 12 28  1  0
 15 29  1  0
 15 30  1  0
 15 31  1  0
 16 32  1  0
 16 33  1  0
M  CHG  1  16   1
M  END
>  <score>  (5) 
-8.44

$$$$
=
     RDKit          3D

 33 34  0  0  0  0  0  0  0  0999 V2000
    1.3820   68.5820   67.5200 C   0  0  2  0  0  0  0  0  0  0  0  0
    0.8130   67.3850   66.7200 C   0  0  0  0  0  0  0  0  0  0  0  0
   -0.6800   67.1680   66.9280 C   0  0  0  0  0  0  0  0  0  0  0  0
   -1.4350   68.4100   66.4820 C   0  0  0  0  0  0  0  0  0  0  0  0
   -1.0750   69.6130   67.3320 C   0  0  0  0  0  0  0  0  0  0  0  0
    0.4050   69.8040   67.5960 C   0  0  0  0  0  0  0  0  0  0  0  0
    0.7980   70.8540   68.1200 O   0  0  0  0  0  0  0  0  0  0  0  0
    2.7340   69.0420   66.9120 C   0  0  0  0  0  0  0  0  0  0  0  0
    3.0710   68.7930   65.5620 C   0  0  0  0  0  0  0  0  0  0  0  0
    4.2900   69.2140   65.0150 C   0  0  0  0  0  0  0  0  0  0  0  0
    5.2150   69.8880   65.7960 C   0  0  0  0  0  0  0  0  0  0  0  0
    4.9260   70.1400   67.1310 C   0  0  0  0  0  0  0  0  0  0  0  0
    3.7090   69.7220   67.6860 C   0  0  0  0  0  0  0  0  0  0  0  0
    3.5000   70.0830   69.3670 Cl  0  0  0  0  0  0  0  0  0  0  0  0
    1.3000   66.7430   69.4280 C   0  0  0  0  0  0  0  0  0  0  0  0
    1.5020   68.1570   69.0190 N   0  0  0  0  0  4  0  0  0  0  0  0
    0.9926   67.5650   65.6498 H   0  0  0  0  0  0  0  0  0  0  0  0
    1.3243   66.4814   67.0835 H   0  0  0  0  0  0  0  0  0  0  0  0
   -1.0119   66.3033   66.3345 H   0  0  0  0  0  0  0  0  0  0  0  0
   -0.8800   66.9776   67.9928 H   0  0  0  0  0  0  0  0  0  0  0  0
   -1.1824   68.6247   65.4331 H   0  0  0  0  0  0  0  0  0  0  0  0
   -2.5124   68.2181   66.5934 H   0  0  0  0  0  0  0  0  0  0  0  0
   -1.4473   70.5131   66.8209 H   0  0  0  0  0  0  0  0  0  0  0  0
   -1.5377   69.4387   68.3146 H   0  0  0  0  0  0  0  0  0  0  0  0
    2.3562   68.2536   64.9232 H   0  0  0  0  0  0  0  0  0  0  0  0
    4.5144   69.0081   63.9580 H   0  0  0  0  0  0  0  0  0  0  0  0
    6.1698   70.2206   65.3626 H   0  0  0  0  0  0  0  0  0  0  0  0
    5.6577   70.6715   67.7572 H   0  0  0  0  0  0  0  0  0  0  0  0
    1.2905   66.6767   70.5260 H   0  0  0  0  0  0  0  0  0  0  0  0
    0.3408   66.3797   69.0304 H   0  0  0  0  0  0  0  0  0  0  0  0
    2.1191   66.1257   69.0304 H   0  0  0  0  0  0  0  0  0  0  0  0
    0.8094   68.7148   69.5387 H   0  0  0  0  0  0  0  0  0  0  0  0
    2.4999   68.3128   69.2213 H   0  0  0  0  0  0  0  0  0  0  0  0
  2  1  1  0
  3  2  1  0
  4  3  1  0
  5  4  1  0
  6  5  1  0
  6  1  1  0
  7  6  2  0
  8  1  1  0
  9  8  2  0
 10  9  1  0
 11 10  2  0
 12 11  1  0
 13  8  1  0
 13 12  2  0
 14 13  1  0
 16 15  1  0
  1 16  1  1
  2 17  1  0
  2 18  1  0
  3 19  1  0
  3 20  1  0
  4 21  1  0
  4 22  1  0
  5 23  1  0
  5 24  1  0
  9 25  1  0
 10 26  1  0
 11 27  1  0
 12 28  1  0
 15 29  1  0
 15 30  1  0
 15 31  1  0
 16 32  1  0
 16 33  1  0
M  CHG  1  16   1
M  END
>  <score>  (6) 
-8.111

$$$$
=
     RDKit          3D

 33 34  0  0  0  0  0  0  0  0999 V2000
    2.9930   61.4910   72.0540 C   0  0  2  0  0  0  0  0  0  0  0  0
    2.2380   62.0990   70.8470 C   0  0  0  0  0  0  0  0  0  0  0  0
    2.8330   63.4110   70.3550 C   0  0  0  0  0  0  0  0  0  0  0  0
    4.2700   63.1780   69.9160 C   0  0  0  0  0  0  0  0  0  0  0  0
    5.1410   62.7460   71.0790 C   0  0  0  0  0  0  0  0  0  0  0  0
    4.5460   61.6790   71.9770 C   0  0  0  0  0  0  0  0  0  0  0  0
    5.2580   61.1410   72.8350 O   0  0  0  0  0  0  0  0  0  0  0  0
    2.6650   59.9800   72.1900 C   0  0  0  0  0  0  0  0  0  0  0  0
    2.0490   59.4490   73.3460 C   0  0  0  0  0  0  0  0  0  0  0  0
    1.7490   58.0870   73.4640 C   0  0  0  0  0  0  0  0  0  0  0  0
    2.0600   57.2070   72.4380 C   0  0  0  0  0  0  0  0  0  0  0  0
    2.6790   57.6890   71.2910 C   0  0  0  0  0  0  0  0  0  0  0  0
    2.9820   59.0510   71.1660 C   0  0  0  0  0  0  0  0  0  0  0  0
    3.7740   59.4990   69.6930 Cl  0  0  0  0  0  0  0  0  0  0  0  0
    1.3020   62.9870   73.4430 C   0  0  0  0  0  0  0  0  0  0  0  0
    2.6210   62.3120   73.3310 N   0  0  0  0  0  4  0  0  0  0  0  0
    2.2628   61.3740   70.0201 H   0  0  0  0  0  0  0  0  0  0  0  0
    1.2131   62.3151   71.1828 H   0  0  0  0  0  0  0  0  0  0  0  0
    2.2449   63.7849   69.5039 H   0  0  0  0  0  0  0  0  0  0  0  0
    2.8115   64.1527   71.1670 H   0  0  0  0  0  0  0  0  0  0  0  0
    4.2860   62.3927   69.1459 H   0  0  0  0  0  0  0  0  0  0  0  0
    4.6678   64.1233   69.5182 H   0  0  0  0  0  0  0  0  0  0  0  0
    6.0850   62.3571   70.6697 H   0  0  0  0  0  0  0  0  0  0  0  0
    5.2666   63.6377   71.7107 H   0  0  0  0  0  0  0  0  0  0  0  0
    1.7983   60.1253   74.1765 H   0  0  0  0  0  0  0  0  0  0  0  0
    1.2632   57.7119   74.3768 H   0  0  0  0  0  0  0  0  0  0  0  0
    1.8190   56.1378   72.5313 H   0  0  0  0  0  0  0  0  0  0  0  0
    2.9329   56.9961   70.4753 H   0  0  0  0  0  0  0  0  0  0  0  0
    1.0461   63.1180   74.5048 H   0  0  0  0  0  0  0  0  0  0  0  0
    1.3509   63.9709   72.9536 H   0  0  0  0  0  0  0  0  0  0  0  0
    0.5326   62.3718   72.9536 H   0  0  0  0  0  0  0  0  0  0  0  0
    3.3363   63.0469   73.4267 H   0  0  0  0  0  0  0  0  0  0  0  0
    2.5705   61.5881   74.0620 H   0  0  0  0  0  0  0  0  0  0  0  0
  2  1  1  0
  3  2  1  0
  4  3  1  0
  5  4  1  0
  6  5  1  0
  6  1  1  0
  7  6  2  0
  8  1  1  0
  9  8  2  0
 10  9  1  0
 11 10  2  0
 12 11  1  0
 13  8  1  0
 13 12  2  0
 14 13  1  0
 16 15  1  0
  1 16  1  1
  2 17  1  0
  2 18  1  0
  3 19  1  0
  3 20  1  0
  4 21  1  0
  4 22  1  0
  5 23  1  0
  5 24  1  0
  9 25  1  0
 10 26  1  0
 11 27  1  0
 12 28  1  0
 15 29  1  0
 15 30  1  0
 15 31  1  0
 16 32  1  0
 16 33  1  0
M  CHG  1  16   1
M  END
>  <score>  (7) 
-8.092

$$$$
=
     RDKit          3D

 33 34  0  0  0  0  0  0  0  0999 V2000
    2.2340   68.0910   65.1680 C   0  0  2  0  0  0  0  0  0  0  0  0
    1.0310   67.7010   66.0620 C   0  0  0  0  0  0  0  0  0  0  0  0
    1.3660   67.6550   67.5470 C   0  0  0  0  0  0  0  0  0  0  0  0
    1.8380   69.0270   67.9990 C   0  0  0  0  0  0  0  0  0  0  0  0
    3.1250   69.4270   67.3030 C   0  0  0  0  0  0  0  0  0  0  0  0
    3.1610   69.1800   65.8080 C   0  0  0  0  0  0  0  0  0  0  0  0
    4.0930   69.6420   65.1380 O   0  0  0  0  0  0  0  0  0  0  0  0
    1.7390   68.5870   63.7840 C   0  0  0  0  0  0  0  0  0  0  0  0
    0.4310   69.0910   63.5930 C   0  0  0  0  0  0  0  0  0  0  0  0
   -0.0120   69.5430   62.3440 C   0  0  0  0  0  0  0  0  0  0  0  0
    0.8290   69.5010   61.2430 C   0  0  0  0  0  0  0  0  0  0  0  0
    2.1170   69.0000   61.3870 C   0  0  0  0  0  0  0  0  0  0  0  0
    2.5680   68.5460   62.6340 C   0  0  0  0  0  0  0  0  0  0  0  0
    4.1850   67.9270   62.6550 Cl  0  0  0  0  0  0  0  0  0  0  0  0
    2.6590   65.5100   64.7360 C   0  0  0  0  0  0  0  0  0  0  0  0
    3.1890   66.8580   65.0660 N   0  0  0  0  0  4  0  0  0  0  0  0
    0.2299   68.4390   65.9087 H   0  0  0  0  0  0  0  0  0  0  0  0
    0.7257   66.6859   65.7681 H   0  0  0  0  0  0  0  0  0  0  0  0
    0.4698   67.3687   68.1170 H   0  0  0  0  0  0  0  0  0  0  0  0
    2.1616   66.9158   67.7222 H   0  0  0  0  0  0  0  0  0  0  0  0
    1.0595   69.7682   67.7652 H   0  0  0  0  0  0  0  0  0  0  0  0
    2.0278   68.9882   69.0818 H   0  0  0  0  0  0  0  0  0  0  0  0
    3.2824   70.5023   67.4729 H   0  0  0  0  0  0  0  0  0  0  0  0
    3.9122   68.7908   67.7338 H   0  0  0  0  0  0  0  0  0  0  0  0
   -0.2575   69.1289   64.4500 H   0  0  0  0  0  0  0  0  0  0  0  0
   -1.0344   69.9341   62.2358 H   0  0  0  0  0  0  0  0  0  0  0  0
    0.4799   69.8611   60.2640 H   0  0  0  0  0  0  0  0  0  0  0  0
    2.7876   68.9594   60.5160 H   0  0  0  0  0  0  0  0  0  0  0  0
    2.4439   64.9629   65.6657 H   0  0  0  0  0  0  0  0  0  0  0  0
    1.7345   65.6131   64.1490 H   0  0  0  0  0  0  0  0  0  0  0  0
    3.4062   64.9558   64.1490 H   0  0  0  0  0  0  0  0  0  0  0  0
    3.6581   66.7736   65.9791 H   0  0  0  0  0  0  0  0  0  0  0  0
    3.7665   67.0839   64.2436 H   0  0  0  0  0  0  0  0  0  0  0  0
  2  1  1  0
  3  2  1  0
  4  3  1  0
  5  4  1  0
  6  5  1  0
  6  1  1  0
  7  6  2  0
  8  1  1  0
  9  8  2  0
 10  9  1  0
 11 10  2  0
 12 11  1  0
 13  8  1  0
 13 12  2  0
 14 13  1  0
 16 15  1  0
  1 16  1  6
  2 17  1  0
  2 18  1  0
  3 19  1  0
  3 20  1  0
  4 21  1  0
  4 22  1  0
  5 23  1  0
  5 24  1  0
  9 25  1  0
 10 26  1  0
 11 27  1  0
 12 28  1  0
 15 29  1  0
 15 30  1  0
 15 31  1  0
 16 32  1  0
 16 33  1  0
M  CHG  1  16   1
M  END
>  <score>  (8) 
-7.924

$$$$
=
     RDKit          3D

 33 34  0  0  0  0  0  0  0  0999 V2000
    1.8920   61.4290   73.1790 C   0  0  2  0  0  0  0  0  0  0  0  0
    0.9870   60.4020   72.4560 C   0  0  0  0  0  0  0  0  0  0  0  0
   -0.2880   60.0710   73.2180 C   0  0  0  0  0  0  0  0  0  0  0  0
   -1.1050   61.3390   73.4070 C   0  0  0  0  0  0  0  0  0  0  0  0
   -0.3680   62.3510   74.2630 C   0  0  0  0  0  0  0  0  0  0  0  0
    1.0930   62.5560   73.9170 C   0  0  0  0  0  0  0  0  0  0  0  0
    1.7160   63.4890   74.4390 O   0  0  0  0  0  0  0  0  0  0  0  0
    2.8840   62.0750   72.1750 C   0  0  0  0  0  0  0  0  0  0  0  0
    4.2740   61.8230   72.2290 C   0  0  0  0  0  0  0  0  0  0  0  0
    5.1660   62.4040   71.3180 C   0  0  0  0  0  0  0  0  0  0  0  0
    4.7040   63.2590   70.3310 C   0  0  0  0  0  0  0  0  0  0  0  0
    3.3460   63.5430   70.2540 C   0  0  0  0  0  0  0  0  0  0  0  0
    2.4470   62.9660   71.1610 C   0  0  0  0  0  0  0  0  0  0  0  0
    0.7920   63.4310   70.9590 Cl  0  0  0  0  0  0  0  0  0  0  0  0
    2.9800   59.2660   74.2600 C   0  0  0  0  0  0  0  0  0  0  0  0
    2.6110   60.7020   74.3610 N   0  0  0  0  0  4  0  0  0  0  0  0
    0.7087   60.8138   71.4747 H   0  0  0  0  0  0  0  0  0  0  0  0
    1.5629   59.4688   72.3699 H   0  0  0  0  0  0  0  0  0  0  0  0
   -0.8762   59.3366   72.6482 H   0  0  0  0  0  0  0  0  0  0  0  0
   -0.0305   59.6491   74.2007 H   0  0  0  0  0  0  0  0  0  0  0  0
   -1.3078   61.7840   72.4217 H   0  0  0  0  0  0  0  0  0  0  0  0
   -2.0430   61.0732   73.9164 H   0  0  0  0  0  0  0  0  0  0  0  0
   -0.8799   63.3191   74.1599 H   0  0  0  0  0  0  0  0  0  0  0  0
   -0.3828   61.9489   75.2868 H   0  0  0  0  0  0  0  0  0  0  0  0
    4.6661   61.1523   73.0077 H   0  0  0  0  0  0  0  0  0  0  0  0
    6.2406   62.1796   71.3871 H   0  0  0  0  0  0  0  0  0  0  0  0
    5.4063   63.7094   69.6141 H   0  0  0  0  0  0  0  0  0  0  0  0
    2.9740   64.2255   69.4757 H   0  0  0  0  0  0  0  0  0  0  0  0
    3.0886   58.8434   75.2698 H   0  0  0  0  0  0  0  0  0  0  0  0
    2.1924   58.7223   73.7177 H   0  0  0  0  0  0  0  0  0  0  0  0
    3.9322   59.1694   73.7177 H   0  0  0  0  0  0  0  0  0  0  0  0
    1.9919   60.7892   75.1795 H   0  0  0  0  0  0  0  0  0  0  0  0
    3.5272   61.1714   74.3943 H   0  0  0  0  0  0  0  0  0  0  0  0
  2  1  1  0
  3  2  1  0
  4  3  1  0
  5  4  1  0
  6  5  1  0
  6  1  1  0
  7  6  2  0
  8  1  1  0
  9  8  2  0
 10  9  1  0
 11 10  2  0
 12 11  1  0
 13  8  1  0
 13 12  2  0
 14 13  1  0
 16 15  1  0
  1 16  1  1
  2 17  1  0
  2 18  1  0
  3 19  1  0
  3 20  1  0
  4 21  1  0
  4 22  1  0
  5 23  1  0
  5 24  1  0
  9 25  1  0
 10 26  1  0
 11 27  1  0
 12 28  1  0
 15 29  1  0
 15 30  1  0
 15 31  1  0
 16 32  1  0
 16 33  1  0
M  CHG  1  16   1
M  END
>  <score>  (9) 
-7.488

$$$$
