=
     RDKit          3D

 98104  0  0  0  0  0  0  0  0999 V2000
    0.7530   65.1820   70.8410 C   0  0  0  0  0  0  0  0  0  0  0  0
    0.0250   65.3200   69.5220 N   0  0  0  0  0  4  0  0  0  0  0  0
   -0.3040   66.7490   69.1450 C   0  0  0  0  0  0  0  0  0  0  0  0
   -0.8550   66.8030   67.7140 C   0  0  0  0  0  0  0  0  0  0  0  0
   -2.3610   67.1090   67.6860 C   0  0  0  0  0  0  0  0  0  0  0  0
   -2.6170   68.2650   66.7780 N   0  0  0  0  0  4  0  0  0  0  0  0
   -1.4110   69.0350   66.2970 C   0  0  0  0  0  0  0  0  0  0  0  0
   -1.2310   68.8760   64.7890 C   0  0  0  0  0  0  0  0  0  0  0  0
    0.2140   69.0560   64.2980 C   0  0  0  0  0  0  0  0  0  0  0  0
    1.1140   68.0760   64.9790 N   0  0  0  0  0  0  0  0  0  0  0  0
    2.4350   68.6550   65.1300 C   0  0  0  0  0  0  0  0  0  0  0  0
    3.3180   68.6680   64.0380 C   0  0  0  0  0  0  0  0  0  0  0  0
    3.0170   68.1750   62.6530 C   0  0  0  0  0  0  0  0  0  0  0  0
    4.1680   67.3430   62.0840 C   0  0  0  0  0  0  0  0  0  0  0  0
    5.5630   67.9270   62.3460 C   0  0  0  0  0  0  0  0  0  0  0  0
    5.5460   69.2710   63.0720 C   0  0  0  0  0  0  0  0  0  0  0  0
    4.5790   69.2340   64.2280 C   0  0  0  0  0  0  0  0  0  0  0  0
    4.9850   69.7730   65.3880 N   0  0  0  0  0  0  0  0  0  0  0  0
    4.1750   69.7140   66.4510 C   0  0  0  0  0  0  0  0  0  0  0  0
    2.8800   69.1510   66.4010 C   0  0  0  0  0  0  0  0  0  0  0  0
    2.1300   69.1190   67.6100 C   0  0  0  0  0  0  0  0  0  0  0  0
    2.6350   69.6420   68.8010 C   0  0  0  0  0  0  0  0  0  0  0  0
    3.9000   70.2050   68.8190 C   0  0  0  0  0  0  0  0  0  0  0  0
    4.6540   70.2320   67.6460 C   0  0  0  0  0  0  0  0  0  0  0  0
    0.1790   64.0090   71.6420 C   0  0  0  0  0  0  0  0  0  0  0  0
    1.1570   63.5390   72.7340 C   0  0  0  0  0  0  0  0  0  0  0  0
    2.7530   57.5850   71.6500 C   0  0  0  0  0  0  0  0  0  0  0  0
    1.8200   57.0130   72.4950 C   0  0  0  0  0  0  0  0  0  0  0  0
    0.9810   57.8170   73.2720 C   0  0  0  0  0  0  0  0  0  0  0  0
    1.0020   59.2340   73.2020 C   0  0  0  0  0  0  0  0  0  0  0  0
    1.9020   59.8200   72.2940 C   0  0  0  0  0  0  0  0  0  0  0  0
    2.7520   58.9730   71.5280 C   0  0  0  0  0  0  0  0  0  0  0  0
    1.9220   61.2270   72.1580 C   0  0  0  0  0  0  0  0  0  0  0  0
    1.0990   62.0380   72.9030 N   0  0  0  0  0  4  0  0  0  0  0  0
    0.2270   61.4880   73.8200 C   0  0  0  0  0  0  0  0  0  0  0  0
    0.1590   60.0780   73.9780 C   0  0  0  0  0  0  0  0  0  0  0  0
   -0.7660   59.5710   74.9280 C   0  0  0  0  0  0  0  0  0  0  0  0
   -1.6090   60.3960   75.6740 C   0  0  0  0  0  0  0  0  0  0  0  0
   -1.5780   61.7610   75.4830 C   0  0  0  0  0  0  0  0  0  0  0  0
   -0.6290   62.2920   74.6110 C   0  0  0  0  0  0  0  0  0  0  0  0
    2.8050   61.8900   71.1820 C   0  0  0  0  0  0  0  0  0  0  0  0
    2.4540   61.9480   69.8210 C   0  0  0  0  0  0  0  0  0  0  0  0
    3.2930   62.5670   68.8950 C   0  0  0  0  0  0  0  0  0  0  0  0
    4.4970   63.1300   69.3130 C   0  0  0  0  0  0  0  0  0  0  0  0
    4.8720   63.0610   70.6530 C   0  0  0  0  0  0  0  0  0  0  0  0
    4.0370   62.4380   71.5820 C   0  0  0  0  0  0  0  0  0  0  0  0
   -2.3200   62.6320   76.2930 N   0  0  0  0  0  0  0  0  0  0  0  0
    3.4960   56.7980   70.7770 N   0  0  0  0  0  0  0  0  0  0  0  0
    1.8213   65.0029   70.6494 H   0  0  0  0  0  0  0  0  0  0  0  0
    0.6254   66.1085   71.4200 H   0  0  0  0  0  0  0  0  0  0  0  0
    0.6178   64.9183   68.7816 H   0  0  0  0  0  0  0  0  0  0  0  0
   -0.8726   64.8254   69.6246 H   0  0  0  0  0  0  0  0  0  0  0  0
   -1.0588   67.1443   69.8407 H   0  0  0  0  0  0  0  0  0  0  0  0
    0.6114   67.3563   69.2016 H   0  0  0  0  0  0  0  0  0  0  0  0
   -0.3228   67.5892   67.1584 H   0  0  0  0  0  0  0  0  0  0  0  0
   -0.7011   65.8157   67.2541 H   0  0  0  0  0  0  0  0  0  0  0  0
   -2.9075   66.2273   67.3201 H   0  0  0  0  0  0  0  0  0  0  0  0
   -2.7035   67.3575   68.7013 H   0  0  0  0  0  0  0  0  0  0  0  0
   -3.1084   67.9054   65.9472 H   0  0  0  0  0  0  0  0  0  0  0  0
   -3.1566   68.9362   67.3430 H   0  0  0  0  0  0  0  0  0  0  0  0
   -1.5460   70.1008   66.5335 H   0  0  0  0  0  0  0  0  0  0  0  0
   -0.5169   68.6405   66.8019 H   0  0  0  0  0  0  0  0  0  0  0  0
   -1.5666   67.8670   64.5073 H   0  0  0  0  0  0  0  0  0  0  0  0
   -1.8238   69.6734   64.3170 H   0  0  0  0  0  0  0  0  0  0  0  0
    0.2522   68.8906   63.2112 H   0  0  0  0  0  0  0  0  0  0  0  0
    0.5496   70.0768   64.5334 H   0  0  0  0  0  0  0  0  0  0  0  0
    0.8384   67.1344   65.2927 H   0  0  0  0  0  0  0  0  0  0  0  0
    2.1102   67.5532   62.6855 H   0  0  0  0  0  0  0  0  0  0  0  0
    2.8729   69.0500   62.0021 H   0  0  0  0  0  0  0  0  0  0  0  0
    4.1242   66.3410   62.5357 H   0  0  0  0  0  0  0  0  0  0  0  0
    4.0343   67.3277   60.9923 H   0  0  0  0  0  0  0  0  0  0  0  0
    6.1291   67.2098   62.9585 H   0  0  0  0  0  0  0  0  0  0  0  0
    6.0255   68.1012   61.3633 H   0  0  0  0  0  0  0  0  0  0  0  0
    6.5551   69.4906   63.4509 H   0  0  0  0  0  0  0  0  0  0  0  0
    5.2276   70.0526   62.3665 H   0  0  0  0  0  0  0  0  0  0  0  0
    1.1257   68.6702   67.6055 H   0  0  0  0  0  0  0  0  0  0  0  0
    2.0318   69.6073   69.7202 H   0  0  0  0  0  0  0  0  0  0  0  0
    4.3065   70.6271   69.7499 H   0  0  0  0  0  0  0  0  0  0  0  0
    5.6594   70.6777   67.6688 H   0  0  0  0  0  0  0  0  0  0  0  0
   -0.7611   64.3265   72.1168 H   0  0  0  0  0  0  0  0  0  0  0  0
    0.0053   63.1713   70.9506 H   0  0  0  0  0  0  0  0  0  0  0  0
    2.1793   63.8299   72.4508 H   0  0  0  0  0  0  0  0  0  0  0  0
    0.8722   64.0103   73.6862 H   0  0  0  0  0  0  0  0  0  0  0  0
    1.7374   55.9178   72.5563 H   0  0  0  0  0  0  0  0  0  0  0  0
    0.2772   57.3323   73.9646 H   0  0  0  0  0  0  0  0  0  0  0  0
    3.4404   59.4361   70.8058 H   0  0  0  0  0  0  0  0  0  0  0  0
   -0.8206   58.4833   75.0825 H   0  0  0  0  0  0  0  0  0  0  0  0
   -2.2965   59.9582   76.4126 H   0  0  0  0  0  0  0  0  0  0  0  0
   -0.5411   63.3858   74.5338 H   0  0  0  0  0  0  0  0  0  0  0  0
    1.5076   61.5003   69.4836 H   0  0  0  0  0  0  0  0  0  0  0  0
    3.0043   62.6108   67.8345 H   0  0  0  0  0  0  0  0  0  0  0  0
    5.1522   63.6295   68.5842 H   0  0  0  0  0  0  0  0  0  0  0  0
    5.8273   63.4980   70.9793 H   0  0  0  0  0  0  0  0  0  0  0  0
    4.3452   62.3751   72.6361 H   0  0  0  0  0  0  0  0  0  0  0  0
   -2.2792   63.6481   76.1291 H   0  0  0  0  0  0  0  0  0  0  0  0
   -2.9060   62.2559   77.0520 H   0  0  0  0  0  0  0  0  0  0  0  0
    4.1883   57.2350   70.1520 H   0  0  0  0  0  0  0  0  0  0  0  0
    3.3540   55.7781   70.7553 H   0  0  0  0  0  0  0  0  0  0  0  0
  2  1  1  0
  3  2  1  0
  4  3  1  0
  5  4  1  0
  6  5  1  0
  7  6  1  0
  8  7  1  0
  9  8  1  0
 10  9  1  0
 11 10  1  0
 12 11  1  0
 13 12  1  0
 14 13  1  0
 15 14  1  0
 16 15  1  0
 17 12  2  0
 17 16  1  0
 18 17  1  0
 19 18  2  0
 20 11  2  0
 20 19  1  0
 21 20  1  0
 22 21  2  0
 23 22  1  0
 24 23  2  0
 24 19  1  0
 25  1  1  0
 26 25  1  0
 28 27  2  0
 29 28  1  0
 30 29  2  0
 31 30  1  0
 32 31  2  0
 32 27  1  0
 33 31  1  0
 34 33  2  0
 34 26  1  0
 35 34  1  0
 36 30  1  0
 36 35  2  0
 37 36  1  0
 38 37  2  0
 39 38  1  0
 40 39  2  0
 40 35  1  0
 41 33  1  0
 42 41  2  0
 43 42  1  0
 44 43  2  0
 45 44  1  0
 46 45  2  0
 46 41  1  0
 47 39  1  0
 48 27  1  0
  1 49  1  0
  1 50  1  0
  2 51  1  0
  2 52  1  0
  3 53  1  0
  3 54  1  0
  4 55  1  0
  4 56  1  0
  5 57  1  0
  5 58  1  0
  6 59  1  0
  6 60  1  0
  7 61  1  0
  7 62  1  0
  8 63  1  0
  8 64  1  0
  9 65  1  0
  9 66  1  0
 10 67  1  0
 13 68  1  0
 13 69  1  0
 14 70  1  0
 14 71  1  0
 15 72  1  0
 15 73  1  0
 16 74  1  0
 16 75  1  0
 21 76  1  0
 22 77  1  0
 23 78  1  0
 24 79  1  0
 25 80  1  0
 25 81  1  0
 26 82  1  0
 26 83  1  0
 28 84  1  0
 29 85  1  0
 32 86  1  0
 37 87  1  0
 38 88  1  0
 40 89  1  0
 42 90  1  0
 43 91  1  0
 44 92  1  0
 45 93  1  0
 46 94  1  0
 47 95  1  0
 47 96  1  0
 48 97  1  0
 48 98  1  0
M  CHG  3   2   1   6   1  34   1
M  END
>  <score>  (1) 
-12.247

$$$$
=
     RDKit          3D

 98104  0  0  0  0  0  0  0  0999 V2000
    0.7310   65.1980   70.8330 C   0  0  0  0  0  0  0  0  0  0  0  0
   -0.0030   65.3390   69.5170 N   0  0  0  0  0  4  0  0  0  0  0  0
   -0.3360   66.7680   69.1470 C   0  0  0  0  0  0  0  0  0  0  0  0
   -0.8720   66.8280   67.7100 C   0  0  0  0  0  0  0  0  0  0  0  0
   -2.3690   67.1770   67.6650 C   0  0  0  0  0  0  0  0  0  0  0  0
   -2.5820   68.3330   66.7470 N   0  0  0  0  0  4  0  0  0  0  0  0
   -1.3560   69.1090   66.3300 C   0  0  0  0  0  0  0  0  0  0  0  0
   -1.0800   68.9290   64.8390 C   0  0  0  0  0  0  0  0  0  0  0  0
    0.4020   69.0390   64.4480 C   0  0  0  0  0  0  0  0  0  0  0  0
    1.2310   68.1580   65.3240 N   0  0  0  0  0  0  0  0  0  0  0  0
    2.5670   68.7110   65.4430 C   0  0  0  0  0  0  0  0  0  0  0  0
    3.0160   69.1820   66.6870 C   0  0  0  0  0  0  0  0  0  0  0  0
    2.2560   69.1280   67.9790 C   0  0  0  0  0  0  0  0  0  0  0  0
    2.3550   70.4450   68.7520 C   0  0  0  0  0  0  0  0  0  0  0  0
    3.7610   71.0610   68.7770 C   0  0  0  0  0  0  0  0  0  0  0  0
    4.8220   70.2130   68.0790 C   0  0  0  0  0  0  0  0  0  0  0  0
    4.3070   69.7080   66.7560 C   0  0  0  0  0  0  0  0  0  0  0  0
    5.1400   69.7730   65.7050 N   0  0  0  0  0  0  0  0  0  0  0  0
    4.7030   69.3830   64.5030 C   0  0  0  0  0  0  0  0  0  0  0  0
    3.4110   68.8500   64.2900 C   0  0  0  0  0  0  0  0  0  0  0  0
    3.0550   68.5010   62.9580 C   0  0  0  0  0  0  0  0  0  0  0  0
    3.9480   68.6530   61.8960 C   0  0  0  0  0  0  0  0  0  0  0  0
    5.2140   69.1600   62.1350 C   0  0  0  0  0  0  0  0  0  0  0  0
    5.5750   69.5200   63.4320 C   0  0  0  0  0  0  0  0  0  0  0  0
    0.1710   64.0140   71.6280 C   0  0  0  0  0  0  0  0  0  0  0  0
    1.1690   63.5290   72.6950 C   0  0  0  0  0  0  0  0  0  0  0  0
    2.7200   57.5550   71.6520 C   0  0  0  0  0  0  0  0  0  0  0  0
    1.7650   56.9950   72.4800 C   0  0  0  0  0  0  0  0  0  0  0  0
    0.9210   57.8100   73.2390 C   0  0  0  0  0  0  0  0  0  0  0  0
    0.9580   59.2260   73.1670 C   0  0  0  0  0  0  0  0  0  0  0  0
    1.8810   59.8010   72.2760 C   0  0  0  0  0  0  0  0  0  0  0  0
    2.7370   58.9440   71.5280 C   0  0  0  0  0  0  0  0  0  0  0  0
    1.9200   61.2070   72.1380 C   0  0  0  0  0  0  0  0  0  0  0  0
    1.0910   62.0290   72.8650 N   0  0  0  0  0  4  0  0  0  0  0  0
    0.1960   61.4890   73.7660 C   0  0  0  0  0  0  0  0  0  0  0  0
    0.1090   60.0810   73.9260 C   0  0  0  0  0  0  0  0  0  0  0  0
   -0.8400   59.5860   74.8580 C   0  0  0  0  0  0  0  0  0  0  0  0
   -1.6880   60.4210   75.5860 C   0  0  0  0  0  0  0  0  0  0  0  0
   -1.6380   61.7860   75.3940 C   0  0  0  0  0  0  0  0  0  0  0  0
   -0.6670   62.3050   74.5390 C   0  0  0  0  0  0  0  0  0  0  0  0
    2.8280   61.8590   71.1780 C   0  0  0  0  0  0  0  0  0  0  0  0
    4.0590   62.3920   71.6020 C   0  0  0  0  0  0  0  0  0  0  0  0
    4.9140   63.0180   70.6950 C   0  0  0  0  0  0  0  0  0  0  0  0
    4.5500   63.1270   69.3550 C   0  0  0  0  0  0  0  0  0  0  0  0
    3.3240   62.6270   68.9220 C   0  0  0  0  0  0  0  0  0  0  0  0
    2.4630   62.0050   69.8270 C   0  0  0  0  0  0  0  0  0  0  0  0
   -2.3860   62.6660   76.1870 N   0  0  0  0  0  0  0  0  0  0  0  0
    3.4710   56.7590   70.7940 N   0  0  0  0  0  0  0  0  0  0  0  0
    1.8002   65.0302   70.6364 H   0  0  0  0  0  0  0  0  0  0  0  0
    0.5965   66.1191   71.4191 H   0  0  0  0  0  0  0  0  0  0  0  0
    0.5875   64.9411   68.7727 H   0  0  0  0  0  0  0  0  0  0  0  0
   -0.8991   64.8420   69.6213 H   0  0  0  0  0  0  0  0  0  0  0  0
   -1.1006   67.1541   69.8372 H   0  0  0  0  0  0  0  0  0  0  0  0
    0.5749   67.3806   69.2180 H   0  0  0  0  0  0  0  0  0  0  0  0
   -0.3122   67.5947   67.1544 H   0  0  0  0  0  0  0  0  0  0  0  0
   -0.7424   65.8334   67.2583 H   0  0  0  0  0  0  0  0  0  0  0  0
   -2.9372   66.3089   67.2995 H   0  0  0  0  0  0  0  0  0  0  0  0
   -2.7145   67.4421   68.6751 H   0  0  0  0  0  0  0  0  0  0  0  0
   -3.0282   67.9728   65.8914 H   0  0  0  0  0  0  0  0  0  0  0  0
   -3.1527   69.0011   67.2845 H   0  0  0  0  0  0  0  0  0  0  0  0
   -1.5164   70.1767   66.5405 H   0  0  0  0  0  0  0  0  0  0  0  0
   -0.4914   68.7322   66.8961 H   0  0  0  0  0  0  0  0  0  0  0  0
   -1.4413   67.9339   64.5403 H   0  0  0  0  0  0  0  0  0  0  0  0
   -1.6016   69.7485   64.3229 H   0  0  0  0  0  0  0  0  0  0  0  0
    0.5256   68.7296   63.3997 H   0  0  0  0  0  0  0  0  0  0  0  0
    0.7305   70.0815   64.5719 H   0  0  0  0  0  0  0  0  0  0  0  0
    0.9044   67.2912   65.7744 H   0  0  0  0  0  0  0  0  0  0  0  0
    1.1977   68.9217   67.7612 H   0  0  0  0  0  0  0  0  0  0  0  0
    2.6941   68.3330   68.6004 H   0  0  0  0  0  0  0  0  0  0  0  0
    1.6702   71.1693   68.2869 H   0  0  0  0  0  0  0  0  0  0  0  0
    2.0933   70.2170   69.7958 H   0  0  0  0  0  0  0  0  0  0  0  0
    3.7184   72.0409   68.2790 H   0  0  0  0  0  0  0  0  0  0  0  0
    4.0574   71.1360   69.8337 H   0  0  0  0  0  0  0  0  0  0  0  0
    5.7199   70.8250   67.9082 H   0  0  0  0  0  0  0  0  0  0  0  0
    5.0663   69.3517   68.7181 H   0  0  0  0  0  0  0  0  0  0  0  0
    2.0498   68.1009   62.7595 H   0  0  0  0  0  0  0  0  0  0  0  0
    3.6478   68.3718   60.8758 H   0  0  0  0  0  0  0  0  0  0  0  0
    5.9293   69.2777   61.3076 H   0  0  0  0  0  0  0  0  0  0  0  0
    6.5817   69.9251   63.6124 H   0  0  0  0  0  0  0  0  0  0  0  0
   -0.7600   64.3250   72.1244 H   0  0  0  0  0  0  0  0  0  0  0  0
   -0.0162   63.1860   70.9285 H   0  0  0  0  0  0  0  0  0  0  0  0
    2.1883   63.8038   72.3860 H   0  0  0  0  0  0  0  0  0  0  0  0
    0.9166   64.0048   73.6541 H   0  0  0  0  0  0  0  0  0  0  0  0
    1.6689   55.9009   72.5417 H   0  0  0  0  0  0  0  0  0  0  0  0
    0.1992   57.3345   73.9194 H   0  0  0  0  0  0  0  0  0  0  0  0
    3.4448   59.3986   70.8192 H   0  0  0  0  0  0  0  0  0  0  0  0
   -0.9098   58.4992   75.0127 H   0  0  0  0  0  0  0  0  0  0  0  0
   -2.3948   59.9918   76.3114 H   0  0  0  0  0  0  0  0  0  0  0  0
   -0.5661   63.3976   74.4608 H   0  0  0  0  0  0  0  0  0  0  0  0
    4.3503   62.3143   72.6599 H   0  0  0  0  0  0  0  0  0  0  0  0
    5.8762   63.4258   71.0382 H   0  0  0  0  0  0  0  0  0  0  0  0
    5.2313   63.6084   68.6380 H   0  0  0  0  0  0  0  0  0  0  0  0
    3.0342   62.7226   67.8652 H   0  0  0  0  0  0  0  0  0  0  0  0
    1.4902   61.6254   69.4811 H   0  0  0  0  0  0  0  0  0  0  0  0
   -2.3304   63.6813   76.0226 H   0  0  0  0  0  0  0  0  0  0  0  0
   -2.9915   62.2977   76.9344 H   0  0  0  0  0  0  0  0  0  0  0  0
    4.1797   57.1878   70.1818 H   0  0  0  0  0  0  0  0  0  0  0  0
    3.3186   55.7406   70.7707 H   0  0  0  0  0  0  0  0  0  0  0  0
  2  1  1  0
  3  2  1  0
  4  3  1  0
  5  4  1  0
  6  5  1  0
  7  6  1  0
  8  7  1  0
  9  8  1  0
 10  9  1  0
 11 10  1  0
 12 11  1  0
 13 12  1  0
 14 13  1  0
 15 14  1  0
 16 15  1  0
 17 12  2  0
 17 16  1  0
 18 17  1  0
 19 18  2  0
 20 11  2  0
 20 19  1  0
 21 20  1  0
 22 21  2  0
 23 22  1  0
 24 23  2  0
 24 19  1  0
 25  1  1  0
 26 25  1  0
 28 27  2  0
 29 28  1  0
 30 29  2  0
 31 30  1  0
 32 31  2  0
 32 27  1  0
 33 31  1  0
 34 33  2  0
 34 26  1  0
 35 34  1  0
 36 30  1  0
 36 35  2  0
 37 36  1  0
 38 37  2  0
 39 38  1  0
 40 39  2  0
 40 35  1  0
 41 33  1  0
 42 41  2  0
 43 42  1  0
 44 43  2  0
 45 44  1  0
 46 45  2  0
 46 41  1  0
 47 39  1  0
 48 27  1  0
  1 49  1  0
  1 50  1  0
  2 51  1  0
  2 52  1  0
  3 53  1  0
  3 54  1  0
  4 55  1  0
  4 56  1  0
  5 57  1  0
  5 58  1  0
  6 59  1  0
  6 60  1  0
  7 61  1  0
  7 62  1  0
  8 63  1  0
  8 64  1  0
  9 65  1  0
  9 66  1  0
 10 67  1  0
 13 68  1  0
 13 69  1  0
 14 70  1  0
 14 71  1  0
 15 72  1  0
 15 73  1  0
 16 74  1  0
 16 75  1  0
 21 76  1  0
 22 77  1  0
 23 78  1  0
 24 79  1  0
 25 80  1  0
 25 81  1  0
 26 82  1  0
 26 83  1  0
 28 84  1  0
 29 85  1  0
 32 86  1  0
 37 87  1  0
 38 88  1  0
 40 89  1  0
 42 90  1  0
 43 91  1  0
 44 92  1  0
 45 93  1  0
 46 94  1  0
 47 95  1  0
 47 96  1  0
 48 97  1  0
 48 98  1  0
M  CHG  3   2   1   6   1  34   1
M  END
>  <score>  (2) 
-12.13

$$$$
=
     RDKit          3D

 98104  0  0  0  0  0  0  0  0999 V2000
    1.0860   63.5920   70.8690 C   0  0  0  0  0  0  0  0  0  0  0  0
    0.2610   64.4640   69.9490 N   0  0  0  0  0  4  0  0  0  0  0  0
    0.4130   65.9490   70.2060 C   0  0  0  0  0  0  0  0  0  0  0  0
    0.1800   66.7340   68.9090 C   0  0  0  0  0  0  0  0  0  0  0  0
   -1.3110   66.8130   68.5410 C   0  0  0  0  0  0  0  0  0  0  0  0
   -1.4560   66.8250   67.0560 N   0  0  0  0  0  4  0  0  0  0  0  0
   -1.8120   68.1450   66.4160 C   0  0  0  0  0  0  0  0  0  0  0  0
   -0.6860   69.1590   66.6000 C   0  0  0  0  0  0  0  0  0  0  0  0
    0.3920   69.1200   65.5040 C   0  0  0  0  0  0  0  0  0  0  0  0
    1.4320   68.1020   65.8450 N   0  0  0  0  0  0  0  0  0  0  0  0
    2.7450   68.7160   65.7980 C   0  0  0  0  0  0  0  0  0  0  0  0
    3.2930   69.2740   66.9640 C   0  0  0  0  0  0  0  0  0  0  0  0
    2.6690   69.2600   68.3290 C   0  0  0  0  0  0  0  0  0  0  0  0
    2.7830   70.6210   69.0180 C   0  0  0  0  0  0  0  0  0  0  0  0
    4.1530   71.2960   68.8680 C   0  0  0  0  0  0  0  0  0  0  0  0
    5.1790   70.4550   68.1100 C   0  0  0  0  0  0  0  0  0  0  0  0
    4.5590   69.8560   66.8730 C   0  0  0  0  0  0  0  0  0  0  0  0
    5.2780   69.8990   65.7410 N   0  0  0  0  0  0  0  0  0  0  0  0
    4.7420   69.4240   64.6110 C   0  0  0  0  0  0  0  0  0  0  0  0
    3.4620   68.8260   64.5600 C   0  0  0  0  0  0  0  0  0  0  0  0
    2.9920   68.3890   63.2900 C   0  0  0  0  0  0  0  0  0  0  0  0
    3.7660   68.5200   62.1360 C   0  0  0  0  0  0  0  0  0  0  0  0
    5.0240   69.0920   62.2170 C   0  0  0  0  0  0  0  0  0  0  0  0
    5.4950   69.5380   63.4510 C   0  0  0  0  0  0  0  0  0  0  0  0
    0.1710   62.7120   71.7270 C   0  0  0  0  0  0  0  0  0  0  0  0
    0.8850   62.2270   73.0010 C   0  0  0  0  0  0  0  0  0  0  0  0
    1.7020   56.0290   73.3120 C   0  0  0  0  0  0  0  0  0  0  0  0
    0.4520   55.7280   73.8190 C   0  0  0  0  0  0  0  0  0  0  0  0
   -0.4510   56.7500   74.1300 C   0  0  0  0  0  0  0  0  0  0  0  0
   -0.1620   58.1190   73.9000 C   0  0  0  0  0  0  0  0  0  0  0  0
    1.0810   58.4270   73.3220 C   0  0  0  0  0  0  0  0  0  0  0  0
    1.9830   57.3650   73.0300 C   0  0  0  0  0  0  0  0  0  0  0  0
    1.3900   59.7760   73.0320 C   0  0  0  0  0  0  0  0  0  0  0  0
    0.5140   60.7960   73.3180 N   0  0  0  0  0  4  0  0  0  0  0  0
   -0.7010   60.5220   73.9110 C   0  0  0  0  0  0  0  0  0  0  0  0
   -1.0620   59.1800   74.2040 C   0  0  0  0  0  0  0  0  0  0  0  0
   -2.3300   58.9600   74.8030 C   0  0  0  0  0  0  0  0  0  0  0  0
   -3.2220   59.9970   75.0810 C   0  0  0  0  0  0  0  0  0  0  0  0
   -2.8920   61.2940   74.7500 C   0  0  0  0  0  0  0  0  0  0  0  0
   -1.6240   61.5480   74.2290 C   0  0  0  0  0  0  0  0  0  0  0  0
    2.6550   60.1490   72.3740 C   0  0  0  0  0  0  0  0  0  0  0  0
    3.7680   60.5520   73.1350 C   0  0  0  0  0  0  0  0  0  0  0  0
    4.9620   60.9150   72.5120 C   0  0  0  0  0  0  0  0  0  0  0  0
    5.0600   60.8870   71.1230 C   0  0  0  0  0  0  0  0  0  0  0  0
    3.9600   60.5140   70.3530 C   0  0  0  0  0  0  0  0  0  0  0  0
    2.7620   60.1550   70.9720 C   0  0  0  0  0  0  0  0  0  0  0  0
   -3.7050   62.3750   75.1180 N   0  0  0  0  0  0  0  0  0  0  0  0
    2.5520   55.0190   72.8750 N   0  0  0  0  0  0  0  0  0  0  0  0
    1.7459   62.9506   70.2664 H   0  0  0  0  0  0  0  0  0  0  0  0
    1.6868   64.2350   71.5290 H   0  0  0  0  0  0  0  0  0  0  0  0
    0.5475   64.2725   68.9784 H   0  0  0  0  0  0  0  0  0  0  0  0
   -0.7268   64.2311   70.1248 H   0  0  0  0  0  0  0  0  0  0  0  0
   -0.3229   66.2651   70.9600 H   0  0  0  0  0  0  0  0  0  0  0  0
    1.4313   66.1493   70.5705 H   0  0  0  0  0  0  0  0  0  0  0  0
    0.5682   67.7551   69.0377 H   0  0  0  0  0  0  0  0  0  0  0  0
    0.7023   66.2082   68.0961 H   0  0  0  0  0  0  0  0  0  0  0  0
   -1.8375   65.9399   68.9539 H   0  0  0  0  0  0  0  0  0  0  0  0
   -1.7440   67.7335   68.9595 H   0  0  0  0  0  0  0  0  0  0  0  0
   -0.5600   66.5153   66.6532 H   0  0  0  0  0  0  0  0  0  0  0  0
   -2.2556   66.2064   66.8589 H   0  0  0  0  0  0  0  0  0  0  0  0
   -1.9847   67.9893   65.3409 H   0  0  0  0  0  0  0  0  0  0  0  0
   -2.7203   68.5362   66.8976 H   0  0  0  0  0  0  0  0  0  0  0  0
   -1.1287   70.1659   66.6109 H   0  0  0  0  0  0  0  0  0  0  0  0
   -0.1828   68.9004   67.5434 H   0  0  0  0  0  0  0  0  0  0  0  0
   -0.0746   68.8562   64.5435 H   0  0  0  0  0  0  0  0  0  0  0  0
    0.8665   70.1096   65.4293 H   0  0  0  0  0  0  0  0  0  0  0  0
    1.2449   67.1162   66.0776 H   0  0  0  0  0  0  0  0  0  0  0  0
    1.6051   68.9978   68.2318 H   0  0  0  0  0  0  0  0  0  0  0  0
    3.2034   68.5196   68.9424 H   0  0  0  0  0  0  0  0  0  0  0  0
    2.0218   71.2888   68.5882 H   0  0  0  0  0  0  0  0  0  0  0  0
    2.6384   70.4409   70.0935 H   0  0  0  0  0  0  0  0  0  0  0  0
    4.0146   72.2437   68.3269 H   0  0  0  0  0  0  0  0  0  0  0  0
    4.5490   71.4429   69.8837 H   0  0  0  0  0  0  0  0  0  0  0  0
    6.0258   71.0934   67.8179 H   0  0  0  0  0  0  0  0  0  0  0  0
    5.5260   69.6416   68.7642 H   0  0  0  0  0  0  0  0  0  0  0  0
    1.9924   67.9360   63.2158 H   0  0  0  0  0  0  0  0  0  0  0  0
    3.3786   68.1707   61.1676 H   0  0  0  0  0  0  0  0  0  0  0  0
    5.6464   69.1937   61.3158 H   0  0  0  0  0  0  0  0  0  0  0  0
    6.4943   69.9943   63.5069 H   0  0  0  0  0  0  0  0  0  0  0  0
   -0.7169   63.2940   72.0148 H   0  0  0  0  0  0  0  0  0  0  0  0
   -0.1132   61.8299   71.1344 H   0  0  0  0  0  0  0  0  0  0  0  0
    1.9728   62.2919   72.8507 H   0  0  0  0  0  0  0  0  0  0  0  0
    0.5737   62.8644   73.8417 H   0  0  0  0  0  0  0  0  0  0  0  0
    0.1654   54.6781   73.9790 H   0  0  0  0  0  0  0  0  0  0  0  0
   -1.4227   56.4813   74.5699 H   0  0  0  0  0  0  0  0  0  0  0  0
    2.9468   57.6101   72.5599 H   0  0  0  0  0  0  0  0  0  0  0  0
   -2.6215   57.9305   75.0585 H   0  0  0  0  0  0  0  0  0  0  0  0
   -4.1865   59.7798   75.5633 H   0  0  0  0  0  0  0  0  0  0  0  0
   -1.3269   62.5931   74.0571 H   0  0  0  0  0  0  0  0  0  0  0  0
    3.6957   60.5810   74.2322 H   0  0  0  0  0  0  0  0  0  0  0  0
    5.8266   61.2235   73.1180 H   0  0  0  0  0  0  0  0  0  0  0  0
    6.0065   61.1596   70.6333 H   0  0  0  0  0  0  0  0  0  0  0  0
    4.0362   60.5026   69.2557 H   0  0  0  0  0  0  0  0  0  0  0  0
    1.8937   59.8742   70.3578 H   0  0  0  0  0  0  0  0  0  0  0  0
   -3.4351   63.3344   74.8579 H   0  0  0  0  0  0  0  0  0  0  0  0
   -4.5723   62.2099   75.6485 H   0  0  0  0  0  0  0  0  0  0  0  0
    3.4814   55.2549   72.4989 H   0  0  0  0  0  0  0  0  0  0  0  0
    2.2522   54.0350   72.9274 H   0  0  0  0  0  0  0  0  0  0  0  0
  2  1  1  0
  3  2  1  0
  4  3  1  0
  5  4  1  0
  6  5  1  0
  7  6  1  0
  8  7  1  0
  9  8  1  0
 10  9  1  0
 11 10  1  0
 12 11  1  0
 13 12  1  0
 14 13  1  0
 15 14  1  0
 16 15  1  0
 17 12  2  0
 17 16  1  0
 18 17  1  0
 19 18  2  0
 20 11  2  0
 20 19  1  0
 21 20  1  0
 22 21  2  0
 23 22  1  0
 24 23  2  0
 24 19  1  0
 25  1  1  0
 26 25  1  0
 28 27  2  0
 29 28  1  0
 30 29  2  0
 31 30  1  0
 32 31  2  0
 32 27  1  0
 33 31  1  0
 34 33  2  0
 34 26  1  0
 35 34  1  0
 36 30  1  0
 36 35  2  0
 37 36  1  0
 38 37  2  0
 39 38  1  0
 40 39  2  0
 40 35  1  0
 41 33  1  0
 42 41  2  0
 43 42  1  0
 44 43  2  0
 45 44  1  0
 46 45  2  0
 46 41  1  0
 47 39  1  0
 48 27  1  0
  1 49  1  0
  1 50  1  0
  2 51  1  0
  2 52  1  0
  3 53  1  0
  3 54  1  0
  4 55  1  0
  4 56  1  0
  5 57  1  0
  5 58  1  0
  6 59  1  0
  6 60  1  0
  7 61  1  0
  7 62  1  0
  8 63  1  0
  8 64  1  0
  9 65  1  0
  9 66  1  0
 10 67  1  0
 13 68  1  0
 13 69  1  0
 14 70  1  0
 14 71  1  0
 15 72  1  0
 15 73  1  0
 16 74  1  0
 16 75  1  0
 21 76  1  0
 22 77  1  0
 23 78  1  0
 24 79  1  0
 25 80  1  0
 25 81  1  0
 26 82  1  0
 26 83  1  0
 28 84  1  0
 29 85  1  0
 32 86  1  0
 37 87  1  0
 38 88  1  0
 40 89  1  0
 42 90  1  0
 43 91  1  0
 44 92  1  0
 45 93  1  0
 46 94  1  0
 47 95  1  0
 47 96  1  0
 48 97  1  0
 48 98  1  0
M  CHG  3   2   1   6   1  34   1
M  END
>  <score>  (3) 
-11.653

$$$$
=
     RDKit          3D

 98104  0  0  0  0  0  0  0  0999 V2000
    0.7010   62.9570   70.6220 C   0  0  0  0  0  0  0  0  0  0  0  0
    2.0400   63.5300   71.0300 N   0  0  0  0  0  4  0  0  0  0  0  0
    2.2960   64.9300   70.5130 C   0  0  0  0  0  0  0  0  0  0  0  0
    1.0100   65.7640   70.5950 C   0  0  0  0  0  0  0  0  0  0  0  0
    0.9620   66.8590   69.5170 C   0  0  0  0  0  0  0  0  0  0  0  0
   -0.0720   66.5090   68.5000 N   0  0  0  0  0  4  0  0  0  0  0  0
   -0.4740   67.5970   67.5330 C   0  0  0  0  0  0  0  0  0  0  0  0
    0.1620   67.3690   66.1640 C   0  0  0  0  0  0  0  0  0  0  0  0
    1.6740   67.6410   66.1100 C   0  0  0  0  0  0  0  0  0  0  0  0
    1.9390   69.1020   66.2760 N   0  0  0  0  0  0  0  0  0  0  0  0
    3.3170   69.3870   65.9260 C   0  0  0  0  0  0  0  0  0  0  0  0
    3.7690   69.1410   64.6200 C   0  0  0  0  0  0  0  0  0  0  0  0
    2.9350   68.6430   63.4760 C   0  0  0  0  0  0  0  0  0  0  0  0
    3.6530   67.5470   62.6860 C   0  0  0  0  0  0  0  0  0  0  0  0
    5.1370   67.8280   62.4160 C   0  0  0  0  0  0  0  0  0  0  0  0
    5.6150   69.1850   62.9310 C   0  0  0  0  0  0  0  0  0  0  0  0
    5.1030   69.4290   64.3280 C   0  0  0  0  0  0  0  0  0  0  0  0
    5.9670   69.9370   65.2210 N   0  0  0  0  0  0  0  0  0  0  0  0
    5.5650   70.1190   66.4830 C   0  0  0  0  0  0  0  0  0  0  0  0
    4.2470   69.8500   66.9170 C   0  0  0  0  0  0  0  0  0  0  0  0
    3.9530   70.0560   68.2950 C   0  0  0  0  0  0  0  0  0  0  0  0
    4.9170   70.5270   69.1880 C   0  0  0  0  0  0  0  0  0  0  0  0
    6.1960   70.8010   68.7320 C   0  0  0  0  0  0  0  0  0  0  0  0
    6.5040   70.5920   67.3890 C   0  0  0  0  0  0  0  0  0  0  0  0
   -0.1460   62.6550   71.8630 C   0  0  0  0  0  0  0  0  0  0  0  0
    0.7200   62.1280   73.0220 C   0  0  0  0  0  0  0  0  0  0  0  0
    1.6600   55.9520   73.4110 C   0  0  0  0  0  0  0  0  0  0  0  0
    0.4080   55.6300   73.8990 C   0  0  0  0  0  0  0  0  0  0  0  0
   -0.5220   56.6350   74.1830 C   0  0  0  0  0  0  0  0  0  0  0  0
   -0.2580   58.0080   73.9450 C   0  0  0  0  0  0  0  0  0  0  0  0
    0.9890   58.3360   73.3850 C   0  0  0  0  0  0  0  0  0  0  0  0
    1.9180   57.2910   73.1200 C   0  0  0  0  0  0  0  0  0  0  0  0
    1.2750   59.6890   73.0880 C   0  0  0  0  0  0  0  0  0  0  0  0
    0.3730   60.6930   73.3480 N   0  0  0  0  0  4  0  0  0  0  0  0
   -0.8470   60.3990   73.9220 C   0  0  0  0  0  0  0  0  0  0  0  0
   -1.1850   59.0520   74.2220 C   0  0  0  0  0  0  0  0  0  0  0  0
   -2.4590   58.8120   74.8000 C   0  0  0  0  0  0  0  0  0  0  0  0
   -3.3770   59.8320   75.0520 C   0  0  0  0  0  0  0  0  0  0  0  0
   -3.0680   61.1320   74.7140 C   0  0  0  0  0  0  0  0  0  0  0  0
   -1.7970   61.4080   74.2130 C   0  0  0  0  0  0  0  0  0  0  0  0
    2.5430   60.0820   72.4490 C   0  0  0  0  0  0  0  0  0  0  0  0
    2.7100   59.9710   71.0560 C   0  0  0  0  0  0  0  0  0  0  0  0
    3.9140   60.3340   70.4520 C   0  0  0  0  0  0  0  0  0  0  0  0
    4.9690   60.8040   71.2290 C   0  0  0  0  0  0  0  0  0  0  0  0
    4.8310   60.8970   72.6130 C   0  0  0  0  0  0  0  0  0  0  0  0
    3.6300   60.5300   73.2210 C   0  0  0  0  0  0  0  0  0  0  0  0
   -3.9100   62.1990   75.0560 N   0  0  0  0  0  0  0  0  0  0  0  0
    2.5390   54.9560   72.9990 N   0  0  0  0  0  0  0  0  0  0  0  0
    0.1719   63.6849   69.9894 H   0  0  0  0  0  0  0  0  0  0  0  0
    0.8652   62.0235   70.0638 H   0  0  0  0  0  0  0  0  0  0  0  0
    2.0825   63.5522   72.0589 H   0  0  0  0  0  0  0  0  0  0  0  0
    2.7618   62.9233   70.6154 H   0  0  0  0  0  0  0  0  0  0  0  0
    3.0782   65.4060   71.1226 H   0  0  0  0  0  0  0  0  0  0  0  0
    2.6229   64.8731   69.4642 H   0  0  0  0  0  0  0  0  0  0  0  0
    0.1455   65.0970   70.4620 H   0  0  0  0  0  0  0  0  0  0  0  0
    0.9868   66.2555   71.5788 H   0  0  0  0  0  0  0  0  0  0  0  0
    0.7067   67.8220   69.9833 H   0  0  0  0  0  0  0  0  0  0  0  0
    1.9449   66.9375   69.0293 H   0  0  0  0  0  0  0  0  0  0  0  0
    0.2902   65.7192   67.9469 H   0  0  0  0  0  0  0  0  0  0  0  0
   -0.9233   66.3031   69.0420 H   0  0  0  0  0  0  0  0  0  0  0  0
   -1.5688   67.5979   67.4262 H   0  0  0  0  0  0  0  0  0  0  0  0
   -0.1264   68.5637   67.9262 H   0  0  0  0  0  0  0  0  0  0  0  0
   -0.0091   66.3213   65.8759 H   0  0  0  0  0  0  0  0  0  0  0  0
   -0.3096   68.0867   65.4766 H   0  0  0  0  0  0  0  0  0  0  0  0
    2.1725   67.0866   66.9188 H   0  0  0  0  0  0  0  0  0  0  0  0
    2.0643   67.3127   65.1354 H   0  0  0  0  0  0  0  0  0  0  0  0
    1.2492   69.7992   66.5906 H   0  0  0  0  0  0  0  0  0  0  0  0
    1.9925   68.2373   63.8723 H   0  0  0  0  0  0  0  0  0  0  0  0
    2.7465   69.4873   62.7966 H   0  0  0  0  0  0  0  0  0  0  0  0
    3.5786   66.6083   63.2547 H   0  0  0  0  0  0  0  0  0  0  0  0
    3.1601   67.4941   61.7040 H   0  0  0  0  0  0  0  0  0  0  0  0
    5.7325   67.0429   62.9049 H   0  0  0  0  0  0  0  0  0  0  0  0
    5.2660   67.8381   61.3236 H   0  0  0  0  0  0  0  0  0  0  0  0
    6.7148   69.2018   62.9403 H   0  0  0  0  0  0  0  0  0  0  0  0
    5.2296   69.9734   62.2678 H   0  0  0  0  0  0  0  0  0  0  0  0
    2.9403   69.8384   68.6653 H   0  0  0  0  0  0  0  0  0  0  0  0
    4.6626   70.6796   70.2472 H   0  0  0  0  0  0  0  0  0  0  0  0
    6.9621   71.1804   69.4242 H   0  0  0  0  0  0  0  0  0  0  0  0
    7.5231   70.8087   67.0360 H   0  0  0  0  0  0  0  0  0  0  0  0
   -0.6506   63.5780   72.1847 H   0  0  0  0  0  0  0  0  0  0  0  0
   -0.8799   61.8791   71.5998 H   0  0  0  0  0  0  0  0  0  0  0  0
    1.7801   62.1853   72.7340 H   0  0  0  0  0  0  0  0  0  0  0  0
    0.5287   62.7458   73.9118 H   0  0  0  0  0  0  0  0  0  0  0  0
    0.1410   54.5759   74.0652 H   0  0  0  0  0  0  0  0  0  0  0  0
   -1.4959   56.3496   74.6074 H   0  0  0  0  0  0  0  0  0  0  0  0
    2.8846   57.5518   72.6644 H   0  0  0  0  0  0  0  0  0  0  0  0
   -2.7339   57.7791   75.0600 H   0  0  0  0  0  0  0  0  0  0  0  0
   -4.3452   59.5992   75.5194 H   0  0  0  0  0  0  0  0  0  0  0  0
   -1.5192   62.4574   74.0356 H   0  0  0  0  0  0  0  0  0  0  0  0
    1.8825   59.5941   70.4370 H   0  0  0  0  0  0  0  0  0  0  0  0
    4.0297   60.2488   69.3614 H   0  0  0  0  0  0  0  0  0  0  0  0
    5.9132   61.1025   70.7501 H   0  0  0  0  0  0  0  0  0  0  0  0
    5.6692   61.2598   73.2260 H   0  0  0  0  0  0  0  0  0  0  0  0
    3.5323   60.5916   74.3149 H   0  0  0  0  0  0  0  0  0  0  0  0
   -3.6554   63.1613   74.7912 H   0  0  0  0  0  0  0  0  0  0  0  0
   -4.7834   62.0209   75.5721 H   0  0  0  0  0  0  0  0  0  0  0  0
    3.4697   55.2080   72.6369 H   0  0  0  0  0  0  0  0  0  0  0  0
    2.2592   53.9664   73.0560 H   0  0  0  0  0  0  0  0  0  0  0  0
  2  1  1  0
  3  2  1  0
  4  3  1  0
  5  4  1  0
  6  5  1  0
  7  6  1  0
  8  7  1  0
  9  8  1  0
 10  9  1  0
 11 10  1  0
 12 11  1  0
 13 12  1  0
 14 13  1  0
 15 14  1  0
 16 15  1  0
 17 12  2  0
 17 16  1  0
 18 17  1  0
 19 18  2  0
 20 11  2  0
 20 19  1  0
 21 20  1  0
 22 21  2  0
 23 22  1  0
 24 23  2  0
 24 19  1  0
 25  1  1  0
 26 25  1  0
 28 27  2  0
 29 28  1  0
 30 29  2  0
 31 30  1  0
 32 31  2  0
 32 27  1  0
 33 31  1  0
 34 33  2  0
 34 26  1  0
 35 34  1  0
 36 30  1  0
 36 35  2  0
 37 36  1  0
 38 37  2  0
 39 38  1  0
 40 39  2  0
 40 35  1  0
 41 33  1  0
 42 41  2  0
 43 42  1  0
 44 43  2  0
 45 44  1  0
 46 45  2  0
 46 41  1  0
 47 39  1  0
 48 27  1  0
  1 49  1  0
  1 50  1  0
  2 51  1  0
  2 52  1  0
  3 53  1  0
  3 54  1  0
  4 55  1  0
  4 56  1  0
  5 57  1  0
  5 58  1  0
  6 59  1  0
  6 60  1  0
  7 61  1  0
  7 62  1  0
  8 63  1  0
  8 64  1  0
  9 65  1  0
  9 66  1  0
 10 67  1  0
 13 68  1  0
 13 69  1  0
 14 70  1  0
 14 71  1  0
 15 72  1  0
 15 73  1  0
 16 74  1  0
 16 75  1  0
 21 76  1  0
 22 77  1  0
 23 78  1  0
 24 79  1  0
 25 80  1  0
 25 81  1  0
 26 82  1  0
 26 83  1  0
 28 84  1  0
 29 85  1  0
 32 86  1  0
 37 87  1  0
 38 88  1  0
 40 89  1  0
 42 90  1  0
 43 91  1  0
 44 92  1  0
 45 93  1  0
 46 94  1  0
 47 95  1  0
 47 96  1  0
 48 97  1  0
 48 98  1  0
M  CHG  3   2   1   6   1  34   1
M  END
>  <score>  (4) 
-11.628

$$$$
=
     RDKit          3D

 98104  0  0  0  0  0  0  0  0999 V2000
    0.0360   65.5910   71.3130 C   0  0  0  0  0  0  0  0  0  0  0  0
    0.8410   65.6310   70.0330 N   0  0  0  0  0  4  0  0  0  0  0  0
    0.3930   66.6960   69.0550 C   0  0  0  0  0  0  0  0  0  0  0  0
   -1.1130   66.5680   68.7920 C   0  0  0  0  0  0  0  0  0  0  0  0
   -1.4690   66.8460   67.3220 C   0  0  0  0  0  0  0  0  0  0  0  0
   -2.4410   67.9750   67.2510 N   0  0  0  0  0  4  0  0  0  0  0  0
   -2.0900   69.1210   66.3330 C   0  0  0  0  0  0  0  0  0  0  0  0
   -0.8830   68.7720   65.4650 C   0  0  0  0  0  0  0  0  0  0  0  0
    0.4590   69.2970   66.0010 C   0  0  0  0  0  0  0  0  0  0  0  0
    1.4800   68.2060   65.9850 N   0  0  0  0  0  0  0  0  0  0  0  0
    2.8040   68.7850   65.8620 C   0  0  0  0  0  0  0  0  0  0  0  0
    3.4330   69.3300   66.9920 C   0  0  0  0  0  0  0  0  0  0  0  0
    2.8870   69.3370   68.3900 C   0  0  0  0  0  0  0  0  0  0  0  0
    3.0760   70.6960   69.0660 C   0  0  0  0  0  0  0  0  0  0  0  0
    4.4540   71.3330   68.8370 C   0  0  0  0  0  0  0  0  0  0  0  0
    5.4120   70.4620   68.0250 C   0  0  0  0  0  0  0  0  0  0  0  0
    4.7070   69.8770   66.8280 C   0  0  0  0  0  0  0  0  0  0  0  0
    5.3620   69.8970   65.6570 N   0  0  0  0  0  0  0  0  0  0  0  0
    4.7500   69.4340   64.5610 C   0  0  0  0  0  0  0  0  0  0  0  0
    3.4540   68.8720   64.5840 C   0  0  0  0  0  0  0  0  0  0  0  0
    2.9000   68.4440   63.3440 C   0  0  0  0  0  0  0  0  0  0  0  0
    3.6120   68.5500   62.1480 C   0  0  0  0  0  0  0  0  0  0  0  0
    4.8880   69.0880   62.1560 C   0  0  0  0  0  0  0  0  0  0  0  0
    5.4390   69.5240   63.3600 C   0  0  0  0  0  0  0  0  0  0  0  0
    0.4400   64.3770   72.1560 C   0  0  0  0  0  0  0  0  0  0  0  0
   -0.1910   63.0800   71.6160 C   0  0  0  0  0  0  0  0  0  0  0  0
    1.7290   57.9400   74.6260 C   0  0  0  0  0  0  0  0  0  0  0  0
    2.8650   57.7240   73.8670 C   0  0  0  0  0  0  0  0  0  0  0  0
    3.1550   58.5510   72.7780 C   0  0  0  0  0  0  0  0  0  0  0  0
    2.3490   59.6640   72.4280 C   0  0  0  0  0  0  0  0  0  0  0  0
    1.2300   59.9290   73.2370 C   0  0  0  0  0  0  0  0  0  0  0  0
    0.9540   59.0600   74.3300 C   0  0  0  0  0  0  0  0  0  0  0  0
    0.4260   61.0560   72.9510 C   0  0  0  0  0  0  0  0  0  0  0  0
    0.6980   61.8900   71.8930 N   0  0  0  0  0  4  0  0  0  0  0  0
    1.7740   61.6350   71.0680 C   0  0  0  0  0  0  0  0  0  0  0  0
    2.6210   60.5240   71.3260 C   0  0  0  0  0  0  0  0  0  0  0  0
    3.7200   60.3220   70.4500 C   0  0  0  0  0  0  0  0  0  0  0  0
    4.0000   61.1770   69.3830 C   0  0  0  0  0  0  0  0  0  0  0  0
    3.2080   62.2840   69.1640 C   0  0  0  0  0  0  0  0  0  0  0  0
    2.0800   62.4670   69.9630 C   0  0  0  0  0  0  0  0  0  0  0  0
   -0.7250   61.4120   73.8000 C   0  0  0  0  0  0  0  0  0  0  0  0
   -0.5620   62.2590   74.9120 C   0  0  0  0  0  0  0  0  0  0  0  0
   -1.6490   62.5880   75.7210 C   0  0  0  0  0  0  0  0  0  0  0  0
   -2.9110   62.0710   75.4380 C   0  0  0  0  0  0  0  0  0  0  0  0
   -3.0860   61.2100   74.3560 C   0  0  0  0  0  0  0  0  0  0  0  0
   -2.0000   60.8740   73.5460 C   0  0  0  0  0  0  0  0  0  0  0  0
    3.3830   63.0990   68.0380 N   0  0  0  0  0  0  0  0  0  0  0  0
    1.5040   57.2100   75.7880 N   0  0  0  0  0  0  0  0  0  0  0  0
    0.2219   66.5103   71.8878 H   0  0  0  0  0  0  0  0  0  0  0  0
   -1.0322   65.5137   71.0623 H   0  0  0  0  0  0  0  0  0  0  0  0
    1.8262   65.8084   70.2757 H   0  0  0  0  0  0  0  0  0  0  0  0
    0.7038   64.7228   69.5670 H   0  0  0  0  0  0  0  0  0  0  0  0
    0.6059   67.6897   69.4760 H   0  0  0  0  0  0  0  0  0  0  0  0
    0.9368   66.5674   68.1075 H   0  0  0  0  0  0  0  0  0  0  0  0
   -1.4321   65.5467   69.0472 H   0  0  0  0  0  0  0  0  0  0  0  0
   -1.6300   67.3145   69.4128 H   0  0  0  0  0  0  0  0  0  0  0  0
   -0.5568   67.1120   66.7678 H   0  0  0  0  0  0  0  0  0  0  0  0
   -1.9189   65.9462   66.8771 H   0  0  0  0  0  0  0  0  0  0  0  0
   -3.3432   67.5897   66.9370 H   0  0  0  0  0  0  0  0  0  0  0  0
   -2.4501   68.3817   68.1973 H   0  0  0  0  0  0  0  0  0  0  0  0
   -2.9504   69.3387   65.6831 H   0  0  0  0  0  0  0  0  0  0  0  0
   -1.8405   69.9995   66.9461 H   0  0  0  0  0  0  0  0  0  0  0  0
   -0.8185   67.6764   65.3902 H   0  0  0  0  0  0  0  0  0  0  0  0
   -1.0446   69.2599   64.4925 H   0  0  0  0  0  0  0  0  0  0  0  0
    0.8040   70.1276   65.3676 H   0  0  0  0  0  0  0  0  0  0  0  0
    0.3219   69.6469   67.0348 H   0  0  0  0  0  0  0  0  0  0  0  0
    1.2752   67.1987   66.0511 H   0  0  0  0  0  0  0  0  0  0  0  0
    1.8127   69.1034   68.3540 H   0  0  0  0  0  0  0  0  0  0  0  0
    3.4355   68.5843   68.9754 H   0  0  0  0  0  0  0  0  0  0  0  0
    2.3105   71.3832   68.6765 H   0  0  0  0  0  0  0  0  0  0  0  0
    2.9866   70.5228   70.1486 H   0  0  0  0  0  0  0  0  0  0  0  0
    4.3116   72.2832   68.3015 H   0  0  0  0  0  0  0  0  0  0  0  0
    4.9105   71.4710   69.8282 H   0  0  0  0  0  0  0  0  0  0  0  0
    6.2578   71.0762   67.6826 H   0  0  0  0  0  0  0  0  0  0  0  0
    5.7731   69.6410   68.6618 H   0  0  0  0  0  0  0  0  0  0  0  0
    1.8855   68.0192   63.3282 H   0  0  0  0  0  0  0  0  0  0  0  0
    3.1619   68.2080   61.2043 H   0  0  0  0  0  0  0  0  0  0  0  0
    5.4615   69.1705   61.2210 H   0  0  0  0  0  0  0  0  0  0  0  0
    6.4519   69.9529   63.3579 H   0  0  0  0  0  0  0  0  0  0  0  0
    1.5352   64.2768   72.1365 H   0  0  0  0  0  0  0  0  0  0  0  0
    0.0796   64.5346   73.1832 H   0  0  0  0  0  0  0  0  0  0  0  0
   -1.1644   62.9232   72.1037 H   0  0  0  0  0  0  0  0  0  0  0  0
   -0.3170   63.1779   70.5276 H   0  0  0  0  0  0  0  0  0  0  0  0
    3.5439   56.8969   74.1218 H   0  0  0  0  0  0  0  0  0  0  0  0
    4.0435   58.3297   72.1685 H   0  0  0  0  0  0  0  0  0  0  0  0
    0.0884   59.2828   74.9712 H   0  0  0  0  0  0  0  0  0  0  0  0
    4.3775   59.4565   70.6192 H   0  0  0  0  0  0  0  0  0  0  0  0
    4.8510   60.9680   68.7181 H   0  0  0  0  0  0  0  0  0  0  0  0
    1.3965   63.2952   69.7244 H   0  0  0  0  0  0  0  0  0  0  0  0
    0.4331   62.6657   75.1454 H   0  0  0  0  0  0  0  0  0  0  0  0
   -1.5097   63.2564   76.5834 H   0  0  0  0  0  0  0  0  0  0  0  0
   -3.7702   62.3424   76.0689 H   0  0  0  0  0  0  0  0  0  0  0  0
   -4.0814   60.7947   74.1401 H   0  0  0  0  0  0  0  0  0  0  0  0
   -2.1422   60.1829   72.7021 H   0  0  0  0  0  0  0  0  0  0  0  0
    2.7777   63.9205   67.8978 H   0  0  0  0  0  0  0  0  0  0  0  0
    4.1169   62.8767   67.3504 H   0  0  0  0  0  0  0  0  0  0  0  0
    0.6548   57.3787   76.3459 H   0  0  0  0  0  0  0  0  0  0  0  0
    2.1866   56.5006   76.0908 H   0  0  0  0  0  0  0  0  0  0  0  0
  2  1  1  0
  3  2  1  0
  4  3  1  0
  5  4  1  0
  6  5  1  0
  7  6  1  0
  8  7  1  0
  9  8  1  0
 10  9  1  0
 11 10  1  0
 12 11  1  0
 13 12  1  0
 14 13  1  0
 15 14  1  0
 16 15  1  0
 17 12  2  0
 17 16  1  0
 18 17  1  0
 19 18  2  0
 20 11  2  0
 20 19  1  0
 21 20  1  0
 22 21  2  0
 23 22  1  0
 24 23  2  0
 24 19  1  0
 25  1  1  0
 26 25  1  0
 28 27  2  0
 29 28  1  0
 30 29  2  0
 31 30  1  0
 32 31  2  0
 32 27  1  0
 33 31  1  0
 34 33  2  0
 34 26  1  0
 35 34  1  0
 36 30  1  0
 36 35  2  0
 37 36  1  0
 38 37  2  0
 39 38  1  0
 40 39  2  0
 40 35  1  0
 41 33  1  0
 42 41  2  0
 43 42  1  0
 44 43  2  0
 45 44  1  0
 46 45  2  0
 46 41  1  0
 47 39  1  0
 48 27  1  0
  1 49  1  0
  1 50  1  0
  2 51  1  0
  2 52  1  0
  3 53  1  0
  3 54  1  0
  4 55  1  0
  4 56  1  0
  5 57  1  0
  5 58  1  0
  6 59  1  0
  6 60  1  0
  7 61  1  0
  7 62  1  0
  8 63  1  0
  8 64  1  0
  9 65  1  0
  9 66  1  0
 10 67  1  0
 13 68  1  0
 13 69  1  0
 14 70  1  0
 14 71  1  0
 15 72  1  0
 15 73  1  0
 16 74  1  0
 16 75  1  0
 21 76  1  0
 22 77  1  0
 23 78  1  0
 24 79  1  0
 25 80  1  0
 25 81  1  0
 26 82  1  0
 26 83  1  0
 28 84  1  0
 29 85  1  0
 32 86  1  0
 37 87  1  0
 38 88  1  0
 40 89  1  0
 42 90  1  0
 43 91  1  0
 44 92  1  0
 45 93  1  0
 46 94  1  0
 47 95  1  0
 47 96  1  0
 48 97  1  0
 48 98  1  0
M  CHG  3   2   1   6   1  34   1
M  END
>  <score>  (5) 
-11.39

$$$$
=
     RDKit          3D

 98104  0  0  0  0  0  0  0  0999 V2000
    0.1620   65.5880   71.2850 C   0  0  0  0  0  0  0  0  0  0  0  0
    0.8590   65.6690   69.9450 N   0  0  0  0  0  4  0  0  0  0  0  0
    0.3660   66.7920   69.0590 C   0  0  0  0  0  0  0  0  0  0  0  0
   -1.1290   66.6110   68.7630 C   0  0  0  0  0  0  0  0  0  0  0  0
   -1.4600   66.8660   67.2830 C   0  0  0  0  0  0  0  0  0  0  0  0
   -2.3930   68.0250   67.1740 N   0  0  0  0  0  4  0  0  0  0  0  0
   -2.0220   69.1090   66.1920 C   0  0  0  0  0  0  0  0  0  0  0  0
   -0.8160   68.6930   65.3530 C   0  0  0  0  0  0  0  0  0  0  0  0
    0.5100   69.3480   65.7740 C   0  0  0  0  0  0  0  0  0  0  0  0
    1.5520   68.3000   65.9950 N   0  0  0  0  0  0  0  0  0  0  0  0
    2.8670   68.8710   65.7780 C   0  0  0  0  0  0  0  0  0  0  0  0
    3.4830   68.7410   64.5240 C   0  0  0  0  0  0  0  0  0  0  0  0
    2.8860   68.0920   63.3090 C   0  0  0  0  0  0  0  0  0  0  0  0
    3.8910   67.1800   62.6020 C   0  0  0  0  0  0  0  0  0  0  0  0
    5.3020   67.7690   62.4740 C   0  0  0  0  0  0  0  0  0  0  0  0
    5.4330   69.1890   63.0200 C   0  0  0  0  0  0  0  0  0  0  0  0
    4.7490   69.3050   64.3590 C   0  0  0  0  0  0  0  0  0  0  0  0
    5.3980   69.9710   65.3270 N   0  0  0  0  0  0  0  0  0  0  0  0
    4.8470   70.0510   66.5430 C   0  0  0  0  0  0  0  0  0  0  0  0
    3.5790   69.5070   66.8500 C   0  0  0  0  0  0  0  0  0  0  0  0
    3.1180   69.6310   68.1910 C   0  0  0  0  0  0  0  0  0  0  0  0
    3.8710   70.2830   69.1680 C   0  0  0  0  0  0  0  0  0  0  0  0
    5.1020   70.8240   68.8360 C   0  0  0  0  0  0  0  0  0  0  0  0
    5.5750   70.7000   67.5310 C   0  0  0  0  0  0  0  0  0  0  0  0
    0.6430   64.3580   72.0600 C   0  0  0  0  0  0  0  0  0  0  0  0
   -0.1120   63.0880   71.6290 C   0  0  0  0  0  0  0  0  0  0  0  0
    1.5620   57.7800   74.4930 C   0  0  0  0  0  0  0  0  0  0  0  0
    2.6930   57.5390   73.7360 C   0  0  0  0  0  0  0  0  0  0  0  0
    3.0270   58.3850   72.6740 C   0  0  0  0  0  0  0  0  0  0  0  0
    2.2720   59.5420   72.3530 C   0  0  0  0  0  0  0  0  0  0  0  0
    1.1590   59.8300   73.1620 C   0  0  0  0  0  0  0  0  0  0  0  0
    0.8370   58.9410   74.2270 C   0  0  0  0  0  0  0  0  0  0  0  0
    0.4070   60.9990   72.9060 C   0  0  0  0  0  0  0  0  0  0  0  0
    0.7230   61.8520   71.8750 N   0  0  0  0  0  4  0  0  0  0  0  0
    1.7940   61.5760   71.0500 C   0  0  0  0  0  0  0  0  0  0  0  0
    2.5900   60.4220   71.2800 C   0  0  0  0  0  0  0  0  0  0  0  0
    3.6860   60.1990   70.4060 C   0  0  0  0  0  0  0  0  0  0  0  0
    4.0120   61.0730   69.3670 C   0  0  0  0  0  0  0  0  0  0  0  0
    3.2690   62.2190   69.1760 C   0  0  0  0  0  0  0  0  0  0  0  0
    2.1440   62.4270   69.9730 C   0  0  0  0  0  0  0  0  0  0  0  0
   -0.7340   61.3780   73.7580 C   0  0  0  0  0  0  0  0  0  0  0  0
   -0.5550   62.2380   74.8570 C   0  0  0  0  0  0  0  0  0  0  0  0
   -1.6330   62.5900   75.6690 C   0  0  0  0  0  0  0  0  0  0  0  0
   -2.9020   62.0820   75.4010 C   0  0  0  0  0  0  0  0  0  0  0  0
   -3.0940   61.2100   74.3310 C   0  0  0  0  0  0  0  0  0  0  0  0
   -2.0170   60.8520   73.5190 C   0  0  0  0  0  0  0  0  0  0  0  0
    3.4880   63.0600   68.0770 N   0  0  0  0  0  0  0  0  0  0  0  0
    1.2960   57.0260   75.6310 N   0  0  0  0  0  0  0  0  0  0  0  0
    0.3869   66.4942   71.8665 H   0  0  0  0  0  0  0  0  0  0  0  0
   -0.9225   65.5059   71.1202 H   0  0  0  0  0  0  0  0  0  0  0  0
    1.8659   65.8071   70.1120 H   0  0  0  0  0  0  0  0  0  0  0  0
    0.6547   64.7890   69.4503 H   0  0  0  0  0  0  0  0  0  0  0  0
    0.5222   67.7538   69.5695 H   0  0  0  0  0  0  0  0  0  0  0  0
    0.9255   66.7763   68.1121 H   0  0  0  0  0  0  0  0  0  0  0  0
   -1.4193   65.5814   69.0192 H   0  0  0  0  0  0  0  0  0  0  0  0
   -1.6852   67.3439   69.3659 H   0  0  0  0  0  0  0  0  0  0  0  0
   -0.5335   67.0883   66.7332 H   0  0  0  0  0  0  0  0  0  0  0  0
   -1.9354   65.9714   66.8545 H   0  0  0  0  0  0  0  0  0  0  0  0
   -3.3150   67.6576   66.8985 H   0  0  0  0  0  0  0  0  0  0  0  0
   -2.3669   68.4790   68.0982 H   0  0  0  0  0  0  0  0  0  0  0  0
   -2.8762   69.2993   65.5256 H   0  0  0  0  0  0  0  0  0  0  0  0
   -1.7632   70.0189   66.7533 H   0  0  0  0  0  0  0  0  0  0  0  0
   -0.7012   67.6020   65.4337 H   0  0  0  0  0  0  0  0  0  0  0  0
   -1.0187   69.0292   64.3255 H   0  0  0  0  0  0  0  0  0  0  0  0
    0.8453   70.0332   64.9815 H   0  0  0  0  0  0  0  0  0  0  0  0
    0.3555   69.9055   66.7096 H   0  0  0  0  0  0  0  0  0  0  0  0
    1.3649   67.3226   66.2606 H   0  0  0  0  0  0  0  0  0  0  0  0
    2.0160   67.4931   63.6161 H   0  0  0  0  0  0  0  0  0  0  0  0
    2.5907   68.8856   62.6069 H   0  0  0  0  0  0  0  0  0  0  0  0
    3.9609   66.2402   63.1694 H   0  0  0  0  0  0  0  0  0  0  0  0
    3.5172   67.0362   61.5775 H   0  0  0  0  0  0  0  0  0  0  0  0
    5.9990   67.1206   63.0251 H   0  0  0  0  0  0  0  0  0  0  0  0
    5.5304   67.8185   61.3991 H   0  0  0  0  0  0  0  0  0  0  0  0
    6.4988   69.4356   63.1353 H   0  0  0  0  0  0  0  0  0  0  0  0
    4.9565   69.8865   62.3154 H   0  0  0  0  0  0  0  0  0  0  0  0
    2.1428   69.2016   68.4641 H   0  0  0  0  0  0  0  0  0  0  0  0
    3.4891   70.3669   70.1962 H   0  0  0  0  0  0  0  0  0  0  0  0
    5.7012   71.3471   69.5959 H   0  0  0  0  0  0  0  0  0  0  0  0
    6.5551   71.1295   67.2760 H   0  0  0  0  0  0  0  0  0  0  0  0
    1.7176   64.2156   71.8730 H   0  0  0  0  0  0  0  0  0  0  0  0
    0.4503   64.5274   73.1297 H   0  0  0  0  0  0  0  0  0  0  0  0
   -1.0460   63.0117   72.2051 H   0  0  0  0  0  0  0  0  0  0  0  0
   -0.3279   63.1568   70.5526 H   0  0  0  0  0  0  0  0  0  0  0  0
    3.3342   56.6765   73.9704 H   0  0  0  0  0  0  0  0  0  0  0  0
    3.9098   58.1438   72.0636 H   0  0  0  0  0  0  0  0  0  0  0  0
   -0.0231   59.1813   74.8692 H   0  0  0  0  0  0  0  0  0  0  0  0
    4.3038   59.3009   70.5532 H   0  0  0  0  0  0  0  0  0  0  0  0
    4.8593   60.8480   68.7025 H   0  0  0  0  0  0  0  0  0  0  0  0
    1.4990   63.2911   69.7556 H   0  0  0  0  0  0  0  0  0  0  0  0
    0.4459   62.6371   75.0782 H   0  0  0  0  0  0  0  0  0  0  0  0
   -1.4810   63.2688   76.5211 H   0  0  0  0  0  0  0  0  0  0  0  0
   -3.7538   62.3695   76.0348 H   0  0  0  0  0  0  0  0  0  0  0  0
   -4.0954   60.8035   74.1263 H   0  0  0  0  0  0  0  0  0  0  0  0
   -2.1725   60.1523   72.6846 H   0  0  0  0  0  0  0  0  0  0  0  0
    2.9190   63.9102   67.9577 H   0  0  0  0  0  0  0  0  0  0  0  0
    4.2180   62.8281   67.3884 H   0  0  0  0  0  0  0  0  0  0  0  0
    0.4500   57.2145   76.1875 H   0  0  0  0  0  0  0  0  0  0  0  0
    1.9450   56.2791   75.9173 H   0  0  0  0  0  0  0  0  0  0  0  0
  2  1  1  0
  3  2  1  0
  4  3  1  0
  5  4  1  0
  6  5  1  0
  7  6  1  0
  8  7  1  0
  9  8  1  0
 10  9  1  0
 11 10  1  0
 12 11  1  0
 13 12  1  0
 14 13  1  0
 15 14  1  0
 16 15  1  0
 17 12  2  0
 17 16  1  0
 18 17  1  0
 19 18  2  0
 20 11  2  0
 20 19  1  0
 21 20  1  0
 22 21  2  0
 23 22  1  0
 24 23  2  0
 24 19  1  0
 25  1  1  0
 26 25  1  0
 28 27  2  0
 29 28  1  0
 30 29  2  0
 31 30  1  0
 32 31  2  0
 32 27  1  0
 33 31  1  0
 34 33  2  0
 34 26  1  0
 35 34  1  0
 36 30  1  0
 36 35  2  0
 37 36  1  0
 38 37  2  0
 39 38  1  0
 40 39  2  0
 40 35  1  0
 41 33  1  0
 42 41  2  0
 43 42  1  0
 44 43  2  0
 45 44  1  0
 46 45  2  0
 46 41  1  0
 47 39  1  0
 48 27  1  0
  1 49  1  0
  1 50  1  0
  2 51  1  0
  2 52  1  0
  3 53  1  0
  3 54  1  0
  4 55  1  0
  4 56  1  0
  5 57  1  0
  5 58  1  0
  6 59  1  0
  6 60  1  0
  7 61  1  0
  7 62  1  0
  8 63  1  0
  8 64  1  0
  9 65  1  0
  9 66  1  0
 10 67  1  0
 13 68  1  0
 13 69  1  0
 14 70  1  0
 14 71  1  0
 15 72  1  0
 15 73  1  0
 16 74  1  0
 16 75  1  0
 21 76  1  0
 22 77  1  0
 23 78  1  0
 24 79  1  0
 25 80  1  0
 25 81  1  0
 26 82  1  0
 26 83  1  0
 28 84  1  0
 29 85  1  0
 32 86  1  0
 37 87  1  0
 38 88  1  0
 40 89  1  0
 42 90  1  0
 43 91  1  0
 44 92  1  0
 45 93  1  0
 46 94  1  0
 47 95  1  0
 47 96  1  0
 48 97  1  0
 48 98  1  0
M  CHG  3   2   1   6   1  34   1
M  END
>  <score>  (6) 
-11.375

$$$$
=
     RDKit          3D

 98104  0  0  0  0  0  0  0  0999 V2000
    4.0620   62.6180   67.6590 C   0  0  0  0  0  0  0  0  0  0  0  0
    3.5120   63.7360   66.8010 N   0  0  0  0  0  4  0  0  0  0  0  0
    3.7990   63.5780   65.3230 C   0  0  0  0  0  0  0  0  0  0  0  0
    3.7730   64.9480   64.6330 C   0  0  0  0  0  0  0  0  0  0  0  0
    4.6290   64.9690   63.3560 C   0  0  0  0  0  0  0  0  0  0  0  0
    4.1920   66.0960   62.4820 N   0  0  0  0  0  4  0  0  0  0  0  0
    5.1430   67.2600   62.3430 C   0  0  0  0  0  0  0  0  0  0  0  0
    4.3850   68.5850   62.3440 C   0  0  0  0  0  0  0  0  0  0  0  0
    4.5080   69.3880   63.6490 C   0  0  0  0  0  0  0  0  0  0  0  0
    4.5890   68.4600   64.8170 N   0  0  0  0  0  0  0  0  0  0  0  0
    3.5970   68.8370   65.8050 C   0  0  0  0  0  0  0  0  0  0  0  0
    2.2440   68.5350   65.5840 C   0  0  0  0  0  0  0  0  0  0  0  0
    1.6870   67.7840   64.4100 C   0  0  0  0  0  0  0  0  0  0  0  0
    0.4280   68.4520   63.8550 C   0  0  0  0  0  0  0  0  0  0  0  0
   -0.5600   68.9320   64.9270 C   0  0  0  0  0  0  0  0  0  0  0  0
   -0.1360   68.5980   66.3560 C   0  0  0  0  0  0  0  0  0  0  0  0
    1.3230   68.9170   66.5610 C   0  0  0  0  0  0  0  0  0  0  0  0
    1.6630   69.5420   67.6980 N   0  0  0  0  0  0  0  0  0  0  0  0
    2.9410   69.8880   67.8940 C   0  0  0  0  0  0  0  0  0  0  0  0
    3.9700   69.5800   66.9760 C   0  0  0  0  0  0  0  0  0  0  0  0
    5.2840   70.0310   67.2850 C   0  0  0  0  0  0  0  0  0  0  0  0
    5.5610   70.7340   68.4590 C   0  0  0  0  0  0  0  0  0  0  0  0
    4.5370   71.0080   69.3500 C   0  0  0  0  0  0  0  0  0  0  0  0
    3.2420   70.5840   69.0560 C   0  0  0  0  0  0  0  0  0  0  0  0
    3.6160   62.7980   69.1140 C   0  0  0  0  0  0  0  0  0  0  0  0
    2.2130   62.2100   69.3500 C   0  0  0  0  0  0  0  0  0  0  0  0
    0.1830   63.9320   75.0150 C   0  0  0  0  0  0  0  0  0  0  0  0
    0.5770   62.7870   75.6820 C   0  0  0  0  0  0  0  0  0  0  0  0
    1.1540   61.7230   74.9810 C   0  0  0  0  0  0  0  0  0  0  0  0
    1.4110   61.7770   73.5870 C   0  0  0  0  0  0  0  0  0  0  0  0
    1.0750   62.9660   72.9160 C   0  0  0  0  0  0  0  0  0  0  0  0
    0.4760   64.0250   73.6550 C   0  0  0  0  0  0  0  0  0  0  0  0
    1.3570   63.0800   71.5350 C   0  0  0  0  0  0  0  0  0  0  0  0
    1.9340   62.0520   70.8280 N   0  0  0  0  0  4  0  0  0  0  0  0
    2.2480   60.8660   71.4580 C   0  0  0  0  0  0  0  0  0  0  0  0
    1.9990   60.7120   72.8480 C   0  0  0  0  0  0  0  0  0  0  0  0
    2.3550   59.4730   73.4430 C   0  0  0  0  0  0  0  0  0  0  0  0
    2.9520   58.4360   72.7250 C   0  0  0  0  0  0  0  0  0  0  0  0
    3.2400   58.6050   71.3870 C   0  0  0  0  0  0  0  0  0  0  0  0
    2.8350   59.7820   70.7600 C   0  0  0  0  0  0  0  0  0  0  0  0
    1.0780   64.3230   70.7950 C   0  0  0  0  0  0  0  0  0  0  0  0
    2.0640   65.3190   70.6680 C   0  0  0  0  0  0  0  0  0  0  0  0
    1.7960   66.5000   69.9750 C   0  0  0  0  0  0  0  0  0  0  0  0
    0.5410   66.7070   69.4090 C   0  0  0  0  0  0  0  0  0  0  0  0
   -0.4550   65.7430   69.5470 C   0  0  0  0  0  0  0  0  0  0  0  0
   -0.1940   64.5610   70.2430 C   0  0  0  0  0  0  0  0  0  0  0  0
    3.7280   57.5500   70.6030 N   0  0  0  0  0  0  0  0  0  0  0  0
   -0.2650   65.0440   75.7200 N   0  0  0  0  0  0  0  0  0  0  0  0
    3.6900   61.6540   67.2817 H   0  0  0  0  0  0  0  0  0  0  0  0
    5.1609   62.6400   67.6155 H   0  0  0  0  0  0  0  0  0  0  0  0
    2.4908   63.7709   66.9305 H   0  0  0  0  0  0  0  0  0  0  0  0
    3.9807   64.6016   67.1041 H   0  0  0  0  0  0  0  0  0  0  0  0
    4.7918   63.1229   65.1915 H   0  0  0  0  0  0  0  0  0  0  0  0
    3.0298   62.9330   64.8732 H   0  0  0  0  0  0  0  0  0  0  0  0
    2.7337   65.1916   64.3674 H   0  0  0  0  0  0  0  0  0  0  0  0
    4.1901   65.6874   65.3325 H   0  0  0  0  0  0  0  0  0  0  0  0
    5.6868   65.1035   63.6260 H   0  0  0  0  0  0  0  0  0  0  0  0
    4.5058   64.0182   62.8167 H   0  0  0  0  0  0  0  0  0  0  0  0
    4.0281   65.7137   61.5397 H   0  0  0  0  0  0  0  0  0  0  0  0
    3.3567   66.4849   62.9424 H   0  0  0  0  0  0  0  0  0  0  0  0
    5.8510   67.2493   63.1848 H   0  0  0  0  0  0  0  0  0  0  0  0
    5.6805   67.1630   61.3882 H   0  0  0  0  0  0  0  0  0  0  0  0
    4.7735   69.2038   61.5217 H   0  0  0  0  0  0  0  0  0  0  0  0
    3.3197   68.3364   62.2285 H   0  0  0  0  0  0  0  0  0  0  0  0
    5.4172   70.0060   63.6116 H   0  0  0  0  0  0  0  0  0  0  0  0
    3.6227   70.0312   63.7608 H   0  0  0  0  0  0  0  0  0  0  0  0
    5.2480   67.6735   64.9066 H   0  0  0  0  0  0  0  0  0  0  0  0
    2.4489   67.7459   63.6175 H   0  0  0  0  0  0  0  0  0  0  0  0
    1.4173   66.7724   64.7475 H   0  0  0  0  0  0  0  0  0  0  0  0
    0.7356   69.3220   63.2563 H   0  0  0  0  0  0  0  0  0  0  0  0
   -0.0976   67.6883   63.2630 H   0  0  0  0  0  0  0  0  0  0  0  0
   -0.6593   70.0242   64.8419 H   0  0  0  0  0  0  0  0  0  0  0  0
   -1.5084   68.4053   64.7448 H   0  0  0  0  0  0  0  0  0  0  0  0
   -0.7386   69.1902   67.0604 H   0  0  0  0  0  0  0  0  0  0  0  0
   -0.2939   67.5238   66.5325 H   0  0  0  0  0  0  0  0  0  0  0  0
    6.1023   69.8203   66.5808 H   0  0  0  0  0  0  0  0  0  0  0  0
    6.5865   71.0682   68.6749 H   0  0  0  0  0  0  0  0  0  0  0  0
    4.7436   71.5554   70.2815 H   0  0  0  0  0  0  0  0  0  0  0  0
    2.4335   70.8082   69.7674 H   0  0  0  0  0  0  0  0  0  0  0  0
    4.3332   62.2876   69.7736 H   0  0  0  0  0  0  0  0  0  0  0  0
    3.5806   63.8752   69.3337 H   0  0  0  0  0  0  0  0  0  0  0  0
    1.4620   62.8840   68.9121 H   0  0  0  0  0  0  0  0  0  0  0  0
    2.1638   61.2187   68.8758 H   0  0  0  0  0  0  0  0  0  0  0  0
    0.4359   62.7123   76.7704 H   0  0  0  0  0  0  0  0  0  0  0  0
    1.4188   60.8087   75.5322 H   0  0  0  0  0  0  0  0  0  0  0  0
    0.2331   64.9599   73.1288 H   0  0  0  0  0  0  0  0  0  0  0  0
    2.1519   59.3244   74.5138 H   0  0  0  0  0  0  0  0  0  0  0  0
    3.1923   57.4861   73.2250 H   0  0  0  0  0  0  0  0  0  0  0  0
    2.9777   59.8734   69.6731 H   0  0  0  0  0  0  0  0  0  0  0  0
    3.0553   65.1650   71.1193 H   0  0  0  0  0  0  0  0  0  0  0  0
    2.5770   67.2682   69.8758 H   0  0  0  0  0  0  0  0  0  0  0  0
    0.3356   67.6331   68.8520 H   0  0  0  0  0  0  0  0  0  0  0  0
   -1.4487   65.9132   69.1070 H   0  0  0  0  0  0  0  0  0  0  0  0
   -0.9891   63.8100   70.3606 H   0  0  0  0  0  0  0  0  0  0  0  0
    3.9353   57.7026   69.6057 H   0  0  0  0  0  0  0  0  0  0  0  0
    3.8792   56.6224   71.0244 H   0  0  0  0  0  0  0  0  0  0  0  0
   -0.5562   65.8921   75.2132 H   0  0  0  0  0  0  0  0  0  0  0  0
   -0.3056   65.0194   76.7489 H   0  0  0  0  0  0  0  0  0  0  0  0
  2  1  1  0
  3  2  1  0
  4  3  1  0
  5  4  1  0
  6  5  1  0
  7  6  1  0
  8  7  1  0
  9  8  1  0
 10  9  1  0
 11 10  1  0
 12 11  1  0
 13 12  1  0
 14 13  1  0
 15 14  1  0
 16 15  1  0
 17 12  2  0
 17 16  1  0
 18 17  1  0
 19 18  2  0
 20 11  2  0
 20 19  1  0
 21 20  1  0
 22 21  2  0
 23 22  1  0
 24 23  2  0
 24 19  1  0
 25  1  1  0
 26 25  1  0
 28 27  2  0
 29 28  1  0
 30 29  2  0
 31 30  1  0
 32 31  2  0
 32 27  1  0
 33 31  1  0
 34 33  2  0
 34 26  1  0
 35 34  1  0
 36 30  1  0
 36 35  2  0
 37 36  1  0
 38 37  2  0
 39 38  1  0
 40 39  2  0
 40 35  1  0
 41 33  1  0
 42 41  2  0
 43 42  1  0
 44 43  2  0
 45 44  1  0
 46 45  2  0
 46 41  1  0
 47 39  1  0
 48 27  1  0
  1 49  1  0
  1 50  1  0
  2 51  1  0
  2 52  1  0
  3 53  1  0
  3 54  1  0
  4 55  1  0
  4 56  1  0
  5 57  1  0
  5 58  1  0
  6 59  1  0
  6 60  1  0
  7 61  1  0
  7 62  1  0
  8 63  1  0
  8 64  1  0
  9 65  1  0
  9 66  1  0
 10 67  1  0
 13 68  1  0
 13 69  1  0
 14 70  1  0
 14 71  1  0
 15 72  1  0
 15 73  1  0
 16 74  1  0
 16 75  1  0
 21 76  1  0
 22 77  1  0
 23 78  1  0
 24 79  1  0
 25 80  1  0
 25 81  1  0
 26 82  1  0
 26 83  1  0
 28 84  1  0
 29 85  1  0
 32 86  1  0
 37 87  1  0
 38 88  1  0
 40 89  1  0
 42 90  1  0
 43 91  1  0
 44 92  1  0
 45 93  1  0
 46 94  1  0
 47 95  1  0
 47 96  1  0
 48 97  1  0
 48 98  1  0
M  CHG  3   2   1   6   1  34   1
M  END
>  <score>  (7) 
-11.36

$$$$
=
     RDKit          3D

 98104  0  0  0  0  0  0  0  0999 V2000
    0.1770   64.0390   70.3800 C   0  0  0  0  0  0  0  0  0  0  0  0
    1.3980   64.9160   70.2100 N   0  0  0  0  0  4  0  0  0  0  0  0
    1.0840   66.3390   69.8000 C   0  0  0  0  0  0  0  0  0  0  0  0
   -0.4040   66.4680   69.4470 C   0  0  0  0  0  0  0  0  0  0  0  0
   -0.6150   66.9110   67.9890 C   0  0  0  0  0  0  0  0  0  0  0  0
   -0.5010   68.3960   67.9000 N   0  0  0  0  0  4  0  0  0  0  0  0
   -1.3880   69.0890   66.8940 C   0  0  0  0  0  0  0  0  0  0  0  0
   -1.0290   68.6680   65.4710 C   0  0  0  0  0  0  0  0  0  0  0  0
    0.3610   69.1280   65.0030 C   0  0  0  0  0  0  0  0  0  0  0  0
    1.3860   68.0960   65.3470 N   0  0  0  0  0  0  0  0  0  0  0  0
    2.7040   68.7010   65.3400 C   0  0  0  0  0  0  0  0  0  0  0  0
    3.4790   68.6660   64.1700 C   0  0  0  0  0  0  0  0  0  0  0  0
    3.0590   68.0930   62.8480 C   0  0  0  0  0  0  0  0  0  0  0  0
    4.1670   67.2470   62.2180 C   0  0  0  0  0  0  0  0  0  0  0  0
    5.5690   67.8640   62.3140 C   0  0  0  0  0  0  0  0  0  0  0  0
    5.5950   69.2460   62.9650 C   0  0  0  0  0  0  0  0  0  0  0  0
    4.7420   69.2590   64.2080 C   0  0  0  0  0  0  0  0  0  0  0  0
    5.2450   69.8680   65.2940 N   0  0  0  0  0  0  0  0  0  0  0  0
    4.5410   69.8560   66.4310 C   0  0  0  0  0  0  0  0  0  0  0  0
    3.2580   69.2730   66.5350 C   0  0  0  0  0  0  0  0  0  0  0  0
    2.6250   69.2980   67.8090 C   0  0  0  0  0  0  0  0  0  0  0  0
    3.2310   69.8930   68.9170 C   0  0  0  0  0  0  0  0  0  0  0  0
    4.4810   70.4740   68.7840 C   0  0  0  0  0  0  0  0  0  0  0  0
    5.1200   70.4470   67.5450 C   0  0  0  0  0  0  0  0  0  0  0  0
    0.4020   63.0300   71.5110 C   0  0  0  0  0  0  0  0  0  0  0  0
    1.6360   63.3950   72.3550 C   0  0  0  0  0  0  0  0  0  0  0  0
    3.7830   58.5710   75.7160 C   0  0  0  0  0  0  0  0  0  0  0  0
    2.9810   58.7770   76.8230 C   0  0  0  0  0  0  0  0  0  0  0  0
    2.1170   59.8750   76.8760 C   0  0  0  0  0  0  0  0  0  0  0  0
    1.9800   60.7920   75.8020 C   0  0  0  0  0  0  0  0  0  0  0  0
    2.7440   60.5490   74.6480 C   0  0  0  0  0  0  0  0  0  0  0  0
    3.6240   59.4300   74.6300 C   0  0  0  0  0  0  0  0  0  0  0  0
    2.6030   61.4120   73.5360 C   0  0  0  0  0  0  0  0  0  0  0  0
    1.7530   62.4910   73.5610 N   0  0  0  0  0  4  0  0  0  0  0  0
    1.0130   62.7660   74.6930 C   0  0  0  0  0  0  0  0  0  0  0  0
    1.1080   61.9170   75.8280 C   0  0  0  0  0  0  0  0  0  0  0  0
    0.3130   62.2440   76.9580 C   0  0  0  0  0  0  0  0  0  0  0  0
   -0.5580   63.3340   76.9760 C   0  0  0  0  0  0  0  0  0  0  0  0
   -0.6880   64.1280   75.8560 C   0  0  0  0  0  0  0  0  0  0  0  0
    0.1330   63.8740   74.7590 C   0  0  0  0  0  0  0  0  0  0  0  0
    3.3370   61.1710   72.2810 C   0  0  0  0  0  0  0  0  0  0  0  0
    4.6180   61.7200   72.0820 C   0  0  0  0  0  0  0  0  0  0  0  0
    5.3080   61.5000   70.8900 C   0  0  0  0  0  0  0  0  0  0  0  0
    4.7280   60.7380   69.8790 C   0  0  0  0  0  0  0  0  0  0  0  0
    3.4510   60.2080   70.0490 C   0  0  0  0  0  0  0  0  0  0  0  0
    2.7540   60.4290   71.2380 C   0  0  0  0  0  0  0  0  0  0  0  0
   -1.4610   65.2970   75.8710 N   0  0  0  0  0  0  0  0  0  0  0  0
    4.5430   57.4120   75.5960 N   0  0  0  0  0  0  0  0  0  0  0  0
   -0.6915   64.6689   70.6227 H   0  0  0  0  0  0  0  0  0  0  0  0
   -0.0049   63.4923   69.4429 H   0  0  0  0  0  0  0  0  0  0  0  0
    1.9051   64.9419   71.1062 H   0  0  0  0  0  0  0  0  0  0  0  0
    1.9564   64.5038   69.4490 H   0  0  0  0  0  0  0  0  0  0  0  0
    1.3211   67.0184   70.6319 H   0  0  0  0  0  0  0  0  0  0  0  0
    1.6879   66.6023   68.9191 H   0  0  0  0  0  0  0  0  0  0  0  0
   -0.8899   65.4924   69.5954 H   0  0  0  0  0  0  0  0  0  0  0  0
   -0.8429   67.2353   70.1017 H   0  0  0  0  0  0  0  0  0  0  0  0
    0.1496   66.4454   67.3498 H   0  0  0  0  0  0  0  0  0  0  0  0
   -1.6142   66.5986   67.6514 H   0  0  0  0  0  0  0  0  0  0  0  0
   -0.7233   68.7816   68.8289 H   0  0  0  0  0  0  0  0  0  0  0  0
    0.4610   68.5730   67.5773 H   0  0  0  0  0  0  0  0  0  0  0  0
   -2.4364   68.8233   67.0947 H   0  0  0  0  0  0  0  0  0  0  0  0
   -1.2429   70.1754   66.9866 H   0  0  0  0  0  0  0  0  0  0  0  0
   -1.0635   67.5698   65.4183 H   0  0  0  0  0  0  0  0  0  0  0  0
   -1.7596   69.1530   64.8069 H   0  0  0  0  0  0  0  0  0  0  0  0
    0.3469   69.2778   63.9133 H   0  0  0  0  0  0  0  0  0  0  0  0
    0.6167   70.0716   65.5071 H   0  0  0  0  0  0  0  0  0  0  0  0
    1.1869   67.1074   65.5567 H   0  0  0  0  0  0  0  0  0  0  0  0
    2.1712   67.4614   62.9995 H   0  0  0  0  0  0  0  0  0  0  0  0
    2.8381   68.9287   62.1677 H   0  0  0  0  0  0  0  0  0  0  0  0
    4.1852   66.2712   62.7254 H   0  0  0  0  0  0  0  0  0  0  0  0
    3.9313   67.1692   61.1464 H   0  0  0  0  0  0  0  0  0  0  0  0
    6.2040   67.1898   62.9075 H   0  0  0  0  0  0  0  0  0  0  0  0
    5.9332   67.9900   61.2837 H   0  0  0  0  0  0  0  0  0  0  0  0
    6.6309   69.5003   63.2339 H   0  0  0  0  0  0  0  0  0  0  0  0
    5.1970   69.9832   62.2521 H   0  0  0  0  0  0  0  0  0  0  0  0
    1.6330   68.8368   67.9238 H   0  0  0  0  0  0  0  0  0  0  0  0
    2.7184   69.9003   69.8903 H   0  0  0  0  0  0  0  0  0  0  0  0
    4.9654   70.9525   69.6480 H   0  0  0  0  0  0  0  0  0  0  0  0
    6.1138   70.9084   67.4476 H   0  0  0  0  0  0  0  0  0  0  0  0
   -0.4851   63.0183   72.1613 H   0  0  0  0  0  0  0  0  0  0  0  0
    0.5714   62.0402   71.0620 H   0  0  0  0  0  0  0  0  0  0  0  0
    2.5394   63.2886   71.7365 H   0  0  0  0  0  0  0  0  0  0  0  0
    1.5282   64.4327   72.7035 H   0  0  0  0  0  0  0  0  0  0  0  0
    3.0228   58.0729   77.6671 H   0  0  0  0  0  0  0  0  0  0  0  0
    1.5200   60.0342   77.7861 H   0  0  0  0  0  0  0  0  0  0  0  0
    4.2053   59.2343   73.7168 H   0  0  0  0  0  0  0  0  0  0  0  0
    0.3867   61.6125   77.8556 H   0  0  0  0  0  0  0  0  0  0  0  0
   -1.1398   63.5595   77.8819 H   0  0  0  0  0  0  0  0  0  0  0  0
    0.0960   64.5660   73.9047 H   0  0  0  0  0  0  0  0  0  0  0  0
    5.0791   62.3282   72.8741 H   0  0  0  0  0  0  0  0  0  0  0  0
    6.3111   61.9287   70.7484 H   0  0  0  0  0  0  0  0  0  0  0  0
    5.2790   60.5543   68.9448 H   0  0  0  0  0  0  0  0  0  0  0  0
    2.9912   59.6145   69.2451 H   0  0  0  0  0  0  0  0  0  0  0  0
    1.7404   60.0195   71.3603 H   0  0  0  0  0  0  0  0  0  0  0  0
   -1.5414   65.8722   75.0204 H   0  0  0  0  0  0  0  0  0  0  0  0
   -1.9487   65.5809   76.7327 H   0  0  0  0  0  0  0  0  0  0  0  0
    5.1370   57.2692   74.7667 H   0  0  0  0  0  0  0  0  0  0  0  0
    4.5117   56.6967   76.3364 H   0  0  0  0  0  0  0  0  0  0  0  0
  2  1  1  0
  3  2  1  0
  4  3  1  0
  5  4  1  0
  6  5  1  0
  7  6  1  0
  8  7  1  0
  9  8  1  0
 10  9  1  0
 11 10  1  0
 12 11  1  0
 13 12  1  0
 14 13  1  0
 15 14  1  0
 16 15  1  0
 17 12  2  0
 17 16  1  0
 18 17  1  0
 19 18  2  0
 20 11  2  0
 20 19  1  0
 21 20  1  0
 22 21  2  0
 23 22  1  0
 24 23  2  0
 24 19  1  0
 25  1  1  0
 26 25  1  0
 28 27  2  0
 29 28  1  0
 30 29  2  0
 31 30  1  0
 32 31  2  0
 32 27  1  0
 33 31  1  0
 34 33  2  0
 34 26  1  0
 35 34  1  0
 36 30  1  0
 36 35  2  0
 37 36  1  0
 38 37  2  0
 39 38  1  0
 40 39  2  0
 40 35  1  0
 41 33  1  0
 42 41  2  0
 43 42  1  0
 44 43  2  0
 45 44  1  0
 46 45  2  0
 46 41  1  0
 47 39  1  0
 48 27  1  0
  1 49  1  0
  1 50  1  0
  2 51  1  0
  2 52  1  0
  3 53  1  0
  3 54  1  0
  4 55  1  0
  4 56  1  0
  5 57  1  0
  5 58  1  0
  6 59  1  0
  6 60  1  0
  7 61  1  0
  7 62  1  0
  8 63  1  0
  8 64  1  0
  9 65  1  0
  9 66  1  0
 10 67  1  0
 13 68  1  0
 13 69  1  0
 14 70  1  0
 14 71  1  0
 15 72  1  0
 15 73  1  0
 16 74  1  0
 16 75  1  0
 21 76  1  0
 22 77  1  0
 23 78  1  0
 24 79  1  0
 25 80  1  0
 25 81  1  0
 26 82  1  0
 26 83  1  0
 28 84  1  0
 29 85  1  0
 32 86  1  0
 37 87  1  0
 38 88  1  0
 40 89  1  0
 42 90  1  0
 43 91  1  0
 44 92  1  0
 45 93  1  0
 46 94  1  0
 47 95  1  0
 47 96  1  0
 48 97  1  0
 48 98  1  0
M  CHG  3   2   1   6   1  34   1
M  END
>  <score>  (8) 
-11.087

$$$$
=
     RDKit          3D

 98104  0  0  0  0  0  0  0  0999 V2000
   -0.1260   62.8050   71.8830 C   0  0  0  0  0  0  0  0  0  0  0  0
    1.3790   62.6680   71.8170 N   0  0  0  0  0  4  0  0  0  0  0  0
    1.9500   62.8070   70.4210 C   0  0  0  0  0  0  0  0  0  0  0  0
    2.6020   64.1870   70.2550 C   0  0  0  0  0  0  0  0  0  0  0  0
    1.6180   65.3300   70.5540 C   0  0  0  0  0  0  0  0  0  0  0  0
    0.5590   65.3620   69.5030 N   0  0  0  0  0  4  0  0  0  0  0  0
    0.0530   66.7220   69.0870 C   0  0  0  0  0  0  0  0  0  0  0  0
    1.2130   67.6470   68.7270 C   0  0  0  0  0  0  0  0  0  0  0  0
    1.5630   67.6790   67.2310 C   0  0  0  0  0  0  0  0  0  0  0  0
    1.6840   69.0920   66.7620 N   0  0  0  0  0  0  0  0  0  0  0  0
    3.0550   69.3580   66.3730 C   0  0  0  0  0  0  0  0  0  0  0  0
    3.4760   69.0690   65.0650 C   0  0  0  0  0  0  0  0  0  0  0  0
    2.6140   68.5410   63.9560 C   0  0  0  0  0  0  0  0  0  0  0  0
    3.3070   67.4170   63.1840 C   0  0  0  0  0  0  0  0  0  0  0  0
    4.7870   67.6800   62.8720 C   0  0  0  0  0  0  0  0  0  0  0  0
    5.2840   69.0500   63.3340 C   0  0  0  0  0  0  0  0  0  0  0  0
    4.8050   69.3390   64.7340 C   0  0  0  0  0  0  0  0  0  0  0  0
    5.6910   69.8690   65.5910 N   0  0  0  0  0  0  0  0  0  0  0  0
    5.3190   70.0930   66.8560 C   0  0  0  0  0  0  0  0  0  0  0  0
    4.0100   69.8450   67.3280 C   0  0  0  0  0  0  0  0  0  0  0  0
    3.7490   70.0950   68.7040 C   0  0  0  0  0  0  0  0  0  0  0  0
    4.7350   70.5870   69.5600 C   0  0  0  0  0  0  0  0  0  0  0  0
    6.0050   70.8390   69.0680 C   0  0  0  0  0  0  0  0  0  0  0  0
    6.2810   70.5870   67.7250 C   0  0  0  0  0  0  0  0  0  0  0  0
   -0.7380   61.5930   72.5930 C   0  0  0  0  0  0  0  0  0  0  0  0
    0.1780   61.0770   73.7180 C   0  0  0  0  0  0  0  0  0  0  0  0
    1.6520   54.9940   73.7670 C   0  0  0  0  0  0  0  0  0  0  0  0
    0.4320   54.5370   74.2300 C   0  0  0  0  0  0  0  0  0  0  0  0
   -0.5810   55.4400   74.5660 C   0  0  0  0  0  0  0  0  0  0  0  0
   -0.4380   56.8430   74.4050 C   0  0  0  0  0  0  0  0  0  0  0  0
    0.7760   57.3090   73.8710 C   0  0  0  0  0  0  0  0  0  0  0  0
    1.7930   56.3640   73.5530 C   0  0  0  0  0  0  0  0  0  0  0  0
    0.9430   58.6950   73.6510 C   0  0  0  0  0  0  0  0  0  0  0  0
   -0.0430   59.6010   73.9620 N   0  0  0  0  0  4  0  0  0  0  0  0
   -1.2320   59.1710   74.5130 C   0  0  0  0  0  0  0  0  0  0  0  0
   -1.4520   57.7850   74.7360 C   0  0  0  0  0  0  0  0  0  0  0  0
   -2.7000   57.4030   75.2930 C   0  0  0  0  0  0  0  0  0  0  0  0
   -3.7040   58.3240   75.5970 C   0  0  0  0  0  0  0  0  0  0  0  0
   -3.5090   59.6630   75.3330 C   0  0  0  0  0  0  0  0  0  0  0  0
   -2.2670   60.0760   74.8540 C   0  0  0  0  0  0  0  0  0  0  0  0
    2.1720   59.2320   73.0410 C   0  0  0  0  0  0  0  0  0  0  0  0
    3.1440   59.8750   73.8300 C   0  0  0  0  0  0  0  0  0  0  0  0
    4.3030   60.3920   73.2520 C   0  0  0  0  0  0  0  0  0  0  0  0
    4.5050   60.2820   71.8780 C   0  0  0  0  0  0  0  0  0  0  0  0
    3.5420   59.6700   71.0770 C   0  0  0  0  0  0  0  0  0  0  0  0
    2.3790   59.1560   71.6510 C   0  0  0  0  0  0  0  0  0  0  0  0
   -4.4410   60.6320   75.7310 N   0  0  0  0  0  0  0  0  0  0  0  0
    2.6140   54.1030   73.3050 N   0  0  0  0  0  0  0  0  0  0  0  0
   -0.3835   63.7192   72.4379 H   0  0  0  0  0  0  0  0  0  0  0  0
   -0.5261   62.8609   70.8599 H   0  0  0  0  0  0  0  0  0  0  0  0
    1.7970   63.3976   72.4119 H   0  0  0  0  0  0  0  0  0  0  0  0
    1.6058   61.7160   72.1381 H   0  0  0  0  0  0  0  0  0  0  0  0
    2.7060   62.0249   70.2572 H   0  0  0  0  0  0  0  0  0  0  0  0
    1.1379   62.7008   69.6867 H   0  0  0  0  0  0  0  0  0  0  0  0
    3.4542   64.2624   70.9464 H   0  0  0  0  0  0  0  0  0  0  0  0
    2.9277   64.2847   69.2089 H   0  0  0  0  0  0  0  0  0  0  0  0
    1.1536   65.1662   71.5376 H   0  0  0  0  0  0  0  0  0  0  0  0
    2.1589   66.2878   70.5590 H   0  0  0  0  0  0  0  0  0  0  0  0
    0.9388   64.9009   68.6639 H   0  0  0  0  0  0  0  0  0  0  0  0
   -0.2534   64.8899   69.9249 H   0  0  0  0  0  0  0  0  0  0  0  0
   -0.6035   66.6099   68.2116 H   0  0  0  0  0  0  0  0  0  0  0  0
   -0.5013   67.1637   69.9282 H   0  0  0  0  0  0  0  0  0  0  0  0
    0.9480   68.6678   69.0396 H   0  0  0  0  0  0  0  0  0  0  0  0
    2.0991   67.2539   69.2469 H   0  0  0  0  0  0  0  0  0  0  0  0
    2.5189   67.1591   67.0698 H   0  0  0  0  0  0  0  0  0  0  0  0
    0.7644   67.1786   66.6637 H   0  0  0  0  0  0  0  0  0  0  0  0
    0.9121   69.7727   66.7212 H   0  0  0  0  0  0  0  0  0  0  0  0
    1.6785   68.1536   64.3858 H   0  0  0  0  0  0  0  0  0  0  0  0
    2.4155   69.3653   63.2552 H   0  0  0  0  0  0  0  0  0  0  0  0
    3.2400   66.4965   63.7826 H   0  0  0  0  0  0  0  0  0  0  0  0
    2.7916   67.3375   62.2155 H   0  0  0  0  0  0  0  0  0  0  0  0
    5.3889   66.9067   63.3717 H   0  0  0  0  0  0  0  0  0  0  0  0
    4.8916   67.6551   61.7773 H   0  0  0  0  0  0  0  0  0  0  0  0
    6.3838   69.0607   63.3179 H   0  0  0  0  0  0  0  0  0  0  0  0
    4.8881   69.8202   62.6557 H   0  0  0  0  0  0  0  0  0  0  0  0
    2.7438   69.8952   69.1035 H   0  0  0  0  0  0  0  0  0  0  0  0
    4.5050   70.7736   70.6194 H   0  0  0  0  0  0  0  0  0  0  0  0
    6.7887   71.2344   69.7310 H   0  0  0  0  0  0  0  0  0  0  0  0
    7.2929   70.7860   67.3424 H   0  0  0  0  0  0  0  0  0  0  0  0
   -1.7067   61.8836   73.0256 H   0  0  0  0  0  0  0  0  0  0  0  0
   -0.8651   60.7878   71.8544 H   0  0  0  0  0  0  0  0  0  0  0  0
    1.2273   61.2412   73.4315 H   0  0  0  0  0  0  0  0  0  0  0  0
   -0.0590   61.6246   74.6421 H   0  0  0  0  0  0  0  0  0  0  0  0
    0.2573   53.4560   74.3347 H   0  0  0  0  0  0  0  0  0  0  0  0
   -1.5257   55.0480   74.9709 H   0  0  0  0  0  0  0  0  0  0  0  0
    2.7338   56.7326   73.1182 H   0  0  0  0  0  0  0  0  0  0  0  0
   -2.8839   56.3372   75.4935 H   0  0  0  0  0  0  0  0  0  0  0  0
   -4.6483   57.9823   76.0460 H   0  0  0  0  0  0  0  0  0  0  0  0
   -2.0821   61.1538   74.7354 H   0  0  0  0  0  0  0  0  0  0  0  0
    2.9877   59.9708   74.9146 H   0  0  0  0  0  0  0  0  0  0  0  0
    5.0578   60.8867   73.8810 H   0  0  0  0  0  0  0  0  0  0  0  0
    5.4254   60.6785   71.4246 H   0  0  0  0  0  0  0  0  0  0  0  0
    3.6994   59.5923   69.9911 H   0  0  0  0  0  0  0  0  0  0  0  0
    1.6168   58.6870   71.0113 H   0  0  0  0  0  0  0  0  0  0  0  0
   -4.2716   61.6261   75.5215 H   0  0  0  0  0  0  0  0  0  0  0  0
   -5.2950   60.3497   76.2329 H   0  0  0  0  0  0  0  0  0  0  0  0
    3.5194   54.4547   72.9624 H   0  0  0  0  0  0  0  0  0  0  0  0
    2.4213   53.0912   73.3054 H   0  0  0  0  0  0  0  0  0  0  0  0
  2  1  1  0
  3  2  1  0
  4  3  1  0
  5  4  1  0
  6  5  1  0
  7  6  1  0
  8  7  1  0
  9  8  1  0
 10  9  1  0
 11 10  1  0
 12 11  1  0
 13 12  1  0
 14 13  1  0
 15 14  1  0
 16 15  1  0
 17 12  2  0
 17 16  1  0
 18 17  1  0
 19 18  2  0
 20 11  2  0
 20 19  1  0
 21 20  1  0
 22 21  2  0
 23 22  1  0
 24 23  2  0
 24 19  1  0
 25  1  1  0
 26 25  1  0
 28 27  2  0
 29 28  1  0
 30 29  2  0
 31 30  1  0
 32 31  2  0
 32 27  1  0
 33 31  1  0
 34 33  2  0
 34 26  1  0
 35 34  1  0
 36 30  1  0
 36 35  2  0
 37 36  1  0
 38 37  2  0
 39 38  1  0
 40 39  2  0
 40 35  1  0
 41 33  1  0
 42 41  2  0
 43 42  1  0
 44 43  2  0
 45 44  1  0
 46 45  2  0
 46 41  1  0
 47 39  1  0
 48 27  1  0
  1 49  1  0
  1 50  1  0
  2 51  1  0
  2 52  1  0
  3 53  1  0
  3 54  1  0
  4 55  1  0
  4 56  1  0
  5 57  1  0
  5 58  1  0
  6 59  1  0
  6 60  1  0
  7 61  1  0
  7 62  1  0
  8 63  1  0
  8 64  1  0
  9 65  1  0
  9 66  1  0
 10 67  1  0
 13 68  1  0
 13 69  1  0
 14 70  1  0
 14 71  1  0
 15 72  1  0
 15 73  1  0
 16 74  1  0
 16 75  1  0
 21 76  1  0
 22 77  1  0
 23 78  1  0
 24 79  1  0
 25 80  1  0
 25 81  1  0
 26 82  1  0
 26 83  1  0
 28 84  1  0
 29 85  1  0
 32 86  1  0
 37 87  1  0
 38 88  1  0
 40 89  1  0
 42 90  1  0
 43 91  1  0
 44 92  1  0
 45 93  1  0
 46 94  1  0
 47 95  1  0
 47 96  1  0
 48 97  1  0
 48 98  1  0
M  CHG  3   2   1   6   1  34   1
M  END
>  <score>  (9) 
-10.962

$$$$
