=
     RDKit          3D

 16 16  0  0  0  0  0  0  0  0999 V2000
    5.0880   70.3710   67.4030 C   0  0  0  0  0  0  0  0  0  0  0  0
    3.7810   69.9560   67.6920 C   0  0  0  0  0  0  0  0  0  0  0  0
    3.0350   69.2580   66.7420 C   0  0  0  0  0  0  0  0  0  0  0  0
    3.5850   68.9770   65.4920 C   0  0  0  0  0  0  0  0  0  0  0  0
    4.8790   69.3970   65.1900 C   0  0  0  0  0  0  0  0  0  0  0  0
    5.6270   70.0950   66.1390 C   0  0  0  0  0  0  0  0  0  0  0  0
    5.8820   71.1530   68.4150 C   0  0  0  0  0  0  0  0  0  0  0  0
    5.8040   72.5470   68.1440 O   0  0  0  0  0  0  0  0  0  0  0  0
    3.3405   70.1821   68.6743 H   0  0  0  0  0  0  0  0  0  0  0  0
    2.0124   68.9292   66.9792 H   0  0  0  0  0  0  0  0  0  0  0  0
    2.9976   68.4239   64.7443 H   0  0  0  0  0  0  0  0  0  0  0  0
    5.3113   69.1781   64.2025 H   0  0  0  0  0  0  0  0  0  0  0  0
    6.6454   70.4305   65.8936 H   0  0  0  0  0  0  0  0  0  0  0  0
    5.4796   70.9570   69.4198 H   0  0  0  0  0  0  0  0  0  0  0  0
    6.9348   70.8393   68.3587 H   0  0  0  0  0  0  0  0  0  0  0  0
    5.7760   73.0480   68.9974 H   0  0  0  0  0  0  0  0  0  0  0  0
  2  1  2  0
  3  2  1  0
  4  3  2  0
  5  4  1  0
  6  5  2  0
  6  1  1  0
  7  1  1  0
  8  7  1  0
  2  9  1  0
  3 10  1  0
  4 11  1  0
  5 12  1  0
  6 13  1  0
  7 14  1  0
  7 15  1  0
  8 16  1  0
M  END
>  <score>  (1) 
-6.195

$$$$
=
     RDKit          3D

 16 16  0  0  0  0  0  0  0  0999 V2000
    4.9990   70.3860   67.4050 C   0  0  0  0  0  0  0  0  0  0  0  0
    5.6360   70.1250   66.1850 C   0  0  0  0  0  0  0  0  0  0  0  0
    4.9820   69.4040   65.1850 C   0  0  0  0  0  0  0  0  0  0  0  0
    3.6880   68.9300   65.4000 C   0  0  0  0  0  0  0  0  0  0  0  0
    3.0500   69.1740   66.6150 C   0  0  0  0  0  0  0  0  0  0  0  0
    3.7030   69.8940   67.6160 C   0  0  0  0  0  0  0  0  0  0  0  0
    5.7160   71.1350   68.4960 C   0  0  0  0  0  0  0  0  0  0  0  0
    5.7800   72.5220   68.1920 O   0  0  0  0  0  0  0  0  0  0  0  0
    6.6591   70.4910   66.0140 H   0  0  0  0  0  0  0  0  0  0  0  0
    5.4870   69.2095   64.2273 H   0  0  0  0  0  0  0  0  0  0  0  0
    3.1712   68.3639   64.6111 H   0  0  0  0  0  0  0  0  0  0  0  0
    2.0302   68.7984   66.7849 H   0  0  0  0  0  0  0  0  0  0  0  0
    3.1983   70.0767   68.5761 H   0  0  0  0  0  0  0  0  0  0  0  0
    5.1758   70.9973   69.4443 H   0  0  0  0  0  0  0  0  0  0  0  0
    6.7403   70.7430   68.5811 H   0  0  0  0  0  0  0  0  0  0  0  0
    5.8041   73.0434   69.0332 H   0  0  0  0  0  0  0  0  0  0  0  0
  2  1  2  0
  3  2  1  0
  4  3  2  0
  5  4  1  0
  6  5  2  0
  6  1  1  0
  7  1  1  0
  8  7  1  0
  2  9  1  0
  3 10  1  0
  4 11  1  0
  5 12  1  0
  6 13  1  0
  7 14  1  0
  7 15  1  0
  8 16  1  0
M  END
>  <score>  (2) 
-6.11

$$$$
=
     RDKit          3D

 16 16  0  0  0  0  0  0  0  0999 V2000
    3.5450   69.8870   67.7230 C   0  0  0  0  0  0  0  0  0  0  0  0
    4.1740   69.5910   66.5060 C   0  0  0  0  0  0  0  0  0  0  0  0
    5.5250   69.8870   66.3170 C   0  0  0  0  0  0  0  0  0  0  0  0
    6.2560   70.4910   67.3390 C   0  0  0  0  0  0  0  0  0  0  0  0
    5.6360   70.8010   68.5490 C   0  0  0  0  0  0  0  0  0  0  0  0
    4.2860   70.5050   68.7400 C   0  0  0  0  0  0  0  0  0  0  0  0
    2.0810   69.5980   67.9150 C   0  0  0  0  0  0  0  0  0  0  0  0
    1.4310   70.6970   68.5400 O   0  0  0  0  0  0  0  0  0  0  0  0
    3.5989   69.1221   65.6940 H   0  0  0  0  0  0  0  0  0  0  0  0
    6.0129   69.6437   65.3616 H   0  0  0  0  0  0  0  0  0  0  0  0
    7.3211   70.7229   67.1910 H   0  0  0  0  0  0  0  0  0  0  0  0
    6.2123   71.2798   69.3544 H   0  0  0  0  0  0  0  0  0  0  0  0
    3.8003   70.7580   69.6940 H   0  0  0  0  0  0  0  0  0  0  0  0
    1.6174   69.4139   66.9346 H   0  0  0  0  0  0  0  0  0  0  0  0
    1.9762   68.7119   68.5583 H   0  0  0  0  0  0  0  0  0  0  0  0
    1.4890   70.5989   69.5234 H   0  0  0  0  0  0  0  0  0  0  0  0
  2  1  2  0
  3  2  1  0
  4  3  2  0
  5  4  1  0
  6  5  2  0
  6  1  1  0
  7  1  1  0
  8  7  1  0
  2  9  1  0
  3 10  1  0
  4 11  1  0
  5 12  1  0
  6 13  1  0
  7 14  1  0
  7 15  1  0
  8 16  1  0
M  END
>  <score>  (3) 
-6.073

$$$$
=
     RDKit          3D

 16 16  0  0  0  0  0  0  0  0999 V2000
    3.5960   69.7520   67.3740 C   0  0  0  0  0  0  0  0  0  0  0  0
    4.8910   70.2130   67.6460 C   0  0  0  0  0  0  0  0  0  0  0  0
    5.8680   70.2080   66.6490 C   0  0  0  0  0  0  0  0  0  0  0  0
    5.5620   69.7320   65.3750 C   0  0  0  0  0  0  0  0  0  0  0  0
    4.2800   69.2590   65.0980 C   0  0  0  0  0  0  0  0  0  0  0  0
    3.3020   69.2630   66.0930 C   0  0  0  0  0  0  0  0  0  0  0  0
    2.5510   69.7260   68.4570 C   0  0  0  0  0  0  0  0  0  0  0  0
    3.0080   70.4220   69.6100 O   0  0  0  0  0  0  0  0  0  0  0  0
    5.1394   70.5814   68.6523 H   0  0  0  0  0  0  0  0  0  0  0  0
    6.8797   70.5798   66.8687 H   0  0  0  0  0  0  0  0  0  0  0  0
    6.3314   69.7296   64.5888 H   0  0  0  0  0  0  0  0  0  0  0  0
    4.0392   68.8820   64.0931 H   0  0  0  0  0  0  0  0  0  0  0  0
    2.2947   68.8805   65.8714 H   0  0  0  0  0  0  0  0  0  0  0  0
    1.6333   70.2053   68.0855 H   0  0  0  0  0  0  0  0  0  0  0  0
    2.3497   68.6798   68.7307 H   0  0  0  0  0  0  0  0  0  0  0  0
    2.6987   69.9510   70.4240 H   0  0  0  0  0  0  0  0  0  0  0  0
  2  1  2  0
  3  2  1  0
  4  3  2  0
  5  4  1  0
  6  5  2  0
  6  1  1  0
  7  1  1  0
  8  7  1  0
  2  9  1  0
  3 10  1  0
  4 11  1  0
  5 12  1  0
  6 13  1  0
  7 14  1  0
  7 15  1  0
  8 16  1  0
M  END
>  <score>  (4) 
-5.905

$$$$
=
     RDKit          3D

 16 16  0  0  0  0  0  0  0  0999 V2000
    4.5860   69.8030   66.7390 C   0  0  0  0  0  0  0  0  0  0  0  0
    4.0200   70.1190   67.9820 C   0  0  0  0  0  0  0  0  0  0  0  0
    4.8070   70.6550   69.0020 C   0  0  0  0  0  0  0  0  0  0  0  0
    6.1690   70.8700   68.7920 C   0  0  0  0  0  0  0  0  0  0  0  0
    6.7440   70.5470   67.5640 C   0  0  0  0  0  0  0  0  0  0  0  0
    5.9580   70.0120   66.5430 C   0  0  0  0  0  0  0  0  0  0  0  0
    3.7440   69.1950   65.6500 C   0  0  0  0  0  0  0  0  0  0  0  0
    4.2920   69.4880   64.3710 O   0  0  0  0  0  0  0  0  0  0  0  0
    2.9479   69.9432   68.1545 H   0  0  0  0  0  0  0  0  0  0  0  0
    4.3533   70.9080   69.9716 H   0  0  0  0  0  0  0  0  0  0  0  0
    6.7892   71.2944   69.5953 H   0  0  0  0  0  0  0  0  0  0  0  0
    7.8187   70.7141   67.3997 H   0  0  0  0  0  0  0  0  0  0  0  0
    6.4180   69.7526   65.5781 H   0  0  0  0  0  0  0  0  0  0  0  0
    3.7087   68.1041   65.7869 H   0  0  0  0  0  0  0  0  0  0  0  0
    2.7305   69.6187   65.7071 H   0  0  0  0  0  0  0  0  0  0  0  0
    5.1595   69.9518   64.4821 H   0  0  0  0  0  0  0  0  0  0  0  0
  2  1  2  0
  3  2  1  0
  4  3  2  0
  5  4  1  0
  6  5  2  0
  6  1  1  0
  7  1  1  0
  8  7  1  0
  2  9  1  0
  3 10  1  0
  4 11  1  0
  5 12  1  0
  6 13  1  0
  7 14  1  0
  7 15  1  0
  8 16  1  0
M  END
>  <score>  (5) 
-5.85

$$$$
=
     RDKit          3D

 16 16  0  0  0  0  0  0  0  0999 V2000
    5.0300   69.8260   66.4100 C   0  0  0  0  0  0  0  0  0  0  0  0
    6.2240   70.2780   66.9870 C   0  0  0  0  0  0  0  0  0  0  0  0
    6.2510   70.7000   68.3170 C   0  0  0  0  0  0  0  0  0  0  0  0
    5.0830   70.6830   69.0780 C   0  0  0  0  0  0  0  0  0  0  0  0
    3.8880   70.2470   68.5090 C   0  0  0  0  0  0  0  0  0  0  0  0
    3.8590   69.8240   67.1800 C   0  0  0  0  0  0  0  0  0  0  0  0
    4.9930   69.4020   64.9660 C   0  0  0  0  0  0  0  0  0  0  0  0
    6.1370   68.6210   64.6440 O   0  0  0  0  0  0  0  0  0  0  0  0
    7.1462   70.3004   66.3878 H   0  0  0  0  0  0  0  0  0  0  0  0
    7.1941   71.0461   68.7650 H   0  0  0  0  0  0  0  0  0  0  0  0
    5.1047   71.0135   70.1269 H   0  0  0  0  0  0  0  0  0  0  0  0
    2.9660   70.2364   69.1088 H   0  0  0  0  0  0  0  0  0  0  0  0
    2.9117   69.4870   66.7339 H   0  0  0  0  0  0  0  0  0  0  0  0
    4.0862   68.8055   64.7875 H   0  0  0  0  0  0  0  0  0  0  0  0
    4.9878   70.3012   64.3325 H   0  0  0  0  0  0  0  0  0  0  0  0
    6.5770   68.3206   65.4784 H   0  0  0  0  0  0  0  0  0  0  0  0
  2  1  2  0
  3  2  1  0
  4  3  2  0
  5  4  1  0
  6  5  2  0
  6  1  1  0
  7  1  1  0
  8  7  1  0
  2  9  1  0
  3 10  1  0
  4 11  1  0
  5 12  1  0
  6 13  1  0
  7 14  1  0
  7 15  1  0
  8 16  1  0
M  END
>  <score>  (6) 
-5.787

$$$$
=
     RDKit          3D

 16 16  0  0  0  0  0  0  0  0999 V2000
    4.1780   69.0400   63.7850 C   0  0  0  0  0  0  0  0  0  0  0  0
    2.9570   68.8020   64.4310 C   0  0  0  0  0  0  0  0  0  0  0  0
    2.8190   69.0530   65.7960 C   0  0  0  0  0  0  0  0  0  0  0  0
    3.9020   69.5350   66.5300 C   0  0  0  0  0  0  0  0  0  0  0  0
    5.1240   69.7630   65.9000 C   0  0  0  0  0  0  0  0  0  0  0  0
    5.2640   69.5120   64.5340 C   0  0  0  0  0  0  0  0  0  0  0  0
    4.3370   68.7380   62.3190 C   0  0  0  0  0  0  0  0  0  0  0  0
    5.6430   68.2440   62.0480 O   0  0  0  0  0  0  0  0  0  0  0  0
    2.1019   68.4147   63.8576 H   0  0  0  0  0  0  0  0  0  0  0  0
    1.8552   68.8706   66.2938 H   0  0  0  0  0  0  0  0  0  0  0  0
    3.7919   69.7352   67.6060 H   0  0  0  0  0  0  0  0  0  0  0  0
    5.9790   70.1411   66.4797 H   0  0  0  0  0  0  0  0  0  0  0  0
    6.2327   69.6858   64.0427 H   0  0  0  0  0  0  0  0  0  0  0  0
    3.5957   67.9810   62.0235 H   0  0  0  0  0  0  0  0  0  0  0  0
    4.1830   69.6651   61.7474 H   0  0  0  0  0  0  0  0  0  0  0  0
    6.1123   68.0665   62.9014 H   0  0  0  0  0  0  0  0  0  0  0  0
  2  1  2  0
  3  2  1  0
  4  3  2  0
  5  4  1  0
  6  5  2  0
  6  1  1  0
  7  1  1  0
  8  7  1  0
  2  9  1  0
  3 10  1  0
  4 11  1  0
  5 12  1  0
  6 13  1  0
  7 14  1  0
  7 15  1  0
  8 16  1  0
M  END
>  <score>  (7) 
-5.539

$$$$
=
     RDKit          3D

 16 16  0  0  0  0  0  0  0  0999 V2000
    3.5310   69.6220   67.1330 C   0  0  0  0  0  0  0  0  0  0  0  0
    2.7930   69.1650   66.0330 C   0  0  0  0  0  0  0  0  0  0  0  0
    3.4020   69.0080   64.7880 C   0  0  0  0  0  0  0  0  0  0  0  0
    4.7530   69.3170   64.6280 C   0  0  0  0  0  0  0  0  0  0  0  0
    5.4930   69.7850   65.7130 C   0  0  0  0  0  0  0  0  0  0  0  0
    4.8850   69.9420   66.9590 C   0  0  0  0  0  0  0  0  0  0  0  0
    2.8660   69.8230   68.4680 C   0  0  0  0  0  0  0  0  0  0  0  0
    1.4530   69.7300   68.3430 O   0  0  0  0  0  0  0  0  0  0  0  0
    1.7254   68.9283   66.1522 H   0  0  0  0  0  0  0  0  0  0  0  0
    2.8169   68.6405   63.9321 H   0  0  0  0  0  0  0  0  0  0  0  0
    5.2340   69.1915   63.6467 H   0  0  0  0  0  0  0  0  0  0  0  0
    6.5577   70.0308   65.5865 H   0  0  0  0  0  0  0  0  0  0  0  0
    5.4714   70.3191   67.8099 H   0  0  0  0  0  0  0  0  0  0  0  0
    3.2185   69.0505   69.1673 H   0  0  0  0  0  0  0  0  0  0  0  0
    3.1232   70.8239   68.8448 H   0  0  0  0  0  0  0  0  0  0  0  0
    1.0431   69.7030   69.2437 H   0  0  0  0  0  0  0  0  0  0  0  0
  2  1  2  0
  3  2  1  0
  4  3  2  0
  5  4  1  0
  6  5  2  0
  6  1  1  0
  7  1  1  0
  8  7  1  0
  2  9  1  0
  3 10  1  0
  4 11  1  0
  5 12  1  0
  6 13  1  0
  7 14  1  0
  7 15  1  0
  8 16  1  0
M  END
>  <score>  (8) 
-5.528

$$$$
=
     RDKit          3D

 16 16  0  0  0  0  0  0  0  0999 V2000
    3.6830   68.8350   62.8300 C   0  0  0  0  0  0  0  0  0  0  0  0
    4.9570   69.2780   63.2120 C   0  0  0  0  0  0  0  0  0  0  0  0
    5.2370   69.5550   64.5500 C   0  0  0  0  0  0  0  0  0  0  0  0
    4.2450   69.4020   65.5170 C   0  0  0  0  0  0  0  0  0  0  0  0
    2.9710   68.9750   65.1460 C   0  0  0  0  0  0  0  0  0  0  0  0
    2.6890   68.6970   63.8080 C   0  0  0  0  0  0  0  0  0  0  0  0
    3.3700   68.5680   61.3820 C   0  0  0  0  0  0  0  0  0  0  0  0
    2.1010   69.1060   61.0360 O   0  0  0  0  0  0  0  0  0  0  0  0
    5.7410   69.4080   62.4515 H   0  0  0  0  0  0  0  0  0  0  0  0
    6.2416   69.8945   64.8423 H   0  0  0  0  0  0  0  0  0  0  0  0
    4.4673   69.6181   66.5724 H   0  0  0  0  0  0  0  0  0  0  0  0
    2.1872   68.8571   65.9087 H   0  0  0  0  0  0  0  0  0  0  0  0
    1.6801   68.3674   63.5191 H   0  0  0  0  0  0  0  0  0  0  0  0
    4.1434   69.0336   60.7534 H   0  0  0  0  0  0  0  0  0  0  0  0
    3.3500   67.4804   61.2187 H   0  0  0  0  0  0  0  0  0  0  0  0
    1.5971   69.3196   61.8609 H   0  0  0  0  0  0  0  0  0  0  0  0
  2  1  2  0
  3  2  1  0
  4  3  2  0
  5  4  1  0
  6  5  2  0
  6  1  1  0
  7  1  1  0
  8  7  1  0
  2  9  1  0
  3 10  1  0
  4 11  1  0
  5 12  1  0
  6 13  1  0
  7 14  1  0
  7 15  1  0
  8 16  1  0
M  END
>  <score>  (9) 
-5.49

$$$$
