=
     RDKit          3D

 15 15  0  0  0  0  0  0  0  0999 V2000
    3.9650   70.0800   67.6650 C   0  0  0  0  0  0  0  0  0  0  0  0
    5.3390   70.2940   67.5230 C   0  0  0  0  0  0  0  0  0  0  0  0
    5.9790   69.8710   66.3590 C   0  0  0  0  0  0  0  0  0  0  0  0
    5.2240   69.2440   65.3790 C   0  0  0  0  0  0  0  0  0  0  0  0
    3.8990   69.0130   65.4880 N   0  0  0  0  0  0  0  0  0  0  0  0
    3.3000   69.4300   66.6330 C   0  0  0  0  0  0  0  0  0  0  0  0
    1.8350   70.5970   68.7350 N   0  0  0  0  0  0  0  0  0  0  0  0
    3.1930   70.4870   68.8600 C   0  0  0  0  0  0  0  0  0  0  0  0
    3.7380   70.6940   69.9350 O   0  0  0  0  0  0  0  0  0  0  0  0
    5.9094   70.7911   68.3215 H   0  0  0  0  0  0  0  0  0  0  0  0
    7.0585   70.0309   66.2209 H   0  0  0  0  0  0  0  0  0  0  0  0
    5.7341   68.9165   64.4611 H   0  0  0  0  0  0  0  0  0  0  0  0
    2.2226   69.2417   66.7505 H   0  0  0  0  0  0  0  0  0  0  0  0
    1.2643   70.8779   69.5451 H   0  0  0  0  0  0  0  0  0  0  0  0
    1.3833   70.3989   67.8308 H   0  0  0  0  0  0  0  0  0  0  0  0
  2  1  2  0
  3  2  1  0
  4  3  2  0
  5  4  1  0
  6  5  2  0
  6  1  1  0
  8  7  1  0
  8  1  1  0
  9  8  2  0
  2 10  1  0
  3 11  1  0
  4 12  1  0
  6 13  1  0
  7 14  1  0
  7 15  1  0
M  END
>  <score>  (1) 
-5.883

$$$$
=
     RDKit          3D

 15 15  0  0  0  0  0  0  0  0999 V2000
    4.9690   70.4860   67.5500 C   0  0  0  0  0  0  0  0  0  0  0  0
    5.1180   69.9390   66.2730 C   0  0  0  0  0  0  0  0  0  0  0  0
    4.0850   69.1750   65.7310 C   0  0  0  0  0  0  0  0  0  0  0  0
    2.9390   68.9820   66.4880 C   0  0  0  0  0  0  0  0  0  0  0  0
    2.7660   69.4870   67.7280 N   0  0  0  0  0  0  0  0  0  0  0  0
    3.7890   70.2220   68.2340 C   0  0  0  0  0  0  0  0  0  0  0  0
    6.9610   70.6600   68.9480 N   0  0  0  0  0  0  0  0  0  0  0  0
    6.0050   71.3080   68.2150 C   0  0  0  0  0  0  0  0  0  0  0  0
    6.0300   72.5250   68.0950 O   0  0  0  0  0  0  0  0  0  0  0  0
    6.0417   70.1094   65.7004 H   0  0  0  0  0  0  0  0  0  0  0  0
    4.1769   68.7357   64.7267 H   0  0  0  0  0  0  0  0  0  0  0  0
    2.1248   68.3835   66.0534 H   0  0  0  0  0  0  0  0  0  0  0  0
    3.6767   70.6338   69.2478 H   0  0  0  0  0  0  0  0  0  0  0  0
    7.6978   71.1992   69.4248 H   0  0  0  0  0  0  0  0  0  0  0  0
    6.9441   69.6329   69.0231 H   0  0  0  0  0  0  0  0  0  0  0  0
  2  1  2  0
  3  2  1  0
  4  3  2  0
  5  4  1  0
  6  5  2  0
  6  1  1  0
  8  7  1  0
  8  1  1  0
  9  8  2  0
  2 10  1  0
  3 11  1  0
  4 12  1  0
  6 13  1  0
  7 14  1  0
  7 15  1  0
M  END
>  <score>  (2) 
-5.794

$$$$
=
     RDKit          3D

 15 15  0  0  0  0  0  0  0  0999 V2000
    4.5930   69.8860   66.8090 C   0  0  0  0  0  0  0  0  0  0  0  0
    5.7240   70.4090   67.4410 C   0  0  0  0  0  0  0  0  0  0  0  0
    5.6520   70.7660   68.7870 C   0  0  0  0  0  0  0  0  0  0  0  0
    4.4480   70.5920   69.4530 C   0  0  0  0  0  0  0  0  0  0  0  0
    3.3340   70.0990   68.8710 N   0  0  0  0  0  0  0  0  0  0  0  0
    3.4300   69.7640   67.5590 C   0  0  0  0  0  0  0  0  0  0  0  0
    5.7170   69.6120   64.6610 N   0  0  0  0  0  0  0  0  0  0  0  0
    4.5640   69.4790   65.3860 C   0  0  0  0  0  0  0  0  0  0  0  0
    3.5560   69.0130   64.8740 O   0  0  0  0  0  0  0  0  0  0  0  0
    6.6625   70.5379   66.8819 H   0  0  0  0  0  0  0  0  0  0  0  0
    6.5295   71.1760   69.3083 H   0  0  0  0  0  0  0  0  0  0  0  0
    4.3978   70.8715   70.5157 H   0  0  0  0  0  0  0  0  0  0  0  0
    2.5320   69.3720   67.0591 H   0  0  0  0  0  0  0  0  0  0  0  0
    5.7353   69.3392   63.6680 H   0  0  0  0  0  0  0  0  0  0  0  0
    6.5665   69.9849   65.1084 H   0  0  0  0  0  0  0  0  0  0  0  0
  2  1  2  0
  3  2  1  0
  4  3  2  0
  5  4  1  0
  6  5  2  0
  6  1  1  0
  8  7  1  0
  8  1  1  0
  9  8  2  0
  2 10  1  0
  3 11  1  0
  4 12  1  0
  6 13  1  0
  7 14  1  0
  7 15  1  0
M  END
>  <score>  (3) 
-5.567

$$$$
=
     RDKit          3D

 15 15  0  0  0  0  0  0  0  0999 V2000
    3.4790   68.7200   63.3660 C   0  0  0  0  0  0  0  0  0  0  0  0
    4.7170   69.1790   63.8230 C   0  0  0  0  0  0  0  0  0  0  0  0
    4.8620   69.5310   65.1650 C   0  0  0  0  0  0  0  0  0  0  0  0
    3.7630   69.4150   66.0020 C   0  0  0  0  0  0  0  0  0  0  0  0
    2.5510   68.9850   65.5920 N   0  0  0  0  0  0  0  0  0  0  0  0
    2.4340   68.6540   64.2800 C   0  0  0  0  0  0  0  0  0  0  0  0
    2.2740   69.0270   61.2670 N   0  0  0  0  0  0  0  0  0  0  0  0
    3.2190   68.3250   61.9640 C   0  0  0  0  0  0  0  0  0  0  0  0
    3.8440   67.4200   61.4280 O   0  0  0  0  0  0  0  0  0  0  0  0
    5.5686   69.2619   63.1317 H   0  0  0  0  0  0  0  0  0  0  0  0
    5.8267   69.8925   65.5505 H   0  0  0  0  0  0  0  0  0  0  0  0
    3.8856   69.6889   67.0603 H   0  0  0  0  0  0  0  0  0  0  0  0
    1.4526   68.3130   63.9188 H   0  0  0  0  0  0  0  0  0  0  0  0
    2.0665   68.7801   60.2888 H   0  0  0  0  0  0  0  0  0  0  0  0
    1.7700   69.8024   61.7205 H   0  0  0  0  0  0  0  0  0  0  0  0
  2  1  2  0
  3  2  1  0
  4  3  2  0
  5  4  1  0
  6  5  2  0
  6  1  1  0
  8  7  1  0
  8  1  1  0
  9  8  2  0
  2 10  1  0
  3 11  1  0
  4 12  1  0
  6 13  1  0
  7 14  1  0
  7 15  1  0
M  END
>  <score>  (4) 
-5.547

$$$$
=
     RDKit          3D

 15 15  0  0  0  0  0  0  0  0999 V2000
    3.5700   69.7240   67.1760 C   0  0  0  0  0  0  0  0  0  0  0  0
    3.2570   69.1940   65.9210 C   0  0  0  0  0  0  0  0  0  0  0  0
    4.2720   69.0220   64.9800 C   0  0  0  0  0  0  0  0  0  0  0  0
    5.5640   69.3890   65.3260 C   0  0  0  0  0  0  0  0  0  0  0  0
    5.8990   69.9120   66.5250 N   0  0  0  0  0  0  0  0  0  0  0  0
    4.8920   70.0750   67.4210 C   0  0  0  0  0  0  0  0  0  0  0  0
    3.0270   70.2370   69.4990 N   0  0  0  0  0  0  0  0  0  0  0  0
    2.5690   69.9490   68.2420 C   0  0  0  0  0  0  0  0  0  0  0  0
    1.3680   69.9080   68.0110 O   0  0  0  0  0  0  0  0  0  0  0  0
    2.2209   68.9155   65.6781 H   0  0  0  0  0  0  0  0  0  0  0  0
    4.0528   68.6048   63.9861 H   0  0  0  0  0  0  0  0  0  0  0  0
    6.3610   69.2459   64.5815 H   0  0  0  0  0  0  0  0  0  0  0  0
    5.1376   70.5114   68.4004 H   0  0  0  0  0  0  0  0  0  0  0  0
    2.3589   70.3996   70.2659 H   0  0  0  0  0  0  0  0  0  0  0  0
    4.0398   70.2912   69.6782 H   0  0  0  0  0  0  0  0  0  0  0  0
  2  1  2  0
  3  2  1  0
  4  3  2  0
  5  4  1  0
  6  5  2  0
  6  1  1  0
  8  7  1  0
  8  1  1  0
  9  8  2  0
  2 10  1  0
  3 11  1  0
  4 12  1  0
  6 13  1  0
  7 14  1  0
  7 15  1  0
M  END
>  <score>  (5) 
-5.519

$$$$
=
     RDKit          3D

 15 15  0  0  0  0  0  0  0  0999 V2000
    4.6320   69.5560   65.6990 C   0  0  0  0  0  0  0  0  0  0  0  0
    3.2950   69.1520   65.7170 C   0  0  0  0  0  0  0  0  0  0  0  0
    2.6820   68.7640   64.5250 C   0  0  0  0  0  0  0  0  0  0  0  0
    3.4290   68.7970   63.3570 C   0  0  0  0  0  0  0  0  0  0  0  0
    4.7190   69.1900   63.3030 N   0  0  0  0  0  0  0  0  0  0  0  0
    5.2900   69.5680   64.4750 C   0  0  0  0  0  0  0  0  0  0  0  0
    6.7370   70.0550   66.8280 N   0  0  0  0  0  0  0  0  0  0  0  0
    5.3730   69.9880   66.9060 C   0  0  0  0  0  0  0  0  0  0  0  0
    4.7910   70.3050   67.9340 O   0  0  0  0  0  0  0  0  0  0  0  0
    2.7310   69.1398   66.6613 H   0  0  0  0  0  0  0  0  0  0  0  0
    1.6310   68.4396   64.5121 H   0  0  0  0  0  0  0  0  0  0  0  0
    2.9423   68.4850   62.4212 H   0  0  0  0  0  0  0  0  0  0  0  0
    6.3372   69.9042   64.4547 H   0  0  0  0  0  0  0  0  0  0  0  0
    7.2858   70.3514   67.6477 H   0  0  0  0  0  0  0  0  0  0  0  0
    7.2153   69.8090   65.9496 H   0  0  0  0  0  0  0  0  0  0  0  0
  2  1  2  0
  3  2  1  0
  4  3  2  0
  5  4  1  0
  6  5  2  0
  6  1  1  0
  8  7  1  0
  8  1  1  0
  9  8  2  0
  2 10  1  0
  3 11  1  0
  4 12  1  0
  6 13  1  0
  7 14  1  0
  7 15  1  0
M  END
>  <score>  (6) 
-5.497

$$$$
=
     RDKit          3D

 15 15  0  0  0  0  0  0  0  0999 V2000
    4.6090   69.7940   66.7630 C   0  0  0  0  0  0  0  0  0  0  0  0
    3.3810   69.7590   67.4280 C   0  0  0  0  0  0  0  0  0  0  0  0
    3.3040   70.2130   68.7440 C   0  0  0  0  0  0  0  0  0  0  0  0
    4.4590   70.6820   69.3510 C   0  0  0  0  0  0  0  0  0  0  0  0
    5.6630   70.7200   68.7410 N   0  0  0  0  0  0  0  0  0  0  0  0
    5.7130   70.2670   67.4620 C   0  0  0  0  0  0  0  0  0  0  0  0
    6.0580   68.9610   64.9840 N   0  0  0  0  0  0  0  0  0  0  0  0
    4.7990   69.3340   65.3690 C   0  0  0  0  0  0  0  0  0  0  0  0
    3.8610   69.2590   64.5860 O   0  0  0  0  0  0  0  0  0  0  0  0
    2.4840   69.3772   66.9186 H   0  0  0  0  0  0  0  0  0  0  0  0
    2.3483   70.1994   69.2885 H   0  0  0  0  0  0  0  0  0  0  0  0
    4.3906   71.0434   70.3877 H   0  0  0  0  0  0  0  0  0  0  0  0
    6.6857   70.2749   66.9483 H   0  0  0  0  0  0  0  0  0  0  0  0
    6.2270   68.6357   64.0215 H   0  0  0  0  0  0  0  0  0  0  0  0
    6.8367   69.0056   65.6567 H   0  0  0  0  0  0  0  0  0  0  0  0
  2  1  2  0
  3  2  1  0
  4  3  2  0
  5  4  1  0
  6  5  2  0
  6  1  1  0
  8  7  1  0
  8  1  1  0
  9  8  2  0
  2 10  1  0
  3 11  1  0
  4 12  1  0
  6 13  1  0
  7 14  1  0
  7 15  1  0
M  END
>  <score>  (7) 
-5.46

$$$$
=
     RDKit          3D

 15 15  0  0  0  0  0  0  0  0999 V2000
    2.9090   69.6830   67.7780 C   0  0  0  0  0  0  0  0  0  0  0  0
    3.5330   69.3820   66.5640 C   0  0  0  0  0  0  0  0  0  0  0  0
    4.8750   69.7160   66.3850 C   0  0  0  0  0  0  0  0  0  0  0  0
    5.5460   70.3420   67.4250 C   0  0  0  0  0  0  0  0  0  0  0  0
    4.9710   70.6560   68.6050 N   0  0  0  0  0  0  0  0  0  0  0  0
    3.6630   70.3250   68.7530 C   0  0  0  0  0  0  0  0  0  0  0  0
    0.6420   70.4230   68.2930 N   0  0  0  0  0  0  0  0  0  0  0  0
    1.4910   69.3740   68.0680 C   0  0  0  0  0  0  0  0  0  0  0  0
    1.0760   68.2230   68.0800 O   0  0  0  0  0  0  0  0  0  0  0  0
    2.9713   68.8868   65.7582 H   0  0  0  0  0  0  0  0  0  0  0  0
    5.3899   69.4881   65.4401 H   0  0  0  0  0  0  0  0  0  0  0  0
    6.6062   70.5968   67.2800 H   0  0  0  0  0  0  0  0  0  0  0  0
    3.1698   70.5805   69.7025 H   0  0  0  0  0  0  0  0  0  0  0  0
   -0.3518   70.2464   68.4979 H   0  0  0  0  0  0  0  0  0  0  0  0
    0.9967   71.3894   68.2575 H   0  0  0  0  0  0  0  0  0  0  0  0
  2  1  2  0
  3  2  1  0
  4  3  2  0
  5  4  1  0
  6  5  2  0
  6  1  1  0
  8  7  1  0
  8  1  1  0
  9  8  2  0
  2 10  1  0
  3 11  1  0
  4 12  1  0
  6 13  1  0
  7 14  1  0
  7 15  1  0
M  END
>  <score>  (8) 
-5.371

$$$$
=
     RDKit          3D

 15 15  0  0  0  0  0  0  0  0999 V2000
    4.3730   69.9930   67.2370 C   0  0  0  0  0  0  0  0  0  0  0  0
    3.1300   69.3950   67.0150 C   0  0  0  0  0  0  0  0  0  0  0  0
    2.9340   68.6330   65.8640 C   0  0  0  0  0  0  0  0  0  0  0  0
    3.9880   68.5000   64.9720 C   0  0  0  0  0  0  0  0  0  0  0  0
    5.1980   69.0720   65.1500 N   0  0  0  0  0  0  0  0  0  0  0  0
    5.3610   69.8130   66.2760 C   0  0  0  0  0  0  0  0  0  0  0  0
    4.0950   70.4800   69.6120 N   0  0  0  0  0  0  0  0  0  0  0  0
    4.6830   70.8210   68.4240 C   0  0  0  0  0  0  0  0  0  0  0  0
    5.4590   71.7650   68.3620 O   0  0  0  0  0  0  0  0  0  0  0  0
    2.3140   69.5241   67.7412 H   0  0  0  0  0  0  0  0  0  0  0  0
    1.9661   68.1486   65.6678 H   0  0  0  0  0  0  0  0  0  0  0  0
    3.8289   67.8939   64.0680 H   0  0  0  0  0  0  0  0  0  0  0  0
    6.3338   70.3004   66.4375 H   0  0  0  0  0  0  0  0  0  0  0  0
    4.2872   71.0332   70.4593 H   0  0  0  0  0  0  0  0  0  0  0  0
    3.4603   69.6702   69.6587 H   0  0  0  0  0  0  0  0  0  0  0  0
  2  1  2  0
  3  2  1  0
  4  3  2  0
  5  4  1  0
  6  5  2  0
  6  1  1  0
  8  7  1  0
  8  1  1  0
  9  8  2  0
  2 10  1  0
  3 11  1  0
  4 12  1  0
  6 13  1  0
  7 14  1  0
  7 15  1  0
M  END
>  <score>  (9) 
-5.364

$$$$
