=
     RDKit          3D

 30 32  0  0  0  0  0  0  0  0999 V2000
    0.1360   66.7980   68.7170 C   0  0  0  0  0  0  0  0  0  0  0  0
    1.1170   67.5960   68.0260 N   0  0  0  0  0  0  0  0  0  0  0  0
    0.8660   68.0490   66.7370 C   0  0  0  0  0  0  0  0  0  0  0  0
   -0.2200   67.8060   66.2150 O   0  0  0  0  0  0  0  0  0  0  0  0
    1.9750   68.6810   66.1260 N   0  0  0  0  0  0  0  0  0  0  0  0
    2.1000   68.7500   64.6830 C   0  0  0  0  0  0  0  0  0  0  0  0
    0.9660   68.7470   63.8470 C   0  0  0  0  0  0  0  0  0  0  0  0
    1.0720   68.8010   62.4530 C   0  0  0  0  0  0  0  0  0  0  0  0
    2.3190   68.8590   61.8500 C   0  0  0  0  0  0  0  0  0  0  0  0
    3.4590   68.8630   62.6460 C   0  0  0  0  0  0  0  0  0  0  0  0
    3.3570   68.8140   64.0480 C   0  0  0  0  0  0  0  0  0  0  0  0
    4.8840   68.7530   64.9540 S   0  0  0  0  0  0  0  0  0  0  0  0
    4.3210   69.4870   66.4640 C   0  0  0  0  0  0  0  0  0  0  0  0
    2.9900   69.3730   66.8940 C   0  0  0  0  0  0  0  0  0  0  0  0
    2.6410   70.0110   68.1020 C   0  0  0  0  0  0  0  0  0  0  0  0
    3.5850   70.6910   68.8750 C   0  0  0  0  0  0  0  0  0  0  0  0
    4.9040   70.7610   68.4510 C   0  0  0  0  0  0  0  0  0  0  0  0
    5.2700   70.1640   67.2480 C   0  0  0  0  0  0  0  0  0  0  0  0
    0.2722   66.9088   69.8029 H   0  0  0  0  0  0  0  0  0  0  0  0
   -0.8733   67.1348   68.4378 H   0  0  0  0  0  0  0  0  0  0  0  0
    0.2603   65.7413   68.4378 H   0  0  0  0  0  0  0  0  0  0  0  0
    2.0065   67.8311   68.4890 H   0  0  0  0  0  0  0  0  0  0  0  0
   -0.0334   68.7008   64.3043 H   0  0  0  0  0  0  0  0  0  0  0  0
    0.1631   68.7974   61.8335 H   0  0  0  0  0  0  0  0  0  0  0  0
    2.4056   68.9014   60.7542 H   0  0  0  0  0  0  0  0  0  0  0  0
    4.4517   68.9050   62.1741 H   0  0  0  0  0  0  0  0  0  0  0  0
    1.5966   69.9722   68.4451 H   0  0  0  0  0  0  0  0  0  0  0  0
    3.2831   71.1700   69.8181 H   0  0  0  0  0  0  0  0  0  0  0  0
    5.6551   71.2844   69.0609 H   0  0  0  0  0  0  0  0  0  0  0  0
    6.3142   70.2230   66.9073 H   0  0  0  0  0  0  0  0  0  0  0  0
  2  1  1  0
  3  2  1  0
  4  3  2  0
  5  3  1  0
  6  5  1  0
  7  6  2  0
  8  7  1  0
  9  8  2  0
 10  9  1  0
 11 10  2  0
 11  6  1  0
 12 11  1  0
 13 12  1  0
 14 13  2  0
 14  5  1  0
 15 14  1  0
 16 15  2  0
 17 16  1  0
 18 17  2  0
 18 13  1  0
  1 19  1  0
  1 20  1  0
  1 21  1  0
  2 22  1  0
  7 23  1  0
  8 24  1  0
  9 25  1  0
 10 26  1  0
 15 27  1  0
 16 28  1  0
 17 29  1  0
 18 30  1  0
M  END
>  <score>  (1) 
-10.02

$$$$
=
     RDKit          3D

 30 32  0  0  0  0  0  0  0  0999 V2000
   -1.1210   68.7520   65.6390 C   0  0  0  0  0  0  0  0  0  0  0  0
    0.3010   68.5220   65.5910 N   0  0  0  0  0  0  0  0  0  0  0  0
    1.1000   68.8670   66.6730 C   0  0  0  0  0  0  0  0  0  0  0  0
    0.5760   69.3210   67.6880 O   0  0  0  0  0  0  0  0  0  0  0  0
    2.4870   68.7330   66.4260 N   0  0  0  0  0  0  0  0  0  0  0  0
    3.4620   69.4960   67.1810 C   0  0  0  0  0  0  0  0  0  0  0  0
    3.1980   69.9280   68.4950 C   0  0  0  0  0  0  0  0  0  0  0  0
    4.1250   70.6750   69.2320 C   0  0  0  0  0  0  0  0  0  0  0  0
    5.3470   71.0150   68.6730 C   0  0  0  0  0  0  0  0  0  0  0  0
    5.6400   70.6050   67.3770 C   0  0  0  0  0  0  0  0  0  0  0  0
    4.7130   69.8500   66.6360 C   0  0  0  0  0  0  0  0  0  0  0  0
    5.1710   69.4460   64.9670 S   0  0  0  0  0  0  0  0  0  0  0  0
    4.2150   67.9670   64.7850 C   0  0  0  0  0  0  0  0  0  0  0  0
    3.0150   67.7670   65.4840 C   0  0  0  0  0  0  0  0  0  0  0  0
    2.3400   66.5460   65.2820 C   0  0  0  0  0  0  0  0  0  0  0  0
    2.8120   65.5840   64.3850 C   0  0  0  0  0  0  0  0  0  0  0  0
    3.9820   65.8160   63.6760 C   0  0  0  0  0  0  0  0  0  0  0  0
    4.6820   67.0020   63.8780 C   0  0  0  0  0  0  0  0  0  0  0  0
   -1.4487   68.8050   66.6877 H   0  0  0  0  0  0  0  0  0  0  0  0
   -1.3564   69.6999   65.1330 H   0  0  0  0  0  0  0  0  0  0  0  0
   -1.6432   67.9266   65.1330 H   0  0  0  0  0  0  0  0  0  0  0  0
    0.7254   68.1008   64.7523 H   0  0  0  0  0  0  0  0  0  0  0  0
    2.2334   69.6706   68.9569 H   0  0  0  0  0  0  0  0  0  0  0  0
    3.8830   70.9928   70.2569 H   0  0  0  0  0  0  0  0  0  0  0  0
    6.0772   71.6029   69.2485 H   0  0  0  0  0  0  0  0  0  0  0  0
    6.6068   70.8739   66.9266 H   0  0  0  0  0  0  0  0  0  0  0  0
    1.4170   66.3451   65.8456 H   0  0  0  0  0  0  0  0  0  0  0  0
    2.2573   64.6450   64.2413 H   0  0  0  0  0  0  0  0  0  0  0  0
    4.3535   65.0683   62.9598 H   0  0  0  0  0  0  0  0  0  0  0  0
    5.6123   67.1856   63.3204 H   0  0  0  0  0  0  0  0  0  0  0  0
  2  1  1  0
  3  2  1  0
  4  3  2  0
  5  3  1  0
  6  5  1  0
  7  6  2  0
  8  7  1  0
  9  8  2  0
 10  9  1  0
 11 10  2  0
 11  6  1  0
 12 11  1  0
 13 12  1  0
 14 13  2  0
 14  5  1  0
 15 14  1  0
 16 15  2  0
 17 16  1  0
 18 17  2  0
 18 13  1  0
  1 19  1  0
  1 20  1  0
  1 21  1  0
  2 22  1  0
  7 23  1  0
  8 24  1  0
  9 25  1  0
 10 26  1  0
 15 27  1  0
 16 28  1  0
 17 29  1  0
 18 30  1  0
M  END
>  <score>  (2) 
-9.864

$$$$
=
     RDKit          3D

 30 32  0  0  0  0  0  0  0  0999 V2000
    6.8420   70.3280   67.4540 C   0  0  0  0  0  0  0  0  0  0  0  0
    5.8880   69.6830   66.5860 N   0  0  0  0  0  0  0  0  0  0  0  0
    4.5260   69.8360   66.8110 C   0  0  0  0  0  0  0  0  0  0  0  0
    4.1440   70.5660   67.7230 O   0  0  0  0  0  0  0  0  0  0  0  0
    3.7150   69.0230   65.9830 N   0  0  0  0  0  0  0  0  0  0  0  0
    2.3730   68.6460   66.3830 C   0  0  0  0  0  0  0  0  0  0  0  0
    1.6070   69.4590   67.2410 C   0  0  0  0  0  0  0  0  0  0  0  0
    0.3150   69.1020   67.6450 C   0  0  0  0  0  0  0  0  0  0  0  0
   -0.2500   67.9160   67.2030 C   0  0  0  0  0  0  0  0  0  0  0  0
    0.4800   67.0890   66.3560 C   0  0  0  0  0  0  0  0  0  0  0  0
    1.7760   67.4470   65.9430 C   0  0  0  0  0  0  0  0  0  0  0  0
    2.6350   66.2770   64.9190 S   0  0  0  0  0  0  0  0  0  0  0  0
    3.7030   67.4070   64.0710 C   0  0  0  0  0  0  0  0  0  0  0  0
    4.1330   68.6060   64.6610 C   0  0  0  0  0  0  0  0  0  0  0  0
    4.9670   69.4440   63.8930 C   0  0  0  0  0  0  0  0  0  0  0  0
    5.3950   69.0840   62.6120 C   0  0  0  0  0  0  0  0  0  0  0  0
    4.9880   67.8780   62.0610 C   0  0  0  0  0  0  0  0  0  0  0  0
    4.1420   67.0440   62.7880 C   0  0  0  0  0  0  0  0  0  0  0  0
    6.5674   70.1424   68.5029 H   0  0  0  0  0  0  0  0  0  0  0  0
    7.8462   69.9228   67.2606 H   0  0  0  0  0  0  0  0  0  0  0  0
    6.8401   71.4109   67.2606 H   0  0  0  0  0  0  0  0  0  0  0  0
    6.2173   69.1077   65.7976 H   0  0  0  0  0  0  0  0  0  0  0  0
    2.0373   70.4037   67.6049 H   0  0  0  0  0  0  0  0  0  0  0  0
   -0.2531   69.7643   68.3148 H   0  0  0  0  0  0  0  0  0  0  0  0
   -1.2647   67.6320   67.5187 H   0  0  0  0  0  0  0  0  0  0  0  0
    0.0389   66.1444   66.0052 H   0  0  0  0  0  0  0  0  0  0  0  0
    5.2898   70.4078   64.3135 H   0  0  0  0  0  0  0  0  0  0  0  0
    6.0534   69.7559   62.0419 H   0  0  0  0  0  0  0  0  0  0  0  0
    5.3305   67.5827   61.0583 H   0  0  0  0  0  0  0  0  0  0  0  0
    3.8138   66.0892   62.3515 H   0  0  0  0  0  0  0  0  0  0  0  0
  2  1  1  0
  3  2  1  0
  4  3  2  0
  5  3  1  0
  6  5  1  0
  7  6  2  0
  8  7  1  0
  9  8  2  0
 10  9  1  0
 11 10  2  0
 11  6  1  0
 12 11  1  0
 13 12  1  0
 14 13  2  0
 14  5  1  0
 15 14  1  0
 16 15  2  0
 17 16  1  0
 18 17  2  0
 18 13  1  0
  1 19  1  0
  1 20  1  0
  1 21  1  0
  2 22  1  0
  7 23  1  0
  8 24  1  0
  9 25  1  0
 10 26  1  0
 15 27  1  0
 16 28  1  0
 17 29  1  0
 18 30  1  0
M  END
>  <score>  (3) 
-9.047

$$$$
=
     RDKit          3D

 30 32  0  0  0  0  0  0  0  0999 V2000
   -0.0440   69.9300   61.2070 C   0  0  0  0  0  0  0  0  0  0  0  0
    0.9260   69.5410   62.2000 N   0  0  0  0  0  0  0  0  0  0  0  0
    0.5400   68.7640   63.2850 C   0  0  0  0  0  0  0  0  0  0  0  0
   -0.6210   68.3710   63.3610 O   0  0  0  0  0  0  0  0  0  0  0  0
    1.5560   68.5930   64.2560 N   0  0  0  0  0  0  0  0  0  0  0  0
    1.2320   68.2880   65.6360 C   0  0  0  0  0  0  0  0  0  0  0  0
    0.0520   67.6000   65.9780 C   0  0  0  0  0  0  0  0  0  0  0  0
   -0.2800   67.3080   67.3060 C   0  0  0  0  0  0  0  0  0  0  0  0
    0.5610   67.6990   68.3360 C   0  0  0  0  0  0  0  0  0  0  0  0
    1.7350   68.3810   68.0340 C   0  0  0  0  0  0  0  0  0  0  0  0
    2.0740   68.6710   66.7000 C   0  0  0  0  0  0  0  0  0  0  0  0
    3.5620   69.6080   66.4440 S   0  0  0  0  0  0  0  0  0  0  0  0
    3.9560   69.0340   64.8160 C   0  0  0  0  0  0  0  0  0  0  0  0
    2.9630   68.6170   63.9160 C   0  0  0  0  0  0  0  0  0  0  0  0
    3.3850   68.1600   62.6500 C   0  0  0  0  0  0  0  0  0  0  0  0
    4.7320   68.1630   62.2780 C   0  0  0  0  0  0  0  0  0  0  0  0
    5.6950   68.6120   63.1700 C   0  0  0  0  0  0  0  0  0  0  0  0
    5.3070   69.0430   64.4360 C   0  0  0  0  0  0  0  0  0  0  0  0
   -0.9537   70.2948   61.7063 H   0  0  0  0  0  0  0  0  0  0  0  0
    0.3751   70.7296   60.5785 H   0  0  0  0  0  0  0  0  0  0  0  0
   -0.2935   69.0624   60.5785 H   0  0  0  0  0  0  0  0  0  0  0  0
    1.9071   69.8397   62.1048 H   0  0  0  0  0  0  0  0  0  0  0  0
   -0.6305   67.2819   65.1761 H   0  0  0  0  0  0  0  0  0  0  0  0
   -1.2105   66.7670   67.5328 H   0  0  0  0  0  0  0  0  0  0  0  0
    0.3028   67.4724   69.3810 H   0  0  0  0  0  0  0  0  0  0  0  0
    2.4054   68.6969   68.8469 H   0  0  0  0  0  0  0  0  0  0  0  0
    2.6335   67.7913   61.9363 H   0  0  0  0  0  0  0  0  0  0  0  0
    5.0283   67.8098   61.2793 H   0  0  0  0  0  0  0  0  0  0  0  0
    6.7559   68.6274   62.8797 H   0  0  0  0  0  0  0  0  0  0  0  0
    6.0689   69.3949   65.1471 H   0  0  0  0  0  0  0  0  0  0  0  0
  2  1  1  0
  3  2  1  0
  4  3  2  0
  5  3  1  0
  6  5  1  0
  7  6  2  0
  8  7  1  0
  9  8  2  0
 10  9  1  0
 11 10  2  0
 11  6  1  0
 12 11  1  0
 13 12  1  0
 14 13  2  0
 14  5  1  0
 15 14  1  0
 16 15  2  0
 17 16  1  0
 18 17  2  0
 18 13  1  0
  1 19  1  0
  1 20  1  0
  1 21  1  0
  2 22  1  0
  7 23  1  0
  8 24  1  0
  9 25  1  0
 10 26  1  0
 15 27  1  0
 16 28  1  0
 17 29  1  0
 18 30  1  0
M  END
>  <score>  (4) 
-8.743

$$$$
=
     RDKit          3D

 30 32  0  0  0  0  0  0  0  0999 V2000
    3.7890   58.5970   75.2960 C   0  0  0  0  0  0  0  0  0  0  0  0
    2.8960   59.3180   74.4230 N   0  0  0  0  0  0  0  0  0  0  0  0
    3.1930   59.4450   73.0720 C   0  0  0  0  0  0  0  0  0  0  0  0
    4.1950   58.8930   72.6210 O   0  0  0  0  0  0  0  0  0  0  0  0
    2.3170   60.3080   72.3720 N   0  0  0  0  0  0  0  0  0  0  0  0
    2.7300   60.9660   71.1470 C   0  0  0  0  0  0  0  0  0  0  0  0
    3.7020   60.3990   70.3010 C   0  0  0  0  0  0  0  0  0  0  0  0
    4.1190   61.0290   69.1220 C   0  0  0  0  0  0  0  0  0  0  0  0
    3.5750   62.2500   68.7550 C   0  0  0  0  0  0  0  0  0  0  0  0
    2.6130   62.8380   69.5690 C   0  0  0  0  0  0  0  0  0  0  0  0
    2.1870   62.2050   70.7510 C   0  0  0  0  0  0  0  0  0  0  0  0
    1.0060   63.0870   71.7430 S   0  0  0  0  0  0  0  0  0  0  0  0
    0.2430   61.7000   72.5350 C   0  0  0  0  0  0  0  0  0  0  0  0
    0.9410   60.5070   72.7770 C   0  0  0  0  0  0  0  0  0  0  0  0
    0.2340   59.4560   73.3970 C   0  0  0  0  0  0  0  0  0  0  0  0
   -1.0950   59.6010   73.8040 C   0  0  0  0  0  0  0  0  0  0  0  0
   -1.7560   60.8010   73.5880 C   0  0  0  0  0  0  0  0  0  0  0  0
   -1.0900   61.8460   72.9530 C   0  0  0  0  0  0  0  0  0  0  0  0
    3.5276   58.8081   76.3434 H   0  0  0  0  0  0  0  0  0  0  0  0
    3.6961   57.5177   75.1053 H   0  0  0  0  0  0  0  0  0  0  0  0
    4.8245   58.9153   75.1053 H   0  0  0  0  0  0  0  0  0  0  0  0
    2.0361   59.7397   74.8020 H   0  0  0  0  0  0  0  0  0  0  0  0
    4.1476   59.4312   70.5746 H   0  0  0  0  0  0  0  0  0  0  0  0
    4.8801   60.5539   68.4856 H   0  0  0  0  0  0  0  0  0  0  0  0
    3.9007   62.7483   67.8300 H   0  0  0  0  0  0  0  0  0  0  0  0
    2.1803   63.8088   69.2856 H   0  0  0  0  0  0  0  0  0  0  0  0
    0.7428   58.4953   73.5649 H   0  0  0  0  0  0  0  0  0  0  0  0
   -1.6156   58.7653   74.2945 H   0  0  0  0  0  0  0  0  0  0  0  0
   -2.7985   60.9262   73.9159 H   0  0  0  0  0  0  0  0  0  0  0  0
   -1.6139   62.7970   72.7766 H   0  0  0  0  0  0  0  0  0  0  0  0
  2  1  1  0
  3  2  1  0
  4  3  2  0
  5  3  1  0
  6  5  1  0
  7  6  2  0
  8  7  1  0
  9  8  2  0
 10  9  1  0
 11 10  2  0
 11  6  1  0
 12 11  1  0
 13 12  1  0
 14 13  2  0
 14  5  1  0
 15 14  1  0
 16 15  2  0
 17 16  1  0
 18 17  2  0
 18 13  1  0
  1 19  1  0
  1 20  1  0
  1 21  1  0
  2 22  1  0
  7 23  1  0
  8 24  1  0
  9 25  1  0
 10 26  1  0
 15 27  1  0
 16 28  1  0
 17 29  1  0
 18 30  1  0
M  END
>  <score>  (5) 
-7.864

$$$$
=
     RDKit          3D

 30 32  0  0  0  0  0  0  0  0999 V2000
    5.6300   69.7820   62.7470 C   0  0  0  0  0  0  0  0  0  0  0  0
    5.2390   69.7990   64.1350 N   0  0  0  0  0  0  0  0  0  0  0  0
    4.3330   68.8620   64.6150 C   0  0  0  0  0  0  0  0  0  0  0  0
    3.9110   67.9900   63.8590 O   0  0  0  0  0  0  0  0  0  0  0  0
    3.9220   69.0960   65.9490 N   0  0  0  0  0  0  0  0  0  0  0  0
    2.6580   68.5870   66.4460 C   0  0  0  0  0  0  0  0  0  0  0  0
    2.0710   67.4260   65.9070 C   0  0  0  0  0  0  0  0  0  0  0  0
    0.8460   66.9300   66.3680 C   0  0  0  0  0  0  0  0  0  0  0  0
    0.1680   67.5840   67.3850 C   0  0  0  0  0  0  0  0  0  0  0  0
    0.7190   68.7350   67.9390 C   0  0  0  0  0  0  0  0  0  0  0  0
    1.9530   69.2330   67.4820 C   0  0  0  0  0  0  0  0  0  0  0  0
    2.5200   70.7470   68.2170 S   0  0  0  0  0  0  0  0  0  0  0  0
    4.2590   70.5170   67.9820 C   0  0  0  0  0  0  0  0  0  0  0  0
    4.7710   69.7640   66.9140 C   0  0  0  0  0  0  0  0  0  0  0  0
    6.1710   69.6260   66.8280 C   0  0  0  0  0  0  0  0  0  0  0  0
    7.0300   70.2510   67.7370 C   0  0  0  0  0  0  0  0  0  0  0  0
    6.5050   71.0210   68.7660 C   0  0  0  0  0  0  0  0  0  0  0  0
    5.1250   71.1500   68.8890 C   0  0  0  0  0  0  0  0  0  0  0  0
    6.7266   69.7343   62.6755 H   0  0  0  0  0  0  0  0  0  0  0  0
    5.1918   68.9021   62.2534 H   0  0  0  0  0  0  0  0  0  0  0  0
    5.2698   70.6967   62.2534 H   0  0  0  0  0  0  0  0  0  0  0  0
    5.6322   70.5071   64.7714 H   0  0  0  0  0  0  0  0  0  0  0  0
    2.5915   66.8921   65.0983 H   0  0  0  0  0  0  0  0  0  0  0  0
    0.4202   66.0190   65.9222 H   0  0  0  0  0  0  0  0  0  0  0  0
   -0.7949   67.1972   67.7499 H   0  0  0  0  0  0  0  0  0  0  0  0
    0.1841   69.2615   68.7431 H   0  0  0  0  0  0  0  0  0  0  0  0
    6.5995   69.0098   66.0238 H   0  0  0  0  0  0  0  0  0  0  0  0
    8.1191   70.1329   67.6371 H   0  0  0  0  0  0  0  0  0  0  0  0
    7.1746   71.5251   69.4784 H   0  0  0  0  0  0  0  0  0  0  0  0
    4.7069   71.7553   69.7068 H   0  0  0  0  0  0  0  0  0  0  0  0
  2  1  1  0
  3  2  1  0
  4  3  2  0
  5  3  1  0
  6  5  1  0
  7  6  2  0
  8  7  1  0
  9  8  2  0
 10  9  1  0
 11 10  2  0
 11  6  1  0
 12 11  1  0
 13 12  1  0
 14 13  2  0
 14  5  1  0
 15 14  1  0
 16 15  2  0
 17 16  1  0
 18 17  2  0
 18 13  1  0
  1 19  1  0
  1 20  1  0
  1 21  1  0
  2 22  1  0
  7 23  1  0
  8 24  1  0
  9 25  1  0
 10 26  1  0
 15 27  1  0
 16 28  1  0
 17 29  1  0
 18 30  1  0
M  END
>  <score>  (6) 
-7.779

$$$$
=
     RDKit          3D

 30 32  0  0  0  0  0  0  0  0999 V2000
    1.1370   62.9890   76.3280 C   0  0  0  0  0  0  0  0  0  0  0  0
    1.3930   62.9050   74.9110 N   0  0  0  0  0  0  0  0  0  0  0  0
    1.3740   61.6720   74.2710 C   0  0  0  0  0  0  0  0  0  0  0  0
    1.0850   60.6650   74.9130 O   0  0  0  0  0  0  0  0  0  0  0  0
    1.7960   61.7220   72.9210 N   0  0  0  0  0  0  0  0  0  0  0  0
    2.3320   60.5490   72.2580 C   0  0  0  0  0  0  0  0  0  0  0  0
    1.9540   59.2490   72.6470 C   0  0  0  0  0  0  0  0  0  0  0  0
    2.4710   58.1070   72.0240 C   0  0  0  0  0  0  0  0  0  0  0  0
    3.3870   58.2320   70.9910 C   0  0  0  0  0  0  0  0  0  0  0  0
    3.7830   59.5020   70.5830 C   0  0  0  0  0  0  0  0  0  0  0  0
    3.2610   60.6510   71.2030 C   0  0  0  0  0  0  0  0  0  0  0  0
    3.8950   62.2130   70.6420 S   0  0  0  0  0  0  0  0  0  0  0  0
    2.4960   63.2220   71.0430 C   0  0  0  0  0  0  0  0  0  0  0  0
    1.6320   62.9050   72.1020 C   0  0  0  0  0  0  0  0  0  0  0  0
    0.5360   63.7640   72.3260 C   0  0  0  0  0  0  0  0  0  0  0  0
    0.3360   64.9160   71.5610 C   0  0  0  0  0  0  0  0  0  0  0  0
    1.2220   65.2310   70.5410 C   0  0  0  0  0  0  0  0  0  0  0  0
    2.2970   64.3850   70.2820 C   0  0  0  0  0  0  0  0  0  0  0  0
    2.0400   62.6927   76.8819 H   0  0  0  0  0  0  0  0  0  0  0  0
    0.8679   64.0226   76.5914 H   0  0  0  0  0  0  0  0  0  0  0  0
    0.3079   62.3158   76.5914 H   0  0  0  0  0  0  0  0  0  0  0  0
    1.5902   63.7607   74.3726 H   0  0  0  0  0  0  0  0  0  0  0  0
    1.2298   59.1274   73.4660 H   0  0  0  0  0  0  0  0  0  0  0  0
    2.1497   57.1083   72.3548 H   0  0  0  0  0  0  0  0  0  0  0  0
    3.7962   57.3371   70.4993 H   0  0  0  0  0  0  0  0  0  0  0  0
    4.5124   59.6083   69.7665 H   0  0  0  0  0  0  0  0  0  0  0  0
   -0.1805   63.5205   73.1243 H   0  0  0  0  0  0  0  0  0  0  0  0
   -0.5225   65.5721   71.7672 H   0  0  0  0  0  0  0  0  0  0  0  0
    1.0764   66.1418   69.9417 H   0  0  0  0  0  0  0  0  0  0  0  0
    2.9988   64.6307   69.4714 H   0  0  0  0  0  0  0  0  0  0  0  0
  2  1  1  0
  3  2  1  0
  4  3  2  0
  5  3  1  0
  6  5  1  0
  7  6  2  0
  8  7  1  0
  9  8  2  0
 10  9  1  0
 11 10  2  0
 11  6  1  0
 12 11  1  0
 13 12  1  0
 14 13  2  0
 14  5  1  0
 15 14  1  0
 16 15  2  0
 17 16  1  0
 18 17  2  0
 18 13  1  0
  1 19  1  0
  1 20  1  0
  1 21  1  0
  2 22  1  0
  7 23  1  0
  8 24  1  0
  9 25  1  0
 10 26  1  0
 15 27  1  0
 16 28  1  0
 17 29  1  0
 18 30  1  0
M  END
>  <score>  (7) 
-7.538

$$$$
=
     RDKit          3D

 30 32  0  0  0  0  0  0  0  0999 V2000
    3.9140   63.8620   64.5580 C   0  0  0  0  0  0  0  0  0  0  0  0
    3.3750   65.1500   64.1960 N   0  0  0  0  0  0  0  0  0  0  0  0
    2.7170   65.9220   65.1450 C   0  0  0  0  0  0  0  0  0  0  0  0
    2.6470   65.5200   66.3050 O   0  0  0  0  0  0  0  0  0  0  0  0
    2.1050   67.0830   64.6140 N   0  0  0  0  0  0  0  0  0  0  0  0
    0.9850   67.7140   65.2840 C   0  0  0  0  0  0  0  0  0  0  0  0
    0.8130   67.6160   66.6780 C   0  0  0  0  0  0  0  0  0  0  0  0
   -0.2700   68.2110   67.3360 C   0  0  0  0  0  0  0  0  0  0  0  0
   -1.2170   68.9230   66.6170 C   0  0  0  0  0  0  0  0  0  0  0  0
   -1.0770   69.0380   65.2380 C   0  0  0  0  0  0  0  0  0  0  0  0
    0.0120   68.4470   64.5730 C   0  0  0  0  0  0  0  0  0  0  0  0
    0.0440   68.6030   62.8040 S   0  0  0  0  0  0  0  0  0  0  0  0
    1.7940   68.4820   62.5630 C   0  0  0  0  0  0  0  0  0  0  0  0
    2.6150   67.7560   63.4380 C   0  0  0  0  0  0  0  0  0  0  0  0
    3.9990   67.7390   63.1660 C   0  0  0  0  0  0  0  0  0  0  0  0
    4.5370   68.3750   62.0440 C   0  0  0  0  0  0  0  0  0  0  0  0
    3.7020   69.0580   61.1710 C   0  0  0  0  0  0  0  0  0  0  0  0
    2.3360   69.1140   61.4310 C   0  0  0  0  0  0  0  0  0  0  0  0
    3.9505   63.7747   65.6539 H   0  0  0  0  0  0  0  0  0  0  0  0
    3.2727   63.0678   64.1481 H   0  0  0  0  0  0  0  0  0  0  0  0
    4.9298   63.7612   64.1481 H   0  0  0  0  0  0  0  0  0  0  0  0
    3.4782   65.4979   63.2321 H   0  0  0  0  0  0  0  0  0  0  0  0
    1.5523   67.0547   67.2682 H   0  0  0  0  0  0  0  0  0  0  0  0
   -0.3696   68.1131   68.4271 H   0  0  0  0  0  0  0  0  0  0  0  0
   -2.0693   69.3916   67.1309 H   0  0  0  0  0  0  0  0  0  0  0  0
   -1.8273   69.5981   64.6606 H   0  0  0  0  0  0  0  0  0  0  0  0
    4.6733   67.2106   63.8560 H   0  0  0  0  0  0  0  0  0  0  0  0
    5.6196   68.3344   61.8533 H   0  0  0  0  0  0  0  0  0  0  0  0
    4.1169   69.5516   60.2798 H   0  0  0  0  0  0  0  0  0  0  0  0
    1.6732   69.6590   60.7428 H   0  0  0  0  0  0  0  0  0  0  0  0
  2  1  1  0
  3  2  1  0
  4  3  2  0
  5  3  1  0
  6  5  1  0
  7  6  2  0
  8  7  1  0
  9  8  2  0
 10  9  1  0
 11 10  2  0
 11  6  1  0
 12 11  1  0
 13 12  1  0
 14 13  2  0
 14  5  1  0
 15 14  1  0
 16 15  2  0
 17 16  1  0
 18 17  2  0
 18 13  1  0
  1 19  1  0
  1 20  1  0
  1 21  1  0
  2 22  1  0
  7 23  1  0
  8 24  1  0
  9 25  1  0
 10 26  1  0
 15 27  1  0
 16 28  1  0
 17 29  1  0
 18 30  1  0
M  END
>  <score>  (8) 
-7.526

$$$$
