=
     RDKit          3D

 25 25  0  0  0  0  0  0  0  0999 V2000
    4.7460   68.8030   63.5900 C   0  0  0  0  0  0  0  0  0  0  0  0
    5.5980   69.3280   62.8800 O   0  0  0  0  0  0  0  0  0  0  0  0
    4.5340   69.2280   64.9970 C   0  0  0  0  0  0  0  0  0  0  0  0
    3.3080   69.0730   65.6550 C   0  0  0  0  0  0  0  0  0  0  0  0
    3.1710   69.4740   66.9870 C   0  0  0  0  0  0  0  0  0  0  0  0
    4.2540   70.0270   67.6690 C   0  0  0  0  0  0  0  0  0  0  0  0
    5.4780   70.1820   67.0220 C   0  0  0  0  0  0  0  0  0  0  0  0
    5.6190   69.7840   65.6920 C   0  0  0  0  0  0  0  0  0  0  0  0
    3.9450   67.6620   62.9960 C   0  0  0  0  0  0  0  0  0  0  0  0
    3.0050   67.8990   62.2470 O   0  0  0  0  0  0  0  0  0  0  0  0
    4.3900   66.2670   63.3630 C   0  0  0  0  0  0  0  0  0  0  0  0
    3.8540   64.1970   64.6890 C   0  0  0  0  0  0  0  0  0  0  0  0
    3.3830   65.5830   64.2810 C   0  0  0  0  0  0  0  0  0  0  0  0
    2.4509   68.6348   65.1227 H   0  0  0  0  0  0  0  0  0  0  0  0
    2.2050   69.3528   67.4991 H   0  0  0  0  0  0  0  0  0  0  0  0
    4.1421   70.3407   68.7174 H   0  0  0  0  0  0  0  0  0  0  0  0
    6.3330   70.6180   67.5594 H   0  0  0  0  0  0  0  0  0  0  0  0
    6.5873   69.9069   65.1848 H   0  0  0  0  0  0  0  0  0  0  0  0
    4.4971   65.6725   62.4437 H   0  0  0  0  0  0  0  0  0  0  0  0
    5.3494   66.3397   63.8961 H   0  0  0  0  0  0  0  0  0  0  0  0
    3.8781   64.1262   65.7865 H   0  0  0  0  0  0  0  0  0  0  0  0
    3.1621   63.4418   64.2879 H   0  0  0  0  0  0  0  0  0  0  0  0
    4.8628   64.0197   64.2879 H   0  0  0  0  0  0  0  0  0  0  0  0
    2.4219   65.4931   63.7536 H   0  0  0  0  0  0  0  0  0  0  0  0
    3.2749   66.1926   65.1902 H   0  0  0  0  0  0  0  0  0  0  0  0
  2  1  2  0
  3  1  1  0
  4  3  2  0
  5  4  1  0
  6  5  2  0
  7  6  1  0
  8  3  1  0
  8  7  2  0
  9  1  1  0
 10  9  2  0
 11  9  1  0
 13 12  1  0
 13 11  1  0
  4 14  1  0
  5 15  1  0
  6 16  1  0
  7 17  1  0
  8 18  1  0
 11 19  1  0
 11 20  1  0
 12 21  1  0
 12 22  1  0
 12 23  1  0
 13 24  1  0
 13 25  1  0
M  END
>  <score>  (1) 
-7.111

$$$$
=
     RDKit          3D

 25 25  0  0  0  0  0  0  0  0999 V2000
    2.9240   68.7940   65.4330 C   0  0  0  0  0  0  0  0  0  0  0  0
    3.0490   69.0620   64.2430 O   0  0  0  0  0  0  0  0  0  0  0  0
    3.7510   69.4570   66.4730 C   0  0  0  0  0  0  0  0  0  0  0  0
    3.2420   69.8130   67.7280 C   0  0  0  0  0  0  0  0  0  0  0  0
    4.0730   70.4180   68.6760 C   0  0  0  0  0  0  0  0  0  0  0  0
    5.4120   70.6660   68.3790 C   0  0  0  0  0  0  0  0  0  0  0  0
    5.9270   70.3120   67.1340 C   0  0  0  0  0  0  0  0  0  0  0  0
    5.1010   69.7090   66.1840 C   0  0  0  0  0  0  0  0  0  0  0  0
    1.9230   67.7190   65.8070 C   0  0  0  0  0  0  0  0  0  0  0  0
    2.2870   66.5550   65.9160 O   0  0  0  0  0  0  0  0  0  0  0  0
    0.5050   68.1770   66.0500 C   0  0  0  0  0  0  0  0  0  0  0  0
   -1.4120   67.1510   67.3140 C   0  0  0  0  0  0  0  0  0  0  0  0
   -0.0060   67.7190   67.4110 C   0  0  0  0  0  0  0  0  0  0  0  0
    2.1868   69.6164   67.9685 H   0  0  0  0  0  0  0  0  0  0  0  0
    3.6686   70.6992   69.6595 H   0  0  0  0  0  0  0  0  0  0  0  0
    6.0624   71.1414   69.1280 H   0  0  0  0  0  0  0  0  0  0  0  0
    6.9838   70.5075   66.8997 H   0  0  0  0  0  0  0  0  0  0  0  0
    5.5110   69.4295   65.2023 H   0  0  0  0  0  0  0  0  0  0  0  0
    0.4723   69.2757   66.0074 H   0  0  0  0  0  0  0  0  0  0  0  0
   -0.1375   67.7350   65.2742 H   0  0  0  0  0  0  0  0  0  0  0  0
   -1.8127   66.9891   68.3256 H   0  0  0  0  0  0  0  0  0  0  0  0
   -2.0570   67.8591   66.7731 H   0  0  0  0  0  0  0  0  0  0  0  0
   -1.3842   66.1936   66.7731 H   0  0  0  0  0  0  0  0  0  0  0  0
   -0.0139   68.5782   68.0978 H   0  0  0  0  0  0  0  0  0  0  0  0
    0.6617   66.9277   67.7826 H   0  0  0  0  0  0  0  0  0  0  0  0
  2  1  2  0
  3  1  1  0
  4  3  2  0
  5  4  1  0
  6  5  2  0
  7  6  1  0
  8  3  1  0
  8  7  2  0
  9  1  1  0
 10  9  2  0
 11  9  1  0
 13 12  1  0
 13 11  1  0
  4 14  1  0
  5 15  1  0
  6 16  1  0
  7 17  1  0
  8 18  1  0
 11 19  1  0
 11 20  1  0
 12 21  1  0
 12 22  1  0
 12 23  1  0
 13 24  1  0
 13 25  1  0
M  END
>  <score>  (2) 
-7.07

$$$$
=
     RDKit          3D

 25 25  0  0  0  0  0  0  0  0999 V2000
    1.2130   69.0530   67.6230 C   0  0  0  0  0  0  0  0  0  0  0  0
    0.2970   69.8600   67.7380 O   0  0  0  0  0  0  0  0  0  0  0  0
    2.6340   69.4840   67.6040 C   0  0  0  0  0  0  0  0  0  0  0  0
    3.4560   69.3230   66.4820 C   0  0  0  0  0  0  0  0  0  0  0  0
    4.7820   69.7660   66.5140 C   0  0  0  0  0  0  0  0  0  0  0  0
    5.2920   70.3730   67.6600 C   0  0  0  0  0  0  0  0  0  0  0  0
    4.4790   70.5400   68.7790 C   0  0  0  0  0  0  0  0  0  0  0  0
    3.1550   70.0990   68.7530 C   0  0  0  0  0  0  0  0  0  0  0  0
    0.8440   67.5930   67.4490 C   0  0  0  0  0  0  0  0  0  0  0  0
    1.1070   67.0150   66.4030 O   0  0  0  0  0  0  0  0  0  0  0  0
    0.1740   66.9270   68.6270 C   0  0  0  0  0  0  0  0  0  0  0  0
    1.0100   65.4140   70.4550 C   0  0  0  0  0  0  0  0  0  0  0  0
    1.1290   66.7830   69.8060 C   0  0  0  0  0  0  0  0  0  0  0  0
    3.0580   68.8471   65.5736 H   0  0  0  0  0  0  0  0  0  0  0  0
    5.4249   69.6348   65.6312 H   0  0  0  0  0  0  0  0  0  0  0  0
    6.3356   70.7200   67.6811 H   0  0  0  0  0  0  0  0  0  0  0  0
    4.8808   71.0197   69.6836 H   0  0  0  0  0  0  0  0  0  0  0  0
    2.5162   70.2342   69.6382 H   0  0  0  0  0  0  0  0  0  0  0  0
   -0.6885   67.5348   68.9380 H   0  0  0  0  0  0  0  0  0  0  0  0
   -0.1463   65.9211   68.3180 H   0  0  0  0  0  0  0  0  0  0  0  0
    1.0196   65.5249   71.5493 H   0  0  0  0  0  0  0  0  0  0  0  0
    0.0673   64.9409   70.1427 H   0  0  0  0  0  0  0  0  0  0  0  0
    1.8569   64.7853   70.1427 H   0  0  0  0  0  0  0  0  0  0  0  0
    0.8930   67.5547   70.5535 H   0  0  0  0  0  0  0  0  0  0  0  0
    2.1574   66.9002   69.4335 H   0  0  0  0  0  0  0  0  0  0  0  0
  2  1  2  0
  3  1  1  0
  4  3  2  0
  5  4  1  0
  6  5  2  0
  7  6  1  0
  8  3  1  0
  8  7  2  0
  9  1  1  0
 10  9  2  0
 11  9  1  0
 13 12  1  0
 13 11  1  0
  4 14  1  0
  5 15  1  0
  6 16  1  0
  7 17  1  0
  8 18  1  0
 11 19  1  0
 11 20  1  0
 12 21  1  0
 12 22  1  0
 12 23  1  0
 13 24  1  0
 13 25  1  0
M  END
>  <score>  (3) 
-6.998

$$$$
=
     RDKit          3D

 25 25  0  0  0  0  0  0  0  0999 V2000
    4.6970   69.3420   64.8140 C   0  0  0  0  0  0  0  0  0  0  0  0
    5.4020   69.7250   63.8870 O   0  0  0  0  0  0  0  0  0  0  0  0
    4.9110   69.8150   66.2060 C   0  0  0  0  0  0  0  0  0  0  0  0
    3.9020   69.7890   67.1750 C   0  0  0  0  0  0  0  0  0  0  0  0
    4.1670   70.2300   68.4750 C   0  0  0  0  0  0  0  0  0  0  0  0
    5.4360   70.6950   68.8140 C   0  0  0  0  0  0  0  0  0  0  0  0
    6.4470   70.7210   67.8550 C   0  0  0  0  0  0  0  0  0  0  0  0
    6.1870   70.2830   66.5560 C   0  0  0  0  0  0  0  0  0  0  0  0
    3.6210   68.3210   64.5000 C   0  0  0  0  0  0  0  0  0  0  0  0
    3.8720   67.1250   64.5740 O   0  0  0  0  0  0  0  0  0  0  0  0
    2.2650   68.8690   64.1270 C   0  0  0  0  0  0  0  0  0  0  0  0
    0.5220   69.0490   62.3220 C   0  0  0  0  0  0  0  0  0  0  0  0
    1.9060   68.5360   62.6830 C   0  0  0  0  0  0  0  0  0  0  0  0
    2.8988   69.4211   66.9136 H   0  0  0  0  0  0  0  0  0  0  0  0
    3.3704   70.2098   69.2333 H   0  0  0  0  0  0  0  0  0  0  0  0
    5.6398   71.0414   69.8380 H   0  0  0  0  0  0  0  0  0  0  0  0
    7.4495   71.0867   68.1221 H   0  0  0  0  0  0  0  0  0  0  0  0
    6.9872   70.3046   65.8015 H   0  0  0  0  0  0  0  0  0  0  0  0
    1.5071   68.4320   64.7937 H   0  0  0  0  0  0  0  0  0  0  0  0
    2.2942   69.9636   64.2319 H   0  0  0  0  0  0  0  0  0  0  0  0
   -0.0430   69.2584   63.2423 H   0  0  0  0  0  0  0  0  0  0  0  0
    0.6157   69.9721   61.7312 H   0  0  0  0  0  0  0  0  0  0  0  0
   -0.0086   68.2878   61.7312 H   0  0  0  0  0  0  0  0  0  0  0  0
    1.9282   67.4441   62.5516 H   0  0  0  0  0  0  0  0  0  0  0  0
    2.6385   69.0242   62.0233 H   0  0  0  0  0  0  0  0  0  0  0  0
  2  1  2  0
  3  1  1  0
  4  3  2  0
  5  4  1  0
  6  5  2  0
  7  6  1  0
  8  3  1  0
  8  7  2  0
  9  1  1  0
 10  9  2  0
 11  9  1  0
 13 12  1  0
 13 11  1  0
  4 14  1  0
  5 15  1  0
  6 16  1  0
  7 17  1  0
  8 18  1  0
 11 19  1  0
 11 20  1  0
 12 21  1  0
 12 22  1  0
 12 23  1  0
 13 24  1  0
 13 25  1  0
M  END
>  <score>  (4) 
-6.965

$$$$
=
     RDKit          3D

 25 25  0  0  0  0  0  0  0  0999 V2000
    2.5350   68.9900   66.4490 C   0  0  0  0  0  0  0  0  0  0  0  0
    1.4400   69.1770   66.9680 O   0  0  0  0  0  0  0  0  0  0  0  0
    3.7690   69.6210   66.9840 C   0  0  0  0  0  0  0  0  0  0  0  0
    3.8310   70.1930   68.2600 C   0  0  0  0  0  0  0  0  0  0  0  0
    5.0260   70.7560   68.7190 C   0  0  0  0  0  0  0  0  0  0  0  0
    6.1620   70.7460   67.9120 C   0  0  0  0  0  0  0  0  0  0  0  0
    6.1090   70.1750   66.6420 C   0  0  0  0  0  0  0  0  0  0  0  0
    4.9180   69.6140   66.1790 C   0  0  0  0  0  0  0  0  0  0  0  0
    2.5820   68.1290   65.2030 C   0  0  0  0  0  0  0  0  0  0  0  0
    2.8240   66.9320   65.2950 O   0  0  0  0  0  0  0  0  0  0  0  0
    2.2970   68.8260   63.8950 C   0  0  0  0  0  0  0  0  0  0  0  0
    2.9950   68.7310   61.4800 C   0  0  0  0  0  0  0  0  0  0  0  0
    3.4650   68.6920   62.9240 C   0  0  0  0  0  0  0  0  0  0  0  0
    2.9383   70.1997   68.9027 H   0  0  0  0  0  0  0  0  0  0  0  0
    5.0694   71.2084   69.7207 H   0  0  0  0  0  0  0  0  0  0  0  0
    7.1003   71.1887   68.2774 H   0  0  0  0  0  0  0  0  0  0  0  0
    7.0055   70.1664   66.0047 H   0  0  0  0  0  0  0  0  0  0  0  0
    4.8799   69.1633   65.1763 H   0  0  0  0  0  0  0  0  0  0  0  0
    1.4008   68.3792   63.4398 H   0  0  0  0  0  0  0  0  0  0  0  0
    2.1403   69.8952   64.1008 H   0  0  0  0  0  0  0  0  0  0  0  0
    1.8991   68.8219   61.4534 H   0  0  0  0  0  0  0  0  0  0  0  0
    3.4471   69.5947   60.9705 H   0  0  0  0  0  0  0  0  0  0  0  0
    3.2985   67.8046   60.9705 H   0  0  0  0  0  0  0  0  0  0  0  0
    3.9752   67.7350   63.1082 H   0  0  0  0  0  0  0  0  0  0  0  0
    4.1489   69.5379   63.0876 H   0  0  0  0  0  0  0  0  0  0  0  0
  2  1  2  0
  3  1  1  0
  4  3  2  0
  5  4  1  0
  6  5  2  0
  7  6  1  0
  8  3  1  0
  8  7  2  0
  9  1  1  0
 10  9  2  0
 11  9  1  0
 13 12  1  0
 13 11  1  0
  4 14  1  0
  5 15  1  0
  6 16  1  0
  7 17  1  0
  8 18  1  0
 11 19  1  0
 11 20  1  0
 12 21  1  0
 12 22  1  0
 12 23  1  0
 13 24  1  0
 13 25  1  0
M  END
>  <score>  (5) 
-6.953

$$$$
=
     RDKit          3D

 25 25  0  0  0  0  0  0  0  0999 V2000
    1.8350   68.6660   66.1730 C   0  0  0  0  0  0  0  0  0  0  0  0
    0.9250   68.9390   66.9480 O   0  0  0  0  0  0  0  0  0  0  0  0
    3.2100   69.1920   66.3680 C   0  0  0  0  0  0  0  0  0  0  0  0
    4.1850   69.1470   65.3640 C   0  0  0  0  0  0  0  0  0  0  0  0
    5.4580   69.6750   65.5980 C   0  0  0  0  0  0  0  0  0  0  0  0
    5.7630   70.2510   66.8300 C   0  0  0  0  0  0  0  0  0  0  0  0
    4.7980   70.3020   67.8330 C   0  0  0  0  0  0  0  0  0  0  0  0
    3.5260   69.7760   67.6050 C   0  0  0  0  0  0  0  0  0  0  0  0
    1.4970   67.8090   64.9690 C   0  0  0  0  0  0  0  0  0  0  0  0
    1.2780   66.6120   65.1120 O   0  0  0  0  0  0  0  0  0  0  0  0
    1.4300   68.5180   63.6380 C   0  0  0  0  0  0  0  0  0  0  0  0
   -0.0550   69.7140   61.9970 C   0  0  0  0  0  0  0  0  0  0  0  0
    0.0400   69.0890   63.3790 C   0  0  0  0  0  0  0  0  0  0  0  0
    3.9488   68.6953   64.3892 H   0  0  0  0  0  0  0  0  0  0  0  0
    6.2216   69.6358   64.8072 H   0  0  0  0  0  0  0  0  0  0  0  0
    6.7659   70.6653   67.0102 H   0  0  0  0  0  0  0  0  0  0  0  0
    5.0387   70.7571   68.8051 H   0  0  0  0  0  0  0  0  0  0  0  0
    2.7662   69.8191   68.3992 H   0  0  0  0  0  0  0  0  0  0  0  0
    2.1608   69.3402   63.6337 H   0  0  0  0  0  0  0  0  0  0  0  0
    1.6568   67.7887   62.8464 H   0  0  0  0  0  0  0  0  0  0  0  0
   -0.2196   70.7972   62.0950 H   0  0  0  0  0  0  0  0  0  0  0  0
    0.8809   69.5336   61.4479 H   0  0  0  0  0  0  0  0  0  0  0  0
   -0.8950   69.2636   61.4479 H   0  0  0  0  0  0  0  0  0  0  0  0
   -0.1775   69.8578   64.1350 H   0  0  0  0  0  0  0  0  0  0  0  0
   -0.6881   68.2665   63.4374 H   0  0  0  0  0  0  0  0  0  0  0  0
  2  1  2  0
  3  1  1  0
  4  3  2  0
  5  4  1  0
  6  5  2  0
  7  6  1  0
  8  3  1  0
  8  7  2  0
  9  1  1  0
 10  9  2  0
 11  9  1  0
 13 12  1  0
 13 11  1  0
  4 14  1  0
  5 15  1  0
  6 16  1  0
  7 17  1  0
  8 18  1  0
 11 19  1  0
 11 20  1  0
 12 21  1  0
 12 22  1  0
 12 23  1  0
 13 24  1  0
 13 25  1  0
M  END
>  <score>  (6) 
-6.92

$$$$
=
     RDKit          3D

 25 25  0  0  0  0  0  0  0  0999 V2000
    2.5550   69.5430   67.9840 C   0  0  0  0  0  0  0  0  0  0  0  0
    2.8810   70.1200   69.0150 O   0  0  0  0  0  0  0  0  0  0  0  0
    3.4470   69.5030   66.7970 C   0  0  0  0  0  0  0  0  0  0  0  0
    4.8010   69.8570   66.8580 C   0  0  0  0  0  0  0  0  0  0  0  0
    5.5980   69.7810   65.7130 C   0  0  0  0  0  0  0  0  0  0  0  0
    5.0520   69.3520   64.5040 C   0  0  0  0  0  0  0  0  0  0  0  0
    3.7070   68.9950   64.4360 C   0  0  0  0  0  0  0  0  0  0  0  0
    2.9070   69.0690   65.5770 C   0  0  0  0  0  0  0  0  0  0  0  0
    1.1790   68.9090   67.9410 C   0  0  0  0  0  0  0  0  0  0  0  0
    0.1930   69.6000   67.7150 O   0  0  0  0  0  0  0  0  0  0  0  0
    1.1210   67.4170   68.1660 C   0  0  0  0  0  0  0  0  0  0  0  0
    0.3200   66.0260   70.1020 C   0  0  0  0  0  0  0  0  0  0  0  0
    1.3240   67.0660   69.6350 C   0  0  0  0  0  0  0  0  0  0  0  0
    5.2376   70.1955   67.8092 H   0  0  0  0  0  0  0  0  0  0  0  0
    6.6605   70.0608   65.7656 H   0  0  0  0  0  0  0  0  0  0  0  0
    5.6827   69.2954   63.6045 H   0  0  0  0  0  0  0  0  0  0  0  0
    3.2757   68.6548   63.4830 H   0  0  0  0  0  0  0  0  0  0  0  0
    1.8458   68.7851   65.5195 H   0  0  0  0  0  0  0  0  0  0  0  0
    0.1380   67.0445   67.8419 H   0  0  0  0  0  0  0  0  0  0  0  0
    1.9283   66.9483   67.5842 H   0  0  0  0  0  0  0  0  0  0  0  0
    0.2991   66.0044   71.2016 H   0  0  0  0  0  0  0  0  0  0  0  0
   -0.6792   66.2841   69.7213 H   0  0  0  0  0  0  0  0  0  0  0  0
    0.6131   65.0365   69.7213 H   0  0  0  0  0  0  0  0  0  0  0  0
    1.2033   67.9766   70.2402 H   0  0  0  0  0  0  0  0  0  0  0  0
    2.3347   66.6483   69.7539 H   0  0  0  0  0  0  0  0  0  0  0  0
  2  1  2  0
  3  1  1  0
  4  3  2  0
  5  4  1  0
  6  5  2  0
  7  6  1  0
  8  3  1  0
  8  7  2  0
  9  1  1  0
 10  9  2  0
 11  9  1  0
 13 12  1  0
 13 11  1  0
  4 14  1  0
  5 15  1  0
  6 16  1  0
  7 17  1  0
  8 18  1  0
 11 19  1  0
 11 20  1  0
 12 21  1  0
 12 22  1  0
 12 23  1  0
 13 24  1  0
 13 25  1  0
M  END
>  <score>  (7) 
-6.852

$$$$
=
     RDKit          3D

 25 25  0  0  0  0  0  0  0  0999 V2000
    1.1650   67.7130   65.3610 C   0  0  0  0  0  0  0  0  0  0  0  0
    1.1690   66.5000   65.1830 O   0  0  0  0  0  0  0  0  0  0  0  0
    2.4150   68.4660   65.6350 C   0  0  0  0  0  0  0  0  0  0  0  0
    2.7050   69.0170   66.8890 C   0  0  0  0  0  0  0  0  0  0  0  0
    3.9080   69.6990   67.0940 C   0  0  0  0  0  0  0  0  0  0  0  0
    4.8260   69.8320   66.0540 C   0  0  0  0  0  0  0  0  0  0  0  0
    4.5460   69.2840   64.8040 C   0  0  0  0  0  0  0  0  0  0  0  0
    3.3470   68.6030   64.5940 C   0  0  0  0  0  0  0  0  0  0  0  0
   -0.1770   68.4190   65.3430 C   0  0  0  0  0  0  0  0  0  0  0  0
   -0.6640   68.7820   64.2790 O   0  0  0  0  0  0  0  0  0  0  0  0
   -0.8510   68.6130   66.6800 C   0  0  0  0  0  0  0  0  0  0  0  0
   -0.7460   66.8180   68.4380 C   0  0  0  0  0  0  0  0  0  0  0  0
   -1.4600   67.3140   67.1920 C   0  0  0  0  0  0  0  0  0  0  0  0
    1.9851   68.9131   67.7142 H   0  0  0  0  0  0  0  0  0  0  0  0
    4.1309   70.1324   68.0802 H   0  0  0  0  0  0  0  0  0  0  0  0
    5.7713   70.3694   66.2199 H   0  0  0  0  0  0  0  0  0  0  0  0
    5.2704   69.3884   63.9828 H   0  0  0  0  0  0  0  0  0  0  0  0
    3.1302   68.1704   63.6062 H   0  0  0  0  0  0  0  0  0  0  0  0
   -0.1066   68.9697   67.4071 H   0  0  0  0  0  0  0  0  0  0  0  0
   -1.6600   69.3478   66.5552 H   0  0  0  0  0  0  0  0  0  0  0  0
   -1.2722   67.1835   69.3321 H   0  0  0  0  0  0  0  0  0  0  0  0
   -0.7368   65.7180   68.4420 H   0  0  0  0  0  0  0  0  0  0  0  0
    0.2880   67.1933   68.4420 H   0  0  0  0  0  0  0  0  0  0  0  0
   -1.3815   66.5482   66.4062 H   0  0  0  0  0  0  0  0  0  0  0  0
   -2.5124   67.5040   67.4496 H   0  0  0  0  0  0  0  0  0  0  0  0
  2  1  2  0
  3  1  1  0
  4  3  2  0
  5  4  1  0
  6  5  2  0
  7  6  1  0
  8  3  1  0
  8  7  2  0
  9  1  1  0
 10  9  2  0
 11  9  1  0
 13 12  1  0
 13 11  1  0
  4 14  1  0
  5 15  1  0
  6 16  1  0
  7 17  1  0
  8 18  1  0
 11 19  1  0
 11 20  1  0
 12 21  1  0
 12 22  1  0
 12 23  1  0
 13 24  1  0
 13 25  1  0
M  END
>  <score>  (8) 
-6.846

$$$$
=
     RDKit          3D

 25 25  0  0  0  0  0  0  0  0999 V2000
    2.0380   69.4020   67.2250 C   0  0  0  0  0  0  0  0  0  0  0  0
    1.2550   69.9170   68.0160 O   0  0  0  0  0  0  0  0  0  0  0  0
    3.4830   69.7460   67.2220 C   0  0  0  0  0  0  0  0  0  0  0  0
    4.2870   69.6130   66.0840 C   0  0  0  0  0  0  0  0  0  0  0  0
    5.6380   69.9710   66.1340 C   0  0  0  0  0  0  0  0  0  0  0  0
    6.1900   70.4660   67.3140 C   0  0  0  0  0  0  0  0  0  0  0  0
    5.3940   70.6050   68.4500 C   0  0  0  0  0  0  0  0  0  0  0  0
    4.0460   70.2480   68.4050 C   0  0  0  0  0  0  0  0  0  0  0  0
    1.4690   68.4330   66.2080 C   0  0  0  0  0  0  0  0  0  0  0  0
    0.6380   68.8150   65.3950 O   0  0  0  0  0  0  0  0  0  0  0  0
    2.0030   67.0210   66.2560 C   0  0  0  0  0  0  0  0  0  0  0  0
    3.4370   66.6360   64.2260 C   0  0  0  0  0  0  0  0  0  0  0  0
    2.0780   66.4040   64.8650 C   0  0  0  0  0  0  0  0  0  0  0  0
    3.8556   69.2263   65.1489 H   0  0  0  0  0  0  0  0  0  0  0  0
    6.2673   69.8614   65.2385 H   0  0  0  0  0  0  0  0  0  0  0  0
    7.2530   70.7468   67.3490 H   0  0  0  0  0  0  0  0  0  0  0  0
    5.8286   70.9961   69.3817 H   0  0  0  0  0  0  0  0  0  0  0  0
    3.4206   70.3608   69.3028 H   0  0  0  0  0  0  0  0  0  0  0  0
    3.0113   67.0351   66.6955 H   0  0  0  0  0  0  0  0  0  0  0  0
    1.3180   66.4139   66.8660 H   0  0  0  0  0  0  0  0  0  0  0  0
    4.1948   66.7654   65.0127 H   0  0  0  0  0  0  0  0  0  0  0  0
    3.7011   65.7700   63.6013 H   0  0  0  0  0  0  0  0  0  0  0  0
    3.3988   67.5406   63.6013 H   0  0  0  0  0  0  0  0  0  0  0  0
    1.3024   66.8576   64.2304 H   0  0  0  0  0  0  0  0  0  0  0  0
    1.9214   65.3193   64.9594 H   0  0  0  0  0  0  0  0  0  0  0  0
  2  1  2  0
  3  1  1  0
  4  3  2  0
  5  4  1  0
  6  5  2  0
  7  6  1  0
  8  3  1  0
  8  7  2  0
  9  1  1  0
 10  9  2  0
 11  9  1  0
 13 12  1  0
 13 11  1  0
  4 14  1  0
  5 15  1  0
  6 16  1  0
  7 17  1  0
  8 18  1  0
 11 19  1  0
 11 20  1  0
 12 21  1  0
 12 22  1  0
 12 23  1  0
 13 24  1  0
 13 25  1  0
M  END
>  <score>  (9) 
-6.557

$$$$
