=
     RDKit          3D

 39 40  0  0  0  0  0  0  0  0999 V2000
    6.7090   70.9260   68.2460 C   0  0  0  0  0  0  0  0  0  0  0  0
    6.7620   70.3590   66.9750 C   0  0  0  0  0  0  0  0  0  0  0  0
    5.6040   69.8370   66.3910 C   0  0  0  0  0  0  0  0  0  0  0  0
    4.3780   69.8710   67.0710 C   0  0  0  0  0  0  0  0  0  0  0  0
    4.3140   70.4620   68.3430 C   0  0  0  0  0  0  0  0  0  0  0  0
    5.4880   70.9720   68.9220 C   0  0  0  0  0  0  0  0  0  0  0  0
    3.0280   70.5120   69.1310 C   0  0  0  0  0  0  0  0  0  0  0  0
    1.7870   70.2800   68.2720 C   0  0  0  0  0  0  0  0  0  0  0  0
    1.9910   69.0580   67.3760 C   0  0  2  0  0  0  0  0  0  0  0  0
    3.1440   69.3240   66.3960 C   0  0  0  0  0  0  0  0  0  0  0  0
    8.0210   70.9400   70.2280 C   0  0  0  0  0  0  0  0  0  0  0  0
    7.7630   71.4650   68.9320 O   0  0  0  0  0  0  0  0  0  0  0  0
    0.7630   68.7880   66.5920 N   0  0  0  0  0  0  0  0  0  0  0  0
    0.1010   67.2500   66.6420 S   0  0  0  0  0  6  0  0  0  0  0  0
    0.5780   66.5090   65.5010 O   0  0  0  0  0  0  0  0  0  0  0  0
    0.3160   66.7900   67.9920 O   0  0  0  0  0  0  0  0  0  0  0  0
   -1.5270   67.6030   66.4490 N   0  0  0  0  0  0  0  0  0  0  0  0
   -2.4230   67.2250   67.5530 C   0  0  0  0  0  0  0  0  0  0  0  0
   -1.9040   68.8570   65.7900 C   0  0  0  0  0  0  0  0  0  0  0  0
    7.7166   70.3218   66.4297 H   0  0  0  0  0  0  0  0  0  0  0  0
    5.6552   69.3940   65.3854 H   0  0  0  0  0  0  0  0  0  0  0  0
    5.4446   71.4162   69.9274 H   0  0  0  0  0  0  0  0  0  0  0  0
    3.0645   69.7357   69.9095 H   0  0  0  0  0  0  0  0  0  0  0  0
    2.9456   71.5222   69.5585 H   0  0  0  0  0  0  0  0  0  0  0  0
    0.9183   70.1115   68.9254 H   0  0  0  0  0  0  0  0  0  0  0  0
    1.6142   71.1647   67.6415 H   0  0  0  0  0  0  0  0  0  0  0  0
    2.2231   68.1917   68.0129 H   0  0  0  0  0  0  0  0  0  0  0  0
    3.4065   68.3785   65.8988 H   0  0  0  0  0  0  0  0  0  0  0  0
    2.7976   70.0829   65.6790 H   0  0  0  0  0  0  0  0  0  0  0  0
    7.6706   71.6530   70.9889 H   0  0  0  0  0  0  0  0  0  0  0  0
    7.4899   69.9843   70.3489 H   0  0  0  0  0  0  0  0  0  0  0  0
    9.1021   70.7766   70.3489 H   0  0  0  0  0  0  0  0  0  0  0  0
    0.0398   69.4407   66.9264 H   0  0  0  0  0  0  0  0  0  0  0  0
   -1.9293   67.4333   68.5137 H   0  0  0  0  0  0  0  0  0  0  0  0
   -3.3539   67.8071   67.4854 H   0  0  0  0  0  0  0  0  0  0  0  0
   -2.6557   66.1520   67.4854 H   0  0  0  0  0  0  0  0  0  0  0  0
   -2.1325   69.6171   66.5516 H   0  0  0  0  0  0  0  0  0  0  0  0
   -1.0711   69.2060   65.1620 H   0  0  0  0  0  0  0  0  0  0  0  0
   -2.7913   68.6888   65.1620 H   0  0  0  0  0  0  0  0  0  0  0  0
  2  1  2  0
  3  2  1  0
  4  3  2  0
  5  4  1  0
  6  5  2  0
  6  1  1  0
  7  5  1  0
  8  7  1  0
  9  8  1  0
 10  9  1  0
 10  4  1  0
 12 11  1  0
 12  1  1  0
 13  9  1  0
 14 13  1  0
 15 14  2  0
 16 14  2  0
 17 14  1  0
 18 17  1  0
 19 17  1  0
  2 20  1  0
  3 21  1  0
  6 22  1  0
  7 23  1  0
  7 24  1  0
  8 25  1  0
  8 26  1  0
  9 27  1  1
 10 28  1  0
 10 29  1  0
 11 30  1  0
 11 31  1  0
 11 32  1  0
 13 33  1  0
 18 34  1  0
 18 35  1  0
 18 36  1  0
 19 37  1  0
 19 38  1  0
 19 39  1  0
M  END
>  <score>  (1) 
-9.372

$$$$
=
     RDKit          3D

 39 40  0  0  0  0  0  0  0  0999 V2000
    6.2140   70.6370   68.8100 C   0  0  0  0  0  0  0  0  0  0  0  0
    6.7650   70.6480   67.5310 C   0  0  0  0  0  0  0  0  0  0  0  0
    5.9840   70.2900   66.4280 C   0  0  0  0  0  0  0  0  0  0  0  0
    4.6430   69.9140   66.5890 C   0  0  0  0  0  0  0  0  0  0  0  0
    4.0750   69.9230   67.8730 C   0  0  0  0  0  0  0  0  0  0  0  0
    4.8760   70.2730   68.9730 C   0  0  0  0  0  0  0  0  0  0  0  0
    2.6440   69.5110   68.1120 C   0  0  0  0  0  0  0  0  0  0  0  0
    1.7960   69.5200   66.8420 C   0  0  0  0  0  0  0  0  0  0  0  0
    2.5350   68.8000   65.7130 C   0  0  2  0  0  0  0  0  0  0  0  0
    3.8230   69.5630   65.3710 C   0  0  0  0  0  0  0  0  0  0  0  0
    8.2870   70.9480   69.9330 C   0  0  0  0  0  0  0  0  0  0  0  0
    6.8650   70.9570   69.9700 O   0  0  0  0  0  0  0  0  0  0  0  0
    1.6860   68.7450   64.5000 N   0  0  0  0  0  0  0  0  0  0  0  0
    1.4890   67.2740   63.7240 S   0  0  0  0  0  6  0  0  0  0  0  0
    1.4970   66.2280   64.7160 O   0  0  0  0  0  0  0  0  0  0  0  0
    0.3730   67.4650   62.8290 O   0  0  0  0  0  0  0  0  0  0  0  0
    2.8980   67.2060   62.8170 N   0  0  0  0  0  0  0  0  0  0  0  0
    3.2600   68.4170   62.0620 C   0  0  0  0  0  0  0  0  0  0  0  0
    4.0530   66.4850   63.3600 C   0  0  0  0  0  0  0  0  0  0  0  0
    7.8162   70.9388   67.3884 H   0  0  0  0  0  0  0  0  0  0  0  0
    6.4272   70.3035   65.4213 H   0  0  0  0  0  0  0  0  0  0  0  0
    4.4402   70.2600   69.9829 H   0  0  0  0  0  0  0  0  0  0  0  0
    2.6381   68.4932   68.5293 H   0  0  0  0  0  0  0  0  0  0  0  0
    2.2039   70.2436   68.8045 H   0  0  0  0  0  0  0  0  0  0  0  0
    0.8423   69.0080   67.0374 H   0  0  0  0  0  0  0  0  0  0  0  0
    1.6065   70.5613   66.5423 H   0  0  0  0  0  0  0  0  0  0  0  0
    2.7736   67.7790   66.0457 H   0  0  0  0  0  0  0  0  0  0  0  0
    4.4350   68.9366   64.7053 H   0  0  0  0  0  0  0  0  0  0  0  0
    3.5277   70.5074   64.8904 H   0  0  0  0  0  0  0  0  0  0  0  0
    8.6805   70.9455   70.9602 H   0  0  0  0  0  0  0  0  0  0  0  0
    8.6344   70.0476   69.4051 H   0  0  0  0  0  0  0  0  0  0  0  0
    8.6457   71.8439   69.4051 H   0  0  0  0  0  0  0  0  0  0  0  0
    0.7480   69.0731   64.7710 H   0  0  0  0  0  0  0  0  0  0  0  0
    3.5025   69.2281   62.7643 H   0  0  0  0  0  0  0  0  0  0  0  0
    4.1345   68.2066   61.4288 H   0  0  0  0  0  0  0  0  0  0  0  0
    2.4135   68.7211   61.4288 H   0  0  0  0  0  0  0  0  0  0  0  0
    4.0160   66.5081   64.4591 H   0  0  0  0  0  0  0  0  0  0  0  0
    4.0293   65.4410   63.0142 H   0  0  0  0  0  0  0  0  0  0  0  0
    4.9805   66.9648   63.0142 H   0  0  0  0  0  0  0  0  0  0  0  0
  2  1  2  0
  3  2  1  0
  4  3  2  0
  5  4  1  0
  6  5  2  0
  6  1  1  0
  7  5  1  0
  8  7  1  0
  9  8  1  0
 10  9  1  0
 10  4  1  0
 12 11  1  0
 12  1  1  0
 13  9  1  0
 14 13  1  0
 15 14  2  0
 16 14  2  0
 17 14  1  0
 18 17  1  0
 19 17  1  0
  2 20  1  0
  3 21  1  0
  6 22  1  0
  7 23  1  0
  7 24  1  0
  8 25  1  0
  8 26  1  0
  9 27  1  1
 10 28  1  0
 10 29  1  0
 11 30  1  0
 11 31  1  0
 11 32  1  0
 13 33  1  0
 18 34  1  0
 18 35  1  0
 18 36  1  0
 19 37  1  0
 19 38  1  0
 19 39  1  0
M  END
>  <score>  (2) 
-7.511

$$$$
=
     RDKit          3D

 39 40  0  0  0  0  0  0  0  0999 V2000
    3.1250   61.7460   72.1180 C   0  0  0  0  0  0  0  0  0  0  0  0
    4.0100   62.2980   71.1950 C   0  0  0  0  0  0  0  0  0  0  0  0
    3.6630   63.4610   70.5000 C   0  0  0  0  0  0  0  0  0  0  0  0
    2.4260   64.0850   70.7160 C   0  0  0  0  0  0  0  0  0  0  0  0
    1.5400   63.5460   71.6630 C   0  0  0  0  0  0  0  0  0  0  0  0
    1.8970   62.3710   72.3440 C   0  0  0  0  0  0  0  0  0  0  0  0
    0.1880   64.1620   71.9250 C   0  0  0  0  0  0  0  0  0  0  0  0
    0.0750   65.6000   71.4230 C   0  0  0  0  0  0  0  0  0  0  0  0
    0.6030   65.6980   69.9910 C   0  0  2  0  0  0  0  0  0  0  0  0
    2.1000   65.3550   69.9690 C   0  0  0  0  0  0  0  0  0  0  0  0
    4.0440   59.5560   72.2260 C   0  0  0  0  0  0  0  0  0  0  0  0
    3.3350   60.6140   72.8580 O   0  0  0  0  0  0  0  0  0  0  0  0
    0.4300   67.0760   69.4760 N   0  0  0  0  0  0  0  0  0  0  0  0
    0.1920   67.2940   67.8320 S   0  0  0  0  0  6  0  0  0  0  0  0
    1.3990   66.9190   67.1400 O   0  0  0  0  0  0  0  0  0  0  0  0
   -1.0750   66.6640   67.5470 O   0  0  0  0  0  0  0  0  0  0  0  0
   -0.0090   68.9570   67.7620 N   0  0  0  0  0  0  0  0  0  0  0  0
    1.2140   69.7750   67.7830 C   0  0  0  0  0  0  0  0  0  0  0  0
   -1.0680   69.5050   66.9070 C   0  0  0  0  0  0  0  0  0  0  0  0
    4.9831   61.8186   71.0124 H   0  0  0  0  0  0  0  0  0  0  0  0
    4.3693   63.8916   69.7749 H   0  0  0  0  0  0  0  0  0  0  0  0
    1.1953   61.9343   73.0699 H   0  0  0  0  0  0  0  0  0  0  0  0
   -0.5770   63.5541   71.4198 H   0  0  0  0  0  0  0  0  0  0  0  0
    0.0444   64.1840   73.0154 H   0  0  0  0  0  0  0  0  0  0  0  0
   -0.9798   65.9113   71.4443 H   0  0  0  0  0  0  0  0  0  0  0  0
    0.6714   66.2570   72.0731 H   0  0  0  0  0  0  0  0  0  0  0  0
    0.0408   64.9929   69.3611 H   0  0  0  0  0  0  0  0  0  0  0  0
    2.4170   65.2370   68.9223 H   0  0  0  0  0  0  0  0  0  0  0  0
    2.6328   66.1768   70.4698 H   0  0  0  0  0  0  0  0  0  0  0  0
    4.4835   58.9002   72.9920 H   0  0  0  0  0  0  0  0  0  0  0  0
    3.3524   58.9746   71.5985 H   0  0  0  0  0  0  0  0  0  0  0  0
    4.8446   59.9746   71.5985 H   0  0  0  0  0  0  0  0  0  0  0  0
   -0.3864   67.4796   69.9571 H   0  0  0  0  0  0  0  0  0  0  0  0
    1.5064   69.9706   68.8252 H   0  0  0  0  0  0  0  0  0  0  0  0
    2.0242   69.2364   67.2697 H   0  0  0  0  0  0  0  0  0  0  0  0
    1.0256   70.7295   67.2697 H   0  0  0  0  0  0  0  0  0  0  0  0
   -1.8694   69.9197   67.5361 H   0  0  0  0  0  0  0  0  0  0  0  0
   -0.6515   70.3007   66.2719 H   0  0  0  0  0  0  0  0  0  0  0  0
   -1.4771   68.7054   66.2719 H   0  0  0  0  0  0  0  0  0  0  0  0
  2  1  2  0
  3  2  1  0
  4  3  2  0
  5  4  1  0
  6  5  2  0
  6  1  1  0
  7  5  1  0
  8  7  1  0
  9  8  1  0
 10  9  1  0
 10  4  1  0
 12 11  1  0
 12  1  1  0
 13  9  1  0
 14 13  1  0
 15 14  2  0
 16 14  2  0
 17 14  1  0
 18 17  1  0
 19 17  1  0
  2 20  1  0
  3 21  1  0
  6 22  1  0
  7 23  1  0
  7 24  1  0
  8 25  1  0
  8 26  1  0
  9 27  1  6
 10 28  1  0
 10 29  1  0
 11 30  1  0
 11 31  1  0
 11 32  1  0
 13 33  1  0
 18 34  1  0
 18 35  1  0
 18 36  1  0
 19 37  1  0
 19 38  1  0
 19 39  1  0
M  END
>  <score>  (3) 
-6.932

$$$$
=
     RDKit          3D

 39 40  0  0  0  0  0  0  0  0999 V2000
    3.1670   62.0530   70.1780 C   0  0  0  0  0  0  0  0  0  0  0  0
    3.8510   61.0360   69.5150 C   0  0  0  0  0  0  0  0  0  0  0  0
    3.7530   59.7160   69.9650 C   0  0  0  0  0  0  0  0  0  0  0  0
    2.9740   59.3940   71.0860 C   0  0  0  0  0  0  0  0  0  0  0  0
    2.2640   60.4120   71.7450 C   0  0  0  0  0  0  0  0  0  0  0  0
    2.3810   61.7350   71.2880 C   0  0  0  0  0  0  0  0  0  0  0  0
    1.4250   60.1310   72.9670 C   0  0  0  0  0  0  0  0  0  0  0  0
    1.0800   58.6530   73.1320 C   0  0  0  0  0  0  0  0  0  0  0  0
    2.3360   57.7990   72.9570 C   0  0  2  0  0  0  0  0  0  0  0  0
    2.8690   57.9540   71.5240 C   0  0  0  0  0  0  0  0  0  0  0  0
    2.3410   64.2400   70.6100 C   0  0  0  0  0  0  0  0  0  0  0  0
    3.1810   63.3800   69.8490 O   0  0  0  0  0  0  0  0  0  0  0  0
    2.0190   56.3700   73.1860 N   0  0  0  0  0  0  0  0  0  0  0  0
    2.1030   55.7700   74.7480 S   0  0  0  0  0  6  0  0  0  0  0  0
    2.6330   54.4310   74.6960 O   0  0  0  0  0  0  0  0  0  0  0  0
    2.7390   56.8110   75.5190 O   0  0  0  0  0  0  0  0  0  0  0  0
    0.4770   55.7210   75.1540 N   0  0  0  0  0  0  0  0  0  0  0  0
    0.0100   56.7030   76.1450 C   0  0  0  0  0  0  0  0  0  0  0  0
   -0.5040   55.4360   74.1020 C   0  0  0  0  0  0  0  0  0  0  0  0
    4.4690   61.2721   68.6362 H   0  0  0  0  0  0  0  0  0  0  0  0
    4.2939   58.9195   69.4329 H   0  0  0  0  0  0  0  0  0  0  0  0
    1.8428   62.5368   71.8148 H   0  0  0  0  0  0  0  0  0  0  0  0
    1.9811   60.4618   73.8566 H   0  0  0  0  0  0  0  0  0  0  0  0
    0.4775   60.6766   72.8459 H   0  0  0  0  0  0  0  0  0  0  0  0
    0.6634   58.4863   74.1363 H   0  0  0  0  0  0  0  0  0  0  0  0
    0.3409   58.3679   72.3689 H   0  0  0  0  0  0  0  0  0  0  0  0
    3.0907   58.1334   73.6841 H   0  0  0  0  0  0  0  0  0  0  0  0
    3.8685   57.4977   71.4706 H   0  0  0  0  0  0  0  0  0  0  0  0
    2.1540   57.4572   70.8517 H   0  0  0  0  0  0  0  0  0  0  0  0
    2.5121   64.0648   71.6824 H   0  0  0  0  0  0  0  0  0  0  0  0
    2.5732   65.2876   70.3680 H   0  0  0  0  0  0  0  0  0  0  0  0
    1.2882   64.0325   70.3680 H   0  0  0  0  0  0  0  0  0  0  0  0
    1.0568   56.2153   72.8527 H   0  0  0  0  0  0  0  0  0  0  0  0
    0.1936   56.3169   77.1585 H   0  0  0  0  0  0  0  0  0  0  0  0
    0.5547   57.6489   76.0087 H   0  0  0  0  0  0  0  0  0  0  0  0
   -1.0675   56.8774   76.0087 H   0  0  0  0  0  0  0  0  0  0  0  0
   -1.4638   55.1572   74.5614 H   0  0  0  0  0  0  0  0  0  0  0  0
   -0.6426   56.3310   73.4777 H   0  0  0  0  0  0  0  0  0  0  0  0
   -0.1415   54.6060   73.4777 H   0  0  0  0  0  0  0  0  0  0  0  0
  2  1  2  0
  3  2  1  0
  4  3  2  0
  5  4  1  0
  6  5  2  0
  6  1  1  0
  7  5  1  0
  8  7  1  0
  9  8  1  0
 10  9  1  0
 10  4  1  0
 12 11  1  0
 12  1  1  0
 13  9  1  0
 14 13  1  0
 15 14  2  0
 16 14  2  0
 17 14  1  0
 18 17  1  0
 19 17  1  0
  2 20  1  0
  3 21  1  0
  6 22  1  0
  7 23  1  0
  7 24  1  0
  8 25  1  0
  8 26  1  0
  9 27  1  1
 10 28  1  0
 10 29  1  0
 11 30  1  0
 11 31  1  0
 11 32  1  0
 13 33  1  0
 18 34  1  0
 18 35  1  0
 18 36  1  0
 19 37  1  0
 19 38  1  0
 19 39  1  0
M  END
>  <score>  (4) 
-6.682

$$$$
=
     RDKit          3D

 39 40  0  0  0  0  0  0  0  0999 V2000
   -1.9890   59.3550   74.5700 C   0  0  0  0  0  0  0  0  0  0  0  0
   -1.9310   60.5910   73.9300 C   0  0  0  0  0  0  0  0  0  0  0  0
   -0.8130   60.9300   73.1600 C   0  0  0  0  0  0  0  0  0  0  0  0
    0.2620   60.0410   73.0230 C   0  0  0  0  0  0  0  0  0  0  0  0
    0.1990   58.7840   73.6470 C   0  0  0  0  0  0  0  0  0  0  0  0
   -0.9240   58.4620   74.4270 C   0  0  0  0  0  0  0  0  0  0  0  0
    1.3320   57.7930   73.5520 C   0  0  0  0  0  0  0  0  0  0  0  0
    2.2970   58.0910   72.4060 C   0  0  0  0  0  0  0  0  0  0  0  0
    2.6840   59.5700   72.4180 C   0  0  2  0  0  0  0  0  0  0  0  0
    1.4370   60.4310   72.1610 C   0  0  0  0  0  0  0  0  0  0  0  0
   -2.9400   57.5490   75.7870 C   0  0  0  0  0  0  0  0  0  0  0  0
   -3.0140   58.9010   75.3530 O   0  0  0  0  0  0  0  0  0  0  0  0
    3.6730   59.8480   71.3510 N   0  0  0  0  0  0  0  0  0  0  0  0
    4.7800   61.0840   71.5850 S   0  0  0  0  0  6  0  0  0  0  0  0
    4.6780   61.5380   72.9490 O   0  0  0  0  0  0  0  0  0  0  0  0
    6.0200   60.5890   71.0380 O   0  0  0  0  0  0  0  0  0  0  0  0
    4.1670   62.2540   70.5500 N   0  0  0  0  0  0  0  0  0  0  0  0
    4.9370   63.5020   70.4310 C   0  0  0  0  0  0  0  0  0  0  0  0
    3.5400   61.8280   69.2950 C   0  0  0  0  0  0  0  0  0  0  0  0
   -2.7650   61.3012   74.0301 H   0  0  0  0  0  0  0  0  0  0  0  0
   -0.7772   61.9069   72.6556 H   0  0  0  0  0  0  0  0  0  0  0  0
   -0.9658   57.4874   74.9353 H   0  0  0  0  0  0  0  0  0  0  0  0
    1.8945   57.8133   74.4971 H   0  0  0  0  0  0  0  0  0  0  0  0
    0.8876   56.8058   73.3571 H   0  0  0  0  0  0  0  0  0  0  0  0
    3.2021   57.4769   72.5232 H   0  0  0  0  0  0  0  0  0  0  0  0
    1.8061   57.8545   71.4505 H   0  0  0  0  0  0  0  0  0  0  0  0
    3.1188   59.8106   73.3994 H   0  0  0  0  0  0  0  0  0  0  0  0
    1.6886   61.4820   72.3664 H   0  0  0  0  0  0  0  0  0  0  0  0
    1.1412   60.2761   71.1129 H   0  0  0  0  0  0  0  0  0  0  0  0
   -2.9382   57.5164   76.8865 H   0  0  0  0  0  0  0  0  0  0  0  0
   -3.8091   56.9932   75.4051 H   0  0  0  0  0  0  0  0  0  0  0  0
   -2.0155   57.0914   75.4051 H   0  0  0  0  0  0  0  0  0  0  0  0
    4.2113   58.9824   71.2031 H   0  0  0  0  0  0  0  0  0  0  0  0
    5.1729   63.8844   71.4350 H   0  0  0  0  0  0  0  0  0  0  0  0
    5.8712   63.3057   69.8845 H   0  0  0  0  0  0  0  0  0  0  0  0
    4.3425   64.2489   69.8845 H   0  0  0  0  0  0  0  0  0  0  0  0
    2.6489   61.2226   69.5173 H   0  0  0  0  0  0  0  0  0  0  0  0
    3.2456   62.7138   68.7130 H   0  0  0  0  0  0  0  0  0  0  0  0
    4.2551   61.2280   68.7130 H   0  0  0  0  0  0  0  0  0  0  0  0
  2  1  2  0
  3  2  1  0
  4  3  2  0
  5  4  1  0
  6  5  2  0
  6  1  1  0
  7  5  1  0
  8  7  1  0
  9  8  1  0
 10  9  1  0
 10  4  1  0
 12 11  1  0
 12  1  1  0
 13  9  1  0
 14 13  1  0
 15 14  2  0
 16 14  2  0
 17 14  1  0
 18 17  1  0
 19 17  1  0
  2 20  1  0
  3 21  1  0
  6 22  1  0
  7 23  1  0
  7 24  1  0
  8 25  1  0
  8 26  1  0
  9 27  1  1
 10 28  1  0
 10 29  1  0
 11 30  1  0
 11 31  1  0
 11 32  1  0
 13 33  1  0
 18 34  1  0
 18 35  1  0
 18 36  1  0
 19 37  1  0
 19 38  1  0
 19 39  1  0
M  END
>  <score>  (5) 
-6.642

$$$$
=
     RDKit          3D

 39 40  0  0  0  0  0  0  0  0999 V2000
   -1.5980   59.1790   74.2680 C   0  0  0  0  0  0  0  0  0  0  0  0
   -0.4220   58.4320   74.2440 C   0  0  0  0  0  0  0  0  0  0  0  0
    0.7340   58.9620   73.6610 C   0  0  0  0  0  0  0  0  0  0  0  0
    0.7290   60.2440   73.0920 C   0  0  0  0  0  0  0  0  0  0  0  0
   -0.4470   61.0110   73.1350 C   0  0  0  0  0  0  0  0  0  0  0  0
   -1.6030   60.4610   73.7120 C   0  0  0  0  0  0  0  0  0  0  0  0
   -0.5180   62.3880   72.5230 C   0  0  0  0  0  0  0  0  0  0  0  0
    0.8550   63.0070   72.2750 C   0  0  0  0  0  0  0  0  0  0  0  0
    1.7670   61.9980   71.5770 C   0  0  2  0  0  0  0  0  0  0  0  0
    2.0040   60.7930   72.5000 C   0  0  0  0  0  0  0  0  0  0  0  0
   -3.8120   59.7700   74.9000 C   0  0  0  0  0  0  0  0  0  0  0  0
   -2.7950   58.7810   74.7980 O   0  0  0  0  0  0  0  0  0  0  0  0
    3.0770   62.6180   71.2710 N   0  0  0  0  0  0  0  0  0  0  0  0
    3.7170   62.4270   69.7340 S   0  0  0  0  0  6  0  0  0  0  0  0
    2.6280   62.3080   68.7970 O   0  0  0  0  0  0  0  0  0  0  0  0
    4.7180   63.4580   69.6110 O   0  0  0  0  0  0  0  0  0  0  0  0
    4.4890   60.9470   69.8980 N   0  0  0  0  0  0  0  0  0  0  0  0
    5.3470   60.7740   71.0810 C   0  0  0  0  0  0  0  0  0  0  0  0
    3.7710   59.7290   69.5090 C   0  0  0  0  0  0  0  0  0  0  0  0
   -0.4025   57.4241   74.6841 H   0  0  0  0  0  0  0  0  0  0  0  0
    1.6584   58.3659   73.6487 H   0  0  0  0  0  0  0  0  0  0  0  0
   -2.5312   61.0512   73.7266 H   0  0  0  0  0  0  0  0  0  0  0  0
   -1.0481   62.3165   71.5618 H   0  0  0  0  0  0  0  0  0  0  0  0
   -1.0449   63.0369   73.2381 H   0  0  0  0  0  0  0  0  0  0  0  0
    0.7433   63.8975   71.6389 H   0  0  0  0  0  0  0  0  0  0  0  0
    1.3022   63.2900   73.2393 H   0  0  0  0  0  0  0  0  0  0  0  0
    1.2821   61.6753   70.6438 H   0  0  0  0  0  0  0  0  0  0  0  0
    2.4918   59.9967   71.9186 H   0  0  0  0  0  0  0  0  0  0  0  0
    2.6331   61.1364   73.3345 H   0  0  0  0  0  0  0  0  0  0  0  0
   -4.0209   59.9731   75.9607 H   0  0  0  0  0  0  0  0  0  0  0  0
   -3.4747   60.6948   74.4091 H   0  0  0  0  0  0  0  0  0  0  0  0
   -4.7270   59.4070   74.4091 H   0  0  0  0  0  0  0  0  0  0  0  0
    2.9794   63.6301   71.4354 H   0  0  0  0  0  0  0  0  0  0  0  0
    4.7435   60.8957   71.9926 H   0  0  0  0  0  0  0  0  0  0  0  0
    5.7919   59.7681   71.0673 H   0  0  0  0  0  0  0  0  0  0  0  0
    6.1469   61.5289   71.0673 H   0  0  0  0  0  0  0  0  0  0  0  0
    3.4518   59.1875   70.4117 H   0  0  0  0  0  0  0  0  0  0  0  0
    2.8876   59.9990   68.9118 H   0  0  0  0  0  0  0  0  0  0  0  0
    4.4350   59.0868   68.9118 H   0  0  0  0  0  0  0  0  0  0  0  0
  2  1  2  0
  3  2  1  0
  4  3  2  0
  5  4  1  0
  6  5  2  0
  6  1  1  0
  7  5  1  0
  8  7  1  0
  9  8  1  0
 10  9  1  0
 10  4  1  0
 12 11  1  0
 12  1  1  0
 13  9  1  0
 14 13  1  0
 15 14  2  0
 16 14  2  0
 17 14  1  0
 18 17  1  0
 19 17  1  0
  2 20  1  0
  3 21  1  0
  6 22  1  0
  7 23  1  0
  7 24  1  0
  8 25  1  0
  8 26  1  0
  9 27  1  6
 10 28  1  0
 10 29  1  0
 11 30  1  0
 11 31  1  0
 11 32  1  0
 13 33  1  0
 18 34  1  0
 18 35  1  0
 18 36  1  0
 19 37  1  0
 19 38  1  0
 19 39  1  0
M  END
>  <score>  (6) 
-6.63

$$$$
=
     RDKit          3D

 39 40  0  0  0  0  0  0  0  0999 V2000
    4.8660   64.2800   63.8900 C   0  0  0  0  0  0  0  0  0  0  0  0
    3.7720   63.7130   64.5400 C   0  0  0  0  0  0  0  0  0  0  0  0
    2.7520   64.5300   65.0370 C   0  0  0  0  0  0  0  0  0  0  0  0
    2.8120   65.9240   64.8940 C   0  0  0  0  0  0  0  0  0  0  0  0
    3.9020   66.4990   64.2180 C   0  0  0  0  0  0  0  0  0  0  0  0
    4.9250   65.6670   63.7360 C   0  0  0  0  0  0  0  0  0  0  0  0
    4.0320   67.9920   64.0490 C   0  0  0  0  0  0  0  0  0  0  0  0
    2.7190   68.7390   64.2700 C   0  0  0  0  0  0  0  0  0  0  0  0
    2.0490   68.2540   65.5560 C   0  0  2  0  0  0  0  0  0  0  0  0
    1.6770   66.7700   65.4160 C   0  0  0  0  0  0  0  0  0  0  0  0
    5.6580   62.3390   62.7680 C   0  0  0  0  0  0  0  0  0  0  0  0
    5.9320   63.6010   63.3650 O   0  0  0  0  0  0  0  0  0  0  0  0
    0.8110   69.0250   65.8100 N   0  0  0  0  0  0  0  0  0  0  0  0
    0.0030   68.7920   67.2590 S   0  0  0  0  0  6  0  0  0  0  0  0
    0.7810   67.8970   68.0790 O   0  0  0  0  0  0  0  0  0  0  0  0
   -0.3580   70.1150   67.7080 O   0  0  0  0  0  0  0  0  0  0  0  0
   -1.3820   68.0120   66.7250 N   0  0  0  0  0  0  0  0  0  0  0  0
   -2.0540   67.1210   67.6840 C   0  0  0  0  0  0  0  0  0  0  0  0
   -2.3080   68.7380   65.8500 C   0  0  0  0  0  0  0  0  0  0  0  0
    3.7106   62.6215   64.6623 H   0  0  0  0  0  0  0  0  0  0  0  0
    1.8909   64.0734   65.5470 H   0  0  0  0  0  0  0  0  0  0  0  0
    5.7903   66.1164   63.2269 H   0  0  0  0  0  0  0  0  0  0  0  0
    4.7715   68.3628   64.7740 H   0  0  0  0  0  0  0  0  0  0  0  0
    4.3427   68.1775   63.0102 H   0  0  0  0  0  0  0  0  0  0  0  0
    2.9227   69.8170   64.3500 H   0  0  0  0  0  0  0  0  0  0  0  0
    2.0479   68.5472   63.4198 H   0  0  0  0  0  0  0  0  0  0  0  0
    2.7516   68.3944   66.3907 H   0  0  0  0  0  0  0  0  0  0  0  0
    1.3810   66.3882   66.4042 H   0  0  0  0  0  0  0  0  0  0  0  0
    0.8556   66.7042   64.6873 H   0  0  0  0  0  0  0  0  0  0  0  0
    5.4951   61.5885   63.5555 H   0  0  0  0  0  0  0  0  0  0  0  0
    4.7559   62.4170   62.1435 H   0  0  0  0  0  0  0  0  0  0  0  0
    6.5112   62.0358   62.1435 H   0  0  0  0  0  0  0  0  0  0  0  0
    1.0592   70.0233   65.7581 H   0  0  0  0  0  0  0  0  0  0  0  0
   -1.8145   67.4386   68.7095 H   0  0  0  0  0  0  0  0  0  0  0  0
   -3.1420   67.1700   67.5297 H   0  0  0  0  0  0  0  0  0  0  0  0
   -1.7079   66.0883   67.5297 H   0  0  0  0  0  0  0  0  0  0  0  0
   -3.0266   69.3014   66.4634 H   0  0  0  0  0  0  0  0  0  0  0  0
   -1.7419   69.4354   65.2151 H   0  0  0  0  0  0  0  0  0  0  0  0
   -2.8502   68.0218   65.2151 H   0  0  0  0  0  0  0  0  0  0  0  0
  2  1  2  0
  3  2  1  0
  4  3  2  0
  5  4  1  0
  6  5  2  0
  6  1  1  0
  7  5  1  0
  8  7  1  0
  9  8  1  0
 10  9  1  0
 10  4  1  0
 12 11  1  0
 12  1  1  0
 13  9  1  0
 14 13  1  0
 15 14  2  0
 16 14  2  0
 17 14  1  0
 18 17  1  0
 19 17  1  0
  2 20  1  0
  3 21  1  0
  6 22  1  0
  7 23  1  0
  7 24  1  0
  8 25  1  0
  8 26  1  0
  9 27  1  1
 10 28  1  0
 10 29  1  0
 11 30  1  0
 11 31  1  0
 11 32  1  0
 13 33  1  0
 18 34  1  0
 18 35  1  0
 18 36  1  0
 19 37  1  0
 19 38  1  0
 19 39  1  0
M  END
>  <score>  (7) 
-6.531

$$$$
=
     RDKit          3D

 39 40  0  0  0  0  0  0  0  0999 V2000
    2.9550   63.4220   70.2720 C   0  0  0  0  0  0  0  0  0  0  0  0
    4.3240   63.1890   70.3770 C   0  0  0  0  0  0  0  0  0  0  0  0
    4.7970   62.1210   71.1460 C   0  0  0  0  0  0  0  0  0  0  0  0
    3.9080   61.2750   71.8250 C   0  0  0  0  0  0  0  0  0  0  0  0
    2.5250   61.4920   71.7050 C   0  0  0  0  0  0  0  0  0  0  0  0
    2.0660   62.5760   70.9380 C   0  0  0  0  0  0  0  0  0  0  0  0
    1.5200   60.6280   72.4260 C   0  0  0  0  0  0  0  0  0  0  0  0
    2.1020   59.2990   72.9020 C   0  0  0  0  0  0  0  0  0  0  0  0
    3.4350   59.5350   73.6140 C   0  0  2  0  0  0  0  0  0  0  0  0
    4.4540   60.1160   72.6220 C   0  0  0  0  0  0  0  0  0  0  0  0
    1.4620   65.2720   70.2700 C   0  0  0  0  0  0  0  0  0  0  0  0
    2.3620   64.4300   69.5610 O   0  0  0  0  0  0  0  0  0  0  0  0
    3.9680   58.2560   74.1380 N   0  0  0  0  0  0  0  0  0  0  0  0
    3.8300   57.9410   75.7780 S   0  0  0  0  0  6  0  0  0  0  0  0
    4.9440   57.1210   76.1820 O   0  0  0  0  0  0  0  0  0  0  0  0
    3.5680   59.2220   76.3880 O   0  0  0  0  0  0  0  0  0  0  0  0
    2.4190   57.0360   75.8060 N   0  0  0  0  0  0  0  0  0  0  0  0
    1.1920   57.7320   76.2230 C   0  0  0  0  0  0  0  0  0  0  0  0
    2.2000   56.0370   74.7550 C   0  0  0  0  0  0  0  0  0  0  0  0
    5.0345   63.8462   69.8542 H   0  0  0  0  0  0  0  0  0  0  0  0
    5.8799   61.9422   71.2193 H   0  0  0  0  0  0  0  0  0  0  0  0
    0.9846   62.7619   70.8606 H   0  0  0  0  0  0  0  0  0  0  0  0
    1.1480   61.1805   73.3014 H   0  0  0  0  0  0  0  0  0  0  0  0
    0.7160   60.3961   71.7120 H   0  0  0  0  0  0  0  0  0  0  0  0
    1.3970   58.8214   73.5983 H   0  0  0  0  0  0  0  0  0  0  0  0
    2.2685   58.6463   72.0324 H   0  0  0  0  0  0  0  0  0  0  0  0
    3.2687   60.2364   74.4449 H   0  0  0  0  0  0  0  0  0  0  0  0
    5.3334   60.4616   73.1853 H   0  0  0  0  0  0  0  0  0  0  0  0
    4.7097   59.3185   71.9089 H   0  0  0  0  0  0  0  0  0  0  0  0
    1.6076   65.1358   71.3518 H   0  0  0  0  0  0  0  0  0  0  0  0
    1.6547   66.3217   70.0034 H   0  0  0  0  0  0  0  0  0  0  0  0
    0.4275   65.0099   70.0034 H   0  0  0  0  0  0  0  0  0  0  0  0
    3.4798   57.4973   73.6410 H   0  0  0  0  0  0  0  0  0  0  0  0
    1.1419   57.7604   77.3215 H   0  0  0  0  0  0  0  0  0  0  0  0
    1.2014   58.7592   75.8297 H   0  0  0  0  0  0  0  0  0  0  0  0
    0.3152   57.1968   75.8297 H   0  0  0  0  0  0  0  0  0  0  0  0
    1.9861   55.0612   75.2155 H   0  0  0  0  0  0  0  0  0  0  0  0
    1.3475   56.3426   74.1306 H   0  0  0  0  0  0  0  0  0  0  0  0
    3.1021   55.9579   74.1306 H   0  0  0  0  0  0  0  0  0  0  0  0
  2  1  2  0
  3  2  1  0
  4  3  2  0
  5  4  1  0
  6  5  2  0
  6  1  1  0
  7  5  1  0
  8  7  1  0
  9  8  1  0
 10  9  1  0
 10  4  1  0
 12 11  1  0
 12  1  1  0
 13  9  1  0
 14 13  1  0
 15 14  2  0
 16 14  2  0
 17 14  1  0
 18 17  1  0
 19 17  1  0
  2 20  1  0
  3 21  1  0
  6 22  1  0
  7 23  1  0
  7 24  1  0
  8 25  1  0
  8 26  1  0
  9 27  1  1
 10 28  1  0
 10 29  1  0
 11 30  1  0
 11 31  1  0
 11 32  1  0
 13 33  1  0
 18 34  1  0
 18 35  1  0
 18 36  1  0
 19 37  1  0
 19 38  1  0
 19 39  1  0
M  END
>  <score>  (8) 
-6.514

$$$$
=
     RDKit          3D

 39 40  0  0  0  0  0  0  0  0999 V2000
   -2.2670   59.4210   74.3790 C   0  0  0  0  0  0  0  0  0  0  0  0
   -1.4540   58.3360   74.6960 C   0  0  0  0  0  0  0  0  0  0  0  0
   -0.1100   58.3300   74.3110 C   0  0  0  0  0  0  0  0  0  0  0  0
    0.4390   59.4070   73.6010 C   0  0  0  0  0  0  0  0  0  0  0  0
   -0.3690   60.5150   73.2980 C   0  0  0  0  0  0  0  0  0  0  0  0
   -1.7210   60.5010   73.6810 C   0  0  0  0  0  0  0  0  0  0  0  0
    0.1590   61.6950   72.5210 C   0  0  0  0  0  0  0  0  0  0  0  0
    1.6840   61.7630   72.4940 C   0  0  0  0  0  0  0  0  0  0  0  0
    2.2640   60.3950   72.1350 C   0  0  2  0  0  0  0  0  0  0  0  0
    1.9010   59.3780   73.2290 C   0  0  0  0  0  0  0  0  0  0  0  0
   -4.1570   60.8520   74.5610 C   0  0  0  0  0  0  0  0  0  0  0  0
   -3.5930   59.5530   74.6880 O   0  0  0  0  0  0  0  0  0  0  0  0
    3.7400   60.4740   72.0400 N   0  0  0  0  0  0  0  0  0  0  0  0
    4.4420   60.5780   70.5230 S   0  0  0  0  0  6  0  0  0  0  0  0
    5.8750   60.5560   70.6790 O   0  0  0  0  0  0  0  0  0  0  0  0
    3.7500   59.6010   69.7180 O   0  0  0  0  0  0  0  0  0  0  0  0
    3.9470   62.1090   70.0520 N   0  0  0  0  0  0  0  0  0  0  0  0
    4.7450   63.2440   70.5400 C   0  0  0  0  0  0  0  0  0  0  0  0
    3.4290   62.2960   68.6930 C   0  0  0  0  0  0  0  0  0  0  0  0
   -1.8700   57.4819   75.2504 H   0  0  0  0  0  0  0  0  0  0  0  0
    0.5248   57.4693   74.5684 H   0  0  0  0  0  0  0  0  0  0  0  0
   -2.3623   61.3576   73.4261 H   0  0  0  0  0  0  0  0  0  0  0  0
   -0.2063   61.6238   71.4859 H   0  0  0  0  0  0  0  0  0  0  0  0
   -0.2001   62.6050   73.0240 H   0  0  0  0  0  0  0  0  0  0  0  0
    2.0021   62.5015   71.7434 H   0  0  0  0  0  0  0  0  0  0  0  0
    2.0491   62.0594   73.4884 H   0  0  0  0  0  0  0  0  0  0  0  0
    1.8462   60.0806   71.1672 H   0  0  0  0  0  0  0  0  0  0  0  0
    2.1503   58.3698   72.8666 H   0  0  0  0  0  0  0  0  0  0  0  0
    2.4743   59.6450   74.1290 H   0  0  0  0  0  0  0  0  0  0  0  0
   -4.3393   61.2720   75.5612 H   0  0  0  0  0  0  0  0  0  0  0  0
   -3.4602   61.5022   74.0118 H   0  0  0  0  0  0  0  0  0  0  0  0
   -5.1078   60.7868   74.0118 H   0  0  0  0  0  0  0  0  0  0  0  0
    4.0339   61.3080   72.5682 H   0  0  0  0  0  0  0  0  0  0  0  0
    4.7460   63.2455   71.6400 H   0  0  0  0  0  0  0  0  0  0  0  0
    5.7776   63.1511   70.1725 H   0  0  0  0  0  0  0  0  0  0  0  0
    4.3082   64.1843   70.1725 H   0  0  0  0  0  0  0  0  0  0  0  0
    2.3954   62.6691   68.7427 H   0  0  0  0  0  0  0  0  0  0  0  0
    4.0565   63.0244   68.1584 H   0  0  0  0  0  0  0  0  0  0  0  0
    3.4465   61.3348   68.1584 H   0  0  0  0  0  0  0  0  0  0  0  0
  2  1  2  0
  3  2  1  0
  4  3  2  0
  5  4  1  0
  6  5  2  0
  6  1  1  0
  7  5  1  0
  8  7  1  0
  9  8  1  0
 10  9  1  0
 10  4  1  0
 12 11  1  0
 12  1  1  0
 13  9  1  0
 14 13  1  0
 15 14  2  0
 16 14  2  0
 17 14  1  0
 18 17  1  0
 19 17  1  0
  2 20  1  0
  3 21  1  0
  6 22  1  0
  7 23  1  0
  7 24  1  0
  8 25  1  0
  8 26  1  0
  9 27  1  6
 10 28  1  0
 10 29  1  0
 11 30  1  0
 11 31  1  0
 11 32  1  0
 13 33  1  0
 18 34  1  0
 18 35  1  0
 18 36  1  0
 19 37  1  0
 19 38  1  0
 19 39  1  0
M  END
>  <score>  (9) 
-6.452

$$$$
