=
     RDKit          3D

 32 33  0  0  0  0  0  0  0  0999 V2000
    3.2720   66.7840   63.9100 C   0  0  1  0  0  0  0  0  0  0  0  0
    2.7390   67.3310   65.1330 O   0  0  0  0  0  0  0  0  0  0  0  0
    2.9050   68.7600   65.0980 C   0  0  2  0  0  0  0  0  0  0  0  0
    3.9920   69.0410   64.0710 C   0  0  0  0  0  0  0  0  0  0  0  0
    3.7520   67.9560   63.0450 C   0  0  2  0  0  0  0  0  0  0  0  0
    3.2250   69.2890   66.4190 N   0  0  0  0  0  0  0  0  0  0  0  0
    4.4900   69.7460   66.7310 C   0  0  0  0  0  0  0  0  0  0  0  0
    4.7940   70.2700   67.9250 C   0  0  0  0  0  0  0  0  0  0  0  0
    6.1470   70.7730   68.3070 C   0  0  0  0  0  0  0  0  0  0  0  0
    3.7180   70.3620   68.9390 C   0  0  0  0  0  0  0  0  0  0  0  0
    3.9110   70.8430   70.0490 O   0  0  0  0  0  0  0  0  0  0  0  0
    2.4980   69.8850   68.5570 N   0  0  0  0  0  0  0  0  0  0  0  0
    2.1780   69.3730   67.3290 C   0  0  0  0  0  0  0  0  0  0  0  0
    1.0230   69.0330   67.0820 O   0  0  0  0  0  0  0  0  0  0  0  0
    2.6590   68.3790   62.1460 N   0  0  0  0  0  0  0  0  0  0  0  0
    3.0040   68.7740   61.0170 N   0  0  0  0  0  4  0  0  0  0  0  0
    3.3230   69.1340   59.9840 N   0  0  0  0  0  2  0  0  0  0  0  0
    4.4070   65.8180   64.2700 C   0  0  0  0  0  0  0  0  0  0  0  0
    4.8760   65.1210   63.1240 O   0  0  0  0  0  0  0  0  0  0  0  0
    2.5202   66.2192   63.3392 H   0  0  0  0  0  0  0  0  0  0  0  0
    1.9732   69.2674   64.8076 H   0  0  0  0  0  0  0  0  0  0  0  0
    3.8736   70.0412   63.6287 H   0  0  0  0  0  0  0  0  0  0  0  0
    5.0085   69.0336   64.4913 H   0  0  0  0  0  0  0  0  0  0  0  0
    4.6288   67.7211   62.4236 H   0  0  0  0  0  0  0  0  0  0  0  0
    5.2795   69.6768   65.9682 H   0  0  0  0  0  0  0  0  0  0  0  0
    6.2306   70.8041   69.4034 H   0  0  0  0  0  0  0  0  0  0  0  0
    6.9166   70.1009   67.8995 H   0  0  0  0  0  0  0  0  0  0  0  0
    6.2906   71.7846   67.8995 H   0  0  0  0  0  0  0  0  0  0  0  0
    1.7460   69.9130   69.2603 H   0  0  0  0  0  0  0  0  0  0  0  0
    5.2390   66.3899   64.7067 H   0  0  0  0  0  0  0  0  0  0  0  0
    4.0203   65.0814   64.9897 H   0  0  0  0  0  0  0  0  0  0  0  0
    5.4052   64.3346   63.4097 H   0  0  0  0  0  0  0  0  0  0  0  0
  2  1  1  0
  3  2  1  0
  4  3  1  0
  5  4  1  0
  5  1  1  0
  6  3  1  0
  7  6  1  0
  8  7  2  0
  9  8  1  0
 10  8  1  0
 11 10  2  0
 12 10  1  0
 13 12  1  0
 13  6  1  0
 14 13  2  0
 15  5  1  0
 16 15  2  0
 17 16  2  0
 18  1  1  0
 19 18  1  0
  1 20  1  6
  3 21  1  6
  4 22  1  0
  4 23  1  0
  5 24  1  6
  7 25  1  0
  9 26  1  0
  9 27  1  0
  9 28  1  0
 12 29  1  0
 18 30  1  0
 18 31  1  0
 19 32  1  0
M  CHG  2  16   1  17  -1
M  END
>  <score>  (1) 
-8.889

$$$$
=
     RDKit          3D

 32 33  0  0  0  0  0  0  0  0999 V2000
   -0.6050   67.2080   67.1730 C   0  0  1  0  0  0  0  0  0  0  0  0
   -0.0220   66.8390   65.9070 O   0  0  0  0  0  0  0  0  0  0  0  0
    1.2850   67.4330   65.8210 C   0  0  2  0  0  0  0  0  0  0  0  0
    1.3030   68.5780   66.8240 C   0  0  0  0  0  0  0  0  0  0  0  0
    0.4310   68.0420   67.9370 C   0  0  2  0  0  0  0  0  0  0  0  0
    1.5820   67.8690   64.4610 N   0  0  0  0  0  0  0  0  0  0  0  0
    0.6830   68.6180   63.7270 C   0  0  0  0  0  0  0  0  0  0  0  0
    0.9510   69.0590   62.4910 C   0  0  0  0  0  0  0  0  0  0  0  0
    0.0110   69.8660   61.6600 C   0  0  0  0  0  0  0  0  0  0  0  0
    2.2720   68.7280   61.9060 C   0  0  0  0  0  0  0  0  0  0  0  0
    2.5990   69.1090   60.7880 O   0  0  0  0  0  0  0  0  0  0  0  0
    3.1000   67.9820   62.6910 N   0  0  0  0  0  0  0  0  0  0  0  0
    2.8390   67.5520   63.9640 C   0  0  0  0  0  0  0  0  0  0  0  0
    3.6950   66.9380   64.5970 O   0  0  0  0  0  0  0  0  0  0  0  0
    1.2390   67.1510   68.7940 N   0  0  0  0  0  0  0  0  0  0  0  0
    0.6290   66.2030   69.3230 N   0  0  0  0  0  4  0  0  0  0  0  0
    0.0680   65.3360   69.8040 N   0  0  0  0  0  2  0  0  0  0  0  0
   -1.8970   67.9850   66.9000 C   0  0  0  0  0  0  0  0  0  0  0  0
   -2.9730   67.4940   67.6860 O   0  0  0  0  0  0  0  0  0  0  0  0
   -0.8653   66.3333   67.7871 H   0  0  0  0  0  0  0  0  0  0  0  0
    2.0744   66.7066   66.0642 H   0  0  0  0  0  0  0  0  0  0  0  0
    2.3240   68.7805   67.1797 H   0  0  0  0  0  0  0  0  0  0  0  0
    0.9510   69.5339   66.4089 H   0  0  0  0  0  0  0  0  0  0  0  0
   -0.0089   68.8197   68.5786 H   0  0  0  0  0  0  0  0  0  0  0  0
   -0.2915   68.8619   64.1752 H   0  0  0  0  0  0  0  0  0  0  0  0
   -0.6584   70.4407   62.3170 H   0  0  0  0  0  0  0  0  0  0  0  0
    0.5842   70.5577   61.0251 H   0  0  0  0  0  0  0  0  0  0  0  0
   -0.5859   69.1947   61.0251 H   0  0  0  0  0  0  0  0  0  0  0  0
    4.0096   67.7163   62.2873 H   0  0  0  0  0  0  0  0  0  0  0  0
   -1.7339   69.0461   67.1396 H   0  0  0  0  0  0  0  0  0  0  0  0
   -2.1584   67.8601   65.8388 H   0  0  0  0  0  0  0  0  0  0  0  0
   -2.7530   67.5944   68.6460 H   0  0  0  0  0  0  0  0  0  0  0  0
  2  1  1  0
  3  2  1  0
  4  3  1  0
  5  4  1  0
  5  1  1  0
  6  3  1  0
  7  6  1  0
  8  7  2  0
  9  8  1  0
 10  8  1  0
 11 10  2  0
 12 10  1  0
 13 12  1  0
 13  6  1  0
 14 13  2  0
 15  5  1  0
 16 15  2  0
 17 16  2  0
 18  1  1  0
 19 18  1  0
  1 20  1  1
  3 21  1  1
  4 22  1  0
  4 23  1  0
  5 24  1  1
  7 25  1  0
  9 26  1  0
  9 27  1  0
  9 28  1  0
 12 29  1  0
 18 30  1  0
 18 31  1  0
 19 32  1  0
M  CHG  2  16   1  17  -1
M  END
>  <score>  (2) 
-8.842

$$$$
=
     RDKit          3D

 32 33  0  0  0  0  0  0  0  0999 V2000
    3.5010   68.2920   62.5280 C   0  0  1  0  0  0  0  0  0  0  0  0
    3.9890   69.1490   63.5800 O   0  0  0  0  0  0  0  0  0  0  0  0
    4.2560   68.3350   64.7370 C   0  0  2  0  0  0  0  0  0  0  0  0
    3.4600   67.0520   64.5520 C   0  0  0  0  0  0  0  0  0  0  0  0
    3.5170   66.8520   63.0540 C   0  0  2  0  0  0  0  0  0  0  0  0
    3.9180   69.0380   65.9690 N   0  0  0  0  0  0  0  0  0  0  0  0
    2.6270   69.0640   66.4590 C   0  0  0  0  0  0  0  0  0  0  0  0
    2.3030   69.6720   67.6080 C   0  0  0  0  0  0  0  0  0  0  0  0
    0.9220   69.7290   68.1720 C   0  0  0  0  0  0  0  0  0  0  0  0
    3.3850   70.3310   68.3750 C   0  0  0  0  0  0  0  0  0  0  0  0
    3.1730   70.8930   69.4430 O   0  0  0  0  0  0  0  0  0  0  0  0
    4.6300   70.2660   67.8230 N   0  0  0  0  0  0  0  0  0  0  0  0
    4.9690   69.6230   66.6630 C   0  0  0  0  0  0  0  0  0  0  0  0
    6.1430   69.5800   66.3000 O   0  0  0  0  0  0  0  0  0  0  0  0
    4.8040   66.2180   62.7030 N   0  0  0  0  0  0  0  0  0  0  0  0
    4.9670   65.0530   63.1100 N   0  0  0  0  0  4  0  0  0  0  0  0
    5.1130   63.9860   63.4840 N   0  0  0  0  0  2  0  0  0  0  0  0
    2.0930   68.7590   62.1410 C   0  0  0  0  0  0  0  0  0  0  0  0
    2.0450   69.1930   60.7890 O   0  0  0  0  0  0  0  0  0  0  0  0
    4.1279   68.3364   61.6252 H   0  0  0  0  0  0  0  0  0  0  0  0
    5.3272   68.1025   64.8286 H   0  0  0  0  0  0  0  0  0  0  0  0
    3.9292   66.2116   65.0845 H   0  0  0  0  0  0  0  0  0  0  0  0
    2.4363   67.1068   64.9509 H   0  0  0  0  0  0  0  0  0  0  0  0
    2.7097   66.2222   62.6521 H   0  0  0  0  0  0  0  0  0  0  0  0
    1.8333   68.5657   65.8830 H   0  0  0  0  0  0  0  0  0  0  0  0
    0.9743   69.7268   69.2708 H   0  0  0  0  0  0  0  0  0  0  0  0
    0.4241   70.6485   67.8304 H   0  0  0  0  0  0  0  0  0  0  0  0
    0.3500   68.8537   67.8304 H   0  0  0  0  0  0  0  0  0  0  0  0
    5.3884   70.7470   68.3273 H   0  0  0  0  0  0  0  0  0  0  0  0
    1.3896   67.9239   62.2742 H   0  0  0  0  0  0  0  0  0  0  0  0
    1.8191   69.6062   62.7869 H   0  0  0  0  0  0  0  0  0  0  0  0
    1.9362   70.1766   60.7618 H   0  0  0  0  0  0  0  0  0  0  0  0
  2  1  1  0
  3  2  1  0
  4  3  1  0
  5  4  1  0
  5  1  1  0
  6  3  1  0
  7  6  1  0
  8  7  2  0
  9  8  1  0
 10  8  1  0
 11 10  2  0
 12 10  1  0
 13 12  1  0
 13  6  1  0
 14 13  2  0
 15  5  1  0
 16 15  2  0
 17 16  2  0
 18  1  1  0
 19 18  1  0
  1 20  1  6
  3 21  1  1
  4 22  1  0
  4 23  1  0
  5 24  1  6
  7 25  1  0
  9 26  1  0
  9 27  1  0
  9 28  1  0
 12 29  1  0
 18 30  1  0
 18 31  1  0
 19 32  1  0
M  CHG  2  16   1  17  -1
M  END
>  <score>  (3) 
-8.777

$$$$
=
     RDKit          3D

 32 33  0  0  0  0  0  0  0  0999 V2000
    0.8040   69.0860   67.5810 C   0  0  1  0  0  0  0  0  0  0  0  0
    0.5670   69.3690   66.1880 O   0  0  0  0  0  0  0  0  0  0  0  0
    0.7870   68.1600   65.4380 C   0  0  2  0  0  0  0  0  0  0  0  0
    1.6440   67.2610   66.3170 C   0  0  0  0  0  0  0  0  0  0  0  0
    1.1420   67.5950   67.7040 C   0  0  2  0  0  0  0  0  0  0  0  0
    1.4040   68.4420   64.1470 N   0  0  0  0  0  0  0  0  0  0  0  0
    2.7700   68.5910   64.0130 C   0  0  0  0  0  0  0  0  0  0  0  0
    3.3600   68.8130   62.8300 C   0  0  0  0  0  0  0  0  0  0  0  0
    4.8300   68.9840   62.6380 C   0  0  0  0  0  0  0  0  0  0  0  0
    2.4980   68.8910   61.6280 C   0  0  0  0  0  0  0  0  0  0  0  0
    2.9610   69.0740   60.5080 O   0  0  0  0  0  0  0  0  0  0  0  0
    1.1600   68.7390   61.8440 N   0  0  0  0  0  0  0  0  0  0  0  0
    0.5580   68.4860   63.0470 C   0  0  0  0  0  0  0  0  0  0  0  0
   -0.6560   68.3040   63.1050 O   0  0  0  0  0  0  0  0  0  0  0  0
   -0.0960   66.8330   67.9640 N   0  0  0  0  0  0  0  0  0  0  0  0
   -0.0650   66.0560   68.9360 N   0  0  0  0  0  4  0  0  0  0  0  0
   -0.0320   65.3470   69.8270 N   0  0  0  0  0  2  0  0  0  0  0  0
    1.9430   69.9880   68.0690 C   0  0  0  0  0  0  0  0  0  0  0  0
    2.4910   69.5150   69.2920 O   0  0  0  0  0  0  0  0  0  0  0  0
   -0.0766   69.2923   68.2070 H   0  0  0  0  0  0  0  0  0  0  0  0
   -0.1607   67.6570   65.1953 H   0  0  0  0  0  0  0  0  0  0  0  0
    1.4817   66.1993   66.0793 H   0  0  0  0  0  0  0  0  0  0  0  0
    2.7249   67.4201   66.1891 H   0  0  0  0  0  0  0  0  0  0  0  0
    1.8548   67.3642   68.5094 H   0  0  0  0  0  0  0  0  0  0  0  0
    3.3992   68.5249   64.9128 H   0  0  0  0  0  0  0  0  0  0  0  0
    5.3237   69.0414   63.6193 H   0  0  0  0  0  0  0  0  0  0  0  0
    5.2287   68.1262   62.0766 H   0  0  0  0  0  0  0  0  0  0  0  0
    5.0211   69.9104   62.0766 H   0  0  0  0  0  0  0  0  0  0  0  0
    0.5434   68.8226   61.0232 H   0  0  0  0  0  0  0  0  0  0  0  0
    2.7352   70.0087   67.3061 H   0  0  0  0  0  0  0  0  0  0  0  0
    1.5378   70.9966   68.2382 H   0  0  0  0  0  0  0  0  0  0  0  0
    2.0102   69.9300   70.0514 H   0  0  0  0  0  0  0  0  0  0  0  0
  2  1  1  0
  3  2  1  0
  4  3  1  0
  5  4  1  0
  5  1  1  0
  6  3  1  0
  7  6  1  0
  8  7  2  0
  9  8  1  0
 10  8  1  0
 11 10  2  0
 12 10  1  0
 13 12  1  0
 13  6  1  0
 14 13  2  0
 15  5  1  0
 16 15  2  0
 17 16  2  0
 18  1  1  0
 19 18  1  0
  1 20  1  1
  3 21  1  6
  4 22  1  0
  4 23  1  0
  5 24  1  1
  7 25  1  0
  9 26  1  0
  9 27  1  0
  9 28  1  0
 12 29  1  0
 18 30  1  0
 18 31  1  0
 19 32  1  0
M  CHG  2  16   1  17  -1
M  END
>  <score>  (4) 
-8.591

$$$$
=
     RDKit          3D

 32 33  0  0  0  0  0  0  0  0999 V2000
    0.7590   68.1990   65.7120 C   0  0  1  0  0  0  0  0  0  0  0  0
    1.6210   69.3200   65.9980 O   0  0  0  0  0  0  0  0  0  0  0  0
    2.8800   69.1000   65.3380 C   0  0  2  0  0  0  0  0  0  0  0  0
    2.9620   67.6070   65.0560 C   0  0  0  0  0  0  0  0  0  0  0  0
    1.5190   67.2540   64.7740 C   0  0  2  0  0  0  0  0  0  0  0  0
    3.9940   69.5860   66.1450 N   0  0  0  0  0  0  0  0  0  0  0  0
    3.8450   69.8760   67.4860 C   0  0  0  0  0  0  0  0  0  0  0  0
    4.8640   70.2870   68.2540 C   0  0  0  0  0  0  0  0  0  0  0  0
    4.7490   70.6160   69.7050 C   0  0  0  0  0  0  0  0  0  0  0  0
    6.1970   70.4230   67.6240 C   0  0  0  0  0  0  0  0  0  0  0  0
    7.1820   70.7770   68.2600 O   0  0  0  0  0  0  0  0  0  0  0  0
    6.2610   70.1230   66.2950 N   0  0  0  0  0  0  0  0  0  0  0  0
    5.2280   69.6780   65.5150 C   0  0  0  0  0  0  0  0  0  0  0  0
    5.4250   69.3780   64.3390 O   0  0  0  0  0  0  0  0  0  0  0  0
    1.2050   67.5990   63.3730 N   0  0  0  0  0  0  0  0  0  0  0  0
    0.0950   68.1280   63.1780 N   0  0  0  0  0  4  0  0  0  0  0  0
   -0.9220   68.6120   63.0030 N   0  0  0  0  0  2  0  0  0  0  0  0
    0.3820   67.5310   67.0390 C   0  0  0  0  0  0  0  0  0  0  0  0
   -0.7780   66.7220   66.9010 O   0  0  0  0  0  0  0  0  0  0  0  0
   -0.1739   68.5020   65.2141 H   0  0  0  0  0  0  0  0  0  0  0  0
    2.9459   69.6642   64.3960 H   0  0  0  0  0  0  0  0  0  0  0  0
    3.6005   67.4005   64.1844 H   0  0  0  0  0  0  0  0  0  0  0  0
    3.4054   67.0266   65.8785 H   0  0  0  0  0  0  0  0  0  0  0  0
    1.2777   66.1910   64.9216 H   0  0  0  0  0  0  0  0  0  0  0  0
    2.8505   69.7655   67.9429 H   0  0  0  0  0  0  0  0  0  0  0  0
    5.0535   69.7449   70.3037 H   0  0  0  0  0  0  0  0  0  0  0  0
    5.4022   71.4692   69.9404 H   0  0  0  0  0  0  0  0  0  0  0  0
    3.7065   70.8764   69.9404 H   0  0  0  0  0  0  0  0  0  0  0  0
    7.1743   70.2428   65.8341 H   0  0  0  0  0  0  0  0  0  0  0  0
    1.2197   66.9014   67.3734 H   0  0  0  0  0  0  0  0  0  0  0  0
    0.1684   68.3198   67.7753 H   0  0  0  0  0  0  0  0  0  0  0  0
   -1.1217   66.4823   67.7979 H   0  0  0  0  0  0  0  0  0  0  0  0
  2  1  1  0
  3  2  1  0
  4  3  1  0
  5  4  1  0
  5  1  1  0
  6  3  1  0
  7  6  1  0
  8  7  2  0
  9  8  1  0
 10  8  1  0
 11 10  2  0
 12 10  1  0
 13 12  1  0
 13  6  1  0
 14 13  2  0
 15  5  1  0
 16 15  2  0
 17 16  2  0
 18  1  1  0
 19 18  1  0
  1 20  1  6
  3 21  1  6
  4 22  1  0
  4 23  1  0
  5 24  1  1
  7 25  1  0
  9 26  1  0
  9 27  1  0
  9 28  1  0
 12 29  1  0
 18 30  1  0
 18 31  1  0
 19 32  1  0
M  CHG  2  16   1  17  -1
M  END
>  <score>  (5) 
-8.271

$$$$
=
     RDKit          3D

 32 33  0  0  0  0  0  0  0  0999 V2000
    2.9300   66.7560   63.9560 C   0  0  1  0  0  0  0  0  0  0  0  0
    3.1460   67.3270   65.2610 O   0  0  0  0  0  0  0  0  0  0  0  0
    3.1820   68.7590   65.1270 C   0  0  2  0  0  0  0  0  0  0  0  0
    3.4860   69.0450   63.6630 C   0  0  0  0  0  0  0  0  0  0  0  0
    2.7720   67.9130   62.9610 C   0  0  2  0  0  0  0  0  0  0  0  0
    4.1600   69.3530   66.0330 N   0  0  0  0  0  0  0  0  0  0  0  0
    3.7940   69.8550   67.2660 C   0  0  0  0  0  0  0  0  0  0  0  0
    4.6810   70.3700   68.1280 C   0  0  0  0  0  0  0  0  0  0  0  0
    4.3320   70.9270   69.4670 C   0  0  0  0  0  0  0  0  0  0  0  0
    6.1080   70.3860   67.7300 C   0  0  0  0  0  0  0  0  0  0  0  0
    6.9820   70.8250   68.4680 O   0  0  0  0  0  0  0  0  0  0  0  0
    6.3870   69.8770   66.4960 N   0  0  0  0  0  0  0  0  0  0  0  0
    5.4870   69.3270   65.6240 C   0  0  0  0  0  0  0  0  0  0  0  0
    5.8700   68.8410   64.5620 O   0  0  0  0  0  0  0  0  0  0  0  0
    1.3410   68.2530   62.8310 N   0  0  0  0  0  0  0  0  0  0  0  0
    1.0510   69.0560   61.9250 N   0  0  0  0  0  4  0  0  0  0  0  0
    0.7900   69.7890   61.0930 N   0  0  0  0  0  2  0  0  0  0  0  0
    4.1220   65.8540   63.6210 C   0  0  0  0  0  0  0  0  0  0  0  0
    4.0830   65.4230   62.2680 O   0  0  0  0  0  0  0  0  0  0  0  0
    2.0214   66.1374   63.9136 H   0  0  0  0  0  0  0  0  0  0  0  0
    2.2212   69.2145   65.4088 H   0  0  0  0  0  0  0  0  0  0  0  0
    3.0838   70.0216   63.3557 H   0  0  0  0  0  0  0  0  0  0  0  0
    4.5614   69.0958   63.4373 H   0  0  0  0  0  0  0  0  0  0  0  0
    3.1584   67.6921   61.9551 H   0  0  0  0  0  0  0  0  0  0  0  0
    2.7321   69.8312   67.5520 H   0  0  0  0  0  0  0  0  0  0  0  0
    4.7405   70.2750   70.2531 H   0  0  0  0  0  0  0  0  0  0  0  0
    4.7601   71.9352   69.5676 H   0  0  0  0  0  0  0  0  0  0  0  0
    3.2380   70.9815   69.5676 H   0  0  0  0  0  0  0  0  0  0  0  0
    7.3702   69.9097   66.1907 H   0  0  0  0  0  0  0  0  0  0  0  0
    5.0533   66.4140   63.7913 H   0  0  0  0  0  0  0  0  0  0  0  0
    4.0761   64.9658   64.2683 H   0  0  0  0  0  0  0  0  0  0  0  0
    3.9938   64.4375   62.2380 H   0  0  0  0  0  0  0  0  0  0  0  0
  2  1  1  0
  3  2  1  0
  4  3  1  0
  5  4  1  0
  5  1  1  0
  6  3  1  0
  7  6  1  0
  8  7  2  0
  9  8  1  0
 10  8  1  0
 11 10  2  0
 12 10  1  0
 13 12  1  0
 13  6  1  0
 14 13  2  0
 15  5  1  0
 16 15  2  0
 17 16  2  0
 18  1  1  0
 19 18  1  0
  1 20  1  1
  3 21  1  1
  4 22  1  0
  4 23  1  0
  5 24  1  6
  7 25  1  0
  9 26  1  0
  9 27  1  0
  9 28  1  0
 12 29  1  0
 18 30  1  0
 18 31  1  0
 19 32  1  0
M  CHG  2  16   1  17  -1
M  END
>  <score>  (6) 
-7.931

$$$$
=
     RDKit          3D

 32 33  0  0  0  0  0  0  0  0999 V2000
    4.3690   60.6220   71.0490 C   0  0  1  0  0  0  0  0  0  0  0  0
    3.1910   61.1580   71.6840 O   0  0  0  0  0  0  0  0  0  0  0  0
    2.2720   61.5690   70.6560 C   0  0  2  0  0  0  0  0  0  0  0  0
    3.0960   61.7430   69.3890 C   0  0  0  0  0  0  0  0  0  0  0  0
    4.1390   60.6580   69.5330 C   0  0  2  0  0  0  0  0  0  0  0  0
    1.5590   62.7830   71.0370 N   0  0  0  0  0  0  0  0  0  0  0  0
    1.7480   63.9760   70.3680 C   0  0  0  0  0  0  0  0  0  0  0  0
    1.0750   65.0920   70.6780 C   0  0  0  0  0  0  0  0  0  0  0  0
    1.2500   66.4030   69.9870 C   0  0  0  0  0  0  0  0  0  0  0  0
    0.0870   65.0250   71.7800 C   0  0  0  0  0  0  0  0  0  0  0  0
   -0.5800   65.9970   72.1130 O   0  0  0  0  0  0  0  0  0  0  0  0
   -0.0380   63.8140   72.3940 N   0  0  0  0  0  0  0  0  0  0  0  0
    0.6290   62.6650   72.0620 C   0  0  0  0  0  0  0  0  0  0  0  0
    0.3830   61.6150   72.6510 O   0  0  0  0  0  0  0  0  0  0  0  0
    3.5600   59.3720   69.0960 N   0  0  0  0  0  0  0  0  0  0  0  0
    3.7070   58.4140   69.8780 N   0  0  0  0  0  4  0  0  0  0  0  0
    3.8420   57.5400   70.5960 N   0  0  0  0  0  2  0  0  0  0  0  0
    5.5740   61.4640   71.4800 C   0  0  0  0  0  0  0  0  0  0  0  0
    5.6580   61.5640   72.8950 O   0  0  0  0  0  0  0  0  0  0  0  0
    4.5679   59.5808   71.3428 H   0  0  0  0  0  0  0  0  0  0  0  0
    1.4856   60.8172   70.4935 H   0  0  0  0  0  0  0  0  0  0  0  0
    2.4817   61.5885   68.4897 H   0  0  0  0  0  0  0  0  0  0  0  0
    3.5212   62.7510   69.2745 H   0  0  0  0  0  0  0  0  0  0  0  0
    5.0536   60.8315   68.9470 H   0  0  0  0  0  0  0  0  0  0  0  0
    2.4803   64.0114   69.5479 H   0  0  0  0  0  0  0  0  0  0  0  0
    1.3565   67.2011   70.7364 H   0  0  0  0  0  0  0  0  0  0  0  0
    2.1515   66.3683   69.3576 H   0  0  0  0  0  0  0  0  0  0  0  0
    0.3710   66.6060   69.3576 H   0  0  0  0  0  0  0  0  0  0  0  0
   -0.6974   63.7580   73.1833 H   0  0  0  0  0  0  0  0  0  0  0  0
    6.4930   60.9945   71.0993 H   0  0  0  0  0  0  0  0  0  0  0  0
    5.4533   62.4769   71.0682 H   0  0  0  0  0  0  0  0  0  0  0  0
    5.0797   60.8756   73.3094 H   0  0  0  0  0  0  0  0  0  0  0  0
  2  1  1  0
  3  2  1  0
  4  3  1  0
  5  4  1  0
  5  1  1  0
  6  3  1  0
  7  6  1  0
  8  7  2  0
  9  8  1  0
 10  8  1  0
 11 10  2  0
 12 10  1  0
 13 12  1  0
 13  6  1  0
 14 13  2  0
 15  5  1  0
 16 15  2  0
 17 16  2  0
 18  1  1  0
 19 18  1  0
  1 20  1  1
  3 21  1  6
  4 22  1  0
  4 23  1  0
  5 24  1  6
  7 25  1  0
  9 26  1  0
  9 27  1  0
  9 28  1  0
 12 29  1  0
 18 30  1  0
 18 31  1  0
 19 32  1  0
M  CHG  2  16   1  17  -1
M  END
>  <score>  (7) 
-7.4

$$$$
=
     RDKit          3D

 32 33  0  0  0  0  0  0  0  0999 V2000
    4.3620   67.6790   63.2730 C   0  0  1  0  0  0  0  0  0  0  0  0
    3.9850   68.3890   64.4700 O   0  0  0  0  0  0  0  0  0  0  0  0
    3.1950   67.5070   65.2870 C   0  0  2  0  0  0  0  0  0  0  0  0
    2.6700   66.4190   64.3620 C   0  0  0  0  0  0  0  0  0  0  0  0
    3.8120   66.2520   63.3840 C   0  0  2  0  0  0  0  0  0  0  0  0
    2.1280   68.2310   65.9710 N   0  0  0  0  0  0  0  0  0  0  0  0
    0.7960   67.9760   65.7110 C   0  0  0  0  0  0  0  0  0  0  0  0
   -0.1980   68.6020   66.3540 C   0  0  0  0  0  0  0  0  0  0  0  0
   -1.6490   68.3620   66.1030 C   0  0  0  0  0  0  0  0  0  0  0  0
    0.1630   69.6010   67.3870 C   0  0  0  0  0  0  0  0  0  0  0  0
   -0.6870   70.2050   68.0300 O   0  0  0  0  0  0  0  0  0  0  0  0
    1.4980   69.8000   67.5810 N   0  0  0  0  0  0  0  0  0  0  0  0
    2.5160   69.1430   66.9440 C   0  0  0  0  0  0  0  0  0  0  0  0
    3.6850   69.3650   67.2520 O   0  0  0  0  0  0  0  0  0  0  0  0
    4.8380   65.3780   63.9890 N   0  0  0  0  0  0  0  0  0  0  0  0
    4.9080   64.2230   63.5320 N   0  0  0  0  0  4  0  0  0  0  0  0
    4.9700   63.1660   63.1090 N   0  0  0  0  0  2  0  0  0  0  0  0
    3.7950   68.4340   62.0660 C   0  0  0  0  0  0  0  0  0  0  0  0
    3.8230   67.6320   60.8940 O   0  0  0  0  0  0  0  0  0  0  0  0
    5.4530   67.6190   63.1464 H   0  0  0  0  0  0  0  0  0  0  0  0
    3.7950   67.0583   66.0924 H   0  0  0  0  0  0  0  0  0  0  0  0
    2.4769   65.4865   64.9125 H   0  0  0  0  0  0  0  0  0  0  0  0
    1.7122   66.6709   63.8833 H   0  0  0  0  0  0  0  0  0  0  0  0
    3.5195   65.8113   62.4195 H   0  0  0  0  0  0  0  0  0  0  0  0
    0.5412   67.2287   64.9450 H   0  0  0  0  0  0  0  0  0  0  0  0
   -2.1777   68.2745   67.0636 H   0  0  0  0  0  0  0  0  0  0  0  0
   -2.0661   69.2034   65.5302 H   0  0  0  0  0  0  0  0  0  0  0  0
   -1.7730   67.4311   65.5302 H   0  0  0  0  0  0  0  0  0  0  0  0
    1.7663   70.5135   68.2737 H   0  0  0  0  0  0  0  0  0  0  0  0
    2.7545   68.7202   62.2792 H   0  0  0  0  0  0  0  0  0  0  0  0
    4.4164   69.3247   61.8913 H   0  0  0  0  0  0  0  0  0  0  0  0
    3.8564   66.6760   61.1490 H   0  0  0  0  0  0  0  0  0  0  0  0
  2  1  1  0
  3  2  1  0
  4  3  1  0
  5  4  1  0
  5  1  1  0
  6  3  1  0
  7  6  1  0
  8  7  2  0
  9  8  1  0
 10  8  1  0
 11 10  2  0
 12 10  1  0
 13 12  1  0
 13  6  1  0
 14 13  2  0
 15  5  1  0
 16 15  2  0
 17 16  2  0
 18  1  1  0
 19 18  1  0
  1 20  1  6
  3 21  1  1
  4 22  1  0
  4 23  1  0
  5 24  1  6
  7 25  1  0
  9 26  1  0
  9 27  1  0
  9 28  1  0
 12 29  1  0
 18 30  1  0
 18 31  1  0
 19 32  1  0
M  CHG  2  16   1  17  -1
M  END
>  <score>  (8) 
-7.254

$$$$
=
     RDKit          3D

 32 33  0  0  0  0  0  0  0  0999 V2000
    1.0300   64.1690   72.4740 C   0  0  1  0  0  0  0  0  0  0  0  0
    2.1750   63.3140   72.2820 O   0  0  0  0  0  0  0  0  0  0  0  0
    2.1880   62.8790   70.9110 C   0  0  2  0  0  0  0  0  0  0  0  0
    0.7720   63.0670   70.3870 C   0  0  0  0  0  0  0  0  0  0  0  0
    0.3210   64.3100   71.1210 C   0  0  2  0  0  0  0  0  0  0  0  0
    2.6550   61.5020   70.7960 N   0  0  0  0  0  0  0  0  0  0  0  0
    2.3380   60.5480   71.7420 C   0  0  0  0  0  0  0  0  0  0  0  0
    2.7250   59.2690   71.6360 C   0  0  0  0  0  0  0  0  0  0  0  0
    2.4110   58.2060   72.6350 C   0  0  0  0  0  0  0  0  0  0  0  0
    3.5180   58.8800   70.4470 C   0  0  0  0  0  0  0  0  0  0  0  0
    3.8960   57.7280   70.2680 O   0  0  0  0  0  0  0  0  0  0  0  0
    3.7940   59.8800   69.5620 N   0  0  0  0  0  0  0  0  0  0  0  0
    3.3780   61.1800   69.6540 C   0  0  0  0  0  0  0  0  0  0  0  0
    3.6370   61.9790   68.7570 O   0  0  0  0  0  0  0  0  0  0  0  0
    0.8430   65.5000   70.4180 N   0  0  0  0  0  0  0  0  0  0  0  0
    0.1120   65.9720   69.5280 N   0  0  0  0  0  4  0  0  0  0  0  0
   -0.5610   66.4020   68.7160 N   0  0  0  0  0  2  0  0  0  0  0  0
    0.1320   63.5390   73.5440 C   0  0  0  0  0  0  0  0  0  0  0  0
   -0.3340   64.5110   74.4690 O   0  0  0  0  0  0  0  0  0  0  0  0
    1.3099   65.1739   72.8231 H   0  0  0  0  0  0  0  0  0  0  0  0
    2.8935   63.4690   70.3076 H   0  0  0  0  0  0  0  0  0  0  0  0
    0.7673   63.2232   69.2982 H   0  0  0  0  0  0  0  0  0  0  0  0
    0.1209   62.1960   70.5530 H   0  0  0  0  0  0  0  0  0  0  0  0
   -0.7711   64.4163   71.1986 H   0  0  0  0  0  0  0  0  0  0  0  0
    1.7442   60.8493   72.6176 H   0  0  0  0  0  0  0  0  0  0  0  0
    2.5305   58.6107   73.6508 H   0  0  0  0  0  0  0  0  0  0  0  0
    1.3741   57.8663   72.4953 H   0  0  0  0  0  0  0  0  0  0  0  0
    3.0968   57.3574   72.4953 H   0  0  0  0  0  0  0  0  0  0  0  0
    4.3713   59.6328   68.7456 H   0  0  0  0  0  0  0  0  0  0  0  0
   -0.7329   63.0686   73.0534 H   0  0  0  0  0  0  0  0  0  0  0  0
    0.7226   62.7925   74.0952 H   0  0  0  0  0  0  0  0  0  0  0  0
   -0.1795   64.1887   75.3922 H   0  0  0  0  0  0  0  0  0  0  0  0
  2  1  1  0
  3  2  1  0
  4  3  1  0
  5  4  1  0
  5  1  1  0
  6  3  1  0
  7  6  1  0
  8  7  2  0
  9  8  1  0
 10  8  1  0
 11 10  2  0
 12 10  1  0
 13 12  1  0
 13  6  1  0
 14 13  2  0
 15  5  1  0
 16 15  2  0
 17 16  2  0
 18  1  1  0
 19 18  1  0
  1 20  1  1
  3 21  1  6
  4 22  1  0
  4 23  1  0
  5 24  1  1
  7 25  1  0
  9 26  1  0
  9 27  1  0
  9 28  1  0
 12 29  1  0
 18 30  1  0
 18 31  1  0
 19 32  1  0
M  CHG  2  16   1  17  -1
M  END
>  <score>  (9) 
-6.976

$$$$
