=
     RDKit          3D

 35 38  0  0  0  0  0  0  0  0999 V2000
   -0.3240   69.4330   67.6640 Cl  0  0  0  0  0  0  0  0  0  0  0  0
    0.8620   68.6710   66.6790 C   0  0  0  0  0  0  0  0  0  0  0  0
    0.5960   67.4290   66.1140 C   0  0  0  0  0  0  0  0  0  0  0  0
    1.5510   66.8140   65.3010 C   0  0  0  0  0  0  0  0  0  0  0  0
    2.7880   67.4360   65.0590 C   0  0  0  0  0  0  0  0  0  0  0  0
    3.6990   66.8360   64.1520 N   0  0  0  0  0  0  0  0  0  0  0  0
    4.5140   67.5180   63.2730 C   0  0  0  0  0  0  0  0  0  0  0  0
    4.5670   68.9960   63.2160 C   0  0  0  0  0  0  0  0  0  0  0  0
    5.0640   69.5330   64.4740 N   0  0  0  0  0  0  0  0  0  0  0  0
    4.3950   69.3680   65.5650 C   0  0  0  0  0  0  0  0  0  0  0  0
    3.0650   68.6810   65.6590 C   0  0  0  0  0  0  0  0  0  0  0  0
    2.0830   69.3000   66.4520 C   0  0  0  0  0  0  0  0  0  0  0  0
    5.1280   66.6670   62.4800 N   0  0  0  0  0  0  0  0  0  0  0  0
    4.7580   65.4050   62.8490 N   0  0  0  0  0  0  0  0  0  0  0  0
    3.9250   65.4980   63.8660 C   0  0  0  0  0  0  0  0  0  0  0  0
    3.4160   64.3370   64.6330 C   0  0  0  0  0  0  0  0  0  0  0  0
    5.0090   69.9090   66.8220 C   0  0  0  0  0  0  0  0  0  0  0  0
    4.2350   70.1470   67.9650 C   0  0  0  0  0  0  0  0  0  0  0  0
    4.8360   70.6500   69.1210 C   0  0  0  0  0  0  0  0  0  0  0  0
    6.2070   70.9060   69.1420 C   0  0  0  0  0  0  0  0  0  0  0  0
    6.9830   70.6510   68.0120 C   0  0  0  0  0  0  0  0  0  0  0  0
    6.3870   70.1490   66.8540 C   0  0  0  0  0  0  0  0  0  0  0  0
   -0.3656   66.9310   66.3070 H   0  0  0  0  0  0  0  0  0  0  0  0
    1.3334   65.8360   64.8470 H   0  0  0  0  0  0  0  0  0  0  0  0
    5.2375   69.3038   62.4001 H   0  0  0  0  0  0  0  0  0  0  0  0
    3.5531   69.3835   63.0375 H   0  0  0  0  0  0  0  0  0  0  0  0
    2.2805   70.2870   66.8957 H   0  0  0  0  0  0  0  0  0  0  0  0
    3.5056   64.5414   65.7101 H   0  0  0  0  0  0  0  0  0  0  0  0
    2.3597   64.1645   64.3792 H   0  0  0  0  0  0  0  0  0  0  0  0
    4.0048   63.4432   64.3792 H   0  0  0  0  0  0  0  0  0  0  0  0
    3.1551   69.9380   67.9521 H   0  0  0  0  0  0  0  0  0  0  0  0
    4.2272   70.8446   70.0163 H   0  0  0  0  0  0  0  0  0  0  0  0
    6.6766   71.3096   70.0512 H   0  0  0  0  0  0  0  0  0  0  0  0
    8.0655   70.8455   68.0331 H   0  0  0  0  0  0  0  0  0  0  0  0
    7.0015   69.9418   65.9655 H   0  0  0  0  0  0  0  0  0  0  0  0
  2  1  1  0
  3  2  2  0
  4  3  1  0
  5  4  2  0
  6  5  1  0
  7  6  1  0
  8  7  1  0
  9  8  1  0
 10  9  2  0
 11  5  1  0
 11 10  1  0
 12 11  2  0
 12  2  1  0
 13  7  2  0
 14 13  1  0
 15 14  2  0
 15  6  1  0
 16 15  1  0
 17 10  1  0
 18 17  2  0
 19 18  1  0
 20 19  2  0
 21 20  1  0
 22 17  1  0
 22 21  2  0
  3 23  1  0
  4 24  1  0
  8 25  1  0
  8 26  1  0
 12 27  1  0
 16 28  1  0
 16 29  1  0
 16 30  1  0
 18 31  1  0
 19 32  1  0
 20 33  1  0
 21 34  1  0
 22 35  1  0
M  END
>  <score>  (1) 
-12.917

$$$$
=
     RDKit          3D

 35 38  0  0  0  0  0  0  0  0999 V2000
    3.4420   70.6630   68.9990 Cl  0  0  0  0  0  0  0  0  0  0  0  0
    3.6050   69.7950   67.5230 C   0  0  0  0  0  0  0  0  0  0  0  0
    4.6980   70.0340   66.6980 C   0  0  0  0  0  0  0  0  0  0  0  0
    4.8410   69.3190   65.5060 C   0  0  0  0  0  0  0  0  0  0  0  0
    3.8790   68.3670   65.1260 C   0  0  0  0  0  0  0  0  0  0  0  0
    4.0990   67.5880   63.9610 N   0  0  0  0  0  0  0  0  0  0  0  0
    3.7610   66.2590   63.8170 C   0  0  0  0  0  0  0  0  0  0  0  0
    3.0630   65.4930   64.8740 C   0  0  0  0  0  0  0  0  0  0  0  0
    1.7420   66.0540   65.1150 N   0  0  0  0  0  0  0  0  0  0  0  0
    1.6160   67.2520   65.5780 C   0  0  0  0  0  0  0  0  0  0  0  0
    2.7560   68.1520   65.9510 C   0  0  0  0  0  0  0  0  0  0  0  0
    2.6410   68.8580   67.1610 C   0  0  0  0  0  0  0  0  0  0  0  0
    4.2270   65.8000   62.6750 N   0  0  0  0  0  0  0  0  0  0  0  0
    4.8470   66.8310   62.0290 N   0  0  0  0  0  0  0  0  0  0  0  0
    4.7500   67.9100   62.7800 C   0  0  0  0  0  0  0  0  0  0  0  0
    5.1790   69.2620   62.3530 C   0  0  0  0  0  0  0  0  0  0  0  0
    0.2170   67.7660   65.7460 C   0  0  0  0  0  0  0  0  0  0  0  0
   -0.3540   68.6380   64.8090 C   0  0  0  0  0  0  0  0  0  0  0  0
   -1.6600   69.0990   64.9930 C   0  0  0  0  0  0  0  0  0  0  0  0
   -2.3990   68.6840   66.1010 C   0  0  0  0  0  0  0  0  0  0  0  0
   -1.8400   67.8010   67.0240 C   0  0  0  0  0  0  0  0  0  0  0  0
   -0.5360   67.3380   66.8450 C   0  0  0  0  0  0  0  0  0  0  0  0
    5.4494   70.7851   66.9832 H   0  0  0  0  0  0  0  0  0  0  0  0
    5.7125   69.5024   64.8604 H   0  0  0  0  0  0  0  0  0  0  0  0
    2.9597   64.4454   64.5549 H   0  0  0  0  0  0  0  0  0  0  0  0
    3.6500   65.5477   65.8027 H   0  0  0  0  0  0  0  0  0  0  0  0
    1.7849   68.6692   67.8254 H   0  0  0  0  0  0  0  0  0  0  0  0
    5.3756   69.8816   63.2404 H   0  0  0  0  0  0  0  0  0  0  0  0
    6.0961   69.1825   61.7508 H   0  0  0  0  0  0  0  0  0  0  0  0
    4.3839   69.7258   61.7508 H   0  0  0  0  0  0  0  0  0  0  0  0
    0.2250   68.9588   63.9304 H   0  0  0  0  0  0  0  0  0  0  0  0
   -2.1062   69.7903   64.2630 H   0  0  0  0  0  0  0  0  0  0  0  0
   -3.4246   69.0540   66.2468 H   0  0  0  0  0  0  0  0  0  0  0  0
   -2.4270   67.4694   67.8932 H   0  0  0  0  0  0  0  0  0  0  0  0
   -0.0990   66.6350   67.5694 H   0  0  0  0  0  0  0  0  0  0  0  0
  2  1  1  0
  3  2  2  0
  4  3  1  0
  5  4  2  0
  6  5  1  0
  7  6  1  0
  8  7  1  0
  9  8  1  0
 10  9  2  0
 11  5  1  0
 11 10  1  0
 12 11  2  0
 12  2  1  0
 13  7  2  0
 14 13  1  0
 15 14  2  0
 15  6  1  0
 16 15  1  0
 17 10  1  0
 18 17  2  0
 19 18  1  0
 20 19  2  0
 21 20  1  0
 22 17  1  0
 22 21  2  0
  3 23  1  0
  4 24  1  0
  8 25  1  0
  8 26  1  0
 12 27  1  0
 16 28  1  0
 16 29  1  0
 16 30  1  0
 18 31  1  0
 19 32  1  0
 20 33  1  0
 21 34  1  0
 22 35  1  0
M  END
>  <score>  (2) 
-11.97

$$$$
=
     RDKit          3D

 35 38  0  0  0  0  0  0  0  0999 V2000
    5.2170   70.7020   67.7090 Cl  0  0  0  0  0  0  0  0  0  0  0  0
    3.7390   69.8260   67.6450 C   0  0  0  0  0  0  0  0  0  0  0  0
    3.0750   69.5030   68.8230 C   0  0  0  0  0  0  0  0  0  0  0  0
    1.8660   68.8050   68.7730 C   0  0  0  0  0  0  0  0  0  0  0  0
    1.3210   68.4100   67.5390 C   0  0  0  0  0  0  0  0  0  0  0  0
    0.0460   67.7890   67.5130 N   0  0  0  0  0  0  0  0  0  0  0  0
   -0.9150   67.9830   66.5430 C   0  0  0  0  0  0  0  0  0  0  0  0
   -0.6930   68.8460   65.3610 C   0  0  0  0  0  0  0  0  0  0  0  0
    0.3780   68.3070   64.5360 N   0  0  0  0  0  0  0  0  0  0  0  0
    1.5810   68.2330   64.9950 C   0  0  0  0  0  0  0  0  0  0  0  0
    2.0140   68.7120   66.3490 C   0  0  0  0  0  0  0  0  0  0  0  0
    3.2140   69.4410   66.4140 C   0  0  0  0  0  0  0  0  0  0  0  0
   -2.0290   67.3740   66.8880 N   0  0  0  0  0  0  0  0  0  0  0  0
   -1.8080   66.7330   68.0740 N   0  0  0  0  0  0  0  0  0  0  0  0
   -0.5610   66.9550   68.4400 C   0  0  0  0  0  0  0  0  0  0  0  0
    0.0920   66.3100   69.6020 C   0  0  0  0  0  0  0  0  0  0  0  0
    2.6100   67.6160   64.0950 C   0  0  0  0  0  0  0  0  0  0  0  0
    3.1980   66.3820   64.4030 C   0  0  0  0  0  0  0  0  0  0  0  0
    4.1530   65.8320   63.5440 C   0  0  0  0  0  0  0  0  0  0  0  0
    4.5130   66.5050   62.3760 C   0  0  0  0  0  0  0  0  0  0  0  0
    3.9150   67.7230   62.0580 C   0  0  0  0  0  0  0  0  0  0  0  0
    2.9610   68.2770   62.9130 C   0  0  0  0  0  0  0  0  0  0  0  0
    3.5013   69.7968   69.7935 H   0  0  0  0  0  0  0  0  0  0  0  0
    1.3365   68.5627   69.7062 H   0  0  0  0  0  0  0  0  0  0  0  0
   -1.6183   68.8945   64.7682 H   0  0  0  0  0  0  0  0  0  0  0  0
   -0.4102   69.8531   65.7013 H   0  0  0  0  0  0  0  0  0  0  0  0
    3.7417   69.7090   65.4868 H   0  0  0  0  0  0  0  0  0  0  0  0
   -0.3253   66.7222   70.5326 H   0  0  0  0  0  0  0  0  0  0  0  0
   -0.0880   65.2253   69.5683 H   0  0  0  0  0  0  0  0  0  0  0  0
    1.1744   66.5033   69.5683 H   0  0  0  0  0  0  0  0  0  0  0  0
    2.9083   65.8471   65.3195 H   0  0  0  0  0  0  0  0  0  0  0  0
    4.6215   64.8674   63.7889 H   0  0  0  0  0  0  0  0  0  0  0  0
    5.2702   66.0734   61.7049 H   0  0  0  0  0  0  0  0  0  0  0  0
    4.1950   68.2480   61.1328 H   0  0  0  0  0  0  0  0  0  0  0  0
    2.4844   69.2348   62.6571 H   0  0  0  0  0  0  0  0  0  0  0  0
  2  1  1  0
  3  2  2  0
  4  3  1  0
  5  4  2  0
  6  5  1  0
  7  6  1  0
  8  7  1  0
  9  8  1  0
 10  9  2  0
 11  5  1  0
 11 10  1  0
 12 11  2  0
 12  2  1  0
 13  7  2  0
 14 13  1  0
 15 14  2  0
 15  6  1  0
 16 15  1  0
 17 10  1  0
 18 17  2  0
 19 18  1  0
 20 19  2  0
 21 20  1  0
 22 17  1  0
 22 21  2  0
  3 23  1  0
  4 24  1  0
  8 25  1  0
  8 26  1  0
 12 27  1  0
 16 28  1  0
 16 29  1  0
 16 30  1  0
 18 31  1  0
 19 32  1  0
 20 33  1  0
 21 34  1  0
 22 35  1  0
M  END
>  <score>  (3) 
-11.285

$$$$
=
     RDKit          3D

 35 38  0  0  0  0  0  0  0  0999 V2000
    6.4000   68.3290   62.4070 Cl  0  0  0  0  0  0  0  0  0  0  0  0
    4.7830   68.4490   62.9790 C   0  0  0  0  0  0  0  0  0  0  0  0
    3.7320   68.5180   62.0710 C   0  0  0  0  0  0  0  0  0  0  0  0
    2.4170   68.6000   62.5330 C   0  0  0  0  0  0  0  0  0  0  0  0
    2.1450   68.6290   63.9120 C   0  0  0  0  0  0  0  0  0  0  0  0
    0.7970   68.6140   64.3520 N   0  0  0  0  0  0  0  0  0  0  0  0
    0.3310   67.9500   65.4670 C   0  0  0  0  0  0  0  0  0  0  0  0
    1.2220   67.2020   66.3820 C   0  0  0  0  0  0  0  0  0  0  0  0
    2.1680   68.1070   67.0170 N   0  0  0  0  0  0  0  0  0  0  0  0
    3.0430   68.7390   66.3100 C   0  0  0  0  0  0  0  0  0  0  0  0
    3.2160   68.5910   64.8280 C   0  0  0  0  0  0  0  0  0  0  0  0
    4.5330   68.4800   64.3480 C   0  0  0  0  0  0  0  0  0  0  0  0
   -0.9820   68.0210   65.5140 N   0  0  0  0  0  0  0  0  0  0  0  0
   -1.4010   68.7680   64.4500 N   0  0  0  0  0  0  0  0  0  0  0  0
   -0.3410   69.1490   63.7660 C   0  0  0  0  0  0  0  0  0  0  0  0
   -0.3820   70.0910   62.6240 C   0  0  0  0  0  0  0  0  0  0  0  0
    3.9430   69.6900   67.0420 C   0  0  0  0  0  0  0  0  0  0  0  0
    3.5500   70.2770   68.2520 C   0  0  0  0  0  0  0  0  0  0  0  0
    4.4110   71.1580   68.9110 C   0  0  0  0  0  0  0  0  0  0  0  0
    5.6640   71.4460   68.3710 C   0  0  0  0  0  0  0  0  0  0  0  0
    6.0660   70.8480   67.1770 C   0  0  0  0  0  0  0  0  0  0  0  0
    5.2090   69.9670   66.5150 C   0  0  0  0  0  0  0  0  0  0  0  0
    3.9364   68.5080   60.9902 H   0  0  0  0  0  0  0  0  0  0  0  0
    1.5871   68.6423   61.8122 H   0  0  0  0  0  0  0  0  0  0  0  0
    0.6158   66.7089   67.1562 H   0  0  0  0  0  0  0  0  0  0  0  0
    1.7790   66.4500   65.8039 H   0  0  0  0  0  0  0  0  0  0  0  0
    5.3705   68.4173   65.0584 H   0  0  0  0  0  0  0  0  0  0  0  0
   -0.4269   71.1232   63.0016 H   0  0  0  0  0  0  0  0  0  0  0  0
    0.5225   69.9638   62.0111 H   0  0  0  0  0  0  0  0  0  0  0  0
   -1.2721   69.8857   62.0111 H   0  0  0  0  0  0  0  0  0  0  0  0
    2.5648   70.0445   68.6825 H   0  0  0  0  0  0  0  0  0  0  0  0
    4.1001   71.6251   69.8571 H   0  0  0  0  0  0  0  0  0  0  0  0
    6.3367   72.1463   68.8879 H   0  0  0  0  0  0  0  0  0  0  0  0
    7.0580   71.0704   66.7570 H   0  0  0  0  0  0  0  0  0  0  0  0
    5.5297   69.4897   65.5773 H   0  0  0  0  0  0  0  0  0  0  0  0
  2  1  1  0
  3  2  2  0
  4  3  1  0
  5  4  2  0
  6  5  1  0
  7  6  1  0
  8  7  1  0
  9  8  1  0
 10  9  2  0
 11  5  1  0
 11 10  1  0
 12 11  2  0
 12  2  1  0
 13  7  2  0
 14 13  1  0
 15 14  2  0
 15  6  1  0
 16 15  1  0
 17 10  1  0
 18 17  2  0
 19 18  1  0
 20 19  2  0
 21 20  1  0
 22 17  1  0
 22 21  2  0
  3 23  1  0
  4 24  1  0
  8 25  1  0
  8 26  1  0
 12 27  1  0
 16 28  1  0
 16 29  1  0
 16 30  1  0
 18 31  1  0
 19 32  1  0
 20 33  1  0
 21 34  1  0
 22 35  1  0
M  END
>  <score>  (4) 
-10.478

$$$$
