=
     RDKit          3D

 58 62  0  0  0  0  0  0  0  0999 V2000
    0.5840   67.3710   66.7050 C   0  0  0  0  0  0  0  0  0  0  0  0
   -0.7460   66.8320   67.2540 C   0  0  0  0  0  0  0  0  0  0  0  0
   -0.7750   66.7420   68.7770 C   0  0  0  0  0  0  0  0  0  0  0  0
    0.6160   66.4420   69.2920 N   0  0  0  0  0  4  0  0  0  0  0  0
    1.5780   67.5820   69.0170 C   0  0  0  0  0  0  0  0  0  0  0  0
    1.2500   68.3040   67.7130 C   0  0  0  0  0  0  0  0  0  0  0  0
    3.0750   68.9760   60.6320 F   0  0  0  0  0  0  0  0  0  0  0  0
    2.5100   68.6940   61.8130 C   0  0  0  0  0  0  0  0  0  0  0  0
    3.2680   68.0320   62.7790 C   0  0  0  0  0  0  0  0  0  0  0  0
    2.7170   67.7160   64.0300 C   0  0  0  0  0  0  0  0  0  0  0  0
    1.3820   68.0840   64.2820 C   0  0  0  0  0  0  0  0  0  0  0  0
    0.6750   68.7410   63.2860 C   0  0  0  0  0  0  0  0  0  0  0  0
    1.1890   69.0700   62.0360 C   0  0  0  0  0  0  0  0  0  0  0  0
   -0.5820   69.0060   63.7250 O   0  0  0  0  0  0  0  0  0  0  0  0
   -0.7320   68.5330   65.0160 N   0  0  0  0  0  0  0  0  0  0  0  0
    0.4440   67.9820   65.3460 C   0  0  0  0  0  0  0  0  0  0  0  0
    0.6180   66.0750   70.7740 C   0  0  0  0  0  0  0  0  0  0  0  0
    0.0270   64.6770   71.0050 C   0  0  0  0  0  0  0  0  0  0  0  0
    1.0330   63.7500   71.6310 C   0  0  0  0  0  0  0  0  0  0  0  0
    1.1560   63.4200   72.9270 C   0  0  0  0  0  0  0  0  0  0  0  0
    0.2320   63.9090   74.0120 C   0  0  0  0  0  0  0  0  0  0  0  0
    2.1400   62.5910   73.3940 N   0  0  0  0  0  0  0  0  0  0  0  0
    3.0350   62.1400   72.5770 C   0  0  0  0  0  0  0  0  0  0  0  0
    3.0510   62.4310   71.2350 N   0  0  0  0  0  0  0  0  0  0  0  0
    2.0120   63.1480   70.6840 C   0  0  0  0  0  0  0  0  0  0  0  0
    1.8210   63.2940   69.4750 O   0  0  0  0  0  0  0  0  0  0  0  0
    3.9720   61.7850   70.3050 C   0  0  0  0  0  0  0  0  0  0  0  0
    5.2400   61.2510   70.9480 C   0  0  0  0  0  0  0  0  0  0  0  0
    4.8690   60.4220   72.1630 C   0  0  0  0  0  0  0  0  0  0  0  0
    4.1580   61.3060   73.1670 C   0  0  0  0  0  0  0  0  0  0  0  0
    1.2560   66.5116   66.5641 H   0  0  0  0  0  0  0  0  0  0  0  0
   -1.5558   67.5012   66.9278 H   0  0  0  0  0  0  0  0  0  0  0  0
   -0.8712   65.8112   66.8637 H   0  0  0  0  0  0  0  0  0  0  0  0
   -1.1218   67.6989   69.1942 H   0  0  0  0  0  0  0  0  0  0  0  0
   -1.4604   65.9380   69.0835 H   0  0  0  0  0  0  0  0  0  0  0  0
    0.9456   65.6175   68.7701 H   0  0  0  0  0  0  0  0  0  0  0  0
    1.5212   68.3027   69.8461 H   0  0  0  0  0  0  0  0  0  0  0  0
    2.5894   67.1591   68.9265 H   0  0  0  0  0  0  0  0  0  0  0  0
    0.5687   69.1400   67.9297 H   0  0  0  0  0  0  0  0  0  0  0  0
    2.1915   68.6672   67.2751 H   0  0  0  0  0  0  0  0  0  0  0  0
    4.3092   67.7547   62.5575 H   0  0  0  0  0  0  0  0  0  0  0  0
    3.3126   67.1944   64.7937 H   0  0  0  0  0  0  0  0  0  0  0  0
    0.5911   69.5925   61.2747 H   0  0  0  0  0  0  0  0  0  0  0  0
    1.6532   66.0920   71.1456 H   0  0  0  0  0  0  0  0  0  0  0  0
   -0.0019   66.8066   71.3130 H   0  0  0  0  0  0  0  0  0  0  0  0
   -0.8436   64.7626   71.6718 H   0  0  0  0  0  0  0  0  0  0  0  0
   -0.2662   64.2607   70.0300 H   0  0  0  0  0  0  0  0  0  0  0  0
    0.6672   63.6787   74.9956 H   0  0  0  0  0  0  0  0  0  0  0  0
    0.0972   64.9965   73.9163 H   0  0  0  0  0  0  0  0  0  0  0  0
   -0.7430   63.4088   73.9163 H   0  0  0  0  0  0  0  0  0  0  0  0
    3.4468   60.9437   69.8291 H   0  0  0  0  0  0  0  0  0  0  0  0
    4.2851   62.5564   69.5861 H   0  0  0  0  0  0  0  0  0  0  0  0
    5.7832   60.6237   70.2259 H   0  0  0  0  0  0  0  0  0  0  0  0
    5.8822   62.0901   71.2538 H   0  0  0  0  0  0  0  0  0  0  0  0
    4.2037   59.6004   71.8593 H   0  0  0  0  0  0  0  0  0  0  0  0
    5.7785   60.0020   72.6172 H   0  0  0  0  0  0  0  0  0  0  0  0
    3.7342   60.6636   73.9529 H   0  0  0  0  0  0  0  0  0  0  0  0
    4.9077   62.0129   73.5522 H   0  0  0  0  0  0  0  0  0  0  0  0
  2  1  1  0
  3  2  1  0
  4  3  1  0
  5  4  1  0
  6  5  1  0
  6  1  1  0
  8  7  1  0
  9  8  2  0
 10  9  1  0
 11 10  2  0
 12 11  1  0
 13 12  2  0
 13  8  1  0
 14 12  1  0
 15 14  1  0
 16 15  2  0
 16 11  1  0
 16  1  1  0
 17  4  1  0
 18 17  1  0
 19 18  1  0
 20 19  2  0
 21 20  1  0
 22 20  1  0
 23 22  2  0
 24 23  1  0
 25 24  1  0
 25 19  1  0
 26 25  2  0
 27 24  1  0
 28 27  1  0
 29 28  1  0
 30 29  1  0
 30 23  1  0
  1 31  1  0
  2 32  1  0
  2 33  1  0
  3 34  1  0
  3 35  1  0
  4 36  1  0
  5 37  1  0
  5 38  1  0
  6 39  1  0
  6 40  1  0
  9 41  1  0
 10 42  1  0
 13 43  1  0
 17 44  1  0
 17 45  1  0
 18 46  1  0
 18 47  1  0
 21 48  1  0
 21 49  1  0
 21 50  1  0
 27 51  1  0
 27 52  1  0
 28 53  1  0
 28 54  1  0
 29 55  1  0
 29 56  1  0
 30 57  1  0
 30 58  1  0
M  CHG  1   4   1
M  END
>  <score>  (1) 
-11.246

$$$$
=
     RDKit          3D

 58 62  0  0  0  0  0  0  0  0999 V2000
    0.3580   67.3740   66.2250 C   0  0  0  0  0  0  0  0  0  0  0  0
   -1.0750   67.2040   66.7540 C   0  0  0  0  0  0  0  0  0  0  0  0
   -1.1420   67.0640   68.2720 C   0  0  0  0  0  0  0  0  0  0  0  0
    0.1060   66.3670   68.7710 N   0  0  0  0  0  4  0  0  0  0  0  0
    1.3500   67.2040   68.5420 C   0  0  0  0  0  0  0  0  0  0  0  0
    1.2490   68.0420   67.2700 C   0  0  0  0  0  0  0  0  0  0  0  0
    3.5810   69.0480   60.5260 F   0  0  0  0  0  0  0  0  0  0  0  0
    2.8760   68.7590   61.6280 C   0  0  0  0  0  0  0  0  0  0  0  0
    3.4780   67.9950   62.6280 C   0  0  0  0  0  0  0  0  0  0  0  0
    2.7770   67.6680   63.7990 C   0  0  0  0  0  0  0  0  0  0  0  0
    1.4550   68.1300   63.9350 C   0  0  0  0  0  0  0  0  0  0  0  0
    0.9070   68.8860   62.9100 C   0  0  0  0  0  0  0  0  0  0  0  0
    1.5720   69.2290   61.7370 C   0  0  0  0  0  0  0  0  0  0  0  0
   -0.3650   69.2310   63.2350 O   0  0  0  0  0  0  0  0  0  0  0  0
   -0.6840   68.7130   64.4770 N   0  0  0  0  0  0  0  0  0  0  0  0
    0.4060   68.0550   64.8930 C   0  0  0  0  0  0  0  0  0  0  0  0
   -0.0090   65.9530   70.2350 C   0  0  0  0  0  0  0  0  0  0  0  0
    1.3600   65.5780   70.8190 C   0  0  0  0  0  0  0  0  0  0  0  0
    1.4010   64.1370   71.2480 C   0  0  0  0  0  0  0  0  0  0  0  0
    2.2080   63.1630   70.7950 C   0  0  0  0  0  0  0  0  0  0  0  0
    3.2900   63.3760   69.7680 C   0  0  0  0  0  0  0  0  0  0  0  0
    2.1310   61.8680   71.2310 N   0  0  0  0  0  0  0  0  0  0  0  0
    1.2100   61.5330   72.0750 C   0  0  0  0  0  0  0  0  0  0  0  0
    0.2950   62.4190   72.5880 N   0  0  0  0  0  0  0  0  0  0  0  0
    0.4070   63.7590   72.2900 C   0  0  0  0  0  0  0  0  0  0  0  0
   -0.2270   64.6590   72.8470 O   0  0  0  0  0  0  0  0  0  0  0  0
   -0.6300   62.0570   73.6570 C   0  0  0  0  0  0  0  0  0  0  0  0
   -0.9250   60.5700   73.7550 C   0  0  0  0  0  0  0  0  0  0  0  0
    0.3850   59.8040   73.7530 C   0  0  0  0  0  0  0  0  0  0  0  0
    1.1100   60.0650   72.4480 C   0  0  0  0  0  0  0  0  0  0  0  0
    0.7657   66.3680   66.0467 H   0  0  0  0  0  0  0  0  0  0  0  0
   -1.6640   68.0845   66.4577 H   0  0  0  0  0  0  0  0  0  0  0  0
   -1.4753   66.2750   66.3218 H   0  0  0  0  0  0  0  0  0  0  0  0
   -1.2122   68.0619   68.7294 H   0  0  0  0  0  0  0  0  0  0  0  0
   -2.0271   66.4713   68.5465 H   0  0  0  0  0  0  0  0  0  0  0  0
    0.1984   65.5055   68.2140 H   0  0  0  0  0  0  0  0  0  0  0  0
    1.4882   67.8773   69.4008 H   0  0  0  0  0  0  0  0  0  0  0  0
    2.2043   66.5199   68.4314 H   0  0  0  0  0  0  0  0  0  0  0  0
    0.8263   69.0254   67.5232 H   0  0  0  0  0  0  0  0  0  0  0  0
    2.2585   68.1454   66.8455 H   0  0  0  0  0  0  0  0  0  0  0  0
    4.5127   67.6453   62.4973 H   0  0  0  0  0  0  0  0  0  0  0  0
    3.2488   67.0663   64.5898 H   0  0  0  0  0  0  0  0  0  0  0  0
    1.0978   69.8318   60.9485 H   0  0  0  0  0  0  0  0  0  0  0  0
   -0.4272   66.7908   70.8123 H   0  0  0  0  0  0  0  0  0  0  0  0
   -0.6649   65.0720   70.2956 H   0  0  0  0  0  0  0  0  0  0  0  0
    2.1327   65.7452   70.0542 H   0  0  0  0  0  0  0  0  0  0  0  0
    1.5415   66.2064   71.7034 H   0  0  0  0  0  0  0  0  0  0  0  0
    4.2468   63.5643   70.2771 H   0  0  0  0  0  0  0  0  0  0  0  0
    3.3800   62.4783   69.1386 H   0  0  0  0  0  0  0  0  0  0  0  0
    3.0331   64.2408   69.1386 H   0  0  0  0  0  0  0  0  0  0  0  0
   -0.1963   62.3854   74.6131 H   0  0  0  0  0  0  0  0  0  0  0  0
   -1.5850   62.5519   73.4267 H   0  0  0  0  0  0  0  0  0  0  0  0
   -1.4714   60.3633   74.6870 H   0  0  0  0  0  0  0  0  0  0  0  0
   -1.5396   60.2563   72.8984 H   0  0  0  0  0  0  0  0  0  0  0  0
    1.0090   60.1393   74.5945 H   0  0  0  0  0  0  0  0  0  0  0  0
    0.1849   58.7274   73.8569 H   0  0  0  0  0  0  0  0  0  0  0  0
    2.1293   59.6603   72.5327 H   0  0  0  0  0  0  0  0  0  0  0  0
    0.5223   59.5769   71.6566 H   0  0  0  0  0  0  0  0  0  0  0  0
  2  1  1  0
  3  2  1  0
  4  3  1  0
  5  4  1  0
  6  5  1  0
  6  1  1  0
  8  7  1  0
  9  8  2  0
 10  9  1  0
 11 10  2  0
 12 11  1  0
 13 12  2  0
 13  8  1  0
 14 12  1  0
 15 14  1  0
 16 15  2  0
 16 11  1  0
 16  1  1  0
 17  4  1  0
 18 17  1  0
 19 18  1  0
 20 19  2  0
 21 20  1  0
 22 20  1  0
 23 22  2  0
 24 23  1  0
 25 24  1  0
 25 19  1  0
 26 25  2  0
 27 24  1  0
 28 27  1  0
 29 28  1  0
 30 29  1  0
 30 23  1  0
  1 31  1  0
  2 32  1  0
  2 33  1  0
  3 34  1  0
  3 35  1  0
  4 36  1  0
  5 37  1  0
  5 38  1  0
  6 39  1  0
  6 40  1  0
  9 41  1  0
 10 42  1  0
 13 43  1  0
 17 44  1  0
 17 45  1  0
 18 46  1  0
 18 47  1  0
 21 48  1  0
 21 49  1  0
 21 50  1  0
 27 51  1  0
 27 52  1  0
 28 53  1  0
 28 54  1  0
 29 55  1  0
 29 56  1  0
 30 57  1  0
 30 58  1  0
M  CHG  1   4   1
M  END
>  <score>  (2) 
-10.435

$$$$
=
     RDKit          3D

 58 62  0  0  0  0  0  0  0  0999 V2000
    1.0330   64.7840   70.3020 C   0  0  0  0  0  0  0  0  0  0  0  0
    2.0600   65.9150   70.1330 C   0  0  0  0  0  0  0  0  0  0  0  0
    1.4920   67.1410   69.4240 C   0  0  0  0  0  0  0  0  0  0  0  0
    0.4380   66.7060   68.4280 N   0  0  0  0  0  4  0  0  0  0  0  0
   -0.7700   66.0960   69.1150 C   0  0  0  0  0  0  0  0  0  0  0  0
   -0.3850   65.3450   70.3870 C   0  0  0  0  0  0  0  0  0  0  0  0
    5.1270   60.3440   73.3330 F   0  0  0  0  0  0  0  0  0  0  0  0
    4.2630   61.2160   72.7960 C   0  0  0  0  0  0  0  0  0  0  0  0
    4.5700   61.7920   71.5640 C   0  0  0  0  0  0  0  0  0  0  0  0
    3.6940   62.7100   70.9640 C   0  0  0  0  0  0  0  0  0  0  0  0
    2.5020   63.0320   71.6390 C   0  0  0  0  0  0  0  0  0  0  0  0
    2.2480   62.4280   72.8620 C   0  0  0  0  0  0  0  0  0  0  0  0
    3.0920   61.5150   73.4850 C   0  0  0  0  0  0  0  0  0  0  0  0
    1.0570   62.8690   73.3420 O   0  0  0  0  0  0  0  0  0  0  0  0
    0.5010   63.7690   72.4520 N   0  0  0  0  0  0  0  0  0  0  0  0
    1.3670   63.8640   71.4340 C   0  0  0  0  0  0  0  0  0  0  0  0
    0.0180   67.8400   67.4970 C   0  0  0  0  0  0  0  0  0  0  0  0
    0.6050   69.1840   67.9520 C   0  0  0  0  0  0  0  0  0  0  0  0
    1.9830   69.4020   67.3900 C   0  0  0  0  0  0  0  0  0  0  0  0
    2.4450   69.0550   66.1770 C   0  0  0  0  0  0  0  0  0  0  0  0
    1.6020   68.4040   65.1100 C   0  0  0  0  0  0  0  0  0  0  0  0
    3.7370   69.2690   65.7830 N   0  0  0  0  0  0  0  0  0  0  0  0
    4.5840   69.7740   66.6200 C   0  0  0  0  0  0  0  0  0  0  0  0
    4.2560   70.1350   67.9030 N   0  0  0  0  0  0  0  0  0  0  0  0
    2.9430   70.0700   68.3120 C   0  0  0  0  0  0  0  0  0  0  0  0
    2.5070   70.5510   69.3600 O   0  0  0  0  0  0  0  0  0  0  0  0
    5.1830   70.8490   68.7760 C   0  0  0  0  0  0  0  0  0  0  0  0
    6.6490   70.6540   68.4280 C   0  0  0  0  0  0  0  0  0  0  0  0
    6.8440   70.9040   66.9440 C   0  0  0  0  0  0  0  0  0  0  0  0
    6.0260   69.8970   66.1610 C   0  0  0  0  0  0  0  0  0  0  0  0
    1.0806   64.1565   69.3998 H   0  0  0  0  0  0  0  0  0  0  0  0
    2.4123   66.2193   71.1296 H   0  0  0  0  0  0  0  0  0  0  0  0
    2.8766   65.5246   69.5078 H   0  0  0  0  0  0  0  0  0  0  0  0
    1.0394   67.8161   70.1652 H   0  0  0  0  0  0  0  0  0  0  0  0
    2.3012   67.6659   68.8952 H   0  0  0  0  0  0  0  0  0  0  0  0
    0.8736   65.9759   67.8465 H   0  0  0  0  0  0  0  0  0  0  0  0
   -1.4737   66.9000   69.3764 H   0  0  0  0  0  0  0  0  0  0  0  0
   -1.2286   65.3764   68.4209 H   0  0  0  0  0  0  0  0  0  0  0  0
   -0.4450   66.0356   71.2411 H   0  0  0  0  0  0  0  0  0  0  0  0
   -1.0810   64.5026   70.5129 H   0  0  0  0  0  0  0  0  0  0  0  0
    5.5087   61.5242   71.0568 H   0  0  0  0  0  0  0  0  0  0  0  0
    3.9330   63.1657   69.9918 H   0  0  0  0  0  0  0  0  0  0  0  0
    2.8500   61.0600   74.4568 H   0  0  0  0  0  0  0  0  0  0  0  0
    0.3750   67.6193   66.4802 H   0  0  0  0  0  0  0  0  0  0  0  0
   -1.0792   67.9165   67.5171 H   0  0  0  0  0  0  0  0  0  0  0  0
   -0.0533   69.9959   67.6094 H   0  0  0  0  0  0  0  0  0  0  0  0
    0.6772   69.1753   69.0496 H   0  0  0  0  0  0  0  0  0  0  0  0
    0.8160   67.7971   65.5832 H   0  0  0  0  0  0  0  0  0  0  0  0
    1.1385   69.1808   64.4842 H   0  0  0  0  0  0  0  0  0  0  0  0
    2.2364   67.7591   64.4842 H   0  0  0  0  0  0  0  0  0  0  0  0
    4.9548   71.9233   68.7150 H   0  0  0  0  0  0  0  0  0  0  0  0
    5.0427   70.4377   69.7865 H   0  0  0  0  0  0  0  0  0  0  0  0
    7.2620   71.3624   69.0046 H   0  0  0  0  0  0  0  0  0  0  0  0
    6.9551   69.6266   68.6743 H   0  0  0  0  0  0  0  0  0  0  0  0
    6.5113   71.9225   66.6950 H   0  0  0  0  0  0  0  0  0  0  0  0
    7.9082   70.7981   66.6866 H   0  0  0  0  0  0  0  0  0  0  0  0
    6.0267   70.1998   65.1035 H   0  0  0  0  0  0  0  0  0  0  0  0
    6.4941   68.9150   66.3238 H   0  0  0  0  0  0  0  0  0  0  0  0
  2  1  1  0
  3  2  1  0
  4  3  1  0
  5  4  1  0
  6  5  1  0
  6  1  1  0
  8  7  1  0
  9  8  2  0
 10  9  1  0
 11 10  2  0
 12 11  1  0
 13 12  2  0
 13  8  1  0
 14 12  1  0
 15 14  1  0
 16 15  2  0
 16 11  1  0
 16  1  1  0
 17  4  1  0
 18 17  1  0
 19 18  1  0
 20 19  2  0
 21 20  1  0
 22 20  1  0
 23 22  2  0
 24 23  1  0
 25 24  1  0
 25 19  1  0
 26 25  2  0
 27 24  1  0
 28 27  1  0
 29 28  1  0
 30 29  1  0
 30 23  1  0
  1 31  1  0
  2 32  1  0
  2 33  1  0
  3 34  1  0
  3 35  1  0
  4 36  1  0
  5 37  1  0
  5 38  1  0
  6 39  1  0
  6 40  1  0
  9 41  1  0
 10 42  1  0
 13 43  1  0
 17 44  1  0
 17 45  1  0
 18 46  1  0
 18 47  1  0
 21 48  1  0
 21 49  1  0
 21 50  1  0
 27 51  1  0
 27 52  1  0
 28 53  1  0
 28 54  1  0
 29 55  1  0
 29 56  1  0
 30 57  1  0
 30 58  1  0
M  CHG  1   4   1
M  END
>  <score>  (3) 
-10.104

$$$$
=
     RDKit          3D

 58 62  0  0  0  0  0  0  0  0999 V2000
    1.0920   64.9700   70.0380 C   0  0  0  0  0  0  0  0  0  0  0  0
    1.9800   66.2210   69.9450 C   0  0  0  0  0  0  0  0  0  0  0  0
    1.2850   67.4030   69.2760 C   0  0  0  0  0  0  0  0  0  0  0  0
    0.3110   66.8940   68.2350 N   0  0  0  0  0  4  0  0  0  0  0  0
   -0.8290   66.1140   68.8630 C   0  0  0  0  0  0  0  0  0  0  0  0
   -0.3840   65.3550   70.1100 C   0  0  0  0  0  0  0  0  0  0  0  0
    5.5760   60.8120   72.9130 F   0  0  0  0  0  0  0  0  0  0  0  0
    4.6360   61.6210   72.4070 C   0  0  0  0  0  0  0  0  0  0  0  0
    4.8870   62.2650   71.1960 C   0  0  0  0  0  0  0  0  0  0  0  0
    3.9300   63.1210   70.6280 C   0  0  0  0  0  0  0  0  0  0  0  0
    2.7150   63.3110   71.3130 C   0  0  0  0  0  0  0  0  0  0  0  0
    2.5190   62.6440   72.5130 C   0  0  0  0  0  0  0  0  0  0  0  0
    3.4440   61.7890   73.1040 C   0  0  0  0  0  0  0  0  0  0  0  0
    1.2950   62.9590   73.0080 O   0  0  0  0  0  0  0  0  0  0  0  0
    0.6580   63.8360   72.1490 N   0  0  0  0  0  0  0  0  0  0  0  0
    1.5100   64.0450   71.1360 C   0  0  0  0  0  0  0  0  0  0  0  0
   -0.2220   68.0120   67.3440 C   0  0  0  0  0  0  0  0  0  0  0  0
    0.6690   69.2600   67.4190 C   0  0  0  0  0  0  0  0  0  0  0  0
    1.8240   69.1720   66.4600 C   0  0  0  0  0  0  0  0  0  0  0  0
    3.1170   69.4480   66.6980 C   0  0  0  0  0  0  0  0  0  0  0  0
    3.6560   69.8630   68.0430 C   0  0  0  0  0  0  0  0  0  0  0  0
    4.0850   69.3700   65.7340 N   0  0  0  0  0  0  0  0  0  0  0  0
    3.7530   69.0760   64.5190 C   0  0  0  0  0  0  0  0  0  0  0  0
    2.4630   68.8110   64.1300 N   0  0  0  0  0  0  0  0  0  0  0  0
    1.4680   68.7410   65.0800 C   0  0  0  0  0  0  0  0  0  0  0  0
    0.3290   68.3180   64.8750 O   0  0  0  0  0  0  0  0  0  0  0  0
    2.1340   68.3250   62.7940 C   0  0  0  0  0  0  0  0  0  0  0  0
    3.1560   68.6780   61.7280 C   0  0  0  0  0  0  0  0  0  0  0  0
    4.5390   68.3020   62.2240 C   0  0  0  0  0  0  0  0  0  0  0  0
    4.8520   69.1010   63.4730 C   0  0  0  0  0  0  0  0  0  0  0  0
    1.2325   64.3947   69.1110 H   0  0  0  0  0  0  0  0  0  0  0  0
    2.2731   66.5181   70.9627 H   0  0  0  0  0  0  0  0  0  0  0  0
    2.8496   65.9592   69.3244 H   0  0  0  0  0  0  0  0  0  0  0  0
    0.7402   67.9848   70.0341 H   0  0  0  0  0  0  0  0  0  0  0  0
    2.0368   68.0436   68.7918 H   0  0  0  0  0  0  0  0  0  0  0  0
    0.8425   66.2488   67.6333 H   0  0  0  0  0  0  0  0  0  0  0  0
   -1.6288   66.8161   69.1412 H   0  0  0  0  0  0  0  0  0  0  0  0
   -1.1837   65.3783   68.1261 H   0  0  0  0  0  0  0  0  0  0  0  0
   -0.5438   65.9928   70.9919 H   0  0  0  0  0  0  0  0  0  0  0  0
   -0.9771   64.4312   70.1800 H   0  0  0  0  0  0  0  0  0  0  0  0
    5.8447   62.1007   70.6804 H   0  0  0  0  0  0  0  0  0  0  0  0
    4.1246   63.6300   69.6725 H   0  0  0  0  0  0  0  0  0  0  0  0
    3.2459   61.2799   74.0587 H   0  0  0  0  0  0  0  0  0  0  0  0
   -0.2533   67.6565   66.3035 H   0  0  0  0  0  0  0  0  0  0  0  0
   -1.2289   68.2836   67.6938 H   0  0  0  0  0  0  0  0  0  0  0  0
    0.0653   70.1454   67.1709 H   0  0  0  0  0  0  0  0  0  0  0  0
    1.0730   69.3344   68.4394 H   0  0  0  0  0  0  0  0  0  0  0  0
    3.0538   69.3994   68.8383 H   0  0  0  0  0  0  0  0  0  0  0  0
    4.7017   69.5346   68.1362 H   0  0  0  0  0  0  0  0  0  0  0  0
    3.6058   70.9579   68.1362 H   0  0  0  0  0  0  0  0  0  0  0  0
    2.0477   67.2293   62.8382 H   0  0  0  0  0  0  0  0  0  0  0  0
    1.1947   68.8182   62.5034 H   0  0  0  0  0  0  0  0  0  0  0  0
    2.9322   68.1234   60.8048 H   0  0  0  0  0  0  0  0  0  0  0  0
    3.1173   69.7574   61.5199 H   0  0  0  0  0  0  0  0  0  0  0  0
    4.5671   67.2274   62.4575 H   0  0  0  0  0  0  0  0  0  0  0  0
    5.2845   68.5232   61.4460 H   0  0  0  0  0  0  0  0  0  0  0  0
    5.7674   68.6909   63.9245 H   0  0  0  0  0  0  0  0  0  0  0  0
    4.9648   70.1489   63.1579 H   0  0  0  0  0  0  0  0  0  0  0  0
  2  1  1  0
  3  2  1  0
  4  3  1  0
  5  4  1  0
  6  5  1  0
  6  1  1  0
  8  7  1  0
  9  8  2  0
 10  9  1  0
 11 10  2  0
 12 11  1  0
 13 12  2  0
 13  8  1  0
 14 12  1  0
 15 14  1  0
 16 15  2  0
 16 11  1  0
 16  1  1  0
 17  4  1  0
 18 17  1  0
 19 18  1  0
 20 19  2  0
 21 20  1  0
 22 20  1  0
 23 22  2  0
 24 23  1  0
 25 24  1  0
 25 19  1  0
 26 25  2  0
 27 24  1  0
 28 27  1  0
 29 28  1  0
 30 29  1  0
 30 23  1  0
  1 31  1  0
  2 32  1  0
  2 33  1  0
  3 34  1  0
  3 35  1  0
  4 36  1  0
  5 37  1  0
  5 38  1  0
  6 39  1  0
  6 40  1  0
  9 41  1  0
 10 42  1  0
 13 43  1  0
 17 44  1  0
 17 45  1  0
 18 46  1  0
 18 47  1  0
 21 48  1  0
 21 49  1  0
 21 50  1  0
 27 51  1  0
 27 52  1  0
 28 53  1  0
 28 54  1  0
 29 55  1  0
 29 56  1  0
 30 57  1  0
 30 58  1  0
M  CHG  1   4   1
M  END
>  <score>  (4) 
-10.097

$$$$
=
     RDKit          3D

 58 62  0  0  0  0  0  0  0  0999 V2000
    1.8420   63.1700   70.8160 C   0  0  0  0  0  0  0  0  0  0  0  0
    2.7020   64.3250   70.2760 C   0  0  0  0  0  0  0  0  0  0  0  0
    1.9070   65.6070   70.0430 C   0  0  0  0  0  0  0  0  0  0  0  0
    0.4900   65.2570   69.6430 N   0  0  0  0  0  4  0  0  0  0  0  0
   -0.2610   64.5690   70.7680 C   0  0  0  0  0  0  0  0  0  0  0  0
    0.6610   63.7040   71.6230 C   0  0  0  0  0  0  0  0  0  0  0  0
    2.3310   57.4810   74.4300 F   0  0  0  0  0  0  0  0  0  0  0  0
    2.3170   58.6170   73.7200 C   0  0  0  0  0  0  0  0  0  0  0  0
    1.0930   59.1080   73.2630 C   0  0  0  0  0  0  0  0  0  0  0  0
    1.0310   60.2940   72.5160 C   0  0  0  0  0  0  0  0  0  0  0  0
    2.2340   60.9720   72.2410 C   0  0  0  0  0  0  0  0  0  0  0  0
    3.4210   60.4390   72.7200 C   0  0  0  0  0  0  0  0  0  0  0  0
    3.5190   59.2680   73.4630 C   0  0  0  0  0  0  0  0  0  0  0  0
    4.4540   61.2380   72.3510 O   0  0  0  0  0  0  0  0  0  0  0  0
    3.9750   62.3110   71.6220 N   0  0  0  0  0  0  0  0  0  0  0  0
    2.6460   62.1500   71.5580 C   0  0  0  0  0  0  0  0  0  0  0  0
   -0.2850   66.4710   69.1370 C   0  0  0  0  0  0  0  0  0  0  0  0
    0.6610   67.5540   68.6010 C   0  0  0  0  0  0  0  0  0  0  0  0
    0.3000   67.9570   67.1970 C   0  0  0  0  0  0  0  0  0  0  0  0
   -0.9270   68.0850   66.6650 C   0  0  0  0  0  0  0  0  0  0  0  0
   -2.2050   67.8850   67.4380 C   0  0  0  0  0  0  0  0  0  0  0  0
   -1.1400   68.4220   65.3560 N   0  0  0  0  0  0  0  0  0  0  0  0
   -0.1280   68.5710   64.5630 C   0  0  0  0  0  0  0  0  0  0  0  0
    1.1760   68.4290   64.9660 N   0  0  0  0  0  0  0  0  0  0  0  0
    1.4570   68.2250   66.2990 C   0  0  0  0  0  0  0  0  0  0  0  0
    2.5830   68.2840   66.7980 O   0  0  0  0  0  0  0  0  0  0  0  0
    2.3030   68.7600   64.0990 C   0  0  0  0  0  0  0  0  0  0  0  0
    1.9900   68.6980   62.6140 C   0  0  0  0  0  0  0  0  0  0  0  0
    0.7210   69.4820   62.3420 C   0  0  0  0  0  0  0  0  0  0  0  0
   -0.4270   68.8470   63.1010 C   0  0  0  0  0  0  0  0  0  0  0  0
    1.4269   62.6320   69.9510 H   0  0  0  0  0  0  0  0  0  0  0  0
    3.5007   64.5358   71.0024 H   0  0  0  0  0  0  0  0  0  0  0  0
    3.1033   64.0070   69.3024 H   0  0  0  0  0  0  0  0  0  0  0  0
    1.8904   66.2013   70.9685 H   0  0  0  0  0  0  0  0  0  0  0  0
    2.3807   66.1911   69.2402 H   0  0  0  0  0  0  0  0  0  0  0  0
    0.5669   64.5917   68.8605 H   0  0  0  0  0  0  0  0  0  0  0  0
   -0.7235   65.3353   71.4074 H   0  0  0  0  0  0  0  0  0  0  0  0
   -1.0225   63.9144   70.3189 H   0  0  0  0  0  0  0  0  0  0  0  0
    1.0441   64.3087   72.4582 H   0  0  0  0  0  0  0  0  0  0  0  0
    0.0812   62.8452   71.9921 H   0  0  0  0  0  0  0  0  0  0  0  0
    0.1672   58.5593   73.4909 H   0  0  0  0  0  0  0  0  0  0  0  0
    0.0680   60.6839   72.1547 H   0  0  0  0  0  0  0  0  0  0  0  0
    4.4837   58.8818   73.8239 H   0  0  0  0  0  0  0  0  0  0  0  0
   -0.9603   66.1534   68.3288 H   0  0  0  0  0  0  0  0  0  0  0  0
   -0.8549   66.8935   69.9776 H   0  0  0  0  0  0  0  0  0  0  0  0
    0.5989   68.4374   69.2534 H   0  0  0  0  0  0  0  0  0  0  0  0
    1.6822   67.1454   68.5906 H   0  0  0  0  0  0  0  0  0  0  0  0
   -1.9904   67.9186   68.5163 H   0  0  0  0  0  0  0  0  0  0  0  0
   -2.9176   68.6826   67.1810 H   0  0  0  0  0  0  0  0  0  0  0  0
   -2.6399   66.9079   67.1810 H   0  0  0  0  0  0  0  0  0  0  0  0
    2.6335   69.7814   64.3388 H   0  0  0  0  0  0  0  0  0  0  0  0
    3.0786   68.0034   64.2888 H   0  0  0  0  0  0  0  0  0  0  0  0
    2.8226   69.1351   62.0434 H   0  0  0  0  0  0  0  0  0  0  0  0
    1.8518   67.6506   62.3075 H   0  0  0  0  0  0  0  0  0  0  0  0
    0.8522   70.5221   62.6751 H   0  0  0  0  0  0  0  0  0  0  0  0
    0.5030   69.4716   61.2639 H   0  0  0  0  0  0  0  0  0  0  0  0
   -1.2924   69.5239   63.0475 H   0  0  0  0  0  0  0  0  0  0  0  0
   -0.6187   67.8727   62.6278 H   0  0  0  0  0  0  0  0  0  0  0  0
  2  1  1  0
  3  2  1  0
  4  3  1  0
  5  4  1  0
  6  5  1  0
  6  1  1  0
  8  7  1  0
  9  8  2  0
 10  9  1  0
 11 10  2  0
 12 11  1  0
 13 12  2  0
 13  8  1  0
 14 12  1  0
 15 14  1  0
 16 15  2  0
 16 11  1  0
 16  1  1  0
 17  4  1  0
 18 17  1  0
 19 18  1  0
 20 19  2  0
 21 20  1  0
 22 20  1  0
 23 22  2  0
 24 23  1  0
 25 24  1  0
 25 19  1  0
 26 25  2  0
 27 24  1  0
 28 27  1  0
 29 28  1  0
 30 29  1  0
 30 23  1  0
  1 31  1  0
  2 32  1  0
  2 33  1  0
  3 34  1  0
  3 35  1  0
  4 36  1  0
  5 37  1  0
  5 38  1  0
  6 39  1  0
  6 40  1  0
  9 41  1  0
 10 42  1  0
 13 43  1  0
 17 44  1  0
 17 45  1  0
 18 46  1  0
 18 47  1  0
 21 48  1  0
 21 49  1  0
 21 50  1  0
 27 51  1  0
 27 52  1  0
 28 53  1  0
 28 54  1  0
 29 55  1  0
 29 56  1  0
 30 57  1  0
 30 58  1  0
M  CHG  1   4   1
M  END
>  <score>  (5) 
-9.59

$$$$
=
     RDKit          3D

 58 62  0  0  0  0  0  0  0  0999 V2000
    1.1890   63.9750   70.0840 C   0  0  0  0  0  0  0  0  0  0  0  0
    2.2940   65.0230   70.2920 C   0  0  0  0  0  0  0  0  0  0  0  0
    1.8240   66.4520   70.0310 C   0  0  0  0  0  0  0  0  0  0  0  0
    0.7600   66.4450   68.9540 N   0  0  0  0  0  4  0  0  0  0  0  0
   -0.4980   65.7300   69.4080 C   0  0  0  0  0  0  0  0  0  0  0  0
   -0.1890   64.5760   70.3570 C   0  0  0  0  0  0  0  0  0  0  0  0
   -0.7500   59.1910   74.4450 F   0  0  0  0  0  0  0  0  0  0  0  0
   -0.2930   60.1000   73.5730 C   0  0  0  0  0  0  0  0  0  0  0  0
   -1.1100   61.1800   73.2400 C   0  0  0  0  0  0  0  0  0  0  0  0
   -0.6720   62.1560   72.3300 C   0  0  0  0  0  0  0  0  0  0  0  0
    0.6090   62.0130   71.7650 C   0  0  0  0  0  0  0  0  0  0  0  0
    1.3780   60.9190   72.1330 C   0  0  0  0  0  0  0  0  0  0  0  0
    0.9770   59.9350   73.0300 C   0  0  0  0  0  0  0  0  0  0  0  0
    2.5690   60.9680   71.4830 O   0  0  0  0  0  0  0  0  0  0  0  0
    2.6120   62.0890   70.6750 N   0  0  0  0  0  0  0  0  0  0  0  0
    1.4380   62.7120   70.8460 C   0  0  0  0  0  0  0  0  0  0  0  0
    0.4360   67.8500   68.4530 C   0  0  0  0  0  0  0  0  0  0  0  0
    0.3610   67.8930   66.9200 C   0  0  0  0  0  0  0  0  0  0  0  0
    1.6700   68.3190   66.3150 C   0  0  0  0  0  0  0  0  0  0  0  0
    2.6110   69.1110   66.8560 C   0  0  0  0  0  0  0  0  0  0  0  0
    2.5270   69.6900   68.2450 C   0  0  0  0  0  0  0  0  0  0  0  0
    3.7550   69.4670   66.1950 N   0  0  0  0  0  0  0  0  0  0  0  0
    3.9310   69.0830   64.9730 C   0  0  0  0  0  0  0  0  0  0  0  0
    3.0320   68.3060   64.2870 N   0  0  0  0  0  0  0  0  0  0  0  0
    1.9290   67.8040   64.9420 C   0  0  0  0  0  0  0  0  0  0  0  0
    1.1720   66.9440   64.4880 O   0  0  0  0  0  0  0  0  0  0  0  0
    3.3230   67.7510   62.9680 C   0  0  0  0  0  0  0  0  0  0  0  0
    4.3670   68.5230   62.1800 C   0  0  0  0  0  0  0  0  0  0  0  0
    5.5800   68.7570   63.0590 C   0  0  0  0  0  0  0  0  0  0  0  0
    5.1700   69.5900   64.2570 C   0  0  0  0  0  0  0  0  0  0  0  0
    1.2102   63.6781   69.0250 H   0  0  0  0  0  0  0  0  0  0  0  0
    2.6485   64.9558   71.3311 H   0  0  0  0  0  0  0  0  0  0  0  0
    3.0928   64.8041   69.5681 H   0  0  0  0  0  0  0  0  0  0  0  0
    1.4062   66.8753   70.9564 H   0  0  0  0  0  0  0  0  0  0  0  0
    2.6764   67.0635   69.7001 H   0  0  0  0  0  0  0  0  0  0  0  0
    1.1537   65.9182   68.1613 H   0  0  0  0  0  0  0  0  0  0  0  0
   -1.1489   66.4504   69.9251 H   0  0  0  0  0  0  0  0  0  0  0  0
   -0.9926   65.3144   68.5177 H   0  0  0  0  0  0  0  0  0  0  0  0
   -0.2173   64.9478   71.3919 H   0  0  0  0  0  0  0  0  0  0  0  0
   -0.9433   63.7909   70.2001 H   0  0  0  0  0  0  0  0  0  0  0  0
   -2.1077   61.2684   73.6947 H   0  0  0  0  0  0  0  0  0  0  0  0
   -1.3133   63.0098   72.0658 H   0  0  0  0  0  0  0  0  0  0  0  0
    1.6212   59.0829   73.2927 H   0  0  0  0  0  0  0  0  0  0  0  0
   -0.5333   68.1636   68.8680 H   0  0  0  0  0  0  0  0  0  0  0  0
    1.2377   68.5284   68.7802 H   0  0  0  0  0  0  0  0  0  0  0  0
    0.1043   66.8907   66.5466 H   0  0  0  0  0  0  0  0  0  0  0  0
   -0.4065   68.6268   66.6329 H   0  0  0  0  0  0  0  0  0  0  0  0
    2.6438   68.8850   68.9855 H   0  0  0  0  0  0  0  0  0  0  0  0
    3.3268   70.4327   68.3816 H   0  0  0  0  0  0  0  0  0  0  0  0
    1.5491   70.1748   68.3816 H   0  0  0  0  0  0  0  0  0  0  0  0
    3.6841   66.7204   63.1002 H   0  0  0  0  0  0  0  0  0  0  0  0
    2.3885   67.8066   62.3904 H   0  0  0  0  0  0  0  0  0  0  0  0
    4.6615   67.9435   61.2927 H   0  0  0  0  0  0  0  0  0  0  0  0
    3.9497   69.4891   61.8598 H   0  0  0  0  0  0  0  0  0  0  0  0
    5.9790   67.7907   63.4012 H   0  0  0  0  0  0  0  0  0  0  0  0
    6.3560   69.2867   62.4870 H   0  0  0  0  0  0  0  0  0  0  0  0
    6.0042   69.5970   64.9740 H   0  0  0  0  0  0  0  0  0  0  0  0
    4.9268   70.5929   63.8762 H   0  0  0  0  0  0  0  0  0  0  0  0
  2  1  1  0
  3  2  1  0
  4  3  1  0
  5  4  1  0
  6  5  1  0
  6  1  1  0
  8  7  1  0
  9  8  2  0
 10  9  1  0
 11 10  2  0
 12 11  1  0
 13 12  2  0
 13  8  1  0
 14 12  1  0
 15 14  1  0
 16 15  2  0
 16 11  1  0
 16  1  1  0
 17  4  1  0
 18 17  1  0
 19 18  1  0
 20 19  2  0
 21 20  1  0
 22 20  1  0
 23 22  2  0
 24 23  1  0
 25 24  1  0
 25 19  1  0
 26 25  2  0
 27 24  1  0
 28 27  1  0
 29 28  1  0
 30 29  1  0
 30 23  1  0
  1 31  1  0
  2 32  1  0
  2 33  1  0
  3 34  1  0
  3 35  1  0
  4 36  1  0
  5 37  1  0
  5 38  1  0
  6 39  1  0
  6 40  1  0
  9 41  1  0
 10 42  1  0
 13 43  1  0
 17 44  1  0
 17 45  1  0
 18 46  1  0
 18 47  1  0
 21 48  1  0
 21 49  1  0
 21 50  1  0
 27 51  1  0
 27 52  1  0
 28 53  1  0
 28 54  1  0
 29 55  1  0
 29 56  1  0
 30 57  1  0
 30 58  1  0
M  CHG  1   4   1
M  END
>  <score>  (6) 
-9.337

$$$$
=
     RDKit          3D

 58 62  0  0  0  0  0  0  0  0999 V2000
    0.4400   65.6040   70.0350 C   0  0  0  0  0  0  0  0  0  0  0  0
   -0.3030   65.8890   71.3500 C   0  0  0  0  0  0  0  0  0  0  0  0
    0.1920   65.0370   72.5160 C   0  0  0  0  0  0  0  0  0  0  0  0
    0.6540   63.6920   71.9990 N   0  0  0  0  0  4  0  0  0  0  0  0
    1.8730   63.8190   71.1040 C   0  0  0  0  0  0  0  0  0  0  0  0
    1.8630   65.1210   70.3080 C   0  0  0  0  0  0  0  0  0  0  0  0
   -2.7800   69.3330   65.4100 F   0  0  0  0  0  0  0  0  0  0  0  0
   -2.0760   68.6440   66.3180 C   0  0  0  0  0  0  0  0  0  0  0  0
   -2.6610   67.5270   66.9140 C   0  0  0  0  0  0  0  0  0  0  0  0
   -1.9600   66.7760   67.8710 C   0  0  0  0  0  0  0  0  0  0  0  0
   -0.6560   67.1810   68.2100 C   0  0  0  0  0  0  0  0  0  0  0  0
   -0.1240   68.2990   67.5860 C   0  0  0  0  0  0  0  0  0  0  0  0
   -0.7890   69.0660   66.6350 C   0  0  0  0  0  0  0  0  0  0  0  0
    1.1330   68.5170   68.0490 O   0  0  0  0  0  0  0  0  0  0  0  0
    1.4580   67.5530   68.9850 N   0  0  0  0  0  0  0  0  0  0  0  0
    0.3860   66.7550   69.0790 C   0  0  0  0  0  0  0  0  0  0  0  0
    0.9100   62.6950   73.1260 C   0  0  0  0  0  0  0  0  0  0  0  0
    2.3290   62.1150   73.0490 C   0  0  0  0  0  0  0  0  0  0  0  0
    2.3100   60.6120   73.0300 C   0  0  0  0  0  0  0  0  0  0  0  0
    2.5710   59.7960   71.9950 C   0  0  0  0  0  0  0  0  0  0  0  0
    2.9940   60.2760   70.6300 C   0  0  0  0  0  0  0  0  0  0  0  0
    2.4860   58.4330   72.0800 N   0  0  0  0  0  0  0  0  0  0  0  0
    2.0810   57.8870   73.1810 C   0  0  0  0  0  0  0  0  0  0  0  0
    1.7440   58.6040   74.3020 N   0  0  0  0  0  0  0  0  0  0  0  0
    1.9390   59.9680   74.3200 C   0  0  0  0  0  0  0  0  0  0  0  0
    1.8620   60.6760   75.3260 O   0  0  0  0  0  0  0  0  0  0  0  0
    1.4470   57.9650   75.5800 C   0  0  0  0  0  0  0  0  0  0  0  0
    0.9690   56.5270   75.4660 C   0  0  0  0  0  0  0  0  0  0  0  0
    1.9210   55.7580   74.5700 C   0  0  0  0  0  0  0  0  0  0  0  0
    1.9110   56.3790   73.1870 C   0  0  0  0  0  0  0  0  0  0  0  0
   -0.0894   64.7847   69.5267 H   0  0  0  0  0  0  0  0  0  0  0  0
   -0.1639   66.9493   71.6077 H   0  0  0  0  0  0  0  0  0  0  0  0
   -1.3620   65.6392   71.1884 H   0  0  0  0  0  0  0  0  0  0  0  0
    1.0310   65.5468   73.0121 H   0  0  0  0  0  0  0  0  0  0  0  0
   -0.6265   64.8910   73.2362 H   0  0  0  0  0  0  0  0  0  0  0  0
   -0.1196   63.3209   71.4292 H   0  0  0  0  0  0  0  0  0  0  0  0
    2.7775   63.7918   71.7294 H   0  0  0  0  0  0  0  0  0  0  0  0
    1.8590   62.9830   70.3892 H   0  0  0  0  0  0  0  0  0  0  0  0
    2.3981   65.8931   70.8803 H   0  0  0  0  0  0  0  0  0  0  0  0
    2.3543   64.9362   69.3413 H   0  0  0  0  0  0  0  0  0  0  0  0
   -3.6821   67.2313   66.6314 H   0  0  0  0  0  0  0  0  0  0  0  0
   -2.4181   65.8944   68.3432 H   0  0  0  0  0  0  0  0  0  0  0  0
   -0.3280   69.9473   66.1651 H   0  0  0  0  0  0  0  0  0  0  0  0
    0.7843   63.2065   74.0917 H   0  0  0  0  0  0  0  0  0  0  0  0
    0.1920   61.8677   73.0261 H   0  0  0  0  0  0  0  0  0  0  0  0
    2.8140   62.4779   72.1308 H   0  0  0  0  0  0  0  0  0  0  0  0
    2.8840   62.4417   73.9407 H   0  0  0  0  0  0  0  0  0  0  0  0
    3.7177   61.0973   70.7381 H   0  0  0  0  0  0  0  0  0  0  0  0
    3.4603   59.4467   70.0779 H   0  0  0  0  0  0  0  0  0  0  0  0
    2.1126   60.6343   70.0779 H   0  0  0  0  0  0  0  0  0  0  0  0
    2.3615   57.9763   76.1912 H   0  0  0  0  0  0  0  0  0  0  0  0
    0.6223   58.5353   76.0323 H   0  0  0  0  0  0  0  0  0  0  0  0
    0.9484   56.0653   76.4642 H   0  0  0  0  0  0  0  0  0  0  0  0
   -0.0435   56.5056   75.0365 H   0  0  0  0  0  0  0  0  0  0  0  0
    2.9378   55.8041   74.9872 H   0  0  0  0  0  0  0  0  0  0  0  0
    1.6029   54.7069   74.5067 H   0  0  0  0  0  0  0  0  0  0  0  0
    2.7326   55.9369   72.6044 H   0  0  0  0  0  0  0  0  0  0  0  0
    0.9214   56.1707   72.7541 H   0  0  0  0  0  0  0  0  0  0  0  0
  2  1  1  0
  3  2  1  0
  4  3  1  0
  5  4  1  0
  6  5  1  0
  6  1  1  0
  8  7  1  0
  9  8  2  0
 10  9  1  0
 11 10  2  0
 12 11  1  0
 13 12  2  0
 13  8  1  0
 14 12  1  0
 15 14  1  0
 16 15  2  0
 16 11  1  0
 16  1  1  0
 17  4  1  0
 18 17  1  0
 19 18  1  0
 20 19  2  0
 21 20  1  0
 22 20  1  0
 23 22  2  0
 24 23  1  0
 25 24  1  0
 25 19  1  0
 26 25  2  0
 27 24  1  0
 28 27  1  0
 29 28  1  0
 30 29  1  0
 30 23  1  0
  1 31  1  0
  2 32  1  0
  2 33  1  0
  3 34  1  0
  3 35  1  0
  4 36  1  0
  5 37  1  0
  5 38  1  0
  6 39  1  0
  6 40  1  0
  9 41  1  0
 10 42  1  0
 13 43  1  0
 17 44  1  0
 17 45  1  0
 18 46  1  0
 18 47  1  0
 21 48  1  0
 21 49  1  0
 21 50  1  0
 27 51  1  0
 27 52  1  0
 28 53  1  0
 28 54  1  0
 29 55  1  0
 29 56  1  0
 30 57  1  0
 30 58  1  0
M  CHG  1   4   1
M  END
>  <score>  (7) 
-9.173

$$$$
=
     RDKit          3D

 58 62  0  0  0  0  0  0  0  0999 V2000
    1.2610   65.9720   70.2500 C   0  0  0  0  0  0  0  0  0  0  0  0
    2.0260   64.7820   69.6470 C   0  0  0  0  0  0  0  0  0  0  0  0
    1.8260   63.4840   70.4240 C   0  0  0  0  0  0  0  0  0  0  0  0
    1.6330   63.7980   71.8920 N   0  0  0  0  0  4  0  0  0  0  0  0
    0.3500   64.5670   72.1410 C   0  0  0  0  0  0  0  0  0  0  0  0
    0.0070   65.4980   70.9810 C   0  0  0  0  0  0  0  0  0  0  0  0
   -2.6900   68.8800   65.6020 F   0  0  0  0  0  0  0  0  0  0  0  0
   -1.8510   68.3630   66.5100 C   0  0  0  0  0  0  0  0  0  0  0  0
   -2.2200   67.1960   67.1780 C   0  0  0  0  0  0  0  0  0  0  0  0
   -1.3720   66.6200   68.1370 C   0  0  0  0  0  0  0  0  0  0  0  0
   -0.1430   67.2510   68.4040 C   0  0  0  0  0  0  0  0  0  0  0  0
    0.1730   68.4090   67.7100 C   0  0  0  0  0  0  0  0  0  0  0  0
   -0.6420   69.0070   66.7550 C   0  0  0  0  0  0  0  0  0  0  0  0
    1.3910   68.8560   68.1110 O   0  0  0  0  0  0  0  0  0  0  0  0
    1.9030   68.0070   69.0740 N   0  0  0  0  0  0  0  0  0  0  0  0
    0.9830   67.0480   69.2480 C   0  0  0  0  0  0  0  0  0  0  0  0
    1.6960   62.5480   72.7650 C   0  0  0  0  0  0  0  0  0  0  0  0
    1.5560   61.2710   71.9240 C   0  0  0  0  0  0  0  0  0  0  0  0
    0.8150   60.1970   72.6710 C   0  0  0  0  0  0  0  0  0  0  0  0
   -0.4190   60.2590   73.1990 C   0  0  0  0  0  0  0  0  0  0  0  0
   -1.3260   61.4560   73.0800 C   0  0  0  0  0  0  0  0  0  0  0  0
   -0.9830   59.2260   73.8970 N   0  0  0  0  0  0  0  0  0  0  0  0
   -0.2930   58.1550   74.1210 C   0  0  0  0  0  0  0  0  0  0  0  0
    0.9920   57.9760   73.6740 N   0  0  0  0  0  0  0  0  0  0  0  0
    1.5640   58.9220   72.8530 C   0  0  0  0  0  0  0  0  0  0  0  0
    2.6220   58.7730   72.2370 O   0  0  0  0  0  0  0  0  0  0  0  0
    1.6930   56.7010   73.7980 C   0  0  0  0  0  0  0  0  0  0  0  0
    1.1810   55.8100   74.9160 C   0  0  0  0  0  0  0  0  0  0  0  0
   -0.3290   55.7050   74.8150 C   0  0  0  0  0  0  0  0  0  0  0  0
   -0.9340   57.0840   74.9850 C   0  0  0  0  0  0  0  0  0  0  0  0
    1.9158   66.4412   70.9991 H   0  0  0  0  0  0  0  0  0  0  0  0
    1.6776   64.6290   68.6149 H   0  0  0  0  0  0  0  0  0  0  0  0
    3.0976   65.0267   69.6889 H   0  0  0  0  0  0  0  0  0  0  0  0
    0.9372   62.9610   70.0412 H   0  0  0  0  0  0  0  0  0  0  0  0
    2.7112   62.8429   70.3000 H   0  0  0  0  0  0  0  0  0  0  0  0
    2.4213   64.4026   72.1639 H   0  0  0  0  0  0  0  0  0  0  0  0
   -0.4732   63.8500   72.2763 H   0  0  0  0  0  0  0  0  0  0  0  0
    0.4926   65.1836   73.0407 H   0  0  0  0  0  0  0  0  0  0  0  0
   -0.6383   64.9603   70.2707 H   0  0  0  0  0  0  0  0  0  0  0  0
   -0.5073   66.3806   71.3891 H   0  0  0  0  0  0  0  0  0  0  0  0
   -3.1861   66.7216   66.9510 H   0  0  0  0  0  0  0  0  0  0  0  0
   -1.6607   65.6996   68.6658 H   0  0  0  0  0  0  0  0  0  0  0  0
   -0.3504   69.9277   66.2284 H   0  0  0  0  0  0  0  0  0  0  0  0
    2.6621   62.5266   73.2905 H   0  0  0  0  0  0  0  0  0  0  0  0
    0.8628   62.5838   73.4823 H   0  0  0  0  0  0  0  0  0  0  0  0
    1.0060   61.5091   71.0016 H   0  0  0  0  0  0  0  0  0  0  0  0
    2.5647   60.8975   71.6935 H   0  0  0  0  0  0  0  0  0  0  0  0
   -1.5962   61.8126   74.0849 H   0  0  0  0  0  0  0  0  0  0  0  0
   -0.8062   62.2571   72.5341 H   0  0  0  0  0  0  0  0  0  0  0  0
   -2.2379   61.1723   72.5341 H   0  0  0  0  0  0  0  0  0  0  0  0
    1.5872   56.1564   72.8482 H   0  0  0  0  0  0  0  0  0  0  0  0
    2.7389   56.9400   74.0409 H   0  0  0  0  0  0  0  0  0  0  0  0
    1.6269   54.8088   74.8226 H   0  0  0  0  0  0  0  0  0  0  0  0
    1.4583   56.2406   75.8895 H   0  0  0  0  0  0  0  0  0  0  0  0
   -0.6051   55.3004   73.8301 H   0  0  0  0  0  0  0  0  0  0  0  0
   -0.7074   55.0347   75.6008 H   0  0  0  0  0  0  0  0  0  0  0  0
   -2.0019   57.0264   74.7276 H   0  0  0  0  0  0  0  0  0  0  0  0
   -0.7633   57.3775   76.0313 H   0  0  0  0  0  0  0  0  0  0  0  0
  2  1  1  0
  3  2  1  0
  4  3  1  0
  5  4  1  0
  6  5  1  0
  6  1  1  0
  8  7  1  0
  9  8  2  0
 10  9  1  0
 11 10  2  0
 12 11  1  0
 13 12  2  0
 13  8  1  0
 14 12  1  0
 15 14  1  0
 16 15  2  0
 16 11  1  0
 16  1  1  0
 17  4  1  0
 18 17  1  0
 19 18  1  0
 20 19  2  0
 21 20  1  0
 22 20  1  0
 23 22  2  0
 24 23  1  0
 25 24  1  0
 25 19  1  0
 26 25  2  0
 27 24  1  0
 28 27  1  0
 29 28  1  0
 30 29  1  0
 30 23  1  0
  1 31  1  0
  2 32  1  0
  2 33  1  0
  3 34  1  0
  3 35  1  0
  4 36  1  0
  5 37  1  0
  5 38  1  0
  6 39  1  0
  6 40  1  0
  9 41  1  0
 10 42  1  0
 13 43  1  0
 17 44  1  0
 17 45  1  0
 18 46  1  0
 18 47  1  0
 21 48  1  0
 21 49  1  0
 21 50  1  0
 27 51  1  0
 27 52  1  0
 28 53  1  0
 28 54  1  0
 29 55  1  0
 29 56  1  0
 30 57  1  0
 30 58  1  0
M  CHG  1   4   1
M  END
>  <score>  (8) 
-9.16

$$$$
=
     RDKit          3D

 58 62  0  0  0  0  0  0  0  0999 V2000
   -0.8730   58.8880   74.5530 C   0  0  0  0  0  0  0  0  0  0  0  0
   -0.0050   59.4630   75.6830 C   0  0  0  0  0  0  0  0  0  0  0  0
   -0.1580   60.9720   75.8510 C   0  0  0  0  0  0  0  0  0  0  0  0
   -0.4440   61.6030   74.5050 N   0  0  0  0  0  4  0  0  0  0  0  0
   -1.7860   61.1640   73.9480 C   0  0  0  0  0  0  0  0  0  0  0  0
   -2.1290   59.7320   74.3490 C   0  0  0  0  0  0  0  0  0  0  0  0
    0.9340   52.3820   74.2810 F   0  0  0  0  0  0  0  0  0  0  0  0
    0.5010   53.6470   74.3610 C   0  0  0  0  0  0  0  0  0  0  0  0
    1.3670   54.6780   73.9960 C   0  0  0  0  0  0  0  0  0  0  0  0
    0.9560   56.0180   74.0650 C   0  0  0  0  0  0  0  0  0  0  0  0
   -0.3510   56.2910   74.5110 C   0  0  0  0  0  0  0  0  0  0  0  0
   -1.1690   55.2280   74.8610 C   0  0  0  0  0  0  0  0  0  0  0  0
   -0.7950   53.8900   74.8050 C   0  0  0  0  0  0  0  0  0  0  0  0
   -2.3770   55.7020   75.2600 O   0  0  0  0  0  0  0  0  0  0  0  0
   -2.3830   57.0830   75.1830 N   0  0  0  0  0  0  0  0  0  0  0  0
   -1.1700   57.4330   74.7350 C   0  0  0  0  0  0  0  0  0  0  0  0
   -0.3460   63.1260   74.5470 C   0  0  0  0  0  0  0  0  0  0  0  0
    1.0850   63.6020   74.2580 C   0  0  0  0  0  0  0  0  0  0  0  0
    1.5620   63.1320   72.9120 C   0  0  0  0  0  0  0  0  0  0  0  0
    1.2750   63.6520   71.7070 C   0  0  0  0  0  0  0  0  0  0  0  0
    0.4270   64.8810   71.5000 C   0  0  0  0  0  0  0  0  0  0  0  0
    1.7370   63.1160   70.5350 N   0  0  0  0  0  0  0  0  0  0  0  0
    2.4340   62.0270   70.5630 C   0  0  0  0  0  0  0  0  0  0  0  0
    2.7650   61.3700   71.7210 N   0  0  0  0  0  0  0  0  0  0  0  0
    2.4450   61.9330   72.9370 C   0  0  0  0  0  0  0  0  0  0  0  0
    2.8640   61.5380   74.0270 O   0  0  0  0  0  0  0  0  0  0  0  0
    3.6850   60.2360   71.7420 C   0  0  0  0  0  0  0  0  0  0  0  0
    3.7830   59.4840   70.4270 C   0  0  0  0  0  0  0  0  0  0  0  0
    4.0150   60.4770   69.3040 C   0  0  0  0  0  0  0  0  0  0  0  0
    2.8340   61.4240   69.2280 C   0  0  0  0  0  0  0  0  0  0  0  0
   -0.2871   58.9465   73.6238 H   0  0  0  0  0  0  0  0  0  0  0  0
   -0.2917   58.9755   76.6265 H   0  0  0  0  0  0  0  0  0  0  0  0
    1.0451   59.2685   75.4194 H   0  0  0  0  0  0  0  0  0  0  0  0
   -0.9905   61.1819   76.5387 H   0  0  0  0  0  0  0  0  0  0  0  0
    0.7720   61.3914   76.2624 H   0  0  0  0  0  0  0  0  0  0  0  0
    0.2894   61.2642   73.8661 H   0  0  0  0  0  0  0  0  0  0  0  0
   -2.5671   61.8371   74.3310 H   0  0  0  0  0  0  0  0  0  0  0  0
   -1.7290   61.2057   72.8503 H   0  0  0  0  0  0  0  0  0  0  0  0
   -2.7018   59.7519   75.2879 H   0  0  0  0  0  0  0  0  0  0  0  0
   -2.7187   59.2800   73.5379 H   0  0  0  0  0  0  0  0  0  0  0  0
    2.3833   54.4379   73.6503 H   0  0  0  0  0  0  0  0  0  0  0  0
    1.6368   56.8331   73.7783 H   0  0  0  0  0  0  0  0  0  0  0  0
   -1.4784   53.0775   75.0926 H   0  0  0  0  0  0  0  0  0  0  0  0
   -1.0238   63.5495   73.7912 H   0  0  0  0  0  0  0  0  0  0  0  0
   -0.6269   63.4640   75.5554 H   0  0  0  0  0  0  0  0  0  0  0  0
    1.1072   64.7015   74.2809 H   0  0  0  0  0  0  0  0  0  0  0  0
    1.7502   63.1802   75.0259 H   0  0  0  0  0  0  0  0  0  0  0  0
    0.1399   65.2972   72.4769 H   0  0  0  0  0  0  0  0  0  0  0  0
    1.0004   65.6314   70.9360 H   0  0  0  0  0  0  0  0  0  0  0  0
   -0.4781   64.6113   70.9360 H   0  0  0  0  0  0  0  0  0  0  0  0
    4.6867   60.6103   71.9998 H   0  0  0  0  0  0  0  0  0  0  0  0
    3.2897   59.5245   72.4820 H   0  0  0  0  0  0  0  0  0  0  0  0
    4.6221   58.7740   70.4702 H   0  0  0  0  0  0  0  0  0  0  0  0
    2.8497   58.9307   70.2458 H   0  0  0  0  0  0  0  0  0  0  0  0
    4.9336   61.0488   69.5018 H   0  0  0  0  0  0  0  0  0  0  0  0
    4.1214   59.9397   68.3501 H   0  0  0  0  0  0  0  0  0  0  0  0
    3.0930   62.2443   68.5425 H   0  0  0  0  0  0  0  0  0  0  0  0
    1.9755   60.8319   68.8782 H   0  0  0  0  0  0  0  0  0  0  0  0
  2  1  1  0
  3  2  1  0
  4  3  1  0
  5  4  1  0
  6  5  1  0
  6  1  1  0
  8  7  1  0
  9  8  2  0
 10  9  1  0
 11 10  2  0
 12 11  1  0
 13 12  2  0
 13  8  1  0
 14 12  1  0
 15 14  1  0
 16 15  2  0
 16 11  1  0
 16  1  1  0
 17  4  1  0
 18 17  1  0
 19 18  1  0
 20 19  2  0
 21 20  1  0
 22 20  1  0
 23 22  2  0
 24 23  1  0
 25 24  1  0
 25 19  1  0
 26 25  2  0
 27 24  1  0
 28 27  1  0
 29 28  1  0
 30 29  1  0
 30 23  1  0
  1 31  1  0
  2 32  1  0
  2 33  1  0
  3 34  1  0
  3 35  1  0
  4 36  1  0
  5 37  1  0
  5 38  1  0
  6 39  1  0
  6 40  1  0
  9 41  1  0
 10 42  1  0
 13 43  1  0
 17 44  1  0
 17 45  1  0
 18 46  1  0
 18 47  1  0
 21 48  1  0
 21 49  1  0
 21 50  1  0
 27 51  1  0
 27 52  1  0
 28 53  1  0
 28 54  1  0
 29 55  1  0
 29 56  1  0
 30 57  1  0
 30 58  1  0
M  CHG  1   4   1
M  END
>  <score>  (9) 
-8.49

$$$$
