=
     RDKit          3D

 59 61  0  0  0  0  0  0  0  0999 V2000
   -0.8210   67.1960   68.0580 C   0  0  0  0  0  0  0  0  0  0  0  0
    0.3710   67.5710   67.4030 C   0  0  0  0  0  0  0  0  0  0  0  0
    0.3650   68.2510   66.1690 C   0  0  0  0  0  0  0  0  0  0  0  0
   -0.8890   68.5370   65.6040 C   0  0  0  0  0  0  0  0  0  0  0  0
   -2.0780   68.1980   66.2420 C   0  0  0  0  0  0  0  0  0  0  0  0
   -2.0400   67.5380   67.4640 C   0  0  0  0  0  0  0  0  0  0  0  0
    1.6430   68.7270   65.4880 C   0  0  1  0  0  0  0  0  0  0  0  0
    2.9440   68.4140   66.2200 C   0  0  0  0  0  0  0  0  0  0  0  0
    4.0900   68.9670   65.4230 C   0  0  0  0  0  0  0  0  0  0  0  0
    5.1400   69.3470   65.9370 O   0  0  0  0  0  0  0  0  0  0  0  0
    3.9420   68.9810   63.9580 C   0  0  0  0  0  0  0  0  0  0  0  0
    2.7370   68.5410   63.4130 C   0  0  0  0  0  0  0  0  0  0  0  0
    1.6680   68.1370   64.1700 O   0  0  0  0  0  0  0  0  0  0  0  0
    2.5860   68.4670   62.0290 C   0  0  0  0  0  0  0  0  0  0  0  0
    3.6320   68.8700   61.2020 C   0  0  0  0  0  0  0  0  0  0  0  0
    4.8310   69.3340   61.7340 C   0  0  0  0  0  0  0  0  0  0  0  0
    4.9860   69.3830   63.1170 C   0  0  0  0  0  0  0  0  0  0  0  0
    6.1930   69.8280   63.5860 O   0  0  0  0  0  0  0  0  0  0  0  0
    3.4370   68.7930   59.8550 O   0  0  0  0  0  0  0  0  0  0  0  0
   -3.2480   67.2500   68.0350 O   0  0  0  0  0  0  0  0  0  0  0  0
   -1.0130   69.1660   64.3940 O   0  0  0  0  0  0  0  0  0  0  0  0
   -0.7360   66.4360   69.3640 C   0  0  0  0  0  0  0  0  0  0  0  0
    0.2070   63.7360   70.7020 C   0  0  0  0  0  0  0  0  0  0  0  0
    1.0960   64.8670   70.2580 C   0  0  0  0  0  0  0  0  0  0  0  0
    0.6720   66.0160   69.6920 C   0  0  0  0  0  0  0  0  0  0  0  0
    2.5800   64.6590   70.5200 C   0  0  0  0  0  0  0  0  0  0  0  0
    3.1990   63.4820   69.7530 C   0  0  0  0  0  0  0  0  0  0  0  0
    4.2770   62.7610   70.5180 C   0  0  0  0  0  0  0  0  0  0  0  0
    4.5440   61.4390   70.5280 C   0  0  0  0  0  0  0  0  0  0  0  0
    3.7620   60.3910   69.7880 C   0  0  0  0  0  0  0  0  0  0  0  0
    5.6930   60.8970   71.3380 C   0  0  0  0  0  0  0  0  0  0  0  0
    1.3357   67.3247   67.8706 H   0  0  0  0  0  0  0  0  0  0  0  0
   -3.0440   68.4514   65.7809 H   0  0  0  0  0  0  0  0  0  0  0  0
    1.6051   69.8262   65.4713 H   0  0  0  0  0  0  0  0  0  0  0  0
    2.9286   68.8782   67.2171 H   0  0  0  0  0  0  0  0  0  0  0  0
    3.0574   67.3258   66.3340 H   0  0  0  0  0  0  0  0  0  0  0  0
    1.6477   68.0931   61.5933 H   0  0  0  0  0  0  0  0  0  0  0  0
    5.6463   69.6581   61.0704 H   0  0  0  0  0  0  0  0  0  0  0  0
    6.3556   69.8823   64.5610 H   0  0  0  0  0  0  0  0  0  0  0  0
    4.1565   69.0701   59.2340 H   0  0  0  0  0  0  0  0  0  0  0  0
   -3.2845   66.7807   68.9059 H   0  0  0  0  0  0  0  0  0  0  0  0
   -1.9117   69.3532   64.0232 H   0  0  0  0  0  0  0  0  0  0  0  0
   -1.1101   67.0806   70.1730 H   0  0  0  0  0  0  0  0  0  0  0  0
   -1.3432   65.5244   69.2622 H   0  0  0  0  0  0  0  0  0  0  0  0
    0.1795   63.7010   71.8011 H   0  0  0  0  0  0  0  0  0  0  0  0
   -0.8101   63.8953   70.3147 H   0  0  0  0  0  0  0  0  0  0  0  0
    0.6021   62.7853   70.3147 H   0  0  0  0  0  0  0  0  0  0  0  0
    1.4586   66.7413   69.4366 H   0  0  0  0  0  0  0  0  0  0  0  0
    3.1127   65.5769   70.2306 H   0  0  0  0  0  0  0  0  0  0  0  0
    2.6808   64.4250   71.5901 H   0  0  0  0  0  0  0  0  0  0  0  0
    2.4007   62.7631   69.5169 H   0  0  0  0  0  0  0  0  0  0  0  0
    3.6693   63.8985   68.8500 H   0  0  0  0  0  0  0  0  0  0  0  0
    4.9262   63.3893   71.1455 H   0  0  0  0  0  0  0  0  0  0  0  0
    3.2657   59.7259   70.5100 H   0  0  0  0  0  0  0  0  0  0  0  0
    3.0041   60.8771   69.1561 H   0  0  0  0  0  0  0  0  0  0  0  0
    4.4437   59.8028   69.1561 H   0  0  0  0  0  0  0  0  0  0  0  0
    5.4684   61.0030   72.4096 H   0  0  0  0  0  0  0  0  0  0  0  0
    5.8416   59.8339   71.0979 H   0  0  0  0  0  0  0  0  0  0  0  0
    6.6079   61.4585   71.0979 H   0  0  0  0  0  0  0  0  0  0  0  0
  2  1  2  0
  3  2  1  0
  4  3  2  0
  5  4  1  0
  6  5  2  0
  6  1  1  0
  7  3  1  0
  8  7  1  0
  9  8  1  0
 10  9  2  0
 11  9  1  0
 12 11  2  0
 13 12  1  0
 13  7  1  0
 14 12  1  0
 15 14  2  0
 16 15  1  0
 17 16  2  0
 17 11  1  0
 18 17  1  0
 19 15  1  0
 20  6  1  0
 21  4  1  0
 22  1  1  0
 24 23  1  0
 25 24  2  0
 25 22  1  0
 26 24  1  0
 27 26  1  0
 28 27  1  0
 29 28  2  3
 30 29  1  0
 31 29  1  0
  2 32  1  0
  5 33  1  0
  7 34  1  6
  8 35  1  0
  8 36  1  0
 14 37  1  0
 16 38  1  0
 18 39  1  0
 19 40  1  0
 20 41  1  0
 21 42  1  0
 22 43  1  0
 22 44  1  0
 23 45  1  0
 23 46  1  0
 23 47  1  0
 25 48  1  0
 26 49  1  0
 26 50  1  0
 27 51  1  0
 27 52  1  0
 28 53  1  0
 30 54  1  0
 30 55  1  0
 30 56  1  0
 31 57  1  0
 31 58  1  0
 31 59  1  0
M  END
>  <score>  (1) 
-11.551

$$$$
=
     RDKit          3D

 59 61  0  0  0  0  0  0  0  0999 V2000
    5.1230   69.9660   66.7220 C   0  0  0  0  0  0  0  0  0  0  0  0
    3.9540   69.1790   66.6580 C   0  0  0  0  0  0  0  0  0  0  0  0
    2.9360   69.2710   67.6280 C   0  0  0  0  0  0  0  0  0  0  0  0
    3.1350   70.1830   68.6780 C   0  0  0  0  0  0  0  0  0  0  0  0
    4.2690   70.9860   68.7500 C   0  0  0  0  0  0  0  0  0  0  0  0
    5.2510   70.8810   67.7730 C   0  0  0  0  0  0  0  0  0  0  0  0
    1.6360   68.4820   67.5300 C   0  0  1  0  0  0  0  0  0  0  0  0
    1.1980   67.7600   68.8010 C   0  0  0  0  0  0  0  0  0  0  0  0
   -0.0810   67.0240   68.5200 C   0  0  0  0  0  0  0  0  0  0  0  0
   -0.3960   65.9880   69.1010 O   0  0  0  0  0  0  0  0  0  0  0  0
   -1.0050   67.6330   67.5490 C   0  0  0  0  0  0  0  0  0  0  0  0
   -0.6110   68.8100   66.9130 C   0  0  0  0  0  0  0  0  0  0  0  0
    0.6070   69.4050   67.1120 O   0  0  0  0  0  0  0  0  0  0  0  0
   -1.4890   69.4560   66.0450 C   0  0  0  0  0  0  0  0  0  0  0  0
   -2.7400   68.9000   65.7920 C   0  0  0  0  0  0  0  0  0  0  0  0
   -3.1360   67.7130   66.4020 C   0  0  0  0  0  0  0  0  0  0  0  0
   -2.2640   67.0830   67.2880 C   0  0  0  0  0  0  0  0  0  0  0  0
   -2.7120   65.9300   67.8760 O   0  0  0  0  0  0  0  0  0  0  0  0
   -3.5620   69.5590   64.9270 O   0  0  0  0  0  0  0  0  0  0  0  0
    6.3280   71.7110   67.9040 O   0  0  0  0  0  0  0  0  0  0  0  0
    2.2260   70.3320   69.6910 O   0  0  0  0  0  0  0  0  0  0  0  0
    6.1910   69.7870   65.6640 C   0  0  0  0  0  0  0  0  0  0  0  0
    5.2100   67.3820   63.8690 C   0  0  0  0  0  0  0  0  0  0  0  0
    5.2010   68.8380   63.4880 C   0  0  0  0  0  0  0  0  0  0  0  0
    5.6300   69.8520   64.2680 C   0  0  0  0  0  0  0  0  0  0  0  0
    4.6870   69.1320   62.0870 C   0  0  0  0  0  0  0  0  0  0  0  0
    3.5510   68.2080   61.6230 C   0  0  0  0  0  0  0  0  0  0  0  0
    2.1860   68.8400   61.6990 C   0  0  0  0  0  0  0  0  0  0  0  0
    1.2940   68.7650   62.7070 C   0  0  0  0  0  0  0  0  0  0  0  0
    1.4780   67.9730   63.9710 C   0  0  0  0  0  0  0  0  0  0  0  0
   -0.0210   69.4950   62.6190 C   0  0  0  0  0  0  0  0  0  0  0  0
    3.8333   68.4712   65.8246 H   0  0  0  0  0  0  0  0  0  0  0  0
    4.3875   71.7012   69.5773 H   0  0  0  0  0  0  0  0  0  0  0  0
    1.8099   67.6702   66.8084 H   0  0  0  0  0  0  0  0  0  0  0  0
    1.9763   67.0459   69.1080 H   0  0  0  0  0  0  0  0  0  0  0  0
    1.0416   68.4879   69.6107 H   0  0  0  0  0  0  0  0  0  0  0  0
   -1.1953   70.3999   65.5624 H   0  0  0  0  0  0  0  0  0  0  0  0
   -4.1235   67.2783   66.1877 H   0  0  0  0  0  0  0  0  0  0  0  0
   -2.1328   65.4421   68.5136 H   0  0  0  0  0  0  0  0  0  0  0  0
   -4.4594   69.1946   64.7221 H   0  0  0  0  0  0  0  0  0  0  0  0
    7.0597   71.6813   67.2378 H   0  0  0  0  0  0  0  0  0  0  0  0
    2.3959   70.9837   70.4166 H   0  0  0  0  0  0  0  0  0  0  0  0
    6.9415   70.5827   65.7809 H   0  0  0  0  0  0  0  0  0  0  0  0
    6.6366   68.7907   65.8012 H   0  0  0  0  0  0  0  0  0  0  0  0
    5.2106   67.2898   64.9651 H   0  0  0  0  0  0  0  0  0  0  0  0
    4.3149   66.8905   63.4602 H   0  0  0  0  0  0  0  0  0  0  0  0
    6.1111   66.9016   63.4602 H   0  0  0  0  0  0  0  0  0  0  0  0
    5.5609   70.8572   63.8266 H   0  0  0  0  0  0  0  0  0  0  0  0
    4.3185   70.1682   62.0658 H   0  0  0  0  0  0  0  0  0  0  0  0
    5.5300   68.9635   61.4007 H   0  0  0  0  0  0  0  0  0  0  0  0
    3.7425   67.9199   60.5788 H   0  0  0  0  0  0  0  0  0  0  0  0
    3.5427   67.3432   62.3027 H   0  0  0  0  0  0  0  0  0  0  0  0
    1.8797   69.4350   60.8260 H   0  0  0  0  0  0  0  0  0  0  0  0
    1.3255   68.6294   64.8404 H   0  0  0  0  0  0  0  0  0  0  0  0
    0.7467   67.1517   63.9988 H   0  0  0  0  0  0  0  0  0  0  0  0
    2.4964   67.5582   63.9988 H   0  0  0  0  0  0  0  0  0  0  0  0
   -0.3940   69.7021   63.6329 H   0  0  0  0  0  0  0  0  0  0  0  0
    0.1214   70.4432   62.0799 H   0  0  0  0  0  0  0  0  0  0  0  0
   -0.7505   68.8727   62.0799 H   0  0  0  0  0  0  0  0  0  0  0  0
  2  1  2  0
  3  2  1  0
  4  3  2  0
  5  4  1  0
  6  5  2  0
  6  1  1  0
  7  3  1  0
  8  7  1  0
  9  8  1  0
 10  9  2  0
 11  9  1  0
 12 11  2  0
 13 12  1  0
 13  7  1  0
 14 12  1  0
 15 14  2  0
 16 15  1  0
 17 16  2  0
 17 11  1  0
 18 17  1  0
 19 15  1  0
 20  6  1  0
 21  4  1  0
 22  1  1  0
 24 23  1  0
 25 24  2  0
 25 22  1  0
 26 24  1  0
 27 26  1  0
 28 27  1  0
 29 28  2  3
 30 29  1  0
 31 29  1  0
  2 32  1  0
  5 33  1  0
  7 34  1  6
  8 35  1  0
  8 36  1  0
 14 37  1  0
 16 38  1  0
 18 39  1  0
 19 40  1  0
 20 41  1  0
 21 42  1  0
 22 43  1  0
 22 44  1  0
 23 45  1  0
 23 46  1  0
 23 47  1  0
 25 48  1  0
 26 49  1  0
 26 50  1  0
 27 51  1  0
 27 52  1  0
 28 53  1  0
 30 54  1  0
 30 55  1  0
 30 56  1  0
 31 57  1  0
 31 58  1  0
 31 59  1  0
M  END
>  <score>  (2) 
-10.541

$$$$
=
     RDKit          3D

 59 61  0  0  0  0  0  0  0  0999 V2000
    1.5080   68.5800   68.2050 C   0  0  0  0  0  0  0  0  0  0  0  0
    1.8900   67.6060   69.1510 C   0  0  0  0  0  0  0  0  0  0  0  0
    1.0680   66.5060   69.4670 C   0  0  0  0  0  0  0  0  0  0  0  0
   -0.1660   66.4200   68.8000 C   0  0  0  0  0  0  0  0  0  0  0  0
   -0.5540   67.3560   67.8460 C   0  0  0  0  0  0  0  0  0  0  0  0
    0.2840   68.4240   67.5480 C   0  0  0  0  0  0  0  0  0  0  0  0
    1.5000   65.4080   70.4310 C   0  0  1  0  0  0  0  0  0  0  0  0
    0.4580   64.9750   71.4580 C   0  0  0  0  0  0  0  0  0  0  0  0
    1.0560   63.9080   72.3300 C   0  0  0  0  0  0  0  0  0  0  0  0
    0.7220   63.7380   73.5010 O   0  0  0  0  0  0  0  0  0  0  0  0
    2.0340   63.0030   71.7050 C   0  0  0  0  0  0  0  0  0  0  0  0
    2.3860   63.2280   70.3750 C   0  0  0  0  0  0  0  0  0  0  0  0
    1.9010   64.2740   69.6330 O   0  0  0  0  0  0  0  0  0  0  0  0
    3.2490   62.3480   69.7260 C   0  0  0  0  0  0  0  0  0  0  0  0
    3.7840   61.2690   70.4260 C   0  0  0  0  0  0  0  0  0  0  0  0
    3.4600   61.0470   71.7610 C   0  0  0  0  0  0  0  0  0  0  0  0
    2.5770   61.9160   72.3990 C   0  0  0  0  0  0  0  0  0  0  0  0
    2.2770   61.6390   73.7050 O   0  0  0  0  0  0  0  0  0  0  0  0
    4.6340   60.4400   69.7560 O   0  0  0  0  0  0  0  0  0  0  0  0
   -0.1600   69.2930   66.5920 O   0  0  0  0  0  0  0  0  0  0  0  0
   -1.0560   65.4110   69.0510 O   0  0  0  0  0  0  0  0  0  0  0  0
    2.4280   69.7540   67.9440 C   0  0  0  0  0  0  0  0  0  0  0  0
    5.5250   70.2860   67.6350 C   0  0  0  0  0  0  0  0  0  0  0  0
    4.6000   69.7700   66.5650 C   0  0  0  0  0  0  0  0  0  0  0  0
    3.2770   69.5540   66.7160 C   0  0  0  0  0  0  0  0  0  0  0  0
    5.2550   69.5180   65.2160 C   0  0  0  0  0  0  0  0  0  0  0  0
    4.3260   68.8840   64.1700 C   0  0  0  0  0  0  0  0  0  0  0  0
    4.5890   67.4210   63.9340 C   0  0  0  0  0  0  0  0  0  0  0  0
    3.8090   66.3740   64.2680 C   0  0  0  0  0  0  0  0  0  0  0  0
    2.5030   66.4660   65.0060 C   0  0  0  0  0  0  0  0  0  0  0  0
    4.2250   64.9680   63.9210 C   0  0  0  0  0  0  0  0  0  0  0  0
    2.8607   67.7084   69.6583 H   0  0  0  0  0  0  0  0  0  0  0  0
   -1.5198   67.2510   67.3300 H   0  0  0  0  0  0  0  0  0  0  0  0
    2.3176   65.8221   71.0394 H   0  0  0  0  0  0  0  0  0  0  0  0
    0.1662   65.8373   72.0755 H   0  0  0  0  0  0  0  0  0  0  0  0
   -0.4336   64.5844   70.9457 H   0  0  0  0  0  0  0  0  0  0  0  0
    3.5063   62.5041   68.6680 H   0  0  0  0  0  0  0  0  0  0  0  0
    3.8954   60.1963   72.3058 H   0  0  0  0  0  0  0  0  0  0  0  0
    1.6549   62.2248   74.2050 H   0  0  0  0  0  0  0  0  0  0  0  0
    5.0346   59.6622   70.2194 H   0  0  0  0  0  0  0  0  0  0  0  0
    0.3933   70.0733   66.3369 H   0  0  0  0  0  0  0  0  0  0  0  0
   -1.9174   65.3783   68.5642 H   0  0  0  0  0  0  0  0  0  0  0  0
    1.8171   70.6586   67.8080 H   0  0  0  0  0  0  0  0  0  0  0  0
    3.1029   69.8506   68.8072 H   0  0  0  0  0  0  0  0  0  0  0  0
    5.1066   70.0526   68.6252 H   0  0  0  0  0  0  0  0  0  0  0  0
    6.5097   69.8068   67.5308 H   0  0  0  0  0  0  0  0  0  0  0  0
    5.6346   71.3756   67.5308 H   0  0  0  0  0  0  0  0  0  0  0  0
    2.7488   69.1831   65.8253 H   0  0  0  0  0  0  0  0  0  0  0  0
    5.6118   70.4807   64.8212 H   0  0  0  0  0  0  0  0  0  0  0  0
    6.0690   68.7991   65.3908 H   0  0  0  0  0  0  0  0  0  0  0  0
    3.2872   68.9991   64.5131 H   0  0  0  0  0  0  0  0  0  0  0  0
    4.5136   69.4018   63.2178 H   0  0  0  0  0  0  0  0  0  0  0  0
    5.5338   67.1763   63.4266 H   0  0  0  0  0  0  0  0  0  0  0  0
    2.6924   66.4527   66.0895 H   0  0  0  0  0  0  0  0  0  0  0  0
    1.9935   67.4023   64.7343 H   0  0  0  0  0  0  0  0  0  0  0  0
    1.8673   65.6104   64.7343 H   0  0  0  0  0  0  0  0  0  0  0  0
    4.3940   64.3968   64.8458 H   0  0  0  0  0  0  0  0  0  0  0  0
    3.4311   64.4855   63.3320 H   0  0  0  0  0  0  0  0  0  0  0  0
    5.1536   64.9952   63.3320 H   0  0  0  0  0  0  0  0  0  0  0  0
  2  1  2  0
  3  2  1  0
  4  3  2  0
  5  4  1  0
  6  5  2  0
  6  1  1  0
  7  3  1  0
  8  7  1  0
  9  8  1  0
 10  9  2  0
 11  9  1  0
 12 11  2  0
 13 12  1  0
 13  7  1  0
 14 12  1  0
 15 14  2  0
 16 15  1  0
 17 16  2  0
 17 11  1  0
 18 17  1  0
 19 15  1  0
 20  6  1  0
 21  4  1  0
 22  1  1  0
 24 23  1  0
 25 24  2  0
 25 22  1  0
 26 24  1  0
 27 26  1  0
 28 27  1  0
 29 28  2  3
 30 29  1  0
 31 29  1  0
  2 32  1  0
  5 33  1  0
  7 34  1  1
  8 35  1  0
  8 36  1  0
 14 37  1  0
 16 38  1  0
 18 39  1  0
 19 40  1  0
 20 41  1  0
 21 42  1  0
 22 43  1  0
 22 44  1  0
 23 45  1  0
 23 46  1  0
 23 47  1  0
 25 48  1  0
 26 49  1  0
 26 50  1  0
 27 51  1  0
 27 52  1  0
 28 53  1  0
 30 54  1  0
 30 55  1  0
 30 56  1  0
 31 57  1  0
 31 58  1  0
 31 59  1  0
M  END
>  <score>  (3) 
-10.257

$$$$
=
     RDKit          3D

 59 61  0  0  0  0  0  0  0  0999 V2000
    0.9940   63.3510   72.7910 C   0  0  0  0  0  0  0  0  0  0  0  0
    1.5040   62.0430   72.9410 C   0  0  0  0  0  0  0  0  0  0  0  0
    1.2630   61.2740   74.0960 C   0  0  0  0  0  0  0  0  0  0  0  0
    0.4930   61.8680   75.1100 C   0  0  0  0  0  0  0  0  0  0  0  0
   -0.0400   63.1460   74.9750 C   0  0  0  0  0  0  0  0  0  0  0  0
    0.2050   63.8770   73.8190 C   0  0  0  0  0  0  0  0  0  0  0  0
    1.7450   59.8350   74.2390 C   0  0  1  0  0  0  0  0  0  0  0  0
    2.7710   59.5820   75.3400 C   0  0  0  0  0  0  0  0  0  0  0  0
    3.1440   58.1270   75.3250 C   0  0  0  0  0  0  0  0  0  0  0  0
    4.2480   57.7180   75.6780 O   0  0  0  0  0  0  0  0  0  0  0  0
    2.0980   57.1710   74.9270 C   0  0  0  0  0  0  0  0  0  0  0  0
    0.8580   57.6760   74.5350 C   0  0  0  0  0  0  0  0  0  0  0  0
    0.5780   59.0150   74.4600 O   0  0  0  0  0  0  0  0  0  0  0  0
   -0.1800   56.8000   74.2240 C   0  0  0  0  0  0  0  0  0  0  0  0
    0.0410   55.4260   74.2740 C   0  0  0  0  0  0  0  0  0  0  0  0
    1.2810   54.9100   74.6400 C   0  0  0  0  0  0  0  0  0  0  0  0
    2.3090   55.7890   74.9730 C   0  0  0  0  0  0  0  0  0  0  0  0
    3.5010   55.2290   75.3460 O   0  0  0  0  0  0  0  0  0  0  0  0
   -0.9990   54.6060   73.9500 O   0  0  0  0  0  0  0  0  0  0  0  0
   -0.3620   65.1180   73.7550 O   0  0  0  0  0  0  0  0  0  0  0  0
    0.2220   61.2240   76.2870 O   0  0  0  0  0  0  0  0  0  0  0  0
    1.3240   64.1310   71.5370 C   0  0  0  0  0  0  0  0  0  0  0  0
    4.2620   63.4830   70.5770 C   0  0  0  0  0  0  0  0  0  0  0  0
    2.9900   62.9440   69.9780 C   0  0  0  0  0  0  0  0  0  0  0  0
    1.7430   63.2370   70.4000 C   0  0  0  0  0  0  0  0  0  0  0  0
    3.1840   62.0230   68.7820 C   0  0  0  0  0  0  0  0  0  0  0  0
    4.1860   60.8840   69.0170 C   0  0  0  0  0  0  0  0  0  0  0  0
    3.5840   59.6730   69.6800 C   0  0  0  0  0  0  0  0  0  0  0  0
    3.7080   59.2850   70.9650 C   0  0  0  0  0  0  0  0  0  0  0  0
    4.5350   59.9830   72.0060 C   0  0  0  0  0  0  0  0  0  0  0  0
    3.0010   58.0500   71.4610 C   0  0  0  0  0  0  0  0  0  0  0  0
    2.1087   61.6109   72.1301 H   0  0  0  0  0  0  0  0  0  0  0  0
   -0.6532   63.5762   75.7805 H   0  0  0  0  0  0  0  0  0  0  0  0
    2.2822   59.5855   73.3121 H   0  0  0  0  0  0  0  0  0  0  0  0
    3.6661   60.1955   75.1600 H   0  0  0  0  0  0  0  0  0  0  0  0
    2.3451   59.8498   76.3182 H   0  0  0  0  0  0  0  0  0  0  0  0
   -1.1682   57.1915   73.9407 H   0  0  0  0  0  0  0  0  0  0  0  0
    1.4468   53.8229   74.6659 H   0  0  0  0  0  0  0  0  0  0  0  0
    4.2646   55.8088   75.5927 H   0  0  0  0  0  0  0  0  0  0  0  0
   -0.8806   53.6234   73.9738 H   0  0  0  0  0  0  0  0  0  0  0  0
   -0.2225   65.6853   72.9557 H   0  0  0  0  0  0  0  0  0  0  0  0
   -0.3240   61.6709   76.9814 H   0  0  0  0  0  0  0  0  0  0  0  0
    0.4339   64.6997   71.2300 H   0  0  0  0  0  0  0  0  0  0  0  0
    2.1676   64.7979   71.7684 H   0  0  0  0  0  0  0  0  0  0  0  0
    4.1919   63.4533   71.6744 H   0  0  0  0  0  0  0  0  0  0  0  0
    5.1121   62.8678   70.2471 H   0  0  0  0  0  0  0  0  0  0  0  0
    4.4113   64.5217   70.2471 H   0  0  0  0  0  0  0  0  0  0  0  0
    0.9247   62.7604   69.8402 H   0  0  0  0  0  0  0  0  0  0  0  0
    2.2104   61.5783   68.5283 H   0  0  0  0  0  0  0  0  0  0  0  0
    3.5958   62.6422   67.9714 H   0  0  0  0  0  0  0  0  0  0  0  0
    4.5980   60.5780   68.0440 H   0  0  0  0  0  0  0  0  0  0  0  0
    4.9583   61.2716   69.6976 H   0  0  0  0  0  0  0  0  0  0  0  0
    2.9682   59.0265   69.0375 H   0  0  0  0  0  0  0  0  0  0  0  0
    4.1875   59.6897   73.0076 H   0  0  0  0  0  0  0  0  0  0  0  0
    5.5910   59.6990   71.8865 H   0  0  0  0  0  0  0  0  0  0  0  0
    4.4324   61.0717   71.8865 H   0  0  0  0  0  0  0  0  0  0  0  0
    2.9986   58.0457   72.5610 H   0  0  0  0  0  0  0  0  0  0  0  0
    1.9647   58.0476   71.0920 H   0  0  0  0  0  0  0  0  0  0  0  0
    3.5236   57.1552   71.0920 H   0  0  0  0  0  0  0  0  0  0  0  0
  2  1  2  0
  3  2  1  0
  4  3  2  0
  5  4  1  0
  6  5  2  0
  6  1  1  0
  7  3  1  0
  8  7  1  0
  9  8  1  0
 10  9  2  0
 11  9  1  0
 12 11  2  0
 13 12  1  0
 13  7  1  0
 14 12  1  0
 15 14  2  0
 16 15  1  0
 17 16  2  0
 17 11  1  0
 18 17  1  0
 19 15  1  0
 20  6  1  0
 21  4  1  0
 22  1  1  0
 24 23  1  0
 25 24  2  0
 25 22  1  0
 26 24  1  0
 27 26  1  0
 28 27  1  0
 29 28  2  3
 30 29  1  0
 31 29  1  0
  2 32  1  0
  5 33  1  0
  7 34  1  6
  8 35  1  0
  8 36  1  0
 14 37  1  0
 16 38  1  0
 18 39  1  0
 19 40  1  0
 20 41  1  0
 21 42  1  0
 22 43  1  0
 22 44  1  0
 23 45  1  0
 23 46  1  0
 23 47  1  0
 25 48  1  0
 26 49  1  0
 26 50  1  0
 27 51  1  0
 27 52  1  0
 28 53  1  0
 30 54  1  0
 30 55  1  0
 30 56  1  0
 31 57  1  0
 31 58  1  0
 31 59  1  0
M  END
>  <score>  (4) 
-9.524

$$$$
=
     RDKit          3D

 59 61  0  0  0  0  0  0  0  0999 V2000
    3.5710   62.2830   70.6930 C   0  0  0  0  0  0  0  0  0  0  0  0
    3.3820   61.3470   71.7310 C   0  0  0  0  0  0  0  0  0  0  0  0
    3.3890   59.9580   71.4970 C   0  0  0  0  0  0  0  0  0  0  0  0
    3.5870   59.5350   70.1720 C   0  0  0  0  0  0  0  0  0  0  0  0
    3.7990   60.4380   69.1350 C   0  0  0  0  0  0  0  0  0  0  0  0
    3.7980   61.8020   69.3990 C   0  0  0  0  0  0  0  0  0  0  0  0
    3.2600   58.9360   72.6200 C   0  0  1  0  0  0  0  0  0  0  0  0
    3.6490   59.4240   74.0130 C   0  0  0  0  0  0  0  0  0  0  0  0
    3.4800   58.2910   74.9840 C   0  0  0  0  0  0  0  0  0  0  0  0
    4.1610   58.1760   76.0010 O   0  0  0  0  0  0  0  0  0  0  0  0
    2.3990   57.3290   74.7110 C   0  0  0  0  0  0  0  0  0  0  0  0
    1.6470   57.4950   73.5480 C   0  0  0  0  0  0  0  0  0  0  0  0
    1.8910   58.4790   72.6260 O   0  0  0  0  0  0  0  0  0  0  0  0
    0.5680   56.6520   73.2930 C   0  0  0  0  0  0  0  0  0  0  0  0
    0.2710   55.6260   74.1870 C   0  0  0  0  0  0  0  0  0  0  0  0
    1.0280   55.4350   75.3390 C   0  0  0  0  0  0  0  0  0  0  0  0
    2.0920   56.2950   75.6020 C   0  0  0  0  0  0  0  0  0  0  0  0
    2.7900   56.0760   76.7590 O   0  0  0  0  0  0  0  0  0  0  0  0
   -0.7860   54.8170   73.8920 O   0  0  0  0  0  0  0  0  0  0  0  0
    4.0250   62.6260   68.3330 O   0  0  0  0  0  0  0  0  0  0  0  0
    3.5820   58.2100   69.8260 O   0  0  0  0  0  0  0  0  0  0  0  0
    3.5150   63.7620   71.0140 C   0  0  0  0  0  0  0  0  0  0  0  0
    0.6140   63.8770   72.2540 C   0  0  0  0  0  0  0  0  0  0  0  0
    1.0500   64.4920   70.9510 C   0  0  0  0  0  0  0  0  0  0  0  0
    2.2950   64.4270   70.4350 C   0  0  0  0  0  0  0  0  0  0  0  0
   -0.0490   65.2050   70.1780 C   0  0  0  0  0  0  0  0  0  0  0  0
    0.3960   66.5110   69.5040 C   0  0  0  0  0  0  0  0  0  0  0  0
   -0.5350   66.9810   68.4180 C   0  0  0  0  0  0  0  0  0  0  0  0
   -0.3110   67.9300   67.4870 C   0  0  0  0  0  0  0  0  0  0  0  0
    0.9370   68.7600   67.3780 C   0  0  0  0  0  0  0  0  0  0  0  0
   -1.3580   68.2480   66.4520 C   0  0  0  0  0  0  0  0  0  0  0  0
    3.2241   61.7134   72.7561 H   0  0  0  0  0  0  0  0  0  0  0  0
    3.9666   60.0736   68.1107 H   0  0  0  0  0  0  0  0  0  0  0  0
    3.9836   58.1355   72.4063 H   0  0  0  0  0  0  0  0  0  0  0  0
    4.6979   59.7555   74.0097 H   0  0  0  0  0  0  0  0  0  0  0  0
    3.0085   60.2686   74.3070 H   0  0  0  0  0  0  0  0  0  0  0  0
   -0.0456   56.7956   72.3914 H   0  0  0  0  0  0  0  0  0  0  0  0
    0.7893   54.6156   76.0330 H   0  0  0  0  0  0  0  0  0  0  0  0
    3.5553   56.6587   76.9932 H   0  0  0  0  0  0  0  0  0  0  0  0
   -1.0284   54.0767   74.5030 H   0  0  0  0  0  0  0  0  0  0  0  0
    4.0360   63.6078   68.4598 H   0  0  0  0  0  0  0  0  0  0  0  0
    3.7245   57.9441   68.8831 H   0  0  0  0  0  0  0  0  0  0  0  0
    3.5005   63.8864   72.1068 H   0  0  0  0  0  0  0  0  0  0  0  0
    4.4009   64.2369   70.5671 H   0  0  0  0  0  0  0  0  0  0  0  0
    1.0270   64.4595   73.0907 H   0  0  0  0  0  0  0  0  0  0  0  0
   -0.4845   63.8805   72.3117 H   0  0  0  0  0  0  0  0  0  0  0  0
    0.9809   62.8416   72.3117 H   0  0  0  0  0  0  0  0  0  0  0  0
    2.4370   64.9250   69.4645 H   0  0  0  0  0  0  0  0  0  0  0  0
   -0.4188   64.5235   69.3977 H   0  0  0  0  0  0  0  0  0  0  0  0
   -0.8230   65.4772   70.9107 H   0  0  0  0  0  0  0  0  0  0  0  0
    0.4562   67.2953   70.2729 H   0  0  0  0  0  0  0  0  0  0  0  0
    1.3682   66.3120   69.0293 H   0  0  0  0  0  0  0  0  0  0  0  0
   -1.5185   66.4898   68.3795 H   0  0  0  0  0  0  0  0  0  0  0  0
    1.3041   69.0042   68.3858 H   0  0  0  0  0  0  0  0  0  0  0  0
    1.7076   68.1938   66.8342 H   0  0  0  0  0  0  0  0  0  0  0  0
    0.7128   69.6895   66.8342 H   0  0  0  0  0  0  0  0  0  0  0  0
   -2.2948   68.5325   66.9535 H   0  0  0  0  0  0  0  0  0  0  0  0
   -1.0109   69.0812   65.8233 H   0  0  0  0  0  0  0  0  0  0  0  0
   -1.5330   67.3625   65.8233 H   0  0  0  0  0  0  0  0  0  0  0  0
  2  1  2  0
  3  2  1  0
  4  3  2  0
  5  4  1  0
  6  5  2  0
  6  1  1  0
  7  3  1  0
  8  7  1  0
  9  8  1  0
 10  9  2  0
 11  9  1  0
 12 11  2  0
 13 12  1  0
 13  7  1  0
 14 12  1  0
 15 14  2  0
 16 15  1  0
 17 16  2  0
 17 11  1  0
 18 17  1  0
 19 15  1  0
 20  6  1  0
 21  4  1  0
 22  1  1  0
 24 23  1  0
 25 24  2  0
 25 22  1  0
 26 24  1  0
 27 26  1  0
 28 27  1  0
 29 28  2  3
 30 29  1  0
 31 29  1  0
  2 32  1  0
  5 33  1  0
  7 34  1  6
  8 35  1  0
  8 36  1  0
 14 37  1  0
 16 38  1  0
 18 39  1  0
 19 40  1  0
 20 41  1  0
 21 42  1  0
 22 43  1  0
 22 44  1  0
 23 45  1  0
 23 46  1  0
 23 47  1  0
 25 48  1  0
 26 49  1  0
 26 50  1  0
 27 51  1  0
 27 52  1  0
 28 53  1  0
 30 54  1  0
 30 55  1  0
 30 56  1  0
 31 57  1  0
 31 58  1  0
 31 59  1  0
M  END
>  <score>  (5) 
-9.493

$$$$
=
     RDKit          3D

 59 61  0  0  0  0  0  0  0  0999 V2000
    3.9640   68.9040   62.2650 C   0  0  0  0  0  0  0  0  0  0  0  0
    3.2110   68.5150   63.3930 C   0  0  0  0  0  0  0  0  0  0  0  0
    1.8120   68.3530   63.3400 C   0  0  0  0  0  0  0  0  0  0  0  0
    1.1870   68.6040   62.1070 C   0  0  0  0  0  0  0  0  0  0  0  0
    1.9110   68.9660   60.9750 C   0  0  0  0  0  0  0  0  0  0  0  0
    3.2910   69.1070   61.0550 C   0  0  0  0  0  0  0  0  0  0  0  0
    0.9970   67.8610   64.5300 C   0  0  1  0  0  0  0  0  0  0  0  0
    1.7290   67.8250   65.8690 C   0  0  0  0  0  0  0  0  0  0  0  0
    0.7890   67.3020   66.9170 C   0  0  0  0  0  0  0  0  0  0  0  0
    1.1700   66.6780   67.9050 O   0  0  0  0  0  0  0  0  0  0  0  0
   -0.6390   67.6240   66.7570 C   0  0  0  0  0  0  0  0  0  0  0  0
   -1.0320   68.3350   65.6230 C   0  0  0  0  0  0  0  0  0  0  0  0
   -0.1650   68.7110   64.6300 O   0  0  0  0  0  0  0  0  0  0  0  0
   -2.3610   68.7250   65.4750 C   0  0  0  0  0  0  0  0  0  0  0  0
   -3.2940   68.3690   66.4450 C   0  0  0  0  0  0  0  0  0  0  0  0
   -2.9200   67.6380   67.5690 C   0  0  0  0  0  0  0  0  0  0  0  0
   -1.5850   67.2710   67.7250 C   0  0  0  0  0  0  0  0  0  0  0  0
   -1.2680   66.5730   68.8590 O   0  0  0  0  0  0  0  0  0  0  0  0
   -4.5860   68.7600   66.2540 O   0  0  0  0  0  0  0  0  0  0  0  0
    3.9330   69.4530   59.9000 O   0  0  0  0  0  0  0  0  0  0  0  0
   -0.1690   68.5070   61.9490 O   0  0  0  0  0  0  0  0  0  0  0  0
    5.4590   69.0930   62.4060 C   0  0  0  0  0  0  0  0  0  0  0  0
    5.9770   68.2370   65.4010 C   0  0  0  0  0  0  0  0  0  0  0  0
    6.0460   69.6370   64.8500 C   0  0  0  0  0  0  0  0  0  0  0  0
    5.8160   69.9830   63.5670 C   0  0  0  0  0  0  0  0  0  0  0  0
    6.3740   70.7140   65.8730 C   0  0  0  0  0  0  0  0  0  0  0  0
    6.7060   70.1770   67.2740 C   0  0  0  0  0  0  0  0  0  0  0  0
    5.8020   70.7070   68.3550 C   0  0  0  0  0  0  0  0  0  0  0  0
    4.4750   70.5160   68.4930 C   0  0  0  0  0  0  0  0  0  0  0  0
    3.6050   69.7490   67.5370 C   0  0  0  0  0  0  0  0  0  0  0  0
    3.7360   71.1040   69.6670 C   0  0  0  0  0  0  0  0  0  0  0  0
    3.7325   68.3323   64.3441 H   0  0  0  0  0  0  0  0  0  0  0  0
    1.3927   69.1399   60.0205 H   0  0  0  0  0  0  0  0  0  0  0  0
    0.7489   66.8075   64.3336 H   0  0  0  0  0  0  0  0  0  0  0  0
    2.6051   67.1640   65.7944 H   0  0  0  0  0  0  0  0  0  0  0  0
    2.0667   68.8364   66.1392 H   0  0  0  0  0  0  0  0  0  0  0  0
   -2.6714   69.3106   64.5971 H   0  0  0  0  0  0  0  0  0  0  0  0
   -3.6682   67.3540   68.3237 H   0  0  0  0  0  0  0  0  0  0  0  0
   -0.3338   66.2875   69.0196 H   0  0  0  0  0  0  0  0  0  0  0  0
   -5.2780   68.5256   66.9220 H   0  0  0  0  0  0  0  0  0  0  0  0
    4.9163   69.5679   59.8956 H   0  0  0  0  0  0  0  0  0  0  0  0
   -0.5789   68.6904   61.0667 H   0  0  0  0  0  0  0  0  0  0  0  0
    5.9271   68.1092   62.5576 H   0  0  0  0  0  0  0  0  0  0  0  0
    5.8251   69.5752   61.4876 H   0  0  0  0  0  0  0  0  0  0  0  0
    5.9789   68.2751   66.5003 H   0  0  0  0  0  0  0  0  0  0  0  0
    5.0538   67.7509   65.0525 H   0  0  0  0  0  0  0  0  0  0  0  0
    6.8479   67.6625   65.0525 H   0  0  0  0  0  0  0  0  0  0  0  0
    5.9002   71.0558   63.3387 H   0  0  0  0  0  0  0  0  0  0  0  0
    7.2418   71.2829   65.5078 H   0  0  0  0  0  0  0  0  0  0  0  0
    5.4705   71.3324   65.9792 H   0  0  0  0  0  0  0  0  0  0  0  0
    6.6192   69.0806   67.2553 H   0  0  0  0  0  0  0  0  0  0  0  0
    7.7255   70.5132   67.5139 H   0  0  0  0  0  0  0  0  0  0  0  0
    6.2835   71.3258   69.1265 H   0  0  0  0  0  0  0  0  0  0  0  0
    2.8980   69.1257   68.1041 H   0  0  0  0  0  0  0  0  0  0  0  0
    3.0462   70.4537   66.9036 H   0  0  0  0  0  0  0  0  0  0  0  0
    4.2341   69.1063   66.9036 H   0  0  0  0  0  0  0  0  0  0  0  0
    4.1885   70.7440   70.6027 H   0  0  0  0  0  0  0  0  0  0  0  0
    3.7992   72.2015   69.6277 H   0  0  0  0  0  0  0  0  0  0  0  0
    2.6808   70.7958   69.6277 H   0  0  0  0  0  0  0  0  0  0  0  0
  2  1  2  0
  3  2  1  0
  4  3  2  0
  5  4  1  0
  6  5  2  0
  6  1  1  0
  7  3  1  0
  8  7  1  0
  9  8  1  0
 10  9  2  0
 11  9  1  0
 12 11  2  0
 13 12  1  0
 13  7  1  0
 14 12  1  0
 15 14  2  0
 16 15  1  0
 17 16  2  0
 17 11  1  0
 18 17  1  0
 19 15  1  0
 20  6  1  0
 21  4  1  0
 22  1  1  0
 24 23  1  0
 25 24  2  0
 25 22  1  0
 26 24  1  0
 27 26  1  0
 28 27  1  0
 29 28  2  3
 30 29  1  0
 31 29  1  0
  2 32  1  0
  5 33  1  0
  7 34  1  6
  8 35  1  0
  8 36  1  0
 14 37  1  0
 16 38  1  0
 18 39  1  0
 19 40  1  0
 20 41  1  0
 21 42  1  0
 22 43  1  0
 22 44  1  0
 23 45  1  0
 23 46  1  0
 23 47  1  0
 25 48  1  0
 26 49  1  0
 26 50  1  0
 27 51  1  0
 27 52  1  0
 28 53  1  0
 30 54  1  0
 30 55  1  0
 30 56  1  0
 31 57  1  0
 31 58  1  0
 31 59  1  0
M  END
>  <score>  (6) 
-9.415

$$$$
=
     RDKit          3D

 59 61  0  0  0  0  0  0  0  0999 V2000
    4.3760   60.0880   71.4450 C   0  0  0  0  0  0  0  0  0  0  0  0
    4.3230   60.1610   72.8530 C   0  0  0  0  0  0  0  0  0  0  0  0
    3.6490   59.1970   73.6270 C   0  0  0  0  0  0  0  0  0  0  0  0
    3.0160   58.1500   72.9350 C   0  0  0  0  0  0  0  0  0  0  0  0
    3.0740   58.0450   71.5490 C   0  0  0  0  0  0  0  0  0  0  0  0
    3.7570   59.0050   70.8120 C   0  0  0  0  0  0  0  0  0  0  0  0
    3.6470   59.2230   75.1510 C   0  0  1  0  0  0  0  0  0  0  0  0
    2.3540   59.6980   75.8080 C   0  0  0  0  0  0  0  0  0  0  0  0
    2.5360   59.6790   77.2990 C   0  0  0  0  0  0  0  0  0  0  0  0
    1.9460   60.4490   78.0540 O   0  0  0  0  0  0  0  0  0  0  0  0
    3.4170   58.6370   77.8520 C   0  0  0  0  0  0  0  0  0  0  0  0
    4.0670   57.7810   76.9630 C   0  0  0  0  0  0  0  0  0  0  0  0
    3.9620   57.8880   75.6010 O   0  0  0  0  0  0  0  0  0  0  0  0
    4.8470   56.7360   77.4510 C   0  0  0  0  0  0  0  0  0  0  0  0
    5.0010   56.5760   78.8260 C   0  0  0  0  0  0  0  0  0  0  0  0
    4.3770   57.4380   79.7240 C   0  0  0  0  0  0  0  0  0  0  0  0
    3.5780   58.4670   79.2320 C   0  0  0  0  0  0  0  0  0  0  0  0
    2.9710   59.2720   80.1580 O   0  0  0  0  0  0  0  0  0  0  0  0
    5.7830   55.5470   79.2600 O   0  0  0  0  0  0  0  0  0  0  0  0
    3.7810   58.8260   69.4580 O   0  0  0  0  0  0  0  0  0  0  0  0
    2.3070   57.1760   73.5850 O   0  0  0  0  0  0  0  0  0  0  0  0
    5.0890   61.1800   70.6760 C   0  0  0  0  0  0  0  0  0  0  0  0
    2.7130   62.0410   68.7840 C   0  0  0  0  0  0  0  0  0  0  0  0
    3.3090   62.8640   69.8950 C   0  0  0  0  0  0  0  0  0  0  0  0
    4.3290   62.4800   70.6900 C   0  0  0  0  0  0  0  0  0  0  0  0
    2.6960   64.2450   70.0710 C   0  0  0  0  0  0  0  0  0  0  0  0
    1.4740   64.2810   71.0020 C   0  0  0  0  0  0  0  0  0  0  0  0
    0.9290   62.9180   71.3380 C   0  0  0  0  0  0  0  0  0  0  0  0
    1.0660   62.2330   72.4910 C   0  0  0  0  0  0  0  0  0  0  0  0
    1.8540   62.6920   73.6850 C   0  0  0  0  0  0  0  0  0  0  0  0
    0.4190   60.8820   72.6590 C   0  0  0  0  0  0  0  0  0  0  0  0
    4.8241   60.9975   73.3622 H   0  0  0  0  0  0  0  0  0  0  0  0
    2.5809   57.2049   71.0381 H   0  0  0  0  0  0  0  0  0  0  0  0
    4.3924   59.9718   75.4569 H   0  0  0  0  0  0  0  0  0  0  0  0
    2.1245   60.7213   75.4762 H   0  0  0  0  0  0  0  0  0  0  0  0
    1.5236   59.0351   75.5234 H   0  0  0  0  0  0  0  0  0  0  0  0
    5.3388   56.0408   76.7547 H   0  0  0  0  0  0  0  0  0  0  0  0
    4.5134   57.3079   80.8077 H   0  0  0  0  0  0  0  0  0  0  0  0
    2.3922   60.0185   79.8615 H   0  0  0  0  0  0  0  0  0  0  0  0
    5.9161   55.4015   80.2302 H   0  0  0  0  0  0  0  0  0  0  0  0
    4.2525   59.4777   68.8808 H   0  0  0  0  0  0  0  0  0  0  0  0
    1.8726   56.4517   73.0684 H   0  0  0  0  0  0  0  0  0  0  0  0
    6.0778   61.3437   71.1292 H   0  0  0  0  0  0  0  0  0  0  0  0
    5.1754   60.8525   69.6294 H   0  0  0  0  0  0  0  0  0  0  0  0
    2.1190   61.2208   69.2134 H   0  0  0  0  0  0  0  0  0  0  0  0
    2.0649   62.6773   68.1635 H   0  0  0  0  0  0  0  0  0  0  0  0
    3.5197   61.6237   68.1635 H   0  0  0  0  0  0  0  0  0  0  0  0
    4.6470   63.2118   71.4471 H   0  0  0  0  0  0  0  0  0  0  0  0
    3.4651   64.9128   70.4863 H   0  0  0  0  0  0  0  0  0  0  0  0
    2.3447   64.5623   69.0781 H   0  0  0  0  0  0  0  0  0  0  0  0
    1.7654   64.7791   71.9385 H   0  0  0  0  0  0  0  0  0  0  0  0
    0.6791   64.8226   70.4685 H   0  0  0  0  0  0  0  0  0  0  0  0
    0.3487   62.4210   70.5466 H   0  0  0  0  0  0  0  0  0  0  0  0
    1.3341   62.3892   74.6059 H   0  0  0  0  0  0  0  0  0  0  0  0
    2.8545   62.2354   73.6617 H   0  0  0  0  0  0  0  0  0  0  0  0
    1.9503   63.7875   73.6617 H   0  0  0  0  0  0  0  0  0  0  0  0
    0.3115   60.6576   73.7305 H   0  0  0  0  0  0  0  0  0  0  0  0
   -0.5734   60.8892   72.1846 H   0  0  0  0  0  0  0  0  0  0  0  0
    1.0467   60.1133   72.1846 H   0  0  0  0  0  0  0  0  0  0  0  0
  2  1  2  0
  3  2  1  0
  4  3  2  0
  5  4  1  0
  6  5  2  0
  6  1  1  0
  7  3  1  0
  8  7  1  0
  9  8  1  0
 10  9  2  0
 11  9  1  0
 12 11  2  0
 13 12  1  0
 13  7  1  0
 14 12  1  0
 15 14  2  0
 16 15  1  0
 17 16  2  0
 17 11  1  0
 18 17  1  0
 19 15  1  0
 20  6  1  0
 21  4  1  0
 22  1  1  0
 24 23  1  0
 25 24  2  0
 25 22  1  0
 26 24  1  0
 27 26  1  0
 28 27  1  0
 29 28  2  3
 30 29  1  0
 31 29  1  0
  2 32  1  0
  5 33  1  0
  7 34  1  6
  8 35  1  0
  8 36  1  0
 14 37  1  0
 16 38  1  0
 18 39  1  0
 19 40  1  0
 20 41  1  0
 21 42  1  0
 22 43  1  0
 22 44  1  0
 23 45  1  0
 23 46  1  0
 23 47  1  0
 25 48  1  0
 26 49  1  0
 26 50  1  0
 27 51  1  0
 27 52  1  0
 28 53  1  0
 30 54  1  0
 30 55  1  0
 30 56  1  0
 31 57  1  0
 31 58  1  0
 31 59  1  0
M  END
>  <score>  (7) 
-9.263

$$$$
=
     RDKit          3D

 59 61  0  0  0  0  0  0  0  0999 V2000
    0.3420   62.2570   72.9030 C   0  0  0  0  0  0  0  0  0  0  0  0
    0.2590   60.8780   73.1890 C   0  0  0  0  0  0  0  0  0  0  0  0
   -0.1770   60.3980   74.4390 C   0  0  0  0  0  0  0  0  0  0  0  0
   -0.5220   61.3570   75.4060 C   0  0  0  0  0  0  0  0  0  0  0  0
   -0.4700   62.7210   75.1400 C   0  0  0  0  0  0  0  0  0  0  0  0
   -0.0480   63.1650   73.8930 C   0  0  0  0  0  0  0  0  0  0  0  0
   -0.3420   58.9120   74.7350 C   0  0  1  0  0  0  0  0  0  0  0  0
   -1.7700   58.3770   74.6850 C   0  0  0  0  0  0  0  0  0  0  0  0
   -1.7480   56.9130   75.0180 C   0  0  0  0  0  0  0  0  0  0  0  0
   -2.6890   56.3370   75.5610 O   0  0  0  0  0  0  0  0  0  0  0  0
   -0.5590   56.1500   74.6030 C   0  0  0  0  0  0  0  0  0  0  0  0
    0.4860   56.8390   73.9890 C   0  0  0  0  0  0  0  0  0  0  0  0
    0.4820   58.1950   73.7900 O   0  0  0  0  0  0  0  0  0  0  0  0
    1.5940   56.1400   73.5140 C   0  0  0  0  0  0  0  0  0  0  0  0
    1.6640   54.7610   73.6910 C   0  0  0  0  0  0  0  0  0  0  0  0
    0.6380   54.0640   74.3240 C   0  0  0  0  0  0  0  0  0  0  0  0
   -0.4790   54.7640   74.7750 C   0  0  0  0  0  0  0  0  0  0  0  0
   -1.4660   54.0270   75.3720 O   0  0  0  0  0  0  0  0  0  0  0  0
    2.7710   54.1190   73.2210 O   0  0  0  0  0  0  0  0  0  0  0  0
   -0.0360   64.5180   73.7040 O   0  0  0  0  0  0  0  0  0  0  0  0
   -0.9290   61.0030   76.6650 O   0  0  0  0  0  0  0  0  0  0  0  0
    0.8530   62.7000   71.5480 C   0  0  0  0  0  0  0  0  0  0  0  0
    2.7740   61.9220   69.1660 C   0  0  0  0  0  0  0  0  0  0  0  0
    3.1920   62.4790   70.5010 C   0  0  0  0  0  0  0  0  0  0  0  0
    2.3550   62.8020   71.5090 C   0  0  0  0  0  0  0  0  0  0  0  0
    4.6930   62.6430   70.6860 C   0  0  0  0  0  0  0  0  0  0  0  0
    5.4220   61.3600   71.1100 C   0  0  0  0  0  0  0  0  0  0  0  0
    4.9620   60.8100   72.4340 C   0  0  0  0  0  0  0  0  0  0  0  0
    4.1500   59.7580   72.6570 C   0  0  0  0  0  0  0  0  0  0  0  0
    3.4900   58.9300   71.5910 C   0  0  0  0  0  0  0  0  0  0  0  0
    3.8200   59.3310   74.0640 C   0  0  0  0  0  0  0  0  0  0  0  0
    0.5439   60.1547   72.4108 H   0  0  0  0  0  0  0  0  0  0  0  0
   -0.7620   63.4458   75.9142 H   0  0  0  0  0  0  0  0  0  0  0  0
   -0.0368   58.7602   75.7809 H   0  0  0  0  0  0  0  0  0  0  0  0
   -2.3921   58.9136   75.4165 H   0  0  0  0  0  0  0  0  0  0  0  0
   -2.1910   58.5262   73.6798 H   0  0  0  0  0  0  0  0  0  0  0  0
    2.4081   56.6745   73.0025 H   0  0  0  0  0  0  0  0  0  0  0  0
    0.7085   52.9755   74.4660 H   0  0  0  0  0  0  0  0  0  0  0  0
   -2.2817   54.4743   75.7107 H   0  0  0  0  0  0  0  0  0  0  0  0
    2.8574   53.1386   73.3280 H   0  0  0  0  0  0  0  0  0  0  0  0
    0.2552   64.8939   72.8357 H   0  0  0  0  0  0  0  0  0  0  0  0
   -1.1653   61.7030   77.3240 H   0  0  0  0  0  0  0  0  0  0  0  0
    0.5282   61.9703   70.7916 H   0  0  0  0  0  0  0  0  0  0  0  0
    0.4424   63.6999   71.3440 H   0  0  0  0  0  0  0  0  0  0  0  0
    2.1203   61.0509   69.3206 H   0  0  0  0  0  0  0  0  0  0  0  0
    2.2298   62.6932   68.6011 H   0  0  0  0  0  0  0  0  0  0  0  0
    3.6665   61.6150   68.6011 H   0  0  0  0  0  0  0  0  0  0  0  0
    2.8319   63.1904   72.4210 H   0  0  0  0  0  0  0  0  0  0  0  0
    5.1223   62.9838   69.7323 H   0  0  0  0  0  0  0  0  0  0  0  0
    4.8322   63.3681   71.5014 H   0  0  0  0  0  0  0  0  0  0  0  0
    5.2534   60.5941   70.3387 H   0  0  0  0  0  0  0  0  0  0  0  0
    6.4856   61.6174   71.2217 H   0  0  0  0  0  0  0  0  0  0  0  0
    5.3343   61.3306   73.3286 H   0  0  0  0  0  0  0  0  0  0  0  0
    2.8703   58.1526   72.0617 H   0  0  0  0  0  0  0  0  0  0  0  0
    2.8559   59.5754   70.9654 H   0  0  0  0  0  0  0  0  0  0  0  0
    4.2606   58.4558   70.9654 H   0  0  0  0  0  0  0  0  0  0  0  0
    4.3318   59.9933   74.7777 H   0  0  0  0  0  0  0  0  0  0  0  0
    2.7330   59.3932   74.2207 H   0  0  0  0  0  0  0  0  0  0  0  0
    4.1543   58.2948   74.2207 H   0  0  0  0  0  0  0  0  0  0  0  0
  2  1  2  0
  3  2  1  0
  4  3  2  0
  5  4  1  0
  6  5  2  0
  6  1  1  0
  7  3  1  0
  8  7  1  0
  9  8  1  0
 10  9  2  0
 11  9  1  0
 12 11  2  0
 13 12  1  0
 13  7  1  0
 14 12  1  0
 15 14  2  0
 16 15  1  0
 17 16  2  0
 17 11  1  0
 18 17  1  0
 19 15  1  0
 20  6  1  0
 21  4  1  0
 22  1  1  0
 24 23  1  0
 25 24  2  0
 25 22  1  0
 26 24  1  0
 27 26  1  0
 28 27  1  0
 29 28  2  3
 30 29  1  0
 31 29  1  0
  2 32  1  0
  5 33  1  0
  7 34  1  1
  8 35  1  0
  8 36  1  0
 14 37  1  0
 16 38  1  0
 18 39  1  0
 19 40  1  0
 20 41  1  0
 21 42  1  0
 22 43  1  0
 22 44  1  0
 23 45  1  0
 23 46  1  0
 23 47  1  0
 25 48  1  0
 26 49  1  0
 26 50  1  0
 27 51  1  0
 27 52  1  0
 28 53  1  0
 30 54  1  0
 30 55  1  0
 30 56  1  0
 31 57  1  0
 31 58  1  0
 31 59  1  0
M  END
>  <score>  (8) 
-9.158

$$$$
=
     RDKit          3D

 59 61  0  0  0  0  0  0  0  0999 V2000
    1.1800   63.0030   70.8790 C   0  0  0  0  0  0  0  0  0  0  0  0
    0.8260   62.0070   71.8130 C   0  0  0  0  0  0  0  0  0  0  0  0
    1.6290   60.8730   72.0390 C   0  0  0  0  0  0  0  0  0  0  0  0
    2.8080   60.7650   71.2820 C   0  0  0  0  0  0  0  0  0  0  0  0
    3.1910   61.7450   70.3720 C   0  0  0  0  0  0  0  0  0  0  0  0
    2.3830   62.8600   70.1790 C   0  0  0  0  0  0  0  0  0  0  0  0
    1.2950   59.8280   73.0970 C   0  0  1  0  0  0  0  0  0  0  0  0
   -0.1180   59.8870   73.6690 C   0  0  0  0  0  0  0  0  0  0  0  0
   -0.2640   58.8070   74.7020 C   0  0  0  0  0  0  0  0  0  0  0  0
   -1.0190   58.9050   75.6680 O   0  0  0  0  0  0  0  0  0  0  0  0
    0.4940   57.5640   74.4840 C   0  0  0  0  0  0  0  0  0  0  0  0
    1.3370   57.4920   73.3760 C   0  0  0  0  0  0  0  0  0  0  0  0
    1.5300   58.5320   72.5050 O   0  0  0  0  0  0  0  0  0  0  0  0
    2.0120   56.3060   73.0940 C   0  0  0  0  0  0  0  0  0  0  0  0
    1.8660   55.2130   73.9440 C   0  0  0  0  0  0  0  0  0  0  0  0
    1.0460   55.2800   75.0670 C   0  0  0  0  0  0  0  0  0  0  0  0
    0.3540   56.4590   75.3320 C   0  0  0  0  0  0  0  0  0  0  0  0
   -0.4550   56.4640   76.4360 O   0  0  0  0  0  0  0  0  0  0  0  0
    2.5540   54.0760   73.6370 O   0  0  0  0  0  0  0  0  0  0  0  0
    2.8310   63.7840   69.2800 O   0  0  0  0  0  0  0  0  0  0  0  0
    3.6480   59.6900   71.3980 O   0  0  0  0  0  0  0  0  0  0  0  0
    0.2490   64.1780   70.6640 C   0  0  0  0  0  0  0  0  0  0  0  0
   -0.7090   66.5120   68.7650 C   0  0  0  0  0  0  0  0  0  0  0  0
    0.5990   66.4500   69.5090 C   0  0  0  0  0  0  0  0  0  0  0  0
    0.9920   65.4400   70.3130 C   0  0  0  0  0  0  0  0  0  0  0  0
    1.5280   67.6310   69.2750 C   0  0  0  0  0  0  0  0  0  0  0  0
    1.1720   68.4820   68.0470 C   0  0  0  0  0  0  0  0  0  0  0  0
    2.3660   69.1160   67.3840 C   0  0  0  0  0  0  0  0  0  0  0  0
    2.9900   68.7270   66.2540 C   0  0  0  0  0  0  0  0  0  0  0  0
    2.6290   67.5190   65.4360 C   0  0  0  0  0  0  0  0  0  0  0  0
    4.1610   69.5100   65.7190 C   0  0  0  0  0  0  0  0  0  0  0  0
   -0.1078   62.1200   72.3833 H   0  0  0  0  0  0  0  0  0  0  0  0
    4.1291   61.6383   69.8075 H   0  0  0  0  0  0  0  0  0  0  0  0
    1.9414   60.0336   73.9629 H   0  0  0  0  0  0  0  0  0  0  0  0
   -0.2886   60.8693   74.1337 H   0  0  0  0  0  0  0  0  0  0  0  0
   -0.8544   59.7393   72.8653 H   0  0  0  0  0  0  0  0  0  0  0  0
    2.6562   56.2338   72.2053 H   0  0  0  0  0  0  0  0  0  0  0  0
    0.9460   54.4128   75.7364 H   0  0  0  0  0  0  0  0  0  0  0  0
   -0.9692   57.2772   76.6692 H   0  0  0  0  0  0  0  0  0  0  0  0
    2.4756   53.2780   74.2176 H   0  0  0  0  0  0  0  0  0  0  0  0
    2.2983   64.5990   69.1007 H   0  0  0  0  0  0  0  0  0  0  0  0
    4.4713   59.6438   70.8502 H   0  0  0  0  0  0  0  0  0  0  0  0
   -0.4430   63.9354   69.8441 H   0  0  0  0  0  0  0  0  0  0  0  0
   -0.2904   64.3563   71.6059 H   0  0  0  0  0  0  0  0  0  0  0  0
   -1.5392   66.5514   69.4856 H   0  0  0  0  0  0  0  0  0  0  0  0
   -0.7290   67.4121   68.1330 H   0  0  0  0  0  0  0  0  0  0  0  0
   -0.8141   65.6178   68.1330 H   0  0  0  0  0  0  0  0  0  0  0  0
    1.9851   65.5533   70.7721 H   0  0  0  0  0  0  0  0  0  0  0  0
    1.4935   68.2778   70.1641 H   0  0  0  0  0  0  0  0  0  0  0  0
    2.5282   67.2128   69.0890 H   0  0  0  0  0  0  0  0  0  0  0  0
    0.6680   67.8373   67.3119 H   0  0  0  0  0  0  0  0  0  0  0  0
    0.5270   69.3006   68.3989 H   0  0  0  0  0  0  0  0  0  0  0  0
    2.7796   70.0051   67.8825 H   0  0  0  0  0  0  0  0  0  0  0  0
    2.3793   66.6834   66.1065 H   0  0  0  0  0  0  0  0  0  0  0  0
    1.7612   67.7519   64.8014 H   0  0  0  0  0  0  0  0  0  0  0  0
    3.4823   67.2375   64.8014 H   0  0  0  0  0  0  0  0  0  0  0  0
    4.7520   69.9052   66.5583 H   0  0  0  0  0  0  0  0  0  0  0  0
    4.7921   68.8516   65.1041 H   0  0  0  0  0  0  0  0  0  0  0  0
    3.7937   70.3448   65.1041 H   0  0  0  0  0  0  0  0  0  0  0  0
  2  1  2  0
  3  2  1  0
  4  3  2  0
  5  4  1  0
  6  5  2  0
  6  1  1  0
  7  3  1  0
  8  7  1  0
  9  8  1  0
 10  9  2  0
 11  9  1  0
 12 11  2  0
 13 12  1  0
 13  7  1  0
 14 12  1  0
 15 14  2  0
 16 15  1  0
 17 16  2  0
 17 11  1  0
 18 17  1  0
 19 15  1  0
 20  6  1  0
 21  4  1  0
 22  1  1  0
 24 23  1  0
 25 24  2  0
 25 22  1  0
 26 24  1  0
 27 26  1  0
 28 27  1  0
 29 28  2  3
 30 29  1  0
 31 29  1  0
  2 32  1  0
  5 33  1  0
  7 34  1  1
  8 35  1  0
  8 36  1  0
 14 37  1  0
 16 38  1  0
 18 39  1  0
 19 40  1  0
 20 41  1  0
 21 42  1  0
 22 43  1  0
 22 44  1  0
 23 45  1  0
 23 46  1  0
 23 47  1  0
 25 48  1  0
 26 49  1  0
 26 50  1  0
 27 51  1  0
 27 52  1  0
 28 53  1  0
 30 54  1  0
 30 55  1  0
 30 56  1  0
 31 57  1  0
 31 58  1  0
 31 59  1  0
M  END
>  <score>  (9) 
-8.862

$$$$
