=
     RDKit          3D

 25 24  0  0  0  0  0  0  0  0999 V2000
    4.8160   70.0960   68.0350 C   0  0  0  0  0  0  0  0  0  0  0  0
    3.5930   70.2150   68.9670 C   0  0  0  0  0  0  0  0  0  0  0  0
    2.5760   69.5400   68.6420 O   0  0  0  0  0  0  0  0  0  0  0  0
    3.7590   70.9880   69.9540 O   0  0  0  0  0  1  0  0  0  0  0  0
    4.4130   69.8540   66.5750 C   0  0  0  0  0  0  0  0  0  0  0  0
    5.2310   69.4940   64.2150 C   0  0  0  0  0  0  0  0  0  0  0  0
    5.6190   69.5260   65.6860 C   0  0  0  0  0  0  0  0  0  0  0  0
    5.5890   71.4140   68.2290 C   0  0  0  0  0  0  0  0  0  0  0  0
    7.0700   71.1990   68.5530 C   0  0  0  0  0  0  0  0  0  0  0  0
    7.2550   70.6560   69.9620 C   0  0  0  0  0  0  0  0  0  0  0  0
    5.4389   69.2243   68.2842 H   0  0  0  0  0  0  0  0  0  0  0  0
    3.7064   69.0118   66.5378 H   0  0  0  0  0  0  0  0  0  0  0  0
    3.9552   70.7789   66.1941 H   0  0  0  0  0  0  0  0  0  0  0  0
    4.1383   69.4039   64.1259 H   0  0  0  0  0  0  0  0  0  0  0  0
    5.5633   70.4226   63.7279 H   0  0  0  0  0  0  0  0  0  0  0  0
    5.7109   68.6324   63.7279 H   0  0  0  0  0  0  0  0  0  0  0  0
    6.0179   68.5417   65.9726 H   0  0  0  0  0  0  0  0  0  0  0  0
    6.3773   70.3103   65.8274 H   0  0  0  0  0  0  0  0  0  0  0  0
    5.5150   72.0029   67.3029 H   0  0  0  0  0  0  0  0  0  0  0  0
    5.1380   71.9360   69.0858 H   0  0  0  0  0  0  0  0  0  0  0  0
    7.4935   70.4820   67.8343 H   0  0  0  0  0  0  0  0  0  0  0  0
    7.5845   72.1689   68.4846 H   0  0  0  0  0  0  0  0  0  0  0  0
    6.9898   71.4343   70.6927 H   0  0  0  0  0  0  0  0  0  0  0  0
    6.6043   69.7809   70.1061 H   0  0  0  0  0  0  0  0  0  0  0  0
    8.3046   70.3602   70.1061 H   0  0  0  0  0  0  0  0  0  0  0  0
  2  1  1  0
  3  2  2  0
  4  2  1  0
  5  1  1  0
  7  6  1  0
  7  5  1  0
  8  1  1  0
  9  8  1  0
 10  9  1  0
  1 11  1  0
  5 12  1  0
  5 13  1  0
  6 14  1  0
  6 15  1  0
  6 16  1  0
  7 17  1  0
  7 18  1  0
  8 19  1  0
  8 20  1  0
  9 21  1  0
  9 22  1  0
 10 23  1  0
 10 24  1  0
 10 25  1  0
M  CHG  1   4  -1
M  END
>  <score>  (1) 
-5.846

$$$$
=
     RDKit          3D

 25 24  0  0  0  0  0  0  0  0999 V2000
    4.1280   69.5120   65.7000 C   0  0  0  0  0  0  0  0  0  0  0  0
    2.9100   68.5730   65.8090 C   0  0  0  0  0  0  0  0  0  0  0  0
    1.9030   69.0360   66.4160 O   0  0  0  0  0  0  0  0  0  0  0  0
    3.0720   67.4390   65.2740 O   0  0  0  0  0  1  0  0  0  0  0  0
    4.7060   69.8780   67.0730 C   0  0  0  0  0  0  0  0  0  0  0  0
    6.7040   70.8330   68.2810 C   0  0  0  0  0  0  0  0  0  0  0  0
    6.2160   70.1400   67.0180 C   0  0  0  0  0  0  0  0  0  0  0  0
    5.1330   68.7520   64.8150 C   0  0  0  0  0  0  0  0  0  0  0  0
    5.4440   69.4750   63.5010 C   0  0  0  0  0  0  0  0  0  0  0  0
    4.5700   68.9620   62.3670 C   0  0  0  0  0  0  0  0  0  0  0  0
    3.8587   70.4837   65.2603 H   0  0  0  0  0  0  0  0  0  0  0  0
    4.2027   70.7853   67.4382 H   0  0  0  0  0  0  0  0  0  0  0  0
    4.5368   69.0256   67.7473 H   0  0  0  0  0  0  0  0  0  0  0  0
    6.3258   70.2960   69.1634 H   0  0  0  0  0  0  0  0  0  0  0  0
    7.8039   70.8350   68.2965 H   0  0  0  0  0  0  0  0  0  0  0  0
    6.3352   71.8692   68.2965 H   0  0  0  0  0  0  0  0  0  0  0  0
    6.4372   70.7791   66.1505 H   0  0  0  0  0  0  0  0  0  0  0  0
    6.7328   69.1729   66.9313 H   0  0  0  0  0  0  0  0  0  0  0  0
    6.0706   68.6284   65.3769 H   0  0  0  0  0  0  0  0  0  0  0  0
    4.6766   67.7850   64.5570 H   0  0  0  0  0  0  0  0  0  0  0  0
    5.2635   70.5520   63.6333 H   0  0  0  0  0  0  0  0  0  0  0  0
    6.4959   69.2854   63.2413 H   0  0  0  0  0  0  0  0  0  0  0  0
    3.6924   68.4469   62.7847 H   0  0  0  0  0  0  0  0  0  0  0  0
    4.2381   69.8086   61.7481 H   0  0  0  0  0  0  0  0  0  0  0  0
    5.1474   68.2595   61.7481 H   0  0  0  0  0  0  0  0  0  0  0  0
  2  1  1  0
  3  2  2  0
  4  2  1  0
  5  1  1  0
  7  6  1  0
  7  5  1  0
  8  1  1  0
  9  8  1  0
 10  9  1  0
  1 11  1  0
  5 12  1  0
  5 13  1  0
  6 14  1  0
  6 15  1  0
  6 16  1  0
  7 17  1  0
  7 18  1  0
  8 19  1  0
  8 20  1  0
  9 21  1  0
  9 22  1  0
 10 23  1  0
 10 24  1  0
 10 25  1  0
M  CHG  1   4  -1
M  END
>  <score>  (2) 
-5.483

$$$$
=
     RDKit          3D

 25 24  0  0  0  0  0  0  0  0999 V2000
    2.0250   68.4120   65.0960 C   0  0  0  0  0  0  0  0  0  0  0  0
    1.6460   66.9720   65.4970 C   0  0  0  0  0  0  0  0  0  0  0  0
    2.5800   66.1220   65.4700 O   0  0  0  0  0  0  0  0  0  0  0  0
    0.4290   66.8160   65.8040 O   0  0  0  0  0  1  0  0  0  0  0  0
    2.9700   69.0690   66.1110 C   0  0  0  0  0  0  0  0  0  0  0  0
    5.3200   69.8740   66.5520 C   0  0  0  0  0  0  0  0  0  0  0  0
    4.3180   69.4520   65.4880 C   0  0  0  0  0  0  0  0  0  0  0  0
    2.6540   68.2790   63.6970 C   0  0  0  0  0  0  0  0  0  0  0  0
    1.6760   68.6030   62.5650 C   0  0  0  0  0  0  0  0  0  0  0  0
    0.4020   69.2400   63.1010 C   0  0  0  0  0  0  0  0  0  0  0  0
    1.1495   69.0778   65.0816 H   0  0  0  0  0  0  0  0  0  0  0  0
    2.4908   69.9779   66.5036 H   0  0  0  0  0  0  0  0  0  0  0  0
    3.1642   68.3396   66.9111 H   0  0  0  0  0  0  0  0  0  0  0  0
    4.8930   69.6942   67.5497 H   0  0  0  0  0  0  0  0  0  0  0  0
    6.2444   69.2888   66.4379 H   0  0  0  0  0  0  0  0  0  0  0  0
    5.5472   70.9442   66.4379 H   0  0  0  0  0  0  0  0  0  0  0  0
    4.1649   70.2873   64.7888 H   0  0  0  0  0  0  0  0  0  0  0  0
    4.7195   68.5728   64.9629 H   0  0  0  0  0  0  0  0  0  0  0  0
    3.5078   68.9693   63.6301 H   0  0  0  0  0  0  0  0  0  0  0  0
    2.9614   67.2300   63.5743 H   0  0  0  0  0  0  0  0  0  0  0  0
    2.1577   69.3002   61.8637 H   0  0  0  0  0  0  0  0  0  0  0  0
    1.4083   67.6643   62.0579 H   0  0  0  0  0  0  0  0  0  0  0  0
    0.4218   69.2301   64.2008 H   0  0  0  0  0  0  0  0  0  0  0  0
    0.3334   70.2785   62.7448 H   0  0  0  0  0  0  0  0  0  0  0  0
   -0.4700   68.6718   62.7448 H   0  0  0  0  0  0  0  0  0  0  0  0
  2  1  1  0
  3  2  2  0
  4  2  1  0
  5  1  1  0
  7  6  1  0
  7  5  1  0
  8  1  1  0
  9  8  1  0
 10  9  1  0
  1 11  1  0
  5 12  1  0
  5 13  1  0
  6 14  1  0
  6 15  1  0
  6 16  1  0
  7 17  1  0
  7 18  1  0
  8 19  1  0
  8 20  1  0
  9 21  1  0
  9 22  1  0
 10 23  1  0
 10 24  1  0
 10 25  1  0
M  CHG  1   4  -1
M  END
>  <score>  (3) 
-5.389

$$$$
=
     RDKit          3D

 25 24  0  0  0  0  0  0  0  0999 V2000
    3.0690   68.7060   63.0330 C   0  0  0  0  0  0  0  0  0  0  0  0
    3.4400   68.2540   61.6050 C   0  0  0  0  0  0  0  0  0  0  0  0
    3.1060   69.0340   60.6700 O   0  0  0  0  0  0  0  0  0  0  0  0
    4.0380   67.1420   61.5460 O   0  0  0  0  0  1  0  0  0  0  0  0
    1.7510   68.0850   63.5150 C   0  0  0  0  0  0  0  0  0  0  0  0
   -0.0150   69.4270   62.3150 C   0  0  0  0  0  0  0  0  0  0  0  0
    0.6350   69.1260   63.6560 C   0  0  0  0  0  0  0  0  0  0  0  0
    4.2730   68.2960   63.9010 C   0  0  0  0  0  0  0  0  0  0  0  0
    4.7870   69.4330   64.7890 C   0  0  0  0  0  0  0  0  0  0  0  0
    4.0100   69.5100   66.0950 C   0  0  0  0  0  0  0  0  0  0  0  0
    2.8853   69.7892   63.0865 H   0  0  0  0  0  0  0  0  0  0  0  0
    1.4333   67.3218   62.7893 H   0  0  0  0  0  0  0  0  0  0  0  0
    1.9290   67.6459   64.5077 H   0  0  0  0  0  0  0  0  0  0  0  0
   -1.0018   69.8840   62.4802 H   0  0  0  0  0  0  0  0  0  0  0  0
    0.6207   70.1224   61.7473 H   0  0  0  0  0  0  0  0  0  0  0  0
   -0.1341   68.4924   61.7473 H   0  0  0  0  0  0  0  0  0  0  0  0
    1.0611   70.0546   64.0637 H   0  0  0  0  0  0  0  0  0  0  0  0
   -0.1337   68.7205   64.3302 H   0  0  0  0  0  0  0  0  0  0  0  0
    3.9708   67.4574   64.5455 H   0  0  0  0  0  0  0  0  0  0  0  0
    5.0897   68.0170   63.2190 H   0  0  0  0  0  0  0  0  0  0  0  0
    5.8496   69.2593   65.0141 H   0  0  0  0  0  0  0  0  0  0  0  0
    4.6532   70.3821   64.2493 H   0  0  0  0  0  0  0  0  0  0  0  0
    4.7086   69.4408   66.9419 H   0  0  0  0  0  0  0  0  0  0  0  0
    3.4684   70.4662   66.1436 H   0  0  0  0  0  0  0  0  0  0  0  0
    3.2913   68.6787   66.1436 H   0  0  0  0  0  0  0  0  0  0  0  0
  2  1  1  0
  3  2  2  0
  4  2  1  0
  5  1  1  0
  7  6  1  0
  7  5  1  0
  8  1  1  0
  9  8  1  0
 10  9  1  0
  1 11  1  0
  5 12  1  0
  5 13  1  0
  6 14  1  0
  6 15  1  0
  6 16  1  0
  7 17  1  0
  7 18  1  0
  8 19  1  0
  8 20  1  0
  9 21  1  0
  9 22  1  0
 10 23  1  0
 10 24  1  0
 10 25  1  0
M  CHG  1   4  -1
M  END
>  <score>  (4) 
-5.29

$$$$
=
     RDKit          3D

 25 24  0  0  0  0  0  0  0  0999 V2000
    3.7270   68.2980   63.3620 C   0  0  0  0  0  0  0  0  0  0  0  0
    4.1910   66.8310   63.2560 C   0  0  0  0  0  0  0  0  0  0  0  0
    3.6930   66.0270   64.0950 O   0  0  0  0  0  0  0  0  0  0  0  0
    5.0250   66.6100   62.3330 O   0  0  0  0  0  1  0  0  0  0  0  0
    4.8960   69.2620   63.6040 C   0  0  0  0  0  0  0  0  0  0  0  0
    3.9250   69.4210   65.9260 C   0  0  0  0  0  0  0  0  0  0  0  0
    5.1980   69.4490   65.0950 C   0  0  0  0  0  0  0  0  0  0  0  0
    2.9900   68.5750   62.0390 C   0  0  0  0  0  0  0  0  0  0  0  0
    1.4930   68.8320   62.2280 C   0  0  0  0  0  0  0  0  0  0  0  0
    1.1020   68.7740   63.6970 C   0  0  0  0  0  0  0  0  0  0  0  0
    3.0696   68.4590   64.2291 H   0  0  0  0  0  0  0  0  0  0  0  0
    5.7930   68.8613   63.1091 H   0  0  0  0  0  0  0  0  0  0  0  0
    4.6138   70.2424   63.1927 H   0  0  0  0  0  0  0  0  0  0  0  0
    4.1847   69.4267   66.9949 H   0  0  0  0  0  0  0  0  0  0  0  0
    3.3149   70.3059   65.6921 H   0  0  0  0  0  0  0  0  0  0  0  0
    3.3544   68.5101   65.6921 H   0  0  0  0  0  0  0  0  0  0  0  0
    5.6990   70.4175   65.2401 H   0  0  0  0  0  0  0  0  0  0  0  0
    5.8447   68.6222   65.4239 H   0  0  0  0  0  0  0  0  0  0  0  0
    3.4402   69.4603   61.5662 H   0  0  0  0  0  0  0  0  0  0  0  0
    3.0920   67.6767   61.4124 H   0  0  0  0  0  0  0  0  0  0  0  0
    1.2478   69.8282   61.8313 H   0  0  0  0  0  0  0  0  0  0  0  0
    0.9365   68.0504   61.6901 H   0  0  0  0  0  0  0  0  0  0  0  0
    1.9984   68.9070   64.3205 H   0  0  0  0  0  0  0  0  0  0  0  0
    0.3807   69.5750   63.9163 H   0  0  0  0  0  0  0  0  0  0  0  0
    0.6442   67.7981   63.9163 H   0  0  0  0  0  0  0  0  0  0  0  0
  2  1  1  0
  3  2  2  0
  4  2  1  0
  5  1  1  0
  7  6  1  0
  7  5  1  0
  8  1  1  0
  9  8  1  0
 10  9  1  0
  1 11  1  0
  5 12  1  0
  5 13  1  0
  6 14  1  0
  6 15  1  0
  6 16  1  0
  7 17  1  0
  7 18  1  0
  8 19  1  0
  8 20  1  0
  9 21  1  0
  9 22  1  0
 10 23  1  0
 10 24  1  0
 10 25  1  0
M  CHG  1   4  -1
M  END
>  <score>  (5) 
-5.251

$$$$
=
     RDKit          3D

 25 24  0  0  0  0  0  0  0  0999 V2000
    4.2560   69.0620   65.8020 C   0  0  0  0  0  0  0  0  0  0  0  0
    2.7140   69.0850   65.7870 C   0  0  0  0  0  0  0  0  0  0  0  0
    2.1470   69.1850   66.9110 O   0  0  0  0  0  0  0  0  0  0  0  0
    2.2000   68.9960   64.6350 O   0  0  0  0  0  1  0  0  0  0  0  0
    4.8600   69.5930   64.4950 C   0  0  0  0  0  0  0  0  0  0  0  0
    4.8330   68.1660   62.4150 C   0  0  0  0  0  0  0  0  0  0  0  0
    5.5780   68.4980   63.6990 C   0  0  0  0  0  0  0  0  0  0  0  0
    4.6500   69.9070   67.0270 C   0  0  0  0  0  0  0  0  0  0  0  0
    6.1380   70.2700   67.0520 C   0  0  0  0  0  0  0  0  0  0  0  0
    6.5560   70.7970   68.4170 C   0  0  0  0  0  0  0  0  0  0  0  0
    4.6504   68.0378   65.8759 H   0  0  0  0  0  0  0  0  0  0  0  0
    4.0519   70.0087   63.8752 H   0  0  0  0  0  0  0  0  0  0  0  0
    5.6026   70.3616   64.7554 H   0  0  0  0  0  0  0  0  0  0  0  0
    3.8538   67.7296   62.6616 H   0  0  0  0  0  0  0  0  0  0  0  0
    4.6876   69.0845   61.8275 H   0  0  0  0  0  0  0  0  0  0  0  0
    5.4188   67.4438   61.8275 H   0  0  0  0  0  0  0  0  0  0  0  0
    5.6455   67.5913   64.3182 H   0  0  0  0  0  0  0  0  0  0  0  0
    6.5804   68.8645   63.4327 H   0  0  0  0  0  0  0  0  0  0  0  0
    4.0627   70.8370   67.0145 H   0  0  0  0  0  0  0  0  0  0  0  0
    4.4443   69.3026   67.9228 H   0  0  0  0  0  0  0  0  0  0  0  0
    6.7297   69.3727   66.8178 H   0  0  0  0  0  0  0  0  0  0  0  0
    6.3154   71.0589   66.3062 H   0  0  0  0  0  0  0  0  0  0  0  0
    6.0786   70.1951   69.2043 H   0  0  0  0  0  0  0  0  0  0  0  0
    7.6494   70.7303   68.5167 H   0  0  0  0  0  0  0  0  0  0  0  0
    6.2421   71.8465   68.5167 H   0  0  0  0  0  0  0  0  0  0  0  0
  2  1  1  0
  3  2  2  0
  4  2  1  0
  5  1  1  0
  7  6  1  0
  7  5  1  0
  8  1  1  0
  9  8  1  0
 10  9  1  0
  1 11  1  0
  5 12  1  0
  5 13  1  0
  6 14  1  0
  6 15  1  0
  6 16  1  0
  7 17  1  0
  7 18  1  0
  8 19  1  0
  8 20  1  0
  9 21  1  0
  9 22  1  0
 10 23  1  0
 10 24  1  0
 10 25  1  0
M  CHG  1   4  -1
M  END
>  <score>  (6) 
-5.248

$$$$
=
     RDKit          3D

 25 24  0  0  0  0  0  0  0  0999 V2000
    2.7870   68.2990   64.3820 C   0  0  0  0  0  0  0  0  0  0  0  0
    2.7450   66.8210   64.8220 C   0  0  0  0  0  0  0  0  0  0  0  0
    1.9760   66.5490   65.7870 O   0  0  0  0  0  0  0  0  0  0  0  0
    3.4970   66.0540   64.1560 O   0  0  0  0  0  1  0  0  0  0  0  0
    1.4510   68.7690   63.7910 C   0  0  0  0  0  0  0  0  0  0  0  0
    2.8890   68.6600   61.7210 C   0  0  0  0  0  0  0  0  0  0  0  0
    1.4730   68.8000   62.2580 C   0  0  0  0  0  0  0  0  0  0  0  0
    3.1820   69.0770   65.6510 C   0  0  0  0  0  0  0  0  0  0  0  0
    4.6520   69.5050   65.6590 C   0  0  0  0  0  0  0  0  0  0  0  0
    5.2390   69.4970   64.2550 C   0  0  0  0  0  0  0  0  0  0  0  0
    3.5081   68.4639   63.5678 H   0  0  0  0  0  0  0  0  0  0  0  0
    0.6573   68.0820   64.1198 H   0  0  0  0  0  0  0  0  0  0  0  0
    1.2672   69.7937   64.1462 H   0  0  0  0  0  0  0  0  0  0  0  0
    3.5948   68.5902   62.5618 H   0  0  0  0  0  0  0  0  0  0  0  0
    2.9598   67.7505   61.1064 H   0  0  0  0  0  0  0  0  0  0  0  0
    3.1366   69.5380   61.1064 H   0  0  0  0  0  0  0  0  0  0  0  0
    1.0522   69.7561   61.9132 H   0  0  0  0  0  0  0  0  0  0  0  0
    0.8761   67.9543   61.8858 H   0  0  0  0  0  0  0  0  0  0  0  0
    2.5545   69.9779   65.7190 H   0  0  0  0  0  0  0  0  0  0  0  0
    3.0311   68.4048   66.5085 H   0  0  0  0  0  0  0  0  0  0  0  0
    4.7268   70.5215   66.0726 H   0  0  0  0  0  0  0  0  0  0  0  0
    5.2177   68.7908   66.2754 H   0  0  0  0  0  0  0  0  0  0  0  0
    6.3372   69.4820   64.3168 H   0  0  0  0  0  0  0  0  0  0  0  0
    4.8898   68.6035   63.7167 H   0  0  0  0  0  0  0  0  0  0  0  0
    4.9143   70.3997   63.7167 H   0  0  0  0  0  0  0  0  0  0  0  0
  2  1  1  0
  3  2  2  0
  4  2  1  0
  5  1  1  0
  7  6  1  0
  7  5  1  0
  8  1  1  0
  9  8  1  0
 10  9  1  0
  1 11  1  0
  5 12  1  0
  5 13  1  0
  6 14  1  0
  6 15  1  0
  6 16  1  0
  7 17  1  0
  7 18  1  0
  8 19  1  0
  8 20  1  0
  9 21  1  0
  9 22  1  0
 10 23  1  0
 10 24  1  0
 10 25  1  0
M  CHG  1   4  -1
M  END
>  <score>  (7) 
-5.204

$$$$
=
     RDKit          3D

 25 24  0  0  0  0  0  0  0  0999 V2000
    3.5740   67.4820   63.8830 C   0  0  0  0  0  0  0  0  0  0  0  0
    3.1390   67.9330   62.4740 C   0  0  0  0  0  0  0  0  0  0  0  0
    3.8050   67.4630   61.5090 O   0  0  0  0  0  0  0  0  0  0  0  0
    2.1600   68.7320   62.4580 O   0  0  0  0  0  1  0  0  0  0  0  0
    4.1140   66.0460   63.8940 C   0  0  0  0  0  0  0  0  0  0  0  0
    3.8820   63.7990   65.0180 C   0  0  0  0  0  0  0  0  0  0  0  0
    3.1620   65.0710   64.5970 C   0  0  0  0  0  0  0  0  0  0  0  0
    4.6260   68.5170   64.3220 C   0  0  0  0  0  0  0  0  0  0  0  0
    4.1580   69.3930   65.4870 C   0  0  0  0  0  0  0  0  0  0  0  0
    5.3320   69.8570   66.3370 C   0  0  0  0  0  0  0  0  0  0  0  0
    2.7259   67.4497   64.5828 H   0  0  0  0  0  0  0  0  0  0  0  0
    4.2566   65.7138   62.8551 H   0  0  0  0  0  0  0  0  0  0  0  0
    5.0635   66.0481   64.4493 H   0  0  0  0  0  0  0  0  0  0  0  0
    3.9142   63.7422   66.1161 H   0  0  0  0  0  0  0  0  0  0  0  0
    3.3446   62.9250   64.6212 H   0  0  0  0  0  0  0  0  0  0  0  0
    4.9079   63.8099   64.6212 H   0  0  0  0  0  0  0  0  0  0  0  0
    2.3454   64.8088   63.9082 H   0  0  0  0  0  0  0  0  0  0  0  0
    2.7688   65.5613   65.4998 H   0  0  0  0  0  0  0  0  0  0  0  0
    5.5362   67.9817   64.6303 H   0  0  0  0  0  0  0  0  0  0  0  0
    4.8091   69.1819   63.4650 H   0  0  0  0  0  0  0  0  0  0  0  0
    3.6361   70.2741   65.0855 H   0  0  0  0  0  0  0  0  0  0  0  0
    3.4849   68.7969   66.1208 H   0  0  0  0  0  0  0  0  0  0  0  0
    5.0762   69.7559   67.4020 H   0  0  0  0  0  0  0  0  0  0  0  0
    6.2143   69.2400   66.1117 H   0  0  0  0  0  0  0  0  0  0  0  0
    5.5541   70.9105   66.1117 H   0  0  0  0  0  0  0  0  0  0  0  0
  2  1  1  0
  3  2  2  0
  4  2  1  0
  5  1  1  0
  7  6  1  0
  7  5  1  0
  8  1  1  0
  9  8  1  0
 10  9  1  0
  1 11  1  0
  5 12  1  0
  5 13  1  0
  6 14  1  0
  6 15  1  0
  6 16  1  0
  7 17  1  0
  7 18  1  0
  8 19  1  0
  8 20  1  0
  9 21  1  0
  9 22  1  0
 10 23  1  0
 10 24  1  0
 10 25  1  0
M  CHG  1   4  -1
M  END
>  <score>  (8) 
-5.135

$$$$
=
     RDKit          3D

 25 24  0  0  0  0  0  0  0  0999 V2000
    4.3660   67.4350   63.8620 C   0  0  0  0  0  0  0  0  0  0  0  0
    4.0560   67.7450   62.3830 C   0  0  0  0  0  0  0  0  0  0  0  0
    4.2150   66.7920   61.5690 O   0  0  0  0  0  0  0  0  0  0  0  0
    3.6790   68.9320   62.1630 O   0  0  0  0  0  1  0  0  0  0  0  0
    3.2660   67.9420   64.8050 C   0  0  0  0  0  0  0  0  0  0  0  0
    5.2080   69.4240   65.4330 C   0  0  0  0  0  0  0  0  0  0  0  0
    3.7370   69.1180   65.6680 C   0  0  0  0  0  0  0  0  0  0  0  0
    4.5390   65.9060   63.9160 C   0  0  0  0  0  0  0  0  0  0  0  0
    3.3730   65.1940   64.6090 C   0  0  0  0  0  0  0  0  0  0  0  0
    3.7740   63.8030   65.0750 C   0  0  0  0  0  0  0  0  0  0  0  0
    5.2712   67.9542   64.2098 H   0  0  0  0  0  0  0  0  0  0  0  0
    2.4055   68.2678   64.2021 H   0  0  0  0  0  0  0  0  0  0  0  0
    2.9940   67.1168   65.4796 H   0  0  0  0  0  0  0  0  0  0  0  0
    5.7196   69.5304   66.4010 H   0  0  0  0  0  0  0  0  0  0  0  0
    5.6671   68.6021   64.8640 H   0  0  0  0  0  0  0  0  0  0  0  0
    5.3013   70.3608   64.8640 H   0  0  0  0  0  0  0  0  0  0  0  0
    3.5888   68.8658   66.7284 H   0  0  0  0  0  0  0  0  0  0  0  0
    3.1501   70.0066   65.3926 H   0  0  0  0  0  0  0  0  0  0  0  0
    4.6194   65.5261   62.8868 H   0  0  0  0  0  0  0  0  0  0  0  0
    5.4458   65.6988   64.5032 H   0  0  0  0  0  0  0  0  0  0  0  0
    3.0579   65.7869   65.4803 H   0  0  0  0  0  0  0  0  0  0  0  0
    2.5486   65.0945   63.8876 H   0  0  0  0  0  0  0  0  0  0  0  0
    3.7827   63.7730   66.1746 H   0  0  0  0  0  0  0  0  0  0  0  0
    3.0517   63.0662   64.6938 H   0  0  0  0  0  0  0  0  0  0  0  0
    4.7777   63.5637   64.6938 H   0  0  0  0  0  0  0  0  0  0  0  0
  2  1  1  0
  3  2  2  0
  4  2  1  0
  5  1  1  0
  7  6  1  0
  7  5  1  0
  8  1  1  0
  9  8  1  0
 10  9  1  0
  1 11  1  0
  5 12  1  0
  5 13  1  0
  6 14  1  0
  6 15  1  0
  6 16  1  0
  7 17  1  0
  7 18  1  0
  8 19  1  0
  8 20  1  0
  9 21  1  0
  9 22  1  0
 10 23  1  0
 10 24  1  0
 10 25  1  0
M  CHG  1   4  -1
M  END
>  <score>  (9) 
-5.058

$$$$
