=
     RDKit          3D

 60 63  0  0  0  0  0  0  0  0999 V2000
    1.5250   64.8290   70.1050 C   0  0  0  0  0  0  0  0  0  0  0  0
    2.5660   64.8750   69.4410 O   0  0  0  0  0  0  0  0  0  0  0  0
    0.2480   59.6800   73.4890 C   0  0  0  0  0  0  0  0  0  0  0  0
    1.3120   60.2620   72.7880 C   0  0  0  0  0  0  0  0  0  0  0  0
    1.1130   61.5020   72.1470 C   0  0  0  0  0  0  0  0  0  0  0  0
    2.2700   62.3930   71.2370 S   0  0  0  0  0  0  0  0  0  0  0  0
    1.1750   63.6530   70.8950 C   0  0  0  0  0  0  0  0  0  0  0  0
   -0.0560   63.3990   71.4660 C   0  0  0  0  0  0  0  0  0  0  0  0
   -0.1110   62.1620   72.1930 C   0  0  0  0  0  0  0  0  0  0  0  0
   -1.1760   61.5600   72.9070 C   0  0  0  0  0  0  0  0  0  0  0  0
   -0.9970   60.3280   73.5500 C   0  0  0  0  0  0  0  0  0  0  0  0
    0.6220   57.3160   73.3890 C   0  0  0  0  0  0  0  0  0  0  0  0
    0.3300   58.4780   74.1510 O   0  0  0  0  0  0  0  0  0  0  0  0
   -1.9770   59.6810   74.2610 O   0  0  0  0  0  0  0  0  0  0  0  0
   -3.1830   60.3820   74.5280 C   0  0  0  0  0  0  0  0  0  0  0  0
    0.5830   66.0450   70.0430 C   0  0  2  0  0  0  0  0  0  0  0  0
   -0.6080   65.7080   69.1430 C   0  0  0  0  0  0  0  0  0  0  0  0
   -1.3080   66.9110   68.5180 C   0  0  0  0  0  0  0  0  0  0  0  0
   -0.6940   67.3450   67.1890 C   0  0  0  0  0  0  0  0  0  0  0  0
    0.6040   68.1420   67.3030 N   0  0  2  0  0  4  0  0  0  0  0  0
    1.6890   67.4280   68.1380 C   0  0  0  0  0  0  0  0  0  0  0  0
    1.3800   67.2940   69.6300 C   0  0  0  0  0  0  0  0  0  0  0  0
    0.3290   69.5540   67.8160 C   0  0  0  0  0  0  0  0  0  0  0  0
    1.2330   68.2640   65.8600 C   0  0  0  0  0  0  0  0  0  0  0  0
    2.6460   68.7860   65.7580 C   0  0  0  0  0  0  0  0  0  0  0  0
    3.3500   68.7120   64.5440 C   0  0  0  0  0  0  0  0  0  0  0  0
    4.6590   69.1890   64.4520 C   0  0  0  0  0  0  0  0  0  0  0  0
    5.2760   69.7540   65.5650 C   0  0  0  0  0  0  0  0  0  0  0  0
    4.5850   69.8520   66.7690 C   0  0  0  0  0  0  0  0  0  0  0  0
    3.2760   69.3760   66.8660 C   0  0  0  0  0  0  0  0  0  0  0  0
    2.2889   59.7588   72.7383 H   0  0  0  0  0  0  0  0  0  0  0  0
   -0.9144   64.0805   71.3727 H   0  0  0  0  0  0  0  0  0  0  0  0
   -2.1523   62.0642   72.9571 H   0  0  0  0  0  0  0  0  0  0  0  0
    0.8330   56.4762   74.0673 H   0  0  0  0  0  0  0  0  0  0  0  0
   -0.2415   57.0669   72.7547 H   0  0  0  0  0  0  0  0  0  0  0  0
    1.5006   57.5047   72.7547 H   0  0  0  0  0  0  0  0  0  0  0  0
   -3.3258   60.4650   75.6155 H   0  0  0  0  0  0  0  0  0  0  0  0
   -3.1273   61.3885   74.0876 H   0  0  0  0  0  0  0  0  0  0  0  0
   -4.0300   59.8355   74.0876 H   0  0  0  0  0  0  0  0  0  0  0  0
    0.1580   66.2842   71.0290 H   0  0  0  0  0  0  0  0  0  0  0  0
   -0.2477   65.0624   68.3285 H   0  0  0  0  0  0  0  0  0  0  0  0
   -1.3531   65.2223   69.7902 H   0  0  0  0  0  0  0  0  0  0  0  0
   -2.3629   66.6507   68.3466 H   0  0  0  0  0  0  0  0  0  0  0  0
   -1.1966   67.7522   69.2180 H   0  0  0  0  0  0  0  0  0  0  0  0
   -0.4875   66.4406   66.5979 H   0  0  0  0  0  0  0  0  0  0  0  0
   -1.4261   68.0185   66.7194 H   0  0  0  0  0  0  0  0  0  0  0  0
    1.8245   66.4169   67.7265 H   0  0  0  0  0  0  0  0  0  0  0  0
    2.5898   68.0555   68.0682 H   0  0  0  0  0  0  0  0  0  0  0  0
    2.3371   67.2771   70.1719 H   0  0  0  0  0  0  0  0  0  0  0  0
    0.7377   68.1517   69.8785 H   0  0  0  0  0  0  0  0  0  0  0  0
    0.3296   69.5511   68.9160 H   0  0  0  0  0  0  0  0  0  0  0  0
    1.1113   70.2357   67.4507 H   0  0  0  0  0  0  0  0  0  0  0  0
   -0.6519   69.8923   67.4507 H   0  0  0  0  0  0  0  0  0  0  0  0
    1.2187   67.2611   65.4084 H   0  0  0  0  0  0  0  0  0  0  0  0
    0.6175   69.0188   65.3486 H   0  0  0  0  0  0  0  0  0  0  0  0
    2.8656   68.2745   63.6586 H   0  0  0  0  0  0  0  0  0  0  0  0
    5.2036   69.1183   63.4989 H   0  0  0  0  0  0  0  0  0  0  0  0
    6.3098   70.1229   65.4926 H   0  0  0  0  0  0  0  0  0  0  0  0
    5.0709   70.3052   67.6457 H   0  0  0  0  0  0  0  0  0  0  0  0
    2.7333   69.4639   67.8187 H   0  0  0  0  0  0  0  0  0  0  0  0
  2  1  2  0
  4  3  2  0
  5  4  1  0
  6  5  1  0
  7  1  1  0
  7  6  1  0
  8  7  2  0
  9  8  1  0
  9  5  2  0
 10  9  1  0
 11  3  1  0
 11 10  2  0
 13 12  1  0
 13  3  1  0
 14 11  1  0
 15 14  1  0
 16  1  1  0
 17 16  1  0
 18 17  1  0
 19 18  1  0
 20 19  1  0
 21 20  1  0
 22 21  1  0
 22 16  1  0
 20 23  1  1
 24 20  1  0
 25 24  1  0
 26 25  2  0
 27 26  1  0
 28 27  2  0
 29 28  1  0
 30 29  2  0
 30 25  1  0
  4 31  1  0
  8 32  1  0
 10 33  1  0
 12 34  1  0
 12 35  1  0
 12 36  1  0
 15 37  1  0
 15 38  1  0
 15 39  1  0
 16 40  1  1
 17 41  1  0
 17 42  1  0
 18 43  1  0
 18 44  1  0
 19 45  1  0
 19 46  1  0
 21 47  1  0
 21 48  1  0
 22 49  1  0
 22 50  1  0
 23 51  1  0
 23 52  1  0
 23 53  1  0
 24 54  1  0
 24 55  1  0
 26 56  1  0
 27 57  1  0
 28 58  1  0
 29 59  1  0
 30 60  1  0
M  CHG  1  20   1
M  END
>  <score>  (1) 
-9.521

$$$$
=
     RDKit          3D

 60 63  0  0  0  0  0  0  0  0999 V2000
    1.4830   64.2180   70.9030 C   0  0  0  0  0  0  0  0  0  0  0  0
    1.2490   65.3930   70.6020 O   0  0  0  0  0  0  0  0  0  0  0  0
   -1.5890   61.4190   75.6270 C   0  0  0  0  0  0  0  0  0  0  0  0
   -0.5500   62.3360   75.4220 C   0  0  0  0  0  0  0  0  0  0  0  0
   -0.1900   62.6790   74.1030 C   0  0  0  0  0  0  0  0  0  0  0  0
    1.0450   63.7750   73.6200 S   0  0  0  0  0  0  0  0  0  0  0  0
    0.7410   63.5400   71.9600 C   0  0  0  0  0  0  0  0  0  0  0  0
   -0.2890   62.6380   71.7750 C   0  0  0  0  0  0  0  0  0  0  0  0
   -0.8380   62.1310   73.0000 C   0  0  0  0  0  0  0  0  0  0  0  0
   -1.8870   61.2060   73.2260 C   0  0  0  0  0  0  0  0  0  0  0  0
   -2.2590   60.8530   74.5300 C   0  0  0  0  0  0  0  0  0  0  0  0
   -2.6900   61.9660   77.6830 C   0  0  0  0  0  0  0  0  0  0  0  0
   -2.0240   61.0150   76.8670 O   0  0  0  0  0  0  0  0  0  0  0  0
   -3.2630   59.9660   74.8310 O   0  0  0  0  0  0  0  0  0  0  0  0
   -4.6060   60.3960   74.6650 C   0  0  0  0  0  0  0  0  0  0  0  0
    2.6160   63.4990   70.1490 C   0  0  2  0  0  0  0  0  0  0  0  0
    2.0730   62.1970   69.5570 C   0  0  0  0  0  0  0  0  0  0  0  0
    3.1210   61.1200   69.2910 C   0  0  0  0  0  0  0  0  0  0  0  0
    3.3800   60.2190   70.4960 C   0  0  0  0  0  0  0  0  0  0  0  0
    4.2610   60.8280   71.5850 N   0  0  2  0  0  4  0  0  0  0  0  0
    3.7520   62.1950   72.0910 C   0  0  0  0  0  0  0  0  0  0  0  0
    3.8320   63.3370   71.0770 C   0  0  0  0  0  0  0  0  0  0  0  0
    5.7170   60.8980   71.1260 C   0  0  0  0  0  0  0  0  0  0  0  0
    4.1970   59.8890   72.8520 C   0  0  0  0  0  0  0  0  0  0  0  0
    2.9260   59.1060   73.0750 C   0  0  0  0  0  0  0  0  0  0  0  0
    2.7580   57.8340   72.5020 C   0  0  0  0  0  0  0  0  0  0  0  0
    1.5800   57.1130   72.7050 C   0  0  0  0  0  0  0  0  0  0  0  0
    0.5600   57.6480   73.4890 C   0  0  0  0  0  0  0  0  0  0  0  0
    0.7190   58.8980   74.0790 C   0  0  0  0  0  0  0  0  0  0  0  0
    1.8960   59.6230   73.8790 C   0  0  0  0  0  0  0  0  0  0  0  0
   -0.0226   62.7820   76.2781 H   0  0  0  0  0  0  0  0  0  0  0  0
   -0.6539   62.3368   70.7820 H   0  0  0  0  0  0  0  0  0  0  0  0
   -2.4145   60.7607   72.3696 H   0  0  0  0  0  0  0  0  0  0  0  0
   -2.5200   61.7232   78.7423 H   0  0  0  0  0  0  0  0  0  0  0  0
   -2.2974   62.9712   77.4696 H   0  0  0  0  0  0  0  0  0  0  0  0
   -3.7688   61.9408   77.4696 H   0  0  0  0  0  0  0  0  0  0  0  0
   -5.0683   60.5440   75.6521 H   0  0  0  0  0  0  0  0  0  0  0  0
   -4.6212   61.3439   74.1071 H   0  0  0  0  0  0  0  0  0  0  0  0
   -5.1689   59.6332   74.1071 H   0  0  0  0  0  0  0  0  0  0  0  0
    2.9792   64.0903   69.2955 H   0  0  0  0  0  0  0  0  0  0  0  0
    1.3328   61.7861   70.2592 H   0  0  0  0  0  0  0  0  0  0  0  0
    1.6484   62.4599   68.5769 H   0  0  0  0  0  0  0  0  0  0  0  0
    2.7744   60.4944   68.4553 H   0  0  0  0  0  0  0  0  0  0  0  0
    4.0654   61.6343   69.0597 H   0  0  0  0  0  0  0  0  0  0  0  0
    2.4090   59.9650   70.9461 H   0  0  0  0  0  0  0  0  0  0  0  0
    3.9280   59.3457   70.1124 H   0  0  0  0  0  0  0  0  0  0  0  0
    2.6995   62.0772   72.3881 H   0  0  0  0  0  0  0  0  0  0  0  0
    4.4148   62.4783   72.9219 H   0  0  0  0  0  0  0  0  0  0  0  0
    3.9564   64.2760   71.6363 H   0  0  0  0  0  0  0  0  0  0  0  0
    4.6780   63.0910   70.4183 H   0  0  0  0  0  0  0  0  0  0  0  0
    6.3775   60.9298   72.0051 H   0  0  0  0  0  0  0  0  0  0  0  0
    5.9539   60.0102   70.5213 H   0  0  0  0  0  0  0  0  0  0  0  0
    5.8676   61.8044   70.5213 H   0  0  0  0  0  0  0  0  0  0  0  0
    5.0200   59.1642   72.7669 H   0  0  0  0  0  0  0  0  0  0  0  0
    4.2596   60.5728   73.7113 H   0  0  0  0  0  0  0  0  0  0  0  0
    3.5621   57.4024   71.8879 H   0  0  0  0  0  0  0  0  0  0  0  0
    1.4569   56.1212   72.2454 H   0  0  0  0  0  0  0  0  0  0  0  0
   -0.3709   57.0822   73.6415 H   0  0  0  0  0  0  0  0  0  0  0  0
   -0.0837   59.3161   74.7041 H   0  0  0  0  0  0  0  0  0  0  0  0
    2.0177   60.6072   74.3550 H   0  0  0  0  0  0  0  0  0  0  0  0
  2  1  2  0
  4  3  2  0
  5  4  1  0
  6  5  1  0
  7  1  1  0
  7  6  1  0
  8  7  2  0
  9  8  1  0
  9  5  2  0
 10  9  1  0
 11  3  1  0
 11 10  2  0
 13 12  1  0
 13  3  1  0
 14 11  1  0
 15 14  1  0
 16  1  1  0
 17 16  1  0
 18 17  1  0
 19 18  1  0
 20 19  1  0
 21 20  1  0
 22 21  1  0
 22 16  1  0
 20 23  1  6
 24 20  1  0
 25 24  1  0
 26 25  2  0
 27 26  1  0
 28 27  2  0
 29 28  1  0
 30 29  2  0
 30 25  1  0
  4 31  1  0
  8 32  1  0
 10 33  1  0
 12 34  1  0
 12 35  1  0
 12 36  1  0
 15 37  1  0
 15 38  1  0
 15 39  1  0
 16 40  1  6
 17 41  1  0
 17 42  1  0
 18 43  1  0
 18 44  1  0
 19 45  1  0
 19 46  1  0
 21 47  1  0
 21 48  1  0
 22 49  1  0
 22 50  1  0
 23 51  1  0
 23 52  1  0
 23 53  1  0
 24 54  1  0
 24 55  1  0
 26 56  1  0
 27 57  1  0
 28 58  1  0
 29 59  1  0
 30 60  1  0
M  CHG  1  20   1
M  END
>  <score>  (2) 
-9.15

$$$$
=
     RDKit          3D

 60 63  0  0  0  0  0  0  0  0999 V2000
    1.0730   61.3500   76.0670 C   0  0  0  0  0  0  0  0  0  0  0  0
    1.5450   61.8540   77.0920 O   0  0  0  0  0  0  0  0  0  0  0  0
    0.9490   64.5230   70.6350 C   0  0  0  0  0  0  0  0  0  0  0  0
    0.1920   64.3750   71.8040 C   0  0  0  0  0  0  0  0  0  0  0  0
    0.6450   63.4940   72.8060 C   0  0  0  0  0  0  0  0  0  0  0  0
   -0.1180   63.1580   74.3110 S   0  0  0  0  0  0  0  0  0  0  0  0
    1.0910   62.0590   74.7920 C   0  0  0  0  0  0  0  0  0  0  0  0
    2.0650   61.9480   73.8190 C   0  0  0  0  0  0  0  0  0  0  0  0
    1.8250   62.7690   72.6660 C   0  0  0  0  0  0  0  0  0  0  0  0
    2.5790   62.9320   71.4780 C   0  0  0  0  0  0  0  0  0  0  0  0
    2.1440   63.8030   70.4710 C   0  0  0  0  0  0  0  0  0  0  0  0
    0.9000   66.7360   69.7190 C   0  0  0  0  0  0  0  0  0  0  0  0
    0.6030   65.3530   69.5950 O   0  0  0  0  0  0  0  0  0  0  0  0
    2.8170   64.0160   69.2930 O   0  0  0  0  0  0  0  0  0  0  0  0
    3.7580   63.0380   68.8750 C   0  0  0  0  0  0  0  0  0  0  0  0
    0.4270   59.9590   76.1860 C   0  0  2  0  0  0  0  0  0  0  0  0
    1.4590   58.9750   76.7420 C   0  0  0  0  0  0  0  0  0  0  0  0
    1.2070   57.5100   76.4000 C   0  0  0  0  0  0  0  0  0  0  0  0
    1.8270   57.0850   75.0710 C   0  0  0  0  0  0  0  0  0  0  0  0
    1.0580   57.5230   73.8260 N   0  0  2  0  0  4  0  0  0  0  0  0
    0.7830   59.0410   73.7790 C   0  0  0  0  0  0  0  0  0  0  0  0
   -0.1930   59.5600   74.8360 C   0  0  0  0  0  0  0  0  0  0  0  0
   -0.2250   56.7080   73.6680 C   0  0  0  0  0  0  0  0  0  0  0  0
    1.9670   57.2460   72.5650 C   0  0  0  0  0  0  0  0  0  0  0  0
    2.9450   58.3230   72.1610 C   0  0  0  0  0  0  0  0  0  0  0  0
    3.7830   58.9230   73.1160 C   0  0  0  0  0  0  0  0  0  0  0  0
    4.6840   59.9220   72.7420 C   0  0  0  0  0  0  0  0  0  0  0  0
    4.7650   60.3270   71.4130 C   0  0  0  0  0  0  0  0  0  0  0  0
    3.9550   59.7290   70.4520 C   0  0  0  0  0  0  0  0  0  0  0  0
    3.0530   58.7290   70.8210 C   0  0  0  0  0  0  0  0  0  0  0  0
   -0.7431   64.9386   71.9380 H   0  0  0  0  0  0  0  0  0  0  0  0
    2.9424   61.2920   73.9182 H   0  0  0  0  0  0  0  0  0  0  0  0
    3.5148   62.3694   71.3450 H   0  0  0  0  0  0  0  0  0  0  0  0
    0.9577   67.0046   70.7841 H   0  0  0  0  0  0  0  0  0  0  0  0
    1.8643   66.9488   69.2345 H   0  0  0  0  0  0  0  0  0  0  0  0
    0.1081   67.3260   69.2345 H   0  0  0  0  0  0  0  0  0  0  0  0
    4.2126   62.5655   69.7582 H   0  0  0  0  0  0  0  0  0  0  0  0
    3.2479   62.2727   68.2715 H   0  0  0  0  0  0  0  0  0  0  0  0
    4.5423   63.5182   68.2715 H   0  0  0  0  0  0  0  0  0  0  0  0
   -0.4086   59.9567   76.9014 H   0  0  0  0  0  0  0  0  0  0  0  0
    2.4451   59.2534   76.3420 H   0  0  0  0  0  0  0  0  0  0  0  0
    1.3934   59.0492   77.8375 H   0  0  0  0  0  0  0  0  0  0  0  0
    1.6335   56.8864   77.1995 H   0  0  0  0  0  0  0  0  0  0  0  0
    0.1186   57.3793   76.3085 H   0  0  0  0  0  0  0  0  0  0  0  0
    2.8385   57.5135   75.0147 H   0  0  0  0  0  0  0  0  0  0  0  0
    1.8154   55.9851   75.0662 H   0  0  0  0  0  0  0  0  0  0  0  0
    1.7409   59.5645   73.9143 H   0  0  0  0  0  0  0  0  0  0  0  0
    0.3093   59.2350   72.8053 H   0  0  0  0  0  0  0  0  0  0  0  0
   -0.6980   60.4454   74.4224 H   0  0  0  0  0  0  0  0  0  0  0  0
   -0.8679   58.7196   75.0556 H   0  0  0  0  0  0  0  0  0  0  0  0
   -0.6233   56.4550   74.6616 H   0  0  0  0  0  0  0  0  0  0  0  0
   -0.9692   57.2993   73.1143 H   0  0  0  0  0  0  0  0  0  0  0  0
   -0.0060   55.7831   73.1143 H   0  0  0  0  0  0  0  0  0  0  0  0
    2.5472   56.3344   72.7708 H   0  0  0  0  0  0  0  0  0  0  0  0
    1.2635   57.1756   71.7223 H   0  0  0  0  0  0  0  0  0  0  0  0
    3.7288   58.6030   74.1670 H   0  0  0  0  0  0  0  0  0  0  0  0
    5.3308   60.3896   73.4990 H   0  0  0  0  0  0  0  0  0  0  0  0
    5.4695   61.1201   71.1219 H   0  0  0  0  0  0  0  0  0  0  0  0
    4.0255   60.0445   69.4006 H   0  0  0  0  0  0  0  0  0  0  0  0
    2.4214   58.2550   70.0552 H   0  0  0  0  0  0  0  0  0  0  0  0
  2  1  2  0
  4  3  2  0
  5  4  1  0
  6  5  1  0
  7  1  1  0
  7  6  1  0
  8  7  2  0
  9  8  1  0
  9  5  2  0
 10  9  1  0
 11  3  1  0
 11 10  2  0
 13 12  1  0
 13  3  1  0
 14 11  1  0
 15 14  1  0
 16  1  1  0
 17 16  1  0
 18 17  1  0
 19 18  1  0
 20 19  1  0
 21 20  1  0
 22 21  1  0
 22 16  1  0
 20 23  1  6
 24 20  1  0
 25 24  1  0
 26 25  2  0
 27 26  1  0
 28 27  2  0
 29 28  1  0
 30 29  2  0
 30 25  1  0
  4 31  1  0
  8 32  1  0
 10 33  1  0
 12 34  1  0
 12 35  1  0
 12 36  1  0
 15 37  1  0
 15 38  1  0
 15 39  1  0
 16 40  1  1
 17 41  1  0
 17 42  1  0
 18 43  1  0
 18 44  1  0
 19 45  1  0
 19 46  1  0
 21 47  1  0
 21 48  1  0
 22 49  1  0
 22 50  1  0
 23 51  1  0
 23 52  1  0
 23 53  1  0
 24 54  1  0
 24 55  1  0
 26 56  1  0
 27 57  1  0
 28 58  1  0
 29 59  1  0
 30 60  1  0
M  CHG  1  20   1
M  END
>  <score>  (3) 
-8.953

$$$$
=
     RDKit          3D

 60 63  0  0  0  0  0  0  0  0999 V2000
    4.6170   60.4310   71.7240 C   0  0  0  0  0  0  0  0  0  0  0  0
    5.8150   60.6270   71.4930 O   0  0  0  0  0  0  0  0  0  0  0  0
    0.4230   65.0780   71.0870 C   0  0  0  0  0  0  0  0  0  0  0  0
    1.3050   64.3190   70.3070 C   0  0  0  0  0  0  0  0  0  0  0  0
    2.0910   63.3290   70.9290 C   0  0  0  0  0  0  0  0  0  0  0  0
    3.2320   62.2870   70.1720 S   0  0  0  0  0  0  0  0  0  0  0  0
    3.6370   61.5080   71.6330 C   0  0  0  0  0  0  0  0  0  0  0  0
    2.9120   62.0340   72.6840 C   0  0  0  0  0  0  0  0  0  0  0  0
    2.0150   63.0860   72.2980 C   0  0  0  0  0  0  0  0  0  0  0  0
    1.1180   63.8620   73.0710 C   0  0  0  0  0  0  0  0  0  0  0  0
    0.3280   64.8510   72.4700 C   0  0  0  0  0  0  0  0  0  0  0  0
   -0.2000   66.4670   69.2370 C   0  0  0  0  0  0  0  0  0  0  0  0
   -0.3910   66.0660   70.5860 O   0  0  0  0  0  0  0  0  0  0  0  0
   -0.5640   65.6430   73.1490 O   0  0  0  0  0  0  0  0  0  0  0  0
   -0.4950   65.6630   74.5680 C   0  0  0  0  0  0  0  0  0  0  0  0
    4.1940   59.0140   72.1520 C   0  0  2  0  0  0  0  0  0  0  0  0
    2.8320   58.6920   71.5330 C   0  0  0  0  0  0  0  0  0  0  0  0
    2.0200   57.6310   72.2700 C   0  0  0  0  0  0  0  0  0  0  0  0
    1.1450   58.2050   73.3820 C   0  0  0  0  0  0  0  0  0  0  0  0
    1.8830   58.5580   74.6730 N   0  0  2  0  0  4  0  0  0  0  0  0
    3.0830   59.5030   74.4520 C   0  0  0  0  0  0  0  0  0  0  0  0
    4.2580   58.8960   73.6840 C   0  0  0  0  0  0  0  0  0  0  0  0
    2.2870   57.2930   75.4290 C   0  0  0  0  0  0  0  0  0  0  0  0
    0.8970   59.3790   75.5930 C   0  0  0  0  0  0  0  0  0  0  0  0
   -0.3720   59.9000   74.9640 C   0  0  0  0  0  0  0  0  0  0  0  0
   -0.3200   60.8310   73.9130 C   0  0  0  0  0  0  0  0  0  0  0  0
   -1.4950   61.3160   73.3350 C   0  0  0  0  0  0  0  0  0  0  0  0
   -2.7330   60.8720   73.7920 C   0  0  0  0  0  0  0  0  0  0  0  0
   -2.8010   59.9360   74.8200 C   0  0  0  0  0  0  0  0  0  0  0  0
   -1.6280   59.4470   75.4000 C   0  0  0  0  0  0  0  0  0  0  0  0
    1.3828   64.4936   69.2237 H   0  0  0  0  0  0  0  0  0  0  0  0
    3.0125   61.6798   73.7205 H   0  0  0  0  0  0  0  0  0  0  0  0
    1.0405   63.6868   74.1542 H   0  0  0  0  0  0  0  0  0  0  0  0
    0.2729   67.4599   69.2131 H   0  0  0  0  0  0  0  0  0  0  0  0
    0.4484   65.7396   68.7266 H   0  0  0  0  0  0  0  0  0  0  0  0
   -1.1734   66.5121   68.7266 H   0  0  0  0  0  0  0  0  0  0  0  0
   -1.4720   65.3798   74.9866 H   0  0  0  0  0  0  0  0  0  0  0  0
    0.2703   64.9497   74.9080 H   0  0  0  0  0  0  0  0  0  0  0  0
   -0.2298   66.6750   74.9080 H   0  0  0  0  0  0  0  0  0  0  0  0
    4.8872   58.2487   71.7729 H   0  0  0  0  0  0  0  0  0  0  0  0
    2.2403   59.6190   71.5104 H   0  0  0  0  0  0  0  0  0  0  0  0
    3.0394   58.2799   70.5344 H   0  0  0  0  0  0  0  0  0  0  0  0
    1.3709   57.1207   71.5432 H   0  0  0  0  0  0  0  0  0  0  0  0
    2.7360   56.9418   72.7415 H   0  0  0  0  0  0  0  0  0  0  0  0
    0.6677   59.1201   73.0016 H   0  0  0  0  0  0  0  0  0  0  0  0
    0.4283   57.4135   73.6463 H   0  0  0  0  0  0  0  0  0  0  0  0
    2.7268   60.3798   73.8913 H   0  0  0  0  0  0  0  0  0  0  0  0
    3.4670   59.7475   75.4534 H   0  0  0  0  0  0  0  0  0  0  0  0
    5.1766   59.3978   74.0223 H   0  0  0  0  0  0  0  0  0  0  0  0
    4.2288   57.8179   73.9002 H   0  0  0  0  0  0  0  0  0  0  0  0
    2.2278   57.4782   76.5117 H   0  0  0  0  0  0  0  0  0  0  0  0
    1.6064   56.4718   75.1598 H   0  0  0  0  0  0  0  0  0  0  0  0
    3.3176   57.0183   75.1598 H   0  0  0  0  0  0  0  0  0  0  0  0
    0.6063   58.7262   76.4293 H   0  0  0  0  0  0  0  0  0  0  0  0
    1.4611   60.2806   75.8738 H   0  0  0  0  0  0  0  0  0  0  0  0
    0.6548   61.1809   73.5423 H   0  0  0  0  0  0  0  0  0  0  0  0
   -1.4425   62.0500   72.5174 H   0  0  0  0  0  0  0  0  0  0  0  0
   -3.6576   61.2610   73.3405 H   0  0  0  0  0  0  0  0  0  0  0  0
   -3.7794   59.5810   75.1760 H   0  0  0  0  0  0  0  0  0  0  0  0
   -1.6885   58.7004   76.2055 H   0  0  0  0  0  0  0  0  0  0  0  0
  2  1  2  0
  4  3  2  0
  5  4  1  0
  6  5  1  0
  7  1  1  0
  7  6  1  0
  8  7  2  0
  9  8  1  0
  9  5  2  0
 10  9  1  0
 11  3  1  0
 11 10  2  0
 13 12  1  0
 13  3  1  0
 14 11  1  0
 15 14  1  0
 16  1  1  0
 17 16  1  0
 18 17  1  0
 19 18  1  0
 20 19  1  0
 21 20  1  0
 22 21  1  0
 22 16  1  0
 20 23  1  1
 24 20  1  0
 25 24  1  0
 26 25  2  0
 27 26  1  0
 28 27  2  0
 29 28  1  0
 30 29  2  0
 30 25  1  0
  4 31  1  0
  8 32  1  0
 10 33  1  0
 12 34  1  0
 12 35  1  0
 12 36  1  0
 15 37  1  0
 15 38  1  0
 15 39  1  0
 16 40  1  6
 17 41  1  0
 17 42  1  0
 18 43  1  0
 18 44  1  0
 19 45  1  0
 19 46  1  0
 21 47  1  0
 21 48  1  0
 22 49  1  0
 22 50  1  0
 23 51  1  0
 23 52  1  0
 23 53  1  0
 24 54  1  0
 24 55  1  0
 26 56  1  0
 27 57  1  0
 28 58  1  0
 29 59  1  0
 30 60  1  0
M  CHG  1  20   1
M  END
>  <score>  (4) 
-8.79

$$$$
=
     RDKit          3D

 60 63  0  0  0  0  0  0  0  0999 V2000
    0.6380   67.6190   67.7410 C   0  0  0  0  0  0  0  0  0  0  0  0
    0.4120   68.8000   68.0250 O   0  0  0  0  0  0  0  0  0  0  0  0
    1.0090   63.2410   72.2450 C   0  0  0  0  0  0  0  0  0  0  0  0
    0.0640   64.0920   71.6560 C   0  0  0  0  0  0  0  0  0  0  0  0
    0.4720   64.9510   70.6160 C   0  0  0  0  0  0  0  0  0  0  0  0
   -0.5100   66.0710   69.7550 S   0  0  0  0  0  0  0  0  0  0  0  0
    0.7790   66.6000   68.7750 C   0  0  0  0  0  0  0  0  0  0  0  0
    1.9440   65.9320   69.0990 C   0  0  0  0  0  0  0  0  0  0  0  0
    1.7860   64.9770   70.1590 C   0  0  0  0  0  0  0  0  0  0  0  0
    2.7280   64.1100   70.7650 C   0  0  0  0  0  0  0  0  0  0  0  0
    2.3410   63.2480   71.8000 C   0  0  0  0  0  0  0  0  0  0  0  0
   -0.0760   61.2280   72.9600 C   0  0  0  0  0  0  0  0  0  0  0  0
    0.7230   62.3630   73.2630 O   0  0  0  0  0  0  0  0  0  0  0  0
    3.1920   62.3790   72.4370 O   0  0  0  0  0  0  0  0  0  0  0  0
    3.6330   61.2330   71.7240 C   0  0  0  0  0  0  0  0  0  0  0  0
    0.8040   67.2610   66.2530 C   0  0  2  0  0  0  0  0  0  0  0  0
    1.9130   66.2160   66.1130 C   0  0  0  0  0  0  0  0  0  0  0  0
    2.5910   66.1700   64.7460 C   0  0  0  0  0  0  0  0  0  0  0  0
    3.7690   67.1330   64.6240 C   0  0  0  0  0  0  0  0  0  0  0  0
    3.3920   68.5970   64.4050 N   0  0  2  0  0  4  0  0  0  0  0  0
    2.4170   69.1440   65.4690 C   0  0  0  0  0  0  0  0  0  0  0  0
    1.0100   68.5450   65.4330 C   0  0  0  0  0  0  0  0  0  0  0  0
    2.8670   68.8140   62.9870 C   0  0  0  0  0  0  0  0  0  0  0  0
    4.6960   69.4710   64.5770 C   0  0  0  0  0  0  0  0  0  0  0  0
    5.0800   69.8810   65.9780 C   0  0  0  0  0  0  0  0  0  0  0  0
    6.3870   70.3090   66.2660 C   0  0  0  0  0  0  0  0  0  0  0  0
    6.7430   70.6830   67.5630 C   0  0  0  0  0  0  0  0  0  0  0  0
    5.7980   70.6430   68.5850 C   0  0  0  0  0  0  0  0  0  0  0  0
    4.4940   70.2400   68.3120 C   0  0  0  0  0  0  0  0  0  0  0  0
    4.1340   69.8650   67.0160 C   0  0  0  0  0  0  0  0  0  0  0  0
   -0.9807   64.0895   72.0004 H   0  0  0  0  0  0  0  0  0  0  0  0
    2.9030   66.1148   68.5921 H   0  0  0  0  0  0  0  0  0  0  0  0
    3.7726   64.1133   70.4202 H   0  0  0  0  0  0  0  0  0  0  0  0
   -0.4095   60.7542   73.8950 H   0  0  0  0  0  0  0  0  0  0  0  0
   -0.9530   61.5425   72.3752 H   0  0  0  0  0  0  0  0  0  0  0  0
    0.5159   60.5085   72.3752 H   0  0  0  0  0  0  0  0  0  0  0  0
    3.9339   60.4510   72.4367 H   0  0  0  0  0  0  0  0  0  0  0  0
    2.8151   60.8575   71.0914 H   0  0  0  0  0  0  0  0  0  0  0  0
    4.4916   61.5026   71.0914 H   0  0  0  0  0  0  0  0  0  0  0  0
   -0.1033   66.7960   65.8401 H   0  0  0  0  0  0  0  0  0  0  0  0
    2.6829   66.4330   66.8681 H   0  0  0  0  0  0  0  0  0  0  0  0
    1.4301   65.2370   66.2484 H   0  0  0  0  0  0  0  0  0  0  0  0
    2.9565   65.1473   64.5717 H   0  0  0  0  0  0  0  0  0  0  0  0
    1.8421   66.4750   64.0003 H   0  0  0  0  0  0  0  0  0  0  0  0
    4.3588   67.0683   65.5503 H   0  0  0  0  0  0  0  0  0  0  0  0
    4.3249   66.8233   63.7267 H   0  0  0  0  0  0  0  0  0  0  0  0
    2.8475   68.9419   66.4609 H   0  0  0  0  0  0  0  0  0  0  0  0
    2.2979   70.2157   65.2514 H   0  0  0  0  0  0  0  0  0  0  0  0
    0.3111   69.3039   65.8145 H   0  0  0  0  0  0  0  0  0  0  0  0
    0.8356   68.2594   64.3852 H   0  0  0  0  0  0  0  0  0  0  0  0
    1.8513   69.2338   63.0323 H   0  0  0  0  0  0  0  0  0  0  0  0
    3.5289   69.5123   62.4538 H   0  0  0  0  0  0  0  0  0  0  0  0
    2.8428   67.8522   62.4538 H   0  0  0  0  0  0  0  0  0  0  0  0
    5.5357   68.8956   64.1602 H   0  0  0  0  0  0  0  0  0  0  0  0
    4.4706   70.4156   64.0603 H   0  0  0  0  0  0  0  0  0  0  0  0
    7.1366   70.3497   65.4620 H   0  0  0  0  0  0  0  0  0  0  0  0
    7.7712   71.0097   67.7779 H   0  0  0  0  0  0  0  0  0  0  0  0
    6.0821   70.9299   69.6082 H   0  0  0  0  0  0  0  0  0  0  0  0
    3.7461   70.2169   69.1183 H   0  0  0  0  0  0  0  0  0  0  0  0
    3.0999   69.5542   66.8061 H   0  0  0  0  0  0  0  0  0  0  0  0
  2  1  2  0
  4  3  2  0
  5  4  1  0
  6  5  1  0
  7  1  1  0
  7  6  1  0
  8  7  2  0
  9  8  1  0
  9  5  2  0
 10  9  1  0
 11  3  1  0
 11 10  2  0
 13 12  1  0
 13  3  1  0
 14 11  1  0
 15 14  1  0
 16  1  1  0
 17 16  1  0
 18 17  1  0
 19 18  1  0
 20 19  1  0
 21 20  1  0
 22 21  1  0
 22 16  1  0
 20 23  1  6
 24 20  1  0
 25 24  1  0
 26 25  2  0
 27 26  1  0
 28 27  2  0
 29 28  1  0
 30 29  2  0
 30 25  1  0
  4 31  1  0
  8 32  1  0
 10 33  1  0
 12 34  1  0
 12 35  1  0
 12 36  1  0
 15 37  1  0
 15 38  1  0
 15 39  1  0
 16 40  1  6
 17 41  1  0
 17 42  1  0
 18 43  1  0
 18 44  1  0
 19 45  1  0
 19 46  1  0
 21 47  1  0
 21 48  1  0
 22 49  1  0
 22 50  1  0
 23 51  1  0
 23 52  1  0
 23 53  1  0
 24 54  1  0
 24 55  1  0
 26 56  1  0
 27 57  1  0
 28 58  1  0
 29 59  1  0
 30 60  1  0
M  CHG  1  20   1
M  END
>  <score>  (5) 
-8.735

$$$$
=
     RDKit          3D

 60 63  0  0  0  0  0  0  0  0999 V2000
    3.2710   58.3340   74.7820 C   0  0  0  0  0  0  0  0  0  0  0  0
    4.0600   58.5640   75.7060 O   0  0  0  0  0  0  0  0  0  0  0  0
    2.5340   62.4100   70.0450 C   0  0  0  0  0  0  0  0  0  0  0  0
    3.4350   61.4300   70.4830 C   0  0  0  0  0  0  0  0  0  0  0  0
    3.1640   60.7350   71.6780 C   0  0  0  0  0  0  0  0  0  0  0  0
    4.1230   59.5020   72.3990 S   0  0  0  0  0  0  0  0  0  0  0  0
    3.0530   59.2990   73.7090 C   0  0  0  0  0  0  0  0  0  0  0  0
    1.9780   60.1590   73.6000 C   0  0  0  0  0  0  0  0  0  0  0  0
    2.0240   60.9950   72.4340 C   0  0  0  0  0  0  0  0  0  0  0  0
    1.1240   61.9880   71.9770 C   0  0  0  0  0  0  0  0  0  0  0  0
    1.3770   62.6890   70.7910 C   0  0  0  0  0  0  0  0  0  0  0  0
    3.8350   62.8790   68.0890 C   0  0  0  0  0  0  0  0  0  0  0  0
    2.6980   63.1460   68.8960 O   0  0  0  0  0  0  0  0  0  0  0  0
    0.5550   63.6640   70.2810 O   0  0  0  0  0  0  0  0  0  0  0  0
    0.4620   64.8940   70.9840 C   0  0  0  0  0  0  0  0  0  0  0  0
    2.4920   57.0080   74.8200 C   0  0  2  0  0  0  0  0  0  0  0  0
    1.7010   56.8570   73.5200 C   0  0  0  0  0  0  0  0  0  0  0  0
    0.4780   55.9480   73.6070 C   0  0  0  0  0  0  0  0  0  0  0  0
   -0.7880   56.6790   74.0480 C   0  0  0  0  0  0  0  0  0  0  0  0
   -0.8810   56.9730   75.5440 N   0  0  2  0  0  4  0  0  0  0  0  0
    0.3440   57.7320   76.0950 C   0  0  0  0  0  0  0  0  0  0  0  0
    1.6520   56.9390   76.1070 C   0  0  0  0  0  0  0  0  0  0  0  0
   -1.1590   55.6930   76.3310 C   0  0  0  0  0  0  0  0  0  0  0  0
   -2.0940   57.9580   75.7760 C   0  0  0  0  0  0  0  0  0  0  0  0
   -1.8910   59.4100   75.4180 C   0  0  0  0  0  0  0  0  0  0  0  0
   -1.9450   59.8310   74.0780 C   0  0  0  0  0  0  0  0  0  0  0  0
   -1.7520   61.1730   73.7470 C   0  0  0  0  0  0  0  0  0  0  0  0
   -1.5130   62.1120   74.7480 C   0  0  0  0  0  0  0  0  0  0  0  0
   -1.4750   61.7140   76.0810 C   0  0  0  0  0  0  0  0  0  0  0  0
   -1.6670   60.3720   76.4170 C   0  0  0  0  0  0  0  0  0  0  0  0
    4.3416   61.2065   69.9015 H   0  0  0  0  0  0  0  0  0  0  0  0
    1.1629   60.1996   74.3375 H   0  0  0  0  0  0  0  0  0  0  0  0
    0.2175   62.2110   72.5589 H   0  0  0  0  0  0  0  0  0  0  0  0
    4.7026   62.6753   68.7338 H   0  0  0  0  0  0  0  0  0  0  0  0
    3.6364   62.0031   67.4540 H   0  0  0  0  0  0  0  0  0  0  0  0
    4.0470   63.7518   67.4540 H   0  0  0  0  0  0  0  0  0  0  0  0
    0.4767   64.6996   72.0666 H   0  0  0  0  0  0  0  0  0  0  0  0
    1.3142   65.5354   70.7150 H   0  0  0  0  0  0  0  0  0  0  0  0
   -0.4770   65.4000   70.7150 H   0  0  0  0  0  0  0  0  0  0  0  0
    3.1654   56.1394   74.8662 H   0  0  0  0  0  0  0  0  0  0  0  0
    1.3613   57.8563   73.2100 H   0  0  0  0  0  0  0  0  0  0  0  0
    2.3839   56.3829   72.7997 H   0  0  0  0  0  0  0  0  0  0  0  0
    0.2992   55.5075   72.6150 H   0  0  0  0  0  0  0  0  0  0  0  0
    0.6941   55.1831   74.3675 H   0  0  0  0  0  0  0  0  0  0  0  0
   -0.8330   57.6371   73.5094 H   0  0  0  0  0  0  0  0  0  0  0  0
   -1.6261   56.0052   73.8164 H   0  0  0  0  0  0  0  0  0  0  0  0
    0.4955   58.6283   75.4756 H   0  0  0  0  0  0  0  0  0  0  0  0
    0.1148   57.9574   77.1470 H   0  0  0  0  0  0  0  0  0  0  0  0
    2.2697   57.3205   76.9334 H   0  0  0  0  0  0  0  0  0  0  0  0
    1.3593   55.8842   76.2150 H   0  0  0  0  0  0  0  0  0  0  0  0
   -1.1123   55.9078   77.4088 H   0  0  0  0  0  0  0  0  0  0  0  0
   -2.1601   55.3155   76.0754 H   0  0  0  0  0  0  0  0  0  0  0  0
   -0.4047   54.9343   76.0754 H   0  0  0  0  0  0  0  0  0  0  0  0
   -2.9392   57.5863   75.1781 H   0  0  0  0  0  0  0  0  0  0  0  0
   -2.2513   57.9572   76.8647 H   0  0  0  0  0  0  0  0  0  0  0  0
   -2.1411   59.0962   73.2832 H   0  0  0  0  0  0  0  0  0  0  0  0
   -1.7886   61.4898   72.6942 H   0  0  0  0  0  0  0  0  0  0  0  0
   -1.3543   63.1682   74.4847 H   0  0  0  0  0  0  0  0  0  0  0  0
   -1.2935   62.4574   76.8712 H   0  0  0  0  0  0  0  0  0  0  0  0
   -1.6426   60.0656   77.4732 H   0  0  0  0  0  0  0  0  0  0  0  0
  2  1  2  0
  4  3  2  0
  5  4  1  0
  6  5  1  0
  7  1  1  0
  7  6  1  0
  8  7  2  0
  9  8  1  0
  9  5  2  0
 10  9  1  0
 11  3  1  0
 11 10  2  0
 13 12  1  0
 13  3  1  0
 14 11  1  0
 15 14  1  0
 16  1  1  0
 17 16  1  0
 18 17  1  0
 19 18  1  0
 20 19  1  0
 21 20  1  0
 22 21  1  0
 22 16  1  0
 20 23  1  1
 24 20  1  0
 25 24  1  0
 26 25  2  0
 27 26  1  0
 28 27  2  0
 29 28  1  0
 30 29  2  0
 30 25  1  0
  4 31  1  0
  8 32  1  0
 10 33  1  0
 12 34  1  0
 12 35  1  0
 12 36  1  0
 15 37  1  0
 15 38  1  0
 15 39  1  0
 16 40  1  1
 17 41  1  0
 17 42  1  0
 18 43  1  0
 18 44  1  0
 19 45  1  0
 19 46  1  0
 21 47  1  0
 21 48  1  0
 22 49  1  0
 22 50  1  0
 23 51  1  0
 23 52  1  0
 23 53  1  0
 24 54  1  0
 24 55  1  0
 26 56  1  0
 27 57  1  0
 28 58  1  0
 29 59  1  0
 30 60  1  0
M  CHG  1  20   1
M  END
>  <score>  (6) 
-8.66

$$$$
=
     RDKit          3D

 60 63  0  0  0  0  0  0  0  0999 V2000
   -1.0860   60.1120   74.6220 C   0  0  0  0  0  0  0  0  0  0  0  0
   -2.1120   59.4900   74.3290 O   0  0  0  0  0  0  0  0  0  0  0  0
    1.2740   64.5770   70.8690 C   0  0  0  0  0  0  0  0  0  0  0  0
    0.4470   64.4520   71.9930 C   0  0  0  0  0  0  0  0  0  0  0  0
    0.1860   63.1680   72.5110 C   0  0  0  0  0  0  0  0  0  0  0  0
   -0.7930   62.7810   73.8720 S   0  0  0  0  0  0  0  0  0  0  0  0
   -0.5150   61.1070   73.7210 C   0  0  0  0  0  0  0  0  0  0  0  0
    0.3130   60.8450   72.6470 C   0  0  0  0  0  0  0  0  0  0  0  0
    0.7280   62.0210   71.9370 C   0  0  0  0  0  0  0  0  0  0  0  0
    1.5620   62.1660   70.8020 C   0  0  0  0  0  0  0  0  0  0  0  0
    1.8330   63.4340   70.2730 C   0  0  0  0  0  0  0  0  0  0  0  0
    0.5540   66.5240   69.6730 C   0  0  0  0  0  0  0  0  0  0  0  0
    1.5970   65.7770   70.2820 O   0  0  0  0  0  0  0  0  0  0  0  0
    2.6310   63.6580   69.1780 O   0  0  0  0  0  0  0  0  0  0  0  0
    3.6070   62.6800   68.8510 C   0  0  0  0  0  0  0  0  0  0  0  0
   -0.4030   59.7770   75.9600 C   0  0  2  0  0  0  0  0  0  0  0  0
    0.4970   60.9450   76.3670 C   0  0  0  0  0  0  0  0  0  0  0  0
    1.6430   60.5810   77.3070 C   0  0  0  0  0  0  0  0  0  0  0  0
    2.9070   60.1350   76.5750 C   0  0  0  0  0  0  0  0  0  0  0  0
    2.8760   58.7060   76.0370 N   0  0  2  0  0  4  0  0  0  0  0  0
    1.6550   58.4180   75.1360 C   0  0  0  0  0  0  0  0  0  0  0  0
    0.3040   58.4150   75.8510 C   0  0  0  0  0  0  0  0  0  0  0  0
    2.9920   57.6960   77.1770 C   0  0  0  0  0  0  0  0  0  0  0  0
    4.1220   58.5110   75.0880 C   0  0  0  0  0  0  0  0  0  0  0  0
    3.9610   58.8970   73.6370 C   0  0  0  0  0  0  0  0  0  0  0  0
    4.5420   60.0770   73.1420 C   0  0  0  0  0  0  0  0  0  0  0  0
    4.3880   60.4350   71.8010 C   0  0  0  0  0  0  0  0  0  0  0  0
    3.6620   59.6180   70.9390 C   0  0  0  0  0  0  0  0  0  0  0  0
    3.0970   58.4370   71.4100 C   0  0  0  0  0  0  0  0  0  0  0  0
    3.2480   58.0740   72.7500 C   0  0  0  0  0  0  0  0  0  0  0  0
    0.0077   65.3436   72.4643 H   0  0  0  0  0  0  0  0  0  0  0  0
    0.6253   59.8294   72.3624 H   0  0  0  0  0  0  0  0  0  0  0  0
    2.0013   61.2741   70.3313 H   0  0  0  0  0  0  0  0  0  0  0  0
   -0.0769   66.9758   70.4527 H   0  0  0  0  0  0  0  0  0  0  0  0
    0.9885   67.3176   69.0473 H   0  0  0  0  0  0  0  0  0  0  0  0
   -0.0575   65.8572   69.0473 H   0  0  0  0  0  0  0  0  0  0  0  0
    4.0278   62.2584   69.7758 H   0  0  0  0  0  0  0  0  0  0  0  0
    3.1390   61.8775   68.2619 H   0  0  0  0  0  0  0  0  0  0  0  0
    4.4104   63.1464   68.2619 H   0  0  0  0  0  0  0  0  0  0  0  0
   -1.1331   59.6611   76.7746 H   0  0  0  0  0  0  0  0  0  0  0  0
    0.9301   61.3765   75.4525 H   0  0  0  0  0  0  0  0  0  0  0  0
   -0.1433   61.6470   76.9213 H   0  0  0  0  0  0  0  0  0  0  0  0
    1.8864   61.4625   77.9184 H   0  0  0  0  0  0  0  0  0  0  0  0
    1.3047   59.7321   77.9193 H   0  0  0  0  0  0  0  0  0  0  0  0
    3.0663   60.8153   75.7254 H   0  0  0  0  0  0  0  0  0  0  0  0
    3.7171   60.1641   77.3186 H   0  0  0  0  0  0  0  0  0  0  0  0
    1.6226   59.1877   74.3508 H   0  0  0  0  0  0  0  0  0  0  0  0
    1.7965   57.3988   74.7472 H   0  0  0  0  0  0  0  0  0  0  0  0
   -0.3639   57.7315   75.3062 H   0  0  0  0  0  0  0  0  0  0  0  0
    0.5160   58.1067   76.8854 H   0  0  0  0  0  0  0  0  0  0  0  0
    2.9315   58.2225   78.1409 H   0  0  0  0  0  0  0  0  0  0  0  0
    2.1717   56.9666   77.1055 H   0  0  0  0  0  0  0  0  0  0  0  0
    3.9563   57.1715   77.1055 H   0  0  0  0  0  0  0  0  0  0  0  0
    4.9465   59.1120   75.4992 H   0  0  0  0  0  0  0  0  0  0  0  0
    4.2940   57.4247   75.0713 H   0  0  0  0  0  0  0  0  0  0  0  0
    5.1227   60.7238   73.8162 H   0  0  0  0  0  0  0  0  0  0  0  0
    4.8412   61.3642   71.4252 H   0  0  0  0  0  0  0  0  0  0  0  0
    3.5349   59.9062   69.8851 H   0  0  0  0  0  0  0  0  0  0  0  0
    2.5305   57.7882   70.7258 H   0  0  0  0  0  0  0  0  0  0  0  0
    2.8047   57.1354   73.1139 H   0  0  0  0  0  0  0  0  0  0  0  0
  2  1  2  0
  4  3  2  0
  5  4  1  0
  6  5  1  0
  7  1  1  0
  7  6  1  0
  8  7  2  0
  9  8  1  0
  9  5  2  0
 10  9  1  0
 11  3  1  0
 11 10  2  0
 13 12  1  0
 13  3  1  0
 14 11  1  0
 15 14  1  0
 16  1  1  0
 17 16  1  0
 18 17  1  0
 19 18  1  0
 20 19  1  0
 21 20  1  0
 22 21  1  0
 22 16  1  0
 20 23  1  1
 24 20  1  0
 25 24  1  0
 26 25  2  0
 27 26  1  0
 28 27  2  0
 29 28  1  0
 30 29  2  0
 30 25  1  0
  4 31  1  0
  8 32  1  0
 10 33  1  0
 12 34  1  0
 12 35  1  0
 12 36  1  0
 15 37  1  0
 15 38  1  0
 15 39  1  0
 16 40  1  1
 17 41  1  0
 17 42  1  0
 18 43  1  0
 18 44  1  0
 19 45  1  0
 19 46  1  0
 21 47  1  0
 21 48  1  0
 22 49  1  0
 22 50  1  0
 23 51  1  0
 23 52  1  0
 23 53  1  0
 24 54  1  0
 24 55  1  0
 26 56  1  0
 27 57  1  0
 28 58  1  0
 29 59  1  0
 30 60  1  0
M  CHG  1  20   1
M  END
>  <score>  (7) 
-8.37

$$$$
=
     RDKit          3D

 60 63  0  0  0  0  0  0  0  0999 V2000
    1.4870   67.6370   69.5190 C   0  0  0  0  0  0  0  0  0  0  0  0
    2.4260   68.3690   69.8480 O   0  0  0  0  0  0  0  0  0  0  0  0
    0.6060   61.9240   72.0040 C   0  0  0  0  0  0  0  0  0  0  0  0
   -0.0370   63.1660   71.9250 C   0  0  0  0  0  0  0  0  0  0  0  0
    0.5840   64.2150   71.2170 C   0  0  0  0  0  0  0  0  0  0  0  0
   -0.0180   65.8100   70.9920 S   0  0  0  0  0  0  0  0  0  0  0  0
    1.3340   66.2970   70.0750 C   0  0  0  0  0  0  0  0  0  0  0  0
    2.2330   65.2570   69.9420 C   0  0  0  0  0  0  0  0  0  0  0  0
    1.8170   64.0480   70.5930 C   0  0  0  0  0  0  0  0  0  0  0  0
    2.4520   62.7850   70.6820 C   0  0  0  0  0  0  0  0  0  0  0  0
    1.8510   61.7310   71.3820 C   0  0  0  0  0  0  0  0  0  0  0  0
   -1.1820   60.9650   73.2790 C   0  0  0  0  0  0  0  0  0  0  0  0
    0.0920   60.8340   72.6660 O   0  0  0  0  0  0  0  0  0  0  0  0
    2.4000   60.4800   71.5140 O   0  0  0  0  0  0  0  0  0  0  0  0
    3.2140   59.9940   70.4570 C   0  0  0  0  0  0  0  0  0  0  0  0
    0.4990   68.1710   68.4670 C   0  0  2  0  0  0  0  0  0  0  0  0
   -0.2970   66.9990   67.8890 C   0  0  0  0  0  0  0  0  0  0  0  0
   -0.8760   67.2330   66.4960 C   0  0  0  0  0  0  0  0  0  0  0  0
    0.0880   66.8620   65.3720 C   0  0  0  0  0  0  0  0  0  0  0  0
    1.1920   67.8820   65.1000 N   0  0  2  0  0  4  0  0  0  0  0  0
    2.0150   68.2420   66.3550 C   0  0  0  0  0  0  0  0  0  0  0  0
    1.2560   69.0200   67.4310 C   0  0  0  0  0  0  0  0  0  0  0  0
    0.6250   69.1250   64.4160 C   0  0  0  0  0  0  0  0  0  0  0  0
    2.2380   67.2230   64.1170 C   0  0  0  0  0  0  0  0  0  0  0  0
    3.4450   68.0440   63.7310 C   0  0  0  0  0  0  0  0  0  0  0  0
    4.1950   68.7170   64.7090 C   0  0  0  0  0  0  0  0  0  0  0  0
    5.3080   69.4800   64.3510 C   0  0  0  0  0  0  0  0  0  0  0  0
    5.6900   69.5720   63.0150 C   0  0  0  0  0  0  0  0  0  0  0  0
    4.9680   68.8960   62.0360 C   0  0  0  0  0  0  0  0  0  0  0  0
    3.8540   68.1310   62.3900 C   0  0  0  0  0  0  0  0  0  0  0  0
   -1.0128   63.3206   72.4086 H   0  0  0  0  0  0  0  0  0  0  0  0
    3.1794   65.3472   69.3887 H   0  0  0  0  0  0  0  0  0  0  0  0
    3.4269   62.6303   70.1965 H   0  0  0  0  0  0  0  0  0  0  0  0
   -1.0656   60.9530   74.3728 H   0  0  0  0  0  0  0  0  0  0  0  0
   -1.6418   61.9152   72.9696 H   0  0  0  0  0  0  0  0  0  0  0  0
   -1.8256   60.1283   72.9696 H   0  0  0  0  0  0  0  0  0  0  0  0
    4.0871   59.4727   70.8765 H   0  0  0  0  0  0  0  0  0  0  0  0
    2.6323   59.2952   69.8378 H   0  0  0  0  0  0  0  0  0  0  0  0
    3.5532   60.8375   69.8378 H   0  0  0  0  0  0  0  0  0  0  0  0
   -0.2436   68.8499   68.9116 H   0  0  0  0  0  0  0  0  0  0  0  0
    0.3703   66.1260   67.8383 H   0  0  0  0  0  0  0  0  0  0  0  0
   -1.1581   66.8543   68.5580 H   0  0  0  0  0  0  0  0  0  0  0  0
   -1.7868   66.6254   66.3897 H   0  0  0  0  0  0  0  0  0  0  0  0
   -1.0834   68.3095   66.4057 H   0  0  0  0  0  0  0  0  0  0  0  0
    0.5648   65.9060   65.6341 H   0  0  0  0  0  0  0  0  0  0  0  0
   -0.5166   66.8140   64.4543 H   0  0  0  0  0  0  0  0  0  0  0  0
    2.3775   67.3056   66.8042 H   0  0  0  0  0  0  0  0  0  0  0  0
    2.8218   68.9057   66.0106 H   0  0  0  0  0  0  0  0  0  0  0  0
    1.9832   69.6429   67.9725 H   0  0  0  0  0  0  0  0  0  0  0  0
    0.4847   69.5929   66.8954 H   0  0  0  0  0  0  0  0  0  0  0  0
    0.2962   69.8457   65.1792 H   0  0  0  0  0  0  0  0  0  0  0  0
    1.4024   69.5848   63.7882 H   0  0  0  0  0  0  0  0  0  0  0  0
   -0.2319   68.8394   63.7882 H   0  0  0  0  0  0  0  0  0  0  0  0
    2.6047   66.3026   64.5948 H   0  0  0  0  0  0  0  0  0  0  0  0
    1.6859   67.0772   63.1768 H   0  0  0  0  0  0  0  0  0  0  0  0
    3.9029   68.6423   65.7669 H   0  0  0  0  0  0  0  0  0  0  0  0
    5.8837   70.0089   65.1249 H   0  0  0  0  0  0  0  0  0  0  0  0
    6.5629   70.1793   62.7334 H   0  0  0  0  0  0  0  0  0  0  0  0
    5.2749   68.9641   60.9819 H   0  0  0  0  0  0  0  0  0  0  0  0
    3.2926   67.5924   61.6124 H   0  0  0  0  0  0  0  0  0  0  0  0
  2  1  2  0
  4  3  2  0
  5  4  1  0
  6  5  1  0
  7  1  1  0
  7  6  1  0
  8  7  2  0
  9  8  1  0
  9  5  2  0
 10  9  1  0
 11  3  1  0
 11 10  2  0
 13 12  1  0
 13  3  1  0
 14 11  1  0
 15 14  1  0
 16  1  1  0
 17 16  1  0
 18 17  1  0
 19 18  1  0
 20 19  1  0
 21 20  1  0
 22 21  1  0
 22 16  1  0
 20 23  1  6
 24 20  1  0
 25 24  1  0
 26 25  2  0
 27 26  1  0
 28 27  2  0
 29 28  1  0
 30 29  2  0
 30 25  1  0
  4 31  1  0
  8 32  1  0
 10 33  1  0
 12 34  1  0
 12 35  1  0
 12 36  1  0
 15 37  1  0
 15 38  1  0
 15 39  1  0
 16 40  1  1
 17 41  1  0
 17 42  1  0
 18 43  1  0
 18 44  1  0
 19 45  1  0
 19 46  1  0
 21 47  1  0
 21 48  1  0
 22 49  1  0
 22 50  1  0
 23 51  1  0
 23 52  1  0
 23 53  1  0
 24 54  1  0
 24 55  1  0
 26 56  1  0
 27 57  1  0
 28 58  1  0
 29 59  1  0
 30 60  1  0
M  CHG  1  20   1
M  END
>  <score>  (8) 
-8.04

$$$$
=
     RDKit          3D

 60 63  0  0  0  0  0  0  0  0999 V2000
    1.8700   62.5290   72.1540 C   0  0  0  0  0  0  0  0  0  0  0  0
    1.9850   63.5210   71.4260 O   0  0  0  0  0  0  0  0  0  0  0  0
   -3.1330   61.8480   75.9090 C   0  0  0  0  0  0  0  0  0  0  0  0
   -1.9390   62.5770   75.8410 C   0  0  0  0  0  0  0  0  0  0  0  0
   -1.0790   62.3820   74.7410 C   0  0  0  0  0  0  0  0  0  0  0  0
    0.4270   63.1620   74.4540 S   0  0  0  0  0  0  0  0  0  0  0  0
    0.6900   62.3310   72.9900 C   0  0  0  0  0  0  0  0  0  0  0  0
   -0.3550   61.4690   72.7220 C   0  0  0  0  0  0  0  0  0  0  0  0
   -1.3860   61.4850   73.7210 C   0  0  0  0  0  0  0  0  0  0  0  0
   -2.5980   60.7570   73.8060 C   0  0  0  0  0  0  0  0  0  0  0  0
   -3.4640   60.9380   74.8910 C   0  0  0  0  0  0  0  0  0  0  0  0
   -3.8010   62.9320   77.9380 C   0  0  0  0  0  0  0  0  0  0  0  0
   -4.0440   61.9600   76.9320 O   0  0  0  0  0  0  0  0  0  0  0  0
   -4.6550   60.2720   75.0460 O   0  0  0  0  0  0  0  0  0  0  0  0
   -4.6280   58.8520   75.0760 C   0  0  0  0  0  0  0  0  0  0  0  0
    3.0330   61.5220   72.1800 C   0  0  2  0  0  0  0  0  0  0  0  0
    2.6400   60.2850   71.3690 C   0  0  0  0  0  0  0  0  0  0  0  0
    3.3800   59.0040   71.7430 C   0  0  0  0  0  0  0  0  0  0  0  0
    2.7070   58.2230   72.8680 C   0  0  0  0  0  0  0  0  0  0  0  0
    2.9340   58.7810   74.2720 N   0  0  2  0  0  4  0  0  0  0  0  0
    2.5520   60.2700   74.4080 C   0  0  0  0  0  0  0  0  0  0  0  0
    3.4430   61.2450   73.6360 C   0  0  0  0  0  0  0  0  0  0  0  0
    4.3660   58.5160   74.7340 C   0  0  0  0  0  0  0  0  0  0  0  0
    1.9590   58.0310   75.2630 C   0  0  0  0  0  0  0  0  0  0  0  0
    1.3440   56.7360   74.7880 C   0  0  0  0  0  0  0  0  0  0  0  0
    0.0560   56.7190   74.2280 C   0  0  0  0  0  0  0  0  0  0  0  0
   -0.5140   55.5210   73.7940 C   0  0  0  0  0  0  0  0  0  0  0  0
    0.1980   54.3290   73.9050 C   0  0  0  0  0  0  0  0  0  0  0  0
    1.4820   54.3320   74.4400 C   0  0  0  0  0  0  0  0  0  0  0  0
    2.0560   55.5290   74.8750 C   0  0  0  0  0  0  0  0  0  0  0  0
   -1.6759   63.2917   76.6347 H   0  0  0  0  0  0  0  0  0  0  0  0
   -0.3938   60.8302   71.8273 H   0  0  0  0  0  0  0  0  0  0  0  0
   -2.8613   60.0427   73.0120 H   0  0  0  0  0  0  0  0  0  0  0  0
   -3.9165   62.4701   78.9296 H   0  0  0  0  0  0  0  0  0  0  0  0
   -2.7778   63.3216   77.8319 H   0  0  0  0  0  0  0  0  0  0  0  0
   -4.5205   63.7573   77.8319 H   0  0  0  0  0  0  0  0  0  0  0  0
   -4.6214   58.5074   76.1206 H   0  0  0  0  0  0  0  0  0  0  0  0
   -5.5188   58.4575   74.5653 H   0  0  0  0  0  0  0  0  0  0  0  0
   -3.7228   58.4916   74.5653 H   0  0  0  0  0  0  0  0  0  0  0  0
    3.9348   61.9256   71.6965 H   0  0  0  0  0  0  0  0  0  0  0  0
    1.5634   60.1110   71.5129 H   0  0  0  0  0  0  0  0  0  0  0  0
    2.9129   60.5031   70.3259 H   0  0  0  0  0  0  0  0  0  0  0  0
    3.4325   58.3590   70.8535 H   0  0  0  0  0  0  0  0  0  0  0  0
    4.3773   59.2977   72.1024 H   0  0  0  0  0  0  0  0  0  0  0  0
    1.6239   58.2144   72.6760 H   0  0  0  0  0  0  0  0  0  0  0  0
    3.1621   57.2216   72.8597 H   0  0  0  0  0  0  0  0  0  0  0  0
    1.5208   60.3911   74.0449 H   0  0  0  0  0  0  0  0  0  0  0  0
    2.6760   60.5206   75.4719 H   0  0  0  0  0  0  0  0  0  0  0  0
    3.4394   62.2038   74.1752 H   0  0  0  0  0  0  0  0  0  0  0  0
    4.4310   60.7646   73.5804 H   0  0  0  0  0  0  0  0  0  0  0  0
    4.4013   58.5095   75.8334 H   0  0  0  0  0  0  0  0  0  0  0  0
    4.7004   57.5407   74.3506 H   0  0  0  0  0  0  0  0  0  0  0  0
    5.0273   59.3070   74.3506 H   0  0  0  0  0  0  0  0  0  0  0  0
    2.5262   57.8100   76.1792 H   0  0  0  0  0  0  0  0  0  0  0  0
    1.1076   58.7157   75.3908 H   0  0  0  0  0  0  0  0  0  0  0  0
   -0.5085   57.6581   74.1306 H   0  0  0  0  0  0  0  0  0  0  0  0
   -1.5264   55.5183   73.3639 H   0  0  0  0  0  0  0  0  0  0  0  0
   -0.2554   53.3847   73.5694 H   0  0  0  0  0  0  0  0  0  0  0  0
    2.0459   53.3910   74.5206 H   0  0  0  0  0  0  0  0  0  0  0  0
    3.0749   55.5259   75.2894 H   0  0  0  0  0  0  0  0  0  0  0  0
  2  1  2  0
  4  3  2  0
  5  4  1  0
  6  5  1  0
  7  1  1  0
  7  6  1  0
  8  7  2  0
  9  8  1  0
  9  5  2  0
 10  9  1  0
 11  3  1  0
 11 10  2  0
 13 12  1  0
 13  3  1  0
 14 11  1  0
 15 14  1  0
 16  1  1  0
 17 16  1  0
 18 17  1  0
 19 18  1  0
 20 19  1  0
 21 20  1  0
 22 21  1  0
 22 16  1  0
 20 23  1  1
 24 20  1  0
 25 24  1  0
 26 25  2  0
 27 26  1  0
 28 27  2  0
 29 28  1  0
 30 29  2  0
 30 25  1  0
  4 31  1  0
  8 32  1  0
 10 33  1  0
 12 34  1  0
 12 35  1  0
 12 36  1  0
 15 37  1  0
 15 38  1  0
 15 39  1  0
 16 40  1  6
 17 41  1  0
 17 42  1  0
 18 43  1  0
 18 44  1  0
 19 45  1  0
 19 46  1  0
 21 47  1  0
 21 48  1  0
 22 49  1  0
 22 50  1  0
 23 51  1  0
 23 52  1  0
 23 53  1  0
 24 54  1  0
 24 55  1  0
 26 56  1  0
 27 57  1  0
 28 58  1  0
 29 59  1  0
 30 60  1  0
M  CHG  1  20   1
M  END
>  <score>  (9) 
-7.732

$$$$
