=
     RDKit          3D

 16 17  0  0  0  0  0  0  0  0999 V2000
    7.2760   71.2110   69.0420 O   0  0  0  0  0  0  0  0  0  0  0  0
    6.4690   70.7740   68.2530 C   0  0  0  0  0  0  0  0  0  0  0  0
    6.6630   70.4660   66.9230 N   0  0  0  0  0  0  0  0  0  0  0  0
    5.4920   69.9850   66.3480 C   0  0  0  0  0  0  0  0  0  0  0  0
    4.4410   69.9440   67.2670 C   0  0  0  0  0  0  0  0  0  0  0  0
    4.9800   70.4390   68.5400 C   0  0  0  0  0  0  0  0  0  0  0  0
    4.4110   70.5690   69.5980 O   0  0  0  0  0  0  0  0  0  0  0  0
    3.1880   69.4990   66.9060 C   0  0  0  0  0  0  0  0  0  0  0  0
    1.8690   69.4300   68.0010 Cl  0  0  0  0  0  0  0  0  0  0  0  0
    3.0020   69.0870   65.5820 C   0  0  0  0  0  0  0  0  0  0  0  0
    4.0630   69.1290   64.6550 C   0  0  0  0  0  0  0  0  0  0  0  0
    5.3290   69.5840   65.0370 C   0  0  0  0  0  0  0  0  0  0  0  0
    7.5562   70.5774   66.4223 H   0  0  0  0  0  0  0  0  0  0  0  0
    2.0143   68.7254   65.2600 H   0  0  0  0  0  0  0  0  0  0  0  0
    3.8932   68.8001   63.6191 H   0  0  0  0  0  0  0  0  0  0  0  0
    6.1628   69.6210   64.3205 H   0  0  0  0  0  0  0  0  0  0  0  0
  2  1  2  0
  3  2  1  0
  4  3  1  0
  5  4  2  0
  6  5  1  0
  6  2  1  0
  7  6  2  0
  8  5  1  0
  9  8  1  0
 10  8  2  0
 11 10  1  0
 12 11  2  0
 12  4  1  0
  3 13  1  0
 10 14  1  0
 11 15  1  0
 12 16  1  0
M  END
>  <score>  (1) 
-7.832

$$$$
=
     RDKit          3D

 16 17  0  0  0  0  0  0  0  0999 V2000
    0.6940   69.0180   67.9500 O   0  0  0  0  0  0  0  0  0  0  0  0
    1.8540   69.3540   67.8660 C   0  0  0  0  0  0  0  0  0  0  0  0
    2.6470   69.9150   68.8440 N   0  0  0  0  0  0  0  0  0  0  0  0
    3.9290   70.1610   68.3630 C   0  0  0  0  0  0  0  0  0  0  0  0
    4.0650   69.7770   67.0280 C   0  0  0  0  0  0  0  0  0  0  0  0
    2.7640   69.2380   66.6130 C   0  0  0  0  0  0  0  0  0  0  0  0
    2.4420   68.7930   65.5370 O   0  0  0  0  0  0  0  0  0  0  0  0
    5.2560   69.9340   66.3530 C   0  0  0  0  0  0  0  0  0  0  0  0
    5.4690   69.4750   64.7130 Cl  0  0  0  0  0  0  0  0  0  0  0  0
    6.3310   70.4930   67.0540 C   0  0  0  0  0  0  0  0  0  0  0  0
    6.1910   70.8810   68.4020 C   0  0  0  0  0  0  0  0  0  0  0  0
    4.9760   70.7150   69.0720 C   0  0  0  0  0  0  0  0  0  0  0  0
    2.3326   70.1240   69.8023 H   0  0  0  0  0  0  0  0  0  0  0  0
    7.2972   70.6312   66.5466 H   0  0  0  0  0  0  0  0  0  0  0  0
    7.0487   71.3198   68.9329 H   0  0  0  0  0  0  0  0  0  0  0  0
    4.8583   71.0143   70.1239 H   0  0  0  0  0  0  0  0  0  0  0  0
  2  1  2  0
  3  2  1  0
  4  3  1  0
  5  4  2  0
  6  5  1  0
  6  2  1  0
  7  6  2  0
  8  5  1  0
  9  8  1  0
 10  8  2  0
 11 10  1  0
 12 11  2  0
 12  4  1  0
  3 13  1  0
 10 14  1  0
 11 15  1  0
 12 16  1  0
M  END
>  <score>  (2) 
-7.671

$$$$
=
     RDKit          3D

 16 17  0  0  0  0  0  0  0  0999 V2000
    4.8210   68.9640   63.2960 O   0  0  0  0  0  0  0  0  0  0  0  0
    4.9090   69.3240   64.4480 C   0  0  0  0  0  0  0  0  0  0  0  0
    6.0160   69.8270   65.0980 N   0  0  0  0  0  0  0  0  0  0  0  0
    5.7210   70.1280   66.4230 C   0  0  0  0  0  0  0  0  0  0  0  0
    4.3900   69.8410   66.7360 C   0  0  0  0  0  0  0  0  0  0  0  0
    3.7780   69.3120   65.5120 C   0  0  0  0  0  0  0  0  0  0  0  0
    2.6410   68.9390   65.3390 O   0  0  0  0  0  0  0  0  0  0  0  0
    3.8850   70.0650   67.9990 C   0  0  0  0  0  0  0  0  0  0  0  0
    2.2590   69.7290   68.4280 Cl  0  0  0  0  0  0  0  0  0  0  0  0
    4.7540   70.5920   68.9610 C   0  0  0  0  0  0  0  0  0  0  0  0
    6.0970   70.8800   68.6440 C   0  0  0  0  0  0  0  0  0  0  0  0
    6.5940   70.6470   67.3580 C   0  0  0  0  0  0  0  0  0  0  0  0
    6.9386   69.9618   64.6604 H   0  0  0  0  0  0  0  0  0  0  0  0
    4.3839   70.7842   69.9789 H   0  0  0  0  0  0  0  0  0  0  0  0
    6.7616   71.2928   69.4172 H   0  0  0  0  0  0  0  0  0  0  0  0
    7.6404   70.8687   67.1012 H   0  0  0  0  0  0  0  0  0  0  0  0
  2  1  2  0
  3  2  1  0
  4  3  1  0
  5  4  2  0
  6  5  1  0
  6  2  1  0
  7  6  2  0
  8  5  1  0
  9  8  1  0
 10  8  2  0
 11 10  1  0
 12 11  2  0
 12  4  1  0
  3 13  1  0
 10 14  1  0
 11 15  1  0
 12 16  1  0
M  END
>  <score>  (3) 
-7.67

$$$$
=
     RDKit          3D

 16 17  0  0  0  0  0  0  0  0999 V2000
   -0.0420   68.0690   62.7800 O   0  0  0  0  0  0  0  0  0  0  0  0
    0.9830   68.3750   63.3460 C   0  0  0  0  0  0  0  0  0  0  0  0
    1.1730   68.6030   64.6930 N   0  0  0  0  0  0  0  0  0  0  0  0
    2.4980   68.9340   64.9580 C   0  0  0  0  0  0  0  0  0  0  0  0
    3.2730   68.9470   63.7960 C   0  0  0  0  0  0  0  0  0  0  0  0
    2.3740   68.5950   62.6910 C   0  0  0  0  0  0  0  0  0  0  0  0
    2.6320   68.4900   61.5150 O   0  0  0  0  0  0  0  0  0  0  0  0
    4.6160   69.2510   63.8320 C   0  0  0  0  0  0  0  0  0  0  0  0
    5.6070   69.2780   62.4320 Cl  0  0  0  0  0  0  0  0  0  0  0  0
    5.1810   69.5480   65.0780 C   0  0  0  0  0  0  0  0  0  0  0  0
    4.3980   69.5350   66.2500 C   0  0  0  0  0  0  0  0  0  0  0  0
    3.0360   69.2240   66.1960 C   0  0  0  0  0  0  0  0  0  0  0  0
    0.4333   68.5371   65.4067 H   0  0  0  0  0  0  0  0  0  0  0  0
    6.2509   69.7950   65.1433 H   0  0  0  0  0  0  0  0  0  0  0  0
    4.8637   69.7722   67.2179 H   0  0  0  0  0  0  0  0  0  0  0  0
    2.4168   69.2109   67.1050 H   0  0  0  0  0  0  0  0  0  0  0  0
  2  1  2  0
  3  2  1  0
  4  3  1  0
  5  4  2  0
  6  5  1  0
  6  2  1  0
  7  6  2  0
  8  5  1  0
  9  8  1  0
 10  8  2  0
 11 10  1  0
 12 11  2  0
 12  4  1  0
  3 13  1  0
 10 14  1  0
 11 15  1  0
 12 16  1  0
M  END
>  <score>  (4) 
-7.548

$$$$
=
     RDKit          3D

 16 17  0  0  0  0  0  0  0  0999 V2000
    0.4980   69.1370   68.0160 O   0  0  0  0  0  0  0  0  0  0  0  0
    1.6120   69.2870   67.5690 C   0  0  0  0  0  0  0  0  0  0  0  0
    2.0560   69.0190   66.2910 N   0  0  0  0  0  0  0  0  0  0  0  0
    3.4070   69.3240   66.1610 C   0  0  0  0  0  0  0  0  0  0  0  0
    3.9450   69.8160   67.3520 C   0  0  0  0  0  0  0  0  0  0  0  0
    2.8520   69.8290   68.3310 C   0  0  0  0  0  0  0  0  0  0  0  0
    2.8800   70.1820   69.4870 O   0  0  0  0  0  0  0  0  0  0  0  0
    5.2710   70.1810   67.4450 C   0  0  0  0  0  0  0  0  0  0  0  0
    5.9750   70.7910   68.8850 Cl  0  0  0  0  0  0  0  0  0  0  0  0
    6.0640   70.0420   66.2990 C   0  0  0  0  0  0  0  0  0  0  0  0
    5.5190   69.5450   65.0990 C   0  0  0  0  0  0  0  0  0  0  0  0
    4.1720   69.1790   65.0210 C   0  0  0  0  0  0  0  0  0  0  0  0
    1.4665   68.6435   65.5345 H   0  0  0  0  0  0  0  0  0  0  0  0
    7.1264   70.3247   66.3365 H   0  0  0  0  0  0  0  0  0  0  0  0
    6.1615   69.4436   64.2119 H   0  0  0  0  0  0  0  0  0  0  0  0
    3.7386   68.7906   64.0876 H   0  0  0  0  0  0  0  0  0  0  0  0
  2  1  2  0
  3  2  1  0
  4  3  1  0
  5  4  2  0
  6  5  1  0
  6  2  1  0
  7  6  2  0
  8  5  1  0
  9  8  1  0
 10  8  2  0
 11 10  1  0
 12 11  2  0
 12  4  1  0
  3 13  1  0
 10 14  1  0
 11 15  1  0
 12 16  1  0
M  END
>  <score>  (5) 
-7.454

$$$$
=
     RDKit          3D

 16 17  0  0  0  0  0  0  0  0999 V2000
    2.8750   68.0250   63.8670 O   0  0  0  0  0  0  0  0  0  0  0  0
    3.1470   68.5590   64.9190 C   0  0  0  0  0  0  0  0  0  0  0  0
    2.3020   68.8370   65.9720 N   0  0  0  0  0  0  0  0  0  0  0  0
    2.9900   69.4590   67.0090 C   0  0  0  0  0  0  0  0  0  0  0  0
    4.3410   69.6330   66.7050 C   0  0  0  0  0  0  0  0  0  0  0  0
    4.5420   69.0770   65.3620 C   0  0  0  0  0  0  0  0  0  0  0  0
    5.5620   69.0200   64.7150 O   0  0  0  0  0  0  0  0  0  0  0  0
    5.2070   70.2310   67.5960 C   0  0  0  0  0  0  0  0  0  0  0  0
    6.8740   70.4640   67.2660 Cl  0  0  0  0  0  0  0  0  0  0  0  0
    4.6840   70.6590   68.8210 C   0  0  0  0  0  0  0  0  0  0  0  0
    3.3190   70.4840   69.1260 C   0  0  0  0  0  0  0  0  0  0  0  0
    2.4530   69.8760   68.2110 C   0  0  0  0  0  0  0  0  0  0  0  0
    1.2965   68.6142   65.9888 H   0  0  0  0  0  0  0  0  0  0  0  0
    5.3470   71.1386   69.5561 H   0  0  0  0  0  0  0  0  0  0  0  0
    2.9301   70.8297   70.0952 H   0  0  0  0  0  0  0  0  0  0  0  0
    1.3863   69.7356   68.4399 H   0  0  0  0  0  0  0  0  0  0  0  0
  2  1  2  0
  3  2  1  0
  4  3  1  0
  5  4  2  0
  6  5  1  0
  6  2  1  0
  7  6  2  0
  8  5  1  0
  9  8  1  0
 10  8  2  0
 11 10  1  0
 12 11  2  0
 12  4  1  0
  3 13  1  0
 10 14  1  0
 11 15  1  0
 12 16  1  0
M  END
>  <score>  (6) 
-7.238

$$$$
=
     RDKit          3D

 16 17  0  0  0  0  0  0  0  0999 V2000
    3.8010   70.8040   69.9010 O   0  0  0  0  0  0  0  0  0  0  0  0
    3.4390   70.2840   68.8700 C   0  0  0  0  0  0  0  0  0  0  0  0
    2.2440   69.6440   68.6170 N   0  0  0  0  0  0  0  0  0  0  0  0
    2.1980   69.1780   67.3070 C   0  0  0  0  0  0  0  0  0  0  0  0
    3.3670   69.4830   66.6070 C   0  0  0  0  0  0  0  0  0  0  0  0
    4.2380   70.2040   67.5410 C   0  0  0  0  0  0  0  0  0  0  0  0
    5.3440   70.6520   67.3470 O   0  0  0  0  0  0  0  0  0  0  0  0
    3.5320   69.1120   65.2890 C   0  0  0  0  0  0  0  0  0  0  0  0
    4.9490   69.4660   64.3890 Cl  0  0  0  0  0  0  0  0  0  0  0  0
    2.4840   68.4180   64.6740 C   0  0  0  0  0  0  0  0  0  0  0  0
    1.3050   68.1100   65.3830 C   0  0  0  0  0  0  0  0  0  0  0  0
    1.1530   68.4940   66.7190 C   0  0  0  0  0  0  0  0  0  0  0  0
    1.4870   69.5267   69.3056 H   0  0  0  0  0  0  0  0  0  0  0  0
    2.5814   68.1085   63.6229 H   0  0  0  0  0  0  0  0  0  0  0  0
    0.4954   67.5613   64.8795 H   0  0  0  0  0  0  0  0  0  0  0  0
    0.2361   68.2600   67.2798 H   0  0  0  0  0  0  0  0  0  0  0  0
  2  1  2  0
  3  2  1  0
  4  3  1  0
  5  4  2  0
  6  5  1  0
  6  2  1  0
  7  6  2  0
  8  5  1  0
  9  8  1  0
 10  8  2  0
 11 10  1  0
 12 11  2  0
 12  4  1  0
  3 13  1  0
 10 14  1  0
 11 15  1  0
 12 16  1  0
M  END
>  <score>  (7) 
-7.135

$$$$
=
     RDKit          3D

 16 17  0  0  0  0  0  0  0  0999 V2000
   -0.3860   67.9770   65.7520 O   0  0  0  0  0  0  0  0  0  0  0  0
    0.7490   68.2960   65.4760 C   0  0  0  0  0  0  0  0  0  0  0  0
    1.3640   68.2570   64.2430 N   0  0  0  0  0  0  0  0  0  0  0  0
    2.6780   68.7070   64.3300 C   0  0  0  0  0  0  0  0  0  0  0  0
    3.0160   69.0730   65.6340 C   0  0  0  0  0  0  0  0  0  0  0  0
    1.8230   68.8410   66.4560 C   0  0  0  0  0  0  0  0  0  0  0  0
    1.6770   69.0250   67.6420 O   0  0  0  0  0  0  0  0  0  0  0  0
    4.2730   69.5470   65.9440 C   0  0  0  0  0  0  0  0  0  0  0  0
    4.7320   70.0100   67.5310 Cl  0  0  0  0  0  0  0  0  0  0  0  0
    5.2020   69.6510   64.9030 C   0  0  0  0  0  0  0  0  0  0  0  0
    4.8600   69.2800   63.5870 C   0  0  0  0  0  0  0  0  0  0  0  0
    3.5800   68.8010   63.2890 C   0  0  0  0  0  0  0  0  0  0  0  0
    0.9119   67.9378   63.3743 H   0  0  0  0  0  0  0  0  0  0  0  0
    6.2136   70.0276   65.1146 H   0  0  0  0  0  0  0  0  0  0  0  0
    5.6080   69.3681   62.7853 H   0  0  0  0  0  0  0  0  0  0  0  0
    3.3028   68.5105   62.2649 H   0  0  0  0  0  0  0  0  0  0  0  0
  2  1  2  0
  3  2  1  0
  4  3  1  0
  5  4  2  0
  6  5  1  0
  6  2  1  0
  7  6  2  0
  8  5  1  0
  9  8  1  0
 10  8  2  0
 11 10  1  0
 12 11  2  0
 12  4  1  0
  3 13  1  0
 10 14  1  0
 11 15  1  0
 12 16  1  0
M  END
>  <score>  (8) 
-7.1

$$$$
=
     RDKit          3D

 16 17  0  0  0  0  0  0  0  0999 V2000
    1.2990   68.2500   63.8550 O   0  0  0  0  0  0  0  0  0  0  0  0
    2.1890   68.6560   64.5670 C   0  0  0  0  0  0  0  0  0  0  0  0
    3.4940   68.9320   64.2200 N   0  0  0  0  0  0  0  0  0  0  0  0
    4.2160   69.3830   65.3200 C   0  0  0  0  0  0  0  0  0  0  0  0
    3.4290   69.4330   66.4720 C   0  0  0  0  0  0  0  0  0  0  0  0
    2.0890   68.9780   66.0830 C   0  0  0  0  0  0  0  0  0  0  0  0
    1.1010   68.8680   66.7710 O   0  0  0  0  0  0  0  0  0  0  0  0
    3.9470   69.8520   67.6790 C   0  0  0  0  0  0  0  0  0  0  0  0
    3.0170   69.9320   69.1180 Cl  0  0  0  0  0  0  0  0  0  0  0  0
    5.2950   70.2280   67.7110 C   0  0  0  0  0  0  0  0  0  0  0  0
    6.0880   70.1760   66.5470 C   0  0  0  0  0  0  0  0  0  0  0  0
    5.5470   69.7480   65.3300 C   0  0  0  0  0  0  0  0  0  0  0  0
    3.8826   68.8194   63.2728 H   0  0  0  0  0  0  0  0  0  0  0  0
    5.7412   70.5685   68.6570 H   0  0  0  0  0  0  0  0  0  0  0  0
    7.1453   70.4756   66.5961 H   0  0  0  0  0  0  0  0  0  0  0  0
    6.1585   69.7041   64.4167 H   0  0  0  0  0  0  0  0  0  0  0  0
  2  1  2  0
  3  2  1  0
  4  3  1  0
  5  4  2  0
  6  5  1  0
  6  2  1  0
  7  6  2  0
  8  5  1  0
  9  8  1  0
 10  8  2  0
 11 10  1  0
 12 11  2  0
 12  4  1  0
  3 13  1  0
 10 14  1  0
 11 15  1  0
 12 16  1  0
M  END
>  <score>  (9) 
-7.068

$$$$
