=
     RDKit          3D

116117  0  0  0  0  0  0  0  0999 V2000
    0.7280   66.4900   69.6370 C   0  0  0  0  0  0  0  0  0  0  0  0
    0.3420   65.7550   70.9250 C   0  0  0  0  0  0  0  0  0  0  0  0
    0.6430   64.2510   70.8750 C   0  0  0  0  0  0  0  0  0  0  0  0
    2.1210   63.9360   70.6230 C   0  0  0  0  0  0  0  0  0  0  0  0
    2.3600   62.4960   70.1510 C   0  0  0  0  0  0  0  0  0  0  0  0
    3.7700   62.0930   70.1660 N   0  0  0  0  0  0  0  0  0  0  0  0
    4.2360   60.8110   70.4170 C   0  0  0  0  0  0  0  0  0  0  0  0
    5.4190   60.5720   70.6670 O   0  0  0  0  0  0  0  0  0  0  0  0
    4.7520   63.1720   70.1840 C   0  0  0  0  0  0  0  0  0  0  0  0
    3.2750   59.6400   70.3030 C   0  0  0  0  0  0  0  0  0  0  0  0
    3.5490   58.5470   71.3380 C   0  0  0  0  0  0  0  0  0  0  0  0
    3.1990   58.9130   72.7890 C   0  0  0  0  0  0  0  0  0  0  0  0
    2.5850   57.7930   73.6390 C   0  0  0  0  0  0  0  0  0  0  0  0
    1.6440   56.8360   72.9100 C   0  0  0  0  0  0  0  0  0  0  0  0
    0.2440   56.8550   73.4690 N   0  0  1  0  0  4  0  0  0  0  0  0
   -0.2770   55.4970   73.8490 C   0  0  0  0  0  0  0  0  0  0  0  0
    0.1120   57.8510   74.6060 C   0  0  0  0  0  0  0  0  0  0  0  0
   -0.8050   59.0090   74.3020 C   0  0  0  0  0  0  0  0  0  0  0  0
   -0.3290   60.0810   73.5280 C   0  0  0  0  0  0  0  0  0  0  0  0
   -1.1640   61.1520   73.2160 C   0  0  0  0  0  0  0  0  0  0  0  0
   -2.4800   61.1610   73.6680 C   0  0  0  0  0  0  0  0  0  0  0  0
   -2.9700   60.0980   74.4310 C   0  0  0  0  0  0  0  0  0  0  0  0
   -2.1430   59.0170   74.7450 C   0  0  0  0  0  0  0  0  0  0  0  0
   -2.5230   57.9330   75.5010 O   0  0  0  0  0  0  0  0  0  0  0  0
   -3.2810   58.2130   76.6790 C   0  0  0  0  0  0  0  0  0  0  0  0
   -0.4680   66.8220   68.7360 C   0  0  0  0  0  0  0  0  0  0  0  0
   -0.0650   67.2760   67.3300 C   0  0  0  0  0  0  0  0  0  0  0  0
   -0.5920   68.6700   66.9660 C   0  0  0  0  0  0  0  0  0  0  0  0
   -0.7580   68.7650   64.4350 C   0  0  0  0  0  0  0  0  0  0  0  0
   -1.4340   68.7270   63.4000 O   0  0  0  0  0  0  0  0  0  0  0  0
   -1.3290   68.7200   65.6970 N   0  0  0  0  0  0  0  0  0  0  0  0
   -2.7720   68.5360   65.7850 C   0  0  0  0  0  0  0  0  0  0  0  0
    0.7410   68.9660   64.3020 C   0  0  0  0  0  0  0  0  0  0  0  0
    1.4050   67.8410   63.5010 C   0  0  0  0  0  0  0  0  0  0  0  0
    2.3550   66.9380   64.3060 C   0  0  0  0  0  0  0  0  0  0  0  0
    3.6930   66.6630   63.6170 C   0  0  0  0  0  0  0  0  0  0  0  0
    4.9260   67.1090   64.4080 C   0  0  0  0  0  0  0  0  0  0  0  0
    5.2380   68.5830   64.3460 N   0  0  1  0  0  4  0  0  0  0  0  0
    5.4480   69.1250   62.9610 C   0  0  0  0  0  0  0  0  0  0  0  0
    4.3280   69.4490   65.1910 C   0  0  0  0  0  0  0  0  0  0  0  0
    4.2230   70.0830   67.6490 C   0  0  0  0  0  0  0  0  0  0  0  0
    4.8550   70.5370   68.8100 C   0  0  0  0  0  0  0  0  0  0  0  0
    6.2210   70.8220   68.8050 C   0  0  0  0  0  0  0  0  0  0  0  0
    6.9680   70.6590   67.6440 C   0  0  0  0  0  0  0  0  0  0  0  0
    6.3500   70.2100   66.4780 C   0  0  0  0  0  0  0  0  0  0  0  0
    4.9740   69.9160   66.4690 C   0  0  0  0  0  0  0  0  0  0  0  0
    2.0430   70.2910   68.5910 C   0  0  0  0  0  0  0  0  0  0  0  0
    2.8860   69.8010   67.5480 O   0  0  0  0  0  0  0  0  0  0  0  0
    1.2288   67.4305   69.9103 H   0  0  0  0  0  0  0  0  0  0  0  0
    1.3840   65.8164   69.0661 H   0  0  0  0  0  0  0  0  0  0  0  0
    0.9036   66.1965   71.7614 H   0  0  0  0  0  0  0  0  0  0  0  0
   -0.7448   65.8672   71.0528 H   0  0  0  0  0  0  0  0  0  0  0  0
    0.3500   63.8043   71.8366 H   0  0  0  0  0  0  0  0  0  0  0  0
    0.0729   63.8328   70.0323 H   0  0  0  0  0  0  0  0  0  0  0  0
    2.4986   64.6238   69.8521 H   0  0  0  0  0  0  0  0  0  0  0  0
    2.6491   64.0582   71.5802 H   0  0  0  0  0  0  0  0  0  0  0  0
    1.7987   61.8176   70.8103 H   0  0  0  0  0  0  0  0  0  0  0  0
    2.0232   62.4423   69.1052 H   0  0  0  0  0  0  0  0  0  0  0  0
    4.9902   63.4337   71.2255 H   0  0  0  0  0  0  0  0  0  0  0  0
    5.6673   62.8434   69.6700 H   0  0  0  0  0  0  0  0  0  0  0  0
    4.3388   64.0524   69.6700 H   0  0  0  0  0  0  0  0  0  0  0  0
    2.2496   60.0113   70.4466 H   0  0  0  0  0  0  0  0  0  0  0  0
    3.4112   59.1948   69.3064 H   0  0  0  0  0  0  0  0  0  0  0  0
    2.9602   57.6604   71.0598 H   0  0  0  0  0  0  0  0  0  0  0  0
    4.6358   58.3779   71.3209 H   0  0  0  0  0  0  0  0  0  0  0  0
    4.1240   59.2424   73.2848 H   0  0  0  0  0  0  0  0  0  0  0  0
    2.4229   59.6894   72.7186 H   0  0  0  0  0  0  0  0  0  0  0  0
    3.4100   57.1987   74.0587 H   0  0  0  0  0  0  0  0  0  0  0  0
    1.9651   58.3000   74.3931 H   0  0  0  0  0  0  0  0  0  0  0  0
    1.6028   57.1236   71.8491 H   0  0  0  0  0  0  0  0  0  0  0  0
    2.0395   55.8180   73.0416 H   0  0  0  0  0  0  0  0  0  0  0  0
   -0.3607   57.1720   72.6978 H   0  0  0  0  0  0  0  0  0  0  0  0
   -0.3102   55.4105   74.9451 H   0  0  0  0  0  0  0  0  0  0  0  0
   -1.2896   55.3651   73.4400 H   0  0  0  0  0  0  0  0  0  0  0  0
    0.3875   54.7217   73.4400 H   0  0  0  0  0  0  0  0  0  0  0  0
   -0.2799   57.3210   75.4866 H   0  0  0  0  0  0  0  0  0  0  0  0
    1.1130   58.2735   74.7775 H   0  0  0  0  0  0  0  0  0  0  0  0
    0.7097   60.0746   73.1660 H   0  0  0  0  0  0  0  0  0  0  0  0
   -0.7832   61.9895   72.6130 H   0  0  0  0  0  0  0  0  0  0  0  0
   -3.1373   62.0085   73.4236 H   0  0  0  0  0  0  0  0  0  0  0  0
   -4.0111   60.1125   74.7858 H   0  0  0  0  0  0  0  0  0  0  0  0
   -2.6733   57.9885   77.5680 H   0  0  0  0  0  0  0  0  0  0  0  0
   -3.5655   59.2755   76.6880 H   0  0  0  0  0  0  0  0  0  0  0  0
   -4.1879   57.5905   76.6880 H   0  0  0  0  0  0  0  0  0  0  0  0
   -1.0958   65.9233   68.6453 H   0  0  0  0  0  0  0  0  0  0  0  0
   -1.0046   67.6596   69.2055 H   0  0  0  0  0  0  0  0  0  0  0  0
    1.0332   67.2917   67.2700 H   0  0  0  0  0  0  0  0  0  0  0  0
   -0.5099   66.5645   66.6188 H   0  0  0  0  0  0  0  0  0  0  0  0
   -1.2643   69.0057   67.7693 H   0  0  0  0  0  0  0  0  0  0  0  0
    0.2872   69.3205   66.8480 H   0  0  0  0  0  0  0  0  0  0  0  0
   -3.0729   68.4976   66.8423 H   0  0  0  0  0  0  0  0  0  0  0  0
   -3.2797   69.3767   65.2895 H   0  0  0  0  0  0  0  0  0  0  0  0
   -3.0525   67.5948   65.2895 H   0  0  0  0  0  0  0  0  0  0  0  0
    0.9266   69.9223   63.7911 H   0  0  0  0  0  0  0  0  0  0  0  0
    1.1741   68.9628   65.3132 H   0  0  0  0  0  0  0  0  0  0  0  0
    0.6101   67.2085   63.0790 H   0  0  0  0  0  0  0  0  0  0  0  0
    2.0252   68.3339   62.7379 H   0  0  0  0  0  0  0  0  0  0  0  0
    2.5578   67.4245   65.2715 H   0  0  0  0  0  0  0  0  0  0  0  0
    1.8505   65.9667   64.4157 H   0  0  0  0  0  0  0  0  0  0  0  0
    3.7718   65.5798   63.4424 H   0  0  0  0  0  0  0  0  0  0  0  0
    3.6904   67.2531   62.6887 H   0  0  0  0  0  0  0  0  0  0  0  0
    4.7677   66.8401   65.4628 H   0  0  0  0  0  0  0  0  0  0  0  0
    5.7833   66.5988   63.9446 H   0  0  0  0  0  0  0  0  0  0  0  0
    6.1637   68.6449   64.7933 H   0  0  0  0  0  0  0  0  0  0  0  0
    5.8448   70.1490   63.0242 H   0  0  0  0  0  0  0  0  0  0  0  0
    6.1640   68.4870   62.4222 H   0  0  0  0  0  0  0  0  0  0  0  0
    4.4890   69.1359   62.4222 H   0  0  0  0  0  0  0  0  0  0  0  0
    4.0393   70.3320   64.6020 H   0  0  0  0  0  0  0  0  0  0  0  0
    3.4579   68.8360   65.4689 H   0  0  0  0  0  0  0  0  0  0  0  0
    4.2721   70.6705   69.7333 H   0  0  0  0  0  0  0  0  0  0  0  0
    6.7092   71.1774   69.7244 H   0  0  0  0  0  0  0  0  0  0  0  0
    8.0448   70.8839   67.6454 H   0  0  0  0  0  0  0  0  0  0  0  0
    6.9417   70.0847   65.5592 H   0  0  0  0  0  0  0  0  0  0  0  0
    2.4815   70.0361   69.5671 H   0  0  0  0  0  0  0  0  0  0  0  0
    1.9504   71.3837   68.5047 H   0  0  0  0  0  0  0  0  0  0  0  0
    1.0477   69.8307   68.5047 H   0  0  0  0  0  0  0  0  0  0  0  0
  2  1  1  0
  3  2  1  0
  4  3  1  0
  5  4  1  0
  6  5  1  0
  7  6  1  0
  8  7  2  0
  9  6  1  0
 10  7  1  0
 11 10  1  0
 12 11  1  0
 13 12  1  0
 14 13  1  0
 15 14  1  0
 16 15  1  0
 17 15  1  0
 18 17  1  0
 19 18  2  0
 20 19  1  0
 21 20  2  0
 22 21  1  0
 23 18  1  0
 23 22  2  0
 24 23  1  0
 25 24  1  0
 26  1  1  0
 27 26  1  0
 28 27  1  0
 30 29  2  0
 31 29  1  0
 31 28  1  0
 32 31  1  0
 33 29  1  0
 34 33  1  0
 35 34  1  0
 36 35  1  0
 37 36  1  0
 38 37  1  0
 39 38  1  0
 40 38  1  0
 42 41  2  0
 43 42  1  0
 44 43  2  0
 45 44  1  0
 46 40  1  0
 46 41  1  0
 46 45  2  0
 48 47  1  0
 48 41  1  0
  1 49  1  0
  1 50  1  0
  2 51  1  0
  2 52  1  0
  3 53  1  0
  3 54  1  0
  4 55  1  0
  4 56  1  0
  5 57  1  0
  5 58  1  0
  9 59  1  0
  9 60  1  0
  9 61  1  0
 10 62  1  0
 10 63  1  0
 11 64  1  0
 11 65  1  0
 12 66  1  0
 12 67  1  0
 13 68  1  0
 13 69  1  0
 14 70  1  0
 14 71  1  0
 15 72  1  6
 16 73  1  0
 16 74  1  0
 16 75  1  0
 17 76  1  0
 17 77  1  0
 19 78  1  0
 20 79  1  0
 21 80  1  0
 22 81  1  0
 25 82  1  0
 25 83  1  0
 25 84  1  0
 26 85  1  0
 26 86  1  0
 27 87  1  0
 27 88  1  0
 28 89  1  0
 28 90  1  0
 32 91  1  0
 32 92  1  0
 32 93  1  0
 33 94  1  0
 33 95  1  0
 34 96  1  0
 34 97  1  0
 35 98  1  0
 35 99  1  0
 36100  1  0
 36101  1  0
 37102  1  0
 37103  1  0
 38104  1  1
 39105  1  0
 39106  1  0
 39107  1  0
 40108  1  0
 40109  1  0
 42110  1  0
 43111  1  0
 44112  1  0
 45113  1  0
 47114  1  0
 47115  1  0
 47116  1  0
M  CHG  2  15   1  38   1
M  END
>  <score>  (1) 
-9.001

$$$$
=
     RDKit          3D

116117  0  0  0  0  0  0  0  0999 V2000
    0.0590   66.2470   70.2920 C   0  0  0  0  0  0  0  0  0  0  0  0
    0.7300   64.9160   70.6420 C   0  0  0  0  0  0  0  0  0  0  0  0
    2.2070   64.8570   70.2290 C   0  0  0  0  0  0  0  0  0  0  0  0
    2.9870   63.7340   70.9210 C   0  0  0  0  0  0  0  0  0  0  0  0
    2.2530   62.3870   70.9010 C   0  0  0  0  0  0  0  0  0  0  0  0
    3.0410   61.2910   70.3270 N   0  0  0  0  0  0  0  0  0  0  0  0
    3.1810   60.0280   70.8810 C   0  0  0  0  0  0  0  0  0  0  0  0
    4.0410   59.2290   70.5050 O   0  0  0  0  0  0  0  0  0  0  0  0
    3.9510   61.6460   69.2440 C   0  0  0  0  0  0  0  0  0  0  0  0
    2.1880   59.5690   71.9360 C   0  0  0  0  0  0  0  0  0  0  0  0
    2.6690   58.3360   72.7040 C   0  0  0  0  0  0  0  0  0  0  0  0
    1.8050   57.0770   72.5340 C   0  0  0  0  0  0  0  0  0  0  0  0
    1.5630   56.2460   73.8010 C   0  0  0  0  0  0  0  0  0  0  0  0
    0.9310   56.9860   74.9780 C   0  0  0  0  0  0  0  0  0  0  0  0
   -0.5190   57.3250   74.7440 N   0  0  1  0  0  4  0  0  0  0  0  0
   -1.4590   56.1810   75.0000 C   0  0  0  0  0  0  0  0  0  0  0  0
   -0.9280   58.5750   75.5000 C   0  0  0  0  0  0  0  0  0  0  0  0
   -0.6040   59.8590   74.7800 C   0  0  0  0  0  0  0  0  0  0  0  0
   -1.3800   60.2450   73.6730 C   0  0  0  0  0  0  0  0  0  0  0  0
   -1.1120   61.4380   73.0050 C   0  0  0  0  0  0  0  0  0  0  0  0
   -0.0730   62.2570   73.4350 C   0  0  0  0  0  0  0  0  0  0  0  0
    0.7020   61.8910   74.5390 C   0  0  0  0  0  0  0  0  0  0  0  0
    0.4390   60.7000   75.2200 C   0  0  0  0  0  0  0  0  0  0  0  0
    1.1510   60.2430   76.3040 O   0  0  0  0  0  0  0  0  0  0  0  0
    1.6490   61.2360   77.2030 C   0  0  0  0  0  0  0  0  0  0  0  0
    0.6130   66.9000   69.0200 C   0  0  0  0  0  0  0  0  0  0  0  0
   -0.4150   67.0040   67.8900 C   0  0  0  0  0  0  0  0  0  0  0  0
   -0.4570   68.3890   67.2300 C   0  0  0  0  0  0  0  0  0  0  0  0
   -1.0750   68.7170   64.7900 C   0  0  0  0  0  0  0  0  0  0  0  0
   -1.9200   68.7180   63.8860 O   0  0  0  0  0  0  0  0  0  0  0  0
   -1.4090   68.4950   66.1170 N   0  0  0  0  0  0  0  0  0  0  0  0
   -2.7950   68.1680   66.4250 C   0  0  0  0  0  0  0  0  0  0  0  0
    0.3570   69.0700   64.4300 C   0  0  0  0  0  0  0  0  0  0  0  0
    0.8880   68.2190   63.2730 C   0  0  0  0  0  0  0  0  0  0  0  0
    1.7320   68.9790   62.2370 C   0  0  0  0  0  0  0  0  0  0  0  0
    3.1530   68.4350   62.0640 C   0  0  0  0  0  0  0  0  0  0  0  0
    4.2010   69.0790   62.9740 C   0  0  0  0  0  0  0  0  0  0  0  0
    4.3890   68.4180   64.3170 N   0  0  1  0  0  4  0  0  0  0  0  0
    4.7240   66.9560   64.2570 C   0  0  0  0  0  0  0  0  0  0  0  0
    5.2720   69.1920   65.2730 C   0  0  0  0  0  0  0  0  0  0  0  0
    5.2640   70.1640   67.6210 C   0  0  0  0  0  0  0  0  0  0  0  0
    4.5730   70.5100   68.7850 C   0  0  0  0  0  0  0  0  0  0  0  0
    3.1960   70.3000   68.8780 C   0  0  0  0  0  0  0  0  0  0  0  0
    2.4980   69.7420   67.8130 C   0  0  0  0  0  0  0  0  0  0  0  0
    3.1750   69.3900   66.6470 C   0  0  0  0  0  0  0  0  0  0  0  0
    4.5630   69.5980   66.5380 C   0  0  0  0  0  0  0  0  0  0  0  0
    7.3240   71.0310   68.4510 C   0  0  0  0  0  0  0  0  0  0  0  0
    6.6150   70.3080   67.4440 O   0  0  0  0  0  0  0  0  0  0  0  0
   -1.0168   66.0669   70.1498 H   0  0  0  0  0  0  0  0  0  0  0  0
    0.2622   66.9382   71.1233 H   0  0  0  0  0  0  0  0  0  0  0  0
    0.6649   64.7670   71.7299 H   0  0  0  0  0  0  0  0  0  0  0  0
    0.2028   64.1275   70.0849 H   0  0  0  0  0  0  0  0  0  0  0  0
    2.2592   64.6992   69.1416 H   0  0  0  0  0  0  0  0  0  0  0  0
    2.6679   65.8083   70.5332 H   0  0  0  0  0  0  0  0  0  0  0  0
    3.9534   63.6131   70.4097 H   0  0  0  0  0  0  0  0  0  0  0  0
    3.1105   64.0233   71.9751 H   0  0  0  0  0  0  0  0  0  0  0  0
    1.9899   62.1202   71.9352 H   0  0  0  0  0  0  0  0  0  0  0  0
    1.3678   62.5144   70.2605 H   0  0  0  0  0  0  0  0  0  0  0  0
    4.8972   62.0151   69.6663 H   0  0  0  0  0  0  0  0  0  0  0  0
    4.1475   60.7586   68.6244 H   0  0  0  0  0  0  0  0  0  0  0  0
    3.4946   62.4320   68.6244 H   0  0  0  0  0  0  0  0  0  0  0  0
    2.0303   60.3896   72.6513 H   0  0  0  0  0  0  0  0  0  0  0  0
    1.2567   59.2953   71.4185 H   0  0  0  0  0  0  0  0  0  0  0  0
    3.6869   58.0982   72.3614 H   0  0  0  0  0  0  0  0  0  0  0  0
    2.6129   58.6012   73.7701 H   0  0  0  0  0  0  0  0  0  0  0  0
    0.8248   57.3923   72.1470 H   0  0  0  0  0  0  0  0  0  0  0  0
    2.3700   56.4214   71.8551 H   0  0  0  0  0  0  0  0  0  0  0  0
    0.8993   55.4105   73.5335 H   0  0  0  0  0  0  0  0  0  0  0  0
    2.5603   55.9366   74.1470 H   0  0  0  0  0  0  0  0  0  0  0  0
    1.0033   56.3501   75.8727 H   0  0  0  0  0  0  0  0  0  0  0  0
    1.4762   57.9329   75.1053 H   0  0  0  0  0  0  0  0  0  0  0  0
   -0.6006   57.5234   73.7366 H   0  0  0  0  0  0  0  0  0  0  0  0
   -1.5762   56.0384   76.0844 H   0  0  0  0  0  0  0  0  0  0  0  0
   -2.4384   56.4038   74.5515 H   0  0  0  0  0  0  0  0  0  0  0  0
   -1.0505   55.2634   74.5515 H   0  0  0  0  0  0  0  0  0  0  0  0
   -2.0143   58.5375   75.6689 H   0  0  0  0  0  0  0  0  0  0  0  0
   -0.3541   58.5821   76.4384 H   0  0  0  0  0  0  0  0  0  0  0  0
   -2.2040   59.6010   73.3321 H   0  0  0  0  0  0  0  0  0  0  0  0
   -1.7217   61.7321   72.1380 H   0  0  0  0  0  0  0  0  0  0  0  0
    0.1395   63.1966   72.9039 H   0  0  0  0  0  0  0  0  0  0  0  0
    1.5223   62.5434   74.8730 H   0  0  0  0  0  0  0  0  0  0  0  0
    1.4843   60.9076   78.2398 H   0  0  0  0  0  0  0  0  0  0  0  0
    2.7259   61.3797   77.0306 H   0  0  0  0  0  0  0  0  0  0  0  0
    1.1202   62.1850   77.0306 H   0  0  0  0  0  0  0  0  0  0  0  0
    0.9584   67.9138   69.2710 H   0  0  0  0  0  0  0  0  0  0  0  0
    1.4299   66.2593   68.6566 H   0  0  0  0  0  0  0  0  0  0  0  0
   -0.1643   66.2586   67.1208 H   0  0  0  0  0  0  0  0  0  0  0  0
   -1.4053   66.8258   68.3344 H   0  0  0  0  0  0  0  0  0  0  0  0
   -0.7369   69.1279   67.9953 H   0  0  0  0  0  0  0  0  0  0  0  0
    0.5433   68.5701   66.8097 H   0  0  0  0  0  0  0  0  0  0  0  0
   -2.9304   68.1361   67.5162 H   0  0  0  0  0  0  0  0  0  0  0  0
   -3.4567   68.9347   65.9957 H   0  0  0  0  0  0  0  0  0  0  0  0
   -3.0443   67.1864   65.9957 H   0  0  0  0  0  0  0  0  0  0  0  0
    0.3982   70.1299   64.1385 H   0  0  0  0  0  0  0  0  0  0  0  0
    0.9856   68.8729   65.3110 H   0  0  0  0  0  0  0  0  0  0  0  0
    1.5104   67.4175   63.6974 H   0  0  0  0  0  0  0  0  0  0  0  0
    0.0032   67.8487   62.7345 H   0  0  0  0  0  0  0  0  0  0  0  0
    1.2198   68.9210   61.2653 H   0  0  0  0  0  0  0  0  0  0  0  0
    1.8312   70.0106   62.6056 H   0  0  0  0  0  0  0  0  0  0  0  0
    3.1342   67.3554   62.2741 H   0  0  0  0  0  0  0  0  0  0  0  0
    3.4517   68.6708   61.0319 H   0  0  0  0  0  0  0  0  0  0  0  0
    5.1665   69.0572   62.4474 H   0  0  0  0  0  0  0  0  0  0  0  0
    3.8343   70.0943   63.1857 H   0  0  0  0  0  0  0  0  0  0  0  0
    3.4462   68.4521   64.7303 H   0  0  0  0  0  0  0  0  0  0  0  0
    4.8151   66.5585   65.2786 H   0  0  0  0  0  0  0  0  0  0  0  0
    3.9257   66.4185   63.7242 H   0  0  0  0  0  0  0  0  0  0  0  0
    5.6767   66.8197   63.7242 H   0  0  0  0  0  0  0  0  0  0  0  0
    6.1330   68.5623   65.5414 H   0  0  0  0  0  0  0  0  0  0  0  0
    5.5795   70.1150   64.7597 H   0  0  0  0  0  0  0  0  0  0  0  0
    5.1173   70.9506   69.6333 H   0  0  0  0  0  0  0  0  0  0  0  0
    2.6608   70.5773   69.7981 H   0  0  0  0  0  0  0  0  0  0  0  0
    1.4130   69.5786   67.8907 H   0  0  0  0  0  0  0  0  0  0  0  0
    2.6212   68.9467   65.8063 H   0  0  0  0  0  0  0  0  0  0  0  0
    6.9940   70.6945   69.4449 H   0  0  0  0  0  0  0  0  0  0  0  0
    8.4033   70.8489   68.3419 H   0  0  0  0  0  0  0  0  0  0  0  0
    7.1208   72.1065   68.3419 H   0  0  0  0  0  0  0  0  0  0  0  0
  2  1  1  0
  3  2  1  0
  4  3  1  0
  5  4  1  0
  6  5  1  0
  7  6  1  0
  8  7  2  0
  9  6  1  0
 10  7  1  0
 11 10  1  0
 12 11  1  0
 13 12  1  0
 14 13  1  0
 15 14  1  0
 16 15  1  0
 17 15  1  0
 18 17  1  0
 19 18  2  0
 20 19  1  0
 21 20  2  0
 22 21  1  0
 23 18  1  0
 23 22  2  0
 24 23  1  0
 25 24  1  0
 26  1  1  0
 27 26  1  0
 28 27  1  0
 30 29  2  0
 31 29  1  0
 31 28  1  0
 32 31  1  0
 33 29  1  0
 34 33  1  0
 35 34  1  0
 36 35  1  0
 37 36  1  0
 38 37  1  0
 39 38  1  0
 40 38  1  0
 42 41  2  0
 43 42  1  0
 44 43  2  0
 45 44  1  0
 46 40  1  0
 46 41  1  0
 46 45  2  0
 48 47  1  0
 48 41  1  0
  1 49  1  0
  1 50  1  0
  2 51  1  0
  2 52  1  0
  3 53  1  0
  3 54  1  0
  4 55  1  0
  4 56  1  0
  5 57  1  0
  5 58  1  0
  9 59  1  0
  9 60  1  0
  9 61  1  0
 10 62  1  0
 10 63  1  0
 11 64  1  0
 11 65  1  0
 12 66  1  0
 12 67  1  0
 13 68  1  0
 13 69  1  0
 14 70  1  0
 14 71  1  0
 15 72  1  6
 16 73  1  0
 16 74  1  0
 16 75  1  0
 17 76  1  0
 17 77  1  0
 19 78  1  0
 20 79  1  0
 21 80  1  0
 22 81  1  0
 25 82  1  0
 25 83  1  0
 25 84  1  0
 26 85  1  0
 26 86  1  0
 27 87  1  0
 27 88  1  0
 28 89  1  0
 28 90  1  0
 32 91  1  0
 32 92  1  0
 32 93  1  0
 33 94  1  0
 33 95  1  0
 34 96  1  0
 34 97  1  0
 35 98  1  0
 35 99  1  0
 36100  1  0
 36101  1  0
 37102  1  0
 37103  1  0
 38104  1  1
 39105  1  0
 39106  1  0
 39107  1  0
 40108  1  0
 40109  1  0
 42110  1  0
 43111  1  0
 44112  1  0
 45113  1  0
 47114  1  0
 47115  1  0
 47116  1  0
M  CHG  2  15   1  38   1
M  END
>  <score>  (2) 
-8.8

$$$$
=
     RDKit          3D

116117  0  0  0  0  0  0  0  0999 V2000
    4.9250   61.9650   71.7530 C   0  0  0  0  0  0  0  0  0  0  0  0
    5.2400   60.5280   71.3260 C   0  0  0  0  0  0  0  0  0  0  0  0
    4.0330   59.8020   70.7150 C   0  0  0  0  0  0  0  0  0  0  0  0
    2.8640   59.6390   71.6910 C   0  0  0  0  0  0  0  0  0  0  0  0
    2.7970   58.2450   72.3280 C   0  0  0  0  0  0  0  0  0  0  0  0
    2.8330   58.2600   73.7940 N   0  0  0  0  0  0  0  0  0  0  0  0
    2.2470   57.3130   74.6200 C   0  0  0  0  0  0  0  0  0  0  0  0
    2.0860   57.4950   75.8290 O   0  0  0  0  0  0  0  0  0  0  0  0
    3.2850   59.4980   74.4180 C   0  0  0  0  0  0  0  0  0  0  0  0
    1.8590   55.9640   74.0400 C   0  0  0  0  0  0  0  0  0  0  0  0
    0.3530   55.7020   74.1080 C   0  0  0  0  0  0  0  0  0  0  0  0
   -0.1060   54.7930   75.2590 C   0  0  0  0  0  0  0  0  0  0  0  0
   -1.5620   54.9570   75.7120 C   0  0  0  0  0  0  0  0  0  0  0  0
   -2.3890   55.9920   74.9520 C   0  0  0  0  0  0  0  0  0  0  0  0
   -2.8710   57.1160   75.8330 N   0  0  1  0  0  4  0  0  0  0  0  0
   -3.5300   56.6520   77.1020 C   0  0  0  0  0  0  0  0  0  0  0  0
   -1.7700   58.1240   76.1030 C   0  0  0  0  0  0  0  0  0  0  0  0
   -1.6820   59.2230   75.0740 C   0  0  0  0  0  0  0  0  0  0  0  0
   -0.5490   59.3060   74.2460 C   0  0  0  0  0  0  0  0  0  0  0  0
   -0.4560   60.3000   73.2750 C   0  0  0  0  0  0  0  0  0  0  0  0
   -1.4900   61.2160   73.1170 C   0  0  0  0  0  0  0  0  0  0  0  0
   -2.6270   61.1420   73.9260 C   0  0  0  0  0  0  0  0  0  0  0  0
   -2.7340   60.1460   74.8990 C   0  0  0  0  0  0  0  0  0  0  0  0
   -3.8000   59.9970   75.7550 O   0  0  0  0  0  0  0  0  0  0  0  0
   -5.0890   59.8720   75.1510 C   0  0  0  0  0  0  0  0  0  0  0  0
    4.7880   62.9400   70.5780 C   0  0  0  0  0  0  0  0  0  0  0  0
    3.4260   63.6380   70.5200 C   0  0  0  0  0  0  0  0  0  0  0  0
    2.2850   62.7960   71.1090 C   0  0  0  0  0  0  0  0  0  0  0  0
    0.3840   64.2760   71.9090 C   0  0  0  0  0  0  0  0  0  0  0  0
   -0.2810   64.7680   72.8280 O   0  0  0  0  0  0  0  0  0  0  0  0
    1.5010   63.4880   72.1400 N   0  0  0  0  0  0  0  0  0  0  0  0
    1.8350   63.1700   73.5230 C   0  0  0  0  0  0  0  0  0  0  0  0
    0.0090   64.6370   70.4830 C   0  0  0  0  0  0  0  0  0  0  0  0
    0.2700   66.1150   70.1740 C   0  0  0  0  0  0  0  0  0  0  0  0
   -0.4100   66.6460   68.9010 C   0  0  0  0  0  0  0  0  0  0  0  0
    0.4390   67.6390   68.1040 C   0  0  0  0  0  0  0  0  0  0  0  0
    0.3690   67.4670   66.5840 C   0  0  0  0  0  0  0  0  0  0  0  0
    1.6960   67.4790   65.8680 N   0  0  1  0  0  4  0  0  0  0  0  0
    1.8940   66.3570   64.8900 C   0  0  0  0  0  0  0  0  0  0  0  0
    2.0890   68.8310   65.3100 C   0  0  0  0  0  0  0  0  0  0  0  0
    4.5440   69.3810   64.9530 C   0  0  0  0  0  0  0  0  0  0  0  0
    5.7740   69.8130   65.4580 C   0  0  0  0  0  0  0  0  0  0  0  0
    5.8970   70.1770   66.8000 C   0  0  0  0  0  0  0  0  0  0  0  0
    4.7980   70.1110   67.6490 C   0  0  0  0  0  0  0  0  0  0  0  0
    3.5670   69.6790   67.1590 C   0  0  0  0  0  0  0  0  0  0  0  0
    3.4270   69.3110   65.8080 C   0  0  0  0  0  0  0  0  0  0  0  0
    5.4520   69.0170   62.7790 C   0  0  0  0  0  0  0  0  0  0  0  0
    4.3300   68.9790   63.6600 O   0  0  0  0  0  0  0  0  0  0  0  0
    3.9786   61.9613   72.3136 H   0  0  0  0  0  0  0  0  0  0  0  0
    5.7720   62.3126   72.3627 H   0  0  0  0  0  0  0  0  0  0  0  0
    6.0475   60.5538   70.5795 H   0  0  0  0  0  0  0  0  0  0  0  0
    5.5321   59.9741   72.2303 H   0  0  0  0  0  0  0  0  0  0  0  0
    3.6835   60.3775   69.8452 H   0  0  0  0  0  0  0  0  0  0  0  0
    4.3679   58.7917   70.4374 H   0  0  0  0  0  0  0  0  0  0  0  0
    2.9715   60.3846   72.4926 H   0  0  0  0  0  0  0  0  0  0  0  0
    1.9368   59.7801   71.1162 H   0  0  0  0  0  0  0  0  0  0  0  0
    1.8610   57.7631   72.0093 H   0  0  0  0  0  0  0  0  0  0  0  0
    3.6895   57.6968   71.9920 H   0  0  0  0  0  0  0  0  0  0  0  0
    3.2464   59.3924   75.5122 H   0  0  0  0  0  0  0  0  0  0  0  0
    4.3184   59.7097   74.1062 H   0  0  0  0  0  0  0  0  0  0  0  0
    2.6311   60.3258   74.1062 H   0  0  0  0  0  0  0  0  0  0  0  0
    2.1747   55.9300   72.9868 H   0  0  0  0  0  0  0  0  0  0  0  0
    2.3581   55.1889   74.6401 H   0  0  0  0  0  0  0  0  0  0  0  0
   -0.1556   56.6712   74.2173 H   0  0  0  0  0  0  0  0  0  0  0  0
    0.0954   55.1702   73.1802 H   0  0  0  0  0  0  0  0  0  0  0  0
    0.0300   53.7499   74.9375 H   0  0  0  0  0  0  0  0  0  0  0  0
    0.5063   55.0833   76.1255 H   0  0  0  0  0  0  0  0  0  0  0  0
   -2.0600   53.9824   75.6023 H   0  0  0  0  0  0  0  0  0  0  0  0
   -1.5099   55.3229   76.7480 H   0  0  0  0  0  0  0  0  0  0  0  0
   -1.7688   56.4163   74.1487 H   0  0  0  0  0  0  0  0  0  0  0  0
   -3.2770   55.4790   74.5542 H   0  0  0  0  0  0  0  0  0  0  0  0
   -3.6121   57.5918   75.2989 H   0  0  0  0  0  0  0  0  0  0  0  0
   -2.9749   57.0428   77.9675 H   0  0  0  0  0  0  0  0  0  0  0  0
   -4.5657   57.0212   77.1335 H   0  0  0  0  0  0  0  0  0  0  0  0
   -3.5316   55.5525   77.1335 H   0  0  0  0  0  0  0  0  0  0  0  0
   -1.9542   58.5833   77.0854 H   0  0  0  0  0  0  0  0  0  0  0  0
   -0.8178   57.5745   76.0656 H   0  0  0  0  0  0  0  0  0  0  0  0
    0.2696   58.5810   74.3658 H   0  0  0  0  0  0  0  0  0  0  0  0
    0.4353   60.3604   72.6332 H   0  0  0  0  0  0  0  0  0  0  0  0
   -1.4127   62.0024   72.3518 H   0  0  0  0  0  0  0  0  0  0  0  0
   -3.4406   61.8708   73.7960 H   0  0  0  0  0  0  0  0  0  0  0  0
   -5.8561   59.7976   75.9359 H   0  0  0  0  0  0  0  0  0  0  0  0
   -5.2883   60.7550   74.5261 H   0  0  0  0  0  0  0  0  0  0  0  0
   -5.1149   58.9671   74.5261 H   0  0  0  0  0  0  0  0  0  0  0  0
    5.5696   63.7085   70.6701 H   0  0  0  0  0  0  0  0  0  0  0  0
    4.8896   62.3508   69.6547 H   0  0  0  0  0  0  0  0  0  0  0  0
    3.4922   64.5796   71.0848 H   0  0  0  0  0  0  0  0  0  0  0  0
    3.1916   63.8061   69.4585 H   0  0  0  0  0  0  0  0  0  0  0  0
    1.6065   62.5128   70.2908 H   0  0  0  0  0  0  0  0  0  0  0  0
    2.7505   61.9257   71.5947 H   0  0  0  0  0  0  0  0  0  0  0  0
    1.2065   63.7684   74.1989 H   0  0  0  0  0  0  0  0  0  0  0  0
    1.6560   62.1003   73.7068 H   0  0  0  0  0  0  0  0  0  0  0  0
    2.8946   63.4013   73.7068 H   0  0  0  0  0  0  0  0  0  0  0  0
    0.6036   64.0202   69.7931 H   0  0  0  0  0  0  0  0  0  0  0  0
   -1.0679   64.4504   70.3588 H   0  0  0  0  0  0  0  0  0  0  0  0
   -0.0904   66.7099   71.0262 H   0  0  0  0  0  0  0  0  0  0  0  0
    1.3529   66.2053   70.0029 H   0  0  0  0  0  0  0  0  0  0  0  0
   -0.6410   65.7896   68.2504 H   0  0  0  0  0  0  0  0  0  0  0  0
   -1.3097   67.1890   69.2262 H   0  0  0  0  0  0  0  0  0  0  0  0
    0.0978   68.6555   68.3496 H   0  0  0  0  0  0  0  0  0  0  0  0
    1.4847   67.4519   68.3894 H   0  0  0  0  0  0  0  0  0  0  0  0
   -0.1208   66.5047   66.3739 H   0  0  0  0  0  0  0  0  0  0  0  0
   -0.1860   68.3385   66.2065 H   0  0  0  0  0  0  0  0  0  0  0  0
    2.3718   67.2888   66.6216 H   0  0  0  0  0  0  0  0  0  0  0  0
    2.0597   65.4178   65.4381 H   0  0  0  0  0  0  0  0  0  0  0  0
    0.9992   66.2595   64.2577 H   0  0  0  0  0  0  0  0  0  0  0  0
    2.7681   66.5717   64.2577 H   0  0  0  0  0  0  0  0  0  0  0  0
    2.1295   68.7584   64.2131 H   0  0  0  0  0  0  0  0  0  0  0  0
    1.3344   69.5565   65.6479 H   0  0  0  0  0  0  0  0  0  0  0  0
    6.6496   69.8664   64.7943 H   0  0  0  0  0  0  0  0  0  0  0  0
    6.8684   70.5178   67.1877 H   0  0  0  0  0  0  0  0  0  0  0  0
    4.9000   70.3993   68.7056 H   0  0  0  0  0  0  0  0  0  0  0  0
    2.6991   69.6253   67.8327 H   0  0  0  0  0  0  0  0  0  0  0  0
    6.3802   69.0484   63.3685 H   0  0  0  0  0  0  0  0  0  0  0  0
    5.4507   68.1183   62.1447 H   0  0  0  0  0  0  0  0  0  0  0  0
    5.3899   69.9136   62.1447 H   0  0  0  0  0  0  0  0  0  0  0  0
  2  1  1  0
  3  2  1  0
  4  3  1  0
  5  4  1  0
  6  5  1  0
  7  6  1  0
  8  7  2  0
  9  6  1  0
 10  7  1  0
 11 10  1  0
 12 11  1  0
 13 12  1  0
 14 13  1  0
 15 14  1  0
 16 15  1  0
 17 15  1  0
 18 17  1  0
 19 18  2  0
 20 19  1  0
 21 20  2  0
 22 21  1  0
 23 18  1  0
 23 22  2  0
 24 23  1  0
 25 24  1  0
 26  1  1  0
 27 26  1  0
 28 27  1  0
 30 29  2  0
 31 29  1  0
 31 28  1  0
 32 31  1  0
 33 29  1  0
 34 33  1  0
 35 34  1  0
 36 35  1  0
 37 36  1  0
 38 37  1  0
 39 38  1  0
 40 38  1  0
 42 41  2  0
 43 42  1  0
 44 43  2  0
 45 44  1  0
 46 40  1  0
 46 41  1  0
 46 45  2  0
 48 47  1  0
 48 41  1  0
  1 49  1  0
  1 50  1  0
  2 51  1  0
  2 52  1  0
  3 53  1  0
  3 54  1  0
  4 55  1  0
  4 56  1  0
  5 57  1  0
  5 58  1  0
  9 59  1  0
  9 60  1  0
  9 61  1  0
 10 62  1  0
 10 63  1  0
 11 64  1  0
 11 65  1  0
 12 66  1  0
 12 67  1  0
 13 68  1  0
 13 69  1  0
 14 70  1  0
 14 71  1  0
 15 72  1  6
 16 73  1  0
 16 74  1  0
 16 75  1  0
 17 76  1  0
 17 77  1  0
 19 78  1  0
 20 79  1  0
 21 80  1  0
 22 81  1  0
 25 82  1  0
 25 83  1  0
 25 84  1  0
 26 85  1  0
 26 86  1  0
 27 87  1  0
 27 88  1  0
 28 89  1  0
 28 90  1  0
 32 91  1  0
 32 92  1  0
 32 93  1  0
 33 94  1  0
 33 95  1  0
 34 96  1  0
 34 97  1  0
 35 98  1  0
 35 99  1  0
 36100  1  0
 36101  1  0
 37102  1  0
 37103  1  0
 38104  1  1
 39105  1  0
 39106  1  0
 39107  1  0
 40108  1  0
 40109  1  0
 42110  1  0
 43111  1  0
 44112  1  0
 45113  1  0
 47114  1  0
 47115  1  0
 47116  1  0
M  CHG  2  15   1  38   1
M  END
>  <score>  (3) 
-8.531

$$$$
=
     RDKit          3D

116117  0  0  0  0  0  0  0  0999 V2000
    0.6320   67.0410   68.9770 C   0  0  0  0  0  0  0  0  0  0  0  0
    1.2380   66.4760   70.2660 C   0  0  0  0  0  0  0  0  0  0  0  0
    1.1590   64.9460   70.3490 C   0  0  0  0  0  0  0  0  0  0  0  0
    2.5320   64.2720   70.4430 C   0  0  0  0  0  0  0  0  0  0  0  0
    2.4670   62.8410   70.9930 C   0  0  0  0  0  0  0  0  0  0  0  0
    3.4230   61.9220   70.3670 N   0  0  0  0  0  0  0  0  0  0  0  0
    4.4720   61.2910   71.0180 C   0  0  0  0  0  0  0  0  0  0  0  0
    5.3910   60.7330   70.4130 O   0  0  0  0  0  0  0  0  0  0  0  0
    3.4280   61.8860   68.9090 C   0  0  0  0  0  0  0  0  0  0  0  0
    4.4570   61.2050   72.5350 C   0  0  0  0  0  0  0  0  0  0  0  0
    4.1440   59.7970   73.0440 C   0  0  0  0  0  0  0  0  0  0  0  0
    3.3040   58.9260   72.0980 C   0  0  0  0  0  0  0  0  0  0  0  0
    2.2620   58.0160   72.7610 C   0  0  0  0  0  0  0  0  0  0  0  0
    1.0500   58.7180   73.3710 C   0  0  0  0  0  0  0  0  0  0  0  0
    0.8000   58.3120   74.8010 N   0  0  1  0  0  4  0  0  0  0  0  0
    0.5620   59.4710   75.7280 C   0  0  0  0  0  0  0  0  0  0  0  0
   -0.2990   57.2710   74.9010 C   0  0  0  0  0  0  0  0  0  0  0  0
    0.2050   55.8510   74.9390 C   0  0  0  0  0  0  0  0  0  0  0  0
   -0.2770   54.9210   74.0020 C   0  0  0  0  0  0  0  0  0  0  0  0
    0.1900   53.6090   74.0050 C   0  0  0  0  0  0  0  0  0  0  0  0
    1.1440   53.2130   74.9370 C   0  0  0  0  0  0  0  0  0  0  0  0
    1.6390   54.1270   75.8700 C   0  0  0  0  0  0  0  0  0  0  0  0
    1.1820   55.4470   75.8720 C   0  0  0  0  0  0  0  0  0  0  0  0
    1.5920   56.4180   76.7560 O   0  0  0  0  0  0  0  0  0  0  0  0
    1.7870   56.0040   78.1100 C   0  0  0  0  0  0  0  0  0  0  0  0
   -0.7340   66.4410   68.6240 C   0  0  0  0  0  0  0  0  0  0  0  0
   -1.6520   67.4120   67.8750 C   0  0  0  0  0  0  0  0  0  0  0  0
   -0.8990   68.3420   66.9140 C   0  0  0  0  0  0  0  0  0  0  0  0
   -1.0720   68.7060   64.4070 C   0  0  0  0  0  0  0  0  0  0  0  0
   -1.7550   68.8860   63.3920 O   0  0  0  0  0  0  0  0  0  0  0  0
   -1.6290   68.6410   65.6750 N   0  0  0  0  0  0  0  0  0  0  0  0
   -3.0810   68.7040   65.7850 C   0  0  0  0  0  0  0  0  0  0  0  0
    0.4380   68.6540   64.2530 C   0  0  0  0  0  0  0  0  0  0  0  0
    0.9280   69.5110   63.0810 C   0  0  0  0  0  0  0  0  0  0  0  0
    1.7080   68.7490   61.9970 C   0  0  0  0  0  0  0  0  0  0  0  0
    3.0140   68.1190   62.4890 C   0  0  0  0  0  0  0  0  0  0  0  0
    3.9310   69.0680   63.2650 C   0  0  0  0  0  0  0  0  0  0  0  0
    4.5900   68.4800   64.4870 N   0  0  1  0  0  4  0  0  0  0  0  0
    5.4290   67.2620   64.2250 C   0  0  0  0  0  0  0  0  0  0  0  0
    5.2780   69.4960   65.3740 C   0  0  0  0  0  0  0  0  0  0  0  0
    5.1900   70.3080   67.7800 C   0  0  0  0  0  0  0  0  0  0  0  0
    4.4730   70.5190   68.9610 C   0  0  0  0  0  0  0  0  0  0  0  0
    3.1190   70.1900   69.0330 C   0  0  0  0  0  0  0  0  0  0  0  0
    2.4690   69.6470   67.9300 C   0  0  0  0  0  0  0  0  0  0  0  0
    3.1730   69.4290   66.7470 C   0  0  0  0  0  0  0  0  0  0  0  0
    4.5380   69.7580   66.6590 C   0  0  0  0  0  0  0  0  0  0  0  0
    7.2140   71.1160   68.7460 C   0  0  0  0  0  0  0  0  0  0  0  0
    6.5250   70.5750   67.6190 O   0  0  0  0  0  0  0  0  0  0  0  0
    0.5135   68.1281   69.0963 H   0  0  0  0  0  0  0  0  0  0  0  0
    1.3188   66.7812   68.1579 H   0  0  0  0  0  0  0  0  0  0  0  0
    2.2954   66.7750   70.3159 H   0  0  0  0  0  0  0  0  0  0  0  0
    0.6551   66.8802   71.1067 H   0  0  0  0  0  0  0  0  0  0  0  0
    0.5751   64.6745   71.2408 H   0  0  0  0  0  0  0  0  0  0  0  0
    0.6861   64.5935   69.4205 H   0  0  0  0  0  0  0  0  0  0  0  0
    2.9752   64.2399   69.4368 H   0  0  0  0  0  0  0  0  0  0  0  0
    3.1393   64.8640   71.1436 H   0  0  0  0  0  0  0  0  0  0  0  0
    2.6746   62.8747   72.0727 H   0  0  0  0  0  0  0  0  0  0  0  0
    1.4606   62.4574   70.7694 H   0  0  0  0  0  0  0  0  0  0  0  0
    3.5719   60.8500   68.5683 H   0  0  0  0  0  0  0  0  0  0  0  0
    2.4683   62.2668   68.5295 H   0  0  0  0  0  0  0  0  0  0  0  0
    4.2475   62.5140   68.5295 H   0  0  0  0  0  0  0  0  0  0  0  0
    5.4452   61.5045   72.9141 H   0  0  0  0  0  0  0  0  0  0  0  0
    3.6621   61.8734   72.8975 H   0  0  0  0  0  0  0  0  0  0  0  0
    5.0987   59.2807   73.2226 H   0  0  0  0  0  0  0  0  0  0  0  0
    3.5372   59.9308   73.9517 H   0  0  0  0  0  0  0  0  0  0  0  0
    2.7725   59.5971   71.4073 H   0  0  0  0  0  0  0  0  0  0  0  0
    4.0191   58.2475   71.6099 H   0  0  0  0  0  0  0  0  0  0  0  0
    1.8952   57.3133   71.9983 H   0  0  0  0  0  0  0  0  0  0  0  0
    2.7813   57.5358   73.6035 H   0  0  0  0  0  0  0  0  0  0  0  0
    1.2195   59.8044   73.3383 H   0  0  0  0  0  0  0  0  0  0  0  0
    0.1669   58.4256   72.7839 H   0  0  0  0  0  0  0  0  0  0  0  0
    1.6762   57.8791   75.1261 H   0  0  0  0  0  0  0  0  0  0  0  0
    0.6326   59.1272   76.7705 H   0  0  0  0  0  0  0  0  0  0  0  0
    1.3194   60.2477   75.5460 H   0  0  0  0  0  0  0  0  0  0  0  0
   -0.4402   59.8863   75.5460 H   0  0  0  0  0  0  0  0  0  0  0  0
   -0.8719   57.4597   75.8209 H   0  0  0  0  0  0  0  0  0  0  0  0
   -0.9129   57.3672   73.9933 H   0  0  0  0  0  0  0  0  0  0  0  0
   -1.0284   55.2316   73.2611 H   0  0  0  0  0  0  0  0  0  0  0  0
   -0.1952   52.8861   73.2708 H   0  0  0  0  0  0  0  0  0  0  0  0
    1.5100   52.1757   74.9391 H   0  0  0  0  0  0  0  0  0  0  0  0
    2.3913   53.8063   76.6057 H   0  0  0  0  0  0  0  0  0  0  0  0
    1.4184   56.7866   78.7894 H   0  0  0  0  0  0  0  0  0  0  0  0
    1.2338   55.0707   78.2913 H   0  0  0  0  0  0  0  0  0  0  0  0
    2.8589   55.8361   78.2913 H   0  0  0  0  0  0  0  0  0  0  0  0
   -0.5726   65.5559   67.9911 H   0  0  0  0  0  0  0  0  0  0  0  0
   -1.2323   66.1903   69.5720 H   0  0  0  0  0  0  0  0  0  0  0  0
   -2.3803   66.8264   67.2948 H   0  0  0  0  0  0  0  0  0  0  0  0
   -2.1377   68.0481   68.6296 H   0  0  0  0  0  0  0  0  0  0  0  0
   -0.7001   69.2900   67.4353 H   0  0  0  0  0  0  0  0  0  0  0  0
    0.0224   67.8174   66.6210 H   0  0  0  0  0  0  0  0  0  0  0  0
   -3.3681   68.7165   66.8468 H   0  0  0  0  0  0  0  0  0  0  0  0
   -3.4464   69.6188   65.2956 H   0  0  0  0  0  0  0  0  0  0  0  0
   -3.5243   67.8242   65.2956 H   0  0  0  0  0  0  0  0  0  0  0  0
    0.9019   69.0223   65.1799 H   0  0  0  0  0  0  0  0  0  0  0  0
    0.7221   67.6106   64.0515 H   0  0  0  0  0  0  0  0  0  0  0  0
    0.0500   69.9741   62.6070 H   0  0  0  0  0  0  0  0  0  0  0  0
    1.6312   70.2410   63.5083 H   0  0  0  0  0  0  0  0  0  0  0  0
    1.0635   67.9471   61.6076 H   0  0  0  0  0  0  0  0  0  0  0  0
    1.9828   69.4862   61.2283 H   0  0  0  0  0  0  0  0  0  0  0  0
    2.7603   67.2743   63.1464 H   0  0  0  0  0  0  0  0  0  0  0  0
    3.5704   67.8165   61.5896 H   0  0  0  0  0  0  0  0  0  0  0  0
    4.7242   69.4065   62.5821 H   0  0  0  0  0  0  0  0  0  0  0  0
    3.2849   69.8793   63.6315 H   0  0  0  0  0  0  0  0  0  0  0  0
    3.7927   68.1337   65.0395 H   0  0  0  0  0  0  0  0  0  0  0  0
    5.7364   66.8157   65.1822 H   0  0  0  0  0  0  0  0  0  0  0  0
    4.8429   66.5297   63.6504 H   0  0  0  0  0  0  0  0  0  0  0  0
    6.3222   67.5487   63.6504 H   0  0  0  0  0  0  0  0  0  0  0  0
    6.2832   69.1225   65.6191 H   0  0  0  0  0  0  0  0  0  0  0  0
    5.3143   70.4445   64.8180 H   0  0  0  0  0  0  0  0  0  0  0  0
    4.9791   70.9470   69.8389 H   0  0  0  0  0  0  0  0  0  0  0  0
    2.5630   70.3609   69.9666 H   0  0  0  0  0  0  0  0  0  0  0  0
    1.4012   69.3900   67.9911 H   0  0  0  0  0  0  0  0  0  0  0  0
    2.6579   68.9968   65.8764 H   0  0  0  0  0  0  0  0  0  0  0  0
    6.7470   70.7493   69.6720 H   0  0  0  0  0  0  0  0  0  0  0  0
    8.2677   70.8014   68.7173 H   0  0  0  0  0  0  0  0  0  0  0  0
    7.1583   72.2142   68.7173 H   0  0  0  0  0  0  0  0  0  0  0  0
  2  1  1  0
  3  2  1  0
  4  3  1  0
  5  4  1  0
  6  5  1  0
  7  6  1  0
  8  7  2  0
  9  6  1  0
 10  7  1  0
 11 10  1  0
 12 11  1  0
 13 12  1  0
 14 13  1  0
 15 14  1  0
 16 15  1  0
 17 15  1  0
 18 17  1  0
 19 18  2  0
 20 19  1  0
 21 20  2  0
 22 21  1  0
 23 18  1  0
 23 22  2  0
 24 23  1  0
 25 24  1  0
 26  1  1  0
 27 26  1  0
 28 27  1  0
 30 29  2  0
 31 29  1  0
 31 28  1  0
 32 31  1  0
 33 29  1  0
 34 33  1  0
 35 34  1  0
 36 35  1  0
 37 36  1  0
 38 37  1  0
 39 38  1  0
 40 38  1  0
 42 41  2  0
 43 42  1  0
 44 43  2  0
 45 44  1  0
 46 40  1  0
 46 41  1  0
 46 45  2  0
 48 47  1  0
 48 41  1  0
  1 49  1  0
  1 50  1  0
  2 51  1  0
  2 52  1  0
  3 53  1  0
  3 54  1  0
  4 55  1  0
  4 56  1  0
  5 57  1  0
  5 58  1  0
  9 59  1  0
  9 60  1  0
  9 61  1  0
 10 62  1  0
 10 63  1  0
 11 64  1  0
 11 65  1  0
 12 66  1  0
 12 67  1  0
 13 68  1  0
 13 69  1  0
 14 70  1  0
 14 71  1  0
 15 72  1  1
 16 73  1  0
 16 74  1  0
 16 75  1  0
 17 76  1  0
 17 77  1  0
 19 78  1  0
 20 79  1  0
 21 80  1  0
 22 81  1  0
 25 82  1  0
 25 83  1  0
 25 84  1  0
 26 85  1  0
 26 86  1  0
 27 87  1  0
 27 88  1  0
 28 89  1  0
 28 90  1  0
 32 91  1  0
 32 92  1  0
 32 93  1  0
 33 94  1  0
 33 95  1  0
 34 96  1  0
 34 97  1  0
 35 98  1  0
 35 99  1  0
 36100  1  0
 36101  1  0
 37102  1  0
 37103  1  0
 38104  1  1
 39105  1  0
 39106  1  0
 39107  1  0
 40108  1  0
 40109  1  0
 42110  1  0
 43111  1  0
 44112  1  0
 45113  1  0
 47114  1  0
 47115  1  0
 47116  1  0
M  CHG  2  15   1  38   1
M  END
>  <score>  (4) 
-8.508

$$$$
=
     RDKit          3D

116117  0  0  0  0  0  0  0  0999 V2000
    0.7750   64.1050   70.6020 C   0  0  0  0  0  0  0  0  0  0  0  0
    0.7310   65.5780   71.0220 C   0  0  0  0  0  0  0  0  0  0  0  0
    0.8640   66.5470   69.8390 C   0  0  0  0  0  0  0  0  0  0  0  0
   -0.3840   66.5980   68.9520 C   0  0  0  0  0  0  0  0  0  0  0  0
   -0.1180   67.2020   67.5670 C   0  0  0  0  0  0  0  0  0  0  0  0
   -1.3340   67.6040   66.8520 N   0  0  0  0  0  0  0  0  0  0  0  0
   -1.3780   68.4640   65.7660 C   0  0  0  0  0  0  0  0  0  0  0  0
   -2.4280   68.9680   65.3590 O   0  0  0  0  0  0  0  0  0  0  0  0
   -2.6020   67.2870   67.5010 C   0  0  0  0  0  0  0  0  0  0  0  0
   -0.1020   68.7400   64.9890 C   0  0  0  0  0  0  0  0  0  0  0  0
   -0.3650   69.0730   63.5180 C   0  0  0  0  0  0  0  0  0  0  0  0
    0.7460   68.6600   62.5410 C   0  0  0  0  0  0  0  0  0  0  0  0
    2.1820   68.7420   63.0750 C   0  0  0  0  0  0  0  0  0  0  0  0
    2.5770   67.6850   64.1040 C   0  0  0  0  0  0  0  0  0  0  0  0
    3.9600   67.9020   64.6620 N   0  0  1  0  0  4  0  0  0  0  0  0
    5.0310   67.1260   63.9490 C   0  0  0  0  0  0  0  0  0  0  0  0
    4.2970   69.3780   64.7560 C   0  0  0  0  0  0  0  0  0  0  0  0
    4.8400   69.7970   66.0990 C   0  0  0  0  0  0  0  0  0  0  0  0
    6.1950   70.1540   66.2150 C   0  0  0  0  0  0  0  0  0  0  0  0
    6.7130   70.5640   67.4410 C   0  0  0  0  0  0  0  0  0  0  0  0
    5.8880   70.6270   68.5590 C   0  0  0  0  0  0  0  0  0  0  0  0
    4.5380   70.2830   68.4580 C   0  0  0  0  0  0  0  0  0  0  0  0
    4.0050   69.8750   67.2320 C   0  0  0  0  0  0  0  0  0  0  0  0
    2.6970   69.5010   67.0310 O   0  0  0  0  0  0  0  0  0  0  0  0
    1.7510   69.9470   68.0040 C   0  0  0  0  0  0  0  0  0  0  0  0
    1.5350   63.2070   71.5860 C   0  0  0  0  0  0  0  0  0  0  0  0
    3.0270   63.0800   71.2690 C   0  0  0  0  0  0  0  0  0  0  0  0
    3.6470   61.7700   71.7710 C   0  0  0  0  0  0  0  0  0  0  0  0
    3.7210   59.3950   70.8760 C   0  0  0  0  0  0  0  0  0  0  0  0
    3.8370   58.6060   69.9310 O   0  0  0  0  0  0  0  0  0  0  0  0
    3.8600   60.7660   70.7200 N   0  0  0  0  0  0  0  0  0  0  0  0
    4.0660   61.2800   69.3720 C   0  0  0  0  0  0  0  0  0  0  0  0
    3.5140   58.8200   72.2660 C   0  0  0  0  0  0  0  0  0  0  0  0
    2.0490   58.4580   72.5290 C   0  0  0  0  0  0  0  0  0  0  0  0
    1.8020   57.0000   72.9520 C   0  0  0  0  0  0  0  0  0  0  0  0
    0.3480   56.6900   73.3150 C   0  0  0  0  0  0  0  0  0  0  0  0
    0.1080   56.3840   74.7950 C   0  0  0  0  0  0  0  0  0  0  0  0
   -1.0160   57.1540   75.4430 N   0  0  1  0  0  4  0  0  0  0  0  0
   -2.1900   56.3190   75.8650 C   0  0  0  0  0  0  0  0  0  0  0  0
   -0.5670   58.1310   76.5090 C   0  0  0  0  0  0  0  0  0  0  0  0
   -0.1080   60.2200   75.1360 C   0  0  0  0  0  0  0  0  0  0  0  0
    0.7870   61.1790   74.6540 C   0  0  0  0  0  0  0  0  0  0  0  0
    2.1360   61.1280   75.0100 C   0  0  0  0  0  0  0  0  0  0  0  0
    2.6040   60.1210   75.8470 C   0  0  0  0  0  0  0  0  0  0  0  0
    1.7220   59.1560   76.3320 C   0  0  0  0  0  0  0  0  0  0  0  0
    0.3600   59.1970   75.9840 C   0  0  0  0  0  0  0  0  0  0  0  0
   -1.8480   60.8300   73.6250 C   0  0  0  0  0  0  0  0  0  0  0  0
   -1.4410   60.1710   74.8250 O   0  0  0  0  0  0  0  0  0  0  0  0
   -0.2580   63.7357   70.5212 H   0  0  0  0  0  0  0  0  0  0  0  0
    1.3126   64.0594   69.6434 H   0  0  0  0  0  0  0  0  0  0  0  0
   -0.2282   65.7698   71.5252 H   0  0  0  0  0  0  0  0  0  0  0  0
    1.5887   65.7544   71.6878 H   0  0  0  0  0  0  0  0  0  0  0  0
    1.0526   67.5561   70.2342 H   0  0  0  0  0  0  0  0  0  0  0  0
    1.6929   66.1843   69.2133 H   0  0  0  0  0  0  0  0  0  0  0  0
   -0.7608   65.5730   68.8197 H   0  0  0  0  0  0  0  0  0  0  0  0
   -1.1162   67.2462   69.4557 H   0  0  0  0  0  0  0  0  0  0  0  0
    0.5197   68.0895   67.6925 H   0  0  0  0  0  0  0  0  0  0  0  0
    0.3638   66.4187   66.9635 H   0  0  0  0  0  0  0  0  0  0  0  0
   -2.4731   67.3192   68.5930 H   0  0  0  0  0  0  0  0  0  0  0  0
   -3.3622   68.0227   67.1996 H   0  0  0  0  0  0  0  0  0  0  0  0
   -2.9265   66.2801   67.1996 H   0  0  0  0  0  0  0  0  0  0  0  0
    0.4164   69.5909   65.4550 H   0  0  0  0  0  0  0  0  0  0  0  0
    0.5086   67.8255   65.0181 H   0  0  0  0  0  0  0  0  0  0  0  0
   -1.2910   68.5625   63.2146 H   0  0  0  0  0  0  0  0  0  0  0  0
   -0.4265   70.1698   63.4615 H   0  0  0  0  0  0  0  0  0  0  0  0
    0.5586   67.6186   62.2403 H   0  0  0  0  0  0  0  0  0  0  0  0
    0.6969   69.3853   61.7154 H   0  0  0  0  0  0  0  0  0  0  0  0
    2.8652   68.6487   62.2180 H   0  0  0  0  0  0  0  0  0  0  0  0
    2.2472   69.7058   63.6012 H   0  0  0  0  0  0  0  0  0  0  0  0
    1.8548   67.7144   64.9332 H   0  0  0  0  0  0  0  0  0  0  0  0
    2.5742   66.7098   63.5951 H   0  0  0  0  0  0  0  0  0  0  0  0
    3.9389   67.5201   65.6184 H   0  0  0  0  0  0  0  0  0  0  0  0
    5.6909   66.6479   64.6879 H   0  0  0  0  0  0  0  0  0  0  0  0
    4.5661   66.3537   63.3186 H   0  0  0  0  0  0  0  0  0  0  0  0
    5.6201   67.8083   63.3186 H   0  0  0  0  0  0  0  0  0  0  0  0
    5.0512   69.6104   63.9898 H   0  0  0  0  0  0  0  0  0  0  0  0
    3.3575   69.9300   64.6054 H   0  0  0  0  0  0  0  0  0  0  0  0
    6.8498   70.1092   65.3322 H   0  0  0  0  0  0  0  0  0  0  0  0
    7.7750   70.8381   67.5252 H   0  0  0  0  0  0  0  0  0  0  0  0
    6.3003   70.9490   69.5266 H   0  0  0  0  0  0  0  0  0  0  0  0
    3.8918   70.3334   69.3468 H   0  0  0  0  0  0  0  0  0  0  0  0
    2.1471   69.7602   69.0131 H   0  0  0  0  0  0  0  0  0  0  0  0
    1.5717   71.0245   67.8741 H   0  0  0  0  0  0  0  0  0  0  0  0
    0.8057   69.3997   67.8741 H   0  0  0  0  0  0  0  0  0  0  0  0
    1.4283   63.6290   72.5962 H   0  0  0  0  0  0  0  0  0  0  0  0
    1.1004   62.1996   71.5068 H   0  0  0  0  0  0  0  0  0  0  0  0
    3.1573   63.1318   70.1780 H   0  0  0  0  0  0  0  0  0  0  0  0
    3.5405   63.9024   71.7886 H   0  0  0  0  0  0  0  0  0  0  0  0
    4.6196   62.0016   72.2297 H   0  0  0  0  0  0  0  0  0  0  0  0
    2.9332   61.3346   72.4857 H   0  0  0  0  0  0  0  0  0  0  0  0
    4.4747   62.2998   69.4269 H   0  0  0  0  0  0  0  0  0  0  0  0
    4.7731   60.6300   68.8358 H   0  0  0  0  0  0  0  0  0  0  0  0
    3.1057   61.2982   68.8358 H   0  0  0  0  0  0  0  0  0  0  0  0
    4.1273   57.9127   72.3692 H   0  0  0  0  0  0  0  0  0  0  0  0
    3.8092   59.5874   72.9968 H   0  0  0  0  0  0  0  0  0  0  0  0
    1.6748   59.1130   73.3296 H   0  0  0  0  0  0  0  0  0  0  0  0
    1.5242   58.5918   71.5716 H   0  0  0  0  0  0  0  0  0  0  0  0
    2.0970   56.3445   72.1193 H   0  0  0  0  0  0  0  0  0  0  0  0
    2.3980   56.8291   73.8606 H   0  0  0  0  0  0  0  0  0  0  0  0
   -0.2662   57.5606   73.0415 H   0  0  0  0  0  0  0  0  0  0  0  0
    0.0782   55.7780   72.7622 H   0  0  0  0  0  0  0  0  0  0  0  0
   -0.1186   55.3115   74.8870 H   0  0  0  0  0  0  0  0  0  0  0  0
    1.0254   56.6897   75.3194 H   0  0  0  0  0  0  0  0  0  0  0  0
   -1.3752   57.7372   74.6738 H   0  0  0  0  0  0  0  0  0  0  0  0
   -2.2392   56.2840   76.9633 H   0  0  0  0  0  0  0  0  0  0  0  0
   -3.1161   56.7625   75.4704 H   0  0  0  0  0  0  0  0  0  0  0  0
   -2.0750   55.2987   75.4704 H   0  0  0  0  0  0  0  0  0  0  0  0
   -1.4568   58.6192   76.9330 H   0  0  0  0  0  0  0  0  0  0  0  0
   -0.0110   57.5574   77.2652 H   0  0  0  0  0  0  0  0  0  0  0  0
    0.4265   61.9787   73.9903 H   0  0  0  0  0  0  0  0  0  0  0  0
    2.8323   61.8883   74.6264 H   0  0  0  0  0  0  0  0  0  0  0  0
    3.6675   60.0857   76.1259 H   0  0  0  0  0  0  0  0  0  0  0  0
    2.0939   58.3576   76.9910 H   0  0  0  0  0  0  0  0  0  0  0  0
   -2.4103   61.7405   73.8794 H   0  0  0  0  0  0  0  0  0  0  0  0
   -0.9594   61.1004   73.0357 H   0  0  0  0  0  0  0  0  0  0  0  0
   -2.4877   60.1566   73.0357 H   0  0  0  0  0  0  0  0  0  0  0  0
  2  1  1  0
  3  2  1  0
  4  3  1  0
  5  4  1  0
  6  5  1  0
  7  6  1  0
  8  7  2  0
  9  6  1  0
 10  7  1  0
 11 10  1  0
 12 11  1  0
 13 12  1  0
 14 13  1  0
 15 14  1  0
 16 15  1  0
 17 15  1  0
 18 17  1  0
 19 18  2  0
 20 19  1  0
 21 20  2  0
 22 21  1  0
 23 18  1  0
 23 22  2  0
 24 23  1  0
 25 24  1  0
 26  1  1  0
 27 26  1  0
 28 27  1  0
 30 29  2  0
 31 29  1  0
 31 28  1  0
 32 31  1  0
 33 29  1  0
 34 33  1  0
 35 34  1  0
 36 35  1  0
 37 36  1  0
 38 37  1  0
 39 38  1  0
 40 38  1  0
 42 41  2  0
 43 42  1  0
 44 43  2  0
 45 44  1  0
 46 40  1  0
 46 41  1  0
 46 45  2  0
 48 47  1  0
 48 41  1  0
  1 49  1  0
  1 50  1  0
  2 51  1  0
  2 52  1  0
  3 53  1  0
  3 54  1  0
  4 55  1  0
  4 56  1  0
  5 57  1  0
  5 58  1  0
  9 59  1  0
  9 60  1  0
  9 61  1  0
 10 62  1  0
 10 63  1  0
 11 64  1  0
 11 65  1  0
 12 66  1  0
 12 67  1  0
 13 68  1  0
 13 69  1  0
 14 70  1  0
 14 71  1  0
 15 72  1  1
 16 73  1  0
 16 74  1  0
 16 75  1  0
 17 76  1  0
 17 77  1  0
 19 78  1  0
 20 79  1  0
 21 80  1  0
 22 81  1  0
 25 82  1  0
 25 83  1  0
 25 84  1  0
 26 85  1  0
 26 86  1  0
 27 87  1  0
 27 88  1  0
 28 89  1  0
 28 90  1  0
 32 91  1  0
 32 92  1  0
 32 93  1  0
 33 94  1  0
 33 95  1  0
 34 96  1  0
 34 97  1  0
 35 98  1  0
 35 99  1  0
 36100  1  0
 36101  1  0
 37102  1  0
 37103  1  0
 38104  1  6
 39105  1  0
 39106  1  0
 39107  1  0
 40108  1  0
 40109  1  0
 42110  1  0
 43111  1  0
 44112  1  0
 45113  1  0
 47114  1  0
 47115  1  0
 47116  1  0
M  CHG  2  15   1  38   1
M  END
>  <score>  (5) 
-8.489

$$$$
=
     RDKit          3D

116117  0  0  0  0  0  0  0  0999 V2000
    0.3990   65.9120   70.5550 C   0  0  0  0  0  0  0  0  0  0  0  0
    1.5190   66.2700   69.5730 C   0  0  0  0  0  0  0  0  0  0  0  0
    1.1860   67.4820   68.6930 C   0  0  0  0  0  0  0  0  0  0  0  0
    1.8920   68.7670   69.1370 C   0  0  0  0  0  0  0  0  0  0  0  0
    2.3200   69.6590   67.9640 C   0  0  0  0  0  0  0  0  0  0  0  0
    3.7210   70.0860   68.0240 N   0  0  0  0  0  0  0  0  0  0  0  0
    4.6650   69.8810   67.0290 C   0  0  0  0  0  0  0  0  0  0  0  0
    5.8740   70.0280   67.2200 O   0  0  0  0  0  0  0  0  0  0  0  0
    4.2130   70.5130   69.3290 C   0  0  0  0  0  0  0  0  0  0  0  0
    4.1970   69.5420   65.6240 C   0  0  0  0  0  0  0  0  0  0  0  0
    5.2690   69.8040   64.5640 C   0  0  0  0  0  0  0  0  0  0  0  0
    5.6400   68.5960   63.6900 C   0  0  0  0  0  0  0  0  0  0  0  0
    5.2860   67.2150   64.2580 C   0  0  0  0  0  0  0  0  0  0  0  0
    4.5370   66.2740   63.3170 C   0  0  0  0  0  0  0  0  0  0  0  0
    3.1640   65.9130   63.8220 N   0  0  1  0  0  4  0  0  0  0  0  0
    3.1210   64.6290   64.6020 C   0  0  0  0  0  0  0  0  0  0  0  0
    2.5320   67.0620   64.5870 C   0  0  0  0  0  0  0  0  0  0  0  0
    1.6810   67.9690   63.7350 C   0  0  0  0  0  0  0  0  0  0  0  0
    2.1580   68.3860   62.4800 C   0  0  0  0  0  0  0  0  0  0  0  0
    1.3800   69.2070   61.6670 C   0  0  0  0  0  0  0  0  0  0  0  0
    0.1210   69.6160   62.0940 C   0  0  0  0  0  0  0  0  0  0  0  0
   -0.3710   69.2030   63.3340 C   0  0  0  0  0  0  0  0  0  0  0  0
    0.3980   68.3750   64.1560 C   0  0  0  0  0  0  0  0  0  0  0  0
    0.0140   67.9270   65.3980 O   0  0  0  0  0  0  0  0  0  0  0  0
   -1.1040   68.5880   65.9950 C   0  0  0  0  0  0  0  0  0  0  0  0
    0.5160   64.4970   71.1340 C   0  0  0  0  0  0  0  0  0  0  0  0
    1.9170   63.8950   70.9970 C   0  0  0  0  0  0  0  0  0  0  0  0
    1.9110   62.3710   70.8200 C   0  0  0  0  0  0  0  0  0  0  0  0
    4.0160   60.9680   71.0280 C   0  0  0  0  0  0  0  0  0  0  0  0
    5.0330   60.4750   70.5260 O   0  0  0  0  0  0  0  0  0  0  0  0
    3.1780   61.8190   70.3250 N   0  0  0  0  0  0  0  0  0  0  0  0
    3.4760   62.0590   68.9180 C   0  0  0  0  0  0  0  0  0  0  0  0
    3.7440   60.7010   72.4980 C   0  0  0  0  0  0  0  0  0  0  0  0
    3.4900   59.2160   72.7770 C   0  0  0  0  0  0  0  0  0  0  0  0
    3.6950   58.7820   74.2370 C   0  0  0  0  0  0  0  0  0  0  0  0
    2.6820   57.7460   74.7320 C   0  0  0  0  0  0  0  0  0  0  0  0
    1.9700   56.9650   73.6240 C   0  0  0  0  0  0  0  0  0  0  0  0
    0.4640   57.0400   73.6440 N   0  0  1  0  0  4  0  0  0  0  0  0
   -0.2340   55.7150   73.5290 C   0  0  0  0  0  0  0  0  0  0  0  0
   -0.1020   57.9170   74.7400 C   0  0  0  0  0  0  0  0  0  0  0  0
   -2.0770   59.5010   74.5210 C   0  0  0  0  0  0  0  0  0  0  0  0
   -2.6380   60.6720   74.0030 C   0  0  0  0  0  0  0  0  0  0  0  0
   -1.8800   61.5200   73.1950 C   0  0  0  0  0  0  0  0  0  0  0  0
   -0.5590   61.2080   72.8930 C   0  0  0  0  0  0  0  0  0  0  0  0
    0.0120   60.0420   73.4010 C   0  0  0  0  0  0  0  0  0  0  0  0
   -0.7390   59.1790   74.2200 C   0  0  0  0  0  0  0  0  0  0  0  0
   -3.1760   59.0450   76.5860 C   0  0  0  0  0  0  0  0  0  0  0  0
   -2.7450   58.5950   75.3020 O   0  0  0  0  0  0  0  0  0  0  0  0
    0.4238   66.6309   71.3872 H   0  0  0  0  0  0  0  0  0  0  0  0
   -0.5460   65.9525   69.9935 H   0  0  0  0  0  0  0  0  0  0  0  0
    2.4295   66.4948   70.1478 H   0  0  0  0  0  0  0  0  0  0  0  0
    1.6555   65.4076   68.9040 H   0  0  0  0  0  0  0  0  0  0  0  0
    1.4888   67.2567   67.6598 H   0  0  0  0  0  0  0  0  0  0  0  0
    0.1038   67.6590   68.7792 H   0  0  0  0  0  0  0  0  0  0  0  0
    1.2056   69.3390   69.7786 H   0  0  0  0  0  0  0  0  0  0  0  0
    2.8063   68.4693   69.6712 H   0  0  0  0  0  0  0  0  0  0  0  0
    2.1681   69.0990   67.0295 H   0  0  0  0  0  0  0  0  0  0  0  0
    1.7057   70.5701   68.0145 H   0  0  0  0  0  0  0  0  0  0  0  0
    3.6359   70.0121   70.1203 H   0  0  0  0  0  0  0  0  0  0  0  0
    5.2758   70.2461   69.4255 H   0  0  0  0  0  0  0  0  0  0  0  0
    4.0984   71.6028   69.4255 H   0  0  0  0  0  0  0  0  0  0  0  0
    3.9234   68.4771   65.5918 H   0  0  0  0  0  0  0  0  0  0  0  0
    3.3384   70.1903   65.3948 H   0  0  0  0  0  0  0  0  0  0  0  0
    4.9035   70.6027   63.9018 H   0  0  0  0  0  0  0  0  0  0  0  0
    6.1823   70.0710   65.1158 H   0  0  0  0  0  0  0  0  0  0  0  0
    5.1201   68.7062   62.7269 H   0  0  0  0  0  0  0  0  0  0  0  0
    6.7374   68.6117   63.6163 H   0  0  0  0  0  0  0  0  0  0  0  0
    6.2244   66.7212   64.5505 H   0  0  0  0  0  0  0  0  0  0  0  0
    4.5975   67.4068   65.0941 H   0  0  0  0  0  0  0  0  0  0  0  0
    4.4334   66.7652   62.3382 H   0  0  0  0  0  0  0  0  0  0  0  0
    5.1192   65.3433   63.2474 H   0  0  0  0  0  0  0  0  0  0  0  0
    2.5942   65.7394   62.9817 H   0  0  0  0  0  0  0  0  0  0  0  0
    3.1285   64.8537   65.6788 H   0  0  0  0  0  0  0  0  0  0  0  0
    2.2039   64.0769   64.3490 H   0  0  0  0  0  0  0  0  0  0  0  0
    3.9991   64.0167   64.3490 H   0  0  0  0  0  0  0  0  0  0  0  0
    1.9002   66.6417   65.3834 H   0  0  0  0  0  0  0  0  0  0  0  0
    3.3563   67.6749   64.9807 H   0  0  0  0  0  0  0  0  0  0  0  0
    3.1519   68.0619   62.1379 H   0  0  0  0  0  0  0  0  0  0  0  0
    1.7612   69.5318   60.6876 H   0  0  0  0  0  0  0  0  0  0  0  0
   -0.4899   70.2677   61.4521 H   0  0  0  0  0  0  0  0  0  0  0  0
   -1.3676   69.5307   63.6649 H   0  0  0  0  0  0  0  0  0  0  0  0
   -1.0179   68.5371   67.0904 H   0  0  0  0  0  0  0  0  0  0  0  0
   -1.1201   69.6409   65.6770 H   0  0  0  0  0  0  0  0  0  0  0  0
   -2.0343   68.0947   65.6770 H   0  0  0  0  0  0  0  0  0  0  0  0
    0.2565   64.5354   72.2023 H   0  0  0  0  0  0  0  0  0  0  0  0
   -0.1694   63.8552   70.5609 H   0  0  0  0  0  0  0  0  0  0  0  0
    2.4060   64.3458   70.1208 H   0  0  0  0  0  0  0  0  0  0  0  0
    2.4560   64.1112   71.9312 H   0  0  0  0  0  0  0  0  0  0  0  0
    1.6915   61.9111   71.7948 H   0  0  0  0  0  0  0  0  0  0  0  0
    1.1483   62.1434   70.0608 H   0  0  0  0  0  0  0  0  0  0  0  0
    4.3303   62.7471   68.8363 H   0  0  0  0  0  0  0  0  0  0  0  0
    3.7246   61.1060   68.4281 H   0  0  0  0  0  0  0  0  0  0  0  0
    2.5979   62.5050   68.4281 H   0  0  0  0  0  0  0  0  0  0  0  0
    4.6149   61.0282   73.0849 H   0  0  0  0  0  0  0  0  0  0  0  0
    2.8391   61.2584   72.7816 H   0  0  0  0  0  0  0  0  0  0  0  0
    2.4506   58.9897   72.4971 H   0  0  0  0  0  0  0  0  0  0  0  0
    4.2338   58.6619   72.1856 H   0  0  0  0  0  0  0  0  0  0  0  0
    4.7028   58.3511   74.3305 H   0  0  0  0  0  0  0  0  0  0  0  0
    3.5565   59.6805   74.8563 H   0  0  0  0  0  0  0  0  0  0  0  0
    3.2135   57.0257   75.3713 H   0  0  0  0  0  0  0  0  0  0  0  0
    1.9013   58.3067   75.2669 H   0  0  0  0  0  0  0  0  0  0  0  0
    2.3163   57.3570   72.6563 H   0  0  0  0  0  0  0  0  0  0  0  0
    2.2227   55.9072   73.7889 H   0  0  0  0  0  0  0  0  0  0  0  0
    0.2422   57.5285   72.7648 H   0  0  0  0  0  0  0  0  0  0  0  0
   -0.4414   55.3213   74.5350 H   0  0  0  0  0  0  0  0  0  0  0  0
   -1.1805   55.8453   72.9839 H   0  0  0  0  0  0  0  0  0  0  0  0
    0.4087   55.0081   72.9839 H   0  0  0  0  0  0  0  0  0  0  0  0
   -0.8620   57.3426   75.2900 H   0  0  0  0  0  0  0  0  0  0  0  0
    0.7369   58.2161   75.3856 H   0  0  0  0  0  0  0  0  0  0  0  0
   -3.6830   60.9263   74.2338 H   0  0  0  0  0  0  0  0  0  0  0  0
   -2.3299   62.4405   72.7946 H   0  0  0  0  0  0  0  0  0  0  0  0
    0.0341   61.8796   72.2548 H   0  0  0  0  0  0  0  0  0  0  0  0
    1.0565   59.7951   73.1599 H   0  0  0  0  0  0  0  0  0  0  0  0
   -2.6414   58.4868   77.3687 H   0  0  0  0  0  0  0  0  0  0  0  0
   -2.9608   60.1188   76.6895 H   0  0  0  0  0  0  0  0  0  0  0  0
   -4.2580   58.8763   76.6895 H   0  0  0  0  0  0  0  0  0  0  0  0
  2  1  1  0
  3  2  1  0
  4  3  1  0
  5  4  1  0
  6  5  1  0
  7  6  1  0
  8  7  2  0
  9  6  1  0
 10  7  1  0
 11 10  1  0
 12 11  1  0
 13 12  1  0
 14 13  1  0
 15 14  1  0
 16 15  1  0
 17 15  1  0
 18 17  1  0
 19 18  2  0
 20 19  1  0
 21 20  2  0
 22 21  1  0
 23 18  1  0
 23 22  2  0
 24 23  1  0
 25 24  1  0
 26  1  1  0
 27 26  1  0
 28 27  1  0
 30 29  2  0
 31 29  1  0
 31 28  1  0
 32 31  1  0
 33 29  1  0
 34 33  1  0
 35 34  1  0
 36 35  1  0
 37 36  1  0
 38 37  1  0
 39 38  1  0
 40 38  1  0
 42 41  2  0
 43 42  1  0
 44 43  2  0
 45 44  1  0
 46 40  1  0
 46 41  1  0
 46 45  2  0
 48 47  1  0
 48 41  1  0
  1 49  1  0
  1 50  1  0
  2 51  1  0
  2 52  1  0
  3 53  1  0
  3 54  1  0
  4 55  1  0
  4 56  1  0
  5 57  1  0
  5 58  1  0
  9 59  1  0
  9 60  1  0
  9 61  1  0
 10 62  1  0
 10 63  1  0
 11 64  1  0
 11 65  1  0
 12 66  1  0
 12 67  1  0
 13 68  1  0
 13 69  1  0
 14 70  1  0
 14 71  1  0
 15 72  1  6
 16 73  1  0
 16 74  1  0
 16 75  1  0
 17 76  1  0
 17 77  1  0
 19 78  1  0
 20 79  1  0
 21 80  1  0
 22 81  1  0
 25 82  1  0
 25 83  1  0
 25 84  1  0
 26 85  1  0
 26 86  1  0
 27 87  1  0
 27 88  1  0
 28 89  1  0
 28 90  1  0
 32 91  1  0
 32 92  1  0
 32 93  1  0
 33 94  1  0
 33 95  1  0
 34 96  1  0
 34 97  1  0
 35 98  1  0
 35 99  1  0
 36100  1  0
 36101  1  0
 37102  1  0
 37103  1  0
 38104  1  6
 39105  1  0
 39106  1  0
 39107  1  0
 40108  1  0
 40109  1  0
 42110  1  0
 43111  1  0
 44112  1  0
 45113  1  0
 47114  1  0
 47115  1  0
 47116  1  0
M  CHG  2  15   1  38   1
M  END
>  <score>  (6) 
-8.47

$$$$
=
     RDKit          3D

116117  0  0  0  0  0  0  0  0999 V2000
    3.4390   63.7230   66.6930 C   0  0  0  0  0  0  0  0  0  0  0  0
    4.1860   62.9910   67.8120 C   0  0  0  0  0  0  0  0  0  0  0  0
    3.2480   62.3000   68.8120 C   0  0  0  0  0  0  0  0  0  0  0  0
    2.7140   63.2440   69.8940 C   0  0  0  0  0  0  0  0  0  0  0  0
    1.4210   62.7410   70.5510 C   0  0  0  0  0  0  0  0  0  0  0  0
    0.8950   63.6360   71.5860 N   0  0  0  0  0  0  0  0  0  0  0  0
    0.6210   63.2730   72.8960 C   0  0  0  0  0  0  0  0  0  0  0  0
   -0.0470   63.9780   73.6550 O   0  0  0  0  0  0  0  0  0  0  0  0
    0.3730   64.9190   71.1290 C   0  0  0  0  0  0  0  0  0  0  0  0
    1.2330   61.9990   73.4540 C   0  0  0  0  0  0  0  0  0  0  0  0
    0.3320   60.7770   73.2600 C   0  0  0  0  0  0  0  0  0  0  0  0
   -0.2910   60.2090   74.5450 C   0  0  0  0  0  0  0  0  0  0  0  0
   -1.0290   58.8710   74.4050 C   0  0  0  0  0  0  0  0  0  0  0  0
   -0.3210   57.7970   73.5810 C   0  0  0  0  0  0  0  0  0  0  0  0
    0.7970   57.1250   74.3350 N   0  0  1  0  0  4  0  0  0  0  0  0
    0.3490   55.9680   75.1820 C   0  0  0  0  0  0  0  0  0  0  0  0
    1.9400   56.7440   73.4140 C   0  0  0  0  0  0  0  0  0  0  0  0
    2.7410   57.9190   72.9130 C   0  0  0  0  0  0  0  0  0  0  0  0
    2.8090   58.1700   71.5310 C   0  0  0  0  0  0  0  0  0  0  0  0
    3.5250   59.2620   71.0470 C   0  0  0  0  0  0  0  0  0  0  0  0
    4.1740   60.1160   71.9330 C   0  0  0  0  0  0  0  0  0  0  0  0
    4.1080   59.8860   73.3090 C   0  0  0  0  0  0  0  0  0  0  0  0
    3.3880   58.7960   73.8070 C   0  0  0  0  0  0  0  0  0  0  0  0
    3.2750   58.4730   75.1390 O   0  0  0  0  0  0  0  0  0  0  0  0
    3.0640   59.5610   76.0420 C   0  0  0  0  0  0  0  0  0  0  0  0
    4.1570   63.6740   65.3390 C   0  0  0  0  0  0  0  0  0  0  0  0
    3.4950   64.5430   64.2660 C   0  0  0  0  0  0  0  0  0  0  0  0
    3.5790   66.0460   64.5620 C   0  0  0  0  0  0  0  0  0  0  0  0
    2.3410   67.8000   63.2070 C   0  0  0  0  0  0  0  0  0  0  0  0
    2.2730   68.5490   62.2250 O   0  0  0  0  0  0  0  0  0  0  0  0
    3.3820   66.9010   63.3840 N   0  0  0  0  0  0  0  0  0  0  0  0
    4.4670   66.9160   62.4120 C   0  0  0  0  0  0  0  0  0  0  0  0
    1.1870   67.8080   64.1930 C   0  0  0  0  0  0  0  0  0  0  0  0
    0.1160   68.8370   63.8190 C   0  0  0  0  0  0  0  0  0  0  0  0
   -0.9990   69.0280   64.8610 C   0  0  0  0  0  0  0  0  0  0  0  0
   -0.7790   68.2550   66.1640 C   0  0  0  0  0  0  0  0  0  0  0  0
   -0.3670   69.1170   67.3600 C   0  0  0  0  0  0  0  0  0  0  0  0
    1.0010   68.8300   67.9270 N   0  0  1  0  0  4  0  0  0  0  0  0
    1.1120   67.5340   68.6770 C   0  0  0  0  0  0  0  0  0  0  0  0
    2.1380   69.0530   66.9520 C   0  0  0  0  0  0  0  0  0  0  0  0
    4.5510   69.8450   66.8770 C   0  0  0  0  0  0  0  0  0  0  0  0
    5.6510   70.4370   67.5040 C   0  0  0  0  0  0  0  0  0  0  0  0
    5.5540   70.8890   68.8210 C   0  0  0  0  0  0  0  0  0  0  0  0
    4.3620   70.7520   69.5240 C   0  0  0  0  0  0  0  0  0  0  0  0
    3.2590   70.1610   68.9120 C   0  0  0  0  0  0  0  0  0  0  0  0
    3.3410   69.7040   67.5830 C   0  0  0  0  0  0  0  0  0  0  0  0
    5.8280   69.0360   65.0330 C   0  0  0  0  0  0  0  0  0  0  0  0
    4.5550   69.3500   65.5990 O   0  0  0  0  0  0  0  0  0  0  0  0
    2.4474   63.2612   66.5773 H   0  0  0  0  0  0  0  0  0  0  0  0
    3.3770   64.7814   66.9863 H   0  0  0  0  0  0  0  0  0  0  0  0
    4.8364   62.2287   67.3581 H   0  0  0  0  0  0  0  0  0  0  0  0
    4.7611   63.7449   68.3695 H   0  0  0  0  0  0  0  0  0  0  0  0
    2.3931   61.8840   68.2587 H   0  0  0  0  0  0  0  0  0  0  0  0
    3.8323   61.5190   69.3205 H   0  0  0  0  0  0  0  0  0  0  0  0
    3.4827   63.3529   70.6733 H   0  0  0  0  0  0  0  0  0  0  0  0
    2.4815   64.2021   69.4062 H   0  0  0  0  0  0  0  0  0  0  0  0
    0.6559   62.6283   69.7688 H   0  0  0  0  0  0  0  0  0  0  0  0
    1.6628   61.7882   71.0447 H   0  0  0  0  0  0  0  0  0  0  0  0
    0.1193   65.5425   71.9990 H   0  0  0  0  0  0  0  0  0  0  0  0
    1.1349   65.4295   70.5217 H   0  0  0  0  0  0  0  0  0  0  0  0
   -0.5289   64.7526   70.5217 H   0  0  0  0  0  0  0  0  0  0  0  0
    2.1899   61.8153   72.9436 H   0  0  0  0  0  0  0  0  0  0  0  0
    1.3702   62.1424   74.5360 H   0  0  0  0  0  0  0  0  0  0  0  0
   -0.4866   61.0626   72.5830 H   0  0  0  0  0  0  0  0  0  0  0  0
    0.9791   59.9829   72.8592 H   0  0  0  0  0  0  0  0  0  0  0  0
    0.5177   60.0713   75.2778 H   0  0  0  0  0  0  0  0  0  0  0  0
   -1.0570   60.9378   74.8483 H   0  0  0  0  0  0  0  0  0  0  0  0
   -1.1893   58.4680   75.4159 H   0  0  0  0  0  0  0  0  0  0  0  0
   -1.9558   59.1001   73.8586 H   0  0  0  0  0  0  0  0  0  0  0  0
   -1.0580   57.0336   73.2912 H   0  0  0  0  0  0  0  0  0  0  0  0
    0.1215   58.2910   72.7034 H   0  0  0  0  0  0  0  0  0  0  0  0
    1.1475   57.8288   75.0003 H   0  0  0  0  0  0  0  0  0  0  0  0
    0.4508   56.2309   76.2453 H   0  0  0  0  0  0  0  0  0  0  0  0
   -0.7035   55.7373   74.9605 H   0  0  0  0  0  0  0  0  0  0  0  0
    0.9716   55.0887   74.9605 H   0  0  0  0  0  0  0  0  0  0  0  0
    2.6170   56.0723   73.9623 H   0  0  0  0  0  0  0  0  0  0  0  0
    1.4915   56.2647   72.5313 H   0  0  0  0  0  0  0  0  0  0  0  0
    2.2933   57.4995   70.8278 H   0  0  0  0  0  0  0  0  0  0  0  0
    3.5774   59.4493   69.9643 H   0  0  0  0  0  0  0  0  0  0  0  0
    4.7416   60.9761   71.5481 H   0  0  0  0  0  0  0  0  0  0  0  0
    4.6244   60.5650   74.0035 H   0  0  0  0  0  0  0  0  0  0  0  0
    3.1346   59.1970   77.0776 H   0  0  0  0  0  0  0  0  0  0  0  0
    3.8292   60.3326   75.8716 H   0  0  0  0  0  0  0  0  0  0  0  0
    2.0658   59.9906   75.8716 H   0  0  0  0  0  0  0  0  0  0  0  0
    5.1909   64.0220   65.4801 H   0  0  0  0  0  0  0  0  0  0  0  0
    4.1123   62.6331   64.9860 H   0  0  0  0  0  0  0  0  0  0  0  0
    3.9923   64.3487   63.3042 H   0  0  0  0  0  0  0  0  0  0  0  0
    2.4283   64.2755   64.2440 H   0  0  0  0  0  0  0  0  0  0  0  0
    2.8058   66.2958   65.3034 H   0  0  0  0  0  0  0  0  0  0  0  0
    4.5977   66.2407   64.9286 H   0  0  0  0  0  0  0  0  0  0  0  0
    5.4320   66.9293   62.9398 H   0  0  0  0  0  0  0  0  0  0  0  0
    4.4066   66.0169   61.7811 H   0  0  0  0  0  0  0  0  0  0  0  0
    4.3817   67.8131   61.7811 H   0  0  0  0  0  0  0  0  0  0  0  0
    0.7279   66.8085   64.2097 H   0  0  0  0  0  0  0  0  0  0  0  0
    1.5876   68.0801   65.1807 H   0  0  0  0  0  0  0  0  0  0  0  0
    0.6129   69.8070   63.6703 H   0  0  0  0  0  0  0  0  0  0  0  0
   -0.3748   68.4520   62.9130 H   0  0  0  0  0  0  0  0  0  0  0  0
   -1.0659   70.0991   65.1024 H   0  0  0  0  0  0  0  0  0  0  0  0
   -1.9225   68.6340   64.4117 H   0  0  0  0  0  0  0  0  0  0  0  0
   -1.7174   67.7411   66.4196 H   0  0  0  0  0  0  0  0  0  0  0  0
    0.0569   67.5647   65.9772 H   0  0  0  0  0  0  0  0  0  0  0  0
   -0.3880   70.1699   67.0421 H   0  0  0  0  0  0  0  0  0  0  0  0
   -1.0818   68.8816   68.1623 H   0  0  0  0  0  0  0  0  0  0  0  0
    1.1147   69.5576   68.6471 H   0  0  0  0  0  0  0  0  0  0  0  0
    1.0949   67.7337   69.7586 H   0  0  0  0  0  0  0  0  0  0  0  0
    0.2663   66.8828   68.4109 H   0  0  0  0  0  0  0  0  0  0  0  0
    2.0561   67.0361   68.4109 H   0  0  0  0  0  0  0  0  0  0  0  0
    2.4426   68.0791   66.5413 H   0  0  0  0  0  0  0  0  0  0  0  0
    1.7699   69.7339   66.1704 H   0  0  0  0  0  0  0  0  0  0  0  0
    6.5986   70.5473   66.9564 H   0  0  0  0  0  0  0  0  0  0  0  0
    6.4245   71.3558   69.3051 H   0  0  0  0  0  0  0  0  0  0  0  0
    4.2902   71.1098   70.5617 H   0  0  0  0  0  0  0  0  0  0  0  0
    2.3179   70.0507   69.4707 H   0  0  0  0  0  0  0  0  0  0  0  0
    6.5539   68.8569   65.8398 H   0  0  0  0  0  0  0  0  0  0  0  0
    5.7402   68.1326   64.4116 H   0  0  0  0  0  0  0  0  0  0  0  0
    6.1704   69.8766   64.4116 H   0  0  0  0  0  0  0  0  0  0  0  0
  2  1  1  0
  3  2  1  0
  4  3  1  0
  5  4  1  0
  6  5  1  0
  7  6  1  0
  8  7  2  0
  9  6  1  0
 10  7  1  0
 11 10  1  0
 12 11  1  0
 13 12  1  0
 14 13  1  0
 15 14  1  0
 16 15  1  0
 17 15  1  0
 18 17  1  0
 19 18  2  0
 20 19  1  0
 21 20  2  0
 22 21  1  0
 23 18  1  0
 23 22  2  0
 24 23  1  0
 25 24  1  0
 26  1  1  0
 27 26  1  0
 28 27  1  0
 30 29  2  0
 31 29  1  0
 31 28  1  0
 32 31  1  0
 33 29  1  0
 34 33  1  0
 35 34  1  0
 36 35  1  0
 37 36  1  0
 38 37  1  0
 39 38  1  0
 40 38  1  0
 42 41  2  0
 43 42  1  0
 44 43  2  0
 45 44  1  0
 46 40  1  0
 46 41  1  0
 46 45  2  0
 48 47  1  0
 48 41  1  0
  1 49  1  0
  1 50  1  0
  2 51  1  0
  2 52  1  0
  3 53  1  0
  3 54  1  0
  4 55  1  0
  4 56  1  0
  5 57  1  0
  5 58  1  0
  9 59  1  0
  9 60  1  0
  9 61  1  0
 10 62  1  0
 10 63  1  0
 11 64  1  0
 11 65  1  0
 12 66  1  0
 12 67  1  0
 13 68  1  0
 13 69  1  0
 14 70  1  0
 14 71  1  0
 15 72  1  1
 16 73  1  0
 16 74  1  0
 16 75  1  0
 17 76  1  0
 17 77  1  0
 19 78  1  0
 20 79  1  0
 21 80  1  0
 22 81  1  0
 25 82  1  0
 25 83  1  0
 25 84  1  0
 26 85  1  0
 26 86  1  0
 27 87  1  0
 27 88  1  0
 28 89  1  0
 28 90  1  0
 32 91  1  0
 32 92  1  0
 32 93  1  0
 33 94  1  0
 33 95  1  0
 34 96  1  0
 34 97  1  0
 35 98  1  0
 35 99  1  0
 36100  1  0
 36101  1  0
 37102  1  0
 37103  1  0
 38104  1  1
 39105  1  0
 39106  1  0
 39107  1  0
 40108  1  0
 40109  1  0
 42110  1  0
 43111  1  0
 44112  1  0
 45113  1  0
 47114  1  0
 47115  1  0
 47116  1  0
M  CHG  2  15   1  38   1
M  END
>  <score>  (7) 
-8.391

$$$$
=
     RDKit          3D

116117  0  0  0  0  0  0  0  0999 V2000
    0.0450   65.6610   71.4210 C   0  0  0  0  0  0  0  0  0  0  0  0
    0.4110   64.1740   71.3770 C   0  0  0  0  0  0  0  0  0  0  0  0
    1.8590   63.9220   70.9360 C   0  0  0  0  0  0  0  0  0  0  0  0
    2.0080   62.7210   69.9970 C   0  0  0  0  0  0  0  0  0  0  0  0
    3.3350   62.7150   69.2270 C   0  0  0  0  0  0  0  0  0  0  0  0
    4.4930   62.3410   70.0450 N   0  0  0  0  0  0  0  0  0  0  0  0
    4.7540   61.0690   70.5310 C   0  0  0  0  0  0  0  0  0  0  0  0
    5.5900   60.8520   71.4110 O   0  0  0  0  0  0  0  0  0  0  0  0
    5.2730   63.4390   70.6050 C   0  0  0  0  0  0  0  0  0  0  0  0
    4.0470   59.8790   69.9050 C   0  0  0  0  0  0  0  0  0  0  0  0
    3.2530   59.0590   70.9240 C   0  0  0  0  0  0  0  0  0  0  0  0
    2.2940   59.8650   71.8130 C   0  0  0  0  0  0  0  0  0  0  0  0
    1.7710   59.1520   73.0660 C   0  0  0  0  0  0  0  0  0  0  0  0
    2.2560   57.7180   73.2740 C   0  0  0  0  0  0  0  0  0  0  0  0
    2.9580   57.5260   74.5930 N   0  0  1  0  0  4  0  0  0  0  0  0
    3.9530   58.6050   74.9150 C   0  0  0  0  0  0  0  0  0  0  0  0
    1.9700   57.3110   75.7250 C   0  0  0  0  0  0  0  0  0  0  0  0
    0.8980   56.2970   75.4150 C   0  0  0  0  0  0  0  0  0  0  0  0
    1.2530   54.9500   75.2290 C   0  0  0  0  0  0  0  0  0  0  0  0
    0.2770   53.9930   74.9630 C   0  0  0  0  0  0  0  0  0  0  0  0
   -1.0600   54.3670   74.8850 C   0  0  0  0  0  0  0  0  0  0  0  0
   -1.4310   55.7010   75.0760 C   0  0  0  0  0  0  0  0  0  0  0  0
   -0.4610   56.6690   75.3490 C   0  0  0  0  0  0  0  0  0  0  0  0
   -0.7180   58.0060   75.5360 O   0  0  0  0  0  0  0  0  0  0  0  0
   -1.7390   58.5790   74.7150 C   0  0  0  0  0  0  0  0  0  0  0  0
    0.5230   66.4500   70.1960 C   0  0  0  0  0  0  0  0  0  0  0  0
   -0.5350   66.5690   69.0950 C   0  0  0  0  0  0  0  0  0  0  0  0
   -0.0030   67.2070   67.8050 C   0  0  0  0  0  0  0  0  0  0  0  0
   -0.8370   68.3330   65.6890 C   0  0  0  0  0  0  0  0  0  0  0  0
   -1.7670   68.6780   64.9500 O   0  0  0  0  0  0  0  0  0  0  0  0
   -1.0500   67.7240   66.9160 N   0  0  0  0  0  0  0  0  0  0  0  0
   -2.4240   67.4110   67.2910 C   0  0  0  0  0  0  0  0  0  0  0  0
    0.5780   68.6840   65.2670 C   0  0  0  0  0  0  0  0  0  0  0  0
    1.1470   67.6770   64.2620 C   0  0  0  0  0  0  0  0  0  0  0  0
    1.7780   66.4200   64.8840 C   0  0  0  0  0  0  0  0  0  0  0  0
    3.3080   66.4350   64.9140 C   0  0  0  0  0  0  0  0  0  0  0  0
    3.9650   67.2200   63.7760 C   0  0  0  0  0  0  0  0  0  0  0  0
    4.8090   68.3950   64.2010 N   0  0  1  0  0  4  0  0  0  0  0  0
    5.6760   68.9730   63.1200 C   0  0  0  0  0  0  0  0  0  0  0  0
    4.0580   69.4490   64.9880 C   0  0  0  0  0  0  0  0  0  0  0  0
    4.0420   69.9800   67.4730 C   0  0  0  0  0  0  0  0  0  0  0  0
    4.7190   70.3670   68.6330 C   0  0  0  0  0  0  0  0  0  0  0  0
    6.0920   70.6130   68.5990 C   0  0  0  0  0  0  0  0  0  0  0  0
    6.8010   70.4780   67.4100 C   0  0  0  0  0  0  0  0  0  0  0  0
    6.1370   70.0970   66.2460 C   0  0  0  0  0  0  0  0  0  0  0  0
    4.7530   69.8430   66.2650 C   0  0  0  0  0  0  0  0  0  0  0  0
    1.8890   70.2550   68.4600 C   0  0  0  0  0  0  0  0  0  0  0  0
    2.6940   69.7410   67.4000 O   0  0  0  0  0  0  0  0  0  0  0  0
   -1.0498   65.7475   71.4842 H   0  0  0  0  0  0  0  0  0  0  0  0
    0.5513   66.0909   72.2979 H   0  0  0  0  0  0  0  0  0  0  0  0
    0.2726   63.7498   72.3824 H   0  0  0  0  0  0  0  0  0  0  0  0
   -0.2453   63.6971   70.6341 H   0  0  0  0  0  0  0  0  0  0  0  0
    2.2264   64.8190   70.4160 H   0  0  0  0  0  0  0  0  0  0  0  0
    2.4409   63.6998   71.8427 H   0  0  0  0  0  0  0  0  0  0  0  0
    1.9472   61.8000   70.5954 H   0  0  0  0  0  0  0  0  0  0  0  0
    1.1998   62.7858   69.2537 H   0  0  0  0  0  0  0  0  0  0  0  0
    3.2509   61.9981   68.3969 H   0  0  0  0  0  0  0  0  0  0  0  0
    3.5078   63.7441   68.8792 H   0  0  0  0  0  0  0  0  0  0  0  0
    5.2385   63.3904   71.7034 H   0  0  0  0  0  0  0  0  0  0  0  0
    6.3166   63.3572   70.2670 H   0  0  0  0  0  0  0  0  0  0  0  0
    4.8522   64.3975   70.2670 H   0  0  0  0  0  0  0  0  0  0  0  0
    3.3545   60.2472   69.1337 H   0  0  0  0  0  0  0  0  0  0  0  0
    4.8189   59.2211   69.4791 H   0  0  0  0  0  0  0  0  0  0  0  0
    2.6600   58.3144   70.3727 H   0  0  0  0  0  0  0  0  0  0  0  0
    3.9966   58.6163   71.6030 H   0  0  0  0  0  0  0  0  0  0  0  0
    2.8223   60.7729   72.1395 H   0  0  0  0  0  0  0  0  0  0  0  0
    1.4069   60.0558   71.1913 H   0  0  0  0  0  0  0  0  0  0  0  0
    2.0794   59.7417   73.9419 H   0  0  0  0  0  0  0  0  0  0  0  0
    0.6816   59.0794   72.9322 H   0  0  0  0  0  0  0  0  0  0  0  0
    1.3874   57.0441   73.2365 H   0  0  0  0  0  0  0  0  0  0  0  0
    2.9803   57.4939   72.4770 H   0  0  0  0  0  0  0  0  0  0  0  0
    3.5141   56.6652   74.4896 H   0  0  0  0  0  0  0  0  0  0  0  0
    4.0451   58.7049   76.0066 H   0  0  0  0  0  0  0  0  0  0  0  0
    4.9314   58.3411   74.4871 H   0  0  0  0  0  0  0  0  0  0  0  0
    3.6109   59.5588   74.4871 H   0  0  0  0  0  0  0  0  0  0  0  0
    2.5262   56.9677   76.6098 H   0  0  0  0  0  0  0  0  0  0  0  0
    1.4619   58.2721   75.8927 H   0  0  0  0  0  0  0  0  0  0  0  0
    2.3092   54.6495   75.2940 H   0  0  0  0  0  0  0  0  0  0  0  0
    0.5636   52.9414   74.8146 H   0  0  0  0  0  0  0  0  0  0  0  0
   -1.8290   53.6098   74.6721 H   0  0  0  0  0  0  0  0  0  0  0  0
   -2.4904   55.9898   75.0112 H   0  0  0  0  0  0  0  0  0  0  0  0
   -2.5200   59.0173   75.3536 H   0  0  0  0  0  0  0  0  0  0  0  0
   -1.3016   59.3635   74.0799 H   0  0  0  0  0  0  0  0  0  0  0  0
   -2.1807   57.7970   74.0799 H   0  0  0  0  0  0  0  0  0  0  0  0
    0.8022   67.4630   70.5215 H   0  0  0  0  0  0  0  0  0  0  0  0
    1.3742   65.8997   69.7687 H   0  0  0  0  0  0  0  0  0  0  0  0
   -0.9065   65.5611   68.8580 H   0  0  0  0  0  0  0  0  0  0  0  0
   -1.3299   67.2257   69.4782 H   0  0  0  0  0  0  0  0  0  0  0  0
    0.6596   68.0409   68.0799 H   0  0  0  0  0  0  0  0  0  0  0  0
    0.5200   66.4135   67.2511 H   0  0  0  0  0  0  0  0  0  0  0  0
   -2.5094   67.3915   68.3875 H   0  0  0  0  0  0  0  0  0  0  0  0
   -3.0990   68.1784   66.8842 H   0  0  0  0  0  0  0  0  0  0  0  0
   -2.7000   66.4270   66.8842 H   0  0  0  0  0  0  0  0  0  0  0  0
    0.5728   69.6821   64.8046 H   0  0  0  0  0  0  0  0  0  0  0  0
    1.2139   68.6628   66.1643 H   0  0  0  0  0  0  0  0  0  0  0  0
    0.3286   67.3559   63.6009 H   0  0  0  0  0  0  0  0  0  0  0  0
    1.9589   68.1976   63.7331 H   0  0  0  0  0  0  0  0  0  0  0  0
    1.4137   66.3266   65.9177 H   0  0  0  0  0  0  0  0  0  0  0  0
    1.4827   65.5713   64.2496 H   0  0  0  0  0  0  0  0  0  0  0  0
    3.6271   66.8823   65.8669 H   0  0  0  0  0  0  0  0  0  0  0  0
    3.6301   65.3899   64.7954 H   0  0  0  0  0  0  0  0  0  0  0  0
    4.6076   66.5270   63.2131 H   0  0  0  0  0  0  0  0  0  0  0  0
    3.1394   67.6400   63.1827 H   0  0  0  0  0  0  0  0  0  0  0  0
    5.4718   67.9770   64.8695 H   0  0  0  0  0  0  0  0  0  0  0  0
    6.5090   69.5283   63.5758 H   0  0  0  0  0  0  0  0  0  0  0  0
    6.0753   68.1598   62.4961 H   0  0  0  0  0  0  0  0  0  0  0  0
    5.0789   69.6544   62.4961 H   0  0  0  0  0  0  0  0  0  0  0  0
    3.9495   70.3444   64.3583 H   0  0  0  0  0  0  0  0  0  0  0  0
    3.0844   69.0184   65.2650 H   0  0  0  0  0  0  0  0  0  0  0  0
    4.1665   70.4782   69.5776 H   0  0  0  0  0  0  0  0  0  0  0  0
    6.6165   70.9153   69.5174 H   0  0  0  0  0  0  0  0  0  0  0  0
    7.8836   70.6716   67.3888 H   0  0  0  0  0  0  0  0  0  0  0  0
    6.6984   69.9940   65.3057 H   0  0  0  0  0  0  0  0  0  0  0  0
    2.3315   69.9725   69.4266 H   0  0  0  0  0  0  0  0  0  0  0  0
    1.8408   71.3514   68.3853 H   0  0  0  0  0  0  0  0  0  0  0  0
    0.8741   69.8374   68.3853 H   0  0  0  0  0  0  0  0  0  0  0  0
  2  1  1  0
  3  2  1  0
  4  3  1  0
  5  4  1  0
  6  5  1  0
  7  6  1  0
  8  7  2  0
  9  6  1  0
 10  7  1  0
 11 10  1  0
 12 11  1  0
 13 12  1  0
 14 13  1  0
 15 14  1  0
 16 15  1  0
 17 15  1  0
 18 17  1  0
 19 18  2  0
 20 19  1  0
 21 20  2  0
 22 21  1  0
 23 18  1  0
 23 22  2  0
 24 23  1  0
 25 24  1  0
 26  1  1  0
 27 26  1  0
 28 27  1  0
 30 29  2  0
 31 29  1  0
 31 28  1  0
 32 31  1  0
 33 29  1  0
 34 33  1  0
 35 34  1  0
 36 35  1  0
 37 36  1  0
 38 37  1  0
 39 38  1  0
 40 38  1  0
 42 41  2  0
 43 42  1  0
 44 43  2  0
 45 44  1  0
 46 40  1  0
 46 41  1  0
 46 45  2  0
 48 47  1  0
 48 41  1  0
  1 49  1  0
  1 50  1  0
  2 51  1  0
  2 52  1  0
  3 53  1  0
  3 54  1  0
  4 55  1  0
  4 56  1  0
  5 57  1  0
  5 58  1  0
  9 59  1  0
  9 60  1  0
  9 61  1  0
 10 62  1  0
 10 63  1  0
 11 64  1  0
 11 65  1  0
 12 66  1  0
 12 67  1  0
 13 68  1  0
 13 69  1  0
 14 70  1  0
 14 71  1  0
 15 72  1  6
 16 73  1  0
 16 74  1  0
 16 75  1  0
 17 76  1  0
 17 77  1  0
 19 78  1  0
 20 79  1  0
 21 80  1  0
 22 81  1  0
 25 82  1  0
 25 83  1  0
 25 84  1  0
 26 85  1  0
 26 86  1  0
 27 87  1  0
 27 88  1  0
 28 89  1  0
 28 90  1  0
 32 91  1  0
 32 92  1  0
 32 93  1  0
 33 94  1  0
 33 95  1  0
 34 96  1  0
 34 97  1  0
 35 98  1  0
 35 99  1  0
 36100  1  0
 36101  1  0
 37102  1  0
 37103  1  0
 38104  1  1
 39105  1  0
 39106  1  0
 39107  1  0
 40108  1  0
 40109  1  0
 42110  1  0
 43111  1  0
 44112  1  0
 45113  1  0
 47114  1  0
 47115  1  0
 47116  1  0
M  CHG  2  15   1  38   1
M  END
>  <score>  (8) 
-8.324

$$$$
=
     RDKit          3D

116117  0  0  0  0  0  0  0  0999 V2000
    3.1060   58.7900   72.6770 C   0  0  0  0  0  0  0  0  0  0  0  0
    1.8630   57.8950   72.6490 C   0  0  0  0  0  0  0  0  0  0  0  0
    0.7780   58.3390   73.6390 C   0  0  0  0  0  0  0  0  0  0  0  0
   -0.3910   57.3530   73.7410 C   0  0  0  0  0  0  0  0  0  0  0  0
   -0.3360   56.4780   75.0000 C   0  0  0  0  0  0  0  0  0  0  0  0
    0.5820   55.3390   74.8910 N   0  0  0  0  0  0  0  0  0  0  0  0
    1.8830   55.3100   75.3680 C   0  0  0  0  0  0  0  0  0  0  0  0
    2.6930   54.4400   75.0380 O   0  0  0  0  0  0  0  0  0  0  0  0
    0.1830   54.2700   73.9820 C   0  0  0  0  0  0  0  0  0  0  0  0
    2.3160   56.3370   76.4010 C   0  0  0  0  0  0  0  0  0  0  0  0
    3.5680   57.1090   75.9790 C   0  0  0  0  0  0  0  0  0  0  0  0
    3.5020   58.6300   76.1800 C   0  0  0  0  0  0  0  0  0  0  0  0
    2.4230   59.1400   77.1430 C   0  0  0  0  0  0  0  0  0  0  0  0
    2.4010   60.6470   77.3910 C   0  0  0  0  0  0  0  0  0  0  0  0
    1.0080   61.2210   77.3770 N   0  0  1  0  0  4  0  0  0  0  0  0
    0.8310   62.4100   78.2780 C   0  0  0  0  0  0  0  0  0  0  0  0
    0.5370   61.5060   75.9630 C   0  0  0  0  0  0  0  0  0  0  0  0
   -0.7830   60.8660   75.6160 C   0  0  0  0  0  0  0  0  0  0  0  0
   -1.2850   59.8350   76.4290 C   0  0  0  0  0  0  0  0  0  0  0  0
   -2.5120   59.2430   76.1400 C   0  0  0  0  0  0  0  0  0  0  0  0
   -3.2520   59.6760   75.0450 C   0  0  0  0  0  0  0  0  0  0  0  0
   -2.7720   60.7060   74.2330 C   0  0  0  0  0  0  0  0  0  0  0  0
   -1.5440   61.3110   74.5160 C   0  0  0  0  0  0  0  0  0  0  0  0
   -0.9760   62.3180   73.7720 O   0  0  0  0  0  0  0  0  0  0  0  0
   -0.5360   61.9680   72.4580 C   0  0  0  0  0  0  0  0  0  0  0  0
    2.7970   60.2780   72.4760 C   0  0  0  0  0  0  0  0  0  0  0  0
    3.9420   61.2020   72.9030 C   0  0  0  0  0  0  0  0  0  0  0  0
    4.6720   61.8540   71.7210 C   0  0  0  0  0  0  0  0  0  0  0  0
    3.1400   62.6980   69.8810 C   0  0  0  0  0  0  0  0  0  0  0  0
    2.6350   62.5690   68.7600 O   0  0  0  0  0  0  0  0  0  0  0  0
    3.9650   61.7340   70.4400 N   0  0  0  0  0  0  0  0  0  0  0  0
    4.3030   60.5730   69.6260 C   0  0  0  0  0  0  0  0  0  0  0  0
    2.7570   63.9170   70.7010 C   0  0  0  0  0  0  0  0  0  0  0  0
    1.2630   64.2390   70.5930 C   0  0  0  0  0  0  0  0  0  0  0  0
    0.9090   65.7330   70.6750 C   0  0  0  0  0  0  0  0  0  0  0  0
    1.4460   66.5700   69.5120 C   0  0  0  0  0  0  0  0  0  0  0  0
    0.3700   67.2340   68.6480 C   0  0  0  0  0  0  0  0  0  0  0  0
    0.8720   67.9350   67.4120 N   0  0  1  0  0  4  0  0  0  0  0  0
    0.1110   67.6200   66.1560 C   0  0  0  0  0  0  0  0  0  0  0  0
    1.1270   69.4170   67.5960 C   0  0  0  0  0  0  0  0  0  0  0  0
    3.4930   69.5720   66.6820 C   0  0  0  0  0  0  0  0  0  0  0  0
    4.8440   69.8760   66.8670 C   0  0  0  0  0  0  0  0  0  0  0  0
    5.2970   70.3600   68.0950 C   0  0  0  0  0  0  0  0  0  0  0  0
    4.4090   70.5420   69.1490 C   0  0  0  0  0  0  0  0  0  0  0  0
    3.0590   70.2380   68.9790 C   0  0  0  0  0  0  0  0  0  0  0  0
    2.5870   69.7530   67.7460 C   0  0  0  0  0  0  0  0  0  0  0  0
    3.6160   67.9440   64.9450 C   0  0  0  0  0  0  0  0  0  0  0  0
    2.9570   69.0700   65.5250 O   0  0  0  0  0  0  0  0  0  0  0  0
    3.6013   58.6664   73.6514 H   0  0  0  0  0  0  0  0  0  0  0  0
    3.7464   58.4780   71.8388 H   0  0  0  0  0  0  0  0  0  0  0  0
    1.4399   57.9154   71.6338 H   0  0  0  0  0  0  0  0  0  0  0  0
    2.1808   56.8838   72.9430 H   0  0  0  0  0  0  0  0  0  0  0  0
    1.2350   58.4427   74.6342 H   0  0  0  0  0  0  0  0  0  0  0  0
    0.3695   59.2909   73.2688 H   0  0  0  0  0  0  0  0  0  0  0  0
   -1.3306   57.9249   73.7536 H   0  0  0  0  0  0  0  0  0  0  0  0
   -0.3280   56.6806   72.8728 H   0  0  0  0  0  0  0  0  0  0  0  0
   -0.0119   57.1048   75.8438 H   0  0  0  0  0  0  0  0  0  0  0  0
   -1.3444   56.0633   75.1457 H   0  0  0  0  0  0  0  0  0  0  0  0
   -0.1432   53.3959   74.5647 H   0  0  0  0  0  0  0  0  0  0  0  0
   -0.6457   54.6181   73.3480 H   0  0  0  0  0  0  0  0  0  0  0  0
    1.0371   53.9900   73.3480 H   0  0  0  0  0  0  0  0  0  0  0  0
    1.4947   57.0534   76.5504 H   0  0  0  0  0  0  0  0  0  0  0  0
    2.5571   55.7947   77.3272 H   0  0  0  0  0  0  0  0  0  0  0  0
    4.4167   56.7257   76.5645 H   0  0  0  0  0  0  0  0  0  0  0  0
    3.6715   56.9503   74.8954 H   0  0  0  0  0  0  0  0  0  0  0  0
    4.4782   58.9603   76.5646 H   0  0  0  0  0  0  0  0  0  0  0  0
    3.2384   59.0456   75.1962 H   0  0  0  0  0  0  0  0  0  0  0  0
    1.4436   58.8526   76.7329 H   0  0  0  0  0  0  0  0  0  0  0  0
    2.6565   58.6839   78.1164 H   0  0  0  0  0  0  0  0  0  0  0  0
    2.8541   60.8482   78.3729 H   0  0  0  0  0  0  0  0  0  0  0  0
    2.9642   61.1249   76.5759 H   0  0  0  0  0  0  0  0  0  0  0  0
    0.4007   60.4889   77.7720 H   0  0  0  0  0  0  0  0  0  0  0  0
    0.8794   62.0850   79.3278 H   0  0  0  0  0  0  0  0  0  0  0  0
    1.6304   63.1401   78.0830 H   0  0  0  0  0  0  0  0  0  0  0  0
   -0.1463   62.8756   78.0830 H   0  0  0  0  0  0  0  0  0  0  0  0
    0.4351   62.5949   75.8452 H   0  0  0  0  0  0  0  0  0  0  0  0
    1.2879   61.0751   75.2844 H   0  0  0  0  0  0  0  0  0  0  0  0
   -0.7050   59.4936   77.2991 H   0  0  0  0  0  0  0  0  0  0  0  0
   -2.8958   58.4331   76.7777 H   0  0  0  0  0  0  0  0  0  0  0  0
   -4.2197   59.2051   74.8174 H   0  0  0  0  0  0  0  0  0  0  0  0
   -3.3623   61.0423   73.3678 H   0  0  0  0  0  0  0  0  0  0  0  0
    0.3231   61.2846   72.5289 H   0  0  0  0  0  0  0  0  0  0  0  0
   -1.3553   61.4721   71.9169 H   0  0  0  0  0  0  0  0  0  0  0  0
   -0.2371   62.8779   71.9169 H   0  0  0  0  0  0  0  0  0  0  0  0
    2.5900   60.4498   71.4094 H   0  0  0  0  0  0  0  0  0  0  0  0
    1.9324   60.5182   73.1122 H   0  0  0  0  0  0  0  0  0  0  0  0
    3.5287   61.9982   73.5396 H   0  0  0  0  0  0  0  0  0  0  0  0
    4.6774   60.5824   73.4371 H   0  0  0  0  0  0  0  0  0  0  0  0
    4.8042   62.9231   71.9438 H   0  0  0  0  0  0  0  0  0  0  0  0
    5.6283   61.3225   71.6066 H   0  0  0  0  0  0  0  0  0  0  0  0
    4.5499   59.7249   70.2816 H   0  0  0  0  0  0  0  0  0  0  0  0
    3.4447   60.3079   68.9911 H   0  0  0  0  0  0  0  0  0  0  0  0
    5.1694   60.8100   68.9911 H   0  0  0  0  0  0  0  0  0  0  0  0
    3.0032   63.7263   71.7560 H   0  0  0  0  0  0  0  0  0  0  0  0
    3.3180   64.7783   70.3092 H   0  0  0  0  0  0  0  0  0  0  0  0
    0.9010   63.8557   69.6276 H   0  0  0  0  0  0  0  0  0  0  0  0
    0.7840   63.7631   71.4614 H   0  0  0  0  0  0  0  0  0  0  0  0
   -0.1868   65.8274   70.6908 H   0  0  0  0  0  0  0  0  0  0  0  0
    1.3836   66.1204   71.5886 H   0  0  0  0  0  0  0  0  0  0  0  0
    2.0876   67.3611   69.9274 H   0  0  0  0  0  0  0  0  0  0  0  0
    1.9862   65.8741   68.8532 H   0  0  0  0  0  0  0  0  0  0  0  0
   -0.3390   66.4548   68.3314 H   0  0  0  0  0  0  0  0  0  0  0  0
   -0.0819   68.0158   69.2762 H   0  0  0  0  0  0  0  0  0  0  0  0
    1.8012   67.5152   67.2662 H   0  0  0  0  0  0  0  0  0  0  0  0
   -0.8761   67.2114   66.4181 H   0  0  0  0  0  0  0  0  0  0  0  0
   -0.0176   68.5388   65.5650 H   0  0  0  0  0  0  0  0  0  0  0  0
    0.6694   66.8791   65.5650 H   0  0  0  0  0  0  0  0  0  0  0  0
    0.7336   69.9511   66.7185 H   0  0  0  0  0  0  0  0  0  0  0  0
    0.6239   69.7226   68.5252 H   0  0  0  0  0  0  0  0  0  0  0  0
    5.5548   69.7330   66.0398 H   0  0  0  0  0  0  0  0  0  0  0  0
    6.3623   70.5987   68.2297 H   0  0  0  0  0  0  0  0  0  0  0  0
    4.7706   70.9249   70.1147 H   0  0  0  0  0  0  0  0  0  0  0  0
    2.3581   70.3784   69.8151 H   0  0  0  0  0  0  0  0  0  0  0  0
    3.9980   67.2912   65.7437 H   0  0  0  0  0  0  0  0  0  0  0  0
    2.9037   67.3830   64.3222 H   0  0  0  0  0  0  0  0  0  0  0  0
    4.4540   68.2903   64.3222 H   0  0  0  0  0  0  0  0  0  0  0  0
  2  1  1  0
  3  2  1  0
  4  3  1  0
  5  4  1  0
  6  5  1  0
  7  6  1  0
  8  7  2  0
  9  6  1  0
 10  7  1  0
 11 10  1  0
 12 11  1  0
 13 12  1  0
 14 13  1  0
 15 14  1  0
 16 15  1  0
 17 15  1  0
 18 17  1  0
 19 18  2  0
 20 19  1  0
 21 20  2  0
 22 21  1  0
 23 18  1  0
 23 22  2  0
 24 23  1  0
 25 24  1  0
 26  1  1  0
 27 26  1  0
 28 27  1  0
 30 29  2  0
 31 29  1  0
 31 28  1  0
 32 31  1  0
 33 29  1  0
 34 33  1  0
 35 34  1  0
 36 35  1  0
 37 36  1  0
 38 37  1  0
 39 38  1  0
 40 38  1  0
 42 41  2  0
 43 42  1  0
 44 43  2  0
 45 44  1  0
 46 40  1  0
 46 41  1  0
 46 45  2  0
 48 47  1  0
 48 41  1  0
  1 49  1  0
  1 50  1  0
  2 51  1  0
  2 52  1  0
  3 53  1  0
  3 54  1  0
  4 55  1  0
  4 56  1  0
  5 57  1  0
  5 58  1  0
  9 59  1  0
  9 60  1  0
  9 61  1  0
 10 62  1  0
 10 63  1  0
 11 64  1  0
 11 65  1  0
 12 66  1  0
 12 67  1  0
 13 68  1  0
 13 69  1  0
 14 70  1  0
 14 71  1  0
 15 72  1  1
 16 73  1  0
 16 74  1  0
 16 75  1  0
 17 76  1  0
 17 77  1  0
 19 78  1  0
 20 79  1  0
 21 80  1  0
 22 81  1  0
 25 82  1  0
 25 83  1  0
 25 84  1  0
 26 85  1  0
 26 86  1  0
 27 87  1  0
 27 88  1  0
 28 89  1  0
 28 90  1  0
 32 91  1  0
 32 92  1  0
 32 93  1  0
 33 94  1  0
 33 95  1  0
 34 96  1  0
 34 97  1  0
 35 98  1  0
 35 99  1  0
 36100  1  0
 36101  1  0
 37102  1  0
 37103  1  0
 38104  1  6
 39105  1  0
 39106  1  0
 39107  1  0
 40108  1  0
 40109  1  0
 42110  1  0
 43111  1  0
 44112  1  0
 45113  1  0
 47114  1  0
 47115  1  0
 47116  1  0
M  CHG  2  15   1  38   1
M  END
>  <score>  (9) 
-8.13

$$$$
