=
     RDKit          3D

 28 29  0  0  0  0  0  0  0  0999 V2000
    4.3670   67.1310   62.3940 C   0  0  1  0  0  0  0  0  0  0  0  0
    2.9680   67.4780   62.2820 O   0  0  0  0  0  0  0  0  0  0  0  0
    2.7460   68.7280   62.9710 C   0  0  2  0  0  0  0  0  0  0  0  0
    4.0170   69.0410   63.7520 C   0  0  0  0  0  0  0  0  0  0  0  0
    5.0760   68.3900   62.8950 C   0  0  2  0  0  0  0  0  0  0  0  0
    1.5530   68.6680   63.8090 N   0  0  0  0  0  0  0  0  0  0  0  0
    1.6200   68.3370   65.1520 C   0  0  0  0  0  0  0  0  0  0  0  0
    0.5450   68.3070   65.9500 C   0  0  0  0  0  0  0  0  0  0  0  0
    0.6700   67.8160   67.9290 I   0  0  0  0  0  0  0  0  0  0  0  0
   -0.7720   68.6540   65.3500 C   0  0  0  0  0  0  0  0  0  0  0  0
   -1.8200   68.6790   65.9870 O   0  0  0  0  0  0  0  0  0  0  0  0
   -0.7540   68.9590   64.0150 N   0  0  0  0  0  0  0  0  0  0  0  0
    0.3490   69.0060   63.2050 C   0  0  0  0  0  0  0  0  0  0  0  0
    0.2390   69.3390   62.0290 O   0  0  0  0  0  0  0  0  0  0  0  0
    5.3950   69.2770   61.8170 O   0  0  0  0  0  0  0  0  0  0  0  0
    4.5020   65.9380   63.3450 C   0  0  0  0  0  0  0  0  0  0  0  0
    4.1610   64.7280   62.6870 O   0  0  0  0  0  0  0  0  0  0  0  0
    4.8217   66.8202   61.4418 H   0  0  0  0  0  0  0  0  0  0  0  0
    2.5481   69.5445   62.2610 H   0  0  0  0  0  0  0  0  0  0  0  0
    4.1795   70.1258   63.8340 H   0  0  0  0  0  0  0  0  0  0  0  0
    4.0012   68.6797   64.7908 H   0  0  0  0  0  0  0  0  0  0  0  0
    6.0212   68.1620   63.4094 H   0  0  0  0  0  0  0  0  0  0  0  0
    2.6008   68.0874   65.5829 H   0  0  0  0  0  0  0  0  0  0  0  0
   -1.6607   69.1746   63.5765 H   0  0  0  0  0  0  0  0  0  0  0  0
    5.7063   70.1426   62.1830 H   0  0  0  0  0  0  0  0  0  0  0  0
    5.5414   65.8752   63.6995 H   0  0  0  0  0  0  0  0  0  0  0  0
    3.8164   66.0836   64.1928 H   0  0  0  0  0  0  0  0  0  0  0  0
    3.9643   64.0300   63.3609 H   0  0  0  0  0  0  0  0  0  0  0  0
  2  1  1  0
  3  2  1  0
  4  3  1  0
  5  4  1  0
  5  1  1  0
  6  3  1  0
  7  6  1  0
  8  7  2  0
  9  8  1  0
 10  8  1  0
 11 10  2  0
 12 10  1  0
 13 12  1  0
 13  6  1  0
 14 13  2  0
 15  5  1  0
 16  1  1  0
 17 16  1  0
  1 18  1  6
  3 19  1  6
  4 20  1  0
  4 21  1  0
  5 22  1  1
  7 23  1  0
 12 24  1  0
 15 25  1  0
 16 26  1  0
 16 27  1  0
 17 28  1  0
M  END
>  <score>  (1) 
-8.071

$$$$
=
     RDKit          3D

 28 29  0  0  0  0  0  0  0  0999 V2000
    0.7030   68.9960   67.6220 C   0  0  1  0  0  0  0  0  0  0  0  0
    0.3240   69.2260   66.2450 O   0  0  0  0  0  0  0  0  0  0  0  0
    0.5960   68.0280   65.4860 C   0  0  2  0  0  0  0  0  0  0  0  0
    1.4080   67.1020   66.3840 C   0  0  0  0  0  0  0  0  0  0  0  0
    0.9100   67.4870   67.7560 C   0  0  2  0  0  0  0  0  0  0  0  0
    1.2630   68.3390   64.2240 N   0  0  0  0  0  0  0  0  0  0  0  0
    2.6390   68.4500   64.1340 C   0  0  0  0  0  0  0  0  0  0  0  0
    3.2770   68.7000   62.9830 C   0  0  0  0  0  0  0  0  0  0  0  0
    5.3110   68.8580   62.8740 I   0  0  0  0  0  0  0  0  0  0  0  0
    2.4500   68.8600   61.7550 C   0  0  0  0  0  0  0  0  0  0  0  0
    2.9240   69.0730   60.6440 O   0  0  0  0  0  0  0  0  0  0  0  0
    1.0970   68.7470   61.9320 N   0  0  0  0  0  0  0  0  0  0  0  0
    0.4500   68.4730   63.1060 C   0  0  0  0  0  0  0  0  0  0  0  0
   -0.7720   68.3520   63.1250 O   0  0  0  0  0  0  0  0  0  0  0  0
   -0.3280   66.8060   67.9970 O   0  0  0  0  0  0  0  0  0  0  0  0
    1.9630   69.8120   67.9270 C   0  0  0  0  0  0  0  0  0  0  0  0
    1.6570   70.9220   68.7550 O   0  0  0  0  0  0  0  0  0  0  0  0
   -0.0573   69.3185   68.3486 H   0  0  0  0  0  0  0  0  0  0  0  0
   -0.3360   67.5219   65.1940 H   0  0  0  0  0  0  0  0  0  0  0  0
    1.1979   66.0450   66.1637 H   0  0  0  0  0  0  0  0  0  0  0  0
    2.4963   67.2036   66.2606 H   0  0  0  0  0  0  0  0  0  0  0  0
    1.5820   67.2292   68.5879 H   0  0  0  0  0  0  0  0  0  0  0  0
    3.2365   68.3274   65.0494 H   0  0  0  0  0  0  0  0  0  0  0  0
    0.5075   68.8817   61.0982 H   0  0  0  0  0  0  0  0  0  0  0  0
   -0.4755   66.7249   68.9726 H   0  0  0  0  0  0  0  0  0  0  0  0
    2.6930   69.1694   68.4409 H   0  0  0  0  0  0  0  0  0  0  0  0
    2.3798   70.1838   66.9793 H   0  0  0  0  0  0  0  0  0  0  0  0
    1.7306   70.6549   69.7055 H   0  0  0  0  0  0  0  0  0  0  0  0
  2  1  1  0
  3  2  1  0
  4  3  1  0
  5  4  1  0
  5  1  1  0
  6  3  1  0
  7  6  1  0
  8  7  2  0
  9  8  1  0
 10  8  1  0
 11 10  2  0
 12 10  1  0
 13 12  1  0
 13  6  1  0
 14 13  2  0
 15  5  1  0
 16  1  1  0
 17 16  1  0
  1 18  1  1
  3 19  1  6
  4 20  1  0
  4 21  1  0
  5 22  1  1
  7 23  1  0
 12 24  1  0
 15 25  1  0
 16 26  1  0
 16 27  1  0
 17 28  1  0
M  END
>  <score>  (2) 
-7.876

$$$$
=
     RDKit          3D

 28 29  0  0  0  0  0  0  0  0999 V2000
    3.1850   66.7320   63.6810 C   0  0  1  0  0  0  0  0  0  0  0  0
    2.5010   67.2200   64.8580 O   0  0  0  0  0  0  0  0  0  0  0  0
    2.5630   68.6630   64.8610 C   0  0  2  0  0  0  0  0  0  0  0  0
    3.5400   69.0730   63.7660 C   0  0  0  0  0  0  0  0  0  0  0  0
    3.3840   67.9460   62.7740 C   0  0  2  0  0  0  0  0  0  0  0  0
    2.9240   69.1760   66.1790 N   0  0  0  0  0  0  0  0  0  0  0  0
    4.1890   69.6690   66.4490 C   0  0  0  0  0  0  0  0  0  0  0  0
    4.5350   70.1760   67.6390 C   0  0  0  0  0  0  0  0  0  0  0  0
    6.4090   70.8990   68.0140 I   0  0  0  0  0  0  0  0  0  0  0  0
    3.4980   70.2070   68.7070 C   0  0  0  0  0  0  0  0  0  0  0  0
    3.6940   70.6650   69.8270 O   0  0  0  0  0  0  0  0  0  0  0  0
    2.2770   69.6920   68.3620 N   0  0  0  0  0  0  0  0  0  0  0  0
    1.9210   69.1900   67.1390 C   0  0  0  0  0  0  0  0  0  0  0  0
    0.7740   68.7970   66.9420 O   0  0  0  0  0  0  0  0  0  0  0  0
    2.2210   68.2020   61.9760 O   0  0  0  0  0  0  0  0  0  0  0  0
    4.4990   66.0740   64.1140 C   0  0  0  0  0  0  0  0  0  0  0  0
    4.8820   65.0600   63.1990 O   0  0  0  0  0  0  0  0  0  0  0  0
    2.6218   65.9639   63.1307 H   0  0  0  0  0  0  0  0  0  0  0  0
    1.5779   69.1040   64.6487 H   0  0  0  0  0  0  0  0  0  0  0  0
    3.2604   70.0394   63.3212 H   0  0  0  0  0  0  0  0  0  0  0  0
    4.5717   69.2146   64.1202 H   0  0  0  0  0  0  0  0  0  0  0  0
    4.2252   67.8146   62.0775 H   0  0  0  0  0  0  0  0  0  0  0  0
    4.9443   69.6431   65.6497 H   0  0  0  0  0  0  0  0  0  0  0  0
    1.5543   69.6812   69.0958 H   0  0  0  0  0  0  0  0  0  0  0  0
    1.4458   68.3726   62.5677 H   0  0  0  0  0  0  0  0  0  0  0  0
    5.2885   66.8389   64.1554 H   0  0  0  0  0  0  0  0  0  0  0  0
    4.3543   65.6178   65.1044 H   0  0  0  0  0  0  0  0  0  0  0  0
    5.1838   64.2609   63.6994 H   0  0  0  0  0  0  0  0  0  0  0  0
  2  1  1  0
  3  2  1  0
  4  3  1  0
  5  4  1  0
  5  1  1  0
  6  3  1  0
  7  6  1  0
  8  7  2  0
  9  8  1  0
 10  8  1  0
 11 10  2  0
 12 10  1  0
 13 12  1  0
 13  6  1  0
 14 13  2  0
 15  5  1  0
 16  1  1  0
 17 16  1  0
  1 18  1  6
  3 19  1  6
  4 20  1  0
  4 21  1  0
  5 22  1  6
  7 23  1  0
 12 24  1  0
 15 25  1  0
 16 26  1  0
 16 27  1  0
 17 28  1  0
M  END
>  <score>  (3) 
-7.874

$$$$
=
     RDKit          3D

 28 29  0  0  0  0  0  0  0  0999 V2000
    5.1030   68.3870   62.7880 C   0  0  1  0  0  0  0  0  0  0  0  0
    4.5830   67.5040   63.8090 O   0  0  0  0  0  0  0  0  0  0  0  0
    3.1410   67.5450   63.7640 C   0  0  2  0  0  0  0  0  0  0  0  0
    2.7530   68.6920   62.8370 C   0  0  0  0  0  0  0  0  0  0  0  0
    3.9200   68.7230   61.8790 C   0  0  2  0  0  0  0  0  0  0  0  0
    2.5710   67.6670   65.1020 N   0  0  0  0  0  0  0  0  0  0  0  0
    2.9900   68.6440   65.9880 C   0  0  0  0  0  0  0  0  0  0  0  0
    2.4600   68.7980   67.2080 C   0  0  0  0  0  0  0  0  0  0  0  0
    3.0960   70.2490   68.4990 I   0  0  0  0  0  0  0  0  0  0  0  0
    1.3680   67.8700   67.6110 C   0  0  0  0  0  0  0  0  0  0  0  0
    0.7960   67.9280   68.6940 O   0  0  0  0  0  0  0  0  0  0  0  0
    1.0200   66.9270   66.6810 N   0  0  0  0  0  0  0  0  0  0  0  0
    1.5510   66.7830   65.4280 C   0  0  0  0  0  0  0  0  0  0  0  0
    1.1180   65.9200   64.6680 O   0  0  0  0  0  0  0  0  0  0  0  0
    3.7180   67.7130   60.8840 O   0  0  0  0  0  0  0  0  0  0  0  0
    5.7170   69.6150   63.4670 C   0  0  0  0  0  0  0  0  0  0  0  0
    6.0720   69.3240   64.8100 O   0  0  0  0  0  0  0  0  0  0  0  0
    5.9033   67.9377   62.1817 H   0  0  0  0  0  0  0  0  0  0  0  0
    2.7288   66.6051   63.3681 H   0  0  0  0  0  0  0  0  0  0  0  0
    1.8095   68.4813   62.3122 H   0  0  0  0  0  0  0  0  0  0  0  0
    2.5780   69.6454   63.3570 H   0  0  0  0  0  0  0  0  0  0  0  0
    4.0609   69.6729   61.3425 H   0  0  0  0  0  0  0  0  0  0  0  0
    3.7953   69.3252   65.6758 H   0  0  0  0  0  0  0  0  0  0  0  0
    0.2845   66.2588   66.9519 H   0  0  0  0  0  0  0  0  0  0  0  0
    3.5443   66.8444   61.3260 H   0  0  0  0  0  0  0  0  0  0  0  0
    6.6176   69.9202   62.9140 H   0  0  0  0  0  0  0  0  0  0  0  0
    4.9740   70.4262   63.4667 H   0  0  0  0  0  0  0  0  0  0  0  0
    5.4715   69.8163   65.4241 H   0  0  0  0  0  0  0  0  0  0  0  0
  2  1  1  0
  3  2  1  0
  4  3  1  0
  5  4  1  0
  5  1  1  0
  6  3  1  0
  7  6  1  0
  8  7  2  0
  9  8  1  0
 10  8  1  0
 11 10  2  0
 12 10  1  0
 13 12  1  0
 13  6  1  0
 14 13  2  0
 15  5  1  0
 16  1  1  0
 17 16  1  0
  1 18  1  6
  3 19  1  6
  4 20  1  0
  4 21  1  0
  5 22  1  6
  7 23  1  0
 12 24  1  0
 15 25  1  0
 16 26  1  0
 16 27  1  0
 17 28  1  0
M  END
>  <score>  (4) 
-7.023

$$$$
=
     RDKit          3D

 28 29  0  0  0  0  0  0  0  0999 V2000
    4.6030   60.0990   71.1790 C   0  0  1  0  0  0  0  0  0  0  0  0
    3.4220   60.4220   71.9490 O   0  0  0  0  0  0  0  0  0  0  0  0
    2.3770   60.8280   71.0400 C   0  0  2  0  0  0  0  0  0  0  0  0
    3.0170   60.9990   69.6670 C   0  0  0  0  0  0  0  0  0  0  0  0
    4.1450   59.9970   69.7250 C   0  0  2  0  0  0  0  0  0  0  0  0
    1.6980   62.0300   71.5150 N   0  0  0  0  0  0  0  0  0  0  0  0
    1.6650   63.1940   70.7660 C   0  0  0  0  0  0  0  0  0  0  0  0
    1.0210   64.2980   71.1630 C   0  0  0  0  0  0  0  0  0  0  0  0
    0.9850   66.0040   70.0390 I   0  0  0  0  0  0  0  0  0  0  0  0
    0.3100   64.2530   72.4710 C   0  0  0  0  0  0  0  0  0  0  0  0
   -0.3270   65.1960   72.9270 O   0  0  0  0  0  0  0  0  0  0  0  0
    0.4010   63.0700   73.1530 N   0  0  0  0  0  0  0  0  0  0  0  0
    1.0450   61.9360   72.7370 C   0  0  0  0  0  0  0  0  0  0  0  0
    1.0160   60.9190   73.4250 O   0  0  0  0  0  0  0  0  0  0  0  0
    3.6140   58.7000   69.4300 O   0  0  0  0  0  0  0  0  0  0  0  0
    5.6540   61.1890   71.4110 C   0  0  0  0  0  0  0  0  0  0  0  0
    5.4740   61.8010   72.6790 O   0  0  0  0  0  0  0  0  0  0  0  0
    5.0738   59.1490   71.4721 H   0  0  0  0  0  0  0  0  0  0  0  0
    1.5863   60.0659   70.9765 H   0  0  0  0  0  0  0  0  0  0  0  0
    2.3078   60.7575   68.8616 H   0  0  0  0  0  0  0  0  0  0  0  0
    3.3449   62.0270   69.4533 H   0  0  0  0  0  0  0  0  0  0  0  0
    4.9664   60.1729   69.0148 H   0  0  0  0  0  0  0  0  0  0  0  0
    2.1921   63.2122   69.8007 H   0  0  0  0  0  0  0  0  0  0  0  0
   -0.0619   63.0288   74.0722 H   0  0  0  0  0  0  0  0  0  0  0  0
    3.4188   58.2232   70.2754 H   0  0  0  0  0  0  0  0  0  0  0  0
    6.6566   60.7385   71.3671 H   0  0  0  0  0  0  0  0  0  0  0  0
    5.5445   61.9563   70.6304 H   0  0  0  0  0  0  0  0  0  0  0  0
    5.6674   61.1434   73.3933 H   0  0  0  0  0  0  0  0  0  0  0  0
  2  1  1  0
  3  2  1  0
  4  3  1  0
  5  4  1  0
  5  1  1  0
  6  3  1  0
  7  6  1  0
  8  7  2  0
  9  8  1  0
 10  8  1  0
 11 10  2  0
 12 10  1  0
 13 12  1  0
 13  6  1  0
 14 13  2  0
 15  5  1  0
 16  1  1  0
 17 16  1  0
  1 18  1  1
  3 19  1  6
  4 20  1  0
  4 21  1  0
  5 22  1  6
  7 23  1  0
 12 24  1  0
 15 25  1  0
 16 26  1  0
 16 27  1  0
 17 28  1  0
M  END
>  <score>  (5) 
-6.619

$$$$
=
     RDKit          3D

 28 29  0  0  0  0  0  0  0  0999 V2000
    4.1910   60.4010   71.0650 C   0  0  1  0  0  0  0  0  0  0  0  0
    2.9800   61.1870   70.9780 O   0  0  0  0  0  0  0  0  0  0  0  0
    2.6590   61.6850   72.2950 C   0  0  2  0  0  0  0  0  0  0  0  0
    3.5760   60.9710   73.2810 C   0  0  0  0  0  0  0  0  0  0  0  0
    4.7980   60.7100   72.4340 C   0  0  2  0  0  0  0  0  0  0  0  0
    1.2410   61.5120   72.5960 N   0  0  0  0  0  0  0  0  0  0  0  0
    0.7700   60.4080   73.2860 C   0  0  0  0  0  0  0  0  0  0  0  0
   -0.5200   60.2430   73.6040 C   0  0  0  0  0  0  0  0  0  0  0  0
   -1.1910   58.6040   74.6240 I   0  0  0  0  0  0  0  0  0  0  0  0
   -1.4770   61.3070   73.1920 C   0  0  0  0  0  0  0  0  0  0  0  0
   -2.6760   61.2730   73.4450 O   0  0  0  0  0  0  0  0  0  0  0  0
   -0.9320   62.3590   72.5050 N   0  0  0  0  0  0  0  0  0  0  0  0
    0.3900   62.5350   72.1980 C   0  0  0  0  0  0  0  0  0  0  0  0
    0.7590   63.5490   71.6130 O   0  0  0  0  0  0  0  0  0  0  0  0
    5.5900   61.9030   72.4010 O   0  0  0  0  0  0  0  0  0  0  0  0
    3.8320   58.9240   70.8780 C   0  0  0  0  0  0  0  0  0  0  0  0
    3.7820   58.5870   69.5010 O   0  0  0  0  0  0  0  0  0  0  0  0
    4.9289   60.6404   70.2852 H   0  0  0  0  0  0  0  0  0  0  0  0
    2.8305   62.7694   72.3635 H   0  0  0  0  0  0  0  0  0  0  0  0
    3.8152   61.6125   74.1420 H   0  0  0  0  0  0  0  0  0  0  0  0
    3.1367   60.0633   73.7203 H   0  0  0  0  0  0  0  0  0  0  0  0
    5.4541   59.9032   72.7926 H   0  0  0  0  0  0  0  0  0  0  0  0
    1.4883   59.6311   73.5866 H   0  0  0  0  0  0  0  0  0  0  0  0
   -1.5827   63.0915   72.1874 H   0  0  0  0  0  0  0  0  0  0  0  0
    5.7844   62.1958   73.3265 H   0  0  0  0  0  0  0  0  0  0  0  0
    4.5924   58.3027   71.3737 H   0  0  0  0  0  0  0  0  0  0  0  0
    2.8413   58.7437   71.3208 H   0  0  0  0  0  0  0  0  0  0  0  0
    3.6374   57.6124   69.4048 H   0  0  0  0  0  0  0  0  0  0  0  0
  2  1  1  0
  3  2  1  0
  4  3  1  0
  5  4  1  0
  5  1  1  0
  6  3  1  0
  7  6  1  0
  8  7  2  0
  9  8  1  0
 10  8  1  0
 11 10  2  0
 12 10  1  0
 13 12  1  0
 13  6  1  0
 14 13  2  0
 15  5  1  0
 16  1  1  0
 17 16  1  0
  1 18  1  6
  3 19  1  6
  4 20  1  0
  4 21  1  0
  5 22  1  1
  7 23  1  0
 12 24  1  0
 15 25  1  0
 16 26  1  0
 16 27  1  0
 17 28  1  0
M  END
>  <score>  (6) 
-6.477

$$$$
=
     RDKit          3D

 28 29  0  0  0  0  0  0  0  0999 V2000
    4.7040   67.7530   63.7400 C   0  0  1  0  0  0  0  0  0  0  0  0
    3.4630   67.1140   64.1200 O   0  0  0  0  0  0  0  0  0  0  0  0
    2.4040   67.6290   63.2840 C   0  0  2  0  0  0  0  0  0  0  0  0
    2.9740   68.8180   62.5190 C   0  0  0  0  0  0  0  0  0  0  0  0
    4.4310   68.4410   62.4020 C   0  0  2  0  0  0  0  0  0  0  0  0
    1.2210   67.9620   64.0710 N   0  0  0  0  0  0  0  0  0  0  0  0
    1.1370   67.6720   65.4220 C   0  0  0  0  0  0  0  0  0  0  0  0
    0.0770   67.9970   66.1730 C   0  0  0  0  0  0  0  0  0  0  0  0
   -0.0230   67.5580   68.1660 I   0  0  0  0  0  0  0  0  0  0  0  0
   -1.0500   68.7060   65.5090 C   0  0  0  0  0  0  0  0  0  0  0  0
   -2.0620   69.0700   66.1000 O   0  0  0  0  0  0  0  0  0  0  0  0
   -0.8930   68.9460   64.1700 N   0  0  0  0  0  0  0  0  0  0  0  0
    0.1990   68.6290   63.4080 C   0  0  0  0  0  0  0  0  0  0  0  0
    0.2360   68.9400   62.2210 O   0  0  0  0  0  0  0  0  0  0  0  0
    4.5770   67.5320   61.3040 O   0  0  0  0  0  0  0  0  0  0  0  0
    5.1170   68.7240   64.8500 C   0  0  0  0  0  0  0  0  0  0  0  0
    5.8400   69.8220   64.3170 O   0  0  0  0  0  0  0  0  0  0  0  0
    5.5420   67.0511   63.6171 H   0  0  0  0  0  0  0  0  0  0  0  0
    2.0586   66.8703   62.5663 H   0  0  0  0  0  0  0  0  0  0  0  0
    2.5057   68.9187   61.5288 H   0  0  0  0  0  0  0  0  0  0  0  0
    2.8030   69.7871   63.0106 H   0  0  0  0  0  0  0  0  0  0  0  0
    5.1186   69.2790   62.2150 H   0  0  0  0  0  0  0  0  0  0  0  0
    1.9793   67.1509   65.9004 H   0  0  0  0  0  0  0  0  0  0  0  0
   -1.6750   69.4118   63.6879 H   0  0  0  0  0  0  0  0  0  0  0  0
    4.7240   66.6165   61.6508 H   0  0  0  0  0  0  0  0  0  0  0  0
    4.2146   69.0980   65.3558 H   0  0  0  0  0  0  0  0  0  0  0  0
    5.7626   68.1900   65.5627 H   0  0  0  0  0  0  0  0  0  0  0  0
    6.2010   70.3703   65.0580 H   0  0  0  0  0  0  0  0  0  0  0  0
  2  1  1  0
  3  2  1  0
  4  3  1  0
  5  4  1  0
  5  1  1  0
  6  3  1  0
  7  6  1  0
  8  7  2  0
  9  8  1  0
 10  8  1  0
 11 10  2  0
 12 10  1  0
 13 12  1  0
 13  6  1  0
 14 13  2  0
 15  5  1  0
 16  1  1  0
 17 16  1  0
  1 18  1  6
  3 19  1  6
  4 20  1  0
  4 21  1  0
  5 22  1  6
  7 23  1  0
 12 24  1  0
 15 25  1  0
 16 26  1  0
 16 27  1  0
 17 28  1  0
M  END
>  <score>  (7) 
-6.455

$$$$
=
     RDKit          3D

 28 29  0  0  0  0  0  0  0  0999 V2000
    0.4060   68.5130   67.8040 C   0  0  1  0  0  0  0  0  0  0  0  0
    1.2720   68.8720   66.7030 O   0  0  0  0  0  0  0  0  0  0  0  0
    0.7740   68.2440   65.5010 C   0  0  2  0  0  0  0  0  0  0  0  0
   -0.3050   67.2550   65.9260 C   0  0  0  0  0  0  0  0  0  0  0  0
   -0.8490   67.9070   67.1740 C   0  0  2  0  0  0  0  0  0  0  0  0
    1.8550   67.6260   64.7380 N   0  0  0  0  0  0  0  0  0  0  0  0
    2.3520   66.3750   65.0580 C   0  0  0  0  0  0  0  0  0  0  0  0
    3.3190   65.7720   64.3540 C   0  0  0  0  0  0  0  0  0  0  0  0
    4.0350   63.9230   64.8450 I   0  0  0  0  0  0  0  0  0  0  0  0
    3.8690   66.4950   63.1750 C   0  0  0  0  0  0  0  0  0  0  0  0
    4.7410   66.0350   62.4460 O   0  0  0  0  0  0  0  0  0  0  0  0
    3.3310   67.7310   62.9340 N   0  0  0  0  0  0  0  0  0  0  0  0
    2.3300   68.3370   63.6440 C   0  0  0  0  0  0  0  0  0  0  0  0
    1.9030   69.4350   63.2980 O   0  0  0  0  0  0  0  0  0  0  0  0
   -1.7840   68.9210   66.7850 O   0  0  0  0  0  0  0  0  0  0  0  0
    1.1550   67.5430   68.7220 C   0  0  0  0  0  0  0  0  0  0  0  0
    0.3210   66.4570   69.0960 O   0  0  0  0  0  0  0  0  0  0  0  0
    0.1135   69.3677   68.4316 H   0  0  0  0  0  0  0  0  0  0  0  0
    0.3356   68.9853   64.8167 H   0  0  0  0  0  0  0  0  0  0  0  0
   -1.0830   67.1554   65.1547 H   0  0  0  0  0  0  0  0  0  0  0  0
    0.0666   66.2318   66.0843 H   0  0  0  0  0  0  0  0  0  0  0  0
   -1.3793   67.2328   67.8627 H   0  0  0  0  0  0  0  0  0  0  0  0
    1.9339   65.8516   65.9305 H   0  0  0  0  0  0  0  0  0  0  0  0
    3.7187   68.2577   62.1383 H   0  0  0  0  0  0  0  0  0  0  0  0
   -2.1711   69.3408   67.5938 H   0  0  0  0  0  0  0  0  0  0  0  0
    2.0375   67.1543   68.1927 H   0  0  0  0  0  0  0  0  0  0  0  0
    1.4602   68.0823   69.6308 H   0  0  0  0  0  0  0  0  0  0  0  0
    0.2769   66.3996   70.0833 H   0  0  0  0  0  0  0  0  0  0  0  0
  2  1  1  0
  3  2  1  0
  4  3  1  0
  5  4  1  0
  5  1  1  0
  6  3  1  0
  7  6  1  0
  8  7  2  0
  9  8  1  0
 10  8  1  0
 11 10  2  0
 12 10  1  0
 13 12  1  0
 13  6  1  0
 14 13  2  0
 15  5  1  0
 16  1  1  0
 17 16  1  0
  1 18  1  1
  3 19  1  6
  4 20  1  0
  4 21  1  0
  5 22  1  1
  7 23  1  0
 12 24  1  0
 15 25  1  0
 16 26  1  0
 16 27  1  0
 17 28  1  0
M  END
>  <score>  (8) 
-6.417

$$$$
=
     RDKit          3D

 28 29  0  0  0  0  0  0  0  0999 V2000
   -0.4460   62.7480   74.6030 C   0  0  1  0  0  0  0  0  0  0  0  0
   -0.0570   63.4310   73.3890 O   0  0  0  0  0  0  0  0  0  0  0  0
   -0.0610   62.4800   72.3030 C   0  0  2  0  0  0  0  0  0  0  0  0
   -0.2220   61.0950   72.9200 C   0  0  0  0  0  0  0  0  0  0  0  0
   -1.0220   61.4020   74.1640 C   0  0  2  0  0  0  0  0  0  0  0  0
    1.1370   62.6090   71.4790 N   0  0  0  0  0  0  0  0  0  0  0  0
    2.3140   61.9530   71.7950 C   0  0  0  0  0  0  0  0  0  0  0  0
    3.4160   62.0280   71.0380 C   0  0  0  0  0  0  0  0  0  0  0  0
    5.1430   61.0500   71.5240 I   0  0  0  0  0  0  0  0  0  0  0  0
    3.3520   62.8560   69.8020 C   0  0  0  0  0  0  0  0  0  0  0  0
    4.2910   62.9820   69.0230 O   0  0  0  0  0  0  0  0  0  0  0  0
    2.1550   63.4790   69.5680 N   0  0  0  0  0  0  0  0  0  0  0  0
    1.0250   63.3860   70.3340 C   0  0  0  0  0  0  0  0  0  0  0  0
   -0.0040   63.9610   69.9900 O   0  0  0  0  0  0  0  0  0  0  0  0
   -2.4030   61.5140   73.7990 O   0  0  0  0  0  0  0  0  0  0  0  0
    0.7820   62.6190   75.5090 C   0  0  0  0  0  0  0  0  0  0  0  0
    1.8460   63.4290   75.0350 O   0  0  0  0  0  0  0  0  0  0  0  0
   -1.2054   63.2870   75.1885 H   0  0  0  0  0  0  0  0  0  0  0  0
   -0.8969   62.6677   71.6131 H   0  0  0  0  0  0  0  0  0  0  0  0
   -0.7703   60.4184   72.2480 H   0  0  0  0  0  0  0  0  0  0  0  0
    0.7307   60.5822   73.1183 H   0  0  0  0  0  0  0  0  0  0  0  0
   -0.9644   60.6433   74.9584 H   0  0  0  0  0  0  0  0  0  0  0  0
    2.3456   61.3424   72.7094 H   0  0  0  0  0  0  0  0  0  0  0  0
    2.0999   64.0775   68.7316 H   0  0  0  0  0  0  0  0  0  0  0  0
   -2.9581   61.5590   74.6175 H   0  0  0  0  0  0  0  0  0  0  0  0
    0.5135   62.9363   76.5275 H   0  0  0  0  0  0  0  0  0  0  0  0
    1.1112   61.5694   75.5088 H   0  0  0  0  0  0  0  0  0  0  0  0
    2.3416   63.8063   75.8045 H   0  0  0  0  0  0  0  0  0  0  0  0
  2  1  1  0
  3  2  1  0
  4  3  1  0
  5  4  1  0
  5  1  1  0
  6  3  1  0
  7  6  1  0
  8  7  2  0
  9  8  1  0
 10  8  1  0
 11 10  2  0
 12 10  1  0
 13 12  1  0
 13  6  1  0
 14 13  2  0
 15  5  1  0
 16  1  1  0
 17 16  1  0
  1 18  1  1
  3 19  1  6
  4 20  1  0
  4 21  1  0
  5 22  1  1
  7 23  1  0
 12 24  1  0
 15 25  1  0
 16 26  1  0
 16 27  1  0
 17 28  1  0
M  END
>  <score>  (9) 
-6.213

$$$$
