=
     RDKit          3D

 66 69  0  0  0  0  0  0  0  0999 V2000
   -0.0520   66.8390   69.7620 C   0  0  0  0  0  0  0  0  0  0  0  0
    0.4570   65.4690   70.3010 C   0  0  2  0  0  0  0  0  0  0  0  0
    0.0580   65.2860   71.7750 C   0  0  0  0  0  0  0  0  0  0  0  0
    0.3090   63.9400   72.4590 C   0  0  0  0  0  0  0  0  0  0  0  0
    0.1510   62.6650   71.6400 C   0  0  0  0  0  0  0  0  0  0  0  0
    1.0190   62.4010   70.4070 C   0  0  0  0  0  0  0  0  0  0  0  0
    2.4980   62.7650   70.4870 N   0  0  2  0  0  4  0  0  0  0  0  0
    2.7920   64.2630   70.7190 C   0  0  0  0  0  0  0  0  0  0  0  0
    1.9410   65.2510   69.9200 C   0  0  0  0  0  0  0  0  0  0  0  0
    3.1260   62.3760   69.1320 C   0  0  0  0  0  0  0  0  0  0  0  0
    3.2280   61.9750   71.6180 C   0  0  0  0  0  0  0  0  0  0  0  0
    3.0020   60.4820   71.6860 C   0  0  0  0  0  0  0  0  0  0  0  0
    2.1520   59.9160   72.6480 C   0  0  0  0  0  0  0  0  0  0  0  0
    1.9450   58.5360   72.6920 C   0  0  0  0  0  0  0  0  0  0  0  0
    2.5920   57.7020   71.7850 C   0  0  0  0  0  0  0  0  0  0  0  0
    3.4560   58.2440   70.8370 C   0  0  0  0  0  0  0  0  0  0  0  0
    3.6640   59.6240   70.7900 C   0  0  0  0  0  0  0  0  0  0  0  0
   -0.1500   66.9700   68.2370 C   0  0  0  0  0  0  0  0  0  0  0  0
   -1.1650   66.5850   67.6510 O   0  0  0  0  0  0  0  0  0  0  0  0
    4.5710   69.4290   64.8840 C   0  0  0  0  0  0  0  0  0  0  0  0
    3.4670   68.5820   64.7170 C   0  0  0  0  0  0  0  0  0  0  0  0
    2.6440   68.3050   65.8260 C   0  0  0  0  0  0  0  0  0  0  0  0
    1.2470   67.3000   65.8530 S   0  0  0  0  0  0  0  0  0  0  0  0
    0.9630   67.5740   67.5110 C   0  0  0  0  0  0  0  0  0  0  0  0
    1.9210   68.4150   68.0410 C   0  0  0  0  0  0  0  0  0  0  0  0
    2.8980   68.8480   67.0830 C   0  0  0  0  0  0  0  0  0  0  0  0
    4.0180   69.7020   67.2330 C   0  0  0  0  0  0  0  0  0  0  0  0
    4.8480   69.9900   66.1410 C   0  0  0  0  0  0  0  0  0  0  0  0
    5.3240   69.0760   62.6370 C   0  0  0  0  0  0  0  0  0  0  0  0
    5.4390   69.7670   63.8730 O   0  0  0  0  0  0  0  0  0  0  0  0
    5.9520   70.8050   66.2040 O   0  0  0  0  0  0  0  0  0  0  0  0
    6.5700   70.9920   67.4700 C   0  0  0  0  0  0  0  0  0  0  0  0
   -1.0548   67.0127   70.1793 H   0  0  0  0  0  0  0  0  0  0  0  0
    0.7011   67.5775   70.0741 H   0  0  0  0  0  0  0  0  0  0  0  0
   -0.0488   64.6281   69.8040 H   0  0  0  0  0  0  0  0  0  0  0  0
    0.6054   66.0458   72.3520 H   0  0  0  0  0  0  0  0  0  0  0  0
   -1.0388   65.3690   71.7595 H   0  0  0  0  0  0  0  0  0  0  0  0
    1.3417   63.9563   72.8376 H   0  0  0  0  0  0  0  0  0  0  0  0
   -0.4854   63.8721   73.2169 H   0  0  0  0  0  0  0  0  0  0  0  0
    0.3275   61.8272   72.3306 H   0  0  0  0  0  0  0  0  0  0  0  0
   -0.8527   62.7825   71.2055 H   0  0  0  0  0  0  0  0  0  0  0  0
    0.9574   61.3250   70.1868 H   0  0  0  0  0  0  0  0  0  0  0  0
    0.6111   63.0681   69.6333 H   0  0  0  0  0  0  0  0  0  0  0  0
    2.6363   64.4738   71.7873 H   0  0  0  0  0  0  0  0  0  0  0  0
    3.8245   64.4170   70.3721 H   0  0  0  0  0  0  0  0  0  0  0  0
    2.4362   66.2305   69.9935 H   0  0  0  0  0  0  0  0  0  0  0  0
    1.8840   64.7910   68.9224 H   0  0  0  0  0  0  0  0  0  0  0  0
    4.0493   61.8041   69.3065 H   0  0  0  0  0  0  0  0  0  0  0  0
    2.4152   61.7598   68.5619 H   0  0  0  0  0  0  0  0  0  0  0  0
    3.3611   63.2869   68.5619 H   0  0  0  0  0  0  0  0  0  0  0  0
    4.3081   62.1389   71.4897 H   0  0  0  0  0  0  0  0  0  0  0  0
    2.7998   62.3655   72.5530 H   0  0  0  0  0  0  0  0  0  0  0  0
    1.6434   60.5662   73.3751 H   0  0  0  0  0  0  0  0  0  0  0  0
    1.2686   58.1067   73.4457 H   0  0  0  0  0  0  0  0  0  0  0  0
    2.4210   56.6158   71.8170 H   0  0  0  0  0  0  0  0  0  0  0  0
    3.9747   57.5851   70.1251 H   0  0  0  0  0  0  0  0  0  0  0  0
    4.3537   60.0447   70.0435 H   0  0  0  0  0  0  0  0  0  0  0  0
    3.2464   68.1400   63.7342 H   0  0  0  0  0  0  0  0  0  0  0  0
    1.9342   68.7237   69.0967 H   0  0  0  0  0  0  0  0  0  0  0  0
    4.2385   70.1435   68.2161 H   0  0  0  0  0  0  0  0  0  0  0  0
    5.1462   68.0076   62.8294 H   0  0  0  0  0  0  0  0  0  0  0  0
    4.4824   69.4901   62.0623 H   0  0  0  0  0  0  0  0  0  0  0  0
    6.2543   69.1952   62.0623 H   0  0  0  0  0  0  0  0  0  0  0  0
    5.8452   70.7727   68.2678 H   0  0  0  0  0  0  0  0  0  0  0  0
    7.4317   70.3144   67.5610 H   0  0  0  0  0  0  0  0  0  0  0  0
    6.9115   72.0337   67.5610 H   0  0  0  0  0  0  0  0  0  0  0  0
  2  1  1  0
  3  2  1  0
  4  3  1  0
  5  4  1  0
  6  5  1  0
  7  6  1  0
  8  7  1  0
  9  8  1  0
  9  2  1  0
  7 10  1  6
 11  7  1  0
 12 11  1  0
 13 12  2  0
 14 13  1  0
 15 14  2  0
 16 15  1  0
 17 16  2  0
 17 12  1  0
 18  1  1  0
 19 18  2  0
 21 20  2  0
 22 21  1  0
 23 22  1  0
 24 23  1  0
 24 18  1  0
 25 24  2  0
 26 25  1  0
 26 22  2  0
 27 26  1  0
 28 20  1  0
 28 27  2  0
 30 29  1  0
 30 20  1  0
 31 28  1  0
 32 31  1  0
  1 33  1  0
  1 34  1  0
  2 35  1  6
  3 36  1  0
  3 37  1  0
  4 38  1  0
  4 39  1  0
  5 40  1  0
  5 41  1  0
  6 42  1  0
  6 43  1  0
  8 44  1  0
  8 45  1  0
  9 46  1  0
  9 47  1  0
 10 48  1  0
 10 49  1  0
 10 50  1  0
 11 51  1  0
 11 52  1  0
 13 53  1  0
 14 54  1  0
 15 55  1  0
 16 56  1  0
 17 57  1  0
 21 58  1  0
 25 59  1  0
 27 60  1  0
 29 61  1  0
 29 62  1  0
 29 63  1  0
 32 64  1  0
 32 65  1  0
 32 66  1  0
M  CHG  1   7   1
M  END
>  <score>  (1) 
-10.391

$$$$
=
     RDKit          3D

 66 69  0  0  0  0  0  0  0  0999 V2000
    0.7420   66.8450   69.6370 C   0  0  0  0  0  0  0  0  0  0  0  0
    0.9670   65.4450   70.2810 C   0  0  2  0  0  0  0  0  0  0  0  0
    0.3570   65.3930   71.6910 C   0  0  0  0  0  0  0  0  0  0  0  0
    0.3140   64.0610   72.4430 C   0  0  0  0  0  0  0  0  0  0  0  0
    0.0760   62.7830   71.6480 C   0  0  0  0  0  0  0  0  0  0  0  0
    1.0480   62.3360   70.5530 C   0  0  0  0  0  0  0  0  0  0  0  0
    2.5410   62.4880   70.8220 N   0  0  2  0  0  4  0  0  0  0  0  0
    3.0220   63.9380   71.0480 C   0  0  0  0  0  0  0  0  0  0  0  0
    2.4390   64.9970   70.1120 C   0  0  0  0  0  0  0  0  0  0  0  0
    3.2760   61.9470   69.5780 C   0  0  0  0  0  0  0  0  0  0  0  0
    2.9930   61.6580   72.0660 C   0  0  0  0  0  0  0  0  0  0  0  0
    2.7270   60.1700   72.0460 C   0  0  0  0  0  0  0  0  0  0  0  0
    1.7370   59.5950   72.8560 C   0  0  0  0  0  0  0  0  0  0  0  0
    1.4970   58.2200   72.8200 C   0  0  0  0  0  0  0  0  0  0  0  0
    2.2490   57.4000   71.9840 C   0  0  0  0  0  0  0  0  0  0  0  0
    3.2500   57.9510   71.1880 C   0  0  0  0  0  0  0  0  0  0  0  0
    3.4920   59.3250   71.2220 C   0  0  0  0  0  0  0  0  0  0  0  0
   -0.2800   66.9070   68.4950 C   0  0  0  0  0  0  0  0  0  0  0  0
   -1.4520   66.5860   68.7010 O   0  0  0  0  0  0  0  0  0  0  0  0
    1.3580   68.9670   62.7810 C   0  0  0  0  0  0  0  0  0  0  0  0
    0.2250   68.8660   63.5980 C   0  0  0  0  0  0  0  0  0  0  0  0
    0.3540   68.2980   64.8810 C   0  0  0  0  0  0  0  0  0  0  0  0
   -0.8940   68.0740   66.0440 S   0  0  0  0  0  0  0  0  0  0  0  0
    0.1610   67.3710   67.1830 C   0  0  0  0  0  0  0  0  0  0  0  0
    1.4480   67.3020   66.6830 C   0  0  0  0  0  0  0  0  0  0  0  0
    1.5770   67.8330   65.3570 C   0  0  0  0  0  0  0  0  0  0  0  0
    2.7130   67.9430   64.5170 C   0  0  0  0  0  0  0  0  0  0  0  0
    2.6030   68.5060   63.2380 C   0  0  0  0  0  0  0  0  0  0  0  0
    0.1210   70.0280   61.0240 C   0  0  0  0  0  0  0  0  0  0  0  0
    1.3470   69.5020   61.5150 O   0  0  0  0  0  0  0  0  0  0  0  0
    3.6530   68.6470   62.3650 O   0  0  0  0  0  0  0  0  0  0  0  0
    4.1720   67.4740   61.7520 C   0  0  0  0  0  0  0  0  0  0  0  0
    0.4024   67.5285   70.4292 H   0  0  0  0  0  0  0  0  0  0  0  0
    1.7064   67.1204   69.1852 H   0  0  0  0  0  0  0  0  0  0  0  0
    0.4102   64.6625   69.7447 H   0  0  0  0  0  0  0  0  0  0  0  0
    0.9311   66.0943   72.3144 H   0  0  0  0  0  0  0  0  0  0  0  0
   -0.7039   65.6301   71.5232 H   0  0  0  0  0  0  0  0  0  0  0  0
    1.2795   63.9478   72.9578 H   0  0  0  0  0  0  0  0  0  0  0  0
   -0.5730   64.1452   73.0881 H   0  0  0  0  0  0  0  0  0  0  0  0
    0.0340   61.9636   72.3807 H   0  0  0  0  0  0  0  0  0  0  0  0
   -0.8334   63.0223   71.0773 H   0  0  0  0  0  0  0  0  0  0  0  0
    0.8564   61.2703   70.3594 H   0  0  0  0  0  0  0  0  0  0  0  0
    0.8478   63.0150   69.7110 H   0  0  0  0  0  0  0  0  0  0  0  0
    2.7614   64.2211   72.0785 H   0  0  0  0  0  0  0  0  0  0  0  0
    4.1022   63.9251   70.8408 H   0  0  0  0  0  0  0  0  0  0  0  0
    3.0610   65.8975   70.2228 H   0  0  0  0  0  0  0  0  0  0  0  0
    2.4440   64.5009   69.1302 H   0  0  0  0  0  0  0  0  0  0  0  0
    4.1241   61.3227   69.8958 H   0  0  0  0  0  0  0  0  0  0  0  0
    2.5815   61.3429   68.9756 H   0  0  0  0  0  0  0  0  0  0  0  0
    3.6464   62.7896   68.9756 H   0  0  0  0  0  0  0  0  0  0  0  0
    4.0783   61.7973   72.1784 H   0  0  0  0  0  0  0  0  0  0  0  0
    2.3811   62.0411   72.8960 H   0  0  0  0  0  0  0  0  0  0  0  0
    1.1435   60.2338   73.5266 H   0  0  0  0  0  0  0  0  0  0  0  0
    0.7113   57.7836   73.4542 H   0  0  0  0  0  0  0  0  0  0  0  0
    2.0529   56.3181   71.9520 H   0  0  0  0  0  0  0  0  0  0  0  0
    3.8501   57.3031   70.5322 H   0  0  0  0  0  0  0  0  0  0  0  0
    4.2902   59.7521   70.5972 H   0  0  0  0  0  0  0  0  0  0  0  0
   -0.7522   69.2252   63.2430 H   0  0  0  0  0  0  0  0  0  0  0  0
    2.2923   66.8802   67.2481 H   0  0  0  0  0  0  0  0  0  0  0  0
    3.6901   67.5833   64.8719 H   0  0  0  0  0  0  0  0  0  0  0  0
   -0.5244   70.3049   61.8706 H   0  0  0  0  0  0  0  0  0  0  0  0
    0.3235   70.9184   60.4107 H   0  0  0  0  0  0  0  0  0  0  0  0
   -0.3848   69.2677   60.4107 H   0  0  0  0  0  0  0  0  0  0  0  0
    4.4868   66.7625   62.5296 H   0  0  0  0  0  0  0  0  0  0  0  0
    3.3940   67.0125   61.1260 H   0  0  0  0  0  0  0  0  0  0  0  0
    5.0367   67.7393   61.1260 H   0  0  0  0  0  0  0  0  0  0  0  0
  2  1  1  0
  3  2  1  0
  4  3  1  0
  5  4  1  0
  6  5  1  0
  7  6  1  0
  8  7  1  0
  9  8  1  0
  9  2  1  0
  7 10  1  6
 11  7  1  0
 12 11  1  0
 13 12  2  0
 14 13  1  0
 15 14  2  0
 16 15  1  0
 17 16  2  0
 17 12  1  0
 18  1  1  0
 19 18  2  0
 21 20  2  0
 22 21  1  0
 23 22  1  0
 24 23  1  0
 24 18  1  0
 25 24  2  0
 26 25  1  0
 26 22  2  0
 27 26  1  0
 28 20  1  0
 28 27  2  0
 30 29  1  0
 30 20  1  0
 31 28  1  0
 32 31  1  0
  1 33  1  0
  1 34  1  0
  2 35  1  6
  3 36  1  0
  3 37  1  0
  4 38  1  0
  4 39  1  0
  5 40  1  0
  5 41  1  0
  6 42  1  0
  6 43  1  0
  8 44  1  0
  8 45  1  0
  9 46  1  0
  9 47  1  0
 10 48  1  0
 10 49  1  0
 10 50  1  0
 11 51  1  0
 11 52  1  0
 13 53  1  0
 14 54  1  0
 15 55  1  0
 16 56  1  0
 17 57  1  0
 21 58  1  0
 25 59  1  0
 27 60  1  0
 29 61  1  0
 29 62  1  0
 29 63  1  0
 32 64  1  0
 32 65  1  0
 32 66  1  0
M  CHG  1   7   1
M  END
>  <score>  (2) 
-9.334

$$$$
=
     RDKit          3D

 66 69  0  0  0  0  0  0  0  0999 V2000
    0.0760   65.8730   70.5720 C   0  0  0  0  0  0  0  0  0  0  0  0
    0.1090   66.8030   69.3230 C   0  0  2  0  0  0  0  0  0  0  0  0
   -0.9710   66.3870   68.3110 C   0  0  0  0  0  0  0  0  0  0  0  0
   -1.2300   67.2660   67.0850 C   0  0  0  0  0  0  0  0  0  0  0  0
   -1.1090   68.7780   67.2340 C   0  0  0  0  0  0  0  0  0  0  0  0
    0.2130   69.4320   67.6430 C   0  0  0  0  0  0  0  0  0  0  0  0
    1.4980   68.8840   67.0320 N   0  0  2  0  0  4  0  0  0  0  0  0
    1.8040   67.4070   67.3630 C   0  0  0  0  0  0  0  0  0  0  0  0
    1.5580   66.9730   68.8080 C   0  0  0  0  0  0  0  0  0  0  0  0
    2.6570   69.7320   67.5960 C   0  0  0  0  0  0  0  0  0  0  0  0
    1.4990   69.0140   65.4750 C   0  0  0  0  0  0  0  0  0  0  0  0
    2.8390   69.0250   64.7760 C   0  0  0  0  0  0  0  0  0  0  0  0
    4.0080   69.4160   65.4460 C   0  0  0  0  0  0  0  0  0  0  0  0
    5.2400   69.4120   64.7900 C   0  0  0  0  0  0  0  0  0  0  0  0
    5.3210   69.0300   63.4550 C   0  0  0  0  0  0  0  0  0  0  0  0
    4.1680   68.6590   62.7670 C   0  0  0  0  0  0  0  0  0  0  0  0
    2.9340   68.6610   63.4210 C   0  0  0  0  0  0  0  0  0  0  0  0
    1.1380   64.7670   70.6190 C   0  0  0  0  0  0  0  0  0  0  0  0
    2.2280   64.9380   70.0680 O   0  0  0  0  0  0  0  0  0  0  0  0
    0.0950   59.3660   73.6700 C   0  0  0  0  0  0  0  0  0  0  0  0
    1.1320   60.0420   73.0160 C   0  0  0  0  0  0  0  0  0  0  0  0
    0.8760   61.3080   72.4520 C   0  0  0  0  0  0  0  0  0  0  0  0
    1.9910   62.3100   71.6080 S   0  0  0  0  0  0  0  0  0  0  0  0
    0.8360   63.5340   71.3390 C   0  0  0  0  0  0  0  0  0  0  0  0
   -0.3860   63.1840   71.8800 C   0  0  0  0  0  0  0  0  0  0  0  0
   -0.3810   61.9030   72.5270 C   0  0  0  0  0  0  0  0  0  0  0  0
   -1.4180   61.2050   73.1930 C   0  0  0  0  0  0  0  0  0  0  0  0
   -1.1820   59.9450   73.7600 C   0  0  0  0  0  0  0  0  0  0  0  0
    0.4380   57.0100   73.4040 C   0  0  0  0  0  0  0  0  0  0  0  0
    0.2320   58.1290   74.2540 O   0  0  0  0  0  0  0  0  0  0  0  0
   -2.1320   59.2050   74.4180 O   0  0  0  0  0  0  0  0  0  0  0  0
   -3.3470   59.8480   74.7790 C   0  0  0  0  0  0  0  0  0  0  0  0
    0.2078   66.5034   71.4638 H   0  0  0  0  0  0  0  0  0  0  0  0
   -0.8914   65.3515   70.5262 H   0  0  0  0  0  0  0  0  0  0  0  0
   -0.1803   67.8327   69.5801 H   0  0  0  0  0  0  0  0  0  0  0  0
   -0.6935   65.3902   67.9378 H   0  0  0  0  0  0  0  0  0  0  0  0
   -1.9065   66.4601   68.8850 H   0  0  0  0  0  0  0  0  0  0  0  0
   -0.5146   66.9582   66.3081 H   0  0  0  0  0  0  0  0  0  0  0  0
   -2.2937   67.1027   66.8572 H   0  0  0  0  0  0  0  0  0  0  0  0
   -1.3821   69.2099   66.2599 H   0  0  0  0  0  0  0  0  0  0  0  0
   -1.7564   68.9858   68.0987 H   0  0  0  0  0  0  0  0  0  0  0  0
    0.1495   70.4964   67.3728 H   0  0  0  0  0  0  0  0  0  0  0  0
    0.3056   69.2190   68.7182 H   0  0  0  0  0  0  0  0  0  0  0  0
    1.1755   66.7805   66.7130 H   0  0  0  0  0  0  0  0  0  0  0  0
    2.8853   67.2873   67.2003 H   0  0  0  0  0  0  0  0  0  0  0  0
    2.0586   66.0023   68.9388 H   0  0  0  0  0  0  0  0  0  0  0  0
    1.9409   67.8192   69.3974 H   0  0  0  0  0  0  0  0  0  0  0  0
    2.6265   69.7097   68.6953 H   0  0  0  0  0  0  0  0  0  0  0  0
    3.6158   69.3206   67.2474 H   0  0  0  0  0  0  0  0  0  0  0  0
    2.5551   70.7703   67.2474 H   0  0  0  0  0  0  0  0  0  0  0  0
    0.9249   68.1660   65.0733 H   0  0  0  0  0  0  0  0  0  0  0  0
    1.0716   70.0080   65.2768 H   0  0  0  0  0  0  0  0  0  0  0  0
    3.9531   69.7289   66.4991 H   0  0  0  0  0  0  0  0  0  0  0  0
    6.1499   69.7119   65.3305 H   0  0  0  0  0  0  0  0  0  0  0  0
    6.2946   69.0209   62.9431 H   0  0  0  0  0  0  0  0  0  0  0  0
    4.2294   68.3645   61.7089 H   0  0  0  0  0  0  0  0  0  0  0  0
    2.0261   68.3746   62.8700 H   0  0  0  0  0  0  0  0  0  0  0  0
    2.1328   59.5913   72.9433 H   0  0  0  0  0  0  0  0  0  0  0  0
   -1.2775   63.8257   71.8206 H   0  0  0  0  0  0  0  0  0  0  0  0
   -2.4185   61.6562   73.2660 H   0  0  0  0  0  0  0  0  0  0  0  0
    0.6036   56.1107   74.0154 H   0  0  0  0  0  0  0  0  0  0  0  0
   -0.4483   56.8637   72.7691 H   0  0  0  0  0  0  0  0  0  0  0  0
    1.3183   57.1889   72.7691 H   0  0  0  0  0  0  0  0  0  0  0  0
   -3.4276   59.8907   75.8752 H   0  0  0  0  0  0  0  0  0  0  0  0
   -3.3568   60.8693   74.3706 H   0  0  0  0  0  0  0  0  0  0  0  0
   -4.1970   59.2817   74.3706 H   0  0  0  0  0  0  0  0  0  0  0  0
  2  1  1  0
  3  2  1  0
  4  3  1  0
  5  4  1  0
  6  5  1  0
  7  6  1  0
  8  7  1  0
  9  8  1  0
  9  2  1  0
  7 10  1  1
 11  7  1  0
 12 11  1  0
 13 12  2  0
 14 13  1  0
 15 14  2  0
 16 15  1  0
 17 16  2  0
 17 12  1  0
 18  1  1  0
 19 18  2  0
 21 20  2  0
 22 21  1  0
 23 22  1  0
 24 23  1  0
 24 18  1  0
 25 24  2  0
 26 25  1  0
 26 22  2  0
 27 26  1  0
 28 20  1  0
 28 27  2  0
 30 29  1  0
 30 20  1  0
 31 28  1  0
 32 31  1  0
  1 33  1  0
  1 34  1  0
  2 35  1  1
  3 36  1  0
  3 37  1  0
  4 38  1  0
  4 39  1  0
  5 40  1  0
  5 41  1  0
  6 42  1  0
  6 43  1  0
  8 44  1  0
  8 45  1  0
  9 46  1  0
  9 47  1  0
 10 48  1  0
 10 49  1  0
 10 50  1  0
 11 51  1  0
 11 52  1  0
 13 53  1  0
 14 54  1  0
 15 55  1  0
 16 56  1  0
 17 57  1  0
 21 58  1  0
 25 59  1  0
 27 60  1  0
 29 61  1  0
 29 62  1  0
 29 63  1  0
 32 64  1  0
 32 65  1  0
 32 66  1  0
M  CHG  1   7   1
M  END
>  <score>  (3) 
-8.328

$$$$
=
     RDKit          3D

 66 69  0  0  0  0  0  0  0  0999 V2000
    0.7780   63.9030   71.4500 C   0  0  0  0  0  0  0  0  0  0  0  0
    0.4980   63.0460   72.7200 C   0  0  2  0  0  0  0  0  0  0  0  0
    1.8080   62.7370   73.4630 C   0  0  0  0  0  0  0  0  0  0  0  0
    1.7510   62.0490   74.8290 C   0  0  0  0  0  0  0  0  0  0  0  0
    0.6030   62.3900   75.7700 C   0  0  0  0  0  0  0  0  0  0  0  0
   -0.8520   62.1220   75.3780 C   0  0  0  0  0  0  0  0  0  0  0  0
   -1.1650   60.8140   74.6590 N   0  0  2  0  0  4  0  0  0  0  0  0
   -0.4700   60.6340   73.2920 C   0  0  0  0  0  0  0  0  0  0  0  0
   -0.4410   61.8630   72.3820 C   0  0  0  0  0  0  0  0  0  0  0  0
   -2.6880   60.7970   74.4080 C   0  0  0  0  0  0  0  0  0  0  0  0
   -0.7910   59.5710   75.5290 C   0  0  0  0  0  0  0  0  0  0  0  0
   -0.0270   58.4540   74.8580 C   0  0  0  0  0  0  0  0  0  0  0  0
   -0.6890   57.4370   74.1540 C   0  0  0  0  0  0  0  0  0  0  0  0
    0.0310   56.4160   73.5310 C   0  0  0  0  0  0  0  0  0  0  0  0
    1.4200   56.3900   73.6120 C   0  0  0  0  0  0  0  0  0  0  0  0
    2.0930   57.3790   74.3230 C   0  0  0  0  0  0  0  0  0  0  0  0
    1.3760   58.4020   74.9460 C   0  0  0  0  0  0  0  0  0  0  0  0
    0.1430   65.3000   71.4240 C   0  0  0  0  0  0  0  0  0  0  0  0
   -0.3340   65.7780   72.4560 O   0  0  0  0  0  0  0  0  0  0  0  0
    0.3850   68.5770   66.0590 C   0  0  0  0  0  0  0  0  0  0  0  0
    1.2240   68.1730   67.1050 C   0  0  0  0  0  0  0  0  0  0  0  0
    0.6870   67.4010   68.1550 C   0  0  0  0  0  0  0  0  0  0  0  0
    1.5260   66.7990   69.5310 S   0  0  0  0  0  0  0  0  0  0  0  0
    0.1370   66.0450   70.1690 C   0  0  0  0  0  0  0  0  0  0  0  0
   -0.9550   66.2520   69.3480 C   0  0  0  0  0  0  0  0  0  0  0  0
   -0.6550   67.0310   68.1800 C   0  0  0  0  0  0  0  0  0  0  0  0
   -1.4900   67.4490   67.1150 C   0  0  0  0  0  0  0  0  0  0  0  0
   -0.9730   68.2170   66.0620 C   0  0  0  0  0  0  0  0  0  0  0  0
    1.7240   68.7450   64.0800 C   0  0  0  0  0  0  0  0  0  0  0  0
    0.8010   69.3300   64.9880 O   0  0  0  0  0  0  0  0  0  0  0  0
   -1.7140   68.6620   64.9960 O   0  0  0  0  0  0  0  0  0  0  0  0
   -3.0740   69.0050   65.2260 C   0  0  0  0  0  0  0  0  0  0  0  0
    1.8674   64.0274   71.3621 H   0  0  0  0  0  0  0  0  0  0  0  0
    0.3173   63.3537   70.6157 H   0  0  0  0  0  0  0  0  0  0  0  0
   -0.0794   63.6097   73.4676 H   0  0  0  0  0  0  0  0  0  0  0  0
    2.4062   62.0912   72.8034 H   0  0  0  0  0  0  0  0  0  0  0  0
    2.2193   63.7317   73.6897 H   0  0  0  0  0  0  0  0  0  0  0  0
    1.7082   60.9654   74.6447 H   0  0  0  0  0  0  0  0  0  0  0  0
    2.6453   62.4180   75.3525 H   0  0  0  0  0  0  0  0  0  0  0  0
    0.7839   61.8283   76.6983 H   0  0  0  0  0  0  0  0  0  0  0  0
    0.6422   63.4887   75.8063 H   0  0  0  0  0  0  0  0  0  0  0  0
   -1.4493   62.1399   76.3015 H   0  0  0  0  0  0  0  0  0  0  0  0
   -1.0901   62.9057   74.6438 H   0  0  0  0  0  0  0  0  0  0  0  0
    0.5707   60.3323   73.4818 H   0  0  0  0  0  0  0  0  0  0  0  0
   -1.0682   59.8837   72.7542 H   0  0  0  0  0  0  0  0  0  0  0  0
   -0.1609   61.5102   71.3785 H   0  0  0  0  0  0  0  0  0  0  0  0
   -1.4467   62.2927   72.5001 H   0  0  0  0  0  0  0  0  0  0  0  0
   -3.2184   60.7911   75.3717 H   0  0  0  0  0  0  0  0  0  0  0  0
   -2.9755   61.6920   73.8367 H   0  0  0  0  0  0  0  0  0  0  0  0
   -2.9554   59.8958   73.8367 H   0  0  0  0  0  0  0  0  0  0  0  0
   -0.1794   59.9296   76.3700 H   0  0  0  0  0  0  0  0  0  0  0  0
   -1.7564   59.1227   75.8065 H   0  0  0  0  0  0  0  0  0  0  0  0
   -1.7872   57.4441   74.0922 H   0  0  0  0  0  0  0  0  0  0  0  0
   -0.5009   55.6301   72.9747 H   0  0  0  0  0  0  0  0  0  0  0  0
    1.9855   55.5884   73.1144 H   0  0  0  0  0  0  0  0  0  0  0  0
    3.1904   57.3546   74.3941 H   0  0  0  0  0  0  0  0  0  0  0  0
    1.9143   59.1763   75.5122 H   0  0  0  0  0  0  0  0  0  0  0  0
    2.2874   68.4543   67.1072 H   0  0  0  0  0  0  0  0  0  0  0  0
   -1.9580   65.8577   69.5682 H   0  0  0  0  0  0  0  0  0  0  0  0
   -2.5537   67.1686   67.1140 H   0  0  0  0  0  0  0  0  0  0  0  0
    2.5220   68.2392   64.6433 H   0  0  0  0  0  0  0  0  0  0  0  0
    1.2015   68.0128   63.4468 H   0  0  0  0  0  0  0  0  0  0  0  0
    2.1631   69.5300   63.4468 H   0  0  0  0  0  0  0  0  0  0  0  0
   -3.2621   69.0524   66.3088 H   0  0  0  0  0  0  0  0  0  0  0  0
   -3.2866   69.9849   64.7736 H   0  0  0  0  0  0  0  0  0  0  0  0
   -3.7259   68.2431   64.7736 H   0  0  0  0  0  0  0  0  0  0  0  0
  2  1  1  0
  3  2  1  0
  4  3  1  0
  5  4  1  0
  6  5  1  0
  7  6  1  0
  8  7  1  0
  9  8  1  0
  9  2  1  0
  7 10  1  6
 11  7  1  0
 12 11  1  0
 13 12  2  0
 14 13  1  0
 15 14  2  0
 16 15  1  0
 17 16  2  0
 17 12  1  0
 18  1  1  0
 19 18  2  0
 21 20  2  0
 22 21  1  0
 23 22  1  0
 24 23  1  0
 24 18  1  0
 25 24  2  0
 26 25  1  0
 26 22  2  0
 27 26  1  0
 28 20  1  0
 28 27  2  0
 30 29  1  0
 30 20  1  0
 31 28  1  0
 32 31  1  0
  1 33  1  0
  1 34  1  0
  2 35  1  1
  3 36  1  0
  3 37  1  0
  4 38  1  0
  4 39  1  0
  5 40  1  0
  5 41  1  0
  6 42  1  0
  6 43  1  0
  8 44  1  0
  8 45  1  0
  9 46  1  0
  9 47  1  0
 10 48  1  0
 10 49  1  0
 10 50  1  0
 11 51  1  0
 11 52  1  0
 13 53  1  0
 14 54  1  0
 15 55  1  0
 16 56  1  0
 17 57  1  0
 21 58  1  0
 25 59  1  0
 27 60  1  0
 29 61  1  0
 29 62  1  0
 29 63  1  0
 32 64  1  0
 32 65  1  0
 32 66  1  0
M  CHG  1   7   1
M  END
>  <score>  (4) 
-8.159

$$$$
=
     RDKit          3D

 66 69  0  0  0  0  0  0  0  0999 V2000
   -0.2800   64.2300   70.2460 C   0  0  0  0  0  0  0  0  0  0  0  0
    0.6510   63.3430   71.1250 C   0  0  2  0  0  0  0  0  0  0  0  0
    1.6520   62.5730   70.2470 C   0  0  0  0  0  0  0  0  0  0  0  0
    2.7720   61.7700   70.9130 C   0  0  0  0  0  0  0  0  0  0  0  0
    3.4000   62.3140   72.1900 C   0  0  0  0  0  0  0  0  0  0  0  0
    2.5660   62.5350   73.4540 C   0  0  0  0  0  0  0  0  0  0  0  0
    1.5310   61.4750   73.8170 N   0  0  2  0  0  4  0  0  0  0  0  0
    0.4100   61.2690   72.7750 C   0  0  0  0  0  0  0  0  0  0  0  0
   -0.1770   62.5370   72.1550 C   0  0  0  0  0  0  0  0  0  0  0  0
    0.8630   61.9360   75.1290 C   0  0  0  0  0  0  0  0  0  0  0  0
    2.1920   60.0800   74.0600 C   0  0  0  0  0  0  0  0  0  0  0  0
    1.3140   58.8580   73.9190 C   0  0  0  0  0  0  0  0  0  0  0  0
    1.6640   57.8040   73.0620 C   0  0  0  0  0  0  0  0  0  0  0  0
    0.8480   56.6760   72.9500 C   0  0  0  0  0  0  0  0  0  0  0  0
   -0.3330   56.5920   73.6820 C   0  0  0  0  0  0  0  0  0  0  0  0
   -0.7070   57.6380   74.5220 C   0  0  0  0  0  0  0  0  0  0  0  0
    0.1080   58.7660   74.6360 C   0  0  0  0  0  0  0  0  0  0  0  0
   -0.0240   65.7410   70.3030 C   0  0  0  0  0  0  0  0  0  0  0  0
   -0.0230   66.3240   71.3900 O   0  0  0  0  0  0  0  0  0  0  0  0
    0.8280   68.8000   64.8720 C   0  0  0  0  0  0  0  0  0  0  0  0
   -0.2050   68.2430   65.6360 C   0  0  0  0  0  0  0  0  0  0  0  0
    0.1070   67.6230   66.8630 C   0  0  0  0  0  0  0  0  0  0  0  0
   -0.9930   66.8780   67.9550 S   0  0  0  0  0  0  0  0  0  0  0  0
    0.2360   66.4570   69.0580 C   0  0  0  0  0  0  0  0  0  0  0  0
    1.4710   66.8730   68.5990 C   0  0  0  0  0  0  0  0  0  0  0  0
    1.4150   67.5490   67.3340 C   0  0  0  0  0  0  0  0  0  0  0  0
    2.4480   68.1180   66.5490 C   0  0  0  0  0  0  0  0  0  0  0  0
    2.1560   68.7390   65.3270 C   0  0  0  0  0  0  0  0  0  0  0  0
   -0.3160   68.8730   62.7690 C   0  0  0  0  0  0  0  0  0  0  0  0
    0.6380   69.4260   63.6640 O   0  0  0  0  0  0  0  0  0  0  0  0
    3.0970   69.3110   64.5080 O   0  0  0  0  0  0  0  0  0  0  0  0
    4.4210   69.4490   65.0080 C   0  0  0  0  0  0  0  0  0  0  0  0
   -0.1616   63.9084   69.2007 H   0  0  0  0  0  0  0  0  0  0  0  0
   -1.2927   64.0867   70.6509 H   0  0  0  0  0  0  0  0  0  0  0  0
    1.3049   63.9562   71.7625 H   0  0  0  0  0  0  0  0  0  0  0  0
    1.0679   61.8658   69.6398 H   0  0  0  0  0  0  0  0  0  0  0  0
    2.1879   63.3672   69.7065 H   0  0  0  0  0  0  0  0  0  0  0  0
    2.3619   60.7774   71.1508 H   0  0  0  0  0  0  0  0  0  0  0  0
    3.5917   61.7945   70.1798 H   0  0  0  0  0  0  0  0  0  0  0  0
    4.2026   61.6139   72.4650 H   0  0  0  0  0  0  0  0  0  0  0  0
    3.6748   63.3397   71.9028 H   0  0  0  0  0  0  0  0  0  0  0  0
    3.2656   62.6136   74.2992 H   0  0  0  0  0  0  0  0  0  0  0  0
    1.9751   63.4382   73.2418 H   0  0  0  0  0  0  0  0  0  0  0  0
    0.8190   60.6549   71.9591 H   0  0  0  0  0  0  0  0  0  0  0  0
   -0.4192   60.7989   73.3240 H   0  0  0  0  0  0  0  0  0  0  0  0
   -1.1110   62.2436   71.6535 H   0  0  0  0  0  0  0  0  0  0  0  0
   -0.2603   63.2243   73.0098 H   0  0  0  0  0  0  0  0  0  0  0  0
    1.4301   61.5446   75.9864 H   0  0  0  0  0  0  0  0  0  0  0  0
    0.8514   63.0352   75.1680 H   0  0  0  0  0  0  0  0  0  0  0  0
   -0.1688   61.5568   75.1680 H   0  0  0  0  0  0  0  0  0  0  0  0
    3.0180   59.9770   73.3409 H   0  0  0  0  0  0  0  0  0  0  0  0
    2.4889   60.0912   75.1191 H   0  0  0  0  0  0  0  0  0  0  0  0
    2.5904   57.8665   72.4723 H   0  0  0  0  0  0  0  0  0  0  0  0
    1.1393   55.8522   72.2818 H   0  0  0  0  0  0  0  0  0  0  0  0
   -0.9707   55.6997   73.5970 H   0  0  0  0  0  0  0  0  0  0  0  0
   -1.6438   57.5756   75.0952 H   0  0  0  0  0  0  0  0  0  0  0  0
   -0.1971   59.5925   75.2946 H   0  0  0  0  0  0  0  0  0  0  0  0
   -1.2460   68.2887   65.2834 H   0  0  0  0  0  0  0  0  0  0  0  0
    2.4075   66.7025   69.1502 H   0  0  0  0  0  0  0  0  0  0  0  0
    3.4888   68.0720   66.9019 H   0  0  0  0  0  0  0  0  0  0  0  0
   -1.1277   68.4025   63.3432 H   0  0  0  0  0  0  0  0  0  0  0  0
   -0.7300   69.6711   62.1353 H   0  0  0  0  0  0  0  0  0  0  0  0
    0.1708   68.1171   62.1353 H   0  0  0  0  0  0  0  0  0  0  0  0
    4.3997   69.4468   66.1078 H   0  0  0  0  0  0  0  0  0  0  0  0
    5.0369   68.6102   64.6515 H   0  0  0  0  0  0  0  0  0  0  0  0
    4.8506   70.3968   64.6515 H   0  0  0  0  0  0  0  0  0  0  0  0
  2  1  1  0
  3  2  1  0
  4  3  1  0
  5  4  1  0
  6  5  1  0
  7  6  1  0
  8  7  1  0
  9  8  1  0
  9  2  1  0
  7 10  1  1
 11  7  1  0
 12 11  1  0
 13 12  2  0
 14 13  1  0
 15 14  2  0
 16 15  1  0
 17 16  2  0
 17 12  1  0
 18  1  1  0
 19 18  2  0
 21 20  2  0
 22 21  1  0
 23 22  1  0
 24 23  1  0
 24 18  1  0
 25 24  2  0
 26 25  1  0
 26 22  2  0
 27 26  1  0
 28 20  1  0
 28 27  2  0
 30 29  1  0
 30 20  1  0
 31 28  1  0
 32 31  1  0
  1 33  1  0
  1 34  1  0
  2 35  1  1
  3 36  1  0
  3 37  1  0
  4 38  1  0
  4 39  1  0
  5 40  1  0
  5 41  1  0
  6 42  1  0
  6 43  1  0
  8 44  1  0
  8 45  1  0
  9 46  1  0
  9 47  1  0
 10 48  1  0
 10 49  1  0
 10 50  1  0
 11 51  1  0
 11 52  1  0
 13 53  1  0
 14 54  1  0
 15 55  1  0
 16 56  1  0
 17 57  1  0
 21 58  1  0
 25 59  1  0
 27 60  1  0
 29 61  1  0
 29 62  1  0
 29 63  1  0
 32 64  1  0
 32 65  1  0
 32 66  1  0
M  CHG  1   7   1
M  END
>  <score>  (5) 
-8.146

$$$$
=
     RDKit          3D

 66 69  0  0  0  0  0  0  0  0999 V2000
   -0.7340   65.6560   69.5290 C   0  0  0  0  0  0  0  0  0  0  0  0
   -0.3870   66.8100   68.5420 C   0  0  2  0  0  0  0  0  0  0  0  0
   -1.4220   66.8800   67.4070 C   0  0  0  0  0  0  0  0  0  0  0  0
   -1.3700   68.0450   66.4160 C   0  0  0  0  0  0  0  0  0  0  0  0
   -0.9580   69.4200   66.9270 C   0  0  0  0  0  0  0  0  0  0  0  0
    0.4220   69.6560   67.5470 C   0  0  0  0  0  0  0  0  0  0  0  0
    1.6220   68.9860   66.8860 N   0  0  2  0  0  4  0  0  0  0  0  0
    1.5840   67.4420   66.8690 C   0  0  0  0  0  0  0  0  0  0  0  0
    1.1110   66.7630   68.1540 C   0  0  0  0  0  0  0  0  0  0  0  0
    2.8680   69.4070   67.6930 C   0  0  0  0  0  0  0  0  0  0  0  0
    1.8060   69.4550   65.4080 C   0  0  0  0  0  0  0  0  0  0  0  0
    2.9860   68.9040   64.6410 C   0  0  0  0  0  0  0  0  0  0  0  0
    2.8090   68.0110   63.5730 C   0  0  0  0  0  0  0  0  0  0  0  0
    3.9090   67.5180   62.8680 C   0  0  0  0  0  0  0  0  0  0  0  0
    5.1980   67.8990   63.2270 C   0  0  0  0  0  0  0  0  0  0  0  0
    5.3940   68.7670   64.2970 C   0  0  0  0  0  0  0  0  0  0  0  0
    4.2960   69.2630   65.0030 C   0  0  0  0  0  0  0  0  0  0  0  0
    0.2060   65.4890   70.7300 C   0  0  0  0  0  0  0  0  0  0  0  0
    0.4930   66.4650   71.4270 O   0  0  0  0  0  0  0  0  0  0  0  0
    2.6570   59.8080   71.8690 C   0  0  0  0  0  0  0  0  0  0  0  0
    2.9480   60.9750   71.1510 C   0  0  0  0  0  0  0  0  0  0  0  0
    2.0440   62.0550   71.2030 C   0  0  0  0  0  0  0  0  0  0  0  0
    2.1970   63.5720   70.4060 S   0  0  0  0  0  0  0  0  0  0  0  0
    0.7260   64.1600   71.0350 C   0  0  0  0  0  0  0  0  0  0  0  0
    0.1210   63.2120   71.8370 C   0  0  0  0  0  0  0  0  0  0  0  0
    0.8690   61.9920   71.9470 C   0  0  0  0  0  0  0  0  0  0  0  0
    0.5900   60.8040   72.6670 C   0  0  0  0  0  0  0  0  0  0  0  0
    1.4780   59.7200   72.6270 C   0  0  0  0  0  0  0  0  0  0  0  0
    3.4330   57.8280   70.7660 C   0  0  0  0  0  0  0  0  0  0  0  0
    3.4650   58.6970   71.8900 O   0  0  0  0  0  0  0  0  0  0  0  0
    1.2800   58.5360   73.2940 O   0  0  0  0  0  0  0  0  0  0  0  0
    1.2740   58.5630   74.7140 C   0  0  0  0  0  0  0  0  0  0  0  0
   -1.7465   65.8394   69.9178 H   0  0  0  0  0  0  0  0  0  0  0  0
   -0.6353   64.7287   68.9456 H   0  0  0  0  0  0  0  0  0  0  0  0
   -0.4843   67.7942   69.0236 H   0  0  0  0  0  0  0  0  0  0  0  0
   -1.3180   65.9552   66.8206 H   0  0  0  0  0  0  0  0  0  0  0  0
   -2.3762   67.0288   67.9337 H   0  0  0  0  0  0  0  0  0  0  0  0
   -0.6580   67.7663   65.6252 H   0  0  0  0  0  0  0  0  0  0  0  0
   -2.4163   68.1778   66.1034 H   0  0  0  0  0  0  0  0  0  0  0  0
   -1.0368   70.1068   66.0714 H   0  0  0  0  0  0  0  0  0  0  0  0
   -1.6333   69.5696   67.7823 H   0  0  0  0  0  0  0  0  0  0  0  0
    0.6051   70.7406   67.5371 H   0  0  0  0  0  0  0  0  0  0  0  0
    0.3608   69.1943   68.5435 H   0  0  0  0  0  0  0  0  0  0  0  0
    0.9087   67.1321   66.0579 H   0  0  0  0  0  0  0  0  0  0  0  0
    2.6286   67.1239   66.7361 H   0  0  0  0  0  0  0  0  0  0  0  0
    1.3860   65.7010   68.0730 H   0  0  0  0  0  0  0  0  0  0  0  0
    1.5985   67.3493   68.9468 H   0  0  0  0  0  0  0  0  0  0  0  0
    2.6502   69.3334   68.7687 H   0  0  0  0  0  0  0  0  0  0  0  0
    3.7085   68.7430   67.4428 H   0  0  0  0  0  0  0  0  0  0  0  0
    3.1335   70.4447   67.4428 H   0  0  0  0  0  0  0  0  0  0  0  0
    0.8958   69.1743   64.8579 H   0  0  0  0  0  0  0  0  0  0  0  0
    1.9993   70.5355   65.4797 H   0  0  0  0  0  0  0  0  0  0  0  0
    1.7941   67.6964   63.2885 H   0  0  0  0  0  0  0  0  0  0  0  0
    3.7559   66.8264   62.0264 H   0  0  0  0  0  0  0  0  0  0  0  0
    6.0620   67.5143   62.6653 H   0  0  0  0  0  0  0  0  0  0  0  0
    6.4133   69.0622   64.5865 H   0  0  0  0  0  0  0  0  0  0  0  0
    4.4581   69.9427   65.8525 H   0  0  0  0  0  0  0  0  0  0  0  0
    3.8695   61.0475   70.5547 H   0  0  0  0  0  0  0  0  0  0  0  0
   -0.8418   63.3763   72.3429 H   0  0  0  0  0  0  0  0  0  0  0  0
   -0.3318   60.7316   73.2628 H   0  0  0  0  0  0  0  0  0  0  0  0
    3.3946   56.7841   71.1106 H   0  0  0  0  0  0  0  0  0  0  0  0
    2.5423   58.0467   70.1587 H   0  0  0  0  0  0  0  0  0  0  0  0
    4.3374   57.9806   70.1587 H   0  0  0  0  0  0  0  0  0  0  0  0
    1.4974   57.5578   75.1008 H   0  0  0  0  0  0  0  0  0  0  0  0
    2.0367   59.2709   75.0705 H   0  0  0  0  0  0  0  0  0  0  0  0
    0.2832   58.8812   75.0705 H   0  0  0  0  0  0  0  0  0  0  0  0
  2  1  1  0
  3  2  1  0
  4  3  1  0
  5  4  1  0
  6  5  1  0
  7  6  1  0
  8  7  1  0
  9  8  1  0
  9  2  1  0
  7 10  1  1
 11  7  1  0
 12 11  1  0
 13 12  2  0
 14 13  1  0
 15 14  2  0
 16 15  1  0
 17 16  2  0
 17 12  1  0
 18  1  1  0
 19 18  2  0
 21 20  2  0
 22 21  1  0
 23 22  1  0
 24 23  1  0
 24 18  1  0
 25 24  2  0
 26 25  1  0
 26 22  2  0
 27 26  1  0
 28 20  1  0
 28 27  2  0
 30 29  1  0
 30 20  1  0
 31 28  1  0
 32 31  1  0
  1 33  1  0
  1 34  1  0
  2 35  1  1
  3 36  1  0
  3 37  1  0
  4 38  1  0
  4 39  1  0
  5 40  1  0
  5 41  1  0
  6 42  1  0
  6 43  1  0
  8 44  1  0
  8 45  1  0
  9 46  1  0
  9 47  1  0
 10 48  1  0
 10 49  1  0
 10 50  1  0
 11 51  1  0
 11 52  1  0
 13 53  1  0
 14 54  1  0
 15 55  1  0
 16 56  1  0
 17 57  1  0
 21 58  1  0
 25 59  1  0
 27 60  1  0
 29 61  1  0
 29 62  1  0
 29 63  1  0
 32 64  1  0
 32 65  1  0
 32 66  1  0
M  CHG  1   7   1
M  END
>  <score>  (6) 
-8.142

$$$$
=
     RDKit          3D

 66 69  0  0  0  0  0  0  0  0999 V2000
   -1.4830   60.1080   73.6410 C   0  0  0  0  0  0  0  0  0  0  0  0
    0.0110   60.5200   73.4860 C   0  0  2  0  0  0  0  0  0  0  0  0
    0.1400   61.7600   72.5860 C   0  0  0  0  0  0  0  0  0  0  0  0
    1.5030   62.4380   72.4320 C   0  0  0  0  0  0  0  0  0  0  0  0
    2.4360   62.4810   73.6370 C   0  0  0  0  0  0  0  0  0  0  0  0
    2.9510   61.1960   74.2880 C   0  0  0  0  0  0  0  0  0  0  0  0
    3.3690   60.0510   73.3720 N   0  0  2  0  0  4  0  0  0  0  0  0
    2.2450   59.4810   72.4800 C   0  0  0  0  0  0  0  0  0  0  0  0
    0.8840   59.2870   73.1500 C   0  0  0  0  0  0  0  0  0  0  0  0
    3.8610   58.9070   74.2830 C   0  0  0  0  0  0  0  0  0  0  0  0
    4.5380   60.4670   72.4230 C   0  0  0  0  0  0  0  0  0  0  0  0
    4.1840   61.2540   71.1820 C   0  0  0  0  0  0  0  0  0  0  0  0
    3.3400   60.7200   70.1960 C   0  0  0  0  0  0  0  0  0  0  0  0
    3.0140   61.4620   69.0600 C   0  0  0  0  0  0  0  0  0  0  0  0
    3.5340   62.7410   68.8860 C   0  0  0  0  0  0  0  0  0  0  0  0
    4.3900   63.2790   69.8440 C   0  0  0  0  0  0  0  0  0  0  0  0
    4.7170   62.5390   70.9810 C   0  0  0  0  0  0  0  0  0  0  0  0
   -1.8750   59.4790   74.9840 C   0  0  0  0  0  0  0  0  0  0  0  0
   -2.1410   60.2020   75.9470 O   0  0  0  0  0  0  0  0  0  0  0  0
   -2.4170   53.2360   75.5420 C   0  0  0  0  0  0  0  0  0  0  0  0
   -3.1480   54.4020   75.8060 C   0  0  0  0  0  0  0  0  0  0  0  0
   -2.5800   55.6520   75.4900 C   0  0  0  0  0  0  0  0  0  0  0  0
   -3.2910   57.2010   75.7270 S   0  0  0  0  0  0  0  0  0  0  0  0
   -1.9440   58.0250   75.0840 C   0  0  0  0  0  0  0  0  0  0  0  0
   -0.9610   57.1330   74.6990 C   0  0  0  0  0  0  0  0  0  0  0  0
   -1.3120   55.7600   74.9240 C   0  0  0  0  0  0  0  0  0  0  0  0
   -0.5870   54.5710   74.6650 C   0  0  0  0  0  0  0  0  0  0  0  0
   -1.1360   53.3180   74.9720 C   0  0  0  0  0  0  0  0  0  0  0  0
   -4.0760   51.8340   76.5540 C   0  0  0  0  0  0  0  0  0  0  0  0
   -2.8720   51.9680   75.8100 O   0  0  0  0  0  0  0  0  0  0  0  0
   -0.4990   52.1220   74.7530 O   0  0  0  0  0  0  0  0  0  0  0  0
    0.7560   51.9100   75.3840 C   0  0  0  0  0  0  0  0  0  0  0  0
   -2.0965   61.0102   73.5009 H   0  0  0  0  0  0  0  0  0  0  0  0
   -1.6525   59.3245   72.8877 H   0  0  0  0  0  0  0  0  0  0  0  0
    0.4338   60.8660   74.4407 H   0  0  0  0  0  0  0  0  0  0  0  0
   -0.1842   61.4598   71.5786 H   0  0  0  0  0  0  0  0  0  0  0  0
   -0.4700   62.5177   73.0995 H   0  0  0  0  0  0  0  0  0  0  0  0
    2.0374   61.9130   71.6265 H   0  0  0  0  0  0  0  0  0  0  0  0
    1.2581   63.4938   72.2441 H   0  0  0  0  0  0  0  0  0  0  0  0
    3.3243   63.0489   73.3232 H   0  0  0  0  0  0  0  0  0  0  0  0
    1.7933   62.9060   74.4221 H   0  0  0  0  0  0  0  0  0  0  0  0
    3.8268   61.4652   74.8967 H   0  0  0  0  0  0  0  0  0  0  0  0
    2.0874   60.8031   74.8447 H   0  0  0  0  0  0  0  0  0  0  0  0
    2.1071   60.1693   71.6331 H   0  0  0  0  0  0  0  0  0  0  0  0
    2.5788   58.4726   72.1943 H   0  0  0  0  0  0  0  0  0  0  0  0
    0.2884   58.6470   72.4824 H   0  0  0  0  0  0  0  0  0  0  0  0
    1.1415   58.8790   74.1385 H   0  0  0  0  0  0  0  0  0  0  0  0
    3.7360   59.1977   75.3365 H   0  0  0  0  0  0  0  0  0  0  0  0
    3.2738   57.9990   74.0810 H   0  0  0  0  0  0  0  0  0  0  0  0
    4.9240   58.7087   74.0810 H   0  0  0  0  0  0  0  0  0  0  0  0
    5.2386   61.0776   73.0115 H   0  0  0  0  0  0  0  0  0  0  0  0
    4.9438   59.5168   72.0456 H   0  0  0  0  0  0  0  0  0  0  0  0
    2.9313   59.7063   70.3199 H   0  0  0  0  0  0  0  0  0  0  0  0
    2.3438   61.0345   68.2996 H   0  0  0  0  0  0  0  0  0  0  0  0
    3.2694   63.3263   67.9931 H   0  0  0  0  0  0  0  0  0  0  0  0
    4.8081   64.2868   69.7044 H   0  0  0  0  0  0  0  0  0  0  0  0
    5.4004   62.9667   71.7293 H   0  0  0  0  0  0  0  0  0  0  0  0
   -4.1510   54.3422   76.2536 H   0  0  0  0  0  0  0  0  0  0  0  0
   -0.0013   57.4457   74.2619 H   0  0  0  0  0  0  0  0  0  0  0  0
    0.4166   54.6313   74.2186 H   0  0  0  0  0  0  0  0  0  0  0  0
   -3.8471   51.8595   77.6296 H   0  0  0  0  0  0  0  0  0  0  0  0
   -4.7556   52.6621   76.3040 H   0  0  0  0  0  0  0  0  0  0  0  0
   -4.5569   50.8768   76.3040 H   0  0  0  0  0  0  0  0  0  0  0  0
    0.6257   51.9320   76.4760 H   0  0  0  0  0  0  0  0  0  0  0  0
    1.1574   50.9313   75.0823 H   0  0  0  0  0  0  0  0  0  0  0  0
    1.4566   52.7025   75.0823 H   0  0  0  0  0  0  0  0  0  0  0  0
  2  1  1  0
  3  2  1  0
  4  3  1  0
  5  4  1  0
  6  5  1  0
  7  6  1  0
  8  7  1  0
  9  8  1  0
  9  2  1  0
  7 10  1  1
 11  7  1  0
 12 11  1  0
 13 12  2  0
 14 13  1  0
 15 14  2  0
 16 15  1  0
 17 16  2  0
 17 12  1  0
 18  1  1  0
 19 18  2  0
 21 20  2  0
 22 21  1  0
 23 22  1  0
 24 23  1  0
 24 18  1  0
 25 24  2  0
 26 25  1  0
 26 22  2  0
 27 26  1  0
 28 20  1  0
 28 27  2  0
 30 29  1  0
 30 20  1  0
 31 28  1  0
 32 31  1  0
  1 33  1  0
  1 34  1  0
  2 35  1  1
  3 36  1  0
  3 37  1  0
  4 38  1  0
  4 39  1  0
  5 40  1  0
  5 41  1  0
  6 42  1  0
  6 43  1  0
  8 44  1  0
  8 45  1  0
  9 46  1  0
  9 47  1  0
 10 48  1  0
 10 49  1  0
 10 50  1  0
 11 51  1  0
 11 52  1  0
 13 53  1  0
 14 54  1  0
 15 55  1  0
 16 56  1  0
 17 57  1  0
 21 58  1  0
 25 59  1  0
 27 60  1  0
 29 61  1  0
 29 62  1  0
 29 63  1  0
 32 64  1  0
 32 65  1  0
 32 66  1  0
M  CHG  1   7   1
M  END
>  <score>  (7) 
-7.882

$$$$
=
     RDKit          3D

 66 69  0  0  0  0  0  0  0  0999 V2000
   -1.8540   58.4740   74.6670 C   0  0  0  0  0  0  0  0  0  0  0  0
   -3.1390   59.0930   75.2920 C   0  0  2  0  0  0  0  0  0  0  0  0
   -4.2000   58.0070   75.5350 C   0  0  0  0  0  0  0  0  0  0  0  0
   -5.4790   58.3640   76.2970 C   0  0  0  0  0  0  0  0  0  0  0  0
   -5.3910   59.3720   77.4360 C   0  0  0  0  0  0  0  0  0  0  0  0
   -4.9260   60.8090   77.1900 C   0  0  0  0  0  0  0  0  0  0  0  0
   -5.4280   61.5150   75.9340 N   0  0  2  0  0  4  0  0  0  0  0  0
   -5.0110   60.8550   74.6010 C   0  0  0  0  0  0  0  0  0  0  0  0
   -3.5670   60.3610   74.5140 C   0  0  0  0  0  0  0  0  0  0  0  0
   -4.8280   62.9360   75.9520 C   0  0  0  0  0  0  0  0  0  0  0  0
   -6.9850   61.6320   75.9190 C   0  0  0  0  0  0  0  0  0  0  0  0
   -7.6240   62.2940   74.7200 C   0  0  0  0  0  0  0  0  0  0  0  0
   -8.1140   61.5390   73.6450 C   0  0  0  0  0  0  0  0  0  0  0  0
   -8.7110   62.1640   72.5480 C   0  0  0  0  0  0  0  0  0  0  0  0
   -8.8150   63.5510   72.5050 C   0  0  0  0  0  0  0  0  0  0  0  0
   -8.3150   64.3180   73.5540 C   0  0  0  0  0  0  0  0  0  0  0  0
   -7.7190   63.6960   74.6520 C   0  0  0  0  0  0  0  0  0  0  0  0
   -0.5490   59.2430   74.9050 C   0  0  0  0  0  0  0  0  0  0  0  0
    0.0570   59.1090   75.9710 O   0  0  0  0  0  0  0  0  0  0  0  0
    1.8760   62.8060   70.3220 C   0  0  0  0  0  0  0  0  0  0  0  0
    2.1690   61.6390   71.0380 C   0  0  0  0  0  0  0  0  0  0  0  0
    1.2710   61.2020   72.0330 C   0  0  0  0  0  0  0  0  0  0  0  0
    1.4280   59.8080   73.0290 S   0  0  0  0  0  0  0  0  0  0  0  0
   -0.0390   60.1060   73.8440 C   0  0  0  0  0  0  0  0  0  0  0  0
   -0.6400   61.2560   73.3690 C   0  0  0  0  0  0  0  0  0  0  0  0
    0.1010   61.9000   72.3230 C   0  0  0  0  0  0  0  0  0  0  0  0
   -0.1790   63.0790   71.5890 C   0  0  0  0  0  0  0  0  0  0  0  0
    0.7020   63.5280   70.5950 C   0  0  0  0  0  0  0  0  0  0  0  0
    3.7150   62.4990   68.8180 C   0  0  0  0  0  0  0  0  0  0  0  0
    2.6790   63.3220   69.3340 O   0  0  0  0  0  0  0  0  0  0  0  0
    0.5040   64.6590   69.8430 O   0  0  0  0  0  0  0  0  0  0  0  0
    0.4300   65.9060   70.5200 C   0  0  0  0  0  0  0  0  0  0  0  0
   -1.7299   57.4643   75.0854 H   0  0  0  0  0  0  0  0  0  0  0  0
   -2.0151   58.4960   73.5791 H   0  0  0  0  0  0  0  0  0  0  0  0
   -2.9472   59.4792   76.3040 H   0  0  0  0  0  0  0  0  0  0  0  0
   -4.5088   57.6339   74.5474 H   0  0  0  0  0  0  0  0  0  0  0  0
   -3.6926   57.2923   76.1996 H   0  0  0  0  0  0  0  0  0  0  0  0
   -6.1927   58.7657   75.5627 H   0  0  0  0  0  0  0  0  0  0  0  0
   -5.7682   57.4248   76.7913 H   0  0  0  0  0  0  0  0  0  0  0  0
   -6.3995   59.4408   77.8698 H   0  0  0  0  0  0  0  0  0  0  0  0
   -4.5810   58.9614   78.0568 H   0  0  0  0  0  0  0  0  0  0  0  0
   -5.2463   61.4097   78.0540 H   0  0  0  0  0  0  0  0  0  0  0  0
   -3.8387   60.7269   77.0452 H   0  0  0  0  0  0  0  0  0  0  0  0
   -5.6716   59.9916   74.4332 H   0  0  0  0  0  0  0  0  0  0  0  0
   -5.0972   61.6462   73.8417 H   0  0  0  0  0  0  0  0  0  0  0  0
   -3.3602   60.1674   73.4511 H   0  0  0  0  0  0  0  0  0  0  0  0
   -2.9933   61.1639   75.0000 H   0  0  0  0  0  0  0  0  0  0  0  0
   -4.6901   63.2626   76.9933 H   0  0  0  0  0  0  0  0  0  0  0  0
   -3.8556   62.9300   75.4378 H   0  0  0  0  0  0  0  0  0  0  0  0
   -5.5104   63.6287   75.4378 H   0  0  0  0  0  0  0  0  0  0  0  0
   -7.3926   60.6127   75.9886 H   0  0  0  0  0  0  0  0  0  0  0  0
   -7.2242   62.2935   76.7647 H   0  0  0  0  0  0  0  0  0  0  0  0
   -8.0273   60.4426   73.6659 H   0  0  0  0  0  0  0  0  0  0  0  0
   -9.0999   61.5585   71.7161 H   0  0  0  0  0  0  0  0  0  0  0  0
   -9.2917   64.0409   71.6432 H   0  0  0  0  0  0  0  0  0  0  0  0
   -8.3898   65.4148   73.5173 H   0  0  0  0  0  0  0  0  0  0  0  0
   -7.3191   64.3087   75.4734 H   0  0  0  0  0  0  0  0  0  0  0  0
    3.0871   61.0710   70.8271 H   0  0  0  0  0  0  0  0  0  0  0  0
   -1.5951   61.6408   73.7559 H   0  0  0  0  0  0  0  0  0  0  0  0
   -1.0965   63.6476   71.8010 H   0  0  0  0  0  0  0  0  0  0  0  0
    4.2775   62.0521   69.6510 H   0  0  0  0  0  0  0  0  0  0  0  0
    3.2763   61.7005   68.2017 H   0  0  0  0  0  0  0  0  0  0  0  0
    4.3936   63.1070   68.2017 H   0  0  0  0  0  0  0  0  0  0  0  0
    0.4402   65.7345   71.6065 H   0  0  0  0  0  0  0  0  0  0  0  0
    1.2928   66.5276   70.2388 H   0  0  0  0  0  0  0  0  0  0  0  0
   -0.5003   66.4212   70.2388 H   0  0  0  0  0  0  0  0  0  0  0  0
  2  1  1  0
  3  2  1  0
  4  3  1  0
  5  4  1  0
  6  5  1  0
  7  6  1  0
  8  7  1  0
  9  8  1  0
  9  2  1  0
  7 10  1  6
 11  7  1  0
 12 11  1  0
 13 12  2  0
 14 13  1  0
 15 14  2  0
 16 15  1  0
 17 16  2  0
 17 12  1  0
 18  1  1  0
 19 18  2  0
 21 20  2  0
 22 21  1  0
 23 22  1  0
 24 23  1  0
 24 18  1  0
 25 24  2  0
 26 25  1  0
 26 22  2  0
 27 26  1  0
 28 20  1  0
 28 27  2  0
 30 29  1  0
 30 20  1  0
 31 28  1  0
 32 31  1  0
  1 33  1  0
  1 34  1  0
  2 35  1  1
  3 36  1  0
  3 37  1  0
  4 38  1  0
  4 39  1  0
  5 40  1  0
  5 41  1  0
  6 42  1  0
  6 43  1  0
  8 44  1  0
  8 45  1  0
  9 46  1  0
  9 47  1  0
 10 48  1  0
 10 49  1  0
 10 50  1  0
 11 51  1  0
 11 52  1  0
 13 53  1  0
 14 54  1  0
 15 55  1  0
 16 56  1  0
 17 57  1  0
 21 58  1  0
 25 59  1  0
 27 60  1  0
 29 61  1  0
 29 62  1  0
 29 63  1  0
 32 64  1  0
 32 65  1  0
 32 66  1  0
M  CHG  1   7   1
M  END
>  <score>  (8) 
-7.739

$$$$
=
     RDKit          3D

 66 69  0  0  0  0  0  0  0  0999 V2000
   -1.3140   59.4920   73.6360 C   0  0  0  0  0  0  0  0  0  0  0  0
    0.1210   60.0900   73.5310 C   0  0  2  0  0  0  0  0  0  0  0  0
    0.1190   61.3520   72.6530 C   0  0  0  0  0  0  0  0  0  0  0  0
    1.3910   62.1960   72.5490 C   0  0  0  0  0  0  0  0  0  0  0  0
    2.2760   62.3350   73.7820 C   0  0  0  0  0  0  0  0  0  0  0  0
    2.9290   61.1120   74.4310 C   0  0  0  0  0  0  0  0  0  0  0  0
    3.5140   60.0450   73.5110 N   0  0  2  0  0  4  0  0  0  0  0  0
    2.4940   59.3540   72.5790 C   0  0  0  0  0  0  0  0  0  0  0  0
    1.1510   58.9810   73.2040 C   0  0  0  0  0  0  0  0  0  0  0  0
    4.1180   58.9550   74.4210 C   0  0  0  0  0  0  0  0  0  0  0  0
    4.6470   60.6200   72.6040 C   0  0  0  0  0  0  0  0  0  0  0  0
    4.2390   61.2520   71.2930 C   0  0  0  0  0  0  0  0  0  0  0  0
    3.5160   60.5330   70.3310 C   0  0  0  0  0  0  0  0  0  0  0  0
    3.1370   61.1330   69.1280 C   0  0  0  0  0  0  0  0  0  0  0  0
    3.4860   62.4550   68.8660 C   0  0  0  0  0  0  0  0  0  0  0  0
    4.2220   63.1780   69.8010 C   0  0  0  0  0  0  0  0  0  0  0  0
    4.6010   62.5800   71.0040 C   0  0  0  0  0  0  0  0  0  0  0  0
   -1.9430   59.4850   75.0350 C   0  0  0  0  0  0  0  0  0  0  0  0
   -1.2330   59.2970   76.0260 O   0  0  0  0  0  0  0  0  0  0  0  0
   -8.1310   60.3310   75.7830 C   0  0  0  0  0  0  0  0  0  0  0  0
   -7.0720   59.6160   76.3560 C   0  0  0  0  0  0  0  0  0  0  0  0
   -5.7790   59.7550   75.8130 C   0  0  0  0  0  0  0  0  0  0  0  0
   -4.3410   58.9790   76.3520 S   0  0  0  0  0  0  0  0  0  0  0  0
   -3.3770   59.7250   75.1610 C   0  0  0  0  0  0  0  0  0  0  0  0
   -4.1390   60.5510   74.3590 C   0  0  0  0  0  0  0  0  0  0  0  0
   -5.5270   60.5820   74.7210 C   0  0  0  0  0  0  0  0  0  0  0  0
   -6.6110   61.2970   74.1540 C   0  0  0  0  0  0  0  0  0  0  0  0
   -7.9030   61.1710   74.6810 C   0  0  0  0  0  0  0  0  0  0  0  0
   -9.7150   59.4230   77.3340 C   0  0  0  0  0  0  0  0  0  0  0  0
   -9.4290   60.2700   76.2300 O   0  0  0  0  0  0  0  0  0  0  0  0
   -9.0040   61.8270   74.1880 O   0  0  0  0  0  0  0  0  0  0  0  0
   -8.9490   62.3130   72.8540 C   0  0  0  0  0  0  0  0  0  0  0  0
   -1.9708   60.0771   72.9755 H   0  0  0  0  0  0  0  0  0  0  0  0
   -1.2139   58.4339   73.3524 H   0  0  0  0  0  0  0  0  0  0  0  0
    0.4704   60.4693   74.5026 H   0  0  0  0  0  0  0  0  0  0  0  0
   -0.1377   61.0320   71.6324 H   0  0  0  0  0  0  0  0  0  0  0  0
   -0.5946   62.0191   73.1588 H   0  0  0  0  0  0  0  0  0  0  0  0
    2.0095   61.7541   71.7539 H   0  0  0  0  0  0  0  0  0  0  0  0
    1.0223   63.2162   72.3666 H   0  0  0  0  0  0  0  0  0  0  0  0
    3.0948   63.0145   73.5031 H   0  0  0  0  0  0  0  0  0  0  0  0
    1.5635   62.6638   74.5528 H   0  0  0  0  0  0  0  0  0  0  0  0
    3.7459   61.4772   75.0707 H   0  0  0  0  0  0  0  0  0  0  0  0
    2.1059   60.6043   74.9552 H   0  0  0  0  0  0  0  0  0  0  0  0
    2.2948   60.0338   71.7374 H   0  0  0  0  0  0  0  0  0  0  0  0
    2.9590   58.3995   72.2914 H   0  0  0  0  0  0  0  0  0  0  0  0
    0.6591   58.2838   72.5098 H   0  0  0  0  0  0  0  0  0  0  0  0
    1.4295   58.5910   74.1941 H   0  0  0  0  0  0  0  0  0  0  0  0
    3.9651   59.2310   75.4748 H   0  0  0  0  0  0  0  0  0  0  0  0
    3.6242   57.9932   74.2185 H   0  0  0  0  0  0  0  0  0  0  0  0
    5.1953   58.8638   74.2185 H   0  0  0  0  0  0  0  0  0  0  0  0
    5.1791   61.3859   73.1873 H   0  0  0  0  0  0  0  0  0  0  0  0
    5.2479   59.7443   72.3176 H   0  0  0  0  0  0  0  0  0  0  0  0
    3.2442   59.4850   70.5256 H   0  0  0  0  0  0  0  0  0  0  0  0
    2.5616   60.5598   68.3861 H   0  0  0  0  0  0  0  0  0  0  0  0
    3.1805   62.9280   67.9210 H   0  0  0  0  0  0  0  0  0  0  0  0
    4.5047   64.2202   69.5917 H   0  0  0  0  0  0  0  0  0  0  0  0
    5.1897   63.1541   71.7346 H   0  0  0  0  0  0  0  0  0  0  0  0
   -7.2469   58.9552   77.2178 H   0  0  0  0  0  0  0  0  0  0  0  0
   -3.7217   61.1302   73.5221 H   0  0  0  0  0  0  0  0  0  0  0  0
   -6.4364   61.9574   73.2918 H   0  0  0  0  0  0  0  0  0  0  0  0
   -9.5310   59.9680   78.2716 H   0  0  0  0  0  0  0  0  0  0  0  0
  -10.7687   59.1099   77.2926 H   0  0  0  0  0  0  0  0  0  0  0  0
   -9.0668   58.5352   77.2926 H   0  0  0  0  0  0  0  0  0  0  0  0
   -8.8253   63.4059   72.8668 H   0  0  0  0  0  0  0  0  0  0  0  0
   -8.0971   61.8537   72.3312 H   0  0  0  0  0  0  0  0  0  0  0  0
   -9.8820   62.0557   72.3312 H   0  0  0  0  0  0  0  0  0  0  0  0
  2  1  1  0
  3  2  1  0
  4  3  1  0
  5  4  1  0
  6  5  1  0
  7  6  1  0
  8  7  1  0
  9  8  1  0
  9  2  1  0
  7 10  1  1
 11  7  1  0
 12 11  1  0
 13 12  2  0
 14 13  1  0
 15 14  2  0
 16 15  1  0
 17 16  2  0
 17 12  1  0
 18  1  1  0
 19 18  2  0
 21 20  2  0
 22 21  1  0
 23 22  1  0
 24 23  1  0
 24 18  1  0
 25 24  2  0
 26 25  1  0
 26 22  2  0
 27 26  1  0
 28 20  1  0
 28 27  2  0
 30 29  1  0
 30 20  1  0
 31 28  1  0
 32 31  1  0
  1 33  1  0
  1 34  1  0
  2 35  1  1
  3 36  1  0
  3 37  1  0
  4 38  1  0
  4 39  1  0
  5 40  1  0
  5 41  1  0
  6 42  1  0
  6 43  1  0
  8 44  1  0
  8 45  1  0
  9 46  1  0
  9 47  1  0
 10 48  1  0
 10 49  1  0
 10 50  1  0
 11 51  1  0
 11 52  1  0
 13 53  1  0
 14 54  1  0
 15 55  1  0
 16 56  1  0
 17 57  1  0
 21 58  1  0
 25 59  1  0
 27 60  1  0
 29 61  1  0
 29 62  1  0
 29 63  1  0
 32 64  1  0
 32 65  1  0
 32 66  1  0
M  CHG  1   7   1
M  END
>  <score>  (9) 
-7.579

$$$$
