=
     RDKit          3D

 82 87  0  0  0  0  0  0  0  0999 V2000
    0.0270   64.0770   71.9310 C   0  0  0  0  0  0  0  0  0  0  0  0
    0.3770   63.8460   73.4030 C   0  0  0  0  0  0  0  0  0  0  0  0
    0.0990   62.4410   73.9500 C   0  0  0  0  0  0  0  0  0  0  0  0
   -0.2010   61.4180   72.9400 N   0  0  0  0  0  0  0  0  0  0  0  0
    3.7540   62.7750   68.3680 C   0  0  0  0  0  0  0  0  0  0  0  0
    3.6960   61.9840   69.6410 C   0  0  0  0  0  0  0  0  0  0  0  0
    4.5060   60.9110   69.8810 C   0  0  0  0  0  0  0  0  0  0  0  0
    4.5420   60.1490   71.2340 C   0  0  1  0  0  0  0  0  0  0  0  0
    3.9340   61.1040   72.2450 C   0  0  0  0  0  0  0  0  0  0  0  0
    2.5050   61.2690   71.6810 C   0  0  1  0  0  0  0  0  0  0  0  0
    2.5940   62.4140   70.6610 C   0  0  0  0  0  0  0  0  0  0  0  0
    1.7320   60.1300   72.2780 C   0  0  0  0  0  0  0  0  0  0  0  0
    2.3860   58.8760   72.1140 C   0  0  0  0  0  0  0  0  0  0  0  0
    3.7260   58.8000   71.3280 C   0  0  0  0  0  0  0  0  0  0  0  0
    1.8820   57.7290   72.5980 N   0  0  0  0  0  0  0  0  0  0  0  0
    0.7680   57.8010   73.3390 C   0  0  0  0  0  0  0  0  0  0  0  0
    0.0550   59.0090   73.5800 C   0  0  0  0  0  0  0  0  0  0  0  0
    0.5070   60.2000   72.9440 C   0  0  0  0  0  0  0  0  0  0  0  0
   -1.0360   58.9580   74.4810 C   0  0  0  0  0  0  0  0  0  0  0  0
   -1.4620   57.7590   75.0510 C   0  0  0  0  0  0  0  0  0  0  0  0
   -0.7880   56.5880   74.7440 C   0  0  0  0  0  0  0  0  0  0  0  0
    0.3200   56.6170   73.9050 C   0  0  0  0  0  0  0  0  0  0  0  0
   -1.3080   55.0990   75.4310 Cl  0  0  0  0  0  0  0  0  0  0  0  0
    0.0680   65.5320   71.4560 C   0  0  0  0  0  0  0  0  0  0  0  0
    0.9300   65.7960   70.2180 C   0  0  0  0  0  0  0  0  0  0  0  0
    0.3170   66.8140   69.2580 C   0  0  0  0  0  0  0  0  0  0  0  0
    1.2410   67.1670   68.1910 N   0  0  0  0  0  0  0  0  0  0  0  0
    0.8620   67.1370   66.8730 C   0  0  0  0  0  0  0  0  0  0  0  0
   -0.2610   66.8080   66.4860 O   0  0  0  0  0  0  0  0  0  0  0  0
    1.9260   67.5130   65.8340 C   0  0  1  0  0  0  0  0  0  0  0  0
    1.4390   67.0930   64.4660 N   0  0  0  0  0  4  0  0  0  0  0  0
    2.1990   69.0230   65.8590 C   0  0  0  0  0  0  0  0  0  0  0  0
    3.6590   69.3470   65.8830 C   0  0  0  0  0  0  0  0  0  0  0  0
    4.5470   69.1800   64.8380 C   0  0  0  0  0  0  0  0  0  0  0  0
    5.7890   69.5800   65.2570 N   0  0  0  0  0  0  0  0  0  0  0  0
    5.7360   69.9720   66.5730 C   0  0  0  0  0  0  0  0  0  0  0  0
    4.4070   69.8690   66.9880 C   0  0  0  0  0  0  0  0  0  0  0  0
    4.0830   70.2590   68.3030 C   0  0  0  0  0  0  0  0  0  0  0  0
    5.0950   70.7170   69.1560 C   0  0  0  0  0  0  0  0  0  0  0  0
    6.4130   70.7950   68.7160 C   0  0  0  0  0  0  0  0  0  0  0  0
    6.7580   70.4280   67.4130 C   0  0  0  0  0  0  0  0  0  0  0  0
    0.7395   63.5027   71.3207 H   0  0  0  0  0  0  0  0  0  0  0  0
   -1.0191   63.7559   71.8190 H   0  0  0  0  0  0  0  0  0  0  0  0
    1.4507   64.0494   73.5291 H   0  0  0  0  0  0  0  0  0  0  0  0
   -0.2801   64.5200   73.9722 H   0  0  0  0  0  0  0  0  0  0  0  0
    0.9869   62.1137   74.5108 H   0  0  0  0  0  0  0  0  0  0  0  0
   -0.8068   62.5308   74.5676 H   0  0  0  0  0  0  0  0  0  0  0  0
   -0.9273   61.5906   72.2304 H   0  0  0  0  0  0  0  0  0  0  0  0
    3.8325   63.8462   68.6052 H   0  0  0  0  0  0  0  0  0  0  0  0
    4.6317   62.4638   67.7826 H   0  0  0  0  0  0  0  0  0  0  0  0
    2.8403   62.5951   67.7826 H   0  0  0  0  0  0  0  0  0  0  0  0
    5.1685   60.5679   69.0727 H   0  0  0  0  0  0  0  0  0  0  0  0
    5.5890   59.8532   71.3960 H   0  0  0  0  0  0  0  0  0  0  0  0
    3.9209   60.6675   73.2546 H   0  0  0  0  0  0  0  0  0  0  0  0
    4.4851   62.0488   72.3615 H   0  0  0  0  0  0  0  0  0  0  0  0
    1.4614   61.5379   71.4604 H   0  0  0  0  0  0  0  0  0  0  0  0
    2.8783   63.3519   71.1606 H   0  0  0  0  0  0  0  0  0  0  0  0
    1.6285   62.5931   70.1653 H   0  0  0  0  0  0  0  0  0  0  0  0
    4.3648   58.0521   71.8205 H   0  0  0  0  0  0  0  0  0  0  0  0
    3.4531   58.5419   70.2941 H   0  0  0  0  0  0  0  0  0  0  0  0
   -1.5617   59.8894   74.7382 H   0  0  0  0  0  0  0  0  0  0  0  0
   -2.3226   57.7429   75.7360 H   0  0  0  0  0  0  0  0  0  0  0  0
    0.8531   55.6802   73.6853 H   0  0  0  0  0  0  0  0  0  0  0  0
   -0.9617   65.8424   71.2248 H   0  0  0  0  0  0  0  0  0  0  0  0
    0.5299   66.1044   72.2739 H   0  0  0  0  0  0  0  0  0  0  0  0
    1.9087   66.1739   70.5487 H   0  0  0  0  0  0  0  0  0  0  0  0
    1.0145   64.8447   69.6722 H   0  0  0  0  0  0  0  0  0  0  0  0
   -0.5930   66.3837   68.8145 H   0  0  0  0  0  0  0  0  0  0  0  0
    0.0830   67.7261   69.8267 H   0  0  0  0  0  0  0  0  0  0  0  0
    2.2029   67.4462   68.4311 H   0  0  0  0  0  0  0  0  0  0  0  0
    2.8671   66.9953   66.0714 H   0  0  0  0  0  0  0  0  0  0  0  0
    0.6629   66.4236   64.5684 H   0  0  0  0  0  0  0  0  0  0  0  0
    1.1119   67.9214   63.9487 H   0  0  0  0  0  0  0  0  0  0  0  0
    2.2104   66.6477   63.9487 H   0  0  0  0  0  0  0  0  0  0  0  0
    1.7531   69.4758   64.9612 H   0  0  0  0  0  0  0  0  0  0  0  0
    1.7550   69.4249   66.7817 H   0  0  0  0  0  0  0  0  0  0  0  0
    4.2992   68.7918   63.8390 H   0  0  0  0  0  0  0  0  0  0  0  0
    6.6368   69.5859   64.6721 H   0  0  0  0  0  0  0  0  0  0  0  0
    3.0429   70.2041   68.6568 H   0  0  0  0  0  0  0  0  0  0  0  0
    4.8456   71.0181   70.1842 H   0  0  0  0  0  0  0  0  0  0  0  0
    7.1942   71.1507   69.4040 H   0  0  0  0  0  0  0  0  0  0  0  0
    7.7975   70.4952   67.0594 H   0  0  0  0  0  0  0  0  0  0  0  0
  2  1  1  0
  3  2  1  0
  4  3  1  0
  6  5  1  0
  7  6  2  0
  8  7  1  0
  9  8  1  0
 10  9  1  0
 11  6  1  0
 11 10  1  0
 12 10  1  0
 13 12  2  0
 14 13  1  0
 14  8  1  0
 15 13  1  0
 16 15  2  0
 17 16  1  0
 18 17  2  0
 18 12  1  0
 18  4  1  0
 19 17  1  0
 20 19  2  0
 21 20  1  0
 22 21  2  0
 22 16  1  0
 23 21  1  0
 24  1  1  0
 25 24  1  0
 26 25  1  0
 27 26  1  0
 28 27  1  0
 29 28  2  0
 30 28  1  0
 31 30  1  0
 32 30  1  0
 33 32  1  0
 34 33  2  0
 35 34  1  0
 36 35  1  0
 37 33  1  0
 37 36  2  0
 38 37  1  0
 39 38  2  0
 40 39  1  0
 41 40  2  0
 41 36  1  0
  1 42  1  0
  1 43  1  0
  2 44  1  0
  2 45  1  0
  3 46  1  0
  3 47  1  0
  4 48  1  0
  5 49  1  0
  5 50  1  0
  5 51  1  0
  7 52  1  0
  8 53  1  1
  9 54  1  0
  9 55  1  0
 10 56  1  1
 11 57  1  0
 11 58  1  0
 14 59  1  0
 14 60  1  0
 19 61  1  0
 20 62  1  0
 22 63  1  0
 24 64  1  0
 24 65  1  0
 25 66  1  0
 25 67  1  0
 26 68  1  0
 26 69  1  0
 27 70  1  0
 30 71  1  1
 31 72  1  0
 31 73  1  0
 31 74  1  0
 32 75  1  0
 32 76  1  0
 34 77  1  0
 35 78  1  0
 38 79  1  0
 39 80  1  0
 40 81  1  0
 41 82  1  0
M  CHG  1  31   1
M  END
>  <score>  (1) 
-12.74

$$$$
=
     RDKit          3D

 82 87  0  0  0  0  0  0  0  0999 V2000
    4.2990   65.5170   63.8120 C   0  0  0  0  0  0  0  0  0  0  0  0
    3.9140   66.9290   63.3660 C   0  0  0  0  0  0  0  0  0  0  0  0
    4.8670   68.0520   63.7890 C   0  0  0  0  0  0  0  0  0  0  0  0
    4.2220   69.2720   64.2930 N   0  0  0  0  0  0  0  0  0  0  0  0
   -1.9600   69.1250   63.9100 C   0  0  0  0  0  0  0  0  0  0  0  0
   -0.8560   68.7200   64.8400 C   0  0  0  0  0  0  0  0  0  0  0  0
   -1.0410   68.5720   66.1850 C   0  0  0  0  0  0  0  0  0  0  0  0
    0.0560   68.0450   67.1490 C   0  0  1  0  0  0  0  0  0  0  0  0
    1.0560   67.3270   66.2610 C   0  0  0  0  0  0  0  0  0  0  0  0
    1.5450   68.4840   65.3620 C   0  0  1  0  0  0  0  0  0  0  0  0
    0.5540   68.5450   64.1900 C   0  0  0  0  0  0  0  0  0  0  0  0
    2.6680   69.1100   66.1350 C   0  0  0  0  0  0  0  0  0  0  0  0
    2.3130   69.4010   67.4830 C   0  0  0  0  0  0  0  0  0  0  0  0
    0.8670   69.1150   67.9800 C   0  0  0  0  0  0  0  0  0  0  0  0
    3.1780   69.9380   68.3590 N   0  0  0  0  0  0  0  0  0  0  0  0
    4.4440   70.1150   67.9560 C   0  0  0  0  0  0  0  0  0  0  0  0
    4.9010   69.8330   66.6380 C   0  0  0  0  0  0  0  0  0  0  0  0
    3.9510   69.4050   65.6700 C   0  0  0  0  0  0  0  0  0  0  0  0
    6.2900   69.9520   66.3870 C   0  0  0  0  0  0  0  0  0  0  0  0
    7.1760   70.4110   67.3620 C   0  0  0  0  0  0  0  0  0  0  0  0
    6.6890   70.7400   68.6160 C   0  0  0  0  0  0  0  0  0  0  0  0
    5.3390   70.5820   68.9070 C   0  0  0  0  0  0  0  0  0  0  0  0
    7.7670   71.3180   69.8250 Cl  0  0  0  0  0  0  0  0  0  0  0  0
    3.2880   64.8020   64.7130 C   0  0  0  0  0  0  0  0  0  0  0  0
    3.7800   63.5000   65.3510 C   0  0  0  0  0  0  0  0  0  0  0  0
    4.1520   63.6500   66.8250 C   0  0  0  0  0  0  0  0  0  0  0  0
    3.4070   62.7220   67.6620 N   0  0  0  0  0  0  0  0  0  0  0  0
    3.6600   62.6050   69.0060 C   0  0  0  0  0  0  0  0  0  0  0  0
    4.5220   63.2500   69.6030 O   0  0  0  0  0  0  0  0  0  0  0  0
    2.8230   61.5820   69.7850 C   0  0  1  0  0  0  0  0  0  0  0  0
    3.4490   60.2160   69.6210 N   0  0  0  0  0  4  0  0  0  0  0  0
    2.7520   61.9570   71.2710 C   0  0  0  0  0  0  0  0  0  0  0  0
    1.3570   61.9250   71.8110 C   0  0  0  0  0  0  0  0  0  0  0  0
    0.4290   62.9440   71.7260 C   0  0  0  0  0  0  0  0  0  0  0  0
   -0.7210   62.5350   72.3480 N   0  0  0  0  0  0  0  0  0  0  0  0
   -0.5480   61.2760   72.8730 C   0  0  0  0  0  0  0  0  0  0  0  0
    0.7350   60.8510   72.5260 C   0  0  0  0  0  0  0  0  0  0  0  0
    1.1410   59.5590   72.9160 C   0  0  0  0  0  0  0  0  0  0  0  0
    0.2630   58.7520   73.6500 C   0  0  0  0  0  0  0  0  0  0  0  0
   -1.0060   59.2110   73.9920 C   0  0  0  0  0  0  0  0  0  0  0  0
   -1.4370   60.4830   73.6050 C   0  0  0  0  0  0  0  0  0  0  0  0
    4.4382   64.9044   62.9090 H   0  0  0  0  0  0  0  0  0  0  0  0
    5.2088   65.6339   64.4191 H   0  0  0  0  0  0  0  0  0  0  0  0
    3.8584   66.9312   62.2674 H   0  0  0  0  0  0  0  0  0  0  0  0
    2.9590   67.1472   63.8664 H   0  0  0  0  0  0  0  0  0  0  0  0
    5.5202   67.6611   64.5830 H   0  0  0  0  0  0  0  0  0  0  0  0
    5.4065   68.3497   62.8778 H   0  0  0  0  0  0  0  0  0  0  0  0
    3.9684   70.0285   63.6416 H   0  0  0  0  0  0  0  0  0  0  0  0
   -2.8340   69.4456   64.4960 H   0  0  0  0  0  0  0  0  0  0  0  0
   -1.6187   69.9565   63.2758 H   0  0  0  0  0  0  0  0  0  0  0  0
   -2.2373   68.2701   63.2758 H   0  0  0  0  0  0  0  0  0  0  0  0
   -2.0201   68.8407   66.6082 H   0  0  0  0  0  0  0  0  0  0  0  0
   -0.4630   67.4389   67.9061 H   0  0  0  0  0  0  0  0  0  0  0  0
    1.8806   66.8970   66.8485 H   0  0  0  0  0  0  0  0  0  0  0  0
    0.6372   66.4727   65.7089 H   0  0  0  0  0  0  0  0  0  0  0  0
    2.0212   69.1364   64.6153 H   0  0  0  0  0  0  0  0  0  0  0  0
    0.5940   67.6146   63.6046 H   0  0  0  0  0  0  0  0  0  0  0  0
    0.7894   69.3693   63.5007 H   0  0  0  0  0  0  0  0  0  0  0  0
    0.9310   68.7584   69.0186 H   0  0  0  0  0  0  0  0  0  0  0  0
    0.3183   70.0615   67.8661 H   0  0  0  0  0  0  0  0  0  0  0  0
    6.6806   69.6750   65.3967 H   0  0  0  0  0  0  0  0  0  0  0  0
    8.2482   70.5104   67.1375 H   0  0  0  0  0  0  0  0  0  0  0  0
    4.9726   70.8328   69.9134 H   0  0  0  0  0  0  0  0  0  0  0  0
    3.0083   65.4919   65.5229 H   0  0  0  0  0  0  0  0  0  0  0  0
    2.4480   64.5206   64.0609 H   0  0  0  0  0  0  0  0  0  0  0  0
    2.9821   62.7474   65.2675 H   0  0  0  0  0  0  0  0  0  0  0  0
    4.6922   63.1997   64.8146 H   0  0  0  0  0  0  0  0  0  0  0  0
    5.2277   63.4532   66.9436 H   0  0  0  0  0  0  0  0  0  0  0  0
    3.9031   64.6740   67.1404 H   0  0  0  0  0  0  0  0  0  0  0  0
    2.6724   62.1391   67.2360 H   0  0  0  0  0  0  0  0  0  0  0  0
    1.7967   61.5736   69.3891 H   0  0  0  0  0  0  0  0  0  0  0  0
    3.6351   59.8099   70.5491 H   0  0  0  0  0  0  0  0  0  0  0  0
    2.8047   59.6032   69.1011 H   0  0  0  0  0  0  0  0  0  0  0  0
    4.3338   60.3040   69.1011 H   0  0  0  0  0  0  0  0  0  0  0  0
    3.3666   61.2460   71.8427 H   0  0  0  0  0  0  0  0  0  0  0  0
    3.1221   62.9881   71.3704 H   0  0  0  0  0  0  0  0  0  0  0  0
    0.5864   63.9187   71.2411 H   0  0  0  0  0  0  0  0  0  0  0  0
   -1.5871   63.0887   72.4128 H   0  0  0  0  0  0  0  0  0  0  0  0
    2.1404   59.1872   72.6458 H   0  0  0  0  0  0  0  0  0  0  0  0
    0.5793   57.7450   73.9596 H   0  0  0  0  0  0  0  0  0  0  0  0
   -1.6784   58.5640   74.5745 H   0  0  0  0  0  0  0  0  0  0  0  0
   -2.4411   60.8477   73.8673 H   0  0  0  0  0  0  0  0  0  0  0  0
  2  1  1  0
  3  2  1  0
  4  3  1  0
  6  5  1  0
  7  6  2  0
  8  7  1  0
  9  8  1  0
 10  9  1  0
 11  6  1  0
 11 10  1  0
 12 10  1  0
 13 12  2  0
 14 13  1  0
 14  8  1  0
 15 13  1  0
 16 15  2  0
 17 16  1  0
 18 17  2  0
 18 12  1  0
 18  4  1  0
 19 17  1  0
 20 19  2  0
 21 20  1  0
 22 21  2  0
 22 16  1  0
 23 21  1  0
 24  1  1  0
 25 24  1  0
 26 25  1  0
 27 26  1  0
 28 27  1  0
 29 28  2  0
 30 28  1  0
 31 30  1  0
 32 30  1  0
 33 32  1  0
 34 33  2  0
 35 34  1  0
 36 35  1  0
 37 33  1  0
 37 36  2  0
 38 37  1  0
 39 38  2  0
 40 39  1  0
 41 40  2  0
 41 36  1  0
  1 42  1  0
  1 43  1  0
  2 44  1  0
  2 45  1  0
  3 46  1  0
  3 47  1  0
  4 48  1  0
  5 49  1  0
  5 50  1  0
  5 51  1  0
  7 52  1  0
  8 53  1  1
  9 54  1  0
  9 55  1  0
 10 56  1  6
 11 57  1  0
 11 58  1  0
 14 59  1  0
 14 60  1  0
 19 61  1  0
 20 62  1  0
 22 63  1  0
 24 64  1  0
 24 65  1  0
 25 66  1  0
 25 67  1  0
 26 68  1  0
 26 69  1  0
 27 70  1  0
 30 71  1  6
 31 72  1  0
 31 73  1  0
 31 74  1  0
 32 75  1  0
 32 76  1  0
 34 77  1  0
 35 78  1  0
 38 79  1  0
 39 80  1  0
 40 81  1  0
 41 82  1  0
M  CHG  1  31   1
M  END
>  <score>  (2) 
-12.156

$$$$
=
     RDKit          3D

 82 87  0  0  0  0  0  0  0  0999 V2000
    3.2860   61.9190   68.0640 C   0  0  0  0  0  0  0  0  0  0  0  0
    4.1430   61.3120   69.1770 C   0  0  0  0  0  0  0  0  0  0  0  0
    3.4420   60.3050   70.0950 C   0  0  0  0  0  0  0  0  0  0  0  0
    3.1980   60.7660   71.4680 N   0  0  0  0  0  0  0  0  0  0  0  0
    0.0480   55.7800   73.3630 C   0  0  0  0  0  0  0  0  0  0  0  0
    0.1520   57.2480   73.6440 C   0  0  0  0  0  0  0  0  0  0  0  0
   -0.8730   57.9710   74.1840 C   0  0  0  0  0  0  0  0  0  0  0  0
   -0.7500   59.4660   74.5880 C   0  0  1  0  0  0  0  0  0  0  0  0
    0.7410   59.7220   74.7160 C   0  0  0  0  0  0  0  0  0  0  0  0
    1.2180   59.4430   73.2730 C   0  0  1  0  0  0  0  0  0  0  0  0
    1.4880   57.9330   73.2120 C   0  0  0  0  0  0  0  0  0  0  0  0
    1.0450   60.7530   72.5610 C   0  0  0  0  0  0  0  0  0  0  0  0
   -0.2500   61.3150   72.7510 C   0  0  0  0  0  0  0  0  0  0  0  0
   -1.3150   60.5390   73.5770 C   0  0  0  0  0  0  0  0  0  0  0  0
   -0.6080   62.4970   72.2250 N   0  0  0  0  0  0  0  0  0  0  0  0
    0.3300   63.2020   71.5770 C   0  0  0  0  0  0  0  0  0  0  0  0
    1.6560   62.7370   71.3560 C   0  0  0  0  0  0  0  0  0  0  0  0
    1.9920   61.4220   71.7850 C   0  0  0  0  0  0  0  0  0  0  0  0
    2.5760   63.6370   70.7650 C   0  0  0  0  0  0  0  0  0  0  0  0
    2.1880   64.9040   70.3290 C   0  0  0  0  0  0  0  0  0  0  0  0
    0.8720   65.3020   70.4990 C   0  0  0  0  0  0  0  0  0  0  0  0
   -0.0400   64.4600   71.1260 C   0  0  0  0  0  0  0  0  0  0  0  0
    0.3750   66.8570   69.9570 Cl  0  0  0  0  0  0  0  0  0  0  0  0
    3.7560   63.2720   67.5220 C   0  0  0  0  0  0  0  0  0  0  0  0
    4.3340   63.2480   66.1040 C   0  0  0  0  0  0  0  0  0  0  0  0
    3.3790   63.8090   65.0510 C   0  0  0  0  0  0  0  0  0  0  0  0
    3.7240   65.1760   64.6910 N   0  0  0  0  0  0  0  0  0  0  0  0
    2.7820   66.1730   64.6700 C   0  0  0  0  0  0  0  0  0  0  0  0
    1.5920   66.0020   64.9370 O   0  0  0  0  0  0  0  0  0  0  0  0
    3.2580   67.5720   64.2580 C   0  0  1  0  0  0  0  0  0  0  0  0
    3.3950   67.6150   62.7530 N   0  0  0  0  0  4  0  0  0  0  0  0
    2.2670   68.6440   64.7300 C   0  0  0  0  0  0  0  0  0  0  0  0
    2.4910   69.0550   66.1510 C   0  0  0  0  0  0  0  0  0  0  0  0
    1.5560   69.0170   67.1660 C   0  0  0  0  0  0  0  0  0  0  0  0
    2.1420   69.4840   68.3130 N   0  0  0  0  0  0  0  0  0  0  0  0
    3.4380   69.8630   68.0560 C   0  0  0  0  0  0  0  0  0  0  0  0
    3.7000   69.5770   66.7160 C   0  0  0  0  0  0  0  0  0  0  0  0
    4.9910   69.8380   66.2140 C   0  0  0  0  0  0  0  0  0  0  0  0
    5.9610   70.3900   67.0600 C   0  0  0  0  0  0  0  0  0  0  0  0
    5.6640   70.6770   68.3890 C   0  0  0  0  0  0  0  0  0  0  0  0
    4.3960   70.4140   68.9140 C   0  0  0  0  0  0  0  0  0  0  0  0
    3.2688   61.2073   67.2254 H   0  0  0  0  0  0  0  0  0  0  0  0
    2.2998   62.1045   68.5146 H   0  0  0  0  0  0  0  0  0  0  0  0
    4.9941   60.7999   68.7043 H   0  0  0  0  0  0  0  0  0  0  0  0
    4.4260   62.1548   69.8247 H   0  0  0  0  0  0  0  0  0  0  0  0
    2.4707   60.0539   69.6439 H   0  0  0  0  0  0  0  0  0  0  0  0
    4.1253   59.4472   70.1808 H   0  0  0  0  0  0  0  0  0  0  0  0
    3.9075   60.6100   72.1981 H   0  0  0  0  0  0  0  0  0  0  0  0
    0.0088   55.2267   74.3129 H   0  0  0  0  0  0  0  0  0  0  0  0
   -0.8665   55.5812   72.7849 H   0  0  0  0  0  0  0  0  0  0  0  0
    0.9253   55.4543   72.7849 H   0  0  0  0  0  0  0  0  0  0  0  0
   -1.8382   57.4674   74.3415 H   0  0  0  0  0  0  0  0  0  0  0  0
   -1.3568   59.5930   75.4966 H   0  0  0  0  0  0  0  0  0  0  0  0
    0.9476   60.7601   75.0153 H   0  0  0  0  0  0  0  0  0  0  0  0
    1.2399   59.1110   75.4827 H   0  0  0  0  0  0  0  0  0  0  0  0
    1.7720   59.2873   72.3355 H   0  0  0  0  0  0  0  0  0  0  0  0
    2.2998   57.6602   73.9023 H   0  0  0  0  0  0  0  0  0  0  0  0
    1.8003   57.6163   72.2060 H   0  0  0  0  0  0  0  0  0  0  0  0
   -1.8961   61.2735   74.1538 H   0  0  0  0  0  0  0  0  0  0  0  0
   -1.9103   59.9752   72.8437 H   0  0  0  0  0  0  0  0  0  0  0  0
    3.6252   63.3285   70.6465 H   0  0  0  0  0  0  0  0  0  0  0  0
    2.9174   65.5782   69.8564 H   0  0  0  0  0  0  0  0  0  0  0  0
   -1.0769   64.7991   71.2672 H   0  0  0  0  0  0  0  0  0  0  0  0
    2.8949   63.9565   67.5257 H   0  0  0  0  0  0  0  0  0  0  0  0
    4.5785   63.5918   68.1786 H   0  0  0  0  0  0  0  0  0  0  0  0
    5.2564   63.8472   66.0930 H   0  0  0  0  0  0  0  0  0  0  0  0
    4.5199   62.1949   65.8463 H   0  0  0  0  0  0  0  0  0  0  0  0
    3.4297   63.1789   64.1508 H   0  0  0  0  0  0  0  0  0  0  0  0
    2.3630   63.8095   65.4725 H   0  0  0  0  0  0  0  0  0  0  0  0
    4.6989   65.4004   64.4460 H   0  0  0  0  0  0  0  0  0  0  0  0
    4.2302   67.7796   64.7289 H   0  0  0  0  0  0  0  0  0  0  0  0
    4.3485   67.9143   62.5035 H   0  0  0  0  0  0  0  0  0  0  0  0
    3.2168   66.6776   62.3651 H   0  0  0  0  0  0  0  0  0  0  0  0
    2.7131   68.2824   62.3651 H   0  0  0  0  0  0  0  0  0  0  0  0
    2.3747   69.5298   64.0868 H   0  0  0  0  0  0  0  0  0  0  0  0
    1.2570   68.2130   64.6651 H   0  0  0  0  0  0  0  0  0  0  0  0
    0.5164   68.6704   67.0701 H   0  0  0  0  0  0  0  0  0  0  0  0
    1.6799   69.5424   69.2317 H   0  0  0  0  0  0  0  0  0  0  0  0
    5.2347   69.6099   65.1659 H   0  0  0  0  0  0  0  0  0  0  0  0
    6.9681   70.5989   66.6700 H   0  0  0  0  0  0  0  0  0  0  0  0
    6.4380   71.1169   69.0350 H   0  0  0  0  0  0  0  0  0  0  0  0
    4.1592   70.6327   69.9657 H   0  0  0  0  0  0  0  0  0  0  0  0
  2  1  1  0
  3  2  1  0
  4  3  1  0
  6  5  1  0
  7  6  2  0
  8  7  1  0
  9  8  1  0
 10  9  1  0
 11  6  1  0
 11 10  1  0
 12 10  1  0
 13 12  2  0
 14 13  1  0
 14  8  1  0
 15 13  1  0
 16 15  2  0
 17 16  1  0
 18 17  2  0
 18 12  1  0
 18  4  1  0
 19 17  1  0
 20 19  2  0
 21 20  1  0
 22 21  2  0
 22 16  1  0
 23 21  1  0
 24  1  1  0
 25 24  1  0
 26 25  1  0
 27 26  1  0
 28 27  1  0
 29 28  2  0
 30 28  1  0
 31 30  1  0
 32 30  1  0
 33 32  1  0
 34 33  2  0
 35 34  1  0
 36 35  1  0
 37 33  1  0
 37 36  2  0
 38 37  1  0
 39 38  2  0
 40 39  1  0
 41 40  2  0
 41 36  1  0
  1 42  1  0
  1 43  1  0
  2 44  1  0
  2 45  1  0
  3 46  1  0
  3 47  1  0
  4 48  1  0
  5 49  1  0
  5 50  1  0
  5 51  1  0
  7 52  1  0
  8 53  1  1
  9 54  1  0
  9 55  1  0
 10 56  1  1
 11 57  1  0
 11 58  1  0
 14 59  1  0
 14 60  1  0
 19 61  1  0
 20 62  1  0
 22 63  1  0
 24 64  1  0
 24 65  1  0
 25 66  1  0
 25 67  1  0
 26 68  1  0
 26 69  1  0
 27 70  1  0
 30 71  1  1
 31 72  1  0
 31 73  1  0
 31 74  1  0
 32 75  1  0
 32 76  1  0
 34 77  1  0
 35 78  1  0
 38 79  1  0
 39 80  1  0
 40 81  1  0
 41 82  1  0
M  CHG  1  31   1
M  END
>  <score>  (3) 
-11.266

$$$$
=
     RDKit          3D

 82 87  0  0  0  0  0  0  0  0999 V2000
    0.1330   64.7460   72.6250 C   0  0  0  0  0  0  0  0  0  0  0  0
    0.2630   63.7290   73.7610 C   0  0  0  0  0  0  0  0  0  0  0  0
    0.2180   62.2530   73.3530 C   0  0  0  0  0  0  0  0  0  0  0  0
    1.1200   61.3640   74.0970 N   0  0  0  0  0  0  0  0  0  0  0  0
    3.7550   63.1380   68.7790 C   0  0  0  0  0  0  0  0  0  0  0  0
    3.8480   62.0430   69.7980 C   0  0  0  0  0  0  0  0  0  0  0  0
    4.3400   60.8030   69.5060 C   0  0  0  0  0  0  0  0  0  0  0  0
    4.5510   59.6910   70.5700 C   0  0  1  0  0  0  0  0  0  0  0  0
    4.5780   60.4150   71.9040 C   0  0  0  0  0  0  0  0  0  0  0  0
    3.1620   61.0290   71.9420 C   0  0  1  0  0  0  0  0  0  0  0  0
    3.2750   62.3760   71.2130 C   0  0  0  0  0  0  0  0  0  0  0  0
    2.3020   59.9520   72.5350 C   0  0  0  0  0  0  0  0  0  0  0  0
    2.4790   58.6920   71.8950 C   0  0  0  0  0  0  0  0  0  0  0  0
    3.4420   58.5720   70.6790 C   0  0  0  0  0  0  0  0  0  0  0  0
    1.8280   57.5850   72.2860 N   0  0  0  0  0  0  0  0  0  0  0  0
    1.0570   57.6680   73.3790 C   0  0  0  0  0  0  0  0  0  0  0  0
    0.8350   58.8750   74.1010 C   0  0  0  0  0  0  0  0  0  0  0  0
    1.4070   60.0780   73.5980 C   0  0  0  0  0  0  0  0  0  0  0  0
    0.0960   58.7910   75.3050 C   0  0  0  0  0  0  0  0  0  0  0  0
   -0.4740   57.5940   75.7360 C   0  0  0  0  0  0  0  0  0  0  0  0
   -0.2960   56.4500   74.9760 C   0  0  0  0  0  0  0  0  0  0  0  0
    0.4700   56.4900   73.8170 C   0  0  0  0  0  0  0  0  0  0  0  0
   -1.0020   54.9670   75.4880 Cl  0  0  0  0  0  0  0  0  0  0  0  0
    0.4310   64.2180   71.2190 C   0  0  0  0  0  0  0  0  0  0  0  0
    0.7660   65.2850   70.1730 C   0  0  0  0  0  0  0  0  0  0  0  0
   -0.4640   66.0200   69.6420 C   0  0  0  0  0  0  0  0  0  0  0  0
   -0.1280   66.8800   68.5160 N   0  0  0  0  0  0  0  0  0  0  0  0
   -1.0680   67.2400   67.5830 C   0  0  0  0  0  0  0  0  0  0  0  0
   -2.2420   66.8700   67.6090 O   0  0  0  0  0  0  0  0  0  0  0  0
   -0.5950   68.1360   66.4310 C   0  0  1  0  0  0  0  0  0  0  0  0
   -1.4330   69.3930   66.4170 N   0  0  0  0  0  4  0  0  0  0  0  0
    0.8890   68.4890   66.5920 C   0  0  0  0  0  0  0  0  0  0  0  0
    1.6230   68.5180   65.2890 C   0  0  0  0  0  0  0  0  0  0  0  0
    1.1220   68.1200   64.0650 C   0  0  0  0  0  0  0  0  0  0  0  0
    2.1020   68.2880   63.1210 N   0  0  0  0  0  0  0  0  0  0  0  0
    3.2500   68.7550   63.7150 C   0  0  0  0  0  0  0  0  0  0  0  0
    2.9750   68.9400   65.0700 C   0  0  0  0  0  0  0  0  0  0  0  0
    3.9920   69.4590   65.8970 C   0  0  0  0  0  0  0  0  0  0  0  0
    5.2450   69.7520   65.3450 C   0  0  0  0  0  0  0  0  0  0  0  0
    5.4930   69.5420   63.9910 C   0  0  0  0  0  0  0  0  0  0  0  0
    4.4960   69.0430   63.1490 C   0  0  0  0  0  0  0  0  0  0  0  0
   -0.8987   65.1276   72.6303 H   0  0  0  0  0  0  0  0  0  0  0  0
    0.8956   65.5135   72.8232 H   0  0  0  0  0  0  0  0  0  0  0  0
    1.2240   63.9092   74.2650 H   0  0  0  0  0  0  0  0  0  0  0  0
   -0.6185   63.8858   74.4001 H   0  0  0  0  0  0  0  0  0  0  0  0
   -0.8107   61.8920   73.4995 H   0  0  0  0  0  0  0  0  0  0  0  0
    0.5549   62.2183   72.3064 H   0  0  0  0  0  0  0  0  0  0  0  0
    1.5419   61.6801   74.9818 H   0  0  0  0  0  0  0  0  0  0  0  0
    3.6726   64.1085   69.2902 H   0  0  0  0  0  0  0  0  0  0  0  0
    4.6570   63.1306   68.1495 H   0  0  0  0  0  0  0  0  0  0  0  0
    2.8672   62.9786   68.1495 H   0  0  0  0  0  0  0  0  0  0  0  0
    4.6010   60.5796   68.4610 H   0  0  0  0  0  0  0  0  0  0  0  0
    5.4642   59.1520   70.2774 H   0  0  0  0  0  0  0  0  0  0  0  0
    4.7367   59.7162   72.7386 H   0  0  0  0  0  0  0  0  0  0  0  0
    5.3909   61.1496   72.0021 H   0  0  0  0  0  0  0  0  0  0  0  0
    2.2284   61.5621   72.1747 H   0  0  0  0  0  0  0  0  0  0  0  0
    3.9562   63.0492   71.7541 H   0  0  0  0  0  0  0  0  0  0  0  0
    2.3024   62.8858   71.1480 H   0  0  0  0  0  0  0  0  0  0  0  0
    3.9497   57.5984   70.7449 H   0  0  0  0  0  0  0  0  0  0  0  0
    2.8115   58.6870   69.7850 H   0  0  0  0  0  0  0  0  0  0  0  0
   -0.0322   59.6954   75.9178 H   0  0  0  0  0  0  0  0  0  0  0  0
   -1.0576   57.5586   76.6677 H   0  0  0  0  0  0  0  0  0  0  0  0
    0.6138   55.5679   73.2347 H   0  0  0  0  0  0  0  0  0  0  0  0
    1.2873   63.5311   71.2891 H   0  0  0  0  0  0  0  0  0  0  0  0
   -0.4957   63.7363   70.8739 H   0  0  0  0  0  0  0  0  0  0  0  0
    1.4423   66.0220   70.6307 H   0  0  0  0  0  0  0  0  0  0  0  0
    1.2303   64.7693   69.3195 H   0  0  0  0  0  0  0  0  0  0  0  0
   -1.2096   65.2797   69.3162 H   0  0  0  0  0  0  0  0  0  0  0  0
   -0.8644   66.6503   70.4497 H   0  0  0  0  0  0  0  0  0  0  0  0
    0.8371   67.2260   68.4175 H   0  0  0  0  0  0  0  0  0  0  0  0
   -0.7125   67.5982   65.4787 H   0  0  0  0  0  0  0  0  0  0  0  0
   -1.6284   69.6861   67.3849 H   0  0  0  0  0  0  0  0  0  0  0  0
   -0.9212   70.1414   65.9283 H   0  0  0  0  0  0  0  0  0  0  0  0
   -2.3207   69.2084   65.9283 H   0  0  0  0  0  0  0  0  0  0  0  0
    0.9653   69.4813   67.0604 H   0  0  0  0  0  0  0  0  0  0  0  0
    1.3496   67.7074   67.2140 H   0  0  0  0  0  0  0  0  0  0  0  0
    0.1089   67.7339   63.8791 H   0  0  0  0  0  0  0  0  0  0  0  0
    1.9939   68.0931   62.1154 H   0  0  0  0  0  0  0  0  0  0  0  0
    3.8028   69.6323   66.9667 H   0  0  0  0  0  0  0  0  0  0  0  0
    6.0424   70.1526   65.9882 H   0  0  0  0  0  0  0  0  0  0  0  0
    6.4867   69.7719   63.5790 H   0  0  0  0  0  0  0  0  0  0  0  0
    4.6847   68.8821   62.0773 H   0  0  0  0  0  0  0  0  0  0  0  0
  2  1  1  0
  3  2  1  0
  4  3  1  0
  6  5  1  0
  7  6  2  0
  8  7  1  0
  9  8  1  0
 10  9  1  0
 11  6  1  0
 11 10  1  0
 12 10  1  0
 13 12  2  0
 14 13  1  0
 14  8  1  0
 15 13  1  0
 16 15  2  0
 17 16  1  0
 18 17  2  0
 18 12  1  0
 18  4  1  0
 19 17  1  0
 20 19  2  0
 21 20  1  0
 22 21  2  0
 22 16  1  0
 23 21  1  0
 24  1  1  0
 25 24  1  0
 26 25  1  0
 27 26  1  0
 28 27  1  0
 29 28  2  0
 30 28  1  0
 31 30  1  0
 32 30  1  0
 33 32  1  0
 34 33  2  0
 35 34  1  0
 36 35  1  0
 37 33  1  0
 37 36  2  0
 38 37  1  0
 39 38  2  0
 40 39  1  0
 41 40  2  0
 41 36  1  0
  1 42  1  0
  1 43  1  0
  2 44  1  0
  2 45  1  0
  3 46  1  0
  3 47  1  0
  4 48  1  0
  5 49  1  0
  5 50  1  0
  5 51  1  0
  7 52  1  0
  8 53  1  6
  9 54  1  0
  9 55  1  0
 10 56  1  1
 11 57  1  0
 11 58  1  0
 14 59  1  0
 14 60  1  0
 19 61  1  0
 20 62  1  0
 22 63  1  0
 24 64  1  0
 24 65  1  0
 25 66  1  0
 25 67  1  0
 26 68  1  0
 26 69  1  0
 27 70  1  0
 30 71  1  6
 31 72  1  0
 31 73  1  0
 31 74  1  0
 32 75  1  0
 32 76  1  0
 34 77  1  0
 35 78  1  0
 38 79  1  0
 39 80  1  0
 40 81  1  0
 41 82  1  0
M  CHG  1  31   1
M  END
>  <score>  (4) 
-11.203

$$$$
=
     RDKit          3D

 82 87  0  0  0  0  0  0  0  0999 V2000
    0.2320   62.8680   72.2420 C   0  0  0  0  0  0  0  0  0  0  0  0
    0.0240   63.2290   73.7140 C   0  0  0  0  0  0  0  0  0  0  0  0
   -0.8270   62.2540   74.5340 C   0  0  0  0  0  0  0  0  0  0  0  0
   -1.6420   61.3150   73.7520 N   0  0  0  0  0  0  0  0  0  0  0  0
    2.8930   57.8600   71.3280 C   0  0  0  0  0  0  0  0  0  0  0  0
    2.0420   57.9400   72.5600 C   0  0  0  0  0  0  0  0  0  0  0  0
    1.7810   56.8550   73.3480 C   0  0  0  0  0  0  0  0  0  0  0  0
    0.9980   56.9360   74.6870 C   0  0  1  0  0  0  0  0  0  0  0  0
    1.0660   58.3950   75.1010 C   0  0  0  0  0  0  0  0  0  0  0  0
    0.3290   59.0750   73.9260 C   0  0  1  0  0  0  0  0  0  0  0  0
    1.4020   59.3330   72.8580 C   0  0  0  0  0  0  0  0  0  0  0  0
   -1.1200   59.0250   74.3130 C   0  0  0  0  0  0  0  0  0  0  0  0
   -1.5370   57.7230   74.7140 C   0  0  0  0  0  0  0  0  0  0  0  0
   -0.5300   56.5380   74.6590 C   0  0  0  0  0  0  0  0  0  0  0  0
   -2.7870   57.4600   75.1280 N   0  0  0  0  0  0  0  0  0  0  0  0
   -3.6340   58.4910   75.2470 C   0  0  0  0  0  0  0  0  0  0  0  0
   -3.3050   59.8300   74.8950 C   0  0  0  0  0  0  0  0  0  0  0  0
   -2.0290   60.0830   74.3180 C   0  0  0  0  0  0  0  0  0  0  0  0
   -4.2560   60.8370   75.1880 C   0  0  0  0  0  0  0  0  0  0  0  0
   -5.5080   60.5320   75.7220 C   0  0  0  0  0  0  0  0  0  0  0  0
   -5.8230   59.2110   75.9920 C   0  0  0  0  0  0  0  0  0  0  0  0
   -4.8890   58.2070   75.7650 C   0  0  0  0  0  0  0  0  0  0  0  0
   -7.3670   58.8180   76.6410 Cl  0  0  0  0  0  0  0  0  0  0  0  0
    1.1110   63.8280   71.4360 C   0  0  0  0  0  0  0  0  0  0  0  0
    0.4190   64.5250   70.2620 C   0  0  0  0  0  0  0  0  0  0  0  0
    0.3890   66.0470   70.3930 C   0  0  0  0  0  0  0  0  0  0  0  0
    0.7360   66.6990   69.1390 N   0  0  0  0  0  0  0  0  0  0  0  0
   -0.2180   67.0180   68.2060 C   0  0  0  0  0  0  0  0  0  0  0  0
   -1.4190   66.7780   68.3400 O   0  0  0  0  0  0  0  0  0  0  0  0
    0.2670   67.6870   66.9140 C   0  0  1  0  0  0  0  0  0  0  0  0
   -0.9300   67.9810   66.0390 N   0  0  0  0  0  4  0  0  0  0  0  0
    1.0260   68.9840   67.2270 C   0  0  0  0  0  0  0  0  0  0  0  0
    2.3300   69.0810   66.5020 C   0  0  0  0  0  0  0  0  0  0  0  0
    2.5770   68.6580   65.2110 C   0  0  0  0  0  0  0  0  0  0  0  0
    3.8910   68.9090   64.9150 N   0  0  0  0  0  0  0  0  0  0  0  0
    4.5200   69.4570   66.0080 C   0  0  0  0  0  0  0  0  0  0  0  0
    3.5620   69.6080   67.0110 C   0  0  0  0  0  0  0  0  0  0  0  0
    3.9540   70.1950   68.2310 C   0  0  0  0  0  0  0  0  0  0  0  0
    5.2860   70.5900   68.4090 C   0  0  0  0  0  0  0  0  0  0  0  0
    6.2220   70.4120   67.3930 C   0  0  0  0  0  0  0  0  0  0  0  0
    5.8540   69.8460   66.1700 C   0  0  0  0  0  0  0  0  0  0  0  0
    0.6962   61.8716   72.2017 H   0  0  0  0  0  0  0  0  0  0  0  0
   -0.7648   62.9176   71.7795 H   0  0  0  0  0  0  0  0  0  0  0  0
    1.0147   63.2908   74.1880 H   0  0  0  0  0  0  0  0  0  0  0  0
   -0.5346   64.1766   73.7095 H   0  0  0  0  0  0  0  0  0  0  0  0
   -0.1499   61.6661   75.1711 H   0  0  0  0  0  0  0  0  0  0  0  0
   -1.5387   62.8747   75.0982 H   0  0  0  0  0  0  0  0  0  0  0  0
   -1.9300   61.5559   72.7929 H   0  0  0  0  0  0  0  0  0  0  0  0
    3.9494   57.7607   71.6179 H   0  0  0  0  0  0  0  0  0  0  0  0
    2.5929   56.9861   70.7311 H   0  0  0  0  0  0  0  0  0  0  0  0
    2.7610   58.7745   70.7311 H   0  0  0  0  0  0  0  0  0  0  0  0
    2.1449   55.8713   73.0165 H   0  0  0  0  0  0  0  0  0  0  0  0
    1.4643   56.2043   75.3632 H   0  0  0  0  0  0  0  0  0  0  0  0
    0.5479   58.5676   76.0558 H   0  0  0  0  0  0  0  0  0  0  0  0
    2.0864   58.7690   75.2709 H   0  0  0  0  0  0  0  0  0  0  0  0
   -0.1411   59.7583   73.2034 H   0  0  0  0  0  0  0  0  0  0  0  0
    2.1621   60.0313   73.2383 H   0  0  0  0  0  0  0  0  0  0  0  0
    0.9735   59.7861   71.9519 H   0  0  0  0  0  0  0  0  0  0  0  0
   -0.7258   55.8877   75.5243 H   0  0  0  0  0  0  0  0  0  0  0  0
   -0.6948   56.0493   73.6874 H   0  0  0  0  0  0  0  0  0  0  0  0
   -4.0007   61.8883   74.9892 H   0  0  0  0  0  0  0  0  0  0  0  0
   -6.2360   61.3310   75.9261 H   0  0  0  0  0  0  0  0  0  0  0  0
   -5.1507   57.1650   76.0012 H   0  0  0  0  0  0  0  0  0  0  0  0
    1.4814   64.6049   72.1211 H   0  0  0  0  0  0  0  0  0  0  0  0
    1.9073   63.2107   70.9946 H   0  0  0  0  0  0  0  0  0  0  0  0
    0.9547   64.2650   69.3371 H   0  0  0  0  0  0  0  0  0  0  0  0
   -0.6252   64.1793   70.2485 H   0  0  0  0  0  0  0  0  0  0  0  0
   -0.6228   66.3600   70.6902 H   0  0  0  0  0  0  0  0  0  0  0  0
    1.1296   66.3420   71.1509 H   0  0  0  0  0  0  0  0  0  0  0  0
    1.7221   66.9266   68.9472 H   0  0  0  0  0  0  0  0  0  0  0  0
    0.9563   67.0094   66.3889 H   0  0  0  0  0  0  0  0  0  0  0  0
   -1.7478   68.1819   66.6321 H   0  0  0  0  0  0  0  0  0  0  0  0
   -0.7283   68.7975   65.4443 H   0  0  0  0  0  0  0  0  0  0  0  0
   -1.1295   67.1640   65.4443 H   0  0  0  0  0  0  0  0  0  0  0  0
    0.3973   69.8383   66.9355 H   0  0  0  0  0  0  0  0  0  0  0  0
    1.2451   68.9879   68.3050 H   0  0  0  0  0  0  0  0  0  0  0  0
    1.8425   68.1971   64.5342 H   0  0  0  0  0  0  0  0  0  0  0  0
    4.3407   68.7159   64.0087 H   0  0  0  0  0  0  0  0  0  0  0  0
    3.2198   70.3417   69.0369 H   0  0  0  0  0  0  0  0  0  0  0  0
    5.5961   71.0455   69.3610 H   0  0  0  0  0  0  0  0  0  0  0  0
    7.2650   70.7213   67.5558 H   0  0  0  0  0  0  0  0  0  0  0  0
    6.5881   69.7108   65.3620 H   0  0  0  0  0  0  0  0  0  0  0  0
  2  1  1  0
  3  2  1  0
  4  3  1  0
  6  5  1  0
  7  6  2  0
  8  7  1  0
  9  8  1  0
 10  9  1  0
 11  6  1  0
 11 10  1  0
 12 10  1  0
 13 12  2  0
 14 13  1  0
 14  8  1  0
 15 13  1  0
 16 15  2  0
 17 16  1  0
 18 17  2  0
 18 12  1  0
 18  4  1  0
 19 17  1  0
 20 19  2  0
 21 20  1  0
 22 21  2  0
 22 16  1  0
 23 21  1  0
 24  1  1  0
 25 24  1  0
 26 25  1  0
 27 26  1  0
 28 27  1  0
 29 28  2  0
 30 28  1  0
 31 30  1  0
 32 30  1  0
 33 32  1  0
 34 33  2  0
 35 34  1  0
 36 35  1  0
 37 33  1  0
 37 36  2  0
 38 37  1  0
 39 38  2  0
 40 39  1  0
 41 40  2  0
 41 36  1  0
  1 42  1  0
  1 43  1  0
  2 44  1  0
  2 45  1  0
  3 46  1  0
  3 47  1  0
  4 48  1  0
  5 49  1  0
  5 50  1  0
  5 51  1  0
  7 52  1  0
  8 53  1  1
  9 54  1  0
  9 55  1  0
 10 56  1  1
 11 57  1  0
 11 58  1  0
 14 59  1  0
 14 60  1  0
 19 61  1  0
 20 62  1  0
 22 63  1  0
 24 64  1  0
 24 65  1  0
 25 66  1  0
 25 67  1  0
 26 68  1  0
 26 69  1  0
 27 70  1  0
 30 71  1  6
 31 72  1  0
 31 73  1  0
 31 74  1  0
 32 75  1  0
 32 76  1  0
 34 77  1  0
 35 78  1  0
 38 79  1  0
 39 80  1  0
 40 81  1  0
 41 82  1  0
M  CHG  1  31   1
M  END
>  <score>  (5) 
-10.408

$$$$
=
     RDKit          3D

 82 87  0  0  0  0  0  0  0  0999 V2000
    0.2960   63.6670   73.2130 C   0  0  0  0  0  0  0  0  0  0  0  0
    0.1050   62.2560   73.7730 C   0  0  0  0  0  0  0  0  0  0  0  0
   -0.7610   61.3090   72.9350 C   0  0  0  0  0  0  0  0  0  0  0  0
   -0.5620   59.8770   73.1910 N   0  0  0  0  0  0  0  0  0  0  0  0
   -2.0440   57.4550   78.6970 C   0  0  0  0  0  0  0  0  0  0  0  0
   -1.1070   57.2160   77.5510 C   0  0  0  0  0  0  0  0  0  0  0  0
    0.0720   56.5420   77.6900 C   0  0  0  0  0  0  0  0  0  0  0  0
    1.0030   56.1850   76.4980 C   0  0  1  0  0  0  0  0  0  0  0  0
    0.1250   56.2850   75.2640 C   0  0  0  0  0  0  0  0  0  0  0  0
   -0.2730   57.7770   75.2970 C   0  0  1  0  0  0  0  0  0  0  0  0
   -1.5220   57.8530   76.1860 C   0  0  0  0  0  0  0  0  0  0  0  0
    0.8390   58.4770   74.5720 C   0  0  0  0  0  0  0  0  0  0  0  0
    2.1280   58.1060   75.0530 C   0  0  0  0  0  0  0  0  0  0  0  0
    2.2520   57.1190   76.2490 C   0  0  0  0  0  0  0  0  0  0  0  0
    3.2630   58.5930   74.5260 N   0  0  0  0  0  0  0  0  0  0  0  0
    3.1620   59.3840   73.4490 C   0  0  0  0  0  0  0  0  0  0  0  0
    1.9230   59.7920   72.8810 C   0  0  0  0  0  0  0  0  0  0  0  0
    0.7190   59.3960   73.5290 C   0  0  0  0  0  0  0  0  0  0  0  0
    1.9670   60.5280   71.6720 C   0  0  0  0  0  0  0  0  0  0  0  0
    3.1750   60.9210   71.0950 C   0  0  0  0  0  0  0  0  0  0  0  0
    4.3640   60.5650   71.7100 C   0  0  0  0  0  0  0  0  0  0  0  0
    4.3520   59.7960   72.8680 C   0  0  0  0  0  0  0  0  0  0  0  0
    5.8610   61.0520   71.0170 Cl  0  0  0  0  0  0  0  0  0  0  0  0
    0.2570   63.7920   71.6880 C   0  0  0  0  0  0  0  0  0  0  0  0
    1.1150   64.9130   71.0970 C   0  0  0  0  0  0  0  0  0  0  0  0
    0.3220   65.8930   70.2340 C   0  0  0  0  0  0  0  0  0  0  0  0
    1.1080   66.3690   69.1050 N   0  0  0  0  0  0  0  0  0  0  0  0
    0.5390   67.0950   68.0890 C   0  0  0  0  0  0  0  0  0  0  0  0
   -0.6550   67.3910   68.0390 O   0  0  0  0  0  0  0  0  0  0  0  0
    1.4620   67.5290   66.9430 C   0  0  1  0  0  0  0  0  0  0  0  0
    0.9340   66.9540   65.6490 N   0  0  0  0  0  4  0  0  0  0  0  0
    1.5320   69.0600   66.8530 C   0  0  0  0  0  0  0  0  0  0  0  0
    2.5780   69.6460   67.7460 C   0  0  0  0  0  0  0  0  0  0  0  0
    2.3870   70.0900   69.0400 C   0  0  0  0  0  0  0  0  0  0  0  0
    3.5810   70.5660   69.5150 N   0  0  0  0  0  0  0  0  0  0  0  0
    4.5440   70.4750   68.5390 C   0  0  0  0  0  0  0  0  0  0  0  0
    3.9560   69.8720   67.4260 C   0  0  0  0  0  0  0  0  0  0  0  0
    4.7590   69.6250   66.2940 C   0  0  0  0  0  0  0  0  0  0  0  0
    6.1070   70.0060   66.3090 C   0  0  0  0  0  0  0  0  0  0  0  0
    6.6600   70.6180   67.4300 C   0  0  0  0  0  0  0  0  0  0  0  0
    5.8890   70.8600   68.5690 C   0  0  0  0  0  0  0  0  0  0  0  0
   -0.5016   64.3035   73.6238 H   0  0  0  0  0  0  0  0  0  0  0  0
    1.3105   63.9706   73.5107 H   0  0  0  0  0  0  0  0  0  0  0  0
    1.0998   61.7982   73.8768 H   0  0  0  0  0  0  0  0  0  0  0  0
   -0.4339   62.3859   74.7231 H   0  0  0  0  0  0  0  0  0  0  0  0
   -1.8159   61.5460   73.1376 H   0  0  0  0  0  0  0  0  0  0  0  0
   -0.4624   61.4730   71.8891 H   0  0  0  0  0  0  0  0  0  0  0  0
   -1.3568   59.2253   73.1237 H   0  0  0  0  0  0  0  0  0  0  0  0
   -1.5051   57.3175   79.6460 H   0  0  0  0  0  0  0  0  0  0  0  0
   -2.4352   58.4817   78.6428 H   0  0  0  0  0  0  0  0  0  0  0  0
   -2.8791   56.7411   78.6428 H   0  0  0  0  0  0  0  0  0  0  0  0
    0.3797   56.2350   78.7005 H   0  0  0  0  0  0  0  0  0  0  0  0
    1.4332   55.1983   76.7246 H   0  0  0  0  0  0  0  0  0  0  0  0
    0.6849   56.0376   74.3501 H   0  0  0  0  0  0  0  0  0  0  0  0
   -0.7283   55.5908   75.2603 H   0  0  0  0  0  0  0  0  0  0  0  0
   -0.6863   58.7826   75.1301 H   0  0  0  0  0  0  0  0  0  0  0  0
   -2.3497   57.2867   75.7341 H   0  0  0  0  0  0  0  0  0  0  0  0
   -1.8703   58.8890   76.3100 H   0  0  0  0  0  0  0  0  0  0  0  0
    3.1248   56.4748   76.0666 H   0  0  0  0  0  0  0  0  0  0  0  0
    2.3412   57.7467   77.1479 H   0  0  0  0  0  0  0  0  0  0  0  0
    1.0236   60.7971   71.1745 H   0  0  0  0  0  0  0  0  0  0  0  0
    3.1831   61.5061   70.1636 H   0  0  0  0  0  0  0  0  0  0  0  0
    5.3063   59.5083   73.3332 H   0  0  0  0  0  0  0  0  0  0  0  0
    0.6030   62.8392   71.2609 H   0  0  0  0  0  0  0  0  0  0  0  0
   -0.7834   64.0407   71.4317 H   0  0  0  0  0  0  0  0  0  0  0  0
    1.5769   65.4717   71.9243 H   0  0  0  0  0  0  0  0  0  0  0  0
    1.8644   64.4395   70.4457 H   0  0  0  0  0  0  0  0  0  0  0  0
   -0.5781   65.3872   69.8546 H   0  0  0  0  0  0  0  0  0  0  0  0
    0.0526   66.7595   70.8558 H   0  0  0  0  0  0  0  0  0  0  0  0
    2.1150   66.1558   69.0679 H   0  0  0  0  0  0  0  0  0  0  0  0
    2.4788   67.1541   67.1315 H   0  0  0  0  0  0  0  0  0  0  0  0
    0.2517   66.2109   65.8567 H   0  0  0  0  0  0  0  0  0  0  0  0
    0.4758   67.6984   65.1042 H   0  0  0  0  0  0  0  0  0  0  0  0
    1.7147   66.5608   65.1042 H   0  0  0  0  0  0  0  0  0  0  0  0
    1.7594   69.3409   65.8141 H   0  0  0  0  0  0  0  0  0  0  0  0
    0.5588   69.4556   67.1792 H   0  0  0  0  0  0  0  0  0  0  0  0
    1.4376   70.0656   69.5950 H   0  0  0  0  0  0  0  0  0  0  0  0
    3.7340   70.9372   70.4635 H   0  0  0  0  0  0  0  0  0  0  0  0
    4.3306   69.1370   65.4061 H   0  0  0  0  0  0  0  0  0  0  0  0
    6.7351   69.8195   65.4254 H   0  0  0  0  0  0  0  0  0  0  0  0
    7.7190   70.9152   67.4187 H   0  0  0  0  0  0  0  0  0  0  0  0
    6.3242   71.3371   69.4595 H   0  0  0  0  0  0  0  0  0  0  0  0
  2  1  1  0
  3  2  1  0
  4  3  1  0
  6  5  1  0
  7  6  2  0
  8  7  1  0
  9  8  1  0
 10  9  1  0
 11  6  1  0
 11 10  1  0
 12 10  1  0
 13 12  2  0
 14 13  1  0
 14  8  1  0
 15 13  1  0
 16 15  2  0
 17 16  1  0
 18 17  2  0
 18 12  1  0
 18  4  1  0
 19 17  1  0
 20 19  2  0
 21 20  1  0
 22 21  2  0
 22 16  1  0
 23 21  1  0
 24  1  1  0
 25 24  1  0
 26 25  1  0
 27 26  1  0
 28 27  1  0
 29 28  2  0
 30 28  1  0
 31 30  1  0
 32 30  1  0
 33 32  1  0
 34 33  2  0
 35 34  1  0
 36 35  1  0
 37 33  1  0
 37 36  2  0
 38 37  1  0
 39 38  2  0
 40 39  1  0
 41 40  2  0
 41 36  1  0
  1 42  1  0
  1 43  1  0
  2 44  1  0
  2 45  1  0
  3 46  1  0
  3 47  1  0
  4 48  1  0
  5 49  1  0
  5 50  1  0
  5 51  1  0
  7 52  1  0
  8 53  1  1
  9 54  1  0
  9 55  1  0
 10 56  1  6
 11 57  1  0
 11 58  1  0
 14 59  1  0
 14 60  1  0
 19 61  1  0
 20 62  1  0
 22 63  1  0
 24 64  1  0
 24 65  1  0
 25 66  1  0
 25 67  1  0
 26 68  1  0
 26 69  1  0
 27 70  1  0
 30 71  1  1
 31 72  1  0
 31 73  1  0
 31 74  1  0
 32 75  1  0
 32 76  1  0
 34 77  1  0
 35 78  1  0
 38 79  1  0
 39 80  1  0
 40 81  1  0
 41 82  1  0
M  CHG  1  31   1
M  END
>  <score>  (6) 
-9.87

$$$$
=
     RDKit          3D

 82 87  0  0  0  0  0  0  0  0999 V2000
    1.3690   63.4090   72.2520 C   0  0  0  0  0  0  0  0  0  0  0  0
    2.6480   62.6430   72.5960 C   0  0  0  0  0  0  0  0  0  0  0  0
    2.4570   61.2660   73.2410 C   0  0  0  0  0  0  0  0  0  0  0  0
    2.3730   61.2600   74.7070 N   0  0  0  0  0  0  0  0  0  0  0  0
    1.8800   55.1610   73.7410 C   0  0  0  0  0  0  0  0  0  0  0  0
    1.4950   56.1990   74.7510 C   0  0  0  0  0  0  0  0  0  0  0  0
    0.4400   56.0430   75.6050 C   0  0  0  0  0  0  0  0  0  0  0  0
    0.0920   57.0520   76.7330 C   0  0  1  0  0  0  0  0  0  0  0  0
    1.3610   57.8550   76.9550 C   0  0  0  0  0  0  0  0  0  0  0  0
    1.5380   58.5260   75.5750 C   0  0  1  0  0  0  0  0  0  0  0  0
    2.3280   57.5200   74.7250 C   0  0  0  0  0  0  0  0  0  0  0  0
    0.7200   59.7800   75.6600 C   0  0  0  0  0  0  0  0  0  0  0  0
   -0.6020   59.5440   76.1360 C   0  0  0  0  0  0  0  0  0  0  0  0
   -1.0630   58.0910   76.4450 C   0  0  0  0  0  0  0  0  0  0  0  0
   -1.4930   60.5320   76.3150 N   0  0  0  0  0  0  0  0  0  0  0  0
   -1.0760   61.7910   76.1210 C   0  0  0  0  0  0  0  0  0  0  0  0
    0.2310   62.1310   75.6700 C   0  0  0  0  0  0  0  0  0  0  0  0
    1.1270   61.0760   75.3380 C   0  0  0  0  0  0  0  0  0  0  0  0
    0.5720   63.5040   75.6270 C   0  0  0  0  0  0  0  0  0  0  0  0
   -0.3550   64.5020   75.9280 C   0  0  0  0  0  0  0  0  0  0  0  0
   -1.6390   64.1400   76.3000 C   0  0  0  0  0  0  0  0  0  0  0  0
   -1.9870   62.7970   76.4040 C   0  0  0  0  0  0  0  0  0  0  0  0
   -2.7970   65.3580   76.6650 Cl  0  0  0  0  0  0  0  0  0  0  0  0
    1.0920   63.6100   70.7600 C   0  0  0  0  0  0  0  0  0  0  0  0
    1.7110   64.8660   70.1390 C   0  0  0  0  0  0  0  0  0  0  0  0
    0.8650   66.1210   70.3420 C   0  0  0  0  0  0  0  0  0  0  0  0
    1.1170   67.1100   69.3030 N   0  0  0  0  0  0  0  0  0  0  0  0
    0.2830   67.2430   68.2210 C   0  0  0  0  0  0  0  0  0  0  0  0
   -0.7190   66.5510   68.0340 O   0  0  0  0  0  0  0  0  0  0  0  0
    0.6570   68.3060   67.1810 C   0  0  1  0  0  0  0  0  0  0  0  0
   -0.6110   68.9360   66.6520 N   0  0  0  0  0  4  0  0  0  0  0  0
    1.5620   69.3780   67.8030 C   0  0  0  0  0  0  0  0  0  0  0  0
    2.8790   69.5000   67.1050 C   0  0  0  0  0  0  0  0  0  0  0  0
    3.1350   69.1730   65.7870 C   0  0  0  0  0  0  0  0  0  0  0  0
    4.4590   69.4150   65.5300 N   0  0  0  0  0  0  0  0  0  0  0  0
    5.0840   69.8610   66.6700 C   0  0  0  0  0  0  0  0  0  0  0  0
    4.1150   69.9570   67.6690 C   0  0  0  0  0  0  0  0  0  0  0  0
    4.5020   70.4390   68.9360 C   0  0  0  0  0  0  0  0  0  0  0  0
    5.8400   70.7870   69.1610 C   0  0  0  0  0  0  0  0  0  0  0  0
    6.7860   70.6660   68.1470 C   0  0  0  0  0  0  0  0  0  0  0  0
    6.4240   70.2050   66.8790 C   0  0  0  0  0  0  0  0  0  0  0  0
    0.5197   62.8573   72.6813 H   0  0  0  0  0  0  0  0  0  0  0  0
    1.5047   64.4180   72.6686 H   0  0  0  0  0  0  0  0  0  0  0  0
    3.2159   62.5019   71.6646 H   0  0  0  0  0  0  0  0  0  0  0  0
    3.1638   63.2539   73.3515 H   0  0  0  0  0  0  0  0  0  0  0  0
    1.5257   60.8334   72.8466 H   0  0  0  0  0  0  0  0  0  0  0  0
    3.3574   60.6869   72.9881 H   0  0  0  0  0  0  0  0  0  0  0  0
    3.2237   61.3901   75.2730 H   0  0  0  0  0  0  0  0  0  0  0  0
    2.2173   54.2517   74.2600 H   0  0  0  0  0  0  0  0  0  0  0  0
    1.0106   54.9224   73.1108 H   0  0  0  0  0  0  0  0  0  0  0  0
    2.6948   55.5470   73.1108 H   0  0  0  0  0  0  0  0  0  0  0  0
   -0.1975   55.1544   75.4872 H   0  0  0  0  0  0  0  0  0  0  0  0
   -0.2740   56.4548   77.5812 H   0  0  0  0  0  0  0  0  0  0  0  0
    1.2311   58.6016   77.7524 H   0  0  0  0  0  0  0  0  0  0  0  0
    2.2240   57.2545   77.2786 H   0  0  0  0  0  0  0  0  0  0  0  0
    1.8633   59.0915   74.6893 H   0  0  0  0  0  0  0  0  0  0  0  0
    3.3257   57.3529   75.1570 H   0  0  0  0  0  0  0  0  0  0  0  0
    2.4780   57.8853   73.6983 H   0  0  0  0  0  0  0  0  0  0  0  0
   -1.7157   58.1245   77.3298 H   0  0  0  0  0  0  0  0  0  0  0  0
   -1.5653   57.7356   75.5332 H   0  0  0  0  0  0  0  0  0  0  0  0
    1.5964   63.7921   75.3485 H   0  0  0  0  0  0  0  0  0  0  0  0
   -0.0698   65.5628   75.8706 H   0  0  0  0  0  0  0  0  0  0  0  0
   -3.0064   62.5277   76.7174 H   0  0  0  0  0  0  0  0  0  0  0  0
    1.4861   62.7358   70.2211 H   0  0  0  0  0  0  0  0  0  0  0  0
    0.0027   63.7325   70.6683 H   0  0  0  0  0  0  0  0  0  0  0  0
    2.6972   65.0321   70.5971 H   0  0  0  0  0  0  0  0  0  0  0  0
    1.7809   64.6925   69.0550 H   0  0  0  0  0  0  0  0  0  0  0  0
   -0.1988   65.8422   70.3192 H   0  0  0  0  0  0  0  0  0  0  0  0
    1.1337   66.5644   71.3122 H   0  0  0  0  0  0  0  0  0  0  0  0
    1.9402   67.7239   69.3820 H   0  0  0  0  0  0  0  0  0  0  0  0
    1.2108   67.8319   66.3572 H   0  0  0  0  0  0  0  0  0  0  0  0
   -1.2034   69.2303   67.4415 H   0  0  0  0  0  0  0  0  0  0  0  0
   -0.3726   69.7566   66.0770 H   0  0  0  0  0  0  0  0  0  0  0  0
   -1.1210   68.2503   66.0770 H   0  0  0  0  0  0  0  0  0  0  0  0
    1.0453   70.3477   67.7509 H   0  0  0  0  0  0  0  0  0  0  0  0
    1.7641   69.0790   68.8421 H   0  0  0  0  0  0  0  0  0  0  0  0
    2.4004   68.7843   65.0663 H   0  0  0  0  0  0  0  0  0  0  0  0
    4.9180   69.2823   64.6175 H   0  0  0  0  0  0  0  0  0  0  0  0
    3.7595   70.5409   69.7411 H   0  0  0  0  0  0  0  0  0  0  0  0
    6.1465   71.1599   70.1495 H   0  0  0  0  0  0  0  0  0  0  0  0
    7.8331   70.9372   68.3470 H   0  0  0  0  0  0  0  0  0  0  0  0
    7.1668   70.1155   66.0726 H   0  0  0  0  0  0  0  0  0  0  0  0
  2  1  1  0
  3  2  1  0
  4  3  1  0
  6  5  1  0
  7  6  2  0
  8  7  1  0
  9  8  1  0
 10  9  1  0
 11  6  1  0
 11 10  1  0
 12 10  1  0
 13 12  2  0
 14 13  1  0
 14  8  1  0
 15 13  1  0
 16 15  2  0
 17 16  1  0
 18 17  2  0
 18 12  1  0
 18  4  1  0
 19 17  1  0
 20 19  2  0
 21 20  1  0
 22 21  2  0
 22 16  1  0
 23 21  1  0
 24  1  1  0
 25 24  1  0
 26 25  1  0
 27 26  1  0
 28 27  1  0
 29 28  2  0
 30 28  1  0
 31 30  1  0
 32 30  1  0
 33 32  1  0
 34 33  2  0
 35 34  1  0
 36 35  1  0
 37 33  1  0
 37 36  2  0
 38 37  1  0
 39 38  2  0
 40 39  1  0
 41 40  2  0
 41 36  1  0
  1 42  1  0
  1 43  1  0
  2 44  1  0
  2 45  1  0
  3 46  1  0
  3 47  1  0
  4 48  1  0
  5 49  1  0
  5 50  1  0
  5 51  1  0
  7 52  1  0
  8 53  1  1
  9 54  1  0
  9 55  1  0
 10 56  1  1
 11 57  1  0
 11 58  1  0
 14 59  1  0
 14 60  1  0
 19 61  1  0
 20 62  1  0
 22 63  1  0
 24 64  1  0
 24 65  1  0
 25 66  1  0
 25 67  1  0
 26 68  1  0
 26 69  1  0
 27 70  1  0
 30 71  1  6
 31 72  1  0
 31 73  1  0
 31 74  1  0
 32 75  1  0
 32 76  1  0
 34 77  1  0
 35 78  1  0
 38 79  1  0
 39 80  1  0
 40 81  1  0
 41 82  1  0
M  CHG  1  31   1
M  END
>  <score>  (7) 
-9.776

$$$$
