=
     RDKit          3D

 40 43  0  0  0  0  0  0  0  0999 V2000
    0.4470   68.2500   65.0840 C   0  0  0  0  0  0  0  0  0  0  0  0
   -0.9510   68.1830   65.5130 C   0  0  0  0  0  0  0  0  0  0  0  0
   -1.3580   68.7090   66.6940 C   0  0  0  0  0  0  0  0  0  0  0  0
   -0.4190   69.3140   67.5010 N   0  0  0  0  0  0  0  0  0  0  0  0
    0.9090   69.3290   67.1810 C   0  0  0  0  0  0  0  0  0  0  0  0
    1.3820   68.7670   65.8930 C   0  0  0  0  0  0  0  0  0  0  0  0
    2.8040   68.9660   65.9030 C   0  0  0  0  0  0  0  0  0  0  0  0
    3.0480   69.5550   67.1030 C   0  0  0  0  0  0  0  0  0  0  0  0
    1.9090   69.7930   67.8830 N   0  0  0  0  0  0  0  0  0  0  0  0
    4.3600   69.9780   67.6300 C   0  0  0  0  0  0  0  0  0  0  0  0
    5.5290   69.9030   66.8560 C   0  0  0  0  0  0  0  0  0  0  0  0
    6.7580   70.3070   67.3840 C   0  0  0  0  0  0  0  0  0  0  0  0
    6.8230   70.7740   68.6920 C   0  0  0  0  0  0  0  0  0  0  0  0
    5.6840   70.8400   69.4830 C   0  0  0  0  0  0  0  0  0  0  0  0
    4.4550   70.4380   68.9540 C   0  0  0  0  0  0  0  0  0  0  0  0
    8.0010   71.1590   69.1970 F   0  0  0  0  0  0  0  0  0  0  0  0
    3.7610   68.6380   64.8430 C   0  0  0  0  0  0  0  0  0  0  0  0
    4.3560   69.6420   64.0780 C   0  0  0  0  0  0  0  0  0  0  0  0
    5.2460   69.2740   63.0830 C   0  0  0  0  0  0  0  0  0  0  0  0
    5.5700   67.9950   62.8000 N   0  0  0  0  0  0  0  0  0  0  0  0
    4.9780   67.0400   63.5490 C   0  0  0  0  0  0  0  0  0  0  0  0
    4.0810   67.3070   64.5690 C   0  0  0  0  0  0  0  0  0  0  0  0
   -2.6680   68.6500   67.0970 N   0  0  0  0  0  0  0  0  0  0  0  0
    0.5990   68.5880   62.8040 C   0  0  0  0  0  0  0  0  0  0  0  0
    0.7250   67.6520   63.8750 O   0  0  0  0  0  0  0  0  0  0  0  0
   -1.6894   67.6937   64.8608 H   0  0  0  0  0  0  0  0  0  0  0  0
   -0.7279   69.7688   68.3720 H   0  0  0  0  0  0  0  0  0  0  0  0
    5.4769   69.5229   65.8251 H   0  0  0  0  0  0  0  0  0  0  0  0
    7.6684   70.2559   66.7687 H   0  0  0  0  0  0  0  0  0  0  0  0
    5.7487   71.2060   70.5183 H   0  0  0  0  0  0  0  0  0  0  0  0
    3.5522   70.4821   69.5808 H   0  0  0  0  0  0  0  0  0  0  0  0
    4.1234   70.7014   64.2611 H   0  0  0  0  0  0  0  0  0  0  0  0
    5.7164   70.0710   62.4885 H   0  0  0  0  0  0  0  0  0  0  0  0
    5.2227   65.9889   63.3363 H   0  0  0  0  0  0  0  0  0  0  0  0
    3.6306   66.4890   65.1504 H   0  0  0  0  0  0  0  0  0  0  0  0
   -2.9479   69.0586   68.0001 H   0  0  0  0  0  0  0  0  0  0  0  0
   -3.3717   68.1971   66.4965 H   0  0  0  0  0  0  0  0  0  0  0  0
    0.4629   69.5992   63.2149 H   0  0  0  0  0  0  0  0  0  0  0  0
    1.5086   68.5627   62.1860 H   0  0  0  0  0  0  0  0  0  0  0  0
   -0.2716   68.3231   62.1860 H   0  0  0  0  0  0  0  0  0  0  0  0
  2  1  1  0
  3  2  2  0
  4  3  1  0
  5  4  1  0
  6  1  2  0
  6  5  1  0
  7  6  1  0
  8  7  2  0
  9  8  1  0
  9  5  2  0
 10  8  1  0
 11 10  2  0
 12 11  1  0
 13 12  2  0
 14 13  1  0
 15 10  1  0
 15 14  2  0
 16 13  1  0
 17  7  1  0
 18 17  2  0
 19 18  1  0
 20 19  2  0
 21 20  1  0
 22 21  2  0
 22 17  1  0
 23  3  1  0
 25 24  1  0
 25  1  1  0
  2 26  1  0
  4 27  1  0
 11 28  1  0
 12 29  1  0
 14 30  1  0
 15 31  1  0
 18 32  1  0
 19 33  1  0
 21 34  1  0
 22 35  1  0
 23 36  1  0
 23 37  1  0
 24 38  1  0
 24 39  1  0
 24 40  1  0
M  END
>  <score>  (1) 
-11.209

$$$$
=
     RDKit          3D

 40 43  0  0  0  0  0  0  0  0999 V2000
    1.9180   68.3570   63.1060 C   0  0  0  0  0  0  0  0  0  0  0  0
    2.1840   68.4250   61.6690 C   0  0  0  0  0  0  0  0  0  0  0  0
    3.3740   68.8580   61.1870 C   0  0  0  0  0  0  0  0  0  0  0  0
    4.3450   69.2440   62.0850 N   0  0  0  0  0  0  0  0  0  0  0  0
    4.1140   69.2770   63.4320 C   0  0  0  0  0  0  0  0  0  0  0  0
    2.8240   68.8030   63.9880 C   0  0  0  0  0  0  0  0  0  0  0  0
    2.9490   68.9750   65.4080 C   0  0  0  0  0  0  0  0  0  0  0  0
    4.1850   69.5150   65.5690 C   0  0  0  0  0  0  0  0  0  0  0  0
    4.9070   69.6920   64.3830 N   0  0  0  0  0  0  0  0  0  0  0  0
    4.8240   69.8940   66.8440 C   0  0  0  0  0  0  0  0  0  0  0  0
    4.0730   70.1880   67.9930 C   0  0  0  0  0  0  0  0  0  0  0  0
    4.7060   70.5480   69.1840 C   0  0  0  0  0  0  0  0  0  0  0  0
    6.0930   70.6290   69.2260 C   0  0  0  0  0  0  0  0  0  0  0  0
    6.8580   70.3620   68.0980 C   0  0  0  0  0  0  0  0  0  0  0  0
    6.2240   69.9990   66.9070 C   0  0  0  0  0  0  0  0  0  0  0  0
    6.6990   70.9760   70.3680 F   0  0  0  0  0  0  0  0  0  0  0  0
    1.9750   68.6140   66.4410 C   0  0  0  0  0  0  0  0  0  0  0  0
    2.1080   67.4330   67.1720 C   0  0  0  0  0  0  0  0  0  0  0  0
    1.1540   67.1370   68.1310 C   0  0  0  0  0  0  0  0  0  0  0  0
    0.0900   67.9230   68.3980 N   0  0  0  0  0  0  0  0  0  0  0  0
   -0.0230   69.0580   67.6750 C   0  0  0  0  0  0  0  0  0  0  0  0
    0.8820   69.4430   66.7010 C   0  0  0  0  0  0  0  0  0  0  0  0
    3.6280   68.9190   59.8390 N   0  0  0  0  0  0  0  0  0  0  0  0
   -0.3200   68.9260   63.1780 C   0  0  0  0  0  0  0  0  0  0  0  0
    0.6580   67.9240   63.4550 O   0  0  0  0  0  0  0  0  0  0  0  0
    1.3989   68.1171   60.9627 H   0  0  0  0  0  0  0  0  0  0  0  0
    5.2731   69.5160   61.7307 H   0  0  0  0  0  0  0  0  0  0  0  0
    2.9750   70.1342   67.9545 H   0  0  0  0  0  0  0  0  0  0  0  0
    4.1111   70.7661   70.0832 H   0  0  0  0  0  0  0  0  0  0  0  0
    7.9546   70.4357   68.1419 H   0  0  0  0  0  0  0  0  0  0  0  0
    6.8265   69.7934   66.0100 H   0  0  0  0  0  0  0  0  0  0  0  0
    2.9524   66.7518   66.9904 H   0  0  0  0  0  0  0  0  0  0  0  0
    1.2701   66.2079   68.7083 H   0  0  0  0  0  0  0  0  0  0  0  0
   -0.8837   69.7142   67.8714 H   0  0  0  0  0  0  0  0  0  0  0  0
    0.7432   70.3814   66.1441 H   0  0  0  0  0  0  0  0  0  0  0  0
    4.5423   69.2525   59.5018 H   0  0  0  0  0  0  0  0  0  0  0  0
    2.9042   68.6312   59.1650 H   0  0  0  0  0  0  0  0  0  0  0  0
   -0.7118   69.3274   64.1242 H   0  0  0  0  0  0  0  0  0  0  0  0
    0.1418   69.7387   62.5982 H   0  0  0  0  0  0  0  0  0  0  0  0
   -1.1437   68.4841   62.5982 H   0  0  0  0  0  0  0  0  0  0  0  0
  2  1  1  0
  3  2  2  0
  4  3  1  0
  5  4  1  0
  6  1  2  0
  6  5  1  0
  7  6  1  0
  8  7  2  0
  9  8  1  0
  9  5  2  0
 10  8  1  0
 11 10  2  0
 12 11  1  0
 13 12  2  0
 14 13  1  0
 15 10  1  0
 15 14  2  0
 16 13  1  0
 17  7  1  0
 18 17  2  0
 19 18  1  0
 20 19  2  0
 21 20  1  0
 22 21  2  0
 22 17  1  0
 23  3  1  0
 25 24  1  0
 25  1  1  0
  2 26  1  0
  4 27  1  0
 11 28  1  0
 12 29  1  0
 14 30  1  0
 15 31  1  0
 18 32  1  0
 19 33  1  0
 21 34  1  0
 22 35  1  0
 23 36  1  0
 23 37  1  0
 24 38  1  0
 24 39  1  0
 24 40  1  0
M  END
>  <score>  (2) 
-11.057

$$$$
=
     RDKit          3D

 40 43  0  0  0  0  0  0  0  0999 V2000
    5.4510   69.9870   66.1820 C   0  0  0  0  0  0  0  0  0  0  0  0
    6.4320   70.7260   66.9790 C   0  0  0  0  0  0  0  0  0  0  0  0
    6.2140   71.0170   68.2840 C   0  0  0  0  0  0  0  0  0  0  0  0
    5.0310   70.6050   68.8590 N   0  0  0  0  0  0  0  0  0  0  0  0
    4.0510   69.9860   68.1360 C   0  0  0  0  0  0  0  0  0  0  0  0
    4.2660   69.6490   66.7080 C   0  0  0  0  0  0  0  0  0  0  0  0
    3.0490   69.0100   66.2920 C   0  0  0  0  0  0  0  0  0  0  0  0
    2.2640   69.0390   67.4010 C   0  0  0  0  0  0  0  0  0  0  0  0
    2.8620   69.6150   68.5290 N   0  0  0  0  0  0  0  0  0  0  0  0
    0.8920   68.5100   67.5270 C   0  0  0  0  0  0  0  0  0  0  0  0
    0.6060   67.3600   68.2800 C   0  0  0  0  0  0  0  0  0  0  0  0
   -0.7020   66.8800   68.3770 C   0  0  0  0  0  0  0  0  0  0  0  0
   -1.7260   67.5420   67.7090 C   0  0  0  0  0  0  0  0  0  0  0  0
   -1.4660   68.6710   66.9430 C   0  0  0  0  0  0  0  0  0  0  0  0
   -0.1570   69.1510   66.8480 C   0  0  0  0  0  0  0  0  0  0  0  0
   -2.9790   67.0810   67.8010 F   0  0  0  0  0  0  0  0  0  0  0  0
    2.7450   68.4320   64.9810 C   0  0  0  0  0  0  0  0  0  0  0  0
    3.0340   67.0950   64.7020 C   0  0  0  0  0  0  0  0  0  0  0  0
    2.7330   66.6030   63.4430 C   0  0  0  0  0  0  0  0  0  0  0  0
    2.1820   67.3450   62.4590 N   0  0  0  0  0  0  0  0  0  0  0  0
    1.9160   68.6360   62.7490 C   0  0  0  0  0  0  0  0  0  0  0  0
    2.1740   69.2180   63.9780 C   0  0  0  0  0  0  0  0  0  0  0  0
    7.1340   71.7070   69.0340 N   0  0  0  0  0  0  0  0  0  0  0  0
    6.1870   68.4300   64.6430 C   0  0  0  0  0  0  0  0  0  0  0  0
    5.7920   69.7840   64.8630 O   0  0  0  0  0  0  0  0  0  0  0  0
    7.3698   71.0532   66.5062 H   0  0  0  0  0  0  0  0  0  0  0  0
    4.8812   70.7689   69.8648 H   0  0  0  0  0  0  0  0  0  0  0  0
    1.4199   66.8320   68.7985 H   0  0  0  0  0  0  0  0  0  0  0  0
   -0.9204   65.9847   68.9776 H   0  0  0  0  0  0  0  0  0  0  0  0
   -2.2840   69.1833   66.4153 H   0  0  0  0  0  0  0  0  0  0  0  0
    0.0539   70.0398   66.2352 H   0  0  0  0  0  0  0  0  0  0  0  0
    3.4904   66.4471   65.4648 H   0  0  0  0  0  0  0  0  0  0  0  0
    2.9558   65.5465   63.2326 H   0  0  0  0  0  0  0  0  0  0  0  0
    1.4682   69.2619   61.9631 H   0  0  0  0  0  0  0  0  0  0  0  0
    1.9346   70.2760   64.1605 H   0  0  0  0  0  0  0  0  0  0  0  0
    6.9403   71.9137   70.0243 H   0  0  0  0  0  0  0  0  0  0  0  0
    8.0179   72.0180   68.6064 H   0  0  0  0  0  0  0  0  0  0  0  0
    6.3332   67.9288   65.6112 H   0  0  0  0  0  0  0  0  0  0  0  0
    5.4039   67.9074   64.0741 H   0  0  0  0  0  0  0  0  0  0  0  0
    7.1283   68.4105   64.0741 H   0  0  0  0  0  0  0  0  0  0  0  0
  2  1  1  0
  3  2  2  0
  4  3  1  0
  5  4  1  0
  6  1  2  0
  6  5  1  0
  7  6  1  0
  8  7  2  0
  9  8  1  0
  9  5  2  0
 10  8  1  0
 11 10  2  0
 12 11  1  0
 13 12  2  0
 14 13  1  0
 15 10  1  0
 15 14  2  0
 16 13  1  0
 17  7  1  0
 18 17  2  0
 19 18  1  0
 20 19  2  0
 21 20  1  0
 22 21  2  0
 22 17  1  0
 23  3  1  0
 25 24  1  0
 25  1  1  0
  2 26  1  0
  4 27  1  0
 11 28  1  0
 12 29  1  0
 14 30  1  0
 15 31  1  0
 18 32  1  0
 19 33  1  0
 21 34  1  0
 22 35  1  0
 23 36  1  0
 23 37  1  0
 24 38  1  0
 24 39  1  0
 24 40  1  0
M  END
>  <score>  (3) 
-9.85

$$$$
=
     RDKit          3D

 40 43  0  0  0  0  0  0  0  0999 V2000
    1.2980   62.9400   73.9260 C   0  0  0  0  0  0  0  0  0  0  0  0
    0.7680   62.9740   75.2900 C   0  0  0  0  0  0  0  0  0  0  0  0
   -0.1760   63.8710   75.6630 C   0  0  0  0  0  0  0  0  0  0  0  0
   -0.6360   64.7690   74.7250 N   0  0  0  0  0  0  0  0  0  0  0  0
   -0.1130   64.8300   73.4640 C   0  0  0  0  0  0  0  0  0  0  0  0
    0.9180   63.8580   73.0260 C   0  0  0  0  0  0  0  0  0  0  0  0
    1.2120   64.2180   71.6680 C   0  0  0  0  0  0  0  0  0  0  0  0
    0.4230   65.2990   71.4330 C   0  0  0  0  0  0  0  0  0  0  0  0
   -0.3940   65.6740   72.5070 N   0  0  0  0  0  0  0  0  0  0  0  0
    0.3330   66.0720   70.1800 C   0  0  0  0  0  0  0  0  0  0  0  0
   -0.7900   65.9950   69.3390 C   0  0  0  0  0  0  0  0  0  0  0  0
   -0.8440   66.7360   68.1560 C   0  0  0  0  0  0  0  0  0  0  0  0
    0.2300   67.5440   67.8030 C   0  0  0  0  0  0  0  0  0  0  0  0
    1.3590   67.6220   68.6080 C   0  0  0  0  0  0  0  0  0  0  0  0
    1.4120   66.8830   69.7920 C   0  0  0  0  0  0  0  0  0  0  0  0
    0.1780   68.2520   66.6680 F   0  0  0  0  0  0  0  0  0  0  0  0
    2.1290   63.5470   70.7430 C   0  0  0  0  0  0  0  0  0  0  0  0
    1.6780   62.5360   69.8930 C   0  0  0  0  0  0  0  0  0  0  0  0
    2.5900   61.9300   69.0450 C   0  0  0  0  0  0  0  0  0  0  0  0
    3.8990   62.2520   68.9970 N   0  0  0  0  0  0  0  0  0  0  0  0
    4.3150   63.2280   69.8320 C   0  0  0  0  0  0  0  0  0  0  0  0
    3.4800   63.8980   70.7100 C   0  0  0  0  0  0  0  0  0  0  0  0
   -0.6770   63.9020   76.9410 N   0  0  0  0  0  0  0  0  0  0  0  0
    1.6980   60.7810   73.2090 C   0  0  0  0  0  0  0  0  0  0  0  0
    2.2730   61.9950   73.6920 O   0  0  0  0  0  0  0  0  0  0  0  0
    1.1456   62.2534   76.0304 H   0  0  0  0  0  0  0  0  0  0  0  0
   -1.3970   65.4138   74.9819 H   0  0  0  0  0  0  0  0  0  0  0  0
   -1.6340   65.3456   69.6145 H   0  0  0  0  0  0  0  0  0  0  0  0
   -1.7311   66.6802   67.5080 H   0  0  0  0  0  0  0  0  0  0  0  0
    2.2052   68.2610   68.3153 H   0  0  0  0  0  0  0  0  0  0  0  0
    2.3084   66.9367   70.4273 H   0  0  0  0  0  0  0  0  0  0  0  0
    0.6221   62.2275   69.8965 H   0  0  0  0  0  0  0  0  0  0  0  0
    2.2257   61.1402   68.3715 H   0  0  0  0  0  0  0  0  0  0  0  0
    5.3789   63.5070   69.8137 H   0  0  0  0  0  0  0  0  0  0  0  0
    3.8720   64.6887   71.3665 H   0  0  0  0  0  0  0  0  0  0  0  0
   -1.3945   64.5955   77.1962 H   0  0  0  0  0  0  0  0  0  0  0  0
   -0.3353   63.2318   77.6445 H   0  0  0  0  0  0  0  0  0  0  0  0
    1.4001   60.1520   74.0609 H   0  0  0  0  0  0  0  0  0  0  0  0
    0.8137   61.0122   72.5970 H   0  0  0  0  0  0  0  0  0  0  0  0
    2.4371   60.2433   72.5970 H   0  0  0  0  0  0  0  0  0  0  0  0
  2  1  1  0
  3  2  2  0
  4  3  1  0
  5  4  1  0
  6  1  2  0
  6  5  1  0
  7  6  1  0
  8  7  2  0
  9  8  1  0
  9  5  2  0
 10  8  1  0
 11 10  2  0
 12 11  1  0
 13 12  2  0
 14 13  1  0
 15 10  1  0
 15 14  2  0
 16 13  1  0
 17  7  1  0
 18 17  2  0
 19 18  1  0
 20 19  2  0
 21 20  1  0
 22 21  2  0
 22 17  1  0
 23  3  1  0
 25 24  1  0
 25  1  1  0
  2 26  1  0
  4 27  1  0
 11 28  1  0
 12 29  1  0
 14 30  1  0
 15 31  1  0
 18 32  1  0
 19 33  1  0
 21 34  1  0
 22 35  1  0
 23 36  1  0
 23 37  1  0
 24 38  1  0
 24 39  1  0
 24 40  1  0
M  END
>  <score>  (4) 
-9.234

$$$$
=
     RDKit          3D

 40 43  0  0  0  0  0  0  0  0999 V2000
    0.9830   58.8090   73.4150 C   0  0  0  0  0  0  0  0  0  0  0  0
   -0.0720   58.1410   74.1780 C   0  0  0  0  0  0  0  0  0  0  0  0
   -1.2870   58.7120   74.3600 C   0  0  0  0  0  0  0  0  0  0  0  0
   -1.5180   59.9540   73.8090 N   0  0  0  0  0  0  0  0  0  0  0  0
   -0.5390   60.6510   73.1590 C   0  0  0  0  0  0  0  0  0  0  0  0
    0.7980   60.0490   72.9410 C   0  0  0  0  0  0  0  0  0  0  0  0
    1.5430   61.0500   72.2300 C   0  0  0  0  0  0  0  0  0  0  0  0
    0.6740   62.0890   72.1150 C   0  0  0  0  0  0  0  0  0  0  0  0
   -0.5940   61.8580   72.6620 N   0  0  0  0  0  0  0  0  0  0  0  0
    0.9320   63.3880   71.4630 C   0  0  0  0  0  0  0  0  0  0  0  0
    2.0790   63.6140   70.6870 C   0  0  0  0  0  0  0  0  0  0  0  0
    2.2970   64.8560   70.0850 C   0  0  0  0  0  0  0  0  0  0  0  0
    1.3750   65.8790   70.2710 C   0  0  0  0  0  0  0  0  0  0  0  0
    0.2420   65.6860   71.0500 C   0  0  0  0  0  0  0  0  0  0  0  0
    0.0240   64.4430   71.6490 C   0  0  0  0  0  0  0  0  0  0  0  0
    1.5860   67.0690   69.6960 F   0  0  0  0  0  0  0  0  0  0  0  0
    2.9120   60.9520   71.7200 C   0  0  0  0  0  0  0  0  0  0  0  0
    4.0020   61.3030   72.5180 C   0  0  0  0  0  0  0  0  0  0  0  0
    5.2750   61.1990   71.9820 C   0  0  0  0  0  0  0  0  0  0  0  0
    5.5270   60.7850   70.7220 N   0  0  0  0  0  0  0  0  0  0  0  0
    4.4580   60.4560   69.9660 C   0  0  0  0  0  0  0  0  0  0  0  0
    3.1490   60.5200   70.4130 C   0  0  0  0  0  0  0  0  0  0  0  0
   -2.2790   58.0860   75.0720 N   0  0  0  0  0  0  0  0  0  0  0  0
    2.2250   57.3270   72.1510 C   0  0  0  0  0  0  0  0  0  0  0  0
    2.1770   58.1260   73.3320 O   0  0  0  0  0  0  0  0  0  0  0  0
    0.1263   57.1510   74.6145 H   0  0  0  0  0  0  0  0  0  0  0  0
   -2.4571   60.3693   73.8897 H   0  0  0  0  0  0  0  0  0  0  0  0
    2.8132   62.8062   70.5513 H   0  0  0  0  0  0  0  0  0  0  0  0
    3.1923   65.0228   69.4681 H   0  0  0  0  0  0  0  0  0  0  0  0
   -0.4779   66.5051   71.1943 H   0  0  0  0  0  0  0  0  0  0  0  0
   -0.8686   64.2889   72.2731 H   0  0  0  0  0  0  0  0  0  0  0  0
    3.8534   61.6544   73.5497 H   0  0  0  0  0  0  0  0  0  0  0  0
    6.1297   61.4693   72.6196 H   0  0  0  0  0  0  0  0  0  0  0  0
    4.6373   60.1174   68.9349 H   0  0  0  0  0  0  0  0  0  0  0  0
    2.3149   60.2371   69.7540 H   0  0  0  0  0  0  0  0  0  0  0  0
   -3.1932   58.5446   75.1940 H   0  0  0  0  0  0  0  0  0  0  0  0
   -2.1094   57.1575   75.4844 H   0  0  0  0  0  0  0  0  0  0  0  0
    2.2888   56.2647   72.4293 H   0  0  0  0  0  0  0  0  0  0  0  0
    1.3151   57.4963   71.5565 H   0  0  0  0  0  0  0  0  0  0  0  0
    3.1081   57.6040   71.5565 H   0  0  0  0  0  0  0  0  0  0  0  0
  2  1  1  0
  3  2  2  0
  4  3  1  0
  5  4  1  0
  6  1  2  0
  6  5  1  0
  7  6  1  0
  8  7  2  0
  9  8  1  0
  9  5  2  0
 10  8  1  0
 11 10  2  0
 12 11  1  0
 13 12  2  0
 14 13  1  0
 15 10  1  0
 15 14  2  0
 16 13  1  0
 17  7  1  0
 18 17  2  0
 19 18  1  0
 20 19  2  0
 21 20  1  0
 22 21  2  0
 22 17  1  0
 23  3  1  0
 25 24  1  0
 25  1  1  0
  2 26  1  0
  4 27  1  0
 11 28  1  0
 12 29  1  0
 14 30  1  0
 15 31  1  0
 18 32  1  0
 19 33  1  0
 21 34  1  0
 22 35  1  0
 23 36  1  0
 23 37  1  0
 24 38  1  0
 24 39  1  0
 24 40  1  0
M  END
>  <score>  (5) 
-9.081

$$$$
=
     RDKit          3D

 40 43  0  0  0  0  0  0  0  0999 V2000
    3.5790   60.7500   70.5150 C   0  0  0  0  0  0  0  0  0  0  0  0
    3.9660   61.3990   69.2620 C   0  0  0  0  0  0  0  0  0  0  0  0
    3.3060   62.4850   68.7910 C   0  0  0  0  0  0  0  0  0  0  0  0
    2.2440   62.9750   69.5200 N   0  0  0  0  0  0  0  0  0  0  0  0
    1.7950   62.3540   70.6510 C   0  0  0  0  0  0  0  0  0  0  0  0
    2.5010   61.1680   71.1930 C   0  0  0  0  0  0  0  0  0  0  0  0
    1.7640   60.8040   72.3690 C   0  0  0  0  0  0  0  0  0  0  0  0
    0.7490   61.7070   72.4170 C   0  0  0  0  0  0  0  0  0  0  0  0
    0.7620   62.6590   71.3900 N   0  0  0  0  0  0  0  0  0  0  0  0
   -0.3150   61.7870   73.4350 C   0  0  0  0  0  0  0  0  0  0  0  0
   -0.1630   62.5410   74.6110 C   0  0  0  0  0  0  0  0  0  0  0  0
   -1.1870   62.5940   75.5590 C   0  0  0  0  0  0  0  0  0  0  0  0
   -2.3610   61.8820   75.3410 C   0  0  0  0  0  0  0  0  0  0  0  0
   -2.5280   61.1150   74.1960 C   0  0  0  0  0  0  0  0  0  0  0  0
   -1.5040   61.0640   73.2470 C   0  0  0  0  0  0  0  0  0  0  0  0
   -3.3410   61.9330   76.2510 F   0  0  0  0  0  0  0  0  0  0  0  0
    2.0640   59.7260   73.3150 C   0  0  0  0  0  0  0  0  0  0  0  0
    3.0440   59.8850   74.2960 C   0  0  0  0  0  0  0  0  0  0  0  0
    3.2930   58.8310   75.1590 C   0  0  0  0  0  0  0  0  0  0  0  0
    2.6460   57.6470   75.1030 N   0  0  0  0  0  0  0  0  0  0  0  0
    1.7060   57.5140   74.1440 C   0  0  0  0  0  0  0  0  0  0  0  0
    1.3820   58.5100   73.2390 C   0  0  0  0  0  0  0  0  0  0  0  0
    3.6690   63.0980   67.6180 N   0  0  0  0  0  0  0  0  0  0  0  0
    3.6830   58.4440   70.4110 C   0  0  0  0  0  0  0  0  0  0  0  0
    4.3200   59.6400   70.8600 O   0  0  0  0  0  0  0  0  0  0  0  0
    4.8134   60.9956   68.6882 H   0  0  0  0  0  0  0  0  0  0  0  0
    1.7747   63.8352   69.2026 H   0  0  0  0  0  0  0  0  0  0  0  0
    0.7712   63.0946   74.7864 H   0  0  0  0  0  0  0  0  0  0  0  0
   -1.0655   63.1951   76.4722 H   0  0  0  0  0  0  0  0  0  0  0  0
   -3.4594   60.5517   74.0372 H   0  0  0  0  0  0  0  0  0  0  0  0
   -1.6305   60.4508   72.3426 H   0  0  0  0  0  0  0  0  0  0  0  0
    3.6061   60.8266   74.3817 H   0  0  0  0  0  0  0  0  0  0  0  0
    4.0616   58.9659   75.9343 H   0  0  0  0  0  0  0  0  0  0  0  0
    1.1656   56.5582   74.0776 H   0  0  0  0  0  0  0  0  0  0  0  0
    0.6051   58.3473   72.4775 H   0  0  0  0  0  0  0  0  0  0  0  0
    3.1484   63.9220   67.2850 H   0  0  0  0  0  0  0  0  0  0  0  0
    4.4620   62.7340   67.0707 H   0  0  0  0  0  0  0  0  0  0  0  0
    3.3660   57.8489   71.2801 H   0  0  0  0  0  0  0  0  0  0  0  0
    2.8033   58.7030   69.8034 H   0  0  0  0  0  0  0  0  0  0  0  0
    4.3888   57.8585   69.8034 H   0  0  0  0  0  0  0  0  0  0  0  0
  2  1  1  0
  3  2  2  0
  4  3  1  0
  5  4  1  0
  6  1  2  0
  6  5  1  0
  7  6  1  0
  8  7  2  0
  9  8  1  0
  9  5  2  0
 10  8  1  0
 11 10  2  0
 12 11  1  0
 13 12  2  0
 14 13  1  0
 15 10  1  0
 15 14  2  0
 16 13  1  0
 17  7  1  0
 18 17  2  0
 19 18  1  0
 20 19  2  0
 21 20  1  0
 22 21  2  0
 22 17  1  0
 23  3  1  0
 25 24  1  0
 25  1  1  0
  2 26  1  0
  4 27  1  0
 11 28  1  0
 12 29  1  0
 14 30  1  0
 15 31  1  0
 18 32  1  0
 19 33  1  0
 21 34  1  0
 22 35  1  0
 23 36  1  0
 23 37  1  0
 24 38  1  0
 24 39  1  0
 24 40  1  0
M  END
>  <score>  (6) 
-8.968

$$$$
=
     RDKit          3D

 40 43  0  0  0  0  0  0  0  0999 V2000
    2.4360   59.2680   75.9860 C   0  0  0  0  0  0  0  0  0  0  0  0
    3.0790   58.1670   76.7050 C   0  0  0  0  0  0  0  0  0  0  0  0
    4.2160   57.5880   76.2490 C   0  0  0  0  0  0  0  0  0  0  0  0
    4.7650   58.0560   75.0740 N   0  0  0  0  0  0  0  0  0  0  0  0
    4.1570   59.0240   74.3260 C   0  0  0  0  0  0  0  0  0  0  0  0
    2.9160   59.6790   74.8040 C   0  0  0  0  0  0  0  0  0  0  0  0
    2.5830   60.6300   73.7810 C   0  0  0  0  0  0  0  0  0  0  0  0
    3.5530   60.4620   72.8440 C   0  0  0  0  0  0  0  0  0  0  0  0
    4.5190   59.5010   73.1650 N   0  0  0  0  0  0  0  0  0  0  0  0
    3.6890   61.1960   71.5710 C   0  0  0  0  0  0  0  0  0  0  0  0
    4.4410   62.3780   71.4720 C   0  0  0  0  0  0  0  0  0  0  0  0
    4.5470   63.0530   70.2530 C   0  0  0  0  0  0  0  0  0  0  0  0
    3.8900   62.5550   69.1340 C   0  0  0  0  0  0  0  0  0  0  0  0
    3.1250   61.3990   69.2110 C   0  0  0  0  0  0  0  0  0  0  0  0
    3.0200   60.7230   70.4290 C   0  0  0  0  0  0  0  0  0  0  0  0
    3.9910   63.2040   67.9680 F   0  0  0  0  0  0  0  0  0  0  0  0
    1.4710   61.5840   73.7740 C   0  0  0  0  0  0  0  0  0  0  0  0
    1.5880   62.8270   74.3990 C   0  0  0  0  0  0  0  0  0  0  0  0
    0.5020   63.6860   74.3690 C   0  0  0  0  0  0  0  0  0  0  0  0
   -0.6730   63.3900   73.7760 N   0  0  0  0  0  0  0  0  0  0  0  0
   -0.7660   62.1810   73.1820 C   0  0  0  0  0  0  0  0  0  0  0  0
    0.2640   61.2560   73.1530 C   0  0  0  0  0  0  0  0  0  0  0  0
    4.8220   56.5580   76.9230 N   0  0  0  0  0  0  0  0  0  0  0  0
    0.1530   58.9540   76.1490 C   0  0  0  0  0  0  0  0  0  0  0  0
    1.2730   59.7440   76.5490 O   0  0  0  0  0  0  0  0  0  0  0  0
    2.6279   57.8005   77.6389 H   0  0  0  0  0  0  0  0  0  0  0  0
    5.6608   57.6638   74.7504 H   0  0  0  0  0  0  0  0  0  0  0  0
    4.9510   62.7759   72.3617 H   0  0  0  0  0  0  0  0  0  0  0  0
    5.1464   63.9724   70.1795 H   0  0  0  0  0  0  0  0  0  0  0  0
    2.6053   61.0182   68.3194 H   0  0  0  0  0  0  0  0  0  0  0  0
    2.4077   59.8115   70.4950 H   0  0  0  0  0  0  0  0  0  0  0  0
    2.5213   63.1174   74.9036 H   0  0  0  0  0  0  0  0  0  0  0  0
    0.6034   64.6666   74.8571 H   0  0  0  0  0  0  0  0  0  0  0  0
   -1.7148   61.9156   72.6929 H   0  0  0  0  0  0  0  0  0  0  0  0
    0.1344   60.2852   72.6523 H   0  0  0  0  0  0  0  0  0  0  0  0
    5.6859   56.1374   76.5519 H   0  0  0  0  0  0  0  0  0  0  0  0
    4.4130   56.2053   77.8001 H   0  0  0  0  0  0  0  0  0  0  0  0
   -0.3721   58.5836   77.0418 H   0  0  0  0  0  0  0  0  0  0  0  0
   -0.5336   59.5688   75.5485 H   0  0  0  0  0  0  0  0  0  0  0  0
    0.5018   58.1009   75.5485 H   0  0  0  0  0  0  0  0  0  0  0  0
  2  1  1  0
  3  2  2  0
  4  3  1  0
  5  4  1  0
  6  1  2  0
  6  5  1  0
  7  6  1  0
  8  7  2  0
  9  8  1  0
  9  5  2  0
 10  8  1  0
 11 10  2  0
 12 11  1  0
 13 12  2  0
 14 13  1  0
 15 10  1  0
 15 14  2  0
 16 13  1  0
 17  7  1  0
 18 17  2  0
 19 18  1  0
 20 19  2  0
 21 20  1  0
 22 21  2  0
 22 17  1  0
 23  3  1  0
 25 24  1  0
 25  1  1  0
  2 26  1  0
  4 27  1  0
 11 28  1  0
 12 29  1  0
 14 30  1  0
 15 31  1  0
 18 32  1  0
 19 33  1  0
 21 34  1  0
 22 35  1  0
 23 36  1  0
 23 37  1  0
 24 38  1  0
 24 39  1  0
 24 40  1  0
M  END
>  <score>  (7) 
-8.798

$$$$
=
     RDKit          3D

 40 43  0  0  0  0  0  0  0  0999 V2000
    0.2410   57.2000   74.2820 C   0  0  0  0  0  0  0  0  0  0  0  0
    0.3400   55.7420   74.3550 C   0  0  0  0  0  0  0  0  0  0  0  0
    1.3800   55.0720   73.8010 C   0  0  0  0  0  0  0  0  0  0  0  0
    2.3570   55.7960   73.1530 N   0  0  0  0  0  0  0  0  0  0  0  0
    2.2660   57.1490   72.9880 C   0  0  0  0  0  0  0  0  0  0  0  0
    1.1430   57.9090   73.5880 C   0  0  0  0  0  0  0  0  0  0  0  0
    1.3840   59.2760   73.2210 C   0  0  0  0  0  0  0  0  0  0  0  0
    2.5170   59.2230   72.4740 C   0  0  0  0  0  0  0  0  0  0  0  0
    3.0700   57.9440   72.3340 N   0  0  0  0  0  0  0  0  0  0  0  0
    3.2100   60.3610   71.8390 C   0  0  0  0  0  0  0  0  0  0  0  0
    2.6840   61.0180   70.7150 C   0  0  0  0  0  0  0  0  0  0  0  0
    3.3650   62.0900   70.1340 C   0  0  0  0  0  0  0  0  0  0  0  0
    4.5830   62.4980   70.6650 C   0  0  0  0  0  0  0  0  0  0  0  0
    5.1340   61.8520   71.7640 C   0  0  0  0  0  0  0  0  0  0  0  0
    4.4510   60.7810   72.3470 C   0  0  0  0  0  0  0  0  0  0  0  0
    5.2360   63.5230   70.1060 F   0  0  0  0  0  0  0  0  0  0  0  0
    0.6000   60.4550   73.5990 C   0  0  0  0  0  0  0  0  0  0  0  0
    0.9620   61.2340   74.7000 C   0  0  0  0  0  0  0  0  0  0  0  0
    0.1810   62.3320   75.0180 C   0  0  0  0  0  0  0  0  0  0  0  0
   -0.9210   62.6940   74.3290 N   0  0  0  0  0  0  0  0  0  0  0  0
   -1.2560   61.9240   73.2720 C   0  0  0  0  0  0  0  0  0  0  0  0
   -0.5370   60.8110   72.8710 C   0  0  0  0  0  0  0  0  0  0  0  0
    1.4760   53.7050   73.8710 N   0  0  0  0  0  0  0  0  0  0  0  0
   -0.6390   58.0670   76.2340 C   0  0  0  0  0  0  0  0  0  0  0  0
   -0.8810   57.7470   74.8640 O   0  0  0  0  0  0  0  0  0  0  0  0
   -0.4487   55.1758   74.8720 H   0  0  0  0  0  0  0  0  0  0  0  0
    3.1810   55.3020   72.7817 H   0  0  0  0  0  0  0  0  0  0  0  0
    1.7264   60.6852   70.2880 H   0  0  0  0  0  0  0  0  0  0  0  0
    2.9401   62.6082   69.2617 H   0  0  0  0  0  0  0  0  0  0  0  0
    6.1009   62.1808   72.1726 H   0  0  0  0  0  0  0  0  0  0  0  0
    4.8893   60.2617   73.2120 H   0  0  0  0  0  0  0  0  0  0  0  0
    1.8478   60.9809   75.3011 H   0  0  0  0  0  0  0  0  0  0  0  0
    0.4761   62.9448   75.8825 H   0  0  0  0  0  0  0  0  0  0  0  0
   -2.1524   62.1968   72.6958 H   0  0  0  0  0  0  0  0  0  0  0  0
   -0.8542   60.2206   71.9988 H   0  0  0  0  0  0  0  0  0  0  0  0
    2.2778   53.2223   73.4408 H   0  0  0  0  0  0  0  0  0  0  0  0
    0.7463   53.1615   74.3538 H   0  0  0  0  0  0  0  0  0  0  0  0
   -1.1772   57.3553   76.8774 H   0  0  0  0  0  0  0  0  0  0  0  0
    0.4397   58.0044   76.4402 H   0  0  0  0  0  0  0  0  0  0  0  0
   -0.9930   59.0879   76.4402 H   0  0  0  0  0  0  0  0  0  0  0  0
  2  1  1  0
  3  2  2  0
  4  3  1  0
  5  4  1  0
  6  1  2  0
  6  5  1  0
  7  6  1  0
  8  7  2  0
  9  8  1  0
  9  5  2  0
 10  8  1  0
 11 10  2  0
 12 11  1  0
 13 12  2  0
 14 13  1  0
 15 10  1  0
 15 14  2  0
 16 13  1  0
 17  7  1  0
 18 17  2  0
 19 18  1  0
 20 19  2  0
 21 20  1  0
 22 21  2  0
 22 17  1  0
 23  3  1  0
 25 24  1  0
 25  1  1  0
  2 26  1  0
  4 27  1  0
 11 28  1  0
 12 29  1  0
 14 30  1  0
 15 31  1  0
 18 32  1  0
 19 33  1  0
 21 34  1  0
 22 35  1  0
 23 36  1  0
 23 37  1  0
 24 38  1  0
 24 39  1  0
 24 40  1  0
M  END
>  <score>  (8) 
-8.718

$$$$
=
     RDKit          3D

 40 43  0  0  0  0  0  0  0  0999 V2000
    1.4180   62.7580   71.0410 C   0  0  0  0  0  0  0  0  0  0  0  0
    2.1660   63.2870   69.9000 C   0  0  0  0  0  0  0  0  0  0  0  0
    3.1010   62.5450   69.2570 C   0  0  0  0  0  0  0  0  0  0  0  0
    3.3440   61.2650   69.7050 N   0  0  0  0  0  0  0  0  0  0  0  0
    2.7310   60.7570   70.8160 C   0  0  0  0  0  0  0  0  0  0  0  0
    1.7000   61.5440   71.5350 C   0  0  0  0  0  0  0  0  0  0  0  0
    1.2820   60.7010   72.6190 C   0  0  0  0  0  0  0  0  0  0  0  0
    2.0490   59.5870   72.4880 C   0  0  0  0  0  0  0  0  0  0  0  0
    2.9220   59.6010   71.3940 N   0  0  0  0  0  0  0  0  0  0  0  0
    2.0250   58.3920   73.3520 C   0  0  0  0  0  0  0  0  0  0  0  0
    2.7460   58.3310   74.5550 C   0  0  0  0  0  0  0  0  0  0  0  0
    2.7080   57.1830   75.3510 C   0  0  0  0  0  0  0  0  0  0  0  0
    1.9590   56.0880   74.9370 C   0  0  0  0  0  0  0  0  0  0  0  0
    1.2530   56.1160   73.7420 C   0  0  0  0  0  0  0  0  0  0  0  0
    1.2900   57.2650   72.9490 C   0  0  0  0  0  0  0  0  0  0  0  0
    1.9240   54.9870   75.6990 F   0  0  0  0  0  0  0  0  0  0  0  0
    0.2410   60.9740   73.6140 C   0  0  0  0  0  0  0  0  0  0  0  0
   -1.1100   60.8180   73.2990 C   0  0  0  0  0  0  0  0  0  0  0  0
   -2.0520   61.0980   74.2750 C   0  0  0  0  0  0  0  0  0  0  0  0
   -1.7420   61.5240   75.5180 N   0  0  0  0  0  0  0  0  0  0  0  0
   -0.4300   61.6730   75.7980 C   0  0  0  0  0  0  0  0  0  0  0  0
    0.5850   61.4130   74.8940 C   0  0  0  0  0  0  0  0  0  0  0  0
    3.8010   63.0370   68.1840 N   0  0  0  0  0  0  0  0  0  0  0  0
    0.5030   64.8760   70.9190 C   0  0  0  0  0  0  0  0  0  0  0  0
    0.5190   63.6300   71.6150 O   0  0  0  0  0  0  0  0  0  0  0  0
    1.9647   64.3121   69.5554 H   0  0  0  0  0  0  0  0  0  0  0  0
    4.0082   60.6725   69.1866 H   0  0  0  0  0  0  0  0  0  0  0  0
    3.3468   59.1954   74.8742 H   0  0  0  0  0  0  0  0  0  0  0  0
    3.2666   57.1464   76.2979 H   0  0  0  0  0  0  0  0  0  0  0  0
    0.6692   55.2403   73.4223 H   0  0  0  0  0  0  0  0  0  0  0  0
    0.7373   57.2876   71.9982 H   0  0  0  0  0  0  0  0  0  0  0  0
   -1.4193   60.4805   72.2988 H   0  0  0  0  0  0  0  0  0  0  0  0
   -3.1145   60.9656   74.0227 H   0  0  0  0  0  0  0  0  0  0  0  0
   -0.1513   62.0214   76.8035 H   0  0  0  0  0  0  0  0  0  0  0  0
    1.6391   61.5491   75.1775 H   0  0  0  0  0  0  0  0  0  0  0  0
    4.5055   62.4495   67.7155 H   0  0  0  0  0  0  0  0  0  0  0  0
    3.6219   63.9937   67.8471 H   0  0  0  0  0  0  0  0  0  0  0  0
    0.4924   65.7018   71.6456 H   0  0  0  0  0  0  0  0  0  0  0  0
    1.4002   64.9548   70.2875 H   0  0  0  0  0  0  0  0  0  0  0  0
   -0.3959   64.9317   70.2875 H   0  0  0  0  0  0  0  0  0  0  0  0
  2  1  1  0
  3  2  2  0
  4  3  1  0
  5  4  1  0
  6  1  2  0
  6  5  1  0
  7  6  1  0
  8  7  2  0
  9  8  1  0
  9  5  2  0
 10  8  1  0
 11 10  2  0
 12 11  1  0
 13 12  2  0
 14 13  1  0
 15 10  1  0
 15 14  2  0
 16 13  1  0
 17  7  1  0
 18 17  2  0
 19 18  1  0
 20 19  2  0
 21 20  1  0
 22 21  2  0
 22 17  1  0
 23  3  1  0
 25 24  1  0
 25  1  1  0
  2 26  1  0
  4 27  1  0
 11 28  1  0
 12 29  1  0
 14 30  1  0
 15 31  1  0
 18 32  1  0
 19 33  1  0
 21 34  1  0
 22 35  1  0
 23 36  1  0
 23 37  1  0
 24 38  1  0
 24 39  1  0
 24 40  1  0
M  END
>  <score>  (9) 
-8.273

$$$$
