=
     RDKit          3D

  8  7  0  0  0  0  0  0  0  0999 V2000
    6.1030   71.0300   68.5040 C   0  0  0  0  0  0  0  0  0  0  0  0
    7.5380   70.9390   69.5570 Cl  0  0  0  0  0  0  0  0  0  0  0  0
    4.6430   70.5610   69.4100 Cl  0  0  0  0  0  0  0  0  0  0  0  0
    4.7430   69.7540   66.4300 Cl  0  0  0  0  0  0  0  0  0  0  0  0
    6.2750   70.2190   67.2190 C   0  0  0  0  0  0  0  0  0  0  0  0
    5.9818   72.0752   68.1833 H   0  0  0  0  0  0  0  0  0  0  0  0
    6.8288   69.3005   67.4634 H   0  0  0  0  0  0  0  0  0  0  0  0
    6.8102   70.8662   66.5086 H   0  0  0  0  0  0  0  0  0  0  0  0
  2  1  1  0
  3  1  1  0
  5  4  1  0
  5  1  1  0
  1  6  1  0
  5  7  1  0
  5  8  1  0
M  END
>  <score>  (1) 
-3.795

$$$$
=
     RDKit          3D

  8  7  0  0  0  0  0  0  0  0999 V2000
    5.6160   71.0070   68.2610 C   0  0  0  0  0  0  0  0  0  0  0  0
    4.4010   70.5760   69.4910 Cl  0  0  0  0  0  0  0  0  0  0  0  0
    5.5150   69.8890   66.8770 Cl  0  0  0  0  0  0  0  0  0  0  0  0
    7.1650   70.4980   70.5240 Cl  0  0  0  0  0  0  0  0  0  0  0  0
    7.0290   71.0840   68.8440 C   0  0  0  0  0  0  0  0  0  0  0  0
    5.3877   72.0195   67.8968 H   0  0  0  0  0  0  0  0  0  0  0  0
    7.3552   72.1342   68.8183 H   0  0  0  0  0  0  0  0  0  0  0  0
    7.6591   70.4246   68.2291 H   0  0  0  0  0  0  0  0  0  0  0  0
  2  1  1  0
  3  1  1  0
  5  4  1  0
  5  1  1  0
  1  6  1  0
  5  7  1  0
  5  8  1  0
M  END
>  <score>  (2) 
-3.65

$$$$
=
     RDKit          3D

  8  7  0  0  0  0  0  0  0  0999 V2000
    5.2780   70.2570   68.0470 C   0  0  0  0  0  0  0  0  0  0  0  0
    4.9700   69.9580   66.3170 Cl  0  0  0  0  0  0  0  0  0  0  0  0
    3.7520   70.6300   68.8880 Cl  0  0  0  0  0  0  0  0  0  0  0  0
    7.5270   70.9440   69.5460 Cl  0  0  0  0  0  0  0  0  0  0  0  0
    6.3420   71.3320   68.2690 C   0  0  0  0  0  0  0  0  0  0  0  0
    5.6902   69.3356   68.4842 H   0  0  0  0  0  0  0  0  0  0  0  0
    5.8334   72.2677   68.5444 H   0  0  0  0  0  0  0  0  0  0  0  0
    6.9081   71.4121   67.3293 H   0  0  0  0  0  0  0  0  0  0  0  0
  2  1  1  0
  3  1  1  0
  5  4  1  0
  5  1  1  0
  1  6  1  0
  5  7  1  0
  5  8  1  0
M  END
>  <score>  (3) 
-3.625

$$$$
=
     RDKit          3D

  8  7  0  0  0  0  0  0  0  0999 V2000
    5.4860   71.0070   68.3640 C   0  0  0  0  0  0  0  0  0  0  0  0
    5.5620   69.9410   66.9380 Cl  0  0  0  0  0  0  0  0  0  0  0  0
    7.0320   70.9640   69.2480 Cl  0  0  0  0  0  0  0  0  0  0  0  0
    2.8780   70.0210   68.4040 Cl  0  0  0  0  0  0  0  0  0  0  0  0
    4.2920   70.6870   69.2650 C   0  0  0  0  0  0  0  0  0  0  0  0
    5.3252   72.0364   68.0111 H   0  0  0  0  0  0  0  0  0  0  0  0
    3.9827   71.6146   69.7690 H   0  0  0  0  0  0  0  0  0  0  0  0
    4.6274   69.9095   69.9671 H   0  0  0  0  0  0  0  0  0  0  0  0
  2  1  1  0
  3  1  1  0
  5  4  1  0
  5  1  1  0
  1  6  1  0
  5  7  1  0
  5  8  1  0
M  END
>  <score>  (4) 
-3.525

$$$$
=
     RDKit          3D

  8  7  0  0  0  0  0  0  0  0999 V2000
    5.1510   70.6890   67.9770 C   0  0  0  0  0  0  0  0  0  0  0  0
    6.9190   70.4720   67.9510 Cl  0  0  0  0  0  0  0  0  0  0  0  0
    4.5320   70.5010   69.6370 Cl  0  0  0  0  0  0  0  0  0  0  0  0
    5.1450   69.7660   65.3450 Cl  0  0  0  0  0  0  0  0  0  0  0  0
    4.4390   69.7680   66.9850 C   0  0  0  0  0  0  0  0  0  0  0  0
    4.9292   71.7140   67.6451 H   0  0  0  0  0  0  0  0  0  0  0  0
    3.3901   70.0903   66.9079 H   0  0  0  0  0  0  0  0  0  0  0  0
    4.5450   68.7446   67.3742 H   0  0  0  0  0  0  0  0  0  0  0  0
  2  1  1  0
  3  1  1  0
  5  4  1  0
  5  1  1  0
  1  6  1  0
  5  7  1  0
  5  8  1  0
M  END
>  <score>  (5) 
-3.415

$$$$
=
     RDKit          3D

  8  7  0  0  0  0  0  0  0  0999 V2000
    4.2300   69.0090   65.3520 C   0  0  0  0  0  0  0  0  0  0  0  0
    5.2430   69.6290   64.0240 Cl  0  0  0  0  0  0  0  0  0  0  0  0
    2.5130   69.0270   64.8770 Cl  0  0  0  0  0  0  0  0  0  0  0  0
    6.1970   70.0730   67.0190 Cl  0  0  0  0  0  0  0  0  0  0  0  0
    4.4770   69.7520   66.6660 C   0  0  0  0  0  0  0  0  0  0  0  0
    4.5192   67.9647   65.5413 H   0  0  0  0  0  0  0  0  0  0  0  0
    4.0645   69.1465   67.4865 H   0  0  0  0  0  0  0  0  0  0  0  0
    3.9879   70.7325   66.5691 H   0  0  0  0  0  0  0  0  0  0  0  0
  2  1  1  0
  3  1  1  0
  5  4  1  0
  5  1  1  0
  1  6  1  0
  5  7  1  0
  5  8  1  0
M  END
>  <score>  (6) 
-3.304

$$$$
=
     RDKit          3D

  8  7  0  0  0  0  0  0  0  0999 V2000
    4.5110   62.0930   70.8260 C   0  0  0  0  0  0  0  0  0  0  0  0
    5.2250   63.7090   70.5880 Cl  0  0  0  0  0  0  0  0  0  0  0  0
    5.7740   60.9240   71.2880 Cl  0  0  0  0  0  0  0  0  0  0  0  0
    3.7130   62.7770   68.2420 Cl  0  0  0  0  0  0  0  0  0  0  0  0
    3.7080   61.6290   69.6090 C   0  0  0  0  0  0  0  0  0  0  0  0
    3.7889   62.1582   71.6532 H   0  0  0  0  0  0  0  0  0  0  0  0
    2.6656   61.4729   69.9236 H   0  0  0  0  0  0  0  0  0  0  0  0
    4.1889   60.7080   69.2477 H   0  0  0  0  0  0  0  0  0  0  0  0
  2  1  1  0
  3  1  1  0
  5  4  1  0
  5  1  1  0
  1  6  1  0
  5  7  1  0
  5  8  1  0
M  END
>  <score>  (7) 
-3.298

$$$$
=
     RDKit          3D

  8  7  0  0  0  0  0  0  0  0999 V2000
    3.9400   62.6600   70.0580 C   0  0  0  0  0  0  0  0  0  0  0  0
    3.7150   62.7740   68.2940 Cl  0  0  0  0  0  0  0  0  0  0  0  0
    5.2640   63.7330   70.5800 Cl  0  0  0  0  0  0  0  0  0  0  0  0
    5.7300   60.9040   71.2800 Cl  0  0  0  0  0  0  0  0  0  0  0  0
    4.1430   61.2180   70.5250 C   0  0  0  0  0  0  0  0  0  0  0  0
    3.0136   63.0024   70.5423 H   0  0  0  0  0  0  0  0  0  0  0  0
    4.0401   60.5561   69.6525 H   0  0  0  0  0  0  0  0  0  0  0  0
    3.3843   61.0287   71.2986 H   0  0  0  0  0  0  0  0  0  0  0  0
  2  1  1  0
  3  1  1  0
  5  4  1  0
  5  1  1  0
  1  6  1  0
  5  7  1  0
  5  8  1  0
M  END
>  <score>  (8) 
-3.22

$$$$
=
     RDKit          3D

  8  7  0  0  0  0  0  0  0  0999 V2000
    4.7620   69.1460   65.5610 C   0  0  0  0  0  0  0  0  0  0  0  0
    5.6980   70.1220   66.7200 Cl  0  0  0  0  0  0  0  0  0  0  0  0
    5.1590   69.6230   63.8910 Cl  0  0  0  0  0  0  0  0  0  0  0  0
    2.8360   69.5340   67.5400 Cl  0  0  0  0  0  0  0  0  0  0  0  0
    3.2590   69.1990   65.8380 C   0  0  0  0  0  0  0  0  0  0  0  0
    5.0523   68.0931   65.6916 H   0  0  0  0  0  0  0  0  0  0  0  0
    2.8231   68.2282   65.5595 H   0  0  0  0  0  0  0  0  0  0  0  0
    2.8588   70.0340   65.2441 H   0  0  0  0  0  0  0  0  0  0  0  0
  2  1  1  0
  3  1  1  0
  5  4  1  0
  5  1  1  0
  1  6  1  0
  5  7  1  0
  5  8  1  0
M  END
>  <score>  (9) 
-3.194

$$$$
