=
     RDKit          3D

 53 56  0  0  0  0  0  0  0  0999 V2000
    2.3550   60.4490   72.9480 C   0  0  0  0  0  0  0  0  0  0  0  0
    1.4930   61.5050   73.2550 C   0  0  0  0  0  0  0  0  0  0  0  0
    1.3440   62.5050   72.3110 C   0  0  0  0  0  0  0  0  0  0  0  0
    2.0090   62.5000   71.0870 C   0  0  0  0  0  0  0  0  0  0  0  0
    2.8680   61.4590   70.7700 C   0  0  0  0  0  0  0  0  0  0  0  0
    3.0460   60.4250   71.7030 C   0  0  0  0  0  0  0  0  0  0  0  0
    1.6620   63.7010   70.2580 C   0  0  0  0  0  0  0  0  0  0  0  0
    0.6980   64.4660   71.1310 C   0  0  0  0  0  0  0  0  0  0  0  0
    0.0820   65.6390   70.9380 C   0  0  0  0  0  0  0  0  0  0  0  0
    0.5070   63.7040   72.4030 C   0  0  0  0  0  0  0  0  0  0  0  0
   -0.2030   64.0140   73.3380 O   0  0  0  0  0  0  0  0  0  0  0  0
    0.2310   66.4570   69.7360 C   0  0  0  0  0  0  0  0  0  0  0  0
   -0.7860   66.4590   68.7780 C   0  0  0  0  0  0  0  0  0  0  0  0
   -0.6540   67.2090   67.6060 C   0  0  0  0  0  0  0  0  0  0  0  0
    0.5050   67.9640   67.3710 C   0  0  0  0  0  0  0  0  0  0  0  0
    1.5210   67.9610   68.3370 C   0  0  0  0  0  0  0  0  0  0  0  0
    1.3860   67.2120   69.5100 C   0  0  0  0  0  0  0  0  0  0  0  0
    0.6740   68.7300   66.0860 C   0  0  0  0  0  0  0  0  0  0  0  0
    1.8320   68.2250   65.2710 N   0  0  0  0  0  4  0  0  0  0  0  0
    3.0670   69.0840   65.3630 C   0  0  0  0  0  0  0  0  0  0  0  0
    3.8200   68.7250   64.1000 C   0  0  0  0  0  0  0  0  0  0  0  0
    2.7150   68.6470   63.0660 C   0  0  0  0  0  0  0  0  0  0  0  0
    1.5450   68.0050   63.7980 C   0  0  0  0  0  0  0  0  0  0  0  0
    1.5380   58.4710   74.0180 C   0  0  0  0  0  0  0  0  0  0  0  0
    2.6000   59.3870   73.7860 O   0  0  0  0  0  0  0  0  0  0  0  0
    3.8670   59.3410   71.5030 O   0  0  0  0  0  0  0  0  0  0  0  0
    3.3960   58.2920   70.6700 C   0  0  0  0  0  0  0  0  0  0  0  0
    0.9526   61.5398   74.2125 H   0  0  0  0  0  0  0  0  0  0  0  0
    3.3994   61.4434   69.8070 H   0  0  0  0  0  0  0  0  0  0  0  0
    2.5579   64.3015   70.0418 H   0  0  0  0  0  0  0  0  0  0  0  0
    1.2358   63.4368   69.2790 H   0  0  0  0  0  0  0  0  0  0  0  0
   -0.5785   66.0109   71.7351 H   0  0  0  0  0  0  0  0  0  0  0  0
   -1.6970   65.8662   68.9473 H   0  0  0  0  0  0  0  0  0  0  0  0
   -1.4647   67.2073   66.8625 H   0  0  0  0  0  0  0  0  0  0  0  0
    2.4328   68.5534   68.1706 H   0  0  0  0  0  0  0  0  0  0  0  0
    2.1921   67.2167   70.2584 H   0  0  0  0  0  0  0  0  0  0  0  0
   -0.2465   68.6323   65.4918 H   0  0  0  0  0  0  0  0  0  0  0  0
    0.8752   69.7804   66.3434 H   0  0  0  0  0  0  0  0  0  0  0  0
    2.0004   67.3103   65.7135 H   0  0  0  0  0  0  0  0  0  0  0  0
    2.8062   70.1525   65.3786 H   0  0  0  0  0  0  0  0  0  0  0  0
    3.6491   68.9130   66.2806 H   0  0  0  0  0  0  0  0  0  0  0  0
    4.5527   69.5032   63.8400 H   0  0  0  0  0  0  0  0  0  0  0  0
    4.4029   67.7963   64.1877 H   0  0  0  0  0  0  0  0  0  0  0  0
    2.4453   69.6522   62.7100 H   0  0  0  0  0  0  0  0  0  0  0  0
    3.0161   68.0721   62.1779 H   0  0  0  0  0  0  0  0  0  0  0  0
    0.5989   68.4881   63.5125 H   0  0  0  0  0  0  0  0  0  0  0  0
    1.4413   66.9376   63.5532 H   0  0  0  0  0  0  0  0  0  0  0  0
    1.3922   58.3453   75.1010 H   0  0  0  0  0  0  0  0  0  0  0  0
    0.6134   58.8596   73.5662 H   0  0  0  0  0  0  0  0  0  0  0  0
    1.7866   57.4993   73.5662 H   0  0  0  0  0  0  0  0  0  0  0  0
    3.0252   57.4661   71.2948 H   0  0  0  0  0  0  0  0  0  0  0  0
    2.5796   58.6665   70.0350 H   0  0  0  0  0  0  0  0  0  0  0  0
    4.2183   57.9307   70.0350 H   0  0  0  0  0  0  0  0  0  0  0  0
  2  1  2  0
  3  2  1  0
  4  3  2  0
  5  4  1  0
  6  5  2  0
  6  1  1  0
  7  4  1  0
  8  7  1  0
  9  8  2  0
 10  8  1  0
 10  3  1  0
 11 10  2  0
 12  9  1  0
 13 12  2  0
 14 13  1  0
 15 14  2  0
 16 15  1  0
 17 16  2  0
 17 12  1  0
 18 15  1  0
 19 18  1  0
 20 19  1  0
 21 20  1  0
 22 21  1  0
 23 22  1  0
 23 19  1  0
 25 24  1  0
 25  1  1  0
 26  6  1  0
 27 26  1  0
  2 28  1  0
  5 29  1  0
  7 30  1  0
  7 31  1  0
  9 32  1  0
 13 33  1  0
 14 34  1  0
 16 35  1  0
 17 36  1  0
 18 37  1  0
 18 38  1  0
 19 39  1  0
 20 40  1  0
 20 41  1  0
 21 42  1  0
 21 43  1  0
 22 44  1  0
 22 45  1  0
 23 46  1  0
 23 47  1  0
 24 48  1  0
 24 49  1  0
 24 50  1  0
 27 51  1  0
 27 52  1  0
 27 53  1  0
M  CHG  1  19   1
M  END
>  <score>  (1) 
-9.625

$$$$
=
     RDKit          3D

 53 56  0  0  0  0  0  0  0  0999 V2000
    0.8870   56.4000   74.2150 C   0  0  0  0  0  0  0  0  0  0  0  0
    1.9140   56.9690   73.4590 C   0  0  0  0  0  0  0  0  0  0  0  0
    1.7390   58.2660   73.0120 C   0  0  0  0  0  0  0  0  0  0  0  0
    0.5960   59.0150   73.2840 C   0  0  0  0  0  0  0  0  0  0  0  0
   -0.4320   58.4640   74.0330 C   0  0  0  0  0  0  0  0  0  0  0  0
   -0.2910   57.1480   74.5030 C   0  0  0  0  0  0  0  0  0  0  0  0
    0.6720   60.3880   72.6840 C   0  0  0  0  0  0  0  0  0  0  0  0
    2.0110   60.3960   71.9880 C   0  0  0  0  0  0  0  0  0  0  0  0
    2.6090   61.3380   71.2480 C   0  0  0  0  0  0  0  0  0  0  0  0
    2.6650   59.0690   72.2100 C   0  0  0  0  0  0  0  0  0  0  0  0
    3.7530   58.7170   71.8020 O   0  0  0  0  0  0  0  0  0  0  0  0
    2.0320   62.6500   70.9660 C   0  0  0  0  0  0  0  0  0  0  0  0
    0.6450   62.8110   70.9980 C   0  0  0  0  0  0  0  0  0  0  0  0
    0.0680   64.0490   70.7010 C   0  0  0  0  0  0  0  0  0  0  0  0
    0.8730   65.1460   70.3590 C   0  0  0  0  0  0  0  0  0  0  0  0
    2.2650   64.9800   70.3320 C   0  0  0  0  0  0  0  0  0  0  0  0
    2.8400   63.7410   70.6310 C   0  0  0  0  0  0  0  0  0  0  0  0
    0.2530   66.4660   69.9870 C   0  0  0  0  0  0  0  0  0  0  0  0
    0.0480   66.6000   68.5040 N   0  0  0  0  0  4  0  0  0  0  0  0
    0.9040   67.6590   67.8600 C   0  0  0  0  0  0  0  0  0  0  0  0
    0.1450   67.9780   66.5900 C   0  0  0  0  0  0  0  0  0  0  0  0
   -1.2970   67.9870   67.0580 C   0  0  0  0  0  0  0  0  0  0  0  0
   -1.3830   66.8480   68.0640 C   0  0  0  0  0  0  0  0  0  0  0  0
    2.0550   54.7540   75.4980 C   0  0  0  0  0  0  0  0  0  0  0  0
    0.9210   55.1250   74.7250 O   0  0  0  0  0  0  0  0  0  0  0  0
   -1.2380   56.4950   75.2540 O   0  0  0  0  0  0  0  0  0  0  0  0
   -2.4070   57.2110   75.6250 C   0  0  0  0  0  0  0  0  0  0  0  0
    2.8298   56.4055   73.2272 H   0  0  0  0  0  0  0  0  0  0  0  0
   -1.3392   59.0452   74.2546 H   0  0  0  0  0  0  0  0  0  0  0  0
   -0.1453   60.5487   71.9655 H   0  0  0  0  0  0  0  0  0  0  0  0
    0.5739   61.1881   73.4324 H   0  0  0  0  0  0  0  0  0  0  0  0
    3.5984   61.1093   70.8252 H   0  0  0  0  0  0  0  0  0  0  0  0
    0.0021   61.9574   71.2588 H   0  0  0  0  0  0  0  0  0  0  0  0
   -1.0254   64.1640   70.7357 H   0  0  0  0  0  0  0  0  0  0  0  0
    2.9106   65.8322   70.0732 H   0  0  0  0  0  0  0  0  0  0  0  0
    3.9334   63.6239   70.6026 H   0  0  0  0  0  0  0  0  0  0  0  0
   -0.7221   66.5531   70.4886 H   0  0  0  0  0  0  0  0  0  0  0  0
    0.9403   67.2634   70.3060 H   0  0  0  0  0  0  0  0  0  0  0  0
    0.3346   65.6651   68.1803 H   0  0  0  0  0  0  0  0  0  0  0  0
    0.9882   68.5463   68.5046 H   0  0  0  0  0  0  0  0  0  0  0  0
    1.9383   67.3316   67.6783 H   0  0  0  0  0  0  0  0  0  0  0  0
    0.4380   68.9593   66.1885 H   0  0  0  0  0  0  0  0  0  0  0  0
    0.3356   67.2632   65.7759 H   0  0  0  0  0  0  0  0  0  0  0  0
   -1.5438   68.9464   67.5361 H   0  0  0  0  0  0  0  0  0  0  0  0
   -2.0057   67.8623   66.2260 H   0  0  0  0  0  0  0  0  0  0  0  0
   -2.0064   67.1376   68.9228 H   0  0  0  0  0  0  0  0  0  0  0  0
   -1.8423   65.9480   67.6292 H   0  0  0  0  0  0  0  0  0  0  0  0
    1.8115   54.8337   76.5678 H   0  0  0  0  0  0  0  0  0  0  0  0
    2.3362   53.7170   75.2622 H   0  0  0  0  0  0  0  0  0  0  0  0
    2.8947   55.4243   75.2622 H   0  0  0  0  0  0  0  0  0  0  0  0
   -2.4778   57.2544   76.7219 H   0  0  0  0  0  0  0  0  0  0  0  0
   -2.3552   58.2325   75.2202 H   0  0  0  0  0  0  0  0  0  0  0  0
   -3.2934   56.7007   75.2202 H   0  0  0  0  0  0  0  0  0  0  0  0
  2  1  2  0
  3  2  1  0
  4  3  2  0
  5  4  1  0
  6  5  2  0
  6  1  1  0
  7  4  1  0
  8  7  1  0
  9  8  2  0
 10  8  1  0
 10  3  1  0
 11 10  2  0
 12  9  1  0
 13 12  2  0
 14 13  1  0
 15 14  2  0
 16 15  1  0
 17 16  2  0
 17 12  1  0
 18 15  1  0
 19 18  1  0
 20 19  1  0
 21 20  1  0
 22 21  1  0
 23 22  1  0
 23 19  1  0
 25 24  1  0
 25  1  1  0
 26  6  1  0
 27 26  1  0
  2 28  1  0
  5 29  1  0
  7 30  1  0
  7 31  1  0
  9 32  1  0
 13 33  1  0
 14 34  1  0
 16 35  1  0
 17 36  1  0
 18 37  1  0
 18 38  1  0
 19 39  1  0
 20 40  1  0
 20 41  1  0
 21 42  1  0
 21 43  1  0
 22 44  1  0
 22 45  1  0
 23 46  1  0
 23 47  1  0
 24 48  1  0
 24 49  1  0
 24 50  1  0
 27 51  1  0
 27 52  1  0
 27 53  1  0
M  CHG  1  19   1
M  END
>  <score>  (2) 
-8.653

$$$$
=
     RDKit          3D

 53 56  0  0  0  0  0  0  0  0999 V2000
    1.2280   69.0050   62.7160 C   0  0  0  0  0  0  0  0  0  0  0  0
    0.3420   69.1940   63.7790 C   0  0  0  0  0  0  0  0  0  0  0  0
    0.5310   68.4270   64.9140 C   0  0  0  0  0  0  0  0  0  0  0  0
    1.5540   67.4900   65.0370 C   0  0  0  0  0  0  0  0  0  0  0  0
    2.4400   67.2910   63.9890 C   0  0  0  0  0  0  0  0  0  0  0  0
    2.2810   68.0510   62.8190 C   0  0  0  0  0  0  0  0  0  0  0  0
    1.5280   66.8060   66.3710 C   0  0  0  0  0  0  0  0  0  0  0  0
    0.3430   67.4310   67.0660 C   0  0  0  0  0  0  0  0  0  0  0  0
   -0.1950   67.1920   68.2680 C   0  0  0  0  0  0  0  0  0  0  0  0
   -0.2620   68.4440   66.1460 C   0  0  0  0  0  0  0  0  0  0  0  0
   -1.2250   69.1460   66.3710 O   0  0  0  0  0  0  0  0  0  0  0  0
    0.3200   66.2070   69.2180 C   0  0  0  0  0  0  0  0  0  0  0  0
    1.6190   66.3430   69.7100 C   0  0  0  0  0  0  0  0  0  0  0  0
    2.1450   65.3970   70.5950 C   0  0  0  0  0  0  0  0  0  0  0  0
    1.3770   64.2930   70.9950 C   0  0  0  0  0  0  0  0  0  0  0  0
    0.0710   64.1630   70.5000 C   0  0  0  0  0  0  0  0  0  0  0  0
   -0.4530   65.1110   69.6160 C   0  0  0  0  0  0  0  0  0  0  0  0
    1.9570   63.2440   71.9050 C   0  0  0  0  0  0  0  0  0  0  0  0
    3.1500   62.5600   71.2980 N   0  0  0  0  0  4  0  0  0  0  0  0
    2.8440   61.8000   70.0340 C   0  0  0  0  0  0  0  0  0  0  0  0
    3.9790   60.8010   69.9590 C   0  0  0  0  0  0  0  0  0  0  0  0
    4.1230   60.3550   71.4000 C   0  0  0  0  0  0  0  0  0  0  0  0
    3.9000   61.6180   72.2210 C   0  0  0  0  0  0  0  0  0  0  0  0
   -0.1210   69.9290   60.9690 C   0  0  0  0  0  0  0  0  0  0  0  0
    1.1650   69.6940   61.5280 O   0  0  0  0  0  0  0  0  0  0  0  0
    3.0950   67.9450   61.7170 O   0  0  0  0  0  0  0  0  0  0  0  0
    4.4070   67.4370   61.9030 C   0  0  0  0  0  0  0  0  0  0  0  0
   -0.4764   69.9263   63.7157 H   0  0  0  0  0  0  0  0  0  0  0  0
    3.2511   66.5526   64.0725 H   0  0  0  0  0  0  0  0  0  0  0  0
    1.3876   65.7213   66.2537 H   0  0  0  0  0  0  0  0  0  0  0  0
    2.4662   66.9273   66.9324 H   0  0  0  0  0  0  0  0  0  0  0  0
   -1.0816   67.7740   68.5600 H   0  0  0  0  0  0  0  0  0  0  0  0
    2.2335   67.2008   69.3992 H   0  0  0  0  0  0  0  0  0  0  0  0
    3.1680   65.5191   70.9804 H   0  0  0  0  0  0  0  0  0  0  0  0
   -0.5466   63.3073   70.8102 H   0  0  0  0  0  0  0  0  0  0  0  0
   -1.4772   64.9946   69.2319 H   0  0  0  0  0  0  0  0  0  0  0  0
    2.2646   63.7229   72.8463 H   0  0  0  0  0  0  0  0  0  0  0  0
    1.1828   62.4817   72.0769 H   0  0  0  0  0  0  0  0  0  0  0  0
    3.7550   63.3672   71.0897 H   0  0  0  0  0  0  0  0  0  0  0  0
    1.8717   61.2903   70.1039 H   0  0  0  0  0  0  0  0  0  0  0  0
    2.7721   62.4444   69.1454 H   0  0  0  0  0  0  0  0  0  0  0  0
    3.7206   59.9548   69.3054 H   0  0  0  0  0  0  0  0  0  0  0  0
    4.9039   61.2207   69.5366 H   0  0  0  0  0  0  0  0  0  0  0  0
    3.3687   59.5936   71.6474 H   0  0  0  0  0  0  0  0  0  0  0  0
    5.1040   59.8985   71.5978 H   0  0  0  0  0  0  0  0  0  0  0  0
    3.3010   61.3961   73.1165 H   0  0  0  0  0  0  0  0  0  0  0  0
    4.8464   62.0530   72.5746 H   0  0  0  0  0  0  0  0  0  0  0  0
   -0.8537   70.0629   61.7784 H   0  0  0  0  0  0  0  0  0  0  0  0
   -0.0906   70.8365   60.3481 H   0  0  0  0  0  0  0  0  0  0  0  0
   -0.4135   69.0694   60.3481 H   0  0  0  0  0  0  0  0  0  0  0  0
    4.6192   67.3548   62.9792 H   0  0  0  0  0  0  0  0  0  0  0  0
    4.4851   66.4437   61.4370 H   0  0  0  0  0  0  0  0  0  0  0  0
    5.1337   68.1188   61.4370 H   0  0  0  0  0  0  0  0  0  0  0  0
  2  1  2  0
  3  2  1  0
  4  3  2  0
  5  4  1  0
  6  5  2  0
  6  1  1  0
  7  4  1  0
  8  7  1  0
  9  8  2  0
 10  8  1  0
 10  3  1  0
 11 10  2  0
 12  9  1  0
 13 12  2  0
 14 13  1  0
 15 14  2  0
 16 15  1  0
 17 16  2  0
 17 12  1  0
 18 15  1  0
 19 18  1  0
 20 19  1  0
 21 20  1  0
 22 21  1  0
 23 22  1  0
 23 19  1  0
 25 24  1  0
 25  1  1  0
 26  6  1  0
 27 26  1  0
  2 28  1  0
  5 29  1  0
  7 30  1  0
  7 31  1  0
  9 32  1  0
 13 33  1  0
 14 34  1  0
 16 35  1  0
 17 36  1  0
 18 37  1  0
 18 38  1  0
 19 39  1  0
 20 40  1  0
 20 41  1  0
 21 42  1  0
 21 43  1  0
 22 44  1  0
 22 45  1  0
 23 46  1  0
 23 47  1  0
 24 48  1  0
 24 49  1  0
 24 50  1  0
 27 51  1  0
 27 52  1  0
 27 53  1  0
M  CHG  1  19   1
M  END
>  <score>  (3) 
-8.523

$$$$
=
     RDKit          3D

 53 56  0  0  0  0  0  0  0  0999 V2000
   -2.4780   58.1080   75.2470 C   0  0  0  0  0  0  0  0  0  0  0  0
   -1.1880   58.1890   74.7170 C   0  0  0  0  0  0  0  0  0  0  0  0
   -0.8450   59.3460   74.0410 C   0  0  0  0  0  0  0  0  0  0  0  0
   -1.7210   60.4150   73.8720 C   0  0  0  0  0  0  0  0  0  0  0  0
   -3.0050   60.3480   74.3920 C   0  0  0  0  0  0  0  0  0  0  0  0
   -3.3910   59.1890   75.0850 C   0  0  0  0  0  0  0  0  0  0  0  0
   -1.0890   61.5390   73.1060 C   0  0  0  0  0  0  0  0  0  0  0  0
    0.2980   61.0270   72.8070 C   0  0  0  0  0  0  0  0  0  0  0  0
    1.3050   61.5760   72.1170 C   0  0  0  0  0  0  0  0  0  0  0  0
    0.4350   59.6620   73.4030 C   0  0  0  0  0  0  0  0  0  0  0  0
    1.4150   58.9480   73.3650 O   0  0  0  0  0  0  0  0  0  0  0  0
    1.2470   62.8930   71.4860 C   0  0  0  0  0  0  0  0  0  0  0  0
    2.1960   63.2320   70.5180 C   0  0  0  0  0  0  0  0  0  0  0  0
    2.1800   64.4970   69.9230 C   0  0  0  0  0  0  0  0  0  0  0  0
    1.2170   65.4460   70.2930 C   0  0  0  0  0  0  0  0  0  0  0  0
    0.2640   65.1000   71.2640 C   0  0  0  0  0  0  0  0  0  0  0  0
    0.2810   63.8340   71.8560 C   0  0  0  0  0  0  0  0  0  0  0  0
    1.2290   66.8270   69.6940 C   0  0  0  0  0  0  0  0  0  0  0  0
    0.6510   66.8500   68.3070 N   0  0  0  0  0  4  0  0  0  0  0  0
    1.1160   68.0130   67.4680 C   0  0  0  0  0  0  0  0  0  0  0  0
    0.0280   68.1290   66.4220 C   0  0  0  0  0  0  0  0  0  0  0  0
   -1.2340   67.9030   67.2300 C   0  0  0  0  0  0  0  0  0  0  0  0
   -0.8640   66.8170   68.2310 C   0  0  0  0  0  0  0  0  0  0  0  0
   -2.5710   55.7300   75.4970 C   0  0  0  0  0  0  0  0  0  0  0  0
   -2.9580   57.0230   75.9430 O   0  0  0  0  0  0  0  0  0  0  0  0
   -4.6320   59.0060   75.6450 O   0  0  0  0  0  0  0  0  0  0  0  0
   -5.0390   59.8980   76.6720 C   0  0  0  0  0  0  0  0  0  0  0  0
   -0.4711   57.3628   74.8330 H   0  0  0  0  0  0  0  0  0  0  0  0
   -3.7067   61.1855   74.2643 H   0  0  0  0  0  0  0  0  0  0  0  0
   -1.6420   61.7411   72.1769 H   0  0  0  0  0  0  0  0  0  0  0  0
   -1.0841   62.4872   73.6635 H   0  0  0  0  0  0  0  0  0  0  0  0
    2.2362   60.9988   72.0185 H   0  0  0  0  0  0  0  0  0  0  0  0
    2.9607   62.4987   70.2222 H   0  0  0  0  0  0  0  0  0  0  0  0
    2.9292   64.7497   69.1583 H   0  0  0  0  0  0  0  0  0  0  0  0
   -0.5022   65.8311   71.5613 H   0  0  0  0  0  0  0  0  0  0  0  0
   -0.4699   63.5763   72.6174 H   0  0  0  0  0  0  0  0  0  0  0  0
    0.6370   67.4964   70.3355 H   0  0  0  0  0  0  0  0  0  0  0  0
    2.2762   67.1573   69.6286 H   0  0  0  0  0  0  0  0  0  0  0  0
    1.0185   65.9663   67.9264 H   0  0  0  0  0  0  0  0  0  0  0  0
    1.1872   68.9315   68.0690 H   0  0  0  0  0  0  0  0  0  0  0  0
    2.1183   67.8670   67.0391 H   0  0  0  0  0  0  0  0  0  0  0  0
    0.0287   69.1261   65.9574 H   0  0  0  0  0  0  0  0  0  0  0  0
    0.1459   67.4212   65.5882 H   0  0  0  0  0  0  0  0  0  0  0  0
   -1.5314   68.8252   67.7507 H   0  0  0  0  0  0  0  0  0  0  0  0
   -2.0861   67.6129   66.5978 H   0  0  0  0  0  0  0  0  0  0  0  0
   -1.3049   67.0326   69.2154 H   0  0  0  0  0  0  0  0  0  0  0  0
   -1.2402   65.8294   67.9259 H   0  0  0  0  0  0  0  0  0  0  0  0
   -2.3779   55.0847   76.3667 H   0  0  0  0  0  0  0  0  0  0  0  0
   -3.3783   55.2948   74.8896 H   0  0  0  0  0  0  0  0  0  0  0  0
   -1.6574   55.8099   74.8896 H   0  0  0  0  0  0  0  0  0  0  0  0
   -4.8327   59.4459   77.6534 H   0  0  0  0  0  0  0  0  0  0  0  0
   -4.4827   60.8424   76.5791 H   0  0  0  0  0  0  0  0  0  0  0  0
   -6.1169   60.0967   76.5791 H   0  0  0  0  0  0  0  0  0  0  0  0
  2  1  2  0
  3  2  1  0
  4  3  2  0
  5  4  1  0
  6  5  2  0
  6  1  1  0
  7  4  1  0
  8  7  1  0
  9  8  2  0
 10  8  1  0
 10  3  1  0
 11 10  2  0
 12  9  1  0
 13 12  2  0
 14 13  1  0
 15 14  2  0
 16 15  1  0
 17 16  2  0
 17 12  1  0
 18 15  1  0
 19 18  1  0
 20 19  1  0
 21 20  1  0
 22 21  1  0
 23 22  1  0
 23 19  1  0
 25 24  1  0
 25  1  1  0
 26  6  1  0
 27 26  1  0
  2 28  1  0
  5 29  1  0
  7 30  1  0
  7 31  1  0
  9 32  1  0
 13 33  1  0
 14 34  1  0
 16 35  1  0
 17 36  1  0
 18 37  1  0
 18 38  1  0
 19 39  1  0
 20 40  1  0
 20 41  1  0
 21 42  1  0
 21 43  1  0
 22 44  1  0
 22 45  1  0
 23 46  1  0
 23 47  1  0
 24 48  1  0
 24 49  1  0
 24 50  1  0
 27 51  1  0
 27 52  1  0
 27 53  1  0
M  CHG  1  19   1
M  END
>  <score>  (4) 
-8.285

$$$$
=
     RDKit          3D

 53 56  0  0  0  0  0  0  0  0999 V2000
    2.1300   60.0170   72.3590 C   0  0  0  0  0  0  0  0  0  0  0  0
    1.2510   59.2310   73.1100 C   0  0  0  0  0  0  0  0  0  0  0  0
   -0.0080   59.7430   73.3640 C   0  0  0  0  0  0  0  0  0  0  0  0
   -0.4280   60.9900   72.9070 C   0  0  0  0  0  0  0  0  0  0  0  0
    0.4330   61.7810   72.1610 C   0  0  0  0  0  0  0  0  0  0  0  0
    1.7220   61.2950   71.8830 C   0  0  0  0  0  0  0  0  0  0  0  0
   -1.8370   61.2920   73.3220 C   0  0  0  0  0  0  0  0  0  0  0  0
   -2.2410   60.0710   74.1120 C   0  0  0  0  0  0  0  0  0  0  0  0
   -3.3750   59.7850   74.7630 C   0  0  0  0  0  0  0  0  0  0  0  0
   -1.0920   59.1140   74.1220 C   0  0  0  0  0  0  0  0  0  0  0  0
   -1.0580   58.0240   74.6550 O   0  0  0  0  0  0  0  0  0  0  0  0
   -4.5360   60.6710   74.8220 C   0  0  0  0  0  0  0  0  0  0  0  0
   -5.7060   60.3150   74.1480 C   0  0  0  0  0  0  0  0  0  0  0  0
   -6.8190   61.1600   74.1630 C   0  0  0  0  0  0  0  0  0  0  0  0
   -6.7740   62.3830   74.8500 C   0  0  0  0  0  0  0  0  0  0  0  0
   -5.5980   62.7350   75.5280 C   0  0  0  0  0  0  0  0  0  0  0  0
   -4.4870   61.8860   75.5130 C   0  0  0  0  0  0  0  0  0  0  0  0
   -7.9510   63.3210   74.8240 C   0  0  0  0  0  0  0  0  0  0  0  0
   -7.8710   64.3040   73.6910 N   0  0  0  0  0  4  0  0  0  0  0  0
   -8.1850   65.7240   74.0870 C   0  0  0  0  0  0  0  0  0  0  0  0
   -8.5860   66.3580   72.7730 C   0  0  0  0  0  0  0  0  0  0  0  0
   -9.4270   65.2770   72.1250 C   0  0  0  0  0  0  0  0  0  0  0  0
   -8.7240   63.9740   72.4800 C   0  0  0  0  0  0  0  0  0  0  0  0
    3.5640   58.5720   71.1020 C   0  0  0  0  0  0  0  0  0  0  0  0
    3.4100   59.6390   72.0280 O   0  0  0  0  0  0  0  0  0  0  0  0
    2.6620   61.9840   71.1550 O   0  0  0  0  0  0  0  0  0  0  0  0
    2.2290   62.6800   69.9950 C   0  0  0  0  0  0  0  0  0  0  0  0
    1.5501   58.2412   73.4852 H   0  0  0  0  0  0  0  0  0  0  0  0
    0.1137   62.7679   71.7947 H   0  0  0  0  0  0  0  0  0  0  0  0
   -1.8775   62.1960   73.9473 H   0  0  0  0  0  0  0  0  0  0  0  0
   -2.5021   61.4894   72.4684 H   0  0  0  0  0  0  0  0  0  0  0  0
   -3.4373   58.8203   75.2878 H   0  0  0  0  0  0  0  0  0  0  0  0
   -5.7520   59.3618   73.6009 H   0  0  0  0  0  0  0  0  0  0  0  0
   -7.7364   60.8646   73.6328 H   0  0  0  0  0  0  0  0  0  0  0  0
   -5.5491   63.6873   76.0764 H   0  0  0  0  0  0  0  0  0  0  0  0
   -3.5700   62.1752   76.0473 H   0  0  0  0  0  0  0  0  0  0  0  0
   -8.8722   62.7298   74.7152 H   0  0  0  0  0  0  0  0  0  0  0  0
   -7.9484   63.8907   75.7649 H   0  0  0  0  0  0  0  0  0  0  0  0
   -6.8790   64.2194   73.4272 H   0  0  0  0  0  0  0  0  0  0  0  0
   -9.0111   65.7595   74.8124 H   0  0  0  0  0  0  0  0  0  0  0  0
   -7.3439   66.2351   74.5782 H   0  0  0  0  0  0  0  0  0  0  0  0
   -9.1739   67.2731   72.9371 H   0  0  0  0  0  0  0  0  0  0  0  0
   -7.7283   66.6707   72.1593 H   0  0  0  0  0  0  0  0  0  0  0  0
  -10.4503   65.2878   72.5284 H   0  0  0  0  0  0  0  0  0  0  0  0
   -9.5185   65.4172   71.0378 H   0  0  0  0  0  0  0  0  0  0  0  0
   -9.4586   63.1931   72.7260 H   0  0  0  0  0  0  0  0  0  0  0  0
   -8.1221   63.5886   71.6438 H   0  0  0  0  0  0  0  0  0  0  0  0
    3.7003   57.6279   71.6498 H   0  0  0  0  0  0  0  0  0  0  0  0
    2.6665   58.5028   70.4697 H   0  0  0  0  0  0  0  0  0  0  0  0
    4.4444   58.7594   70.4697 H   0  0  0  0  0  0  0  0  0  0  0  0
    1.6698   63.5788   70.2941 H   0  0  0  0  0  0  0  0  0  0  0  0
    3.1035   62.9745   69.3963 H   0  0  0  0  0  0  0  0  0  0  0  0
    1.5783   62.0257   69.3963 H   0  0  0  0  0  0  0  0  0  0  0  0
  2  1  2  0
  3  2  1  0
  4  3  2  0
  5  4  1  0
  6  5  2  0
  6  1  1  0
  7  4  1  0
  8  7  1  0
  9  8  2  0
 10  8  1  0
 10  3  1  0
 11 10  2  0
 12  9  1  0
 13 12  2  0
 14 13  1  0
 15 14  2  0
 16 15  1  0
 17 16  2  0
 17 12  1  0
 18 15  1  0
 19 18  1  0
 20 19  1  0
 21 20  1  0
 22 21  1  0
 23 22  1  0
 23 19  1  0
 25 24  1  0
 25  1  1  0
 26  6  1  0
 27 26  1  0
  2 28  1  0
  5 29  1  0
  7 30  1  0
  7 31  1  0
  9 32  1  0
 13 33  1  0
 14 34  1  0
 16 35  1  0
 17 36  1  0
 18 37  1  0
 18 38  1  0
 19 39  1  0
 20 40  1  0
 20 41  1  0
 21 42  1  0
 21 43  1  0
 22 44  1  0
 22 45  1  0
 23 46  1  0
 23 47  1  0
 24 48  1  0
 24 49  1  0
 24 50  1  0
 27 51  1  0
 27 52  1  0
 27 53  1  0
M  CHG  1  19   1
M  END
>  <score>  (5) 
-7.726

$$$$
=
     RDKit          3D

 53 56  0  0  0  0  0  0  0  0999 V2000
    3.5540   62.2190   69.9350 C   0  0  0  0  0  0  0  0  0  0  0  0
    3.7850   60.8420   69.8920 C   0  0  0  0  0  0  0  0  0  0  0  0
    3.1280   60.0520   70.8170 C   0  0  0  0  0  0  0  0  0  0  0  0
    2.2570   60.5690   71.7750 C   0  0  0  0  0  0  0  0  0  0  0  0
    2.0180   61.9330   71.8300 C   0  0  0  0  0  0  0  0  0  0  0  0
    2.6690   62.7680   70.9060 C   0  0  0  0  0  0  0  0  0  0  0  0
    1.6820   59.4910   72.6450 C   0  0  0  0  0  0  0  0  0  0  0  0
    2.3170   58.2300   72.1130 C   0  0  0  0  0  0  0  0  0  0  0  0
    2.2140   56.9580   72.5180 C   0  0  0  0  0  0  0  0  0  0  0  0
    3.2090   58.5980   70.9710 C   0  0  0  0  0  0  0  0  0  0  0  0
    3.8770   57.8410   70.2970 O   0  0  0  0  0  0  0  0  0  0  0  0
    1.3830   56.5170   73.6360 C   0  0  0  0  0  0  0  0  0  0  0  0
    1.9630   56.3420   74.8940 C   0  0  0  0  0  0  0  0  0  0  0  0
    1.1960   55.8910   75.9720 C   0  0  0  0  0  0  0  0  0  0  0  0
   -0.1660   55.6000   75.8050 C   0  0  0  0  0  0  0  0  0  0  0  0
   -0.7450   55.7800   74.5390 C   0  0  0  0  0  0  0  0  0  0  0  0
    0.0240   56.2330   73.4640 C   0  0  0  0  0  0  0  0  0  0  0  0
   -0.9830   55.0630   76.9490 C   0  0  0  0  0  0  0  0  0  0  0  0
   -0.6160   53.6470   77.2950 N   0  0  0  0  0  4  0  0  0  0  0  0
    0.6710   53.5180   78.0670 C   0  0  0  0  0  0  0  0  0  0  0  0
    1.0850   52.0880   77.7940 C   0  0  0  0  0  0  0  0  0  0  0  0
    0.7660   51.9270   76.3220 C   0  0  0  0  0  0  0  0  0  0  0  0
   -0.5360   52.6890   76.1210 C   0  0  0  0  0  0  0  0  0  0  0  0
    3.7540   63.0780   67.7100 C   0  0  0  0  0  0  0  0  0  0  0  0
    4.1340   63.1250   69.0800 O   0  0  0  0  0  0  0  0  0  0  0  0
    2.5120   64.1320   70.8600 O   0  0  0  0  0  0  0  0  0  0  0  0
    1.1920   64.6490   70.7650 C   0  0  0  0  0  0  0  0  0  0  0  0
    4.4656   60.4018   69.1484 H   0  0  0  0  0  0  0  0  0  0  0  0
    1.3331   62.3532   72.5812 H   0  0  0  0  0  0  0  0  0  0  0  0
    1.9512   59.6518   73.6994 H   0  0  0  0  0  0  0  0  0  0  0  0
    0.5828   59.4605   72.6179 H   0  0  0  0  0  0  0  0  0  0  0  0
    2.7920   56.1962   71.9743 H   0  0  0  0  0  0  0  0  0  0  0  0
    3.0314   56.5607   75.0378 H   0  0  0  0  0  0  0  0  0  0  0  0
    1.6642   55.7633   76.9592 H   0  0  0  0  0  0  0  0  0  0  0  0
   -1.8132   55.5626   74.3920 H   0  0  0  0  0  0  0  0  0  0  0  0
   -0.4419   56.3671   72.4766 H   0  0  0  0  0  0  0  0  0  0  0  0
   -0.8162   55.6977   77.8318 H   0  0  0  0  0  0  0  0  0  0  0  0
   -2.0394   55.0722   76.6424 H   0  0  0  0  0  0  0  0  0  0  0  0
   -1.4143   53.3760   77.8867 H   0  0  0  0  0  0  0  0  0  0  0  0
    1.4270   54.2266   77.6978 H   0  0  0  0  0  0  0  0  0  0  0  0
    0.5601   53.7419   79.1382 H   0  0  0  0  0  0  0  0  0  0  0  0
    2.1582   51.9417   77.9861 H   0  0  0  0  0  0  0  0  0  0  0  0
    0.5741   51.3546   78.4352 H   0  0  0  0  0  0  0  0  0  0  0  0
    1.5666   52.3576   75.7026 H   0  0  0  0  0  0  0  0  0  0  0  0
    0.6782   50.8703   76.0292 H   0  0  0  0  0  0  0  0  0  0  0  0
   -0.5171   53.2428   75.1708 H   0  0  0  0  0  0  0  0  0  0  0  0
   -1.4055   52.0166   76.0766 H   0  0  0  0  0  0  0  0  0  0  0  0
    2.6648   62.9433   67.6360 H   0  0  0  0  0  0  0  0  0  0  0  0
    4.0414   64.0185   67.2173 H   0  0  0  0  0  0  0  0  0  0  0  0
    4.2619   62.2358   67.2173 H   0  0  0  0  0  0  0  0  0  0  0  0
    0.7868   64.8077   71.7753 H   0  0  0  0  0  0  0  0  0  0  0  0
    1.2112   65.6061   70.2231 H   0  0  0  0  0  0  0  0  0  0  0  0
    0.5561   63.9335   70.2231 H   0  0  0  0  0  0  0  0  0  0  0  0
  2  1  2  0
  3  2  1  0
  4  3  2  0
  5  4  1  0
  6  5  2  0
  6  1  1  0
  7  4  1  0
  8  7  1  0
  9  8  2  0
 10  8  1  0
 10  3  1  0
 11 10  2  0
 12  9  1  0
 13 12  2  0
 14 13  1  0
 15 14  2  0
 16 15  1  0
 17 16  2  0
 17 12  1  0
 18 15  1  0
 19 18  1  0
 20 19  1  0
 21 20  1  0
 22 21  1  0
 23 22  1  0
 23 19  1  0
 25 24  1  0
 25  1  1  0
 26  6  1  0
 27 26  1  0
  2 28  1  0
  5 29  1  0
  7 30  1  0
  7 31  1  0
  9 32  1  0
 13 33  1  0
 14 34  1  0
 16 35  1  0
 17 36  1  0
 18 37  1  0
 18 38  1  0
 19 39  1  0
 20 40  1  0
 20 41  1  0
 21 42  1  0
 21 43  1  0
 22 44  1  0
 22 45  1  0
 23 46  1  0
 23 47  1  0
 24 48  1  0
 24 49  1  0
 24 50  1  0
 27 51  1  0
 27 52  1  0
 27 53  1  0
M  CHG  1  19   1
M  END
>  <score>  (6) 
-7.573

$$$$
=
     RDKit          3D

 53 56  0  0  0  0  0  0  0  0999 V2000
    2.4650   62.3470   71.1830 C   0  0  0  0  0  0  0  0  0  0  0  0
    2.2120   61.2260   71.9770 C   0  0  0  0  0  0  0  0  0  0  0  0
    0.9300   61.0670   72.4710 C   0  0  0  0  0  0  0  0  0  0  0  0
   -0.1020   61.9660   72.2100 C   0  0  0  0  0  0  0  0  0  0  0  0
    0.1350   63.0840   71.4240 C   0  0  0  0  0  0  0  0  0  0  0  0
    1.4250   63.2800   70.9050 C   0  0  0  0  0  0  0  0  0  0  0  0
   -1.3850   61.5490   72.8650 C   0  0  0  0  0  0  0  0  0  0  0  0
   -1.0170   60.2730   73.5810 C   0  0  0  0  0  0  0  0  0  0  0  0
   -1.7440   59.4680   74.3670 C   0  0  0  0  0  0  0  0  0  0  0  0
    0.4270   59.9840   73.3190 C   0  0  0  0  0  0  0  0  0  0  0  0
    1.0650   59.0370   73.7300 O   0  0  0  0  0  0  0  0  0  0  0  0
   -3.1520   59.6880   74.6910 C   0  0  0  0  0  0  0  0  0  0  0  0
   -3.6490   60.9920   74.7360 C   0  0  0  0  0  0  0  0  0  0  0  0
   -4.9850   61.2300   75.0740 C   0  0  0  0  0  0  0  0  0  0  0  0
   -5.8420   60.1630   75.3800 C   0  0  0  0  0  0  0  0  0  0  0  0
   -5.3380   58.8540   75.3300 C   0  0  0  0  0  0  0  0  0  0  0  0
   -4.0030   58.6190   74.9900 C   0  0  0  0  0  0  0  0  0  0  0  0
   -7.2660   60.4170   75.7960 C   0  0  0  0  0  0  0  0  0  0  0  0
   -8.1390   60.8020   74.6350 N   0  0  0  0  0  4  0  0  0  0  0  0
   -7.4110   60.8700   73.3170 C   0  0  0  0  0  0  0  0  0  0  0  0
   -8.2970   61.7770   72.4900 C   0  0  0  0  0  0  0  0  0  0  0  0
   -8.6930   62.8500   73.4850 C   0  0  0  0  0  0  0  0  0  0  0  0
   -8.9010   62.1040   74.7960 C   0  0  0  0  0  0  0  0  0  0  0  0
    4.8130   61.8980   71.0830 C   0  0  0  0  0  0  0  0  0  0  0  0
    3.6880   62.6350   70.6240 O   0  0  0  0  0  0  0  0  0  0  0  0
    1.7810   64.3460   70.1140 O   0  0  0  0  0  0  0  0  0  0  0  0
    1.1280   65.5870   70.3330 C   0  0  0  0  0  0  0  0  0  0  0  0
    3.0038   60.4961   72.2013 H   0  0  0  0  0  0  0  0  0  0  0  0
   -0.6707   63.8021   71.2116 H   0  0  0  0  0  0  0  0  0  0  0  0
   -1.7297   62.3137   73.5766 H   0  0  0  0  0  0  0  0  0  0  0  0
   -2.2083   61.4155   72.1478 H   0  0  0  0  0  0  0  0  0  0  0  0
   -1.2493   58.5843   74.7963 H   0  0  0  0  0  0  0  0  0  0  0  0
   -2.9852   61.8379   74.5040 H   0  0  0  0  0  0  0  0  0  0  0  0
   -5.3663   62.2615   75.1000 H   0  0  0  0  0  0  0  0  0  0  0  0
   -5.9995   58.0058   75.5604 H   0  0  0  0  0  0  0  0  0  0  0  0
   -3.6197   57.5885   74.9574 H   0  0  0  0  0  0  0  0  0  0  0  0
   -7.6695   59.5018   76.2538 H   0  0  0  0  0  0  0  0  0  0  0  0
   -7.2642   61.2552   76.5083 H   0  0  0  0  0  0  0  0  0  0  0  0
   -8.8142   60.0242   74.6299 H   0  0  0  0  0  0  0  0  0  0  0  0
   -6.4072   61.3024   73.4408 H   0  0  0  0  0  0  0  0  0  0  0  0
   -7.2488   59.8836   72.8580 H   0  0  0  0  0  0  0  0  0  0  0  0
   -7.7438   62.2067   71.6419 H   0  0  0  0  0  0  0  0  0  0  0  0
   -9.1568   61.2579   72.0413 H   0  0  0  0  0  0  0  0  0  0  0  0
   -7.8933   63.5983   73.5872 H   0  0  0  0  0  0  0  0  0  0  0  0
   -9.5938   63.3973   73.1702 H   0  0  0  0  0  0  0  0  0  0  0  0
   -8.4989   62.6851   75.6390 H   0  0  0  0  0  0  0  0  0  0  0  0
   -9.9667   61.9342   75.0090 H   0  0  0  0  0  0  0  0  0  0  0  0
    4.8231   61.8914   72.1829 H   0  0  0  0  0  0  0  0  0  0  0  0
    4.7512   60.8648   70.7107 H   0  0  0  0  0  0  0  0  0  0  0  0
    5.7355   62.3673   70.7107 H   0  0  0  0  0  0  0  0  0  0  0  0
    1.0338   65.7660   71.4142 H   0  0  0  0  0  0  0  0  0  0  0  0
    1.7169   66.3966   69.8772 H   0  0  0  0  0  0  0  0  0  0  0  0
    0.1272   65.5602   69.8772 H   0  0  0  0  0  0  0  0  0  0  0  0
  2  1  2  0
  3  2  1  0
  4  3  2  0
  5  4  1  0
  6  5  2  0
  6  1  1  0
  7  4  1  0
  8  7  1  0
  9  8  2  0
 10  8  1  0
 10  3  1  0
 11 10  2  0
 12  9  1  0
 13 12  2  0
 14 13  1  0
 15 14  2  0
 16 15  1  0
 17 16  2  0
 17 12  1  0
 18 15  1  0
 19 18  1  0
 20 19  1  0
 21 20  1  0
 22 21  1  0
 23 22  1  0
 23 19  1  0
 25 24  1  0
 25  1  1  0
 26  6  1  0
 27 26  1  0
  2 28  1  0
  5 29  1  0
  7 30  1  0
  7 31  1  0
  9 32  1  0
 13 33  1  0
 14 34  1  0
 16 35  1  0
 17 36  1  0
 18 37  1  0
 18 38  1  0
 19 39  1  0
 20 40  1  0
 20 41  1  0
 21 42  1  0
 21 43  1  0
 22 44  1  0
 22 45  1  0
 23 46  1  0
 23 47  1  0
 24 48  1  0
 24 49  1  0
 24 50  1  0
 27 51  1  0
 27 52  1  0
 27 53  1  0
M  CHG  1  19   1
M  END
>  <score>  (7) 
-7.549

$$$$
=
     RDKit          3D

 53 56  0  0  0  0  0  0  0  0999 V2000
   -4.3110   57.8930   75.7510 C   0  0  0  0  0  0  0  0  0  0  0  0
   -3.2630   56.9770   75.6250 C   0  0  0  0  0  0  0  0  0  0  0  0
   -2.0790   57.4310   75.0740 C   0  0  0  0  0  0  0  0  0  0  0  0
   -1.8930   58.7440   74.6470 C   0  0  0  0  0  0  0  0  0  0  0  0
   -2.9240   59.6630   74.7650 C   0  0  0  0  0  0  0  0  0  0  0  0
   -4.1430   59.2400   75.3190 C   0  0  0  0  0  0  0  0  0  0  0  0
   -0.5150   58.9610   74.0950 C   0  0  0  0  0  0  0  0  0  0  0  0
    0.1350   57.6060   74.2220 C   0  0  0  0  0  0  0  0  0  0  0  0
    1.3500   57.1790   73.8580 C   0  0  0  0  0  0  0  0  0  0  0  0
   -0.8510   56.6670   74.8400 C   0  0  0  0  0  0  0  0  0  0  0  0
   -0.6750   55.4940   75.0990 O   0  0  0  0  0  0  0  0  0  0  0  0
    2.3640   58.0240   73.2300 C   0  0  0  0  0  0  0  0  0  0  0  0
    3.1050   58.9070   74.0180 C   0  0  0  0  0  0  0  0  0  0  0  0
    4.0580   59.7470   73.4360 C   0  0  0  0  0  0  0  0  0  0  0  0
    4.2790   59.7210   72.0510 C   0  0  0  0  0  0  0  0  0  0  0  0
    3.5350   58.8290   71.2640 C   0  0  0  0  0  0  0  0  0  0  0  0
    2.5830   57.9890   71.8490 C   0  0  0  0  0  0  0  0  0  0  0  0
    5.2670   60.6620   71.4130 C   0  0  0  0  0  0  0  0  0  0  0  0
    4.5900   61.7730   70.6610 N   0  0  0  0  0  4  0  0  0  0  0  0
    3.4230   62.3860   71.3910 C   0  0  0  0  0  0  0  0  0  0  0  0
    2.6180   63.0120   70.2730 C   0  0  0  0  0  0  0  0  0  0  0  0
    2.6930   61.9620   69.1830 C   0  0  0  0  0  0  0  0  0  0  0  0
    4.1120   61.4180   69.2650 C   0  0  0  0  0  0  0  0  0  0  0  0
   -5.6130   57.3180   77.6740 C   0  0  0  0  0  0  0  0  0  0  0  0
   -5.5420   57.5880   76.2800 O   0  0  0  0  0  0  0  0  0  0  0  0
   -5.2350   60.0570   75.4890 O   0  0  0  0  0  0  0  0  0  0  0  0
   -5.0080   61.3950   75.9060 C   0  0  0  0  0  0  0  0  0  0  0  0
   -3.3760   55.9329   75.9523 H   0  0  0  0  0  0  0  0  0  0  0  0
   -2.7900   60.7026   74.4314 H   0  0  0  0  0  0  0  0  0  0  0  0
   -0.5589   59.2785   73.0427 H   0  0  0  0  0  0  0  0  0  0  0  0
    0.0377   59.7516   74.6236 H   0  0  0  0  0  0  0  0  0  0  0  0
    1.6018   56.1244   74.0433 H   0  0  0  0  0  0  0  0  0  0  0  0
    2.9373   58.9416   75.1046 H   0  0  0  0  0  0  0  0  0  0  0  0
    4.6393   60.4338   74.0687 H   0  0  0  0  0  0  0  0  0  0  0  0
    3.7022   58.7903   70.1775 H   0  0  0  0  0  0  0  0  0  0  0  0
    2.0033   57.2972   71.2202 H   0  0  0  0  0  0  0  0  0  0  0  0
    5.8977   61.1004   72.2004 H   0  0  0  0  0  0  0  0  0  0  0  0
    5.8668   60.0847   70.6940 H   0  0  0  0  0  0  0  0  0  0  0  0
    5.3585   62.4543   70.5827 H   0  0  0  0  0  0  0  0  0  0  0  0
    2.8380   61.6180   71.9182 H   0  0  0  0  0  0  0  0  0  0  0  0
    3.7244   63.1061   72.1660 H   0  0  0  0  0  0  0  0  0  0  0  0
    1.5776   63.1883   70.5835 H   0  0  0  0  0  0  0  0  0  0  0  0
    2.9968   63.9959   69.9592 H   0  0  0  0  0  0  0  0  0  0  0  0
    1.9601   61.1620   69.3644 H   0  0  0  0  0  0  0  0  0  0  0  0
    2.4637   62.3766   68.1903 H   0  0  0  0  0  0  0  0  0  0  0  0
    4.1167   60.3275   69.1206 H   0  0  0  0  0  0  0  0  0  0  0  0
    4.7623   61.8422   68.4858 H   0  0  0  0  0  0  0  0  0  0  0  0
   -5.3727   58.2318   78.2372 H   0  0  0  0  0  0  0  0  0  0  0  0
   -6.6292   56.9850   77.9317 H   0  0  0  0  0  0  0  0  0  0  0  0
   -4.8920   56.5282   77.9317 H   0  0  0  0  0  0  0  0  0  0  0  0
   -5.0003   61.4402   77.0050 H   0  0  0  0  0  0  0  0  0  0  0  0
   -4.0384   61.7405   75.5180 H   0  0  0  0  0  0  0  0  0  0  0  0
   -5.8094   62.0409   75.5180 H   0  0  0  0  0  0  0  0  0  0  0  0
  2  1  2  0
  3  2  1  0
  4  3  2  0
  5  4  1  0
  6  5  2  0
  6  1  1  0
  7  4  1  0
  8  7  1  0
  9  8  2  0
 10  8  1  0
 10  3  1  0
 11 10  2  0
 12  9  1  0
 13 12  2  0
 14 13  1  0
 15 14  2  0
 16 15  1  0
 17 16  2  0
 17 12  1  0
 18 15  1  0
 19 18  1  0
 20 19  1  0
 21 20  1  0
 22 21  1  0
 23 22  1  0
 23 19  1  0
 25 24  1  0
 25  1  1  0
 26  6  1  0
 27 26  1  0
  2 28  1  0
  5 29  1  0
  7 30  1  0
  7 31  1  0
  9 32  1  0
 13 33  1  0
 14 34  1  0
 16 35  1  0
 17 36  1  0
 18 37  1  0
 18 38  1  0
 19 39  1  0
 20 40  1  0
 20 41  1  0
 21 42  1  0
 21 43  1  0
 22 44  1  0
 22 45  1  0
 23 46  1  0
 23 47  1  0
 24 48  1  0
 24 49  1  0
 24 50  1  0
 27 51  1  0
 27 52  1  0
 27 53  1  0
M  CHG  1  19   1
M  END
>  <score>  (8) 
-7.382

$$$$
=
     RDKit          3D

 53 56  0  0  0  0  0  0  0  0999 V2000
    1.9930   58.6150   76.9000 C   0  0  0  0  0  0  0  0  0  0  0  0
    2.0870   58.4250   75.5190 C   0  0  0  0  0  0  0  0  0  0  0  0
    1.9650   59.5400   74.7090 C   0  0  0  0  0  0  0  0  0  0  0  0
    1.7560   60.8230   75.2090 C   0  0  0  0  0  0  0  0  0  0  0  0
    1.6600   61.0260   76.5780 C   0  0  0  0  0  0  0  0  0  0  0  0
    1.7770   59.9190   77.4330 C   0  0  0  0  0  0  0  0  0  0  0  0
    1.6650   61.8420   74.1120 C   0  0  0  0  0  0  0  0  0  0  0  0
    1.8330   61.0240   72.8560 C   0  0  0  0  0  0  0  0  0  0  0  0
    1.8040   61.3820   71.5660 C   0  0  0  0  0  0  0  0  0  0  0  0
    2.0260   59.5940   73.2470 C   0  0  0  0  0  0  0  0  0  0  0  0
    2.1980   58.6520   72.5000 O   0  0  0  0  0  0  0  0  0  0  0  0
    1.6000   62.7520   71.0980 C   0  0  0  0  0  0  0  0  0  0  0  0
    0.3000   63.2340   70.9320 C   0  0  0  0  0  0  0  0  0  0  0  0
    0.0790   64.5290   70.4570 C   0  0  0  0  0  0  0  0  0  0  0  0
    1.1600   65.3620   70.1310 C   0  0  0  0  0  0  0  0  0  0  0  0
    2.4640   64.8740   70.3020 C   0  0  0  0  0  0  0  0  0  0  0  0
    2.6820   63.5780   70.7800 C   0  0  0  0  0  0  0  0  0  0  0  0
    0.9270   66.7380   69.5680 C   0  0  0  0  0  0  0  0  0  0  0  0
    0.4210   66.6960   68.1530 N   0  0  0  0  0  4  0  0  0  0  0  0
    1.1210   67.6520   67.2230 C   0  0  0  0  0  0  0  0  0  0  0  0
    0.1160   67.8300   66.1050 C   0  0  0  0  0  0  0  0  0  0  0  0
   -1.1990   67.9240   66.8540 C   0  0  0  0  0  0  0  0  0  0  0  0
   -1.0710   66.9180   67.9880 C   0  0  0  0  0  0  0  0  0  0  0  0
    2.5580   56.3380   77.3710 C   0  0  0  0  0  0  0  0  0  0  0  0
    2.0950   57.6040   77.8250 O   0  0  0  0  0  0  0  0  0  0  0  0
    1.7010   59.9930   78.8020 O   0  0  0  0  0  0  0  0  0  0  0  0
    2.8260   60.5000   79.5060 C   0  0  0  0  0  0  0  0  0  0  0  0
    2.2520   57.4251   75.0912 H   0  0  0  0  0  0  0  0  0  0  0  0
    1.4955   62.0345   76.9853 H   0  0  0  0  0  0  0  0  0  0  0  0
    0.6878   62.3469   74.1245 H   0  0  0  0  0  0  0  0  0  0  0  0
    2.4153   62.6409   74.2063 H   0  0  0  0  0  0  0  0  0  0  0  0
    1.9425   60.5950   70.8101 H   0  0  0  0  0  0  0  0  0  0  0  0
   -0.5567   62.5890   71.1772 H   0  0  0  0  0  0  0  0  0  0  0  0
   -0.9502   64.8984   70.3377 H   0  0  0  0  0  0  0  0  0  0  0  0
    3.3228   65.5165   70.0579 H   0  0  0  0  0  0  0  0  0  0  0  0
    3.7097   63.2068   70.9064 H   0  0  0  0  0  0  0  0  0  0  0  0
    0.1852   67.2556   70.1940 H   0  0  0  0  0  0  0  0  0  0  0  0
    1.8904   67.2689   69.5658 H   0  0  0  0  0  0  0  0  0  0  0  0
    0.6398   65.7233   67.8944 H   0  0  0  0  0  0  0  0  0  0  0  0
    1.3307   68.6090   67.7231 H   0  0  0  0  0  0  0  0  0  0  0  0
    2.0978   67.2844   66.8756 H   0  0  0  0  0  0  0  0  0  0  0  0
    0.3149   68.7495   65.5350 H   0  0  0  0  0  0  0  0  0  0  0  0
    0.1395   67.0188   65.3624 H   0  0  0  0  0  0  0  0  0  0  0  0
   -1.3475   68.9391   67.2510 H   0  0  0  0  0  0  0  0  0  0  0  0
   -2.0626   67.7129   66.2062 H   0  0  0  0  0  0  0  0  0  0  0  0
   -1.5060   67.3224   68.9139 H   0  0  0  0  0  0  0  0  0  0  0  0
   -1.6054   65.9815   67.7704 H   0  0  0  0  0  0  0  0  0  0  0  0
    2.7910   55.7008   78.2368 H   0  0  0  0  0  0  0  0  0  0  0  0
    1.7770   55.8586   76.7625 H   0  0  0  0  0  0  0  0  0  0  0  0
    3.4640   56.4756   76.7625 H   0  0  0  0  0  0  0  0  0  0  0  0
    2.6478   60.4197   80.5885 H   0  0  0  0  0  0  0  0  0  0  0  0
    3.7196   59.9176   79.2373 H   0  0  0  0  0  0  0  0  0  0  0  0
    2.9816   61.5553   79.2373 H   0  0  0  0  0  0  0  0  0  0  0  0
  2  1  2  0
  3  2  1  0
  4  3  2  0
  5  4  1  0
  6  5  2  0
  6  1  1  0
  7  4  1  0
  8  7  1  0
  9  8  2  0
 10  8  1  0
 10  3  1  0
 11 10  2  0
 12  9  1  0
 13 12  2  0
 14 13  1  0
 15 14  2  0
 16 15  1  0
 17 16  2  0
 17 12  1  0
 18 15  1  0
 19 18  1  0
 20 19  1  0
 21 20  1  0
 22 21  1  0
 23 22  1  0
 23 19  1  0
 25 24  1  0
 25  1  1  0
 26  6  1  0
 27 26  1  0
  2 28  1  0
  5 29  1  0
  7 30  1  0
  7 31  1  0
  9 32  1  0
 13 33  1  0
 14 34  1  0
 16 35  1  0
 17 36  1  0
 18 37  1  0
 18 38  1  0
 19 39  1  0
 20 40  1  0
 20 41  1  0
 21 42  1  0
 21 43  1  0
 22 44  1  0
 22 45  1  0
 23 46  1  0
 23 47  1  0
 24 48  1  0
 24 49  1  0
 24 50  1  0
 27 51  1  0
 27 52  1  0
 27 53  1  0
M  CHG  1  19   1
M  END
>  <score>  (9) 
-7.269

$$$$
