=
     RDKit          3D

 94 98  0  0  0  0  0  0  0  0999 V2000
    0.7210   65.8480   69.2360 C   0  0  2  0  0  0  0  0  0  0  0  0
   -0.6870   66.0880   69.1210 O   0  0  0  0  0  0  0  0  0  0  0  0
    1.0610   65.4590   70.6890 C   0  0  0  0  0  0  0  0  0  0  0  0
    1.9120   64.1850   70.8140 N   0  0  2  0  0  4  0  0  0  0  0  0
    3.2020   64.2010   70.0220 C   0  0  0  0  0  0  0  0  0  0  0  0
    4.1850   63.1100   70.5400 C   0  0  0  0  0  0  0  0  0  0  0  0
    3.4610   61.9070   71.1580 N   0  0  1  0  0  4  0  0  0  0  0  0
    2.1110   61.6360   70.4970 C   0  0  0  0  0  0  0  0  0  0  0  0
    1.1290   62.8420   70.6760 C   0  0  1  0  0  0  0  0  0  0  0  0
    0.3660   62.6050   71.9750 C   0  0  0  0  0  0  0  0  0  0  0  0
   -0.1950   63.5750   72.4840 O   0  0  0  0  0  0  0  0  0  0  0  0
    0.2820   61.3060   72.3930 N   0  0  0  0  0  0  0  0  0  0  0  0
   -0.4820   60.8430   73.5730 C   0  0  0  0  0  0  0  0  0  0  0  0
    0.1290   61.3870   74.8720 C   0  0  0  0  0  0  0  0  0  0  0  0
   -0.4150   59.3050   73.6100 C   0  0  0  0  0  0  0  0  0  0  0  0
   -1.9530   61.2670   73.4600 C   0  0  0  0  0  0  0  0  0  0  0  0
    4.3350   60.6550   71.2190 C   0  0  0  0  0  0  0  0  0  0  0  0
    3.7010   59.5550   72.0090 C   0  0  0  0  0  0  0  0  0  0  0  0
    3.1160   58.4430   71.3880 C   0  0  0  0  0  0  0  0  0  0  0  0
    2.4920   57.4690   72.1650 C   0  0  0  0  0  0  0  0  0  0  0  0
    2.4570   57.6450   73.5370 C   0  0  0  0  0  0  0  0  0  0  0  0
    3.0030   58.7110   74.1590 N   0  0  0  0  0  0  0  0  0  0  0  0
    3.6340   59.6210   73.3970 C   0  0  0  0  0  0  0  0  0  0  0  0
    1.5250   67.0490   68.7230 C   0  0  0  0  0  0  0  0  0  0  0  0
    0.8250   68.1000   67.8260 C   0  0  2  0  0  0  0  0  0  0  0  0
    0.7180   67.5490   66.4020 C   0  0  0  0  0  0  0  0  0  0  0  0
   -0.3040   67.6810   65.7360 O   0  0  0  0  0  0  0  0  0  0  0  0
    1.8500   66.9320   65.9440 N   0  0  0  0  0  0  0  0  0  0  0  0
    1.9180   66.2810   64.6430 C   0  0  2  0  0  0  0  0  0  0  0  0
    3.0040   65.1590   64.6400 C   0  0  1  0  0  0  0  0  0  0  0  0
    4.2890   65.7680   64.0450 C   0  0  0  0  0  0  0  0  0  0  0  0
    3.7630   66.9140   63.2450 C   0  0  0  0  0  0  0  0  0  0  0  0
    2.4370   67.2050   63.5790 C   0  0  0  0  0  0  0  0  0  0  0  0
    1.7620   68.2430   62.9520 C   0  0  0  0  0  0  0  0  0  0  0  0
    2.4360   68.9920   61.9850 C   0  0  0  0  0  0  0  0  0  0  0  0
    3.7690   68.7010   61.6600 C   0  0  0  0  0  0  0  0  0  0  0  0
    4.4430   67.6580   62.2940 C   0  0  0  0  0  0  0  0  0  0  0  0
    3.2520   64.6830   65.9730 O   0  0  0  0  0  0  0  0  0  0  0  0
    1.3950   69.5340   67.8350 C   0  0  0  0  0  0  0  0  0  0  0  0
    2.8870   69.7520   67.6960 C   0  0  0  0  0  0  0  0  0  0  0  0
    3.6010   69.4780   66.5250 C   0  0  0  0  0  0  0  0  0  0  0  0
    4.9770   69.7110   66.4550 C   0  0  0  0  0  0  0  0  0  0  0  0
    5.6560   70.2490   67.5450 C   0  0  0  0  0  0  0  0  0  0  0  0
    4.9560   70.5710   68.7030 C   0  0  0  0  0  0  0  0  0  0  0  0
    3.5820   70.3350   68.7730 C   0  0  0  0  0  0  0  0  0  0  0  0
    1.0095   65.0010   68.5962 H   0  0  0  0  0  0  0  0  0  0  0  0
   -1.0851   66.1559   70.0249 H   0  0  0  0  0  0  0  0  0  0  0  0
    1.6145   66.2909   71.1490 H   0  0  0  0  0  0  0  0  0  0  0  0
    0.1059   65.2538   71.1946 H   0  0  0  0  0  0  0  0  0  0  0  0
    2.2017   64.2152   71.8020 H   0  0  0  0  0  0  0  0  0  0  0  0
    2.9767   64.0091   68.9626 H   0  0  0  0  0  0  0  0  0  0  0  0
    3.6758   65.1865   70.1414 H   0  0  0  0  0  0  0  0  0  0  0  0
    4.7962   62.7575   69.6961 H   0  0  0  0  0  0  0  0  0  0  0  0
    4.8034   63.5662   71.3271 H   0  0  0  0  0  0  0  0  0  0  0  0
    3.2645   62.1679   72.1348 H   0  0  0  0  0  0  0  0  0  0  0  0
    2.2685   61.4604   69.4226 H   0  0  0  0  0  0  0  0  0  0  0  0
    1.6635   60.7537   70.9779 H   0  0  0  0  0  0  0  0  0  0  0  0
    0.4640   62.9110   69.8025 H   0  0  0  0  0  0  0  0  0  0  0  0
    0.7887   60.5959   71.8453 H   0  0  0  0  0  0  0  0  0  0  0  0
   -0.3805   60.9334   75.7349 H   0  0  0  0  0  0  0  0  0  0  0  0
    1.1999   61.1379   74.9059 H   0  0  0  0  0  0  0  0  0  0  0  0
    0.0054   62.4795   74.9059 H   0  0  0  0  0  0  0  0  0  0  0  0
   -0.4001   58.9637   74.6556 H   0  0  0  0  0  0  0  0  0  0  0  0
   -1.2958   58.8872   73.1004 H   0  0  0  0  0  0  0  0  0  0  0  0
    0.4988   58.9654   73.1004 H   0  0  0  0  0  0  0  0  0  0  0  0
   -2.3777   61.3894   74.4673 H   0  0  0  0  0  0  0  0  0  0  0  0
   -2.0189   62.2207   72.9159 H   0  0  0  0  0  0  0  0  0  0  0  0
   -2.5164   60.4947   72.9159 H   0  0  0  0  0  0  0  0  0  0  0  0
    4.5116   60.2972   70.1939 H   0  0  0  0  0  0  0  0  0  0  0  0
    5.2764   60.9272   71.7188 H   0  0  0  0  0  0  0  0  0  0  0  0
    3.1493   58.3397   70.2934 H   0  0  0  0  0  0  0  0  0  0  0  0
    2.0383   56.5819   71.6990 H   0  0  0  0  0  0  0  0  0  0  0  0
    1.9601   56.8790   74.1504 H   0  0  0  0  0  0  0  0  0  0  0  0
    4.1258   60.4667   73.9000 H   0  0  0  0  0  0  0  0  0  0  0  0
    1.9046   67.5826   69.6068 H   0  0  0  0  0  0  0  0  0  0  0  0
    2.2756   66.5964   68.0583 H   0  0  0  0  0  0  0  0  0  0  0  0
   -0.1659   68.2441   68.2815 H   0  0  0  0  0  0  0  0  0  0  0  0
    2.6877   66.9277   66.5433 H   0  0  0  0  0  0  0  0  0  0  0  0
    0.8937   65.9269   64.4546 H   0  0  0  0  0  0  0  0  0  0  0  0
    2.6629   64.3002   64.0433 H   0  0  0  0  0  0  0  0  0  0  0  0
    4.9684   66.1150   64.8375 H   0  0  0  0  0  0  0  0  0  0  0  0
    4.8792   65.0536   63.4522 H   0  0  0  0  0  0  0  0  0  0  0  0
    0.7176   68.4711   63.2114 H   0  0  0  0  0  0  0  0  0  0  0  0
    1.9174   69.8167   61.4742 H   0  0  0  0  0  0  0  0  0  0  0  0
    4.2875   69.3012   60.8978 H   0  0  0  0  0  0  0  0  0  0  0  0
    5.4901   67.4310   62.0451 H   0  0  0  0  0  0  0  0  0  0  0  0
    2.9089   65.3416   66.6277 H   0  0  0  0  0  0  0  0  0  0  0  0
    0.9157   70.0724   67.0041 H   0  0  0  0  0  0  0  0  0  0  0  0
    1.1796   69.8875   68.8542 H   0  0  0  0  0  0  0  0  0  0  0  0
    3.0730   69.0742   65.6486 H   0  0  0  0  0  0  0  0  0  0  0  0
    5.5268   69.4681   65.5337 H   0  0  0  0  0  0  0  0  0  0  0  0
    6.7415   70.4187   67.4906 H   0  0  0  0  0  0  0  0  0  0  0  0
    5.4841   71.0107   69.5619 H   0  0  0  0  0  0  0  0  0  0  0  0
    3.0325   70.6093   69.6856 H   0  0  0  0  0  0  0  0  0  0  0  0
  2  1  1  0
  3  1  1  0
  4  3  1  0
  5  4  1  0
  6  5  1  0
  7  6  1  0
  8  7  1  0
  9  8  1  0
  9  4  1  0
 10  9  1  0
 11 10  2  0
 12 10  1  0
 13 12  1  0
 14 13  1  0
 15 13  1  0
 16 13  1  0
 17  7  1  0
 18 17  1  0
 19 18  2  0
 20 19  1  0
 21 20  2  0
 22 21  1  0
 23 22  2  0
 23 18  1  0
 24  1  1  0
 25 24  1  0
 26 25  1  0
 27 26  2  0
 28 26  1  0
 29 28  1  0
 30 29  1  0
 31 30  1  0
 32 31  1  0
 33 32  2  0
 33 29  1  0
 34 33  1  0
 35 34  2  0
 36 35  1  0
 37 36  2  0
 37 32  1  0
 38 30  1  0
 39 25  1  0
 40 39  1  0
 41 40  2  0
 42 41  1  0
 43 42  2  0
 44 43  1  0
 45 44  2  0
 45 40  1  0
  1 46  1  6
  2 47  1  0
  3 48  1  0
  3 49  1  0
  4 50  1  1
  5 51  1  0
  5 52  1  0
  6 53  1  0
  6 54  1  0
  7 55  1  1
  8 56  1  0
  8 57  1  0
  9 58  1  6
 12 59  1  0
 14 60  1  0
 14 61  1  0
 14 62  1  0
 15 63  1  0
 15 64  1  0
 15 65  1  0
 16 66  1  0
 16 67  1  0
 16 68  1  0
 17 69  1  0
 17 70  1  0
 19 71  1  0
 20 72  1  0
 21 73  1  0
 23 74  1  0
 24 75  1  0
 24 76  1  0
 25 77  1  1
 28 78  1  0
 29 79  1  6
 30 80  1  6
 31 81  1  0
 31 82  1  0
 34 83  1  0
 35 84  1  0
 36 85  1  0
 37 86  1  0
 38 87  1  0
 39 88  1  0
 39 89  1  0
 41 90  1  0
 42 91  1  0
 43 92  1  0
 44 93  1  0
 45 94  1  0
M  CHG  2   4   1   7   1
M  END
>  <score>  (1) 
-11.555

$$$$
=
     RDKit          3D

 94 98  0  0  0  0  0  0  0  0999 V2000
    0.7940   62.7450   72.4580 C   0  0  2  0  0  0  0  0  0  0  0  0
    0.7080   61.3970   71.9800 O   0  0  0  0  0  0  0  0  0  0  0  0
   -0.0320   62.8870   73.7510 C   0  0  0  0  0  0  0  0  0  0  0  0
   -0.6140   61.5630   74.2720 N   0  0  2  0  0  4  0  0  0  0  0  0
   -2.1240   61.4670   74.2210 C   0  0  0  0  0  0  0  0  0  0  0  0
   -2.5910   59.9860   74.3340 C   0  0  0  0  0  0  0  0  0  0  0  0
   -1.6060   59.1150   75.1260 N   0  0  1  0  0  4  0  0  0  0  0  0
   -0.8830   59.8970   76.2190 C   0  0  0  0  0  0  0  0  0  0  0  0
   -0.0170   61.0570   75.6220 C   0  0  1  0  0  0  0  0  0  0  0  0
    1.3660   60.4780   75.3380 C   0  0  0  0  0  0  0  0  0  0  0  0
    2.2570   60.7230   76.1500 O   0  0  0  0  0  0  0  0  0  0  0  0
    1.4550   59.6410   74.2600 N   0  0  0  0  0  0  0  0  0  0  0  0
    2.6740   58.9040   73.8580 C   0  0  0  0  0  0  0  0  0  0  0  0
    3.0480   57.8450   74.9060 C   0  0  0  0  0  0  0  0  0  0  0  0
    3.8290   59.9160   73.7550 C   0  0  0  0  0  0  0  0  0  0  0  0
    2.4740   58.2460   72.4860 C   0  0  0  0  0  0  0  0  0  0  0  0
   -2.2440   57.8320   75.6590 C   0  0  0  0  0  0  0  0  0  0  0  0
   -1.5210   56.6050   75.2050 C   0  0  0  0  0  0  0  0  0  0  0  0
   -0.5470   56.6510   74.2000 C   0  0  0  0  0  0  0  0  0  0  0  0
    0.0620   55.4720   73.7750 C   0  0  0  0  0  0  0  0  0  0  0  0
   -0.3330   54.2810   74.3580 C   0  0  0  0  0  0  0  0  0  0  0  0
   -1.2750   54.2070   75.3220 N   0  0  0  0  0  0  0  0  0  0  0  0
   -1.8250   55.3590   75.7450 C   0  0  0  0  0  0  0  0  0  0  0  0
    0.3880   63.7400   71.3630 C   0  0  0  0  0  0  0  0  0  0  0  0
    1.4600   64.6850   70.7640 C   0  0  2  0  0  0  0  0  0  0  0  0
    0.7880   65.9910   70.3310 C   0  0  0  0  0  0  0  0  0  0  0  0
   -0.1260   66.4900   70.9790 O   0  0  0  0  0  0  0  0  0  0  0  0
    1.3070   66.5480   69.1940 N   0  0  0  0  0  0  0  0  0  0  0  0
    0.7540   67.7500   68.5850 C   0  0  2  0  0  0  0  0  0  0  0  0
   -0.4910   67.4050   67.7080 C   0  0  1  0  0  0  0  0  0  0  0  0
   -0.0010   67.2800   66.2510 C   0  0  0  0  0  0  0  0  0  0  0  0
    1.2580   68.0810   66.2630 C   0  0  0  0  0  0  0  0  0  0  0  0
    1.6860   68.3440   67.5680 C   0  0  0  0  0  0  0  0  0  0  0  0
    2.8440   69.0720   67.7990 C   0  0  0  0  0  0  0  0  0  0  0  0
    3.5750   69.5330   66.7020 C   0  0  0  0  0  0  0  0  0  0  0  0
    3.1470   69.2590   65.3950 C   0  0  0  0  0  0  0  0  0  0  0  0
    1.9830   68.5240   65.1680 C   0  0  0  0  0  0  0  0  0  0  0  0
   -1.0940   66.1740   68.1370 O   0  0  0  0  0  0  0  0  0  0  0  0
    2.3640   64.1180   69.6490 C   0  0  0  0  0  0  0  0  0  0  0  0
    3.3030   62.9700   69.9530 C   0  0  0  0  0  0  0  0  0  0  0  0
    4.4070   63.0810   70.8050 C   0  0  0  0  0  0  0  0  0  0  0  0
    5.2310   61.9810   71.0550 C   0  0  0  0  0  0  0  0  0  0  0  0
    4.9480   60.7440   70.4810 C   0  0  0  0  0  0  0  0  0  0  0  0
    3.8280   60.6020   69.6680 C   0  0  0  0  0  0  0  0  0  0  0  0
    3.0070   61.7030   69.4160 C   0  0  0  0  0  0  0  0  0  0  0  0
    1.8369   62.9875   72.7102 H   0  0  0  0  0  0  0  0  0  0  0  0
    0.6684   60.7758   72.7498 H   0  0  0  0  0  0  0  0  0  0  0  0
    0.6178   63.3097   74.5315 H   0  0  0  0  0  0  0  0  0  0  0  0
   -0.8865   63.5371   73.5120 H   0  0  0  0  0  0  0  0  0  0  0  0
   -0.2774   60.8883   73.5703 H   0  0  0  0  0  0  0  0  0  0  0  0
   -2.5499   62.0435   75.0554 H   0  0  0  0  0  0  0  0  0  0  0  0
   -2.4695   61.8718   73.2583 H   0  0  0  0  0  0  0  0  0  0  0  0
   -3.5676   59.9622   74.8397 H   0  0  0  0  0  0  0  0  0  0  0  0
   -2.6518   59.5772   73.3146 H   0  0  0  0  0  0  0  0  0  0  0  0
   -0.8864   58.8191   74.4511 H   0  0  0  0  0  0  0  0  0  0  0  0
   -1.6292   60.3251   76.9045 H   0  0  0  0  0  0  0  0  0  0  0  0
   -0.2123   59.2055   76.7500 H   0  0  0  0  0  0  0  0  0  0  0  0
    0.0140   61.8982   76.3301 H   0  0  0  0  0  0  0  0  0  0  0  0
    0.6102   59.5140   73.6846 H   0  0  0  0  0  0  0  0  0  0  0  0
    2.9017   58.2594   75.9144 H   0  0  0  0  0  0  0  0  0  0  0  0
    2.4082   56.9596   74.7770 H   0  0  0  0  0  0  0  0  0  0  0  0
    4.1020   57.5577   74.7770 H   0  0  0  0  0  0  0  0  0  0  0  0
    4.1564   60.2028   74.7652 H   0  0  0  0  0  0  0  0  0  0  0  0
    4.6700   59.4587   73.2131 H   0  0  0  0  0  0  0  0  0  0  0  0
    3.4862   60.8098   73.2131 H   0  0  0  0  0  0  0  0  0  0  0  0
    2.1566   57.2017   72.6229 H   0  0  0  0  0  0  0  0  0  0  0  0
    1.7017   58.7935   71.9258 H   0  0  0  0  0  0  0  0  0  0  0  0
    3.4204   58.2711   71.9258 H   0  0  0  0  0  0  0  0  0  0  0  0
   -2.2327   57.8622   76.7585 H   0  0  0  0  0  0  0  0  0  0  0  0
   -3.2708   57.7804   75.2678 H   0  0  0  0  0  0  0  0  0  0  0  0
   -0.2640   57.6132   73.7482 H   0  0  0  0  0  0  0  0  0  0  0  0
    0.8377   55.4877   72.9952 H   0  0  0  0  0  0  0  0  0  0  0  0
    0.1437   53.3492   74.0195 H   0  0  0  0  0  0  0  0  0  0  0  0
   -2.5571   55.3138   76.5648 H   0  0  0  0  0  0  0  0  0  0  0  0
   -0.0225   63.1508   70.5297 H   0  0  0  0  0  0  0  0  0  0  0  0
   -0.3058   64.4231   71.8749 H   0  0  0  0  0  0  0  0  0  0  0  0
    2.1790   64.8491   71.5802 H   0  0  0  0  0  0  0  0  0  0  0  0
    2.1214   66.0993   68.7510 H   0  0  0  0  0  0  0  0  0  0  0  0
    0.5448   68.4209   69.4312 H   0  0  0  0  0  0  0  0  0  0  0  0
   -1.2539   68.1920   67.8006 H   0  0  0  0  0  0  0  0  0  0  0  0
    0.1980   66.2308   65.9873 H   0  0  0  0  0  0  0  0  0  0  0  0
   -0.7354   67.6291   65.5102 H   0  0  0  0  0  0  0  0  0  0  0  0
    3.1796   69.2819   68.8253 H   0  0  0  0  0  0  0  0  0  0  0  0
    4.4938   70.1156   66.8644 H   0  0  0  0  0  0  0  0  0  0  0  0
    3.7344   69.6269   64.5408 H   0  0  0  0  0  0  0  0  0  0  0  0
    1.6486   68.3013   64.1440 H   0  0  0  0  0  0  0  0  0  0  0  0
   -1.1099   66.1415   69.1263 H   0  0  0  0  0  0  0  0  0  0  0  0
    1.6989   63.7800   68.8407 H   0  0  0  0  0  0  0  0  0  0  0  0
    3.0451   64.9520   69.4239 H   0  0  0  0  0  0  0  0  0  0  0  0
    4.6289   64.0461   71.2839 H   0  0  0  0  0  0  0  0  0  0  0  0
    6.1084   62.0925   71.7090 H   0  0  0  0  0  0  0  0  0  0  0  0
    5.6068   59.8835   70.6695 H   0  0  0  0  0  0  0  0  0  0  0  0
    3.5896   59.6240   69.2245 H   0  0  0  0  0  0  0  0  0  0  0  0
    2.1134   61.5780   68.7869 H   0  0  0  0  0  0  0  0  0  0  0  0
  2  1  1  0
  3  1  1  0
  4  3  1  0
  5  4  1  0
  6  5  1  0
  7  6  1  0
  8  7  1  0
  9  8  1  0
  9  4  1  0
 10  9  1  0
 11 10  2  0
 12 10  1  0
 13 12  1  0
 14 13  1  0
 15 13  1  0
 16 13  1  0
 17  7  1  0
 18 17  1  0
 19 18  2  0
 20 19  1  0
 21 20  2  0
 22 21  1  0
 23 22  2  0
 23 18  1  0
 24  1  1  0
 25 24  1  0
 26 25  1  0
 27 26  2  0
 28 26  1  0
 29 28  1  0
 30 29  1  0
 31 30  1  0
 32 31  1  0
 33 32  2  0
 33 29  1  0
 34 33  1  0
 35 34  2  0
 36 35  1  0
 37 36  2  0
 37 32  1  0
 38 30  1  0
 39 25  1  0
 40 39  1  0
 41 40  2  0
 42 41  1  0
 43 42  2  0
 44 43  1  0
 45 44  2  0
 45 40  1  0
  1 46  1  1
  2 47  1  0
  3 48  1  0
  3 49  1  0
  4 50  1  6
  5 51  1  0
  5 52  1  0
  6 53  1  0
  6 54  1  0
  7 55  1  6
  8 56  1  0
  8 57  1  0
  9 58  1  1
 12 59  1  0
 14 60  1  0
 14 61  1  0
 14 62  1  0
 15 63  1  0
 15 64  1  0
 15 65  1  0
 16 66  1  0
 16 67  1  0
 16 68  1  0
 17 69  1  0
 17 70  1  0
 19 71  1  0
 20 72  1  0
 21 73  1  0
 23 74  1  0
 24 75  1  0
 24 76  1  0
 25 77  1  1
 28 78  1  0
 29 79  1  1
 30 80  1  6
 31 81  1  0
 31 82  1  0
 34 83  1  0
 35 84  1  0
 36 85  1  0
 37 86  1  0
 38 87  1  0
 39 88  1  0
 39 89  1  0
 41 90  1  0
 42 91  1  0
 43 92  1  0
 44 93  1  0
 45 94  1  0
M  CHG  2   4   1   7   1
M  END
>  <score>  (2) 
-10.441

$$$$
=
     RDKit          3D

 94 98  0  0  0  0  0  0  0  0999 V2000
    0.1550   63.0450   72.3410 C   0  0  2  0  0  0  0  0  0  0  0  0
   -0.3550   64.0790   73.1930 O   0  0  0  0  0  0  0  0  0  0  0  0
    1.4100   62.4210   72.9820 C   0  0  0  0  0  0  0  0  0  0  0  0
    1.2840   60.9170   73.2730 N   0  0  2  0  0  4  0  0  0  0  0  0
    1.8520   60.0120   72.2000 C   0  0  0  0  0  0  0  0  0  0  0  0
    2.0880   58.5750   72.7540 C   0  0  0  0  0  0  0  0  0  0  0  0
    1.1260   58.2160   73.8940 N   0  0  1  0  0  4  0  0  0  0  0  0
   -0.2350   58.8910   73.7440 C   0  0  0  0  0  0  0  0  0  0  0  0
   -0.1140   60.4510   73.7870 C   0  0  1  0  0  0  0  0  0  0  0  0
   -0.2410   60.8680   75.2490 C   0  0  0  0  0  0  0  0  0  0  0  0
    0.4670   60.2810   76.0660 O   0  0  0  0  0  0  0  0  0  0  0  0
   -1.0530   61.9400   75.4970 N   0  0  0  0  0  0  0  0  0  0  0  0
   -1.2510   62.5630   76.8250 C   0  0  0  0  0  0  0  0  0  0  0  0
   -1.9010   61.5770   77.8050 C   0  0  0  0  0  0  0  0  0  0  0  0
   -2.1920   63.7680   76.6500 C   0  0  0  0  0  0  0  0  0  0  0  0
    0.0880   63.0650   77.3860 C   0  0  0  0  0  0  0  0  0  0  0  0
    1.0020   56.7090   74.1140 C   0  0  0  0  0  0  0  0  0  0  0  0
    1.1620   56.3270   75.5510 C   0  0  0  0  0  0  0  0  0  0  0  0
    2.2870   56.7050   76.2950 C   0  0  0  0  0  0  0  0  0  0  0  0
    2.4140   56.2810   77.6160 C   0  0  0  0  0  0  0  0  0  0  0  0
    1.4210   55.4790   78.1480 C   0  0  0  0  0  0  0  0  0  0  0  0
    0.3320   55.0920   77.4500 N   0  0  0  0  0  0  0  0  0  0  0  0
    0.2070   55.5410   76.1890 C   0  0  0  0  0  0  0  0  0  0  0  0
    0.3950   63.5750   70.9210 C   0  0  0  0  0  0  0  0  0  0  0  0
    1.5040   64.6310   70.6850 C   0  0  2  0  0  0  0  0  0  0  0  0
    0.8520   65.9590   70.2910 C   0  0  0  0  0  0  0  0  0  0  0  0
   -0.0290   66.4710   70.9750 O   0  0  0  0  0  0  0  0  0  0  0  0
    1.3500   66.5210   69.1480 N   0  0  0  0  0  0  0  0  0  0  0  0
    0.8090   67.7450   68.5740 C   0  0  2  0  0  0  0  0  0  0  0  0
   -0.4640   67.4430   67.7220 C   0  0  1  0  0  0  0  0  0  0  0  0
   -0.0130   67.3330   66.2510 C   0  0  0  0  0  0  0  0  0  0  0  0
    1.2640   68.1070   66.2450 C   0  0  0  0  0  0  0  0  0  0  0  0
    1.7290   68.3370   67.5440 C   0  0  0  0  0  0  0  0  0  0  0  0
    2.9090   69.0350   67.7590 C   0  0  0  0  0  0  0  0  0  0  0  0
    3.6230   69.4990   66.6520 C   0  0  0  0  0  0  0  0  0  0  0  0
    3.1570   69.2580   65.3520 C   0  0  0  0  0  0  0  0  0  0  0  0
    1.9710   68.5530   65.1410 C   0  0  0  0  0  0  0  0  0  0  0  0
   -1.0840   66.2180   68.1440 O   0  0  0  0  0  0  0  0  0  0  0  0
    2.6470   64.2550   69.7200 C   0  0  0  0  0  0  0  0  0  0  0  0
    3.4490   62.9930   69.9570 C   0  0  0  0  0  0  0  0  0  0  0  0
    3.3070   61.8330   69.1870 C   0  0  0  0  0  0  0  0  0  0  0  0
    4.0840   60.7020   69.4480 C   0  0  0  0  0  0  0  0  0  0  0  0
    5.0370   60.7210   70.4640 C   0  0  0  0  0  0  0  0  0  0  0  0
    5.2250   61.8800   71.2100 C   0  0  0  0  0  0  0  0  0  0  0  0
    4.4460   63.0090   70.9500 C   0  0  0  0  0  0  0  0  0  0  0  0
   -0.5905   62.2427   72.2381 H   0  0  0  0  0  0  0  0  0  0  0  0
   -0.2270   63.8195   74.1398 H   0  0  0  0  0  0  0  0  0  0  0  0
    2.2582   62.5706   72.2977 H   0  0  0  0  0  0  0  0  0  0  0  0
    1.5530   62.9208   73.9514 H   0  0  0  0  0  0  0  0  0  0  0  0
    1.9091   60.7998   74.0832 H   0  0  0  0  0  0  0  0  0  0  0  0
    1.1448   59.9623   71.3590 H   0  0  0  0  0  0  0  0  0  0  0  0
    2.8162   60.4234   71.8667 H   0  0  0  0  0  0  0  0  0  0  0  0
    1.9479   57.8543   71.9348 H   0  0  0  0  0  0  0  0  0  0  0  0
    3.1107   58.5376   73.1573 H   0  0  0  0  0  0  0  0  0  0  0  0
    1.5510   58.5972   74.7513 H   0  0  0  0  0  0  0  0  0  0  0  0
   -0.6764   58.5939   72.7812 H   0  0  0  0  0  0  0  0  0  0  0  0
   -0.8707   58.5726   74.5834 H   0  0  0  0  0  0  0  0  0  0  0  0
   -0.8912   60.9000   73.1511 H   0  0  0  0  0  0  0  0  0  0  0  0
   -1.5652   62.3442   74.7000 H   0  0  0  0  0  0  0  0  0  0  0  0
   -1.6918   61.8944   78.8372 H   0  0  0  0  0  0  0  0  0  0  0  0
   -2.9884   61.5593   77.6401 H   0  0  0  0  0  0  0  0  0  0  0  0
   -1.4887   60.5706   77.6401 H   0  0  0  0  0  0  0  0  0  0  0  0
   -2.4888   64.1481   77.6387 H   0  0  0  0  0  0  0  0  0  0  0  0
   -1.6720   64.5614   76.0931 H   0  0  0  0  0  0  0  0  0  0  0  0
   -3.0878   63.4559   76.0931 H   0  0  0  0  0  0  0  0  0  0  0  0
    0.0530   63.0519   78.4854 H   0  0  0  0  0  0  0  0  0  0  0  0
    0.9002   62.4103   77.0372 H   0  0  0  0  0  0  0  0  0  0  0  0
    0.2697   64.0923   77.0372 H   0  0  0  0  0  0  0  0  0  0  0  0
    0.0095   56.3824   73.7702 H   0  0  0  0  0  0  0  0  0  0  0  0
    1.8069   56.2200   73.5456 H   0  0  0  0  0  0  0  0  0  0  0  0
    3.0661   57.3333   75.8387 H   0  0  0  0  0  0  0  0  0  0  0  0
    3.2834   56.5771   78.2214 H   0  0  0  0  0  0  0  0  0  0  0  0
    1.5232   55.1402   79.1895 H   0  0  0  0  0  0  0  0  0  0  0  0
   -0.7013   55.2720   75.6300 H   0  0  0  0  0  0  0  0  0  0  0  0
    0.6388   62.7068   70.2910 H   0  0  0  0  0  0  0  0  0  0  0  0
   -0.5339   64.1139   70.6828 H   0  0  0  0  0  0  0  0  0  0  0  0
    2.0315   64.7073   71.6472 H   0  0  0  0  0  0  0  0  0  0  0  0
    2.1397   66.0598   68.6740 H   0  0  0  0  0  0  0  0  0  0  0  0
    0.6353   68.4048   69.4369 H   0  0  0  0  0  0  0  0  0  0  0  0
   -1.2062   68.2452   67.8473 H   0  0  0  0  0  0  0  0  0  0  0  0
    0.1564   66.2845   65.9646 H   0  0  0  0  0  0  0  0  0  0  0  0
   -0.7577   67.7106   65.5349 H   0  0  0  0  0  0  0  0  0  0  0  0
    3.2744   69.2190   68.7801 H   0  0  0  0  0  0  0  0  0  0  0  0
    4.5585   70.0580   66.8014 H   0  0  0  0  0  0  0  0  0  0  0  0
    3.7315   69.6280   64.4900 H   0  0  0  0  0  0  0  0  0  0  0  0
    1.6066   68.3563   64.1219 H   0  0  0  0  0  0  0  0  0  0  0  0
   -1.1026   66.1812   69.1331 H   0  0  0  0  0  0  0  0  0  0  0  0
    2.2013   64.1654   68.7183 H   0  0  0  0  0  0  0  0  0  0  0  0
    3.3838   65.0572   69.8735 H   0  0  0  0  0  0  0  0  0  0  0  0
    2.5747   61.8117   68.3664 H   0  0  0  0  0  0  0  0  0  0  0  0
    3.9426   59.7910   68.8479 H   0  0  0  0  0  0  0  0  0  0  0  0
    5.6378   59.8241   70.6753 H   0  0  0  0  0  0  0  0  0  0  0  0
    5.9863   61.9069   72.0035 H   0  0  0  0  0  0  0  0  0  0  0  0
    4.6145   63.9273   71.5316 H   0  0  0  0  0  0  0  0  0  0  0  0
  2  1  1  0
  3  1  1  0
  4  3  1  0
  5  4  1  0
  6  5  1  0
  7  6  1  0
  8  7  1  0
  9  8  1  0
  9  4  1  0
 10  9  1  0
 11 10  2  0
 12 10  1  0
 13 12  1  0
 14 13  1  0
 15 13  1  0
 16 13  1  0
 17  7  1  0
 18 17  1  0
 19 18  2  0
 20 19  1  0
 21 20  2  0
 22 21  1  0
 23 22  2  0
 23 18  1  0
 24  1  1  0
 25 24  1  0
 26 25  1  0
 27 26  2  0
 28 26  1  0
 29 28  1  0
 30 29  1  0
 31 30  1  0
 32 31  1  0
 33 32  2  0
 33 29  1  0
 34 33  1  0
 35 34  2  0
 36 35  1  0
 37 36  2  0
 37 32  1  0
 38 30  1  0
 39 25  1  0
 40 39  1  0
 41 40  2  0
 42 41  1  0
 43 42  2  0
 44 43  1  0
 45 44  2  0
 45 40  1  0
  1 46  1  6
  2 47  1  0
  3 48  1  0
  3 49  1  0
  4 50  1  1
  5 51  1  0
  5 52  1  0
  6 53  1  0
  6 54  1  0
  7 55  1  1
  8 56  1  0
  8 57  1  0
  9 58  1  6
 12 59  1  0
 14 60  1  0
 14 61  1  0
 14 62  1  0
 15 63  1  0
 15 64  1  0
 15 65  1  0
 16 66  1  0
 16 67  1  0
 16 68  1  0
 17 69  1  0
 17 70  1  0
 19 71  1  0
 20 72  1  0
 21 73  1  0
 23 74  1  0
 24 75  1  0
 24 76  1  0
 25 77  1  1
 28 78  1  0
 29 79  1  1
 30 80  1  6
 31 81  1  0
 31 82  1  0
 34 83  1  0
 35 84  1  0
 36 85  1  0
 37 86  1  0
 38 87  1  0
 39 88  1  0
 39 89  1  0
 41 90  1  0
 42 91  1  0
 43 92  1  0
 44 93  1  0
 45 94  1  0
M  CHG  2   4   1   7   1
M  END
>  <score>  (3) 
-10.034

$$$$
=
     RDKit          3D

 94 98  0  0  0  0  0  0  0  0999 V2000
    0.7420   65.3940   70.6270 C   0  0  2  0  0  0  0  0  0  0  0  0
    0.0560   65.8460   71.8010 O   0  0  0  0  0  0  0  0  0  0  0  0
    1.7630   64.3060   71.0130 C   0  0  0  0  0  0  0  0  0  0  0  0
    1.1620   63.1360   71.8090 N   0  0  2  0  0  4  0  0  0  0  0  0
   -0.3250   63.2430   72.0720 C   0  0  0  0  0  0  0  0  0  0  0  0
   -0.9200   61.8600   72.4690 C   0  0  0  0  0  0  0  0  0  0  0  0
    0.1070   60.9500   73.1570 N   0  0  1  0  0  4  0  0  0  0  0  0
    1.1300   61.7360   73.9720 C   0  0  0  0  0  0  0  0  0  0  0  0
    1.9740   62.6970   73.0680 C   0  0  1  0  0  0  0  0  0  0  0  0
    3.1890   61.9070   72.5920 C   0  0  0  0  0  0  0  0  0  0  0  0
    4.0210   61.5870   73.4410 O   0  0  0  0  0  0  0  0  0  0  0  0
    3.1810   61.5290   71.2780 N   0  0  0  0  0  0  0  0  0  0  0  0
    4.2130   60.6870   70.6320 C   0  0  0  0  0  0  0  0  0  0  0  0
    5.6110   61.0140   71.1770 C   0  0  0  0  0  0  0  0  0  0  0  0
    4.1960   60.9860   69.1230 C   0  0  0  0  0  0  0  0  0  0  0  0
    3.8970   59.1990   70.8410 C   0  0  0  0  0  0  0  0  0  0  0  0
   -0.5420   59.8310   73.9700 C   0  0  0  0  0  0  0  0  0  0  0  0
    0.1360   58.5130   73.7690 C   0  0  0  0  0  0  0  0  0  0  0  0
   -0.5350   57.2990   73.9680 C   0  0  0  0  0  0  0  0  0  0  0  0
    0.1550   56.0980   73.8190 C   0  0  0  0  0  0  0  0  0  0  0  0
    1.4970   56.1470   73.4900 C   0  0  0  0  0  0  0  0  0  0  0  0
    2.1700   57.3020   73.3020 N   0  0  0  0  0  0  0  0  0  0  0  0
    1.4800   58.4500   73.4130 C   0  0  0  0  0  0  0  0  0  0  0  0
    1.3660   66.5730   69.8700 C   0  0  0  0  0  0  0  0  0  0  0  0
    0.8980   66.8770   68.4240 C   0  0  2  0  0  0  0  0  0  0  0  0
    1.4030   68.2640   68.0180 C   0  0  0  0  0  0  0  0  0  0  0  0
    0.9780   69.2850   68.5500 O   0  0  0  0  0  0  0  0  0  0  0  0
    2.3670   68.2570   67.0470 N   0  0  0  0  0  0  0  0  0  0  0  0
    2.9170   69.4790   66.4770 C   0  0  2  0  0  0  0  0  0  0  0  0
    3.4830   69.2180   65.0460 C   0  0  1  0  0  0  0  0  0  0  0  0
    5.0000   68.9840   65.1910 C   0  0  0  0  0  0  0  0  0  0  0  0
    5.3100   69.6600   66.4850 C   0  0  0  0  0  0  0  0  0  0  0  0
    4.1460   69.9360   67.2100 C   0  0  0  0  0  0  0  0  0  0  0  0
    4.2160   70.5580   68.4480 C   0  0  0  0  0  0  0  0  0  0  0  0
    5.4710   70.8980   68.9570 C   0  0  0  0  0  0  0  0  0  0  0  0
    6.6360   70.6100   68.2310 C   0  0  0  0  0  0  0  0  0  0  0  0
    6.5600   69.9830   66.9870 C   0  0  0  0  0  0  0  0  0  0  0  0
    2.8580   68.0710   64.4490 O   0  0  0  0  0  0  0  0  0  0  0  0
   -0.6040   66.7090   68.1140 C   0  0  0  0  0  0  0  0  0  0  0  0
   -1.2460   67.5460   67.0270 C   0  0  0  0  0  0  0  0  0  0  0  0
   -0.5510   68.0280   65.9130 C   0  0  0  0  0  0  0  0  0  0  0  0
   -1.2020   68.7860   64.9370 C   0  0  0  0  0  0  0  0  0  0  0  0
   -2.5650   69.0490   65.0430 C   0  0  0  0  0  0  0  0  0  0  0  0
   -3.2840   68.5390   66.1200 C   0  0  0  0  0  0  0  0  0  0  0  0
   -2.6320   67.7850   67.0960 C   0  0  0  0  0  0  0  0  0  0  0  0
    0.0263   64.9357   69.9287 H   0  0  0  0  0  0  0  0  0  0  0  0
    0.5366   65.5293   72.6065 H   0  0  0  0  0  0  0  0  0  0  0  0
    2.2057   63.9044   70.0896 H   0  0  0  0  0  0  0  0  0  0  0  0
    2.5064   64.7858   71.6665 H   0  0  0  0  0  0  0  0  0  0  0  0
    1.2635   62.3512   71.1497 H   0  0  0  0  0  0  0  0  0  0  0  0
   -0.4954   63.9569   72.8913 H   0  0  0  0  0  0  0  0  0  0  0  0
   -0.8206   63.5879   71.1525 H   0  0  0  0  0  0  0  0  0  0  0  0
   -1.7624   62.0235   73.1572 H   0  0  0  0  0  0  0  0  0  0  0  0
   -1.2422   61.3586   71.5444 H   0  0  0  0  0  0  0  0  0  0  0  0
    0.6275   60.4884   72.3974 H   0  0  0  0  0  0  0  0  0  0  0  0
    0.6004   62.3324   74.7295 H   0  0  0  0  0  0  0  0  0  0  0  0
    1.8165   61.0185   74.4453 H   0  0  0  0  0  0  0  0  0  0  0  0
    2.2512   63.5950   73.6397 H   0  0  0  0  0  0  0  0  0  0  0  0
    2.3979   61.8547   70.6936 H   0  0  0  0  0  0  0  0  0  0  0  0
    5.5864   61.0082   72.2767 H   0  0  0  0  0  0  0  0  0  0  0  0
    6.3285   60.2594   70.8223 H   0  0  0  0  0  0  0  0  0  0  0  0
    5.9194   62.0085   70.8223 H   0  0  0  0  0  0  0  0  0  0  0  0
    4.1342   62.0729   68.9652 H   0  0  0  0  0  0  0  0  0  0  0  0
    5.1175   60.6004   68.6624 H   0  0  0  0  0  0  0  0  0  0  0  0
    3.3241   60.4985   68.6624 H   0  0  0  0  0  0  0  0  0  0  0  0
    3.8509   58.9818   71.9183 H   0  0  0  0  0  0  0  0  0  0  0  0
    2.9283   58.9612   70.3772 H   0  0  0  0  0  0  0  0  0  0  0  0
    4.6854   58.5881   70.3772 H   0  0  0  0  0  0  0  0  0  0  0  0
   -0.4921   60.0948   75.0367 H   0  0  0  0  0  0  0  0  0  0  0  0
   -1.5825   59.7284   73.6283 H   0  0  0  0  0  0  0  0  0  0  0  0
   -1.6007   57.2944   74.2404 H   0  0  0  0  0  0  0  0  0  0  0  0
   -0.3556   55.1339   73.9597 H   0  0  0  0  0  0  0  0  0  0  0  0
    2.0428   55.1988   73.3759 H   0  0  0  0  0  0  0  0  0  0  0  0
    2.0077   59.3938   73.2109 H   0  0  0  0  0  0  0  0  0  0  0  0
    1.1725   67.4765   70.4669 H   0  0  0  0  0  0  0  0  0  0  0  0
    2.4183   66.2770   69.7472 H   0  0  0  0  0  0  0  0  0  0  0  0
    1.3486   66.0845   67.8085 H   0  0  0  0  0  0  0  0  0  0  0  0
    2.7178   67.3508   66.7054 H   0  0  0  0  0  0  0  0  0  0  0  0
    2.0894   70.2026   66.5156 H   0  0  0  0  0  0  0  0  0  0  0  0
    3.2785   70.0785   64.3921 H   0  0  0  0  0  0  0  0  0  0  0  0
    5.2337   67.9101   65.2377 H   0  0  0  0  0  0  0  0  0  0  0  0
    5.5858   69.3700   64.3437 H   0  0  0  0  0  0  0  0  0  0  0  0
    3.3011   70.7790   69.0173 H   0  0  0  0  0  0  0  0  0  0  0  0
    5.5466   71.3956   69.9351 H   0  0  0  0  0  0  0  0  0  0  0  0
    7.6180   70.8808   68.6460 H   0  0  0  0  0  0  0  0  0  0  0  0
    7.4720   69.7504   66.4177 H   0  0  0  0  0  0  0  0  0  0  0  0
    2.5287   67.4668   65.1607 H   0  0  0  0  0  0  0  0  0  0  0  0
   -0.7562   65.6555   67.8366 H   0  0  0  0  0  0  0  0  0  0  0  0
   -1.0953   67.0629   69.0324 H   0  0  0  0  0  0  0  0  0  0  0  0
    0.5212   67.8075   65.8042 H   0  0  0  0  0  0  0  0  0  0  0  0
   -0.6345   69.1774   64.0798 H   0  0  0  0  0  0  0  0  0  0  0  0
   -3.0714   69.6571   64.2790 H   0  0  0  0  0  0  0  0  0  0  0  0
   -4.3642   68.7301   66.2015 H   0  0  0  0  0  0  0  0  0  0  0  0
   -3.2108   67.3699   67.9342 H   0  0  0  0  0  0  0  0  0  0  0  0
  2  1  1  0
  3  1  1  0
  4  3  1  0
  5  4  1  0
  6  5  1  0
  7  6  1  0
  8  7  1  0
  9  8  1  0
  9  4  1  0
 10  9  1  0
 11 10  2  0
 12 10  1  0
 13 12  1  0
 14 13  1  0
 15 13  1  0
 16 13  1  0
 17  7  1  0
 18 17  1  0
 19 18  2  0
 20 19  1  0
 21 20  2  0
 22 21  1  0
 23 22  2  0
 23 18  1  0
 24  1  1  0
 25 24  1  0
 26 25  1  0
 27 26  2  0
 28 26  1  0
 29 28  1  0
 30 29  1  0
 31 30  1  0
 32 31  1  0
 33 32  2  0
 33 29  1  0
 34 33  1  0
 35 34  2  0
 36 35  1  0
 37 36  2  0
 37 32  1  0
 38 30  1  0
 39 25  1  0
 40 39  1  0
 41 40  2  0
 42 41  1  0
 43 42  2  0
 44 43  1  0
 45 44  2  0
 45 40  1  0
  1 46  1  6
  2 47  1  0
  3 48  1  0
  3 49  1  0
  4 50  1  6
  5 51  1  0
  5 52  1  0
  6 53  1  0
  6 54  1  0
  7 55  1  6
  8 56  1  0
  8 57  1  0
  9 58  1  1
 12 59  1  0
 14 60  1  0
 14 61  1  0
 14 62  1  0
 15 63  1  0
 15 64  1  0
 15 65  1  0
 16 66  1  0
 16 67  1  0
 16 68  1  0
 17 69  1  0
 17 70  1  0
 19 71  1  0
 20 72  1  0
 21 73  1  0
 23 74  1  0
 24 75  1  0
 24 76  1  0
 25 77  1  6
 28 78  1  0
 29 79  1  6
 30 80  1  6
 31 81  1  0
 31 82  1  0
 34 83  1  0
 35 84  1  0
 36 85  1  0
 37 86  1  0
 38 87  1  0
 39 88  1  0
 39 89  1  0
 41 90  1  0
 42 91  1  0
 43 92  1  0
 44 93  1  0
 45 94  1  0
M  CHG  2   4   1   7   1
M  END
>  <score>  (4) 
-9.987

$$$$
=
     RDKit          3D

 94 98  0  0  0  0  0  0  0  0999 V2000
    1.3720   65.3290   70.2480 C   0  0  2  0  0  0  0  0  0  0  0  0
    0.2350   65.1280   71.0970 O   0  0  0  0  0  0  0  0  0  0  0  0
    2.6510   64.8920   70.9890 C   0  0  0  0  0  0  0  0  0  0  0  0
    2.8500   63.3690   71.0540 N   0  0  2  0  0  4  0  0  0  0  0  0
    3.5100   62.7620   69.8350 C   0  0  0  0  0  0  0  0  0  0  0  0
    4.0670   61.3430   70.1530 C   0  0  0  0  0  0  0  0  0  0  0  0
    3.2810   60.6350   71.2650 N   0  0  1  0  0  4  0  0  0  0  0  0
    1.8050   61.0250   71.2740 C   0  0  0  0  0  0  0  0  0  0  0  0
    1.6140   62.5550   71.5480 C   0  0  1  0  0  0  0  0  0  0  0  0
    1.5090   62.7270   73.0600 C   0  0  0  0  0  0  0  0  0  0  0  0
    2.3600   62.1670   73.7510 O   0  0  0  0  0  0  0  0  0  0  0  0
    0.5410   63.5870   73.4990 N   0  0  0  0  0  0  0  0  0  0  0  0
    0.3240   63.9670   74.9130 C   0  0  0  0  0  0  0  0  0  0  0  0
   -0.4850   62.8920   75.6540 C   0  0  0  0  0  0  0  0  0  0  0  0
   -0.4780   65.2810   74.9350 C   0  0  0  0  0  0  0  0  0  0  0  0
    1.6680   64.2010   75.6180 C   0  0  0  0  0  0  0  0  0  0  0  0
    3.4770   59.1190   71.2580 C   0  0  0  0  0  0  0  0  0  0  0  0
    2.9820   58.4750   72.5140 C   0  0  0  0  0  0  0  0  0  0  0  0
    1.9840   57.4920   72.4940 C   0  0  0  0  0  0  0  0  0  0  0  0
    1.5190   56.9590   73.6950 C   0  0  0  0  0  0  0  0  0  0  0  0
    2.0550   57.4350   74.8770 C   0  0  0  0  0  0  0  0  0  0  0  0
    3.0100   58.3880   74.9250 N   0  0  0  0  0  0  0  0  0  0  0  0
    3.4730   58.8640   73.7560 C   0  0  0  0  0  0  0  0  0  0  0  0
    1.4260   66.7740   69.7390 C   0  0  0  0  0  0  0  0  0  0  0  0
    0.9230   67.0920   68.3080 C   0  0  2  0  0  0  0  0  0  0  0  0
    1.4570   68.4640   67.8850 C   0  0  0  0  0  0  0  0  0  0  0  0
    0.9630   69.5040   68.3090 O   0  0  0  0  0  0  0  0  0  0  0  0
    2.5240   68.4200   67.0310 N   0  0  0  0  0  0  0  0  0  0  0  0
    3.1230   69.6190   66.4610 C   0  0  2  0  0  0  0  0  0  0  0  0
    3.7240   69.3230   65.0500 C   0  0  1  0  0  0  0  0  0  0  0  0
    5.2290   69.0510   65.2430 C   0  0  0  0  0  0  0  0  0  0  0  0
    5.5190   69.7380   66.5370 C   0  0  0  0  0  0  0  0  0  0  0  0
    4.3420   70.0560   67.2230 C   0  0  0  0  0  0  0  0  0  0  0  0
    4.3920   70.6940   68.4530 C   0  0  0  0  0  0  0  0  0  0  0  0
    5.6400   71.0090   68.9940 C   0  0  0  0  0  0  0  0  0  0  0  0
    6.8170   70.6800   68.3060 C   0  0  0  0  0  0  0  0  0  0  0  0
    6.7620   70.0370   67.0700 C   0  0  0  0  0  0  0  0  0  0  0  0
    3.0860   68.1830   64.4520 O   0  0  0  0  0  0  0  0  0  0  0  0
   -0.5920   66.9690   68.0440 C   0  0  0  0  0  0  0  0  0  0  0  0
   -1.2170   67.7180   66.8860 C   0  0  0  0  0  0  0  0  0  0  0  0
   -0.5130   68.0820   65.7330 C   0  0  0  0  0  0  0  0  0  0  0  0
   -1.1500   68.7630   64.6920 C   0  0  0  0  0  0  0  0  0  0  0  0
   -2.5070   69.0660   64.7740 C   0  0  0  0  0  0  0  0  0  0  0  0
   -3.2340   68.6710   65.8930 C   0  0  0  0  0  0  0  0  0  0  0  0
   -2.5970   67.9940   66.9330 C   0  0  0  0  0  0  0  0  0  0  0  0
    1.2852   64.7001   69.3497 H   0  0  0  0  0  0  0  0  0  0  0  0
    0.5177   65.1780   72.0445 H   0  0  0  0  0  0  0  0  0  0  0  0
    3.5168   65.3317   70.4722 H   0  0  0  0  0  0  0  0  0  0  0  0
    2.5519   65.2433   72.0267 H   0  0  0  0  0  0  0  0  0  0  0  0
    3.5418   63.2723   71.8109 H   0  0  0  0  0  0  0  0  0  0  0  0
    2.7694   62.6850   69.0253 H   0  0  0  0  0  0  0  0  0  0  0  0
    4.3468   63.4077   69.5304 H   0  0  0  0  0  0  0  0  0  0  0  0
    4.0143   60.7313   69.2403 H   0  0  0  0  0  0  0  0  0  0  0  0
    5.1031   61.4628   70.5024 H   0  0  0  0  0  0  0  0  0  0  0  0
    3.6814   60.9723   72.1520 H   0  0  0  0  0  0  0  0  0  0  0  0
    1.3652   60.7800   70.2960 H   0  0  0  0  0  0  0  0  0  0  0  0
    1.3068   60.4666   72.0802 H   0  0  0  0  0  0  0  0  0  0  0  0
    0.7199   62.9173   71.0195 H   0  0  0  0  0  0  0  0  0  0  0  0
   -0.0840   64.0014   72.7929 H   0  0  0  0  0  0  0  0  0  0  0  0
   -0.3773   63.0351   76.7393 H   0  0  0  0  0  0  0  0  0  0  0  0
   -1.5462   62.9755   75.3767 H   0  0  0  0  0  0  0  0  0  0  0  0
   -0.1109   61.8954   75.3767 H   0  0  0  0  0  0  0  0  0  0  0  0
   -0.6613   65.5813   75.9772 H   0  0  0  0  0  0  0  0  0  0  0  0
    0.0938   66.0682   74.4217 H   0  0  0  0  0  0  0  0  0  0  0  0
   -1.4395   65.1324   74.4217 H   0  0  0  0  0  0  0  0  0  0  0  0
    1.5198   64.1752   76.7077 H   0  0  0  0  0  0  0  0  0  0  0  0
    2.3775   63.4129   75.3257 H   0  0  0  0  0  0  0  0  0  0  0  0
    2.0694   65.1825   75.3257 H   0  0  0  0  0  0  0  0  0  0  0  0
    2.9282   58.6957   70.4038 H   0  0  0  0  0  0  0  0  0  0  0  0
    4.5562   58.9204   71.1817 H   0  0  0  0  0  0  0  0  0  0  0  0
    1.5700   57.1430   71.5365 H   0  0  0  0  0  0  0  0  0  0  0  0
    0.7441   56.1783   73.7021 H   0  0  0  0  0  0  0  0  0  0  0  0
    1.6853   57.0168   75.8248 H   0  0  0  0  0  0  0  0  0  0  0  0
    4.2868   59.6035   73.7833 H   0  0  0  0  0  0  0  0  0  0  0  0
    0.8262   67.3815   70.4327 H   0  0  0  0  0  0  0  0  0  0  0  0
    2.5027   66.9943   69.6923 H   0  0  0  0  0  0  0  0  0  0  0  0
    1.3305   66.2862   67.6799 H   0  0  0  0  0  0  0  0  0  0  0  0
    2.9198   67.5026   66.7809 H   0  0  0  0  0  0  0  0  0  0  0  0
    2.3134   70.3637   66.4660 H   0  0  0  0  0  0  0  0  0  0  0  0
    3.5622   70.1790   64.3784 H   0  0  0  0  0  0  0  0  0  0  0  0
    5.4323   67.9721   65.3116 H   0  0  0  0  0  0  0  0  0  0  0  0
    5.8496   69.4087   64.4082 H   0  0  0  0  0  0  0  0  0  0  0  0
    3.4670   70.9469   68.9918 H   0  0  0  0  0  0  0  0  0  0  0  0
    5.7005   71.5189   69.9668 H   0  0  0  0  0  0  0  0  0  0  0  0
    7.7933   70.9317   68.7459 H   0  0  0  0  0  0  0  0  0  0  0  0
    7.6839   69.7734   66.5310 H   0  0  0  0  0  0  0  0  0  0  0  0
    2.7497   67.5822   65.1633 H   0  0  0  0  0  0  0  0  0  0  0  0
   -0.8017   65.9012   67.8830 H   0  0  0  0  0  0  0  0  0  0  0  0
   -1.0443   67.4424   68.9279 H   0  0  0  0  0  0  0  0  0  0  0  0
    0.5539   67.8293   65.6448 H   0  0  0  0  0  0  0  0  0  0  0  0
   -0.5761   69.0616   63.8023 H   0  0  0  0  0  0  0  0  0  0  0  0
   -3.0014   69.6145   63.9587 H   0  0  0  0  0  0  0  0  0  0  0  0
   -4.3096   68.8924   65.9573 H   0  0  0  0  0  0  0  0  0  0  0  0
   -3.1832   67.6699   67.8055 H   0  0  0  0  0  0  0  0  0  0  0  0
  2  1  1  0
  3  1  1  0
  4  3  1  0
  5  4  1  0
  6  5  1  0
  7  6  1  0
  8  7  1  0
  9  8  1  0
  9  4  1  0
 10  9  1  0
 11 10  2  0
 12 10  1  0
 13 12  1  0
 14 13  1  0
 15 13  1  0
 16 13  1  0
 17  7  1  0
 18 17  1  0
 19 18  2  0
 20 19  1  0
 21 20  2  0
 22 21  1  0
 23 22  2  0
 23 18  1  0
 24  1  1  0
 25 24  1  0
 26 25  1  0
 27 26  2  0
 28 26  1  0
 29 28  1  0
 30 29  1  0
 31 30  1  0
 32 31  1  0
 33 32  2  0
 33 29  1  0
 34 33  1  0
 35 34  2  0
 36 35  1  0
 37 36  2  0
 37 32  1  0
 38 30  1  0
 39 25  1  0
 40 39  1  0
 41 40  2  0
 42 41  1  0
 43 42  2  0
 44 43  1  0
 45 44  2  0
 45 40  1  0
  1 46  1  6
  2 47  1  0
  3 48  1  0
  3 49  1  0
  4 50  1  1
  5 51  1  0
  5 52  1  0
  6 53  1  0
  6 54  1  0
  7 55  1  1
  8 56  1  0
  8 57  1  0
  9 58  1  6
 12 59  1  0
 14 60  1  0
 14 61  1  0
 14 62  1  0
 15 63  1  0
 15 64  1  0
 15 65  1  0
 16 66  1  0
 16 67  1  0
 16 68  1  0
 17 69  1  0
 17 70  1  0
 19 71  1  0
 20 72  1  0
 21 73  1  0
 23 74  1  0
 24 75  1  0
 24 76  1  0
 25 77  1  6
 28 78  1  0
 29 79  1  6
 30 80  1  6
 31 81  1  0
 31 82  1  0
 34 83  1  0
 35 84  1  0
 36 85  1  0
 37 86  1  0
 38 87  1  0
 39 88  1  0
 39 89  1  0
 41 90  1  0
 42 91  1  0
 43 92  1  0
 44 93  1  0
 45 94  1  0
M  CHG  2   4   1   7   1
M  END
>  <score>  (5) 
-9.949

$$$$
=
     RDKit          3D

 94 98  0  0  0  0  0  0  0  0999 V2000
    0.2260   62.8150   72.2550 C   0  0  2  0  0  0  0  0  0  0  0  0
   -1.0680   62.2210   72.4170 O   0  0  0  0  0  0  0  0  0  0  0  0
    0.5410   63.7040   73.4740 C   0  0  0  0  0  0  0  0  0  0  0  0
   -0.0280   63.1750   74.8000 N   0  0  2  0  0  4  0  0  0  0  0  0
   -0.7670   64.2030   75.6300 C   0  0  0  0  0  0  0  0  0  0  0  0
   -1.6680   63.5120   76.6960 C   0  0  0  0  0  0  0  0  0  0  0  0
   -1.1240   62.1440   77.1330 N   0  0  1  0  0  4  0  0  0  0  0  0
    0.4010   62.0840   77.0940 C   0  0  0  0  0  0  0  0  0  0  0  0
    0.9500   62.2990   75.6440 C   0  0  1  0  0  0  0  0  0  0  0  0
    1.0330   60.9230   74.9900 C   0  0  0  0  0  0  0  0  0  0  0  0
   -0.0280   60.3370   74.7740 O   0  0  0  0  0  0  0  0  0  0  0  0
    2.2800   60.5190   74.6000 N   0  0  0  0  0  0  0  0  0  0  0  0
    2.5750   59.2650   73.8720 C   0  0  0  0  0  0  0  0  0  0  0  0
    2.0970   58.0410   74.6670 C   0  0  0  0  0  0  0  0  0  0  0  0
    4.1010   59.1650   73.6950 C   0  0  0  0  0  0  0  0  0  0  0  0
    1.9200   59.2840   72.4840 C   0  0  0  0  0  0  0  0  0  0  0  0
   -1.6860   61.6840   78.4770 C   0  0  0  0  0  0  0  0  0  0  0  0
   -2.4020   60.3750   78.3780 C   0  0  0  0  0  0  0  0  0  0  0  0
   -2.6850   59.7800   77.1410 C   0  0  0  0  0  0  0  0  0  0  0  0
   -3.4000   58.5860   77.0990 C   0  0  0  0  0  0  0  0  0  0  0  0
   -3.8240   58.0300   78.2920 C   0  0  0  0  0  0  0  0  0  0  0  0
   -3.5740   58.5870   79.4960 N   0  0  0  0  0  0  0  0  0  0  0  0
   -2.8510   59.7200   79.5200 C   0  0  0  0  0  0  0  0  0  0  0  0
    0.3230   63.5570   70.9160 C   0  0  0  0  0  0  0  0  0  0  0  0
    1.4460   64.6050   70.7120 C   0  0  2  0  0  0  0  0  0  0  0  0
    0.8150   65.9420   70.3150 C   0  0  0  0  0  0  0  0  0  0  0  0
   -0.0470   66.4770   71.0050 O   0  0  0  0  0  0  0  0  0  0  0  0
    1.3080   66.4830   69.1590 N   0  0  0  0  0  0  0  0  0  0  0  0
    0.7830   67.7130   68.5810 C   0  0  2  0  0  0  0  0  0  0  0  0
   -0.4910   67.4240   67.7260 C   0  0  1  0  0  0  0  0  0  0  0  0
   -0.0380   67.3060   66.2570 C   0  0  0  0  0  0  0  0  0  0  0  0
    1.2480   68.0640   66.2530 C   0  0  0  0  0  0  0  0  0  0  0  0
    1.7130   68.2920   67.5530 C   0  0  0  0  0  0  0  0  0  0  0  0
    2.9000   68.9760   67.7690 C   0  0  0  0  0  0  0  0  0  0  0  0
    3.6220   69.4300   66.6640 C   0  0  0  0  0  0  0  0  0  0  0  0
    3.1570   69.1910   65.3620 C   0  0  0  0  0  0  0  0  0  0  0  0
    1.9640   68.5000   65.1500 C   0  0  0  0  0  0  0  0  0  0  0  0
   -1.1260   66.2070   68.1490 O   0  0  0  0  0  0  0  0  0  0  0  0
    2.6070   64.2260   69.7680 C   0  0  0  0  0  0  0  0  0  0  0  0
    3.3510   62.9230   69.9750 C   0  0  0  0  0  0  0  0  0  0  0  0
    3.0520   61.7460   69.2810 C   0  0  0  0  0  0  0  0  0  0  0  0
    3.7830   60.5770   69.5070 C   0  0  0  0  0  0  0  0  0  0  0  0
    4.8430   60.5740   70.4100 C   0  0  0  0  0  0  0  0  0  0  0  0
    5.1850   61.7460   71.0760 C   0  0  0  0  0  0  0  0  0  0  0  0
    4.4520   62.9130   70.8510 C   0  0  0  0  0  0  0  0  0  0  0  0
    0.9969   62.0312   72.2174 H   0  0  0  0  0  0  0  0  0  0  0  0
   -1.2701   62.1282   73.3817 H   0  0  0  0  0  0  0  0  0  0  0  0
    1.6339   63.7801   73.5729 H   0  0  0  0  0  0  0  0  0  0  0  0
    0.0625   64.6771   73.2892 H   0  0  0  0  0  0  0  0  0  0  0  0
   -0.7522   62.5172   74.4780 H   0  0  0  0  0  0  0  0  0  0  0  0
   -0.0358   64.8477   76.1396 H   0  0  0  0  0  0  0  0  0  0  0  0
   -1.4061   64.8001   74.9629 H   0  0  0  0  0  0  0  0  0  0  0  0
   -1.7317   64.1642   77.5795 H   0  0  0  0  0  0  0  0  0  0  0  0
   -2.6557   63.3474   76.2407 H   0  0  0  0  0  0  0  0  0  0  0  0
   -1.4638   61.4684   76.4337 H   0  0  0  0  0  0  0  0  0  0  0  0
    0.8059   62.8695   77.7490 H   0  0  0  0  0  0  0  0  0  0  0  0
    0.7146   61.0866   77.4359 H   0  0  0  0  0  0  0  0  0  0  0  0
    1.9260   62.8044   75.6895 H   0  0  0  0  0  0  0  0  0  0  0  0
    3.0736   61.1339   74.8304 H   0  0  0  0  0  0  0  0  0  0  0  0
    2.1782   58.2488   75.7441 H   0  0  0  0  0  0  0  0  0  0  0  0
    1.0486   57.8255   74.4131 H   0  0  0  0  0  0  0  0  0  0  0  0
    2.7218   57.1720   74.4131 H   0  0  0  0  0  0  0  0  0  0  0  0
    4.5834   59.1334   74.6831 H   0  0  0  0  0  0  0  0  0  0  0  0
    4.3462   58.2489   73.1377 H   0  0  0  0  0  0  0  0  0  0  0  0
    4.4637   60.0413   73.1377 H   0  0  0  0  0  0  0  0  0  0  0  0
    0.8261   59.3157   72.5952 H   0  0  0  0  0  0  0  0  0  0  0  0
    2.2583   60.1727   71.9310 H   0  0  0  0  0  0  0  0  0  0  0  0
    2.2062   58.3772   71.9310 H   0  0  0  0  0  0  0  0  0  0  0  0
   -0.8550   61.5790   79.1900 H   0  0  0  0  0  0  0  0  0  0  0  0
   -2.4124   62.4388   78.8126 H   0  0  0  0  0  0  0  0  0  0  0  0
   -2.3442   60.2537   76.2085 H   0  0  0  0  0  0  0  0  0  0  0  0
   -3.6224   58.0965   76.1393 H   0  0  0  0  0  0  0  0  0  0  0  0
   -4.3922   57.0887   78.2583 H   0  0  0  0  0  0  0  0  0  0  0  0
   -2.6000   60.1541   80.4991 H   0  0  0  0  0  0  0  0  0  0  0  0
    0.4498   62.7938   70.1341 H   0  0  0  0  0  0  0  0  0  0  0  0
   -0.6008   64.1531   70.8798 H   0  0  0  0  0  0  0  0  0  0  0  0
    1.9530   64.6689   71.6861 H   0  0  0  0  0  0  0  0  0  0  0  0
    2.0812   66.0014   68.6782 H   0  0  0  0  0  0  0  0  0  0  0  0
    0.6146   68.3767   69.4419 H   0  0  0  0  0  0  0  0  0  0  0  0
   -1.2241   68.2350   67.8475 H   0  0  0  0  0  0  0  0  0  0  0  0
    0.1192   66.2550   65.9728 H   0  0  0  0  0  0  0  0  0  0  0  0
   -0.7762   67.6915   65.5384 H   0  0  0  0  0  0  0  0  0  0  0  0
    3.2652   69.1571   68.7907 H   0  0  0  0  0  0  0  0  0  0  0  0
    4.5629   69.9794   66.8152 H   0  0  0  0  0  0  0  0  0  0  0  0
    3.7384   69.5518   64.5007 H   0  0  0  0  0  0  0  0  0  0  0  0
    1.6000   68.3057   64.1303 H   0  0  0  0  0  0  0  0  0  0  0  0
   -1.1447   66.1711   69.1382 H   0  0  0  0  0  0  0  0  0  0  0  0
    2.1929   64.1979   68.7493 H   0  0  0  0  0  0  0  0  0  0  0  0
    3.3684   64.9909   69.9805 H   0  0  0  0  0  0  0  0  0  0  0  0
    2.2314   61.7407   68.5484 H   0  0  0  0  0  0  0  0  0  0  0  0
    3.5199   59.6544   68.9689 H   0  0  0  0  0  0  0  0  0  0  0  0
    5.4076   59.6484   70.5958 H   0  0  0  0  0  0  0  0  0  0  0  0
    6.0313   61.7537   71.7787 H   0  0  0  0  0  0  0  0  0  0  0  0
    4.7403   63.8404   71.3675 H   0  0  0  0  0  0  0  0  0  0  0  0
  2  1  1  0
  3  1  1  0
  4  3  1  0
  5  4  1  0
  6  5  1  0
  7  6  1  0
  8  7  1  0
  9  8  1  0
  9  4  1  0
 10  9  1  0
 11 10  2  0
 12 10  1  0
 13 12  1  0
 14 13  1  0
 15 13  1  0
 16 13  1  0
 17  7  1  0
 18 17  1  0
 19 18  2  0
 20 19  1  0
 21 20  2  0
 22 21  1  0
 23 22  2  0
 23 18  1  0
 24  1  1  0
 25 24  1  0
 26 25  1  0
 27 26  2  0
 28 26  1  0
 29 28  1  0
 30 29  1  0
 31 30  1  0
 32 31  1  0
 33 32  2  0
 33 29  1  0
 34 33  1  0
 35 34  2  0
 36 35  1  0
 37 36  2  0
 37 32  1  0
 38 30  1  0
 39 25  1  0
 40 39  1  0
 41 40  2  0
 42 41  1  0
 43 42  2  0
 44 43  1  0
 45 44  2  0
 45 40  1  0
  1 46  1  6
  2 47  1  0
  3 48  1  0
  3 49  1  0
  4 50  1  6
  5 51  1  0
  5 52  1  0
  6 53  1  0
  6 54  1  0
  7 55  1  6
  8 56  1  0
  8 57  1  0
  9 58  1  1
 12 59  1  0
 14 60  1  0
 14 61  1  0
 14 62  1  0
 15 63  1  0
 15 64  1  0
 15 65  1  0
 16 66  1  0
 16 67  1  0
 16 68  1  0
 17 69  1  0
 17 70  1  0
 19 71  1  0
 20 72  1  0
 21 73  1  0
 23 74  1  0
 24 75  1  0
 24 76  1  0
 25 77  1  1
 28 78  1  0
 29 79  1  1
 30 80  1  6
 31 81  1  0
 31 82  1  0
 34 83  1  0
 35 84  1  0
 36 85  1  0
 37 86  1  0
 38 87  1  0
 39 88  1  0
 39 89  1  0
 41 90  1  0
 42 91  1  0
 43 92  1  0
 44 93  1  0
 45 94  1  0
M  CHG  2   4   1   7   1
M  END
>  <score>  (6) 
-9.916

$$$$
=
     RDKit          3D

 94 98  0  0  0  0  0  0  0  0999 V2000
    0.4610   63.7480   72.5430 C   0  0  2  0  0  0  0  0  0  0  0  0
   -0.6530   62.8640   72.3640 O   0  0  0  0  0  0  0  0  0  0  0  0
    0.6650   64.0220   74.0470 C   0  0  0  0  0  0  0  0  0  0  0  0
   -0.2110   63.1550   74.9660 N   0  0  2  0  0  4  0  0  0  0  0  0
   -1.1550   63.9300   75.8600 C   0  0  0  0  0  0  0  0  0  0  0  0
   -2.2830   63.0080   76.4090 C   0  0  0  0  0  0  0  0  0  0  0  0
   -1.8420   61.5430   76.5300 N   0  0  1  0  0  4  0  0  0  0  0  0
   -0.3560   61.4050   76.8510 C   0  0  0  0  0  0  0  0  0  0  0  0
    0.5380   62.0110   75.7180 C   0  0  1  0  0  0  0  0  0  0  0  0
    0.8090   60.8900   74.7190 C   0  0  0  0  0  0  0  0  0  0  0  0
   -0.1600   60.4140   74.1290 O   0  0  0  0  0  0  0  0  0  0  0  0
    2.1260   60.5980   74.4890 N   0  0  0  0  0  0  0  0  0  0  0  0
    2.6140   59.6130   73.4990 C   0  0  0  0  0  0  0  0  0  0  0  0
    1.9940   59.8660   72.1170 C   0  0  0  0  0  0  0  0  0  0  0  0
    2.1910   58.2110   73.9730 C   0  0  0  0  0  0  0  0  0  0  0  0
    4.1460   59.6580   73.4090 C   0  0  0  0  0  0  0  0  0  0  0  0
   -2.7170   60.7360   77.4880 C   0  0  0  0  0  0  0  0  0  0  0  0
   -3.8630   60.0730   76.7930 C   0  0  0  0  0  0  0  0  0  0  0  0
   -3.7990   59.7160   75.4400 C   0  0  0  0  0  0  0  0  0  0  0  0
   -4.9120   59.1480   74.8240 C   0  0  0  0  0  0  0  0  0  0  0  0
   -6.0600   58.9690   75.5750 C   0  0  0  0  0  0  0  0  0  0  0  0
   -6.1520   59.3130   76.8770 N   0  0  0  0  0  0  0  0  0  0  0  0
   -5.0560   59.8250   77.4650 C   0  0  0  0  0  0  0  0  0  0  0  0
    0.2860   65.0240   71.7100 C   0  0  0  0  0  0  0  0  0  0  0  0
    1.2590   65.3010   70.5370 C   0  0  2  0  0  0  0  0  0  0  0  0
    0.7750   66.5340   69.7680 C   0  0  0  0  0  0  0  0  0  0  0  0
   -0.4190   66.7610   69.6030 O   0  0  0  0  0  0  0  0  0  0  0  0
    1.7750   67.3510   69.3160 N   0  0  0  0  0  0  0  0  0  0  0  0
    1.5170   68.5320   68.5030 C   0  0  2  0  0  0  0  0  0  0  0  0
    1.1350   68.1280   67.0440 C   0  0  1  0  0  0  0  0  0  0  0  0
    2.4180   68.2170   66.1940 C   0  0  0  0  0  0  0  0  0  0  0  0
    3.2620   69.1640   66.9820 C   0  0  0  0  0  0  0  0  0  0  0  0
    2.7620   69.3410   68.2760 C   0  0  0  0  0  0  0  0  0  0  0  0
    3.4060   70.1790   69.1740 C   0  0  0  0  0  0  0  0  0  0  0  0
    4.5650   70.8390   68.7600 C   0  0  0  0  0  0  0  0  0  0  0  0
    5.0680   70.6520   67.4650 C   0  0  0  0  0  0  0  0  0  0  0  0
    4.4170   69.8060   66.5660 C   0  0  0  0  0  0  0  0  0  0  0  0
    0.6050   66.7930   67.0040 O   0  0  0  0  0  0  0  0  0  0  0  0
    1.5750   64.1300   69.5840 C   0  0  0  0  0  0  0  0  0  0  0  0
    2.7770   63.2470   69.8500 C   0  0  0  0  0  0  0  0  0  0  0  0
    3.7890   63.5750   70.7590 C   0  0  0  0  0  0  0  0  0  0  0  0
    4.8680   62.7120   70.9690 C   0  0  0  0  0  0  0  0  0  0  0  0
    4.9380   61.4960   70.2950 C   0  0  0  0  0  0  0  0  0  0  0  0
    3.9190   61.1310   69.4220 C   0  0  0  0  0  0  0  0  0  0  0  0
    2.8430   61.9950   69.2100 C   0  0  0  0  0  0  0  0  0  0  0  0
    1.3803   63.2722   72.1709 H   0  0  0  0  0  0  0  0  0  0  0  0
   -1.0008   62.5880   73.2489 H   0  0  0  0  0  0  0  0  0  0  0  0
    1.7198   63.8304   74.2933 H   0  0  0  0  0  0  0  0  0  0  0  0
    0.3717   65.0676   74.2222 H   0  0  0  0  0  0  0  0  0  0  0  0
   -0.8170   62.6674   74.2908 H   0  0  0  0  0  0  0  0  0  0  0  0
   -0.5886   64.3484   76.7051 H   0  0  0  0  0  0  0  0  0  0  0  0
   -1.6159   64.7358   75.2698 H   0  0  0  0  0  0  0  0  0  0  0  0
   -2.5803   63.3697   77.4044 H   0  0  0  0  0  0  0  0  0  0  0  0
   -3.1202   63.0459   75.6965 H   0  0  0  0  0  0  0  0  0  0  0  0
   -1.9816   61.1296   75.5970 H   0  0  0  0  0  0  0  0  0  0  0  0
   -0.1440   61.9319   77.7930 H   0  0  0  0  0  0  0  0  0  0  0  0
   -0.1213   60.3339   76.9380 H   0  0  0  0  0  0  0  0  0  0  0  0
    1.4606   62.4216   76.1540 H   0  0  0  0  0  0  0  0  0  0  0  0
    2.8302   61.1017   75.0469 H   0  0  0  0  0  0  0  0  0  0  0  0
    0.9818   60.2790   72.2393 H   0  0  0  0  0  0  0  0  0  0  0  0
    2.6174   60.5817   71.5609 H   0  0  0  0  0  0  0  0  0  0  0  0
    1.9387   58.9185   71.5609 H   0  0  0  0  0  0  0  0  0  0  0  0
    2.1825   58.1828   75.0726 H   0  0  0  0  0  0  0  0  0  0  0  0
    1.1842   57.9836   73.5926 H   0  0  0  0  0  0  0  0  0  0  0  0
    2.9040   57.4647   73.5926 H   0  0  0  0  0  0  0  0  0  0  0  0
    4.5726   59.6705   74.4228 H   0  0  0  0  0  0  0  0  0  0  0  0
    4.5079   58.7701   72.8699 H   0  0  0  0  0  0  0  0  0  0  0  0
    4.4551   60.5656   72.8699 H   0  0  0  0  0  0  0  0  0  0  0  0
   -2.0977   59.9620   77.9649 H   0  0  0  0  0  0  0  0  0  0  0  0
   -3.1332   61.4335   78.2299 H   0  0  0  0  0  0  0  0  0  0  0  0
   -2.8750   59.8832   74.8670 H   0  0  0  0  0  0  0  0  0  0  0  0
   -4.8788   58.8490   73.7659 H   0  0  0  0  0  0  0  0  0  0  0  0
   -6.9404   58.5249   75.0875 H   0  0  0  0  0  0  0  0  0  0  0  0
   -5.1056   60.0611   78.5382 H   0  0  0  0  0  0  0  0  0  0  0  0
   -0.7284   64.9940   71.2856 H   0  0  0  0  0  0  0  0  0  0  0  0
    0.5000   65.8333   72.4236 H   0  0  0  0  0  0  0  0  0  0  0  0
    2.2340   65.4763   71.0152 H   0  0  0  0  0  0  0  0  0  0  0  0
    2.7491   67.1220   69.5603 H   0  0  0  0  0  0  0  0  0  0  0  0
    0.7325   69.0790   69.0465 H   0  0  0  0  0  0  0  0  0  0  0  0
    0.3572   68.8009   66.6538 H   0  0  0  0  0  0  0  0  0  0  0  0
    2.9031   67.2340   66.1022 H   0  0  0  0  0  0  0  0  0  0  0  0
    2.2374   68.5464   65.1601 H   0  0  0  0  0  0  0  0  0  0  0  0
    3.0121   70.3209   70.1912 H   0  0  0  0  0  0  0  0  0  0  0  0
    5.0877   71.5114   69.4561 H   0  0  0  0  0  0  0  0  0  0  0  0
    5.9837   71.1766   67.1547 H   0  0  0  0  0  0  0  0  0  0  0  0
    4.8118   69.6525   65.5508 H   0  0  0  0  0  0  0  0  0  0  0  0
    0.4737   66.4623   67.9278 H   0  0  0  0  0  0  0  0  0  0  0  0
    0.6920   63.4740   69.5815 H   0  0  0  0  0  0  0  0  0  0  0  0
    1.8308   64.6317   68.6391 H   0  0  0  0  0  0  0  0  0  0  0  0
    3.7347   64.5228   71.3146 H   0  0  0  0  0  0  0  0  0  0  0  0
    5.6664   62.9952   71.6707 H   0  0  0  0  0  0  0  0  0  0  0  0
    5.7963   60.8263   70.4524 H   0  0  0  0  0  0  0  0  0  0  0  0
    3.9606   60.1638   68.8997 H   0  0  0  0  0  0  0  0  0  0  0  0
    2.0325   61.6920   68.5308 H   0  0  0  0  0  0  0  0  0  0  0  0
  2  1  1  0
  3  1  1  0
  4  3  1  0
  5  4  1  0
  6  5  1  0
  7  6  1  0
  8  7  1  0
  9  8  1  0
  9  4  1  0
 10  9  1  0
 11 10  2  0
 12 10  1  0
 13 12  1  0
 14 13  1  0
 15 13  1  0
 16 13  1  0
 17  7  1  0
 18 17  1  0
 19 18  2  0
 20 19  1  0
 21 20  2  0
 22 21  1  0
 23 22  2  0
 23 18  1  0
 24  1  1  0
 25 24  1  0
 26 25  1  0
 27 26  2  0
 28 26  1  0
 29 28  1  0
 30 29  1  0
 31 30  1  0
 32 31  1  0
 33 32  2  0
 33 29  1  0
 34 33  1  0
 35 34  2  0
 36 35  1  0
 37 36  2  0
 37 32  1  0
 38 30  1  0
 39 25  1  0
 40 39  1  0
 41 40  2  0
 42 41  1  0
 43 42  2  0
 44 43  1  0
 45 44  2  0
 45 40  1  0
  1 46  1  6
  2 47  1  0
  3 48  1  0
  3 49  1  0
  4 50  1  6
  5 51  1  0
  5 52  1  0
  6 53  1  0
  6 54  1  0
  7 55  1  6
  8 56  1  0
  8 57  1  0
  9 58  1  1
 12 59  1  0
 14 60  1  0
 14 61  1  0
 14 62  1  0
 15 63  1  0
 15 64  1  0
 15 65  1  0
 16 66  1  0
 16 67  1  0
 16 68  1  0
 17 69  1  0
 17 70  1  0
 19 71  1  0
 20 72  1  0
 21 73  1  0
 23 74  1  0
 24 75  1  0
 24 76  1  0
 25 77  1  1
 28 78  1  0
 29 79  1  1
 30 80  1  6
 31 81  1  0
 31 82  1  0
 34 83  1  0
 35 84  1  0
 36 85  1  0
 37 86  1  0
 38 87  1  0
 39 88  1  0
 39 89  1  0
 41 90  1  0
 42 91  1  0
 43 92  1  0
 44 93  1  0
 45 94  1  0
M  CHG  2   4   1   7   1
M  END
>  <score>  (7) 
-9.881

$$$$
=
     RDKit          3D

 94 98  0  0  0  0  0  0  0  0999 V2000
   -1.7990   58.6510   76.9840 C   0  0  2  0  0  0  0  0  0  0  0  0
   -2.6360   57.8920   77.8670 O   0  0  0  0  0  0  0  0  0  0  0  0
   -0.3380   58.1810   77.1300 C   0  0  0  0  0  0  0  0  0  0  0  0
    0.4240   58.0790   75.7990 N   0  0  2  0  0  4  0  0  0  0  0  0
   -0.4410   58.1940   74.5610 C   0  0  0  0  0  0  0  0  0  0  0  0
    0.4240   58.5250   73.3090 C   0  0  0  0  0  0  0  0  0  0  0  0
    1.8590   57.9930   73.4240 N   0  0  1  0  0  4  0  0  0  0  0  0
    1.9400   56.7030   74.2350 C   0  0  0  0  0  0  0  0  0  0  0  0
    1.4630   56.9180   75.7110 C   0  0  1  0  0  0  0  0  0  0  0  0
    2.6910   57.3220   76.5210 C   0  0  0  0  0  0  0  0  0  0  0  0
    3.4030   58.2130   76.0590 O   0  0  0  0  0  0  0  0  0  0  0  0
    2.8200   56.7310   77.7480 N   0  0  0  0  0  0  0  0  0  0  0  0
    3.8820   57.0420   78.7300 C   0  0  0  0  0  0  0  0  0  0  0  0
    5.2730   56.7430   78.1510 C   0  0  0  0  0  0  0  0  0  0  0  0
    3.6660   56.1470   79.9640 C   0  0  0  0  0  0  0  0  0  0  0  0
    3.7940   58.5110   79.1680 C   0  0  0  0  0  0  0  0  0  0  0  0
    2.5570   57.8680   72.0700 C   0  0  0  0  0  0  0  0  0  0  0  0
    3.5240   58.9810   71.8220 C   0  0  0  0  0  0  0  0  0  0  0  0
    4.1050   59.7020   72.8740 C   0  0  0  0  0  0  0  0  0  0  0  0
    4.9610   60.7650   72.5910 C   0  0  0  0  0  0  0  0  0  0  0  0
    5.1970   61.0840   71.2660 C   0  0  0  0  0  0  0  0  0  0  0  0
    4.6430   60.4130   70.2350 N   0  0  0  0  0  0  0  0  0  0  0  0
    3.8500   59.3670   70.5260 C   0  0  0  0  0  0  0  0  0  0  0  0
   -1.9820   60.1560   77.2160 C   0  0  0  0  0  0  0  0  0  0  0  0
   -2.1480   61.0950   75.9960 C   0  0  2  0  0  0  0  0  0  0  0  0
   -0.8080   61.7750   75.7030 C   0  0  0  0  0  0  0  0  0  0  0  0
    0.2520   61.3120   76.1140 O   0  0  0  0  0  0  0  0  0  0  0  0
   -0.8980   62.9050   74.9370 N   0  0  0  0  0  0  0  0  0  0  0  0
    0.2580   63.7300   74.6150 C   0  0  2  0  0  0  0  0  0  0  0  0
   -0.1210   65.2450   74.6240 C   0  0  1  0  0  0  0  0  0  0  0  0
   -0.4150   65.6500   73.1650 C   0  0  0  0  0  0  0  0  0  0  0  0
    0.3300   64.6170   72.3860 C   0  0  0  0  0  0  0  0  0  0  0  0
    0.7050   63.5390   73.1940 C   0  0  0  0  0  0  0  0  0  0  0  0
    1.4030   62.4650   72.6600 C   0  0  0  0  0  0  0  0  0  0  0  0
    1.7180   62.4820   71.2990 C   0  0  0  0  0  0  0  0  0  0  0  0
    1.3310   63.5610   70.4920 C   0  0  0  0  0  0  0  0  0  0  0  0
    0.6280   64.6370   71.0330 C   0  0  0  0  0  0  0  0  0  0  0  0
   -1.2760   65.4790   75.4460 O   0  0  0  0  0  0  0  0  0  0  0  0
   -3.3030   62.1180   76.0390 C   0  0  0  0  0  0  0  0  0  0  0  0
   -4.6190   61.7960   75.3620 C   0  0  0  0  0  0  0  0  0  0  0  0
   -4.8570   60.6070   74.6640 C   0  0  0  0  0  0  0  0  0  0  0  0
   -6.0980   60.3630   74.0700 C   0  0  0  0  0  0  0  0  0  0  0  0
   -7.1300   61.2910   74.1890 C   0  0  0  0  0  0  0  0  0  0  0  0
   -6.9270   62.4580   74.9180 C   0  0  0  0  0  0  0  0  0  0  0  0
   -5.6860   62.7020   75.5080 C   0  0  0  0  0  0  0  0  0  0  0  0
   -2.0955   58.4727   75.9398 H   0  0  0  0  0  0  0  0  0  0  0  0
   -2.4029   58.1034   78.8056 H   0  0  0  0  0  0  0  0  0  0  0  0
    0.1917   58.8953   77.7775 H   0  0  0  0  0  0  0  0  0  0  0  0
   -0.3718   57.1669   77.5549 H   0  0  0  0  0  0  0  0  0  0  0  0
    0.9952   58.9360   75.8101 H   0  0  0  0  0  0  0  0  0  0  0  0
   -0.9631   57.2399   74.3963 H   0  0  0  0  0  0  0  0  0  0  0  0
   -1.1663   59.0070   74.7127 H   0  0  0  0  0  0  0  0  0  0  0  0
   -0.0492   58.0732   72.4247 H   0  0  0  0  0  0  0  0  0  0  0  0
    0.4811   59.6202   73.2243 H   0  0  0  0  0  0  0  0  0  0  0  0
    2.3817   58.7066   73.9517 H   0  0  0  0  0  0  0  0  0  0  0  0
    1.3018   55.9428   73.7609 H   0  0  0  0  0  0  0  0  0  0  0  0
    2.9902   56.3765   74.2573 H   0  0  0  0  0  0  0  0  0  0  0  0
    0.9939   55.9966   76.0865 H   0  0  0  0  0  0  0  0  0  0  0  0
    2.1257   56.0159   78.0077 H   0  0  0  0  0  0  0  0  0  0  0  0
    5.9872   56.5895   78.9734 H   0  0  0  0  0  0  0  0  0  0  0  0
    5.2252   55.8346   77.5325 H   0  0  0  0  0  0  0  0  0  0  0  0
    5.6027   57.5908   77.5325 H   0  0  0  0  0  0  0  0  0  0  0  0
    3.8096   56.7419   80.8781 H   0  0  0  0  0  0  0  0  0  0  0  0
    2.6440   55.7405   79.9478 H   0  0  0  0  0  0  0  0  0  0  0  0
    4.3901   55.3191   79.9478 H   0  0  0  0  0  0  0  0  0  0  0  0
    3.7907   58.5665   80.2666 H   0  0  0  0  0  0  0  0  0  0  0  0
    4.6607   59.0632   78.7756 H   0  0  0  0  0  0  0  0  0  0  0  0
    2.8676   58.9558   78.7756 H   0  0  0  0  0  0  0  0  0  0  0  0
    3.1024   56.9132   72.0406 H   0  0  0  0  0  0  0  0  0  0  0  0
    1.7841   57.9151   71.2888 H   0  0  0  0  0  0  0  0  0  0  0  0
    3.8867   59.4305   73.9174 H   0  0  0  0  0  0  0  0  0  0  0  0
    5.4372   61.3362   73.4015 H   0  0  0  0  0  0  0  0  0  0  0  0
    5.8690   61.9256   71.0420 H   0  0  0  0  0  0  0  0  0  0  0  0
    3.4352   58.7829   69.6913 H   0  0  0  0  0  0  0  0  0  0  0  0
   -2.8799   60.2779   77.8396 H   0  0  0  0  0  0  0  0  0  0  0  0
   -1.0253   60.4701   77.6588 H   0  0  0  0  0  0  0  0  0  0  0  0
   -2.4569   60.4347   75.1723 H   0  0  0  0  0  0  0  0  0  0  0  0
   -1.8206   63.1834   74.5734 H   0  0  0  0  0  0  0  0  0  0  0  0
    1.0193   63.4452   75.3561 H   0  0  0  0  0  0  0  0  0  0  0  0
    0.7035   65.8424   75.0403 H   0  0  0  0  0  0  0  0  0  0  0  0
   -1.4931   65.6086   72.9506 H   0  0  0  0  0  0  0  0  0  0  0  0
   -0.1132   66.6807   72.9269 H   0  0  0  0  0  0  0  0  0  0  0  0
    1.7020   61.6180   73.2950 H   0  0  0  0  0  0  0  0  0  0  0  0
    2.2741   61.6421   70.8571 H   0  0  0  0  0  0  0  0  0  0  0  0
    1.5843   63.5589   69.4216 H   0  0  0  0  0  0  0  0  0  0  0  0
    0.3174   65.4817   70.4005 H   0  0  0  0  0  0  0  0  0  0  0  0
   -1.0179   65.4267   76.4003 H   0  0  0  0  0  0  0  0  0  0  0  0
   -3.5271   62.3010   77.1003 H   0  0  0  0  0  0  0  0  0  0  0  0
   -2.9155   62.9650   75.4538 H   0  0  0  0  0  0  0  0  0  0  0  0
   -4.0579   59.8556   74.5819 H   0  0  0  0  0  0  0  0  0  0  0  0
   -6.2609   59.4331   73.5054 H   0  0  0  0  0  0  0  0  0  0  0  0
   -8.1012   61.1017   73.7085 H   0  0  0  0  0  0  0  0  0  0  0  0
   -7.7430   63.1872   75.0293 H   0  0  0  0  0  0  0  0  0  0  0  0
   -5.5392   63.6189   76.0977 H   0  0  0  0  0  0  0  0  0  0  0  0
  2  1  1  0
  3  1  1  0
  4  3  1  0
  5  4  1  0
  6  5  1  0
  7  6  1  0
  8  7  1  0
  9  8  1  0
  9  4  1  0
 10  9  1  0
 11 10  2  0
 12 10  1  0
 13 12  1  0
 14 13  1  0
 15 13  1  0
 16 13  1  0
 17  7  1  0
 18 17  1  0
 19 18  2  0
 20 19  1  0
 21 20  2  0
 22 21  1  0
 23 22  2  0
 23 18  1  0
 24  1  1  0
 25 24  1  0
 26 25  1  0
 27 26  2  0
 28 26  1  0
 29 28  1  0
 30 29  1  0
 31 30  1  0
 32 31  1  0
 33 32  2  0
 33 29  1  0
 34 33  1  0
 35 34  2  0
 36 35  1  0
 37 36  2  0
 37 32  1  0
 38 30  1  0
 39 25  1  0
 40 39  1  0
 41 40  2  0
 42 41  1  0
 43 42  2  0
 44 43  1  0
 45 44  2  0
 45 40  1  0
  1 46  1  6
  2 47  1  0
  3 48  1  0
  3 49  1  0
  4 50  1  6
  5 51  1  0
  5 52  1  0
  6 53  1  0
  6 54  1  0
  7 55  1  1
  8 56  1  0
  8 57  1  0
  9 58  1  1
 12 59  1  0
 14 60  1  0
 14 61  1  0
 14 62  1  0
 15 63  1  0
 15 64  1  0
 15 65  1  0
 16 66  1  0
 16 67  1  0
 16 68  1  0
 17 69  1  0
 17 70  1  0
 19 71  1  0
 20 72  1  0
 21 73  1  0
 23 74  1  0
 24 75  1  0
 24 76  1  0
 25 77  1  6
 28 78  1  0
 29 79  1  1
 30 80  1  1
 31 81  1  0
 31 82  1  0
 34 83  1  0
 35 84  1  0
 36 85  1  0
 37 86  1  0
 38 87  1  0
 39 88  1  0
 39 89  1  0
 41 90  1  0
 42 91  1  0
 43 92  1  0
 44 93  1  0
 45 94  1  0
M  CHG  2   4   1   7   1
M  END
>  <score>  (8) 
-8.823

$$$$
=
     RDKit          3D

 94 98  0  0  0  0  0  0  0  0999 V2000
   -1.6300   62.9510   75.6690 C   0  0  2  0  0  0  0  0  0  0  0  0
   -0.7170   63.7290   74.8840 O   0  0  0  0  0  0  0  0  0  0  0  0
   -2.2700   63.8440   76.7500 C   0  0  0  0  0  0  0  0  0  0  0  0
   -3.6390   64.4220   76.3560 N   0  0  2  0  0  4  0  0  0  0  0  0
   -3.7310   65.9320   76.4070 C   0  0  0  0  0  0  0  0  0  0  0  0
   -4.9550   66.4420   75.5900 C   0  0  0  0  0  0  0  0  0  0  0  0
   -6.0970   65.4180   75.5350 N   0  0  1  0  0  4  0  0  0  0  0  0
   -6.1740   64.5610   76.7960 C   0  0  0  0  0  0  0  0  0  0  0  0
   -4.8730   63.7140   76.9980 C   0  0  1  0  0  0  0  0  0  0  0  0
   -5.0870   62.3890   76.2720 C   0  0  0  0  0  0  0  0  0  0  0  0
   -5.6370   62.4320   75.1720 O   0  0  0  0  0  0  0  0  0  0  0  0
   -4.5410   61.2850   76.8660 N   0  0  0  0  0  0  0  0  0  0  0  0
   -4.5540   59.9210   76.2930 C   0  0  0  0  0  0  0  0  0  0  0  0
   -4.2470   59.9540   74.7880 C   0  0  0  0  0  0  0  0  0  0  0  0
   -5.9630   59.3350   76.4900 C   0  0  0  0  0  0  0  0  0  0  0  0
   -3.5430   59.0240   77.0210 C   0  0  0  0  0  0  0  0  0  0  0  0
   -7.4440   66.0490   75.1820 C   0  0  0  0  0  0  0  0  0  0  0  0
   -7.9850   65.5490   73.8810 C   0  0  0  0  0  0  0  0  0  0  0  0
   -8.2210   64.1870   73.6550 C   0  0  0  0  0  0  0  0  0  0  0  0
   -8.6760   63.7650   72.4070 C   0  0  0  0  0  0  0  0  0  0  0  0
   -8.8660   64.7150   71.4200 C   0  0  0  0  0  0  0  0  0  0  0  0
   -8.6370   66.0310   71.6090 N   0  0  0  0  0  0  0  0  0  0  0  0
   -8.2340   66.4250   72.8300 C   0  0  0  0  0  0  0  0  0  0  0  0
   -0.9390   61.7060   76.2370 C   0  0  0  0  0  0  0  0  0  0  0  0
   -0.0090   60.8710   75.3210 C   0  0  2  0  0  0  0  0  0  0  0  0
    1.0850   61.7820   74.7580 C   0  0  0  0  0  0  0  0  0  0  0  0
    1.9280   62.3000   75.4840 O   0  0  0  0  0  0  0  0  0  0  0  0
    1.0510   61.9400   73.4000 N   0  0  0  0  0  0  0  0  0  0  0  0
    1.9630   62.8250   72.6880 C   0  0  2  0  0  0  0  0  0  0  0  0
    1.1760   63.8040   71.7610 C   0  0  1  0  0  0  0  0  0  0  0  0
    1.1770   63.1920   70.3460 C   0  0  0  0  0  0  0  0  0  0  0  0
    2.3660   62.2910   70.3840 C   0  0  0  0  0  0  0  0  0  0  0  0
    2.8080   62.0810   71.6940 C   0  0  0  0  0  0  0  0  0  0  0  0
    3.9010   61.2660   71.9500 C   0  0  0  0  0  0  0  0  0  0  0  0
    4.5470   60.6570   70.8730 C   0  0  0  0  0  0  0  0  0  0  0  0
    4.0960   60.8630   69.5610 C   0  0  0  0  0  0  0  0  0  0  0  0
    2.9950   61.6820   69.3100 C   0  0  0  0  0  0  0  0  0  0  0  0
   -0.1730   63.9770   72.2260 O   0  0  0  0  0  0  0  0  0  0  0  0
   -0.6740   60.0330   74.2090 C   0  0  0  0  0  0  0  0  0  0  0  0
   -0.2060   58.6160   73.9540 C   0  0  0  0  0  0  0  0  0  0  0  0
   -0.9450   57.4830   74.3120 C   0  0  0  0  0  0  0  0  0  0  0  0
   -0.4650   56.2000   74.0380 C   0  0  0  0  0  0  0  0  0  0  0  0
    0.7480   56.0280   73.3760 C   0  0  0  0  0  0  0  0  0  0  0  0
    1.4760   57.1430   72.9710 C   0  0  0  0  0  0  0  0  0  0  0  0
    0.9970   58.4240   73.2470 C   0  0  0  0  0  0  0  0  0  0  0  0
   -2.4453   62.5752   75.0333 H   0  0  0  0  0  0  0  0  0  0  0  0
   -0.1178   64.2396   75.4843 H   0  0  0  0  0  0  0  0  0  0  0  0
   -2.3981   63.2437   77.6628 H   0  0  0  0  0  0  0  0  0  0  0  0
   -1.5942   64.6996   76.8960 H   0  0  0  0  0  0  0  0  0  0  0  0
   -3.6948   64.1824   75.3558 H   0  0  0  0  0  0  0  0  0  0  0  0
   -3.8387   66.2511   77.4542 H   0  0  0  0  0  0  0  0  0  0  0  0
   -2.8150   66.3550   75.9688 H   0  0  0  0  0  0  0  0  0  0  0  0
   -5.3310   67.3640   76.0575 H   0  0  0  0  0  0  0  0  0  0  0  0
   -4.6164   66.6186   74.5584 H   0  0  0  0  0  0  0  0  0  0  0  0
   -5.8665   64.7806   74.7594 H   0  0  0  0  0  0  0  0  0  0  0  0
   -6.3103   65.2190   77.6669 H   0  0  0  0  0  0  0  0  0  0  0  0
   -7.0221   63.8686   76.6899 H   0  0  0  0  0  0  0  0  0  0  0  0
   -4.6819   63.5804   78.0730 H   0  0  0  0  0  0  0  0  0  0  0  0
   -4.0864   61.4126   77.7814 H   0  0  0  0  0  0  0  0  0  0  0  0
   -3.1636   60.0705   74.6372 H   0  0  0  0  0  0  0  0  0  0  0  0
   -4.5828   59.0146   74.3246 H   0  0  0  0  0  0  0  0  0  0  0  0
   -4.7748   60.8006   74.3246 H   0  0  0  0  0  0  0  0  0  0  0  0
   -6.1762   59.2463   77.5655 H   0  0  0  0  0  0  0  0  0  0  0  0
   -6.7050   59.9991   76.0227 H   0  0  0  0  0  0  0  0  0  0  0  0
   -6.0152   58.3406   76.0227 H   0  0  0  0  0  0  0  0  0  0  0  0
   -3.6694   59.1362   78.1079 H   0  0  0  0  0  0  0  0  0  0  0  0
   -3.7137   57.9747   76.7383 H   0  0  0  0  0  0  0  0  0  0  0  0
   -2.5215   59.3184   76.7383 H   0  0  0  0  0  0  0  0  0  0  0  0
   -8.1646   65.8119   75.9786 H   0  0  0  0  0  0  0  0  0  0  0  0
   -7.2909   67.1341   75.0863 H   0  0  0  0  0  0  0  0  0  0  0  0
   -8.0483   63.4549   74.4576 H   0  0  0  0  0  0  0  0  0  0  0  0
   -8.8791   62.7017   72.2117 H   0  0  0  0  0  0  0  0  0  0  0  0
   -9.2208   64.3816   70.4336 H   0  0  0  0  0  0  0  0  0  0  0  0
   -8.0933   67.5014   73.0075 H   0  0  0  0  0  0  0  0  0  0  0  0
   -0.3329   62.0377   77.0930 H   0  0  0  0  0  0  0  0  0  0  0  0
   -1.7724   61.0221   76.4553 H   0  0  0  0  0  0  0  0  0  0  0  0
    0.4082   60.0923   75.9764 H   0  0  0  0  0  0  0  0  0  0  0  0
    0.3520   61.4117   72.8586 H   0  0  0  0  0  0  0  0  0  0  0  0
    2.5486   63.3159   73.4792 H   0  0  0  0  0  0  0  0  0  0  0  0
    1.6520   64.7957   71.7616 H   0  0  0  0  0  0  0  0  0  0  0  0
    0.2539   62.6241   70.1580 H   0  0  0  0  0  0  0  0  0  0  0  0
    1.2218   63.9431   69.5436 H   0  0  0  0  0  0  0  0  0  0  0  0
    4.2512   61.1032   72.9800 H   0  0  0  0  0  0  0  0  0  0  0  0
    5.4176   60.0097   71.0548 H   0  0  0  0  0  0  0  0  0  0  0  0
    4.6148   60.3747   68.7229 H   0  0  0  0  0  0  0  0  0  0  0  0
    2.6344   61.8407   68.2830 H   0  0  0  0  0  0  0  0  0  0  0  0
   -0.1832   63.9783   73.2159 H   0  0  0  0  0  0  0  0  0  0  0  0
   -1.7456   59.9760   74.4506 H   0  0  0  0  0  0  0  0  0  0  0  0
   -0.3944   60.5641   73.2872 H   0  0  0  0  0  0  0  0  0  0  0  0
   -1.9156   57.6040   74.8153 H   0  0  0  0  0  0  0  0  0  0  0  0
   -1.0487   55.3203   74.3470 H   0  0  0  0  0  0  0  0  0  0  0  0
    1.1289   55.0160   73.1742 H   0  0  0  0  0  0  0  0  0  0  0  0
    2.4275   57.0144   72.4342 H   0  0  0  0  0  0  0  0  0  0  0  0
    1.5690   59.2996   72.9064 H   0  0  0  0  0  0  0  0  0  0  0  0
  2  1  1  0
  3  1  1  0
  4  3  1  0
  5  4  1  0
  6  5  1  0
  7  6  1  0
  8  7  1  0
  9  8  1  0
  9  4  1  0
 10  9  1  0
 11 10  2  0
 12 10  1  0
 13 12  1  0
 14 13  1  0
 15 13  1  0
 16 13  1  0
 17  7  1  0
 18 17  1  0
 19 18  2  0
 20 19  1  0
 21 20  2  0
 22 21  1  0
 23 22  2  0
 23 18  1  0
 24  1  1  0
 25 24  1  0
 26 25  1  0
 27 26  2  0
 28 26  1  0
 29 28  1  0
 30 29  1  0
 31 30  1  0
 32 31  1  0
 33 32  2  0
 33 29  1  0
 34 33  1  0
 35 34  2  0
 36 35  1  0
 37 36  2  0
 37 32  1  0
 38 30  1  0
 39 25  1  0
 40 39  1  0
 41 40  2  0
 42 41  1  0
 43 42  2  0
 44 43  1  0
 45 44  2  0
 45 40  1  0
  1 46  1  6
  2 47  1  0
  3 48  1  0
  3 49  1  0
  4 50  1  6
  5 51  1  0
  5 52  1  0
  6 53  1  0
  6 54  1  0
  7 55  1  6
  8 56  1  0
  8 57  1  0
  9 58  1  1
 12 59  1  0
 14 60  1  0
 14 61  1  0
 14 62  1  0
 15 63  1  0
 15 64  1  0
 15 65  1  0
 16 66  1  0
 16 67  1  0
 16 68  1  0
 17 69  1  0
 17 70  1  0
 19 71  1  0
 20 72  1  0
 21 73  1  0
 23 74  1  0
 24 75  1  0
 24 76  1  0
 25 77  1  1
 28 78  1  0
 29 79  1  1
 30 80  1  6
 31 81  1  0
 31 82  1  0
 34 83  1  0
 35 84  1  0
 36 85  1  0
 37 86  1  0
 38 87  1  0
 39 88  1  0
 39 89  1  0
 41 90  1  0
 42 91  1  0
 43 92  1  0
 44 93  1  0
 45 94  1  0
M  CHG  2   4   1   7   1
M  END
>  <score>  (9) 
-8.823

$$$$
