=
     RDKit          3D

 54 57  0  0  0  0  0  0  0  0999 V2000
    3.0690   63.0840   68.3910 O   0  0  0  0  0  0  0  0  0  0  0  0
    3.0350   62.3460   69.3720 C   0  0  0  0  0  0  0  0  0  0  0  0
    4.0960   61.3120   69.6410 C   0  0  0  0  0  0  0  0  0  0  0  0
    3.5030   60.1210   70.3790 C   0  0  0  0  0  0  0  0  0  0  0  0
    2.7610   60.5010   71.6950 C   0  0  1  0  0  0  0  0  0  0  0  0
    1.8630   61.7210   71.4560 C   0  0  0  0  0  0  0  0  0  0  0  0
    1.9660   62.5240   70.3810 C   0  0  0  0  0  0  0  0  0  0  0  0
    0.8330   62.0270   72.5170 C   0  0  0  0  0  0  0  0  0  0  0  0
   -0.0060   60.8050   72.8700 C   0  0  0  0  0  0  0  0  0  0  0  0
    0.8810   59.6230   73.2850 C   0  0  2  0  0  0  0  0  0  0  0  0
    1.8750   59.2730   72.1370 C   0  0  2  0  0  0  0  0  0  0  0  0
    2.6880   57.9920   72.4560 C   0  0  0  0  0  0  0  0  0  0  0  0
    1.8130   56.8030   72.8940 C   0  0  0  0  0  0  0  0  0  0  0  0
    0.8870   57.1660   74.0690 C   0  0  1  0  0  0  0  0  0  0  0  0
    0.0410   58.3810   73.6130 C   0  0  1  0  0  0  0  0  0  0  0  0
   -1.0300   58.5010   74.6910 C   0  0  0  0  0  0  0  0  0  0  0  0
   -1.3180   57.0460   75.1080 C   0  0  0  0  0  0  0  0  0  0  0  0
   -0.2540   56.1560   74.4030 C   0  0  2  0  0  0  0  0  0  0  0  0
    1.7370   57.4540   75.3370 C   0  0  0  0  0  0  0  0  0  0  0  0
    3.8080   60.8750   72.7690 C   0  0  0  0  0  0  0  0  0  0  0  0
    0.1690   54.9440   75.2620 C   0  0  0  0  0  0  0  0  0  0  0  0
   -0.0860   54.8680   76.4660 O   0  0  0  0  0  0  0  0  0  0  0  0
    0.9320   53.8330   74.5840 C   0  0  0  0  0  0  0  0  0  0  0  0
   -0.8380   55.6560   73.1930 O   0  0  0  0  0  0  0  0  0  0  0  0
    4.5201   60.9711   68.6850 H   0  0  0  0  0  0  0  0  0  0  0  0
    4.8821   61.7623   70.2650 H   0  0  0  0  0  0  0  0  0  0  0  0
    2.7877   59.6200   69.7101 H   0  0  0  0  0  0  0  0  0  0  0  0
    4.3430   59.4697   70.6621 H   0  0  0  0  0  0  0  0  0  0  0  0
    1.2354   63.3355   70.2481 H   0  0  0  0  0  0  0  0  0  0  0  0
    1.3499   62.3762   73.4230 H   0  0  0  0  0  0  0  0  0  0  0  0
    0.1572   62.7992   72.1207 H   0  0  0  0  0  0  0  0  0  0  0  0
   -0.6775   61.0595   73.7033 H   0  0  0  0  0  0  0  0  0  0  0  0
   -0.5841   60.5112   71.9815 H   0  0  0  0  0  0  0  0  0  0  0  0
    1.4349   59.9228   74.1868 H   0  0  0  0  0  0  0  0  0  0  0  0
    1.2730   59.0355   71.2475 H   0  0  0  0  0  0  0  0  0  0  0  0
    3.2461   57.7001   71.5542 H   0  0  0  0  0  0  0  0  0  0  0  0
    3.3532   58.2321   73.2985 H   0  0  0  0  0  0  0  0  0  0  0  0
    1.1955   56.4842   72.0413 H   0  0  0  0  0  0  0  0  0  0  0  0
    2.4816   55.9956   73.2272 H   0  0  0  0  0  0  0  0  0  0  0  0
   -0.4444   58.2523   72.6343 H   0  0  0  0  0  0  0  0  0  0  0  0
   -0.6581   59.0847   75.5460 H   0  0  0  0  0  0  0  0  0  0  0  0
   -1.9306   59.0204   74.3316 H   0  0  0  0  0  0  0  0  0  0  0  0
   -1.2352   56.9418   76.1999 H   0  0  0  0  0  0  0  0  0  0  0  0
   -2.3363   56.7472   74.8185 H   0  0  0  0  0  0  0  0  0  0  0  0
    1.1359   57.2503   76.2354 H   0  0  0  0  0  0  0  0  0  0  0  0
    2.6267   56.8072   75.3367 H   0  0  0  0  0  0  0  0  0  0  0  0
    2.0503   58.5084   75.3367 H   0  0  0  0  0  0  0  0  0  0  0  0
    3.3778   60.7213   73.7697 H   0  0  0  0  0  0  0  0  0  0  0  0
    4.6978   60.2391   72.6508 H   0  0  0  0  0  0  0  0  0  0  0  0
    4.0935   61.9307   72.6508 H   0  0  0  0  0  0  0  0  0  0  0  0
    1.3813   53.1788   75.3457 H   0  0  0  0  0  0  0  0  0  0  0  0
    0.2452   53.2466   73.9560 H   0  0  0  0  0  0  0  0  0  0  0  0
    1.7259   54.2635   73.9560 H   0  0  0  0  0  0  0  0  0  0  0  0
   -1.5709   55.0285   73.4150 H   0  0  0  0  0  0  0  0  0  0  0  0
  2  1  2  0
  3  2  1  0
  4  3  1  0
  5  4  1  0
  6  5  1  0
  7  2  1  0
  7  6  2  0
  8  6  1  0
  9  8  1  0
 10  9  1  0
 11 10  1  0
 11  5  1  0
 12 11  1  0
 13 12  1  0
 14 13  1  0
 15 14  1  0
 15 10  1  0
 16 15  1  0
 17 16  1  0
 18 17  1  0
 18 14  1  0
 14 19  1  1
  5 20  1  1
 21 18  1  0
 22 21  2  0
 23 21  1  0
 18 24  1  6
  3 25  1  0
  3 26  1  0
  4 27  1  0
  4 28  1  0
  7 29  1  0
  8 30  1  0
  8 31  1  0
  9 32  1  0
  9 33  1  0
 10 34  1  1
 11 35  1  6
 12 36  1  0
 12 37  1  0
 13 38  1  0
 13 39  1  0
 15 40  1  6
 16 41  1  0
 16 42  1  0
 17 43  1  0
 17 44  1  0
 19 45  1  0
 19 46  1  0
 19 47  1  0
 20 48  1  0
 20 49  1  0
 20 50  1  0
 23 51  1  0
 23 52  1  0
 23 53  1  0
 24 54  1  0
M  END
>  <score>  (1) 
-9.236

$$$$
=
     RDKit          3D

 54 57  0  0  0  0  0  0  0  0999 V2000
   -2.4920   55.3900   74.9510 O   0  0  0  0  0  0  0  0  0  0  0  0
   -1.6490   56.2740   74.8190 C   0  0  0  0  0  0  0  0  0  0  0  0
   -1.7950   57.6290   75.4570 C   0  0  0  0  0  0  0  0  0  0  0  0
   -1.1160   58.6930   74.6070 C   0  0  0  0  0  0  0  0  0  0  0  0
    0.3800   58.3910   74.2960 C   0  0  1  0  0  0  0  0  0  0  0  0
    0.5420   56.9240   73.8810 C   0  0  0  0  0  0  0  0  0  0  0  0
   -0.3980   55.9830   74.0830 C   0  0  0  0  0  0  0  0  0  0  0  0
    1.8530   56.5390   73.2350 C   0  0  0  0  0  0  0  0  0  0  0  0
    2.2160   57.4660   72.0820 C   0  0  0  0  0  0  0  0  0  0  0  0
    2.2320   58.9340   72.5320 C   0  0  2  0  0  0  0  0  0  0  0  0
    0.8400   59.3280   73.1130 C   0  0  2  0  0  0  0  0  0  0  0  0
    0.7660   60.8410   73.4430 C   0  0  0  0  0  0  0  0  0  0  0  0
    1.2250   61.7440   72.2830 C   0  0  0  0  0  0  0  0  0  0  0  0
    2.6280   61.3670   71.7730 C   0  0  1  0  0  0  0  0  0  0  0  0
    2.5680   59.8730   71.3660 C   0  0  1  0  0  0  0  0  0  0  0  0
    3.8780   59.6510   70.6180 C   0  0  0  0  0  0  0  0  0  0  0  0
    4.1370   60.9850   69.8940 C   0  0  0  0  0  0  0  0  0  0  0  0
    3.0760   61.9960   70.4180 C   0  0  2  0  0  0  0  0  0  0  0  0
    3.6830   61.6580   72.8760 C   0  0  0  0  0  0  0  0  0  0  0  0
    1.2150   58.6260   75.5760 C   0  0  0  0  0  0  0  0  0  0  0  0
    3.6240   63.4370   70.5110 C   0  0  0  0  0  0  0  0  0  0  0  0
    2.8920   64.4100   70.7060 O   0  0  0  0  0  0  0  0  0  0  0  0
    5.1100   63.6380   70.3390 C   0  0  0  0  0  0  0  0  0  0  0  0
    1.9830   61.9990   69.4920 O   0  0  0  0  0  0  0  0  0  0  0  0
   -2.8638   57.8705   75.5539 H   0  0  0  0  0  0  0  0  0  0  0  0
   -1.3199   57.6088   76.4489 H   0  0  0  0  0  0  0  0  0  0  0  0
   -1.6588   58.7733   73.6536 H   0  0  0  0  0  0  0  0  0  0  0  0
   -1.1398   59.6280   75.1860 H   0  0  0  0  0  0  0  0  0  0  0  0
   -0.2324   54.9689   73.6903 H   0  0  0  0  0  0  0  0  0  0  0  0
    2.6493   56.5860   73.9925 H   0  0  0  0  0  0  0  0  0  0  0  0
    1.7466   55.5212   72.8316 H   0  0  0  0  0  0  0  0  0  0  0  0
    3.2134   57.1957   71.7049 H   0  0  0  0  0  0  0  0  0  0  0  0
    1.4583   57.3524   71.2927 H   0  0  0  0  0  0  0  0  0  0  0  0
    3.0086   59.0376   73.3041 H   0  0  0  0  0  0  0  0  0  0  0  0
    0.0968   59.1544   72.3209 H   0  0  0  0  0  0  0  0  0  0  0  0
   -0.2758   61.0933   73.6899 H   0  0  0  0  0  0  0  0  0  0  0  0
    1.4492   61.0230   74.2857 H   0  0  0  0  0  0  0  0  0  0  0  0
    0.5087   61.6472   71.4538 H   0  0  0  0  0  0  0  0  0  0  0  0
    1.2677   62.7779   72.6562 H   0  0  0  0  0  0  0  0  0  0  0  0
    1.7260   59.6169   70.7061 H   0  0  0  0  0  0  0  0  0  0  0  0
    4.6937   59.4247   71.3204 H   0  0  0  0  0  0  0  0  0  0  0  0
    3.8246   58.8003   69.9227 H   0  0  0  0  0  0  0  0  0  0  0  0
    5.1502   61.3482   70.1208 H   0  0  0  0  0  0  0  0  0  0  0  0
    4.0603   60.8630   68.8035 H   0  0  0  0  0  0  0  0  0  0  0  0
    3.2223   61.5309   73.8667 H   0  0  0  0  0  0  0  0  0  0  0  0
    4.5256   60.9587   72.7711 H   0  0  0  0  0  0  0  0  0  0  0  0
    4.0480   62.6904   72.7711 H   0  0  0  0  0  0  0  0  0  0  0  0
    0.5866   58.4491   76.4613 H   0  0  0  0  0  0  0  0  0  0  0  0
    2.0695   57.9335   75.5886 H   0  0  0  0  0  0  0  0  0  0  0  0
    1.5829   59.6626   75.5886 H   0  0  0  0  0  0  0  0  0  0  0  0
    5.5881   63.7027   71.3276 H   0  0  0  0  0  0  0  0  0  0  0  0
    5.5328   62.7889   69.7820 H   0  0  0  0  0  0  0  0  0  0  0  0
    5.2920   64.5689   69.7820 H   0  0  0  0  0  0  0  0  0  0  0  0
    1.1279   62.0013   69.9908 H   0  0  0  0  0  0  0  0  0  0  0  0
  2  1  2  0
  3  2  1  0
  4  3  1  0
  5  4  1  0
  6  5  1  0
  7  2  1  0
  7  6  2  0
  8  6  1  0
  9  8  1  0
 10  9  1  0
 11 10  1  0
 11  5  1  0
 12 11  1  0
 13 12  1  0
 14 13  1  0
 15 14  1  0
 15 10  1  0
 16 15  1  0
 17 16  1  0
 18 17  1  0
 18 14  1  0
 14 19  1  1
  5 20  1  1
 21 18  1  0
 22 21  2  0
 23 21  1  0
 18 24  1  6
  3 25  1  0
  3 26  1  0
  4 27  1  0
  4 28  1  0
  7 29  1  0
  8 30  1  0
  8 31  1  0
  9 32  1  0
  9 33  1  0
 10 34  1  1
 11 35  1  6
 12 36  1  0
 12 37  1  0
 13 38  1  0
 13 39  1  0
 15 40  1  6
 16 41  1  0
 16 42  1  0
 17 43  1  0
 17 44  1  0
 19 45  1  0
 19 46  1  0
 19 47  1  0
 20 48  1  0
 20 49  1  0
 20 50  1  0
 23 51  1  0
 23 52  1  0
 23 53  1  0
 24 54  1  0
M  END
>  <score>  (2) 
-9.199

$$$$
=
     RDKit          3D

 54 57  0  0  0  0  0  0  0  0999 V2000
    0.0220   54.6430   73.8280 O   0  0  0  0  0  0  0  0  0  0  0  0
    0.1870   55.8580   73.9120 C   0  0  0  0  0  0  0  0  0  0  0  0
   -0.7520   56.7480   74.6820 C   0  0  0  0  0  0  0  0  0  0  0  0
   -0.8010   58.1350   74.0580 C   0  0  0  0  0  0  0  0  0  0  0  0
    0.5950   58.8090   73.9100 C   0  0  1  0  0  0  0  0  0  0  0  0
    1.6050   57.8010   73.3480 C   0  0  0  0  0  0  0  0  0  0  0  0
    1.3940   56.4720   73.3140 C   0  0  0  0  0  0  0  0  0  0  0  0
    2.9120   58.3600   72.8370 C   0  0  0  0  0  0  0  0  0  0  0  0
    2.7000   59.5080   71.8580 C   0  0  0  0  0  0  0  0  0  0  0  0
    1.8310   60.6120   72.4770 C   0  0  2  0  0  0  0  0  0  0  0  0
    0.4550   60.0250   72.9150 C   0  0  2  0  0  0  0  0  0  0  0  0
   -0.5080   61.1350   73.4090 C   0  0  0  0  0  0  0  0  0  0  0  0
   -0.6290   62.3210   72.4340 C   0  0  0  0  0  0  0  0  0  0  0  0
    0.7430   62.9150   72.0690 C   0  0  1  0  0  0  0  0  0  0  0  0
    1.5900   61.7570   71.4830 C   0  0  1  0  0  0  0  0  0  0  0  0
    2.8040   62.4620   70.8890 C   0  0  0  0  0  0  0  0  0  0  0  0
    2.2530   63.8020   70.3680 C   0  0  0  0  0  0  0  0  0  0  0  0
    0.7820   63.9090   70.8670 C   0  0  2  0  0  0  0  0  0  0  0  0
    1.3850   63.5660   73.3250 C   0  0  0  0  0  0  0  0  0  0  0  0
    1.0850   59.2570   75.3060 C   0  0  0  0  0  0  0  0  0  0  0  0
    0.3720   65.3600   71.1990 C   0  0  0  0  0  0  0  0  0  0  0  0
   -0.3080   65.6430   72.1880 O   0  0  0  0  0  0  0  0  0  0  0  0
    0.8200   66.4510   70.2580 C   0  0  0  0  0  0  0  0  0  0  0  0
   -0.0690   63.4400   69.8140 O   0  0  0  0  0  0  0  0  0  0  0  0
   -1.7604   56.3088   74.6683 H   0  0  0  0  0  0  0  0  0  0  0  0
   -0.3914   56.8356   75.7175 H   0  0  0  0  0  0  0  0  0  0  0  0
   -1.2522   58.0495   73.0585 H   0  0  0  0  0  0  0  0  0  0  0  0
   -1.3921   58.7694   74.7349 H   0  0  0  0  0  0  0  0  0  0  0  0
    2.1389   55.8244   72.8285 H   0  0  0  0  0  0  0  0  0  0  0  0
    3.4995   58.7265   73.6917 H   0  0  0  0  0  0  0  0  0  0  0  0
    3.4405   57.5547   72.3058 H   0  0  0  0  0  0  0  0  0  0  0  0
    3.6776   59.9317   71.5847 H   0  0  0  0  0  0  0  0  0  0  0  0
    2.1847   59.1166   70.9685 H   0  0  0  0  0  0  0  0  0  0  0  0
    2.3687   61.0091   73.3506 H   0  0  0  0  0  0  0  0  0  0  0  0
   -0.0147   59.5937   72.0187 H   0  0  0  0  0  0  0  0  0  0  0  0
   -1.5063   60.6941   73.5467 H   0  0  0  0  0  0  0  0  0  0  0  0
   -0.0932   61.5291   74.3485 H   0  0  0  0  0  0  0  0  0  0  0  0
   -1.1212   61.9742   71.5134 H   0  0  0  0  0  0  0  0  0  0  0  0
   -1.2167   63.1076   72.9299 H   0  0  0  0  0  0  0  0  0  0  0  0
    1.0849   61.1811   70.6936 H   0  0  0  0  0  0  0  0  0  0  0  0
    3.5717   62.6299   71.6587 H   0  0  0  0  0  0  0  0  0  0  0  0
    3.2856   61.8706   70.0964 H   0  0  0  0  0  0  0  0  0  0  0  0
    2.8492   64.6366   70.7654 H   0  0  0  0  0  0  0  0  0  0  0  0
    2.3013   63.8481   69.2700 H   0  0  0  0  0  0  0  0  0  0  0  0
    0.9478   63.1227   74.2318 H   0  0  0  0  0  0  0  0  0  0  0  0
    2.4704   63.3875   73.3163 H   0  0  0  0  0  0  0  0  0  0  0  0
    1.1914   64.6488   73.3163 H   0  0  0  0  0  0  0  0  0  0  0  0
    0.5100   58.7313   76.0825 H   0  0  0  0  0  0  0  0  0  0  0  0
    2.1529   59.0164   75.4144 H   0  0  0  0  0  0  0  0  0  0  0  0
    0.9408   60.3421   75.4144 H   0  0  0  0  0  0  0  0  0  0  0  0
    1.1746   67.3145   70.8400 H   0  0  0  0  0  0  0  0  0  0  0  0
    1.6369   66.0758   69.6240 H   0  0  0  0  0  0  0  0  0  0  0  0
   -0.0248   66.7581   69.6240 H   0  0  0  0  0  0  0  0  0  0  0  0
   -0.8658   63.0009   70.2045 H   0  0  0  0  0  0  0  0  0  0  0  0
  2  1  2  0
  3  2  1  0
  4  3  1  0
  5  4  1  0
  6  5  1  0
  7  2  1  0
  7  6  2  0
  8  6  1  0
  9  8  1  0
 10  9  1  0
 11 10  1  0
 11  5  1  0
 12 11  1  0
 13 12  1  0
 14 13  1  0
 15 14  1  0
 15 10  1  0
 16 15  1  0
 17 16  1  0
 18 17  1  0
 18 14  1  0
 14 19  1  1
  5 20  1  1
 21 18  1  0
 22 21  2  0
 23 21  1  0
 18 24  1  6
  3 25  1  0
  3 26  1  0
  4 27  1  0
  4 28  1  0
  7 29  1  0
  8 30  1  0
  8 31  1  0
  9 32  1  0
  9 33  1  0
 10 34  1  1
 11 35  1  6
 12 36  1  0
 12 37  1  0
 13 38  1  0
 13 39  1  0
 15 40  1  6
 16 41  1  0
 16 42  1  0
 17 43  1  0
 17 44  1  0
 19 45  1  0
 19 46  1  0
 19 47  1  0
 20 48  1  0
 20 49  1  0
 20 50  1  0
 23 51  1  0
 23 52  1  0
 23 53  1  0
 24 54  1  0
M  END
>  <score>  (3) 
-9.098

$$$$
=
     RDKit          3D

 54 57  0  0  0  0  0  0  0  0999 V2000
   -4.9430   58.4610   75.1000 O   0  0  0  0  0  0  0  0  0  0  0  0
   -3.8700   59.0390   74.9450 C   0  0  0  0  0  0  0  0  0  0  0  0
   -3.7770   60.5320   74.7770 C   0  0  0  0  0  0  0  0  0  0  0  0
   -2.5840   60.8950   73.9040 C   0  0  0  0  0  0  0  0  0  0  0  0
   -1.2310   60.3140   74.4120 C   0  0  1  0  0  0  0  0  0  0  0  0
   -1.4110   58.8450   74.8140 C   0  0  0  0  0  0  0  0  0  0  0  0
   -2.6100   58.2660   75.0110 C   0  0  0  0  0  0  0  0  0  0  0  0
   -0.1520   58.0360   75.0180 C   0  0  0  0  0  0  0  0  0  0  0  0
    0.8040   58.1560   73.8370 C   0  0  0  0  0  0  0  0  0  0  0  0
    1.1330   59.6240   73.5360 C   0  0  2  0  0  0  0  0  0  0  0  0
   -0.1770   60.4160   73.2430 C   0  0  2  0  0  0  0  0  0  0  0  0
    0.1210   61.8680   72.7900 C   0  0  0  0  0  0  0  0  0  0  0  0
    1.1580   61.9540   71.6540 C   0  0  0  0  0  0  0  0  0  0  0  0
    2.4620   61.2150   72.0000 C   0  0  1  0  0  0  0  0  0  0  0  0
    2.0720   59.7510   72.3280 C   0  0  1  0  0  0  0  0  0  0  0  0
    3.4100   59.0230   72.3780 C   0  0  0  0  0  0  0  0  0  0  0  0
    4.2690   59.7250   71.3090 C   0  0  0  0  0  0  0  0  0  0  0  0
    3.4630   60.9680   70.8290 C   0  0  2  0  0  0  0  0  0  0  0  0
    3.1780   61.9340   73.1760 C   0  0  0  0  0  0  0  0  0  0  0  0
   -0.7850   61.1050   75.6630 C   0  0  0  0  0  0  0  0  0  0  0  0
    4.3730   62.1650   70.4770 C   0  0  0  0  0  0  0  0  0  0  0  0
    5.4640   62.3470   71.0230 O   0  0  0  0  0  0  0  0  0  0  0  0
    3.8820   63.1390   69.4350 C   0  0  0  0  0  0  0  0  0  0  0  0
    2.7500   60.5920   69.6440 O   0  0  0  0  0  0  0  0  0  0  0  0
   -4.6984   60.9014   74.3032 H   0  0  0  0  0  0  0  0  0  0  0  0
   -3.6487   60.9949   75.7666 H   0  0  0  0  0  0  0  0  0  0  0  0
   -2.7671   60.5106   72.8898 H   0  0  0  0  0  0  0  0  0  0  0  0
   -2.4910   61.9908   73.9295 H   0  0  0  0  0  0  0  0  0  0  0  0
   -2.6544   57.1883   75.2270 H   0  0  0  0  0  0  0  0  0  0  0  0
    0.3573   58.3949   75.9245 H   0  0  0  0  0  0  0  0  0  0  0  0
   -0.4404   56.9789   75.1144 H   0  0  0  0  0  0  0  0  0  0  0  0
    1.7355   57.6208   74.0736 H   0  0  0  0  0  0  0  0  0  0  0  0
    0.3197   57.7190   72.9513 H   0  0  0  0  0  0  0  0  0  0  0  0
    1.6369   60.0399   74.4209 H   0  0  0  0  0  0  0  0  0  0  0  0
   -0.6665   59.9272   72.3878 H   0  0  0  0  0  0  0  0  0  0  0  0
   -0.8173   62.3238   72.4408 H   0  0  0  0  0  0  0  0  0  0  0  0
    0.5437   62.3981   73.6562 H   0  0  0  0  0  0  0  0  0  0  0  0
    0.7271   61.5060   70.7464 H   0  0  0  0  0  0  0  0  0  0  0  0
    1.4023   63.0154   71.4996 H   0  0  0  0  0  0  0  0  0  0  0  0
    1.4292   59.2743   71.5733 H   0  0  0  0  0  0  0  0  0  0  0  0
    3.8695   59.1212   73.3726 H   0  0  0  0  0  0  0  0  0  0  0  0
    3.3072   57.9439   72.1907 H   0  0  0  0  0  0  0  0  0  0  0  0
    5.2294   60.0407   71.7424 H   0  0  0  0  0  0  0  0  0  0  0  0
    4.4864   59.0476   70.4701 H   0  0  0  0  0  0  0  0  0  0  0  0
    2.7930   61.5473   74.1311 H   0  0  0  0  0  0  0  0  0  0  0  0
    4.2605   61.7482   73.1149 H   0  0  0  0  0  0  0  0  0  0  0  0
    2.9876   63.0157   73.1149 H   0  0  0  0  0  0  0  0  0  0  0  0
   -1.0914   60.5615   76.5690 H   0  0  0  0  0  0  0  0  0  0  0  0
    0.3093   61.2170   75.6551 H   0  0  0  0  0  0  0  0  0  0  0  0
   -1.2555   62.0993   75.6551 H   0  0  0  0  0  0  0  0  0  0  0  0
    3.4402   64.0154   69.9316 H   0  0  0  0  0  0  0  0  0  0  0  0
    4.7259   63.4602   68.8068 H   0  0  0  0  0  0  0  0  0  0  0  0
    3.1219   62.6516   68.8068 H   0  0  0  0  0  0  0  0  0  0  0  0
    1.9032   60.1454   69.8961 H   0  0  0  0  0  0  0  0  0  0  0  0
  2  1  2  0
  3  2  1  0
  4  3  1  0
  5  4  1  0
  6  5  1  0
  7  2  1  0
  7  6  2  0
  8  6  1  0
  9  8  1  0
 10  9  1  0
 11 10  1  0
 11  5  1  0
 12 11  1  0
 13 12  1  0
 14 13  1  0
 15 14  1  0
 15 10  1  0
 16 15  1  0
 17 16  1  0
 18 17  1  0
 18 14  1  0
 14 19  1  1
  5 20  1  1
 21 18  1  0
 22 21  2  0
 23 21  1  0
 18 24  1  6
  3 25  1  0
  3 26  1  0
  4 27  1  0
  4 28  1  0
  7 29  1  0
  8 30  1  0
  8 31  1  0
  9 32  1  0
  9 33  1  0
 10 34  1  1
 11 35  1  6
 12 36  1  0
 12 37  1  0
 13 38  1  0
 13 39  1  0
 15 40  1  6
 16 41  1  0
 16 42  1  0
 17 43  1  0
 17 44  1  0
 19 45  1  0
 19 46  1  0
 19 47  1  0
 20 48  1  0
 20 49  1  0
 20 50  1  0
 23 51  1  0
 23 52  1  0
 23 53  1  0
 24 54  1  0
M  END
>  <score>  (4) 
-8.466

$$$$
=
     RDKit          3D

 54 57  0  0  0  0  0  0  0  0999 V2000
    0.3770   65.6240   69.9690 O   0  0  0  0  0  0  0  0  0  0  0  0
    0.8560   64.6900   70.6080 C   0  0  0  0  0  0  0  0  0  0  0  0
    2.0790   63.9420   70.1480 C   0  0  0  0  0  0  0  0  0  0  0  0
    2.0260   62.4950   70.6160 C   0  0  0  0  0  0  0  0  0  0  0  0
    1.8320   62.3380   72.1530 C   0  0  1  0  0  0  0  0  0  0  0  0
    0.7390   63.2960   72.6440 C   0  0  0  0  0  0  0  0  0  0  0  0
    0.2740   64.3310   71.9200 C   0  0  0  0  0  0  0  0  0  0  0  0
    0.1940   63.0530   74.0310 C   0  0  0  0  0  0  0  0  0  0  0  0
   -0.2330   61.6040   74.2340 C   0  0  0  0  0  0  0  0  0  0  0  0
    0.9150   60.6370   73.9140 C   0  0  2  0  0  0  0  0  0  0  0  0
    1.3990   60.8490   72.4480 C   0  0  2  0  0  0  0  0  0  0  0  0
    2.4570   59.7930   72.0370 C   0  0  0  0  0  0  0  0  0  0  0  0
    2.0270   58.3450   72.3380 C   0  0  0  0  0  0  0  0  0  0  0  0
    1.6130   58.1560   73.8080 C   0  0  1  0  0  0  0  0  0  0  0  0
    0.4800   59.1750   74.0880 C   0  0  1  0  0  0  0  0  0  0  0  0
   -0.0670   58.7440   75.4440 C   0  0  0  0  0  0  0  0  0  0  0  0
    0.0640   57.2090   75.4400 C   0  0  0  0  0  0  0  0  0  0  0  0
    0.8740   56.8300   74.1660 C   0  0  2  0  0  0  0  0  0  0  0  0
    2.8490   58.3470   74.7310 C   0  0  0  0  0  0  0  0  0  0  0  0
    3.1530   62.7070   72.8650 C   0  0  0  0  0  0  0  0  0  0  0  0
    1.7890   55.6050   74.3870 C   0  0  0  0  0  0  0  0  0  0  0  0
    2.3260   55.0060   73.4520 O   0  0  0  0  0  0  0  0  0  0  0  0
    2.0070   55.1360   75.8040 C   0  0  0  0  0  0  0  0  0  0  0  0
   -0.0660   56.4980   73.1360 O   0  0  0  0  0  0  0  0  0  0  0  0
    2.1258   63.9656   69.0493 H   0  0  0  0  0  0  0  0  0  0  0  0
    2.9715   64.4219   70.5760 H   0  0  0  0  0  0  0  0  0  0  0  0
    1.1872   61.9967   70.1079 H   0  0  0  0  0  0  0  0  0  0  0  0
    2.9974   62.0424   70.3679 H   0  0  0  0  0  0  0  0  0  0  0  0
   -0.5622   64.9267   72.3149 H   0  0  0  0  0  0  0  0  0  0  0  0
    0.9739   63.2992   74.7666 H   0  0  0  0  0  0  0  0  0  0  0  0
   -0.6938   63.6891   74.1621 H   0  0  0  0  0  0  0  0  0  0  0  0
   -0.5391   61.4635   75.2812 H   0  0  0  0  0  0  0  0  0  0  0  0
   -1.0697   61.3888   73.5531 H   0  0  0  0  0  0  0  0  0  0  0  0
    1.7340   60.8485   74.6172 H   0  0  0  0  0  0  0  0  0  0  0  0
    0.5321   60.6798   71.7923 H   0  0  0  0  0  0  0  0  0  0  0  0
    2.6393   59.8848   70.9561 H   0  0  0  0  0  0  0  0  0  0  0  0
    3.3615   59.9925   72.6303 H   0  0  0  0  0  0  0  0  0  0  0  0
    1.1735   58.0875   71.6936 H   0  0  0  0  0  0  0  0  0  0  0  0
    2.8881   57.6891   72.1423 H   0  0  0  0  0  0  0  0  0  0  0  0
   -0.3343   59.1603   73.3486 H   0  0  0  0  0  0  0  0  0  0  0  0
    0.5256   59.1831   76.2601 H   0  0  0  0  0  0  0  0  0  0  0  0
   -1.1037   59.0758   75.6025 H   0  0  0  0  0  0  0  0  0  0  0  0
    0.5966   56.8721   76.3415 H   0  0  0  0  0  0  0  0  0  0  0  0
   -0.9255   56.7285   75.4360 H   0  0  0  0  0  0  0  0  0  0  0  0
    2.5320   58.2980   75.7832 H   0  0  0  0  0  0  0  0  0  0  0  0
    3.5820   57.5515   74.5315 H   0  0  0  0  0  0  0  0  0  0  0  0
    3.3077   59.3267   74.5315 H   0  0  0  0  0  0  0  0  0  0  0  0
    3.0062   62.6660   73.9544 H   0  0  0  0  0  0  0  0  0  0  0  0
    3.9382   61.9938   72.5737 H   0  0  0  0  0  0  0  0  0  0  0  0
    3.4549   63.7239   72.5737 H   0  0  0  0  0  0  0  0  0  0  0  0
    1.6493   55.9055   76.5040 H   0  0  0  0  0  0  0  0  0  0  0  0
    1.4509   54.2017   75.9707 H   0  0  0  0  0  0  0  0  0  0  0  0
    3.0798   54.9588   75.9707 H   0  0  0  0  0  0  0  0  0  0  0  0
   -0.9148   56.1982   73.5480 H   0  0  0  0  0  0  0  0  0  0  0  0
  2  1  2  0
  3  2  1  0
  4  3  1  0
  5  4  1  0
  6  5  1  0
  7  2  1  0
  7  6  2  0
  8  6  1  0
  9  8  1  0
 10  9  1  0
 11 10  1  0
 11  5  1  0
 12 11  1  0
 13 12  1  0
 14 13  1  0
 15 14  1  0
 15 10  1  0
 16 15  1  0
 17 16  1  0
 18 17  1  0
 18 14  1  0
 14 19  1  1
  5 20  1  1
 21 18  1  0
 22 21  2  0
 23 21  1  0
 18 24  1  6
  3 25  1  0
  3 26  1  0
  4 27  1  0
  4 28  1  0
  7 29  1  0
  8 30  1  0
  8 31  1  0
  9 32  1  0
  9 33  1  0
 10 34  1  1
 11 35  1  6
 12 36  1  0
 12 37  1  0
 13 38  1  0
 13 39  1  0
 15 40  1  6
 16 41  1  0
 16 42  1  0
 17 43  1  0
 17 44  1  0
 19 45  1  0
 19 46  1  0
 19 47  1  0
 20 48  1  0
 20 49  1  0
 20 50  1  0
 23 51  1  0
 23 52  1  0
 23 53  1  0
 24 54  1  0
M  END
>  <score>  (5) 
-7.464

$$$$
=
     RDKit          3D

 54 57  0  0  0  0  0  0  0  0999 V2000
    1.5440   67.6800   69.4430 O   0  0  0  0  0  0  0  0  0  0  0  0
    1.2880   66.5780   69.9220 C   0  0  0  0  0  0  0  0  0  0  0  0
   -0.0530   66.2540   70.5270 C   0  0  0  0  0  0  0  0  0  0  0  0
    0.1000   65.2280   71.6400 C   0  0  0  0  0  0  0  0  0  0  0  0
    0.8330   63.9260   71.2000 C   0  0  1  0  0  0  0  0  0  0  0  0
    2.0720   64.2790   70.3690 C   0  0  0  0  0  0  0  0  0  0  0  0
    2.2900   65.4930   69.8310 C   0  0  0  0  0  0  0  0  0  0  0  0
    3.0740   63.1720   70.1360 C   0  0  0  0  0  0  0  0  0  0  0  0
    3.4770   62.4820   71.4340 C   0  0  0  0  0  0  0  0  0  0  0  0
    2.2470   61.9650   72.1930 C   0  0  2  0  0  0  0  0  0  0  0  0
    1.2730   63.1430   72.4970 C   0  0  2  0  0  0  0  0  0  0  0  0
    0.0900   62.6900   73.3900 C   0  0  0  0  0  0  0  0  0  0  0  0
    0.5320   61.9190   74.6480 C   0  0  0  0  0  0  0  0  0  0  0  0
    1.4430   60.7260   74.3080 C   0  0  1  0  0  0  0  0  0  0  0  0
    2.6470   61.2950   73.5150 C   0  0  1  0  0  0  0  0  0  0  0  0
    3.6290   60.1310   73.4640 C   0  0  0  0  0  0  0  0  0  0  0  0
    3.4340   59.4050   74.8090 C   0  0  0  0  0  0  0  0  0  0  0  0
    2.1990   60.0570   75.4970 C   0  0  2  0  0  0  0  0  0  0  0  0
    0.6390   59.6600   73.5150 C   0  0  0  0  0  0  0  0  0  0  0  0
   -0.1200   63.0900   70.3160 C   0  0  0  0  0  0  0  0  0  0  0  0
    1.3720   59.0410   76.3160 C   0  0  0  0  0  0  0  0  0  0  0  0
    0.3970   59.3780   76.9920 O   0  0  0  0  0  0  0  0  0  0  0  0
    1.7980   57.5950   76.2800 C   0  0  0  0  0  0  0  0  0  0  0  0
    2.6830   61.0600   76.3990 O   0  0  0  0  0  0  0  0  0  0  0  0
   -0.4958   67.1726   70.9395 H   0  0  0  0  0  0  0  0  0  0  0  0
   -0.7052   65.8373   69.7454 H   0  0  0  0  0  0  0  0  0  0  0  0
    0.6722   65.6880   72.4591 H   0  0  0  0  0  0  0  0  0  0  0  0
   -0.9149   64.9355   71.9471 H   0  0  0  0  0  0  0  0  0  0  0  0
    3.2393   65.6841   69.3092 H   0  0  0  0  0  0  0  0  0  0  0  0
    2.6284   62.4263   69.4612 H   0  0  0  0  0  0  0  0  0  0  0  0
    3.9771   63.6193   69.6952 H   0  0  0  0  0  0  0  0  0  0  0  0
    4.1367   61.6336   71.1995 H   0  0  0  0  0  0  0  0  0  0  0  0
    3.9969   63.2133   72.0703 H   0  0  0  0  0  0  0  0  0  0  0  0
    1.7506   61.2193   71.5546 H   0  0  0  0  0  0  0  0  0  0  0  0
    1.8324   63.8829   73.0883 H   0  0  0  0  0  0  0  0  0  0  0  0
   -0.4692   63.5827   73.7069 H   0  0  0  0  0  0  0  0  0  0  0  0
   -0.5258   62.0045   72.7892 H   0  0  0  0  0  0  0  0  0  0  0  0
    1.0797   62.6056   75.3102 H   0  0  0  0  0  0  0  0  0  0  0  0
   -0.3709   61.5258   75.1380 H   0  0  0  0  0  0  0  0  0  0  0  0
    3.1353   62.1582   73.9910 H   0  0  0  0  0  0  0  0  0  0  0  0
    3.3956   59.4615   72.6230 H   0  0  0  0  0  0  0  0  0  0  0  0
    4.6665   60.4643   73.3143 H   0  0  0  0  0  0  0  0  0  0  0  0
    3.2507   58.3339   74.6381 H   0  0  0  0  0  0  0  0  0  0  0  0
    4.3306   59.4951   75.4398 H   0  0  0  0  0  0  0  0  0  0  0  0
    0.1303   58.9855   74.2194 H   0  0  0  0  0  0  0  0  0  0  0  0
   -0.1084   60.1605   72.8819 H   0  0  0  0  0  0  0  0  0  0  0  0
    1.3257   59.0789   72.8819 H   0  0  0  0  0  0  0  0  0  0  0  0
   -0.7920   62.5005   70.9570 H   0  0  0  0  0  0  0  0  0  0  0  0
   -0.7154   63.7624   69.6809 H   0  0  0  0  0  0  0  0  0  0  0  0
    0.4692   62.4121   69.6809 H   0  0  0  0  0  0  0  0  0  0  0  0
    1.9086   57.2196   77.3080 H   0  0  0  0  0  0  0  0  0  0  0  0
    1.0366   57.0014   75.7528 H   0  0  0  0  0  0  0  0  0  0  0  0
    2.7596   57.5091   75.7528 H   0  0  0  0  0  0  0  0  0  0  0  0
    2.5391   60.7619   77.3320 H   0  0  0  0  0  0  0  0  0  0  0  0
  2  1  2  0
  3  2  1  0
  4  3  1  0
  5  4  1  0
  6  5  1  0
  7  2  1  0
  7  6  2  0
  8  6  1  0
  9  8  1  0
 10  9  1  0
 11 10  1  0
 11  5  1  0
 12 11  1  0
 13 12  1  0
 14 13  1  0
 15 14  1  0
 15 10  1  0
 16 15  1  0
 17 16  1  0
 18 17  1  0
 18 14  1  0
 14 19  1  6
  5 20  1  6
 21 18  1  0
 22 21  2  0
 23 21  1  0
 18 24  1  1
  3 25  1  0
  3 26  1  0
  4 27  1  0
  4 28  1  0
  7 29  1  0
  8 30  1  0
  8 31  1  0
  9 32  1  0
  9 33  1  0
 10 34  1  6
 11 35  1  1
 12 36  1  0
 12 37  1  0
 13 38  1  0
 13 39  1  0
 15 40  1  1
 16 41  1  0
 16 42  1  0
 17 43  1  0
 17 44  1  0
 19 45  1  0
 19 46  1  0
 19 47  1  0
 20 48  1  0
 20 49  1  0
 20 50  1  0
 23 51  1  0
 23 52  1  0
 23 53  1  0
 24 54  1  0
M  END
>  <score>  (6) 
-7.343

$$$$
=
     RDKit          3D

 54 57  0  0  0  0  0  0  0  0999 V2000
   -4.3390   63.2520   76.8180 O   0  0  0  0  0  0  0  0  0  0  0  0
   -3.1740   63.0180   76.5060 C   0  0  0  0  0  0  0  0  0  0  0  0
   -2.0780   64.0390   76.6600 C   0  0  0  0  0  0  0  0  0  0  0  0
   -1.0090   63.8360   75.5960 C   0  0  0  0  0  0  0  0  0  0  0  0
   -0.4170   62.3960   75.5650 C   0  0  1  0  0  0  0  0  0  0  0  0
   -1.5470   61.3640   75.6580 C   0  0  0  0  0  0  0  0  0  0  0  0
   -2.8010   61.6630   76.0430 C   0  0  0  0  0  0  0  0  0  0  0  0
   -1.1940   59.9350   75.3160 C   0  0  0  0  0  0  0  0  0  0  0  0
   -0.4780   59.8270   73.9760 C   0  0  0  0  0  0  0  0  0  0  0  0
    0.7640   60.7280   73.9350 C   0  0  2  0  0  0  0  0  0  0  0  0
    0.3580   62.2090   74.2030 C   0  0  2  0  0  0  0  0  0  0  0  0
    1.5600   63.1720   74.0250 C   0  0  0  0  0  0  0  0  0  0  0  0
    2.3130   62.9730   72.6970 C   0  0  0  0  0  0  0  0  0  0  0  0
    2.7530   61.5130   72.4910 C   0  0  1  0  0  0  0  0  0  0  0  0
    1.4720   60.6440   72.5750 C   0  0  1  0  0  0  0  0  0  0  0  0
    1.9310   59.2760   72.0860 C   0  0  0  0  0  0  0  0  0  0  0  0
    2.9870   59.5880   71.0090 C   0  0  0  0  0  0  0  0  0  0  0  0
    3.2480   61.1210   71.0650 C   0  0  2  0  0  0  0  0  0  0  0  0
    3.8200   61.1310   73.5530 C   0  0  0  0  0  0  0  0  0  0  0  0
    0.5100   62.2090   76.7870 C   0  0  0  0  0  0  0  0  0  0  0  0
    4.7160   61.4850   70.7540 C   0  0  0  0  0  0  0  0  0  0  0  0
    5.6050   60.6330   70.6800 O   0  0  0  0  0  0  0  0  0  0  0  0
    5.0520   62.9420   70.5500 C   0  0  0  0  0  0  0  0  0  0  0  0
    2.4210   61.7400   70.0710 O   0  0  0  0  0  0  0  0  0  0  0  0
   -2.5052   65.0474   76.5566 H   0  0  0  0  0  0  0  0  0  0  0  0
   -1.6192   63.9223   77.6529 H   0  0  0  0  0  0  0  0  0  0  0  0
   -1.4537   64.0492   74.6128 H   0  0  0  0  0  0  0  0  0  0  0  0
   -0.1807   64.5172   75.8407 H   0  0  0  0  0  0  0  0  0  0  0  0
   -3.5708   60.8779   76.0127 H   0  0  0  0  0  0  0  0  0  0  0  0
   -0.5376   59.5338   76.1023 H   0  0  0  0  0  0  0  0  0  0  0  0
   -2.1303   59.3618   75.2471 H   0  0  0  0  0  0  0  0  0  0  0  0
   -0.1692   58.7832   73.8175 H   0  0  0  0  0  0  0  0  0  0  0  0
   -1.1697   60.1518   73.1848 H   0  0  0  0  0  0  0  0  0  0  0  0
    1.4554   60.3777   74.7156 H   0  0  0  0  0  0  0  0  0  0  0  0
   -0.3723   62.4912   73.4303 H   0  0  0  0  0  0  0  0  0  0  0  0
    1.1866   64.2060   74.0623 H   0  0  0  0  0  0  0  0  0  0  0  0
    2.2709   62.9565   74.8362 H   0  0  0  0  0  0  0  0  0  0  0  0
    1.6515   63.2639   71.8677 H   0  0  0  0  0  0  0  0  0  0  0  0
    3.2181   63.5975   72.7253 H   0  0  0  0  0  0  0  0  0  0  0  0
    0.6444   60.9949   71.9411 H   0  0  0  0  0  0  0  0  0  0  0  0
    2.3744   58.6970   72.9095 H   0  0  0  0  0  0  0  0  0  0  0  0
    1.1002   58.6702   71.6952 H   0  0  0  0  0  0  0  0  0  0  0  0
    3.9161   59.0379   71.2192 H   0  0  0  0  0  0  0  0  0  0  0  0
    2.6353   59.2840   70.0121 H   0  0  0  0  0  0  0  0  0  0  0  0
    3.4043   61.2798   74.5605 H   0  0  0  0  0  0  0  0  0  0  0  0
    4.1030   60.0757   73.4253 H   0  0  0  0  0  0  0  0  0  0  0  0
    4.7084   61.7669   73.4253 H   0  0  0  0  0  0  0  0  0  0  0  0
   -0.0740   62.3268   77.7117 H   0  0  0  0  0  0  0  0  0  0  0  0
    0.9544   61.2031   76.7596 H   0  0  0  0  0  0  0  0  0  0  0  0
    1.3096   62.9639   76.7596 H   0  0  0  0  0  0  0  0  0  0  0  0
    5.1651   63.4326   71.5280 H   0  0  0  0  0  0  0  0  0  0  0  0
    5.9931   63.0259   69.9866 H   0  0  0  0  0  0  0  0  0  0  0  0
    4.2427   63.4295   69.9866 H   0  0  0  0  0  0  0  0  0  0  0  0
    1.7125   62.2703   70.5148 H   0  0  0  0  0  0  0  0  0  0  0  0
  2  1  2  0
  3  2  1  0
  4  3  1  0
  5  4  1  0
  6  5  1  0
  7  2  1  0
  7  6  2  0
  8  6  1  0
  9  8  1  0
 10  9  1  0
 11 10  1  0
 11  5  1  0
 12 11  1  0
 13 12  1  0
 14 13  1  0
 15 14  1  0
 15 10  1  0
 16 15  1  0
 17 16  1  0
 18 17  1  0
 18 14  1  0
 14 19  1  1
  5 20  1  1
 21 18  1  0
 22 21  2  0
 23 21  1  0
 18 24  1  6
  3 25  1  0
  3 26  1  0
  4 27  1  0
  4 28  1  0
  7 29  1  0
  8 30  1  0
  8 31  1  0
  9 32  1  0
  9 33  1  0
 10 34  1  1
 11 35  1  6
 12 36  1  0
 12 37  1  0
 13 38  1  0
 13 39  1  0
 15 40  1  6
 16 41  1  0
 16 42  1  0
 17 43  1  0
 17 44  1  0
 19 45  1  0
 19 46  1  0
 19 47  1  0
 20 48  1  0
 20 49  1  0
 20 50  1  0
 23 51  1  0
 23 52  1  0
 23 53  1  0
 24 54  1  0
M  END
>  <score>  (7) 
-7.189

$$$$
=
     RDKit          3D

 54 57  0  0  0  0  0  0  0  0999 V2000
    3.9640   59.3320   69.1480 O   0  0  0  0  0  0  0  0  0  0  0  0
    3.4180   59.3480   70.2490 C   0  0  0  0  0  0  0  0  0  0  0  0
    3.5600   58.2190   71.2350 C   0  0  0  0  0  0  0  0  0  0  0  0
    2.3080   58.1010   72.0920 C   0  0  0  0  0  0  0  0  0  0  0  0
    1.9180   59.4200   72.8210 C   0  0  1  0  0  0  0  0  0  0  0  0
    2.0180   60.6040   71.8510 C   0  0  0  0  0  0  0  0  0  0  0  0
    2.6630   60.5480   70.6710 C   0  0  0  0  0  0  0  0  0  0  0  0
    1.3710   61.8980   72.2860 C   0  0  0  0  0  0  0  0  0  0  0  0
   -0.0710   61.6940   72.7340 C   0  0  0  0  0  0  0  0  0  0  0  0
   -0.1640   60.6320   73.8380 C   0  0  2  0  0  0  0  0  0  0  0  0
    0.4310   59.2830   73.3320 C   0  0  2  0  0  0  0  0  0  0  0  0
    0.2230   58.1440   74.3630 C   0  0  0  0  0  0  0  0  0  0  0  0
   -1.2300   58.0250   74.8600 C   0  0  0  0  0  0  0  0  0  0  0  0
   -1.7670   59.3590   75.4090 C   0  0  1  0  0  0  0  0  0  0  0  0
   -1.6180   60.4020   74.2720 C   0  0  1  0  0  0  0  0  0  0  0  0
   -2.4170   61.6000   74.7740 C   0  0  0  0  0  0  0  0  0  0  0  0
   -3.5870   60.9780   75.5600 C   0  0  0  0  0  0  0  0  0  0  0  0
   -3.3040   59.4510   75.6570 C   0  0  2  0  0  0  0  0  0  0  0  0
   -0.9910   59.7470   76.6980 C   0  0  0  0  0  0  0  0  0  0  0  0
    2.9080   59.6620   73.9830 C   0  0  0  0  0  0  0  0  0  0  0  0
   -3.7940   58.8390   76.9880 C   0  0  0  0  0  0  0  0  0  0  0  0
   -4.0120   59.5270   77.9880 O   0  0  0  0  0  0  0  0  0  0  0  0
   -3.9940   57.3450   77.0450 C   0  0  0  0  0  0  0  0  0  0  0  0
   -4.0130   58.8080   74.5890 O   0  0  0  0  0  0  0  0  0  0  0  0
    3.7144   57.2774   70.6877 H   0  0  0  0  0  0  0  0  0  0  0  0
    4.4212   58.4227   71.8884 H   0  0  0  0  0  0  0  0  0  0  0  0
    1.4709   57.8027   71.4436 H   0  0  0  0  0  0  0  0  0  0  0  0
    2.5232   57.3558   72.8720 H   0  0  0  0  0  0  0  0  0  0  0  0
    2.6277   61.4198   70.0011 H   0  0  0  0  0  0  0  0  0  0  0  0
    1.9468   62.3187   73.1236 H   0  0  0  0  0  0  0  0  0  0  0  0
    1.3650   62.5810   71.4238 H   0  0  0  0  0  0  0  0  0  0  0  0
   -0.4656   62.6463   73.1180 H   0  0  0  0  0  0  0  0  0  0  0  0
   -0.6590   61.3508   71.8700 H   0  0  0  0  0  0  0  0  0  0  0  0
    0.4094   60.9990   74.7021 H   0  0  0  0  0  0  0  0  0  0  0  0
   -0.1408   58.9912   72.4388 H   0  0  0  0  0  0  0  0  0  0  0  0
    0.5095   57.1917   73.8928 H   0  0  0  0  0  0  0  0  0  0  0  0
    0.8465   58.3807   75.2378 H   0  0  0  0  0  0  0  0  0  0  0  0
   -1.8662   57.7050   74.0217 H   0  0  0  0  0  0  0  0  0  0  0  0
   -1.2481   57.2907   75.6788 H   0  0  0  0  0  0  0  0  0  0  0  0
   -2.0246   60.0759   73.3033 H   0  0  0  0  0  0  0  0  0  0  0  0
   -1.8001   62.2322   75.4296 H   0  0  0  0  0  0  0  0  0  0  0  0
   -2.7602   62.2483   73.9543 H   0  0  0  0  0  0  0  0  0  0  0  0
   -3.6424   61.4173   76.5669 H   0  0  0  0  0  0  0  0  0  0  0  0
   -4.5461   61.1699   75.0567 H   0  0  0  0  0  0  0  0  0  0  0  0
   -1.5774   59.4538   77.5813 H   0  0  0  0  0  0  0  0  0  0  0  0
   -0.0214   59.2276   76.7126 H   0  0  0  0  0  0  0  0  0  0  0  0
   -0.8248   60.8343   76.7126 H   0  0  0  0  0  0  0  0  0  0  0  0
    2.3855   59.5343   74.9425 H   0  0  0  0  0  0  0  0  0  0  0  0
    3.7348   58.9395   73.9167 H   0  0  0  0  0  0  0  0  0  0  0  0
    3.3083   60.6844   73.9167 H   0  0  0  0  0  0  0  0  0  0  0  0
   -4.0374   57.0207   78.0952 H   0  0  0  0  0  0  0  0  0  0  0  0
   -4.9354   57.0816   76.5407 H   0  0  0  0  0  0  0  0  0  0  0  0
   -3.1550   56.8432   76.5407 H   0  0  0  0  0  0  0  0  0  0  0  0
   -4.6910   58.1931   74.9662 H   0  0  0  0  0  0  0  0  0  0  0  0
  2  1  2  0
  3  2  1  0
  4  3  1  0
  5  4  1  0
  6  5  1  0
  7  2  1  0
  7  6  2  0
  8  6  1  0
  9  8  1  0
 10  9  1  0
 11 10  1  0
 11  5  1  0
 12 11  1  0
 13 12  1  0
 14 13  1  0
 15 14  1  0
 15 10  1  0
 16 15  1  0
 17 16  1  0
 18 17  1  0
 18 14  1  0
 14 19  1  1
  5 20  1  1
 21 18  1  0
 22 21  2  0
 23 21  1  0
 18 24  1  6
  3 25  1  0
  3 26  1  0
  4 27  1  0
  4 28  1  0
  7 29  1  0
  8 30  1  0
  8 31  1  0
  9 32  1  0
  9 33  1  0
 10 34  1  1
 11 35  1  6
 12 36  1  0
 12 37  1  0
 13 38  1  0
 13 39  1  0
 15 40  1  6
 16 41  1  0
 16 42  1  0
 17 43  1  0
 17 44  1  0
 19 45  1  0
 19 46  1  0
 19 47  1  0
 20 48  1  0
 20 49  1  0
 20 50  1  0
 23 51  1  0
 23 52  1  0
 23 53  1  0
 24 54  1  0
M  END
>  <score>  (8) 
-7.141

$$$$
=
     RDKit          3D

 54 57  0  0  0  0  0  0  0  0999 V2000
    2.6320   64.1570   69.7800 O   0  0  0  0  0  0  0  0  0  0  0  0
    2.2750   63.3820   70.6640 C   0  0  0  0  0  0  0  0  0  0  0  0
    1.1620   63.7110   71.6220 C   0  0  0  0  0  0  0  0  0  0  0  0
    1.4010   63.0370   72.9660 C   0  0  0  0  0  0  0  0  0  0  0  0
    1.6060   61.4960   72.8710 C   0  0  1  0  0  0  0  0  0  0  0  0
    2.5630   61.1660   71.7180 C   0  0  0  0  0  0  0  0  0  0  0  0
    2.8920   62.0400   70.7490 C   0  0  0  0  0  0  0  0  0  0  0  0
    3.1280   59.7660   71.6820 C   0  0  0  0  0  0  0  0  0  0  0  0
    3.7390   59.3610   73.0180 C   0  0  0  0  0  0  0  0  0  0  0  0
    2.7270   59.5190   74.1620 C   0  0  2  0  0  0  0  0  0  0  0  0
    2.2270   60.9940   74.2310 C   0  0  2  0  0  0  0  0  0  0  0  0
    1.3160   61.2310   75.4640 C   0  0  0  0  0  0  0  0  0  0  0  0
    1.9300   60.7280   76.7840 C   0  0  0  0  0  0  0  0  0  0  0  0
    2.3580   59.2530   76.7010 C   0  0  1  0  0  0  0  0  0  0  0  0
    3.3480   59.1400   75.5140 C   0  0  1  0  0  0  0  0  0  0  0  0
    3.9400   57.7440   75.6680 C   0  0  0  0  0  0  0  0  0  0  0  0
    4.0090   57.5230   77.1910 C   0  0  0  0  0  0  0  0  0  0  0  0
    3.2610   58.7160   77.8540 C   0  0  2  0  0  0  0  0  0  0  0  0
    1.1040   58.3500   76.5380 C   0  0  0  0  0  0  0  0  0  0  0  0
    0.2440   60.8270   72.5750 C   0  0  0  0  0  0  0  0  0  0  0  0
    2.5120   58.3060   79.1410 C   0  0  0  0  0  0  0  0  0  0  0  0
    1.9220   59.1240   79.8500 O   0  0  0  0  0  0  0  0  0  0  0  0
    2.5290   56.8480   79.5300 C   0  0  0  0  0  0  0  0  0  0  0  0
    4.2410   59.7000   78.2090 O   0  0  0  0  0  0  0  0  0  0  0  0
    1.1180   64.8007   71.7659 H   0  0  0  0  0  0  0  0  0  0  0  0
    0.2123   63.3459   71.2040 H   0  0  0  0  0  0  0  0  0  0  0  0
    2.3003   63.4788   73.4201 H   0  0  0  0  0  0  0  0  0  0  0  0
    0.4977   63.2024   73.5715 H   0  0  0  0  0  0  0  0  0  0  0  0
    3.6413   61.7482   69.9984 H   0  0  0  0  0  0  0  0  0  0  0  0
    2.3190   59.0631   71.4341 H   0  0  0  0  0  0  0  0  0  0  0  0
    3.9242   59.7410   70.9234 H   0  0  0  0  0  0  0  0  0  0  0  0
    4.0571   58.3094   72.9630 H   0  0  0  0  0  0  0  0  0  0  0  0
    4.5990   60.0162   73.2207 H   0  0  0  0  0  0  0  0  0  0  0  0
    1.8841   58.8423   73.9579 H   0  0  0  0  0  0  0  0  0  0  0  0
    3.1116   61.6304   74.3807 H   0  0  0  0  0  0  0  0  0  0  0  0
    1.1279   62.3109   75.5561 H   0  0  0  0  0  0  0  0  0  0  0  0
    0.3903   60.6604   75.2983 H   0  0  0  0  0  0  0  0  0  0  0  0
    2.8129   61.3403   77.0200 H   0  0  0  0  0  0  0  0  0  0  0  0
    1.1626   60.8133   77.5674 H   0  0  0  0  0  0  0  0  0  0  0  0
    4.1613   59.8804   75.5310 H   0  0  0  0  0  0  0  0  0  0  0  0
    3.2918   56.9919   75.1945 H   0  0  0  0  0  0  0  0  0  0  0  0
    4.9242   57.6504   75.1857 H   0  0  0  0  0  0  0  0  0  0  0  0
    3.5205   56.5744   77.4583 H   0  0  0  0  0  0  0  0  0  0  0  0
    5.0526   57.4718   77.5351 H   0  0  0  0  0  0  0  0  0  0  0  0
    0.7198   58.0733   77.5309 H   0  0  0  0  0  0  0  0  0  0  0  0
    0.3274   58.8975   75.9839 H   0  0  0  0  0  0  0  0  0  0  0  0
    1.3771   57.4399   75.9839 H   0  0  0  0  0  0  0  0  0  0  0  0
   -0.2572   60.5808   73.5227 H   0  0  0  0  0  0  0  0  0  0  0  0
   -0.3859   61.5183   71.9958 H   0  0  0  0  0  0  0  0  0  0  0  0
    0.4061   59.9060   71.9958 H   0  0  0  0  0  0  0  0  0  0  0  0
    2.5300   56.7611   80.6266 H   0  0  0  0  0  0  0  0  0  0  0  0
    1.6366   56.3496   79.1235 H   0  0  0  0  0  0  0  0  0  0  0  0
    3.4328   56.3706   79.1235 H   0  0  0  0  0  0  0  0  0  0  0  0
    4.3035   59.7627   79.1950 H   0  0  0  0  0  0  0  0  0  0  0  0
  2  1  2  0
  3  2  1  0
  4  3  1  0
  5  4  1  0
  6  5  1  0
  7  2  1  0
  7  6  2  0
  8  6  1  0
  9  8  1  0
 10  9  1  0
 11 10  1  0
 11  5  1  0
 12 11  1  0
 13 12  1  0
 14 13  1  0
 15 14  1  0
 15 10  1  0
 16 15  1  0
 17 16  1  0
 18 17  1  0
 18 14  1  0
 14 19  1  6
  5 20  1  6
 21 18  1  0
 22 21  2  0
 23 21  1  0
 18 24  1  1
  3 25  1  0
  3 26  1  0
  4 27  1  0
  4 28  1  0
  7 29  1  0
  8 30  1  0
  8 31  1  0
  9 32  1  0
  9 33  1  0
 10 34  1  6
 11 35  1  1
 12 36  1  0
 12 37  1  0
 13 38  1  0
 13 39  1  0
 15 40  1  1
 16 41  1  0
 16 42  1  0
 17 43  1  0
 17 44  1  0
 19 45  1  0
 19 46  1  0
 19 47  1  0
 20 48  1  0
 20 49  1  0
 20 50  1  0
 23 51  1  0
 23 52  1  0
 23 53  1  0
 24 54  1  0
M  END
>  <score>  (9) 
-6.786

$$$$
