=
     RDKit          3D

 60 62  0  0  0  0  0  0  0  0999 V2000
    5.3830   70.7140   67.9100 C   0  0  0  0  0  0  0  0  0  0  0  0
    4.4310   71.0390   68.8780 C   0  0  0  0  0  0  0  0  0  0  0  0
    3.1760   70.4300   68.8450 C   0  0  0  0  0  0  0  0  0  0  0  0
    2.8500   69.4950   67.8510 C   0  0  0  0  0  0  0  0  0  0  0  0
    3.8120   69.2090   66.8670 C   0  0  0  0  0  0  0  0  0  0  0  0
    5.0800   69.8210   66.8760 C   0  0  0  0  0  0  0  0  0  0  0  0
    1.5380   68.8230   67.7750 C   0  0  0  0  0  0  0  0  0  0  0  0
    1.2570   67.7450   68.5230 C   0  0  0  0  0  0  0  0  0  0  0  0
   -0.0610   67.1120   68.3930 C   0  0  0  0  0  0  0  0  0  0  0  0
   -0.3690   66.1200   69.0450 O   0  0  0  0  0  0  0  0  0  0  0  0
   -1.0000   67.7150   67.4390 C   0  0  0  0  0  0  0  0  0  0  0  0
   -0.5810   68.8290   66.7140 C   0  0  0  0  0  0  0  0  0  0  0  0
    0.6680   69.3820   66.8510 O   0  0  0  0  0  0  0  0  0  0  0  0
   -1.4420   69.4350   65.7950 C   0  0  0  0  0  0  0  0  0  0  0  0
   -2.7190   68.9110   65.6140 C   0  0  0  0  0  0  0  0  0  0  0  0
   -3.1470   67.7970   66.3320 C   0  0  0  0  0  0  0  0  0  0  0  0
   -2.2850   67.1980   67.2460 C   0  0  0  0  0  0  0  0  0  0  0  0
   -2.7570   66.1050   67.9230 O   0  0  0  0  0  0  0  0  0  0  0  0
   -3.5940   69.4690   64.7290 O   0  0  0  0  0  0  0  0  0  0  0  0
    7.3480   70.9890   69.0930 C   0  0  0  0  0  0  0  0  0  0  0  0
    6.6080   71.3290   67.9200 O   0  0  0  0  0  0  0  0  0  0  0  0
    2.2420   70.7650   69.7920 O   0  0  0  0  0  0  0  0  0  0  0  0
    6.0870   69.4720   65.8020 C   0  0  0  0  0  0  0  0  0  0  0  0
    5.5380   69.6790   64.4160 C   0  0  0  0  0  0  0  0  0  0  0  0
    5.0940   68.7520   63.5420 C   0  0  0  0  0  0  0  0  0  0  0  0
    5.0290   67.2730   63.8130 C   0  0  0  0  0  0  0  0  0  0  0  0
    4.5770   69.1800   62.1790 C   0  0  0  0  0  0  0  0  0  0  0  0
    3.5350   68.2080   61.6090 C   0  0  0  0  0  0  0  0  0  0  0  0
    2.1580   68.8150   61.6170 C   0  0  0  0  0  0  0  0  0  0  0  0
    1.2360   68.7500   62.5960 C   0  0  0  0  0  0  0  0  0  0  0  0
    1.3970   67.9950   63.8860 C   0  0  0  0  0  0  0  0  0  0  0  0
   -0.0890   69.4520   62.4520 C   0  0  0  0  0  0  0  0  0  0  0  0
    4.6691   71.7718   69.6631 H   0  0  0  0  0  0  0  0  0  0  0  0
    3.5685   68.4900   66.0710 H   0  0  0  0  0  0  0  0  0  0  0  0
    2.0033   67.3416   69.2232 H   0  0  0  0  0  0  0  0  0  0  0  0
   -1.1148   70.3150   65.2218 H   0  0  0  0  0  0  0  0  0  0  0  0
   -4.1587   67.3936   66.1779 H   0  0  0  0  0  0  0  0  0  0  0  0
   -2.1806   65.6449   68.5835 H   0  0  0  0  0  0  0  0  0  0  0  0
   -4.4977   69.0811   64.6151 H   0  0  0  0  0  0  0  0  0  0  0  0
    6.7639   71.2574   69.9856 H   0  0  0  0  0  0  0  0  0  0  0  0
    7.5501   69.9077   69.0985 H   0  0  0  0  0  0  0  0  0  0  0  0
    8.3000   71.5400   69.0985 H   0  0  0  0  0  0  0  0  0  0  0  0
    1.3483   70.3392   69.7782 H   0  0  0  0  0  0  0  0  0  0  0  0
    6.9751   70.1083   65.9295 H   0  0  0  0  0  0  0  0  0  0  0  0
    6.3379   68.4064   65.9091 H   0  0  0  0  0  0  0  0  0  0  0  0
    5.4929   70.7223   64.0705 H   0  0  0  0  0  0  0  0  0  0  0  0
    5.0214   67.0992   64.8992 H   0  0  0  0  0  0  0  0  0  0  0  0
    4.1118   66.8588   63.3690 H   0  0  0  0  0  0  0  0  0  0  0  0
    5.9063   66.7800   63.3690 H   0  0  0  0  0  0  0  0  0  0  0  0
    4.1161   70.1743   62.2738 H   0  0  0  0  0  0  0  0  0  0  0  0
    5.4327   69.1926   61.4879 H   0  0  0  0  0  0  0  0  0  0  0  0
    3.8091   67.9555   60.5741 H   0  0  0  0  0  0  0  0  0  0  0  0
    3.5204   67.3065   62.2391 H   0  0  0  0  0  0  0  0  0  0  0  0
    1.8709   69.3782   60.7168 H   0  0  0  0  0  0  0  0  0  0  0  0
    1.2507   68.6812   64.7332 H   0  0  0  0  0  0  0  0  0  0  0  0
    0.6507   67.1884   63.9344 H   0  0  0  0  0  0  0  0  0  0  0  0
    2.4075   67.5630   63.9344 H   0  0  0  0  0  0  0  0  0  0  0  0
   -0.4991   69.6693   63.4493 H   0  0  0  0  0  0  0  0  0  0  0  0
    0.0528   70.3933   61.9008 H   0  0  0  0  0  0  0  0  0  0  0  0
   -0.7882   68.8060   61.9008 H   0  0  0  0  0  0  0  0  0  0  0  0
  2  1  2  0
  3  2  1  0
  4  3  2  0
  5  4  1  0
  6  5  2  0
  6  1  1  0
  7  4  1  0
  8  7  2  0
  9  8  1  0
 10  9  2  0
 11  9  1  0
 12 11  2  0
 13 12  1  0
 13  7  1  0
 14 12  1  0
 15 14  2  0
 16 15  1  0
 17 16  2  0
 17 11  1  0
 18 17  1  0
 19 15  1  0
 21  1  1  0
 21 20  1  0
 22  3  1  0
 23  6  1  0
 24 23  1  0
 25 24  2  0
 26 25  1  0
 27 25  1  0
 28 27  1  0
 29 28  1  0
 30 29  2  3
 31 30  1  0
 32 30  1  0
  2 33  1  0
  5 34  1  0
  8 35  1  0
 14 36  1  0
 16 37  1  0
 18 38  1  0
 19 39  1  0
 20 40  1  0
 20 41  1  0
 20 42  1  0
 22 43  1  0
 23 44  1  0
 23 45  1  0
 24 46  1  0
 26 47  1  0
 26 48  1  0
 26 49  1  0
 27 50  1  0
 27 51  1  0
 28 52  1  0
 28 53  1  0
 29 54  1  0
 31 55  1  0
 31 56  1  0
 31 57  1  0
 32 58  1  0
 32 59  1  0
 32 60  1  0
M  END
>  <score>  (1) 
-10.704

$$$$
=
     RDKit          3D

 60 62  0  0  0  0  0  0  0  0999 V2000
    5.5390   70.5830   67.6390 C   0  0  0  0  0  0  0  0  0  0  0  0
    4.6990   70.7950   68.7340 C   0  0  0  0  0  0  0  0  0  0  0  0
    3.4260   70.2220   68.7490 C   0  0  0  0  0  0  0  0  0  0  0  0
    2.9720   69.4380   67.6790 C   0  0  0  0  0  0  0  0  0  0  0  0
    3.8210   69.2660   66.5720 C   0  0  0  0  0  0  0  0  0  0  0  0
    5.1050   69.8440   66.5320 C   0  0  0  0  0  0  0  0  0  0  0  0
    1.6360   68.8100   67.6500 C   0  0  0  0  0  0  0  0  0  0  0  0
    1.3150   67.8040   68.4770 C   0  0  0  0  0  0  0  0  0  0  0  0
   -0.0260   67.2120   68.3910 C   0  0  0  0  0  0  0  0  0  0  0  0
   -0.3700   66.2850   69.1160 O   0  0  0  0  0  0  0  0  0  0  0  0
   -0.9420   67.7740   67.3900 C   0  0  0  0  0  0  0  0  0  0  0  0
   -0.4810   68.8140   66.5840 C   0  0  0  0  0  0  0  0  0  0  0  0
    0.7880   69.3290   66.6820 O   0  0  0  0  0  0  0  0  0  0  0  0
   -1.3180   69.3780   65.6180 C   0  0  0  0  0  0  0  0  0  0  0  0
   -2.6130   68.8900   65.4730 C   0  0  0  0  0  0  0  0  0  0  0  0
   -3.0830   67.8500   66.2720 C   0  0  0  0  0  0  0  0  0  0  0  0
   -2.2440   67.2910   67.2320 C   0  0  0  0  0  0  0  0  0  0  0  0
   -2.7570   66.2720   67.9890 O   0  0  0  0  0  0  0  0  0  0  0  0
   -3.4670   69.4100   64.5440 O   0  0  0  0  0  0  0  0  0  0  0  0
    7.4040   71.1270   68.8880 C   0  0  0  0  0  0  0  0  0  0  0  0
    6.7810   71.1650   67.6040 O   0  0  0  0  0  0  0  0  0  0  0  0
    2.6040   70.4470   69.8220 O   0  0  0  0  0  0  0  0  0  0  0  0
    5.9880   69.6220   65.3240 C   0  0  0  0  0  0  0  0  0  0  0  0
    5.6460   68.3500   64.5940 C   0  0  0  0  0  0  0  0  0  0  0  0
    5.3110   68.1910   63.2970 C   0  0  0  0  0  0  0  0  0  0  0  0
    5.2450   69.3000   62.2820 C   0  0  0  0  0  0  0  0  0  0  0  0
    4.9980   66.8060   62.7570 C   0  0  0  0  0  0  0  0  0  0  0  0
    3.5590   66.3660   63.0530 C   0  0  0  0  0  0  0  0  0  0  0  0
    3.4820   65.5600   64.3210 C   0  0  0  0  0  0  0  0  0  0  0  0
    4.0550   64.3670   64.5740 C   0  0  0  0  0  0  0  0  0  0  0  0
    4.8650   63.5710   63.5890 C   0  0  0  0  0  0  0  0  0  0  0  0
    3.9030   63.7130   65.9230 C   0  0  0  0  0  0  0  0  0  0  0  0
    5.0384   71.4102   69.5803 H   0  0  0  0  0  0  0  0  0  0  0  0
    3.4748   68.6663   65.7173 H   0  0  0  0  0  0  0  0  0  0  0  0
    2.0453   67.4281   69.2087 H   0  0  0  0  0  0  0  0  0  0  0  0
   -0.9576   70.1981   64.9796 H   0  0  0  0  0  0  0  0  0  0  0  0
   -4.1088   67.4736   66.1453 H   0  0  0  0  0  0  0  0  0  0  0  0
   -2.1986   65.8426   68.6846 H   0  0  0  0  0  0  0  0  0  0  0  0
   -4.3844   69.0480   64.4574 H   0  0  0  0  0  0  0  0  0  0  0  0
    6.6330   71.1740   69.6712 H   0  0  0  0  0  0  0  0  0  0  0  0
    7.9748   70.1924   68.9911 H   0  0  0  0  0  0  0  0  0  0  0  0
    8.0842   71.9853   68.9911 H   0  0  0  0  0  0  0  0  0  0  0  0
    1.6990   70.0464   69.8448 H   0  0  0  0  0  0  0  0  0  0  0  0
    5.8644   70.4701   64.6345 H   0  0  0  0  0  0  0  0  0  0  0  0
    7.0268   69.5397   65.6762 H   0  0  0  0  0  0  0  0  0  0  0  0
    5.6729   67.4305   65.1971 H   0  0  0  0  0  0  0  0  0  0  0  0
    5.1874   70.2685   62.8003 H   0  0  0  0  0  0  0  0  0  0  0  0
    6.1463   69.2744   61.6519 H   0  0  0  0  0  0  0  0  0  0  0  0
    4.3531   69.1677   61.6519 H   0  0  0  0  0  0  0  0  0  0  0  0
    5.1471   66.8113   61.6672 H   0  0  0  0  0  0  0  0  0  0  0  0
    5.6721   66.0947   63.2566 H   0  0  0  0  0  0  0  0  0  0  0  0
    2.9258   67.2594   63.1576 H   0  0  0  0  0  0  0  0  0  0  0  0
    3.2110   65.7366   62.2207 H   0  0  0  0  0  0  0  0  0  0  0  0
    2.8880   65.9959   65.1378 H   0  0  0  0  0  0  0  0  0  0  0  0
    5.5472   62.9006   64.1322 H   0  0  0  0  0  0  0  0  0  0  0  0
    4.1907   62.9744   62.9570 H   0  0  0  0  0  0  0  0  0  0  0  0
    5.4498   64.2556   62.9570 H   0  0  0  0  0  0  0  0  0  0  0  0
    4.0762   64.4582   66.7134 H   0  0  0  0  0  0  0  0  0  0  0  0
    2.8861   63.3050   66.0202 H   0  0  0  0  0  0  0  0  0  0  0  0
    4.6357   62.8984   66.0202 H   0  0  0  0  0  0  0  0  0  0  0  0
  2  1  2  0
  3  2  1  0
  4  3  2  0
  5  4  1  0
  6  5  2  0
  6  1  1  0
  7  4  1  0
  8  7  2  0
  9  8  1  0
 10  9  2  0
 11  9  1  0
 12 11  2  0
 13 12  1  0
 13  7  1  0
 14 12  1  0
 15 14  2  0
 16 15  1  0
 17 16  2  0
 17 11  1  0
 18 17  1  0
 19 15  1  0
 21  1  1  0
 21 20  1  0
 22  3  1  0
 23  6  1  0
 24 23  1  0
 25 24  2  0
 26 25  1  0
 27 25  1  0
 28 27  1  0
 29 28  1  0
 30 29  2  3
 31 30  1  0
 32 30  1  0
  2 33  1  0
  5 34  1  0
  8 35  1  0
 14 36  1  0
 16 37  1  0
 18 38  1  0
 19 39  1  0
 20 40  1  0
 20 41  1  0
 20 42  1  0
 22 43  1  0
 23 44  1  0
 23 45  1  0
 24 46  1  0
 26 47  1  0
 26 48  1  0
 26 49  1  0
 27 50  1  0
 27 51  1  0
 28 52  1  0
 28 53  1  0
 29 54  1  0
 31 55  1  0
 31 56  1  0
 31 57  1  0
 32 58  1  0
 32 59  1  0
 32 60  1  0
M  END
>  <score>  (2) 
-10.29

$$$$
=
     RDKit          3D

 60 62  0  0  0  0  0  0  0  0999 V2000
    0.1150   68.5000   67.4780 C   0  0  0  0  0  0  0  0  0  0  0  0
   -0.7850   67.4470   67.6550 C   0  0  0  0  0  0  0  0  0  0  0  0
   -0.4940   66.4360   68.5720 C   0  0  0  0  0  0  0  0  0  0  0  0
    0.6930   66.4560   69.3200 C   0  0  0  0  0  0  0  0  0  0  0  0
    1.6000   67.5080   69.1010 C   0  0  0  0  0  0  0  0  0  0  0  0
    1.3300   68.5310   68.1730 C   0  0  0  0  0  0  0  0  0  0  0  0
    1.0440   65.4110   70.3030 C   0  0  0  0  0  0  0  0  0  0  0  0
    0.2730   65.1670   71.3730 C   0  0  0  0  0  0  0  0  0  0  0  0
    0.6830   64.1250   72.3230 C   0  0  0  0  0  0  0  0  0  0  0  0
    0.0210   63.8640   73.3210 O   0  0  0  0  0  0  0  0  0  0  0  0
    1.9290   63.4050   72.0280 C   0  0  0  0  0  0  0  0  0  0  0  0
    2.6440   63.7630   70.8860 C   0  0  0  0  0  0  0  0  0  0  0  0
    2.2370   64.7580   70.0320 O   0  0  0  0  0  0  0  0  0  0  0  0
    3.8340   63.1050   70.5680 C   0  0  0  0  0  0  0  0  0  0  0  0
    4.2950   62.0920   71.4030 C   0  0  0  0  0  0  0  0  0  0  0  0
    3.5890   61.7270   72.5470 C   0  0  0  0  0  0  0  0  0  0  0  0
    2.4030   62.3870   72.8600 C   0  0  0  0  0  0  0  0  0  0  0  0
    1.7510   61.9890   73.9960 O   0  0  0  0  0  0  0  0  0  0  0  0
    5.4520   61.4210   71.1320 O   0  0  0  0  0  0  0  0  0  0  0  0
   -1.0790   69.0290   65.5730 C   0  0  0  0  0  0  0  0  0  0  0  0
   -0.1510   69.4820   66.5590 O   0  0  0  0  0  0  0  0  0  0  0  0
   -1.3760   65.4000   68.7300 O   0  0  0  0  0  0  0  0  0  0  0  0
    2.3310   69.6490   67.9790 C   0  0  0  0  0  0  0  0  0  0  0  0
    3.1810   69.4480   66.7520 C   0  0  0  0  0  0  0  0  0  0  0  0
    4.4930   69.7140   66.5860 C   0  0  0  0  0  0  0  0  0  0  0  0
    5.4030   70.2560   67.6550 C   0  0  0  0  0  0  0  0  0  0  0  0
    5.1620   69.4350   65.2510 C   0  0  0  0  0  0  0  0  0  0  0  0
    4.1910   68.8610   64.2120 C   0  0  0  0  0  0  0  0  0  0  0  0
    4.4580   67.4010   63.9620 C   0  0  0  0  0  0  0  0  0  0  0  0
    3.6660   66.3560   64.2710 C   0  0  0  0  0  0  0  0  0  0  0  0
    2.3480   66.4520   64.9890 C   0  0  0  0  0  0  0  0  0  0  0  0
    4.0740   64.9500   63.9130 C   0  0  0  0  0  0  0  0  0  0  0  0
   -1.7188   67.4146   67.0745 H   0  0  0  0  0  0  0  0  0  0  0  0
    2.5423   67.5319   69.6681 H   0  0  0  0  0  0  0  0  0  0  0  0
   -0.6524   65.7388   71.5364 H   0  0  0  0  0  0  0  0  0  0  0  0
    4.4005   63.3844   69.6675 H   0  0  0  0  0  0  0  0  0  0  0  0
    3.9651   60.9240   73.1980 H   0  0  0  0  0  0  0  0  0  0  0  0
    0.9040   62.4282   74.2603 H   0  0  0  0  0  0  0  0  0  0  0  0
    5.7620   60.7034   71.7395 H   0  0  0  0  0  0  0  0  0  0  0  0
   -1.9609   68.5985   66.0699 H   0  0  0  0  0  0  0  0  0  0  0  0
   -1.3895   69.8769   64.9447 H   0  0  0  0  0  0  0  0  0  0  0  0
   -0.6015   68.2626   64.9447 H   0  0  0  0  0  0  0  0  0  0  0  0
   -1.1799   64.6773   69.3776 H   0  0  0  0  0  0  0  0  0  0  0  0
    1.7855   70.5991   67.8798 H   0  0  0  0  0  0  0  0  0  0  0  0
    2.9986   69.6587   68.8532 H   0  0  0  0  0  0  0  0  0  0  0  0
    2.6639   69.0292   65.8761 H   0  0  0  0  0  0  0  0  0  0  0  0
    4.9918   70.0111   68.6454 H   0  0  0  0  0  0  0  0  0  0  0  0
    6.4008   69.8049   67.5505 H   0  0  0  0  0  0  0  0  0  0  0  0
    5.4816   71.3482   67.5505 H   0  0  0  0  0  0  0  0  0  0  0  0
    5.5779   70.3762   64.8621 H   0  0  0  0  0  0  0  0  0  0  0  0
    5.9473   68.6842   65.4229 H   0  0  0  0  0  0  0  0  0  0  0  0
    3.1612   68.9790   64.5803 H   0  0  0  0  0  0  0  0  0  0  0  0
    4.3313   69.4064   63.2671 H   0  0  0  0  0  0  0  0  0  0  0  0
    5.4113   67.1590   63.4694 H   0  0  0  0  0  0  0  0  0  0  0  0
    2.5205   66.4394   66.0753 H   0  0  0  0  0  0  0  0  0  0  0  0
    1.8450   67.3892   64.7084 H   0  0  0  0  0  0  0  0  0  0  0  0
    1.7145   65.5976   64.7084 H   0  0  0  0  0  0  0  0  0  0  0  0
    4.2419   64.3714   64.8333 H   0  0  0  0  0  0  0  0  0  0  0  0
    3.2764   64.4759   63.3222 H   0  0  0  0  0  0  0  0  0  0  0  0
    5.0015   64.9765   63.3222 H   0  0  0  0  0  0  0  0  0  0  0  0
  2  1  2  0
  3  2  1  0
  4  3  2  0
  5  4  1  0
  6  5  2  0
  6  1  1  0
  7  4  1  0
  8  7  2  0
  9  8  1  0
 10  9  2  0
 11  9  1  0
 12 11  2  0
 13 12  1  0
 13  7  1  0
 14 12  1  0
 15 14  2  0
 16 15  1  0
 17 16  2  0
 17 11  1  0
 18 17  1  0
 19 15  1  0
 21  1  1  0
 21 20  1  0
 22  3  1  0
 23  6  1  0
 24 23  1  0
 25 24  2  0
 26 25  1  0
 27 25  1  0
 28 27  1  0
 29 28  1  0
 30 29  2  3
 31 30  1  0
 32 30  1  0
  2 33  1  0
  5 34  1  0
  8 35  1  0
 14 36  1  0
 16 37  1  0
 18 38  1  0
 19 39  1  0
 20 40  1  0
 20 41  1  0
 20 42  1  0
 22 43  1  0
 23 44  1  0
 23 45  1  0
 24 46  1  0
 26 47  1  0
 26 48  1  0
 26 49  1  0
 27 50  1  0
 27 51  1  0
 28 52  1  0
 28 53  1  0
 29 54  1  0
 31 55  1  0
 31 56  1  0
 31 57  1  0
 32 58  1  0
 32 59  1  0
 32 60  1  0
M  END
>  <score>  (3) 
-9.75

$$$$
=
     RDKit          3D

 60 62  0  0  0  0  0  0  0  0999 V2000
   -1.0850   67.2000   67.4420 C   0  0  0  0  0  0  0  0  0  0  0  0
   -0.9270   67.9230   66.2580 C   0  0  0  0  0  0  0  0  0  0  0  0
    0.3050   68.5130   65.9680 C   0  0  0  0  0  0  0  0  0  0  0  0
    1.3900   68.3950   66.8480 C   0  0  0  0  0  0  0  0  0  0  0  0
    1.1980   67.6910   68.0500 C   0  0  0  0  0  0  0  0  0  0  0  0
   -0.0390   67.0990   68.3670 C   0  0  0  0  0  0  0  0  0  0  0  0
    2.7110   68.9990   66.5840 C   0  0  0  0  0  0  0  0  0  0  0  0
    3.2070   69.0890   65.3410 C   0  0  0  0  0  0  0  0  0  0  0  0
    4.5330   69.6870   65.1440 C   0  0  0  0  0  0  0  0  0  0  0  0
    5.0370   69.7880   64.0310 O   0  0  0  0  0  0  0  0  0  0  0  0
    5.2380   70.1580   66.3430 C   0  0  0  0  0  0  0  0  0  0  0  0
    4.6170   69.9960   67.5810 C   0  0  0  0  0  0  0  0  0  0  0  0
    3.3820   69.4130   67.7260 O   0  0  0  0  0  0  0  0  0  0  0  0
    5.2520   70.4280   68.7480 C   0  0  0  0  0  0  0  0  0  0  0  0
    6.5080   71.0210   68.6580 C   0  0  0  0  0  0  0  0  0  0  0  0
    7.1380   71.1860   67.4260 C   0  0  0  0  0  0  0  0  0  0  0  0
    6.5010   70.7520   66.2670 C   0  0  0  0  0  0  0  0  0  0  0  0
    7.1660   70.9390   65.0850 O   0  0  0  0  0  0  0  0  0  0  0  0
    7.1650   71.4590   69.7700 O   0  0  0  0  0  0  0  0  0  0  0  0
   -3.3610   67.3090   67.0640 C   0  0  0  0  0  0  0  0  0  0  0  0
   -2.2990   66.6410   67.7470 O   0  0  0  0  0  0  0  0  0  0  0  0
    0.4470   69.2320   64.8100 O   0  0  0  0  0  0  0  0  0  0  0  0
   -0.1950   66.3410   69.6670 C   0  0  0  0  0  0  0  0  0  0  0  0
    1.0710   65.6320   70.0690 C   0  0  0  0  0  0  0  0  0  0  0  0
    1.2100   64.4050   70.6130 C   0  0  0  0  0  0  0  0  0  0  0  0
    0.0770   63.4580   70.9030 C   0  0  0  0  0  0  0  0  0  0  0  0
    2.5940   63.8750   70.9490 C   0  0  0  0  0  0  0  0  0  0  0  0
    3.3830   63.4510   69.7040 C   0  0  0  0  0  0  0  0  0  0  0  0
    3.1760   61.9930   69.3930 C   0  0  0  0  0  0  0  0  0  0  0  0
    3.8600   60.9420   69.8850 C   0  0  0  0  0  0  0  0  0  0  0  0
    5.0260   61.0350   70.8300 C   0  0  0  0  0  0  0  0  0  0  0  0
    3.4930   59.5350   69.4920 C   0  0  0  0  0  0  0  0  0  0  0  0
   -1.7686   68.0273   65.5574 H   0  0  0  0  0  0  0  0  0  0  0  0
    2.0341   67.6008   68.7591 H   0  0  0  0  0  0  0  0  0  0  0  0
    2.6283   68.7199   64.4814 H   0  0  0  0  0  0  0  0  0  0  0  0
    4.7652   70.3010   69.7262 H   0  0  0  0  0  0  0  0  0  0  0  0
    8.1311   71.6556   67.3699 H   0  0  0  0  0  0  0  0  0  0  0  0
    6.7539   70.6469   64.2336 H   0  0  0  0  0  0  0  0  0  0  0  0
    8.0578   71.8782   69.6845 H   0  0  0  0  0  0  0  0  0  0  0  0
   -4.0533   67.7445   67.7996 H   0  0  0  0  0  0  0  0  0  0  0  0
   -2.9455   68.1087   66.4333 H   0  0  0  0  0  0  0  0  0  0  0  0
   -3.9019   66.5882   66.4333 H   0  0  0  0  0  0  0  0  0  0  0  0
    1.3155   69.6550   64.5933 H   0  0  0  0  0  0  0  0  0  0  0  0
   -0.4699   67.0517   70.4603 H   0  0  0  0  0  0  0  0  0  0  0  0
   -0.9760   65.5801   69.5219 H   0  0  0  0  0  0  0  0  0  0  0  0
    2.0050   66.1870   69.8966 H   0  0  0  0  0  0  0  0  0  0  0  0
   -0.0457   63.3554   71.9913 H   0  0  0  0  0  0  0  0  0  0  0  0
   -0.8517   63.8523   70.4648 H   0  0  0  0  0  0  0  0  0  0  0  0
    0.3003   62.4740   70.4648 H   0  0  0  0  0  0  0  0  0  0  0  0
    3.1561   64.6639   71.4702 H   0  0  0  0  0  0  0  0  0  0  0  0
    2.4645   62.9835   71.5802 H   0  0  0  0  0  0  0  0  0  0  0  0
    3.0469   64.0513   68.8457 H   0  0  0  0  0  0  0  0  0  0  0  0
    4.4530   63.6148   69.8998 H   0  0  0  0  0  0  0  0  0  0  0  0
    2.3717   61.7581   68.6803 H   0  0  0  0  0  0  0  0  0  0  0  0
    4.6606   61.0059   71.8671 H   0  0  0  0  0  0  0  0  0  0  0  0
    5.7066   60.1883   70.6571 H   0  0  0  0  0  0  0  0  0  0  0  0
    5.5637   61.9789   70.6571 H   0  0  0  0  0  0  0  0  0  0  0  0
    3.3354   58.9307   70.3975 H   0  0  0  0  0  0  0  0  0  0  0  0
    2.5687   59.5501   68.8957 H   0  0  0  0  0  0  0  0  0  0  0  0
    4.3069   59.0967   68.8957 H   0  0  0  0  0  0  0  0  0  0  0  0
  2  1  2  0
  3  2  1  0
  4  3  2  0
  5  4  1  0
  6  5  2  0
  6  1  1  0
  7  4  1  0
  8  7  2  0
  9  8  1  0
 10  9  2  0
 11  9  1  0
 12 11  2  0
 13 12  1  0
 13  7  1  0
 14 12  1  0
 15 14  2  0
 16 15  1  0
 17 16  2  0
 17 11  1  0
 18 17  1  0
 19 15  1  0
 21  1  1  0
 21 20  1  0
 22  3  1  0
 23  6  1  0
 24 23  1  0
 25 24  2  0
 26 25  1  0
 27 25  1  0
 28 27  1  0
 29 28  1  0
 30 29  2  3
 31 30  1  0
 32 30  1  0
  2 33  1  0
  5 34  1  0
  8 35  1  0
 14 36  1  0
 16 37  1  0
 18 38  1  0
 19 39  1  0
 20 40  1  0
 20 41  1  0
 20 42  1  0
 22 43  1  0
 23 44  1  0
 23 45  1  0
 24 46  1  0
 26 47  1  0
 26 48  1  0
 26 49  1  0
 27 50  1  0
 27 51  1  0
 28 52  1  0
 28 53  1  0
 29 54  1  0
 31 55  1  0
 31 56  1  0
 31 57  1  0
 32 58  1  0
 32 59  1  0
 32 60  1  0
M  END
>  <score>  (4) 
-8.81

$$$$
=
     RDKit          3D

 60 62  0  0  0  0  0  0  0  0999 V2000
   -0.0510   67.6060   68.4320 C   0  0  0  0  0  0  0  0  0  0  0  0
   -0.7250   66.4220   68.7360 C   0  0  0  0  0  0  0  0  0  0  0  0
   -0.0650   65.4120   69.4380 C   0  0  0  0  0  0  0  0  0  0  0  0
    1.2700   65.5630   69.8410 C   0  0  0  0  0  0  0  0  0  0  0  0
    1.9400   66.7490   69.4930 C   0  0  0  0  0  0  0  0  0  0  0  0
    1.2960   67.7760   68.7770 C   0  0  0  0  0  0  0  0  0  0  0  0
    2.0090   64.5250   70.5860 C   0  0  0  0  0  0  0  0  0  0  0  0
    3.2090   64.0870   70.1760 C   0  0  0  0  0  0  0  0  0  0  0  0
    3.8890   63.0420   70.9530 C   0  0  0  0  0  0  0  0  0  0  0  0
    4.9830   62.6000   70.6200 O   0  0  0  0  0  0  0  0  0  0  0  0
    3.1980   62.5420   72.1480 C   0  0  0  0  0  0  0  0  0  0  0  0
    1.9470   63.0740   72.4590 C   0  0  0  0  0  0  0  0  0  0  0  0
    1.3360   64.0380   71.6960 O   0  0  0  0  0  0  0  0  0  0  0  0
    1.2540   62.6260   73.5860 C   0  0  0  0  0  0  0  0  0  0  0  0
    1.8280   61.6460   74.3910 C   0  0  0  0  0  0  0  0  0  0  0  0
    3.0760   61.1070   74.0880 C   0  0  0  0  0  0  0  0  0  0  0  0
    3.7610   61.5560   72.9630 C   0  0  0  0  0  0  0  0  0  0  0  0
    4.9830   60.9920   72.7130 O   0  0  0  0  0  0  0  0  0  0  0  0
    1.1880   61.1790   75.5020 O   0  0  0  0  0  0  0  0  0  0  0  0
   -1.7810   68.0650   66.9720 C   0  0  0  0  0  0  0  0  0  0  0  0
   -0.6830   68.5920   67.7180 O   0  0  0  0  0  0  0  0  0  0  0  0
   -0.7310   64.2480   69.7210 O   0  0  0  0  0  0  0  0  0  0  0  0
    2.0530   69.0400   68.4350 C   0  0  0  0  0  0  0  0  0  0  0  0
    2.6930   68.9710   67.0740 C   0  0  0  0  0  0  0  0  0  0  0  0
    3.8840   69.4680   66.6790 C   0  0  0  0  0  0  0  0  0  0  0  0
    4.8560   70.1860   67.5750 C   0  0  0  0  0  0  0  0  0  0  0  0
    4.3430   69.2880   65.2420 C   0  0  0  0  0  0  0  0  0  0  0  0
    3.6520   68.1110   64.5430 C   0  0  0  0  0  0  0  0  0  0  0  0
    2.9510   68.5560   63.2880 C   0  0  0  0  0  0  0  0  0  0  0  0
    1.6350   68.7880   63.1190 C   0  0  0  0  0  0  0  0  0  0  0  0
    0.5800   68.5950   64.1730 C   0  0  0  0  0  0  0  0  0  0  0  0
    1.1020   69.2670   61.7930 C   0  0  0  0  0  0  0  0  0  0  0  0
   -1.7709   66.2856   68.4239 H   0  0  0  0  0  0  0  0  0  0  0  0
    2.9921   66.8775   69.7871 H   0  0  0  0  0  0  0  0  0  0  0  0
    3.6766   64.5040   69.2718 H   0  0  0  0  0  0  0  0  0  0  0  0
    0.2667   63.0425   73.8344 H   0  0  0  0  0  0  0  0  0  0  0  0
    3.5167   60.3325   74.7329 H   0  0  0  0  0  0  0  0  0  0  0  0
    5.5085   61.2786   71.9244 H   0  0  0  0  0  0  0  0  0  0  0  0
    1.6130   60.4817   76.0617 H   0  0  0  0  0  0  0  0  0  0  0  0
   -2.5512   67.6953   67.6649 H   0  0  0  0  0  0  0  0  0  0  0  0
   -2.2073   68.8566   66.3383 H   0  0  0  0  0  0  0  0  0  0  0  0
   -1.4301   67.2372   66.3383 H   0  0  0  0  0  0  0  0  0  0  0  0
   -0.2736   63.5244   70.2182 H   0  0  0  0  0  0  0  0  0  0  0  0
    1.3527   69.8881   68.4542 H   0  0  0  0  0  0  0  0  0  0  0  0
    2.8543   69.1644   69.1782 H   0  0  0  0  0  0  0  0  0  0  0  0
    2.1137   68.4466   66.2998 H   0  0  0  0  0  0  0  0  0  0  0  0
    4.5961   69.9940   68.6265 H   0  0  0  0  0  0  0  0  0  0  0  0
    5.8750   69.8221   67.3768 H   0  0  0  0  0  0  0  0  0  0  0  0
    4.8077   71.2669   67.3768 H   0  0  0  0  0  0  0  0  0  0  0  0
    4.1201   70.2090   64.6834 H   0  0  0  0  0  0  0  0  0  0  0  0
    5.4221   69.0754   65.2621 H   0  0  0  0  0  0  0  0  0  0  0  0
    4.4076   67.3551   64.2827 H   0  0  0  0  0  0  0  0  0  0  0  0
    2.9021   67.6911   65.2295 H   0  0  0  0  0  0  0  0  0  0  0  0
    3.5883   68.7099   62.4047 H   0  0  0  0  0  0  0  0  0  0  0  0
    1.0378   68.6788   65.1697 H   0  0  0  0  0  0  0  0  0  0  0  0
   -0.1964   69.3660   64.0602 H   0  0  0  0  0  0  0  0  0  0  0  0
    0.1268   67.5990   64.0602 H   0  0  0  0  0  0  0  0  0  0  0  0
    0.2937   69.9934   61.9635 H   0  0  0  0  0  0  0  0  0  0  0  0
    1.9120   69.7466   61.2239 H   0  0  0  0  0  0  0  0  0  0  0  0
    0.7113   68.4106   61.2239 H   0  0  0  0  0  0  0  0  0  0  0  0
  2  1  2  0
  3  2  1  0
  4  3  2  0
  5  4  1  0
  6  5  2  0
  6  1  1  0
  7  4  1  0
  8  7  2  0
  9  8  1  0
 10  9  2  0
 11  9  1  0
 12 11  2  0
 13 12  1  0
 13  7  1  0
 14 12  1  0
 15 14  2  0
 16 15  1  0
 17 16  2  0
 17 11  1  0
 18 17  1  0
 19 15  1  0
 21  1  1  0
 21 20  1  0
 22  3  1  0
 23  6  1  0
 24 23  1  0
 25 24  2  0
 26 25  1  0
 27 25  1  0
 28 27  1  0
 29 28  1  0
 30 29  2  3
 31 30  1  0
 32 30  1  0
  2 33  1  0
  5 34  1  0
  8 35  1  0
 14 36  1  0
 16 37  1  0
 18 38  1  0
 19 39  1  0
 20 40  1  0
 20 41  1  0
 20 42  1  0
 22 43  1  0
 23 44  1  0
 23 45  1  0
 24 46  1  0
 26 47  1  0
 26 48  1  0
 26 49  1  0
 27 50  1  0
 27 51  1  0
 28 52  1  0
 28 53  1  0
 29 54  1  0
 31 55  1  0
 31 56  1  0
 31 57  1  0
 32 58  1  0
 32 59  1  0
 32 60  1  0
M  END
>  <score>  (5) 
-8.547

$$$$
=
     RDKit          3D

 60 62  0  0  0  0  0  0  0  0999 V2000
   -0.0810   63.2440   73.8130 C   0  0  0  0  0  0  0  0  0  0  0  0
   -0.1650   62.7130   75.1020 C   0  0  0  0  0  0  0  0  0  0  0  0
   -0.3130   61.3360   75.2730 C   0  0  0  0  0  0  0  0  0  0  0  0
   -0.3830   60.4710   74.1710 C   0  0  0  0  0  0  0  0  0  0  0  0
   -0.3300   61.0310   72.8820 C   0  0  0  0  0  0  0  0  0  0  0  0
   -0.1920   62.4190   72.6870 C   0  0  0  0  0  0  0  0  0  0  0  0
   -0.5370   59.0090   74.3020 C   0  0  0  0  0  0  0  0  0  0  0  0
   -1.6610   58.4620   74.7870 C   0  0  0  0  0  0  0  0  0  0  0  0
   -1.7490   57.0010   74.9060 C   0  0  0  0  0  0  0  0  0  0  0  0
   -2.7490   56.4480   75.3490 O   0  0  0  0  0  0  0  0  0  0  0  0
   -0.5800   56.2240   74.4740 C   0  0  0  0  0  0  0  0  0  0  0  0
    0.5330   56.9160   73.9970 C   0  0  0  0  0  0  0  0  0  0  0  0
    0.5830   58.2860   73.9190 O   0  0  0  0  0  0  0  0  0  0  0  0
    1.6670   56.2170   73.5760 C   0  0  0  0  0  0  0  0  0  0  0  0
    1.6700   54.8270   73.6400 C   0  0  0  0  0  0  0  0  0  0  0  0
    0.5640   54.1260   74.1150 C   0  0  0  0  0  0  0  0  0  0  0  0
   -0.5620   54.8280   74.5340 C   0  0  0  0  0  0  0  0  0  0  0  0
   -1.6200   54.0890   74.9940 O   0  0  0  0  0  0  0  0  0  0  0  0
    2.7550   54.1020   73.2390 O   0  0  0  0  0  0  0  0  0  0  0  0
   -0.0550   65.2920   74.8800 C   0  0  0  0  0  0  0  0  0  0  0  0
    0.0370   64.5980   73.6350 O   0  0  0  0  0  0  0  0  0  0  0  0
   -0.4080   60.8250   76.5420 O   0  0  0  0  0  0  0  0  0  0  0  0
   -0.1280   62.9740   71.2820 C   0  0  0  0  0  0  0  0  0  0  0  0
    1.1810   62.6640   70.6050 C   0  0  0  0  0  0  0  0  0  0  0  0
    2.1840   63.5090   70.2900 C   0  0  0  0  0  0  0  0  0  0  0  0
    2.2000   64.9810   70.6000 C   0  0  0  0  0  0  0  0  0  0  0  0
    3.4310   62.9830   69.5990 C   0  0  0  0  0  0  0  0  0  0  0  0
    4.5610   62.6590   70.5840 C   0  0  0  0  0  0  0  0  0  0  0  0
    4.4990   61.2260   71.0370 C   0  0  0  0  0  0  0  0  0  0  0  0
    3.9850   60.7490   72.1880 C   0  0  0  0  0  0  0  0  0  0  0  0
    3.4020   61.5900   73.2890 C   0  0  0  0  0  0  0  0  0  0  0  0
    3.9710   59.2680   72.4680 C   0  0  0  0  0  0  0  0  0  0  0  0
   -0.1148   63.3767   75.9778 H   0  0  0  0  0  0  0  0  0  0  0  0
   -0.3979   60.3695   72.0057 H   0  0  0  0  0  0  0  0  0  0  0  0
   -2.5050   59.0984   75.0913 H   0  0  0  0  0  0  0  0  0  0  0  0
    2.5467   56.7588   73.1985 H   0  0  0  0  0  0  0  0  0  0  0  0
    0.5806   53.0270   74.1585 H   0  0  0  0  0  0  0  0  0  0  0  0
   -2.4436   54.5430   75.3033 H   0  0  0  0  0  0  0  0  0  0  0  0
    2.7371   53.1136   73.2925 H   0  0  0  0  0  0  0  0  0  0  0  0
    0.0402   64.5740   75.7079 H   0  0  0  0  0  0  0  0  0  0  0  0
    0.7523   66.0363   74.9454 H   0  0  0  0  0  0  0  0  0  0  0  0
   -1.0284   65.8002   74.9454 H   0  0  0  0  0  0  0  0  0  0  0  0
   -0.5133   59.8498   76.6763 H   0  0  0  0  0  0  0  0  0  0  0  0
   -0.9450   62.5350   70.6905 H   0  0  0  0  0  0  0  0  0  0  0  0
   -0.2227   64.0680   71.3473 H   0  0  0  0  0  0  0  0  0  0  0  0
    1.3400   61.6104   70.3316 H   0  0  0  0  0  0  0  0  0  0  0  0
    2.2016   65.1261   71.6904 H   0  0  0  0  0  0  0  0  0  0  0  0
    3.1032   65.4369   70.1681 H   0  0  0  0  0  0  0  0  0  0  0  0
    1.3070   65.4564   70.1681 H   0  0  0  0  0  0  0  0  0  0  0  0
    3.1691   62.0665   69.0500 H   0  0  0  0  0  0  0  0  0  0  0  0
    3.7946   63.7716   68.9238 H   0  0  0  0  0  0  0  0  0  0  0  0
    5.5280   62.8371   70.0908 H   0  0  0  0  0  0  0  0  0  0  0  0
    4.4481   63.3065   71.4661 H   0  0  0  0  0  0  0  0  0  0  0  0
    4.9227   60.4802   70.3484 H   0  0  0  0  0  0  0  0  0  0  0  0
    3.6926   61.1708   74.2636 H   0  0  0  0  0  0  0  0  0  0  0  0
    3.7815   62.6190   73.2046 H   0  0  0  0  0  0  0  0  0  0  0  0
    2.3053   61.5956   73.2046 H   0  0  0  0  0  0  0  0  0  0  0  0
    3.9694   59.1004   73.5552 H   0  0  0  0  0  0  0  0  0  0  0  0
    3.0686   58.8199   72.0266 H   0  0  0  0  0  0  0  0  0  0  0  0
    4.8648   58.8029   72.0266 H   0  0  0  0  0  0  0  0  0  0  0  0
  2  1  2  0
  3  2  1  0
  4  3  2  0
  5  4  1  0
  6  5  2  0
  6  1  1  0
  7  4  1  0
  8  7  2  0
  9  8  1  0
 10  9  2  0
 11  9  1  0
 12 11  2  0
 13 12  1  0
 13  7  1  0
 14 12  1  0
 15 14  2  0
 16 15  1  0
 17 16  2  0
 17 11  1  0
 18 17  1  0
 19 15  1  0
 21  1  1  0
 21 20  1  0
 22  3  1  0
 23  6  1  0
 24 23  1  0
 25 24  2  0
 26 25  1  0
 27 25  1  0
 28 27  1  0
 29 28  1  0
 30 29  2  3
 31 30  1  0
 32 30  1  0
  2 33  1  0
  5 34  1  0
  8 35  1  0
 14 36  1  0
 16 37  1  0
 18 38  1  0
 19 39  1  0
 20 40  1  0
 20 41  1  0
 20 42  1  0
 22 43  1  0
 23 44  1  0
 23 45  1  0
 24 46  1  0
 26 47  1  0
 26 48  1  0
 26 49  1  0
 27 50  1  0
 27 51  1  0
 28 52  1  0
 28 53  1  0
 29 54  1  0
 31 55  1  0
 31 56  1  0
 31 57  1  0
 32 58  1  0
 32 59  1  0
 32 60  1  0
M  END
>  <score>  (6) 
-8.501

$$$$
=
     RDKit          3D

 60 62  0  0  0  0  0  0  0  0999 V2000
    1.4320   63.8240   72.4450 C   0  0  0  0  0  0  0  0  0  0  0  0
    0.3180   64.6630   72.5170 C   0  0  0  0  0  0  0  0  0  0  0  0
    0.0160   65.5040   71.4450 C   0  0  0  0  0  0  0  0  0  0  0  0
    0.8160   65.5250   70.2930 C   0  0  0  0  0  0  0  0  0  0  0  0
    1.9510   64.6960   70.2560 C   0  0  0  0  0  0  0  0  0  0  0  0
    2.2790   63.8490   71.3310 C   0  0  0  0  0  0  0  0  0  0  0  0
    0.5360   66.3950   69.1330 C   0  0  0  0  0  0  0  0  0  0  0  0
    1.5230   67.0020   68.4570 C   0  0  0  0  0  0  0  0  0  0  0  0
    1.1810   67.8660   67.3200 C   0  0  0  0  0  0  0  0  0  0  0  0
    2.0410   68.4500   66.6710 O   0  0  0  0  0  0  0  0  0  0  0  0
   -0.2440   68.0070   66.9940 C   0  0  0  0  0  0  0  0  0  0  0  0
   -1.1720   67.3300   67.7830 C   0  0  0  0  0  0  0  0  0  0  0  0
   -0.8130   66.5450   68.8510 O   0  0  0  0  0  0  0  0  0  0  0  0
   -2.5380   67.4360   67.5090 C   0  0  0  0  0  0  0  0  0  0  0  0
   -2.9570   68.2240   66.4410 C   0  0  0  0  0  0  0  0  0  0  0  0
   -2.0380   68.9050   65.6460 C   0  0  0  0  0  0  0  0  0  0  0  0
   -0.6780   68.7960   65.9250 C   0  0  0  0  0  0  0  0  0  0  0  0
    0.1800   69.4870   65.1130 O   0  0  0  0  0  0  0  0  0  0  0  0
   -4.2800   68.3570   66.1340 O   0  0  0  0  0  0  0  0  0  0  0  0
    1.1000   63.4500   74.7000 C   0  0  0  0  0  0  0  0  0  0  0  0
    1.7510   63.0150   73.5050 O   0  0  0  0  0  0  0  0  0  0  0  0
   -1.0710   66.3350   71.5300 O   0  0  0  0  0  0  0  0  0  0  0  0
    3.5050   62.9660   71.2420 C   0  0  0  0  0  0  0  0  0  0  0  0
    3.1910   61.6140   70.6580 C   0  0  0  0  0  0  0  0  0  0  0  0
    3.9920   60.5310   70.5710 C   0  0  0  0  0  0  0  0  0  0  0  0
    5.4000   60.4570   71.0950 C   0  0  0  0  0  0  0  0  0  0  0  0
    3.4730   59.2520   69.9350 C   0  0  0  0  0  0  0  0  0  0  0  0
    3.5660   58.0440   70.8760 C   0  0  0  0  0  0  0  0  0  0  0  0
    2.3660   57.9600   71.7800 C   0  0  0  0  0  0  0  0  0  0  0  0
    2.2750   58.3570   73.0640 C   0  0  0  0  0  0  0  0  0  0  0  0
    3.4030   58.9340   73.8730 C   0  0  0  0  0  0  0  0  0  0  0  0
    0.9750   58.2320   73.8160 C   0  0  0  0  0  0  0  0  0  0  0  0
   -0.3183   64.6610   73.4143 H   0  0  0  0  0  0  0  0  0  0  0  0
    2.5976   64.7098   69.3662 H   0  0  0  0  0  0  0  0  0  0  0  0
    2.5730   66.8547   68.7501 H   0  0  0  0  0  0  0  0  0  0  0  0
   -3.2733   66.9032   68.1298 H   0  0  0  0  0  0  0  0  0  0  0  0
   -2.3837   69.5238   64.8048 H   0  0  0  0  0  0  0  0  0  0  0  0
    1.1562   69.4411   65.2712 H   0  0  0  0  0  0  0  0  0  0  0  0
   -4.5564   68.9226   65.3699 H   0  0  0  0  0  0  0  0  0  0  0  0
    1.6542   63.0797   75.5751 H   0  0  0  0  0  0  0  0  0  0  0  0
    1.0713   64.5494   74.7225 H   0  0  0  0  0  0  0  0  0  0  0  0
    0.0733   63.0559   74.7225 H   0  0  0  0  0  0  0  0  0  0  0  0
   -1.2949   66.9359   70.7758 H   0  0  0  0  0  0  0  0  0  0  0  0
    4.2531   63.4616   70.6058 H   0  0  0  0  0  0  0  0  0  0  0  0
    3.8857   62.8129   72.2626 H   0  0  0  0  0  0  0  0  0  0  0  0
    2.1770   61.4932   70.2491 H   0  0  0  0  0  0  0  0  0  0  0  0
    5.3824   60.4579   72.1949 H   0  0  0  0  0  0  0  0  0  0  0  0
    5.8765   59.5326   70.7367 H   0  0  0  0  0  0  0  0  0  0  0  0
    5.9708   61.3264   70.7367 H   0  0  0  0  0  0  0  0  0  0  0  0
    2.4195   59.4002   69.6553 H   0  0  0  0  0  0  0  0  0  0  0  0
    4.1003   59.0388   69.0569 H   0  0  0  0  0  0  0  0  0  0  0  0
    3.6261   57.1251   70.2743 H   0  0  0  0  0  0  0  0  0  0  0  0
    4.4636   58.1599   71.5012 H   0  0  0  0  0  0  0  0  0  0  0  0
    1.4568   57.5234   71.3410 H   0  0  0  0  0  0  0  0  0  0  0  0
    3.1812   58.8206   74.9444 H   0  0  0  0  0  0  0  0  0  0  0  0
    4.3356   58.4022   73.6333 H   0  0  0  0  0  0  0  0  0  0  0  0
    3.5176   60.0014   73.6333 H   0  0  0  0  0  0  0  0  0  0  0  0
    1.1738   58.2511   74.8977 H   0  0  0  0  0  0  0  0  0  0  0  0
    0.3152   59.0708   73.5496 H   0  0  0  0  0  0  0  0  0  0  0  0
    0.4871   57.2828   73.5496 H   0  0  0  0  0  0  0  0  0  0  0  0
  2  1  2  0
  3  2  1  0
  4  3  2  0
  5  4  1  0
  6  5  2  0
  6  1  1  0
  7  4  1  0
  8  7  2  0
  9  8  1  0
 10  9  2  0
 11  9  1  0
 12 11  2  0
 13 12  1  0
 13  7  1  0
 14 12  1  0
 15 14  2  0
 16 15  1  0
 17 16  2  0
 17 11  1  0
 18 17  1  0
 19 15  1  0
 21  1  1  0
 21 20  1  0
 22  3  1  0
 23  6  1  0
 24 23  1  0
 25 24  2  0
 26 25  1  0
 27 25  1  0
 28 27  1  0
 29 28  1  0
 30 29  2  3
 31 30  1  0
 32 30  1  0
  2 33  1  0
  5 34  1  0
  8 35  1  0
 14 36  1  0
 16 37  1  0
 18 38  1  0
 19 39  1  0
 20 40  1  0
 20 41  1  0
 20 42  1  0
 22 43  1  0
 23 44  1  0
 23 45  1  0
 24 46  1  0
 26 47  1  0
 26 48  1  0
 26 49  1  0
 27 50  1  0
 27 51  1  0
 28 52  1  0
 28 53  1  0
 29 54  1  0
 31 55  1  0
 31 56  1  0
 31 57  1  0
 32 58  1  0
 32 59  1  0
 32 60  1  0
M  END
>  <score>  (7) 
-8.472

$$$$
=
     RDKit          3D

 60 62  0  0  0  0  0  0  0  0999 V2000
    3.7030   60.2660   71.1980 C   0  0  0  0  0  0  0  0  0  0  0  0
    3.7230   58.9120   70.8590 C   0  0  0  0  0  0  0  0  0  0  0  0
    2.8890   58.0190   71.5340 C   0  0  0  0  0  0  0  0  0  0  0  0
    2.0320   58.4570   72.5540 C   0  0  0  0  0  0  0  0  0  0  0  0
    2.0540   59.8190   72.9020 C   0  0  0  0  0  0  0  0  0  0  0  0
    2.8950   60.7340   72.2410 C   0  0  0  0  0  0  0  0  0  0  0  0
    1.1320   57.5510   73.2940 C   0  0  0  0  0  0  0  0  0  0  0  0
   -0.0510   57.9700   73.7680 C   0  0  0  0  0  0  0  0  0  0  0  0
   -0.8960   57.0260   74.5090 C   0  0  0  0  0  0  0  0  0  0  0  0
   -1.9830   57.3560   74.9710 O   0  0  0  0  0  0  0  0  0  0  0  0
   -0.3820   55.6610   74.6810 C   0  0  0  0  0  0  0  0  0  0  0  0
    0.8700   55.3560   74.1480 C   0  0  0  0  0  0  0  0  0  0  0  0
    1.6390   56.2730   73.4760 O   0  0  0  0  0  0  0  0  0  0  0  0
    1.3980   54.0700   74.2880 C   0  0  0  0  0  0  0  0  0  0  0  0
    0.6610   53.1030   74.9650 C   0  0  0  0  0  0  0  0  0  0  0  0
   -0.5890   53.3980   75.5030 C   0  0  0  0  0  0  0  0  0  0  0  0
   -1.1110   54.6810   75.3600 C   0  0  0  0  0  0  0  0  0  0  0  0
   -2.3430   54.9160   75.9090 O   0  0  0  0  0  0  0  0  0  0  0  0
    1.1370   51.8340   75.1260 O   0  0  0  0  0  0  0  0  0  0  0  0
    4.1550   61.3240   69.1950 C   0  0  0  0  0  0  0  0  0  0  0  0
    4.5390   61.1460   70.5590 O   0  0  0  0  0  0  0  0  0  0  0  0
    2.9250   56.6890   71.2030 O   0  0  0  0  0  0  0  0  0  0  0  0
    2.8750   62.1930   72.6420 C   0  0  0  0  0  0  0  0  0  0  0  0
    2.1960   63.0580   71.6140 C   0  0  0  0  0  0  0  0  0  0  0  0
    0.8770   63.2840   71.4460 C   0  0  0  0  0  0  0  0  0  0  0  0
   -0.2120   62.7140   72.3140 C   0  0  0  0  0  0  0  0  0  0  0  0
    0.3990   64.2000   70.3320 C   0  0  0  0  0  0  0  0  0  0  0  0
    0.2330   65.6540   70.7920 C   0  0  0  0  0  0  0  0  0  0  0  0
    0.9870   66.6010   69.8970 C   0  0  0  0  0  0  0  0  0  0  0  0
    0.5490   67.1890   68.7670 C   0  0  0  0  0  0  0  0  0  0  0  0
   -0.8010   66.9660   68.1430 C   0  0  0  0  0  0  0  0  0  0  0  0
    1.4300   68.1470   68.0090 C   0  0  0  0  0  0  0  0  0  0  0  0
    4.3923   58.5507   70.0643 H   0  0  0  0  0  0  0  0  0  0  0  0
    1.3989   60.1779   73.7095 H   0  0  0  0  0  0  0  0  0  0  0  0
   -0.3828   59.0058   73.6037 H   0  0  0  0  0  0  0  0  0  0  0  0
    2.3847   53.8248   73.8680 H   0  0  0  0  0  0  0  0  0  0  0  0
   -1.1596   52.6237   76.0367 H   0  0  0  0  0  0  0  0  0  0  0  0
   -2.7558   55.8127   75.8333 H   0  0  0  0  0  0  0  0  0  0  0  0
    0.5971   51.1606   75.6109 H   0  0  0  0  0  0  0  0  0  0  0  0
    3.1578   61.7863   69.1522 H   0  0  0  0  0  0  0  0  0  0  0  0
    4.8835   61.9763   68.6911 H   0  0  0  0  0  0  0  0  0  0  0  0
    4.1280   60.3466   68.6911 H   0  0  0  0  0  0  0  0  0  0  0  0
    2.3385   56.0456   71.6743 H   0  0  0  0  0  0  0  0  0  0  0  0
    2.3377   62.2902   73.5969 H   0  0  0  0  0  0  0  0  0  0  0  0
    3.9176   62.5320   72.7318 H   0  0  0  0  0  0  0  0  0  0  0  0
    2.8630   63.5733   70.9072 H   0  0  0  0  0  0  0  0  0  0  0  0
    0.0527   62.8525   73.3727 H   0  0  0  0  0  0  0  0  0  0  0  0
   -1.1589   63.2321   72.1019 H   0  0  0  0  0  0  0  0  0  0  0  0
   -0.3259   61.6407   72.1019 H   0  0  0  0  0  0  0  0  0  0  0  0
    1.1332   64.1714   69.5134 H   0  0  0  0  0  0  0  0  0  0  0  0
   -0.5878   63.8398   70.0058 H   0  0  0  0  0  0  0  0  0  0  0  0
   -0.8351   65.9162   70.7722 H   0  0  0  0  0  0  0  0  0  0  0  0
    0.6373   65.7438   71.8111 H   0  0  0  0  0  0  0  0  0  0  0  0
    2.0164   66.8409   70.2015 H   0  0  0  0  0  0  0  0  0  0  0  0
   -1.5547   66.8415   68.9345 H   0  0  0  0  0  0  0  0  0  0  0  0
   -1.0642   67.8328   67.5191 H   0  0  0  0  0  0  0  0  0  0  0  0
   -0.7715   66.0606   67.5191 H   0  0  0  0  0  0  0  0  0  0  0  0
    1.9978   68.7644   68.7207 H   0  0  0  0  0  0  0  0  0  0  0  0
    2.1289   67.5802   67.3764 H   0  0  0  0  0  0  0  0  0  0  0  0
    0.8067   68.7961   67.3764 H   0  0  0  0  0  0  0  0  0  0  0  0
  2  1  2  0
  3  2  1  0
  4  3  2  0
  5  4  1  0
  6  5  2  0
  6  1  1  0
  7  4  1  0
  8  7  2  0
  9  8  1  0
 10  9  2  0
 11  9  1  0
 12 11  2  0
 13 12  1  0
 13  7  1  0
 14 12  1  0
 15 14  2  0
 16 15  1  0
 17 16  2  0
 17 11  1  0
 18 17  1  0
 19 15  1  0
 21  1  1  0
 21 20  1  0
 22  3  1  0
 23  6  1  0
 24 23  1  0
 25 24  2  0
 26 25  1  0
 27 25  1  0
 28 27  1  0
 29 28  1  0
 30 29  2  3
 31 30  1  0
 32 30  1  0
  2 33  1  0
  5 34  1  0
  8 35  1  0
 14 36  1  0
 16 37  1  0
 18 38  1  0
 19 39  1  0
 20 40  1  0
 20 41  1  0
 20 42  1  0
 22 43  1  0
 23 44  1  0
 23 45  1  0
 24 46  1  0
 26 47  1  0
 26 48  1  0
 26 49  1  0
 27 50  1  0
 27 51  1  0
 28 52  1  0
 28 53  1  0
 29 54  1  0
 31 55  1  0
 31 56  1  0
 31 57  1  0
 32 58  1  0
 32 59  1  0
 32 60  1  0
M  END
>  <score>  (8) 
-8.4

$$$$
=
     RDKit          3D

 60 62  0  0  0  0  0  0  0  0999 V2000
    3.7260   60.8260   70.3500 C   0  0  0  0  0  0  0  0  0  0  0  0
    3.7300   59.4550   70.0820 C   0  0  0  0  0  0  0  0  0  0  0  0
    3.3760   58.5540   71.0870 C   0  0  0  0  0  0  0  0  0  0  0  0
    3.0170   59.0000   72.3670 C   0  0  0  0  0  0  0  0  0  0  0  0
    3.0520   60.3820   72.6240 C   0  0  0  0  0  0  0  0  0  0  0  0
    3.4180   61.3070   71.6280 C   0  0  0  0  0  0  0  0  0  0  0  0
    2.6330   58.0870   73.4620 C   0  0  0  0  0  0  0  0  0  0  0  0
    3.3110   58.0510   74.6180 C   0  0  0  0  0  0  0  0  0  0  0  0
    2.8890   57.1110   75.6630 C   0  0  0  0  0  0  0  0  0  0  0  0
    3.4770   57.0310   76.7360 O   0  0  0  0  0  0  0  0  0  0  0  0
    1.7290   56.2600   75.3680 C   0  0  0  0  0  0  0  0  0  0  0  0
    1.1180   56.3870   74.1210 C   0  0  0  0  0  0  0  0  0  0  0  0
    1.5550   57.2670   73.1620 O   0  0  0  0  0  0  0  0  0  0  0  0
    0.0120   55.5980   73.7970 C   0  0  0  0  0  0  0  0  0  0  0  0
   -0.4690   54.6860   74.7320 C   0  0  0  0  0  0  0  0  0  0  0  0
    0.1360   54.5500   75.9800 C   0  0  0  0  0  0  0  0  0  0  0  0
    1.2380   55.3390   76.2970 C   0  0  0  0  0  0  0  0  0  0  0  0
    1.7930   55.1630   77.5360 O   0  0  0  0  0  0  0  0  0  0  0  0
   -1.5460   53.8940   74.4610 O   0  0  0  0  0  0  0  0  0  0  0  0
    3.0640   61.8860   68.4080 C   0  0  0  0  0  0  0  0  0  0  0  0
    4.0990   61.7160   69.3760 O   0  0  0  0  0  0  0  0  0  0  0  0
    3.3960   57.2100   70.8190 O   0  0  0  0  0  0  0  0  0  0  0  0
    3.4300   62.7860   71.9470 C   0  0  0  0  0  0  0  0  0  0  0  0
    2.4220   63.5540   71.1330 C   0  0  0  0  0  0  0  0  0  0  0  0
    1.1070   63.7330   71.3770 C   0  0  0  0  0  0  0  0  0  0  0  0
    0.3750   63.2050   72.5800 C   0  0  0  0  0  0  0  0  0  0  0  0
    0.2610   64.5500   70.4150 C   0  0  0  0  0  0  0  0  0  0  0  0
    0.3340   66.0560   70.6960 C   0  0  0  0  0  0  0  0  0  0  0  0
    0.9370   66.8010   69.5360 C   0  0  0  0  0  0  0  0  0  0  0  0
    0.3240   67.1930   68.4020 C   0  0  0  0  0  0  0  0  0  0  0  0
   -1.1110   66.9090   68.0520 C   0  0  0  0  0  0  0  0  0  0  0  0
    1.0750   67.9680   67.3500 C   0  0  0  0  0  0  0  0  0  0  0  0
    4.0108   59.0876   69.0839 H   0  0  0  0  0  0  0  0  0  0  0  0
    2.7872   60.7488   73.6267 H   0  0  0  0  0  0  0  0  0  0  0  0
    4.1715   58.7166   74.7809 H   0  0  0  0  0  0  0  0  0  0  0  0
   -0.4731   55.6962   72.8146 H   0  0  0  0  0  0  0  0  0  0  0  0
   -0.2544   53.8246   76.7090 H   0  0  0  0  0  0  0  0  0  0  0  0
    2.5784   55.7011   77.8076 H   0  0  0  0  0  0  0  0  0  0  0  0
   -1.8717   53.2519   75.1405 H   0  0  0  0  0  0  0  0  0  0  0  0
    2.1040   62.0437   68.9215 H   0  0  0  0  0  0  0  0  0  0  0  0
    3.2907   62.7589   67.7783 H   0  0  0  0  0  0  0  0  0  0  0  0
    2.9996   60.9864   67.7783 H   0  0  0  0  0  0  0  0  0  0  0  0
    3.1469   56.5609   71.5238 H   0  0  0  0  0  0  0  0  0  0  0  0
    3.1988   62.9197   73.0141 H   0  0  0  0  0  0  0  0  0  0  0  0
    4.4288   63.1755   71.7007 H   0  0  0  0  0  0  0  0  0  0  0  0
    2.8083   64.0314   70.2203 H   0  0  0  0  0  0  0  0  0  0  0  0
    0.8693   63.5616   73.4957 H   0  0  0  0  0  0  0  0  0  0  0  0
   -0.6653   63.5620   72.5621 H   0  0  0  0  0  0  0  0  0  0  0  0
    0.3855   62.1052   72.5621 H   0  0  0  0  0  0  0  0  0  0  0  0
    0.6158   64.3655   69.3903 H   0  0  0  0  0  0  0  0  0  0  0  0
   -0.7857   64.2378   70.5451 H   0  0  0  0  0  0  0  0  0  0  0  0
   -0.6823   66.4363   70.8765 H   0  0  0  0  0  0  0  0  0  0  0  0
    0.9715   66.2136   71.5784 H   0  0  0  0  0  0  0  0  0  0  0  0
    2.0035   67.0555   69.6242 H   0  0  0  0  0  0  0  0  0  0  0  0
   -1.6975   66.7929   68.9753 H   0  0  0  0  0  0  0  0  0  0  0  0
   -1.5168   67.7442   67.4624 H   0  0  0  0  0  0  0  0  0  0  0  0
   -1.1681   65.9821   67.4624 H   0  0  0  0  0  0  0  0  0  0  0  0
    1.7615   68.6764   67.8367 H   0  0  0  0  0  0  0  0  0  0  0  0
    1.6508   67.2716   66.7227 H   0  0  0  0  0  0  0  0  0  0  0  0
    0.3608   68.5216   66.7227 H   0  0  0  0  0  0  0  0  0  0  0  0
  2  1  2  0
  3  2  1  0
  4  3  2  0
  5  4  1  0
  6  5  2  0
  6  1  1  0
  7  4  1  0
  8  7  2  0
  9  8  1  0
 10  9  2  0
 11  9  1  0
 12 11  2  0
 13 12  1  0
 13  7  1  0
 14 12  1  0
 15 14  2  0
 16 15  1  0
 17 16  2  0
 17 11  1  0
 18 17  1  0
 19 15  1  0
 21  1  1  0
 21 20  1  0
 22  3  1  0
 23  6  1  0
 24 23  1  0
 25 24  2  0
 26 25  1  0
 27 25  1  0
 28 27  1  0
 29 28  1  0
 30 29  2  3
 31 30  1  0
 32 30  1  0
  2 33  1  0
  5 34  1  0
  8 35  1  0
 14 36  1  0
 16 37  1  0
 18 38  1  0
 19 39  1  0
 20 40  1  0
 20 41  1  0
 20 42  1  0
 22 43  1  0
 23 44  1  0
 23 45  1  0
 24 46  1  0
 26 47  1  0
 26 48  1  0
 26 49  1  0
 27 50  1  0
 27 51  1  0
 28 52  1  0
 28 53  1  0
 29 54  1  0
 31 55  1  0
 31 56  1  0
 31 57  1  0
 32 58  1  0
 32 59  1  0
 32 60  1  0
M  END
>  <score>  (9) 
-7.87

$$$$
