=
     RDKit          3D

 44 47  0  0  0  0  0  0  0  0999 V2000
    6.5690   70.5910   69.7910 C   0  0  0  0  0  0  0  0  0  0  0  0
    7.3910   70.7500   68.6890 C   0  0  0  0  0  0  0  0  0  0  0  0
    6.8720   70.5640   67.4050 C   0  0  0  0  0  0  0  0  0  0  0  0
    5.5270   70.2020   67.2080 C   0  0  0  0  0  0  0  0  0  0  0  0
    4.6950   70.0730   68.3420 C   0  0  0  0  0  0  0  0  0  0  0  0
    5.2310   70.2550   69.6310 C   0  0  0  0  0  0  0  0  0  0  0  0
    3.2380   69.6900   68.2350 C   0  0  0  0  0  0  0  0  0  0  0  0
    2.6680   69.8030   66.8240 C   0  0  0  0  0  0  0  0  0  0  0  0
    3.6460   69.1930   65.8190 C   0  0  2  0  0  0  0  0  0  0  0  0
    4.9520   70.0440   65.8020 C   0  0  2  0  0  0  0  0  0  0  0  0
    5.9510   69.5180   64.7370 C   0  0  0  0  0  0  0  0  0  0  0  0
    5.3220   69.3230   63.3430 C   0  0  0  0  0  0  0  0  0  0  0  0
    4.0460   68.4750   63.4070 C   0  0  1  0  0  0  0  0  0  0  0  0
    3.0760   69.1440   64.4010 C   0  0  1  0  0  0  0  0  0  0  0  0
    1.7560   68.4200   64.1500 C   0  0  0  0  0  0  0  0  0  0  0  0
    1.7670   68.1370   62.6370 C   0  0  0  0  0  0  0  0  0  0  0  0
    3.1730   68.5220   62.1370 C   0  0  2  0  0  0  0  0  0  0  0  0
    4.4210   67.0110   63.7490 C   0  0  0  0  0  0  0  0  0  0  0  0
    7.1140   70.7780   71.0270 O   0  0  0  0  0  0  0  0  0  0  0  0
    3.6020   67.6430   61.1160 O   0  0  0  0  0  0  0  0  0  0  0  0
    8.4484   71.0216   68.8233 H   0  0  0  0  0  0  0  0  0  0  0  0
    7.5271   70.7032   66.5324 H   0  0  0  0  0  0  0  0  0  0  0  0
    4.5877   70.1306   70.5146 H   0  0  0  0  0  0  0  0  0  0  0  0
    3.1290   68.6478   68.5696 H   0  0  0  0  0  0  0  0  0  0  0  0
    2.6763   70.3976   68.8625 H   0  0  0  0  0  0  0  0  0  0  0  0
    1.7097   69.2653   66.7733 H   0  0  0  0  0  0  0  0  0  0  0  0
    2.5115   70.8641   66.5798 H   0  0  0  0  0  0  0  0  0  0  0  0
    3.8437   68.1588   66.1375 H   0  0  0  0  0  0  0  0  0  0  0  0
    4.7129   71.0684   65.4803 H   0  0  0  0  0  0  0  0  0  0  0  0
    6.7764   70.2397   64.6481 H   0  0  0  0  0  0  0  0  0  0  0  0
    6.2939   68.5297   65.0770 H   0  0  0  0  0  0  0  0  0  0  0  0
    5.0734   70.3090   62.9235 H   0  0  0  0  0  0  0  0  0  0  0  0
    6.0510   68.7961   62.7099 H   0  0  0  0  0  0  0  0  0  0  0  0
    2.9074   70.2213   64.2558 H   0  0  0  0  0  0  0  0  0  0  0  0
    1.7097   67.4820   64.7227 H   0  0  0  0  0  0  0  0  0  0  0  0
    0.8830   69.0114   64.4633 H   0  0  0  0  0  0  0  0  0  0  0  0
    1.5736   67.0709   62.4472 H   0  0  0  0  0  0  0  0  0  0  0  0
    0.9858   68.7105   62.1166 H   0  0  0  0  0  0  0  0  0  0  0  0
    3.2200   69.5157   61.6676 H   0  0  0  0  0  0  0  0  0  0  0  0
    4.4529   66.8863   64.8414 H   0  0  0  0  0  0  0  0  0  0  0  0
    3.6681   66.3308   63.3242 H   0  0  0  0  0  0  0  0  0  0  0  0
    5.4082   66.7765   63.3242 H   0  0  0  0  0  0  0  0  0  0  0  0
    6.5537   70.6720   71.8363 H   0  0  0  0  0  0  0  0  0  0  0  0
    3.9977   66.8321   61.5234 H   0  0  0  0  0  0  0  0  0  0  0  0
  2  1  2  0
  3  2  1  0
  4  3  2  0
  5  4  1  0
  6  5  2  0
  6  1  1  0
  7  5  1  0
  8  7  1  0
  9  8  1  0
 10  9  1  0
 10  4  1  0
 11 10  1  0
 12 11  1  0
 13 12  1  0
 14 13  1  0
 14  9  1  0
 15 14  1  0
 16 15  1  0
 17 16  1  0
 17 13  1  0
 13 18  1  1
 19  1  1  0
 20 17  1  0
  2 21  1  0
  3 22  1  0
  6 23  1  0
  7 24  1  0
  7 25  1  0
  8 26  1  0
  8 27  1  0
  9 28  1  1
 10 29  1  6
 11 30  1  0
 11 31  1  0
 12 32  1  0
 12 33  1  0
 14 34  1  6
 15 35  1  0
 15 36  1  0
 16 37  1  0
 16 38  1  0
 17 39  1  6
 18 40  1  0
 18 41  1  0
 18 42  1  0
 19 43  1  0
 20 44  1  0
M  END
>  <score>  (1) 
-10.316

$$$$
=
     RDKit          3D

 44 47  0  0  0  0  0  0  0  0999 V2000
    1.4200   68.6750   62.6550 C   0  0  0  0  0  0  0  0  0  0  0  0
    2.7650   68.7140   62.3320 C   0  0  0  0  0  0  0  0  0  0  0  0
    3.7150   68.8900   63.3410 C   0  0  0  0  0  0  0  0  0  0  0  0
    3.3310   69.0410   64.6860 C   0  0  0  0  0  0  0  0  0  0  0  0
    1.9560   68.9680   65.0020 C   0  0  0  0  0  0  0  0  0  0  0  0
    1.0080   68.8000   63.9760 C   0  0  0  0  0  0  0  0  0  0  0  0
    1.4430   69.1170   66.4150 C   0  0  0  0  0  0  0  0  0  0  0  0
    2.5250   68.9960   67.4840 C   0  0  0  0  0  0  0  0  0  0  0  0
    3.7510   69.8140   67.0760 C   0  0  2  0  0  0  0  0  0  0  0  0
    4.3740   69.1870   65.7920 C   0  0  2  0  0  0  0  0  0  0  0  0
    5.6730   69.9280   65.3780 C   0  0  0  0  0  0  0  0  0  0  0  0
    6.6800   70.1000   66.5320 C   0  0  0  0  0  0  0  0  0  0  0  0
    6.0270   70.7260   67.7700 C   0  0  1  0  0  0  0  0  0  0  0  0
    4.8210   69.8530   68.1680 C   0  0  1  0  0  0  0  0  0  0  0  0
    4.4520   70.3690   69.5570 C   0  0  0  0  0  0  0  0  0  0  0  0
    5.8060   70.7380   70.1890 C   0  0  0  0  0  0  0  0  0  0  0  0
    6.8540   70.6140   69.0660 C   0  0  2  0  0  0  0  0  0  0  0  0
    5.6880   72.2100   67.4750 C   0  0  0  0  0  0  0  0  0  0  0  0
    0.5240   68.5050   61.6410 O   0  0  0  0  0  0  0  0  0  0  0  0
    7.8510   71.6100   69.1960 O   0  0  0  0  0  0  0  0  0  0  0  0
    3.0848   68.6069   61.2850 H   0  0  0  0  0  0  0  0  0  0  0  0
    4.7831   68.9109   63.0790 H   0  0  0  0  0  0  0  0  0  0  0  0
   -0.0639   68.7675   64.2208 H   0  0  0  0  0  0  0  0  0  0  0  0
    0.9724   70.1068   66.5096 H   0  0  0  0  0  0  0  0  0  0  0  0
    0.7343   68.2931   66.5848 H   0  0  0  0  0  0  0  0  0  0  0  0
    2.1363   69.3736   68.4413 H   0  0  0  0  0  0  0  0  0  0  0  0
    2.8127   67.9397   67.5912 H   0  0  0  0  0  0  0  0  0  0  0  0
    3.4141   70.8459   66.8981 H   0  0  0  0  0  0  0  0  0  0  0  0
    4.6960   68.1583   66.0115 H   0  0  0  0  0  0  0  0  0  0  0  0
    6.1592   69.3550   64.5747 H   0  0  0  0  0  0  0  0  0  0  0  0
    5.3791   70.9371   65.0534 H   0  0  0  0  0  0  0  0  0  0  0  0
    7.0829   69.1129   66.8028 H   0  0  0  0  0  0  0  0  0  0  0  0
    7.4796   70.7736   66.1901 H   0  0  0  0  0  0  0  0  0  0  0  0
    5.0160   68.7732   68.2450 H   0  0  0  0  0  0  0  0  0  0  0  0
    3.8002   71.2522   69.4856 H   0  0  0  0  0  0  0  0  0  0  0  0
    3.8959   69.6279   70.1500 H   0  0  0  0  0  0  0  0  0  0  0  0
    5.7791   71.7684   70.5731 H   0  0  0  0  0  0  0  0  0  0  0  0
    6.0460   70.0776   71.0353 H   0  0  0  0  0  0  0  0  0  0  0  0
    7.4182   69.6700   69.0882 H   0  0  0  0  0  0  0  0  0  0  0  0
    5.5639   72.7533   68.4234 H   0  0  0  0  0  0  0  0  0  0  0  0
    6.5054   72.6648   66.8962 H   0  0  0  0  0  0  0  0  0  0  0  0
    4.7542   72.2647   66.8962 H   0  0  0  0  0  0  0  0  0  0  0  0
   -0.4457   68.4726   61.8376 H   0  0  0  0  0  0  0  0  0  0  0  0
    8.0228   71.7816   70.1557 H   0  0  0  0  0  0  0  0  0  0  0  0
  2  1  2  0
  3  2  1  0
  4  3  2  0
  5  4  1  0
  6  5  2  0
  6  1  1  0
  7  5  1  0
  8  7  1  0
  9  8  1  0
 10  9  1  0
 10  4  1  0
 11 10  1  0
 12 11  1  0
 13 12  1  0
 14 13  1  0
 14  9  1  0
 15 14  1  0
 16 15  1  0
 17 16  1  0
 17 13  1  0
 13 18  1  6
 19  1  1  0
 20 17  1  0
  2 21  1  0
  3 22  1  0
  6 23  1  0
  7 24  1  0
  7 25  1  0
  8 26  1  0
  8 27  1  0
  9 28  1  6
 10 29  1  1
 11 30  1  0
 11 31  1  0
 12 32  1  0
 12 33  1  0
 14 34  1  1
 15 35  1  0
 15 36  1  0
 16 37  1  0
 16 38  1  0
 17 39  1  6
 18 40  1  0
 18 41  1  0
 18 42  1  0
 19 43  1  0
 20 44  1  0
M  END
>  <score>  (2) 
-9.575

$$$$
=
     RDKit          3D

 44 47  0  0  0  0  0  0  0  0999 V2000
   -2.1480   68.1900   66.9770 C   0  0  0  0  0  0  0  0  0  0  0  0
   -0.9690   68.1670   67.7030 C   0  0  0  0  0  0  0  0  0  0  0  0
    0.2470   68.3950   67.0560 C   0  0  0  0  0  0  0  0  0  0  0  0
    0.3030   68.6350   65.6710 C   0  0  0  0  0  0  0  0  0  0  0  0
   -0.9120   68.6850   64.9510 C   0  0  0  0  0  0  0  0  0  0  0  0
   -2.1300   68.4450   65.6120 C   0  0  0  0  0  0  0  0  0  0  0  0
   -0.9570   68.9370   63.4630 C   0  0  0  0  0  0  0  0  0  0  0  0
    0.3480   69.4760   62.8830 C   0  0  0  0  0  0  0  0  0  0  0  0
    1.5290   68.6800   63.4390 C   0  0  2  0  0  0  0  0  0  0  0  0
    1.6300   68.9290   64.9750 C   0  0  2  0  0  0  0  0  0  0  0  0
    2.8650   68.2100   65.5810 C   0  0  0  0  0  0  0  0  0  0  0  0
    4.1770   68.4900   64.8220 C   0  0  0  0  0  0  0  0  0  0  0  0
    4.0340   68.2250   63.3180 C   0  0  1  0  0  0  0  0  0  0  0  0
    2.8580   69.0720   62.7930 C   0  0  1  0  0  0  0  0  0  0  0  0
    3.0060   68.9830   61.2760 C   0  0  0  0  0  0  0  0  0  0  0  0
    4.5280   68.9450   61.0520 C   0  0  0  0  0  0  0  0  0  0  0  0
    5.1660   68.8030   62.4470 C   0  0  2  0  0  0  0  0  0  0  0  0
    3.8950   66.7000   63.0780 C   0  0  0  0  0  0  0  0  0  0  0  0
   -3.3140   67.9590   67.6460 O   0  0  0  0  0  0  0  0  0  0  0  0
    6.3200   67.9860   62.3930 O   0  0  0  0  0  0  0  0  0  0  0  0
   -0.9904   67.9699   68.7850 H   0  0  0  0  0  0  0  0  0  0  0  0
    1.1789   68.3868   67.6403 H   0  0  0  0  0  0  0  0  0  0  0  0
   -3.0726   68.4593   65.0452 H   0  0  0  0  0  0  0  0  0  0  0  0
   -1.1934   67.9883   62.9589 H   0  0  0  0  0  0  0  0  0  0  0  0
   -1.7220   69.7093   63.2948 H   0  0  0  0  0  0  0  0  0  0  0  0
    0.3273   69.3815   61.7873 H   0  0  0  0  0  0  0  0  0  0  0  0
    0.4597   70.5343   63.1614 H   0  0  0  0  0  0  0  0  0  0  0  0
    1.3459   67.6190   63.2138 H   0  0  0  0  0  0  0  0  0  0  0  0
    1.8112   69.9986   65.1571 H   0  0  0  0  0  0  0  0  0  0  0  0
    2.9868   68.5457   66.6214 H   0  0  0  0  0  0  0  0  0  0  0  0
    2.6757   67.1288   65.5093 H   0  0  0  0  0  0  0  0  0  0  0  0
    4.4576   69.5429   64.9727 H   0  0  0  0  0  0  0  0  0  0  0  0
    4.9502   67.8139   65.2158 H   0  0  0  0  0  0  0  0  0  0  0  0
    2.8696   70.1348   63.0764 H   0  0  0  0  0  0  0  0  0  0  0  0
    2.5310   68.0691   60.8898 H   0  0  0  0  0  0  0  0  0  0  0  0
    2.5220   69.8213   60.7535 H   0  0  0  0  0  0  0  0  0  0  0  0
    4.7988   68.0864   60.4200 H   0  0  0  0  0  0  0  0  0  0  0  0
    4.8802   69.8535   60.5415 H   0  0  0  0  0  0  0  0  0  0  0  0
    5.5336   69.7520   62.8644 H   0  0  0  0  0  0  0  0  0  0  0  0
    3.8475   66.1793   64.0458 H   0  0  0  0  0  0  0  0  0  0  0  0
    2.9750   66.5007   62.5089 H   0  0  0  0  0  0  0  0  0  0  0  0
    4.7638   66.3377   62.5089 H   0  0  0  0  0  0  0  0  0  0  0  0
   -4.1751   67.9681   67.1576 H   0  0  0  0  0  0  0  0  0  0  0  0
    6.6182   67.7749   63.3131 H   0  0  0  0  0  0  0  0  0  0  0  0
  2  1  2  0
  3  2  1  0
  4  3  2  0
  5  4  1  0
  6  5  2  0
  6  1  1  0
  7  5  1  0
  8  7  1  0
  9  8  1  0
 10  9  1  0
 10  4  1  0
 11 10  1  0
 12 11  1  0
 13 12  1  0
 14 13  1  0
 14  9  1  0
 15 14  1  0
 16 15  1  0
 17 16  1  0
 17 13  1  0
 13 18  1  1
 19  1  1  0
 20 17  1  0
  2 21  1  0
  3 22  1  0
  6 23  1  0
  7 24  1  0
  7 25  1  0
  8 26  1  0
  8 27  1  0
  9 28  1  1
 10 29  1  6
 11 30  1  0
 11 31  1  0
 12 32  1  0
 12 33  1  0
 14 34  1  1
 15 35  1  0
 15 36  1  0
 16 37  1  0
 16 38  1  0
 17 39  1  1
 18 40  1  0
 18 41  1  0
 18 42  1  0
 19 43  1  0
 20 44  1  0
M  END
>  <score>  (3) 
-9.082

$$$$
=
     RDKit          3D

 44 47  0  0  0  0  0  0  0  0999 V2000
   -0.2170   56.5280   74.0440 C   0  0  0  0  0  0  0  0  0  0  0  0
    1.0840   56.2830   73.6390 C   0  0  0  0  0  0  0  0  0  0  0  0
    1.8740   57.3370   73.1730 C   0  0  0  0  0  0  0  0  0  0  0  0
    1.3690   58.6470   73.0930 C   0  0  0  0  0  0  0  0  0  0  0  0
    0.0500   58.8840   73.5390 C   0  0  0  0  0  0  0  0  0  0  0  0
   -0.7390   57.8140   73.9990 C   0  0  0  0  0  0  0  0  0  0  0  0
   -0.5820   60.2550   73.4960 C   0  0  0  0  0  0  0  0  0  0  0  0
    0.4120   61.3910   73.2750 C   0  0  0  0  0  0  0  0  0  0  0  0
    1.3880   61.0170   72.1600 C   0  0  2  0  0  0  0  0  0  0  0  0
    2.2500   59.8040   72.6260 C   0  0  2  0  0  0  0  0  0  0  0  0
    3.3180   59.4310   71.5640 C   0  0  0  0  0  0  0  0  0  0  0  0
    4.1530   60.6330   71.0800 C   0  0  0  0  0  0  0  0  0  0  0  0
    3.2660   61.7980   70.6240 C   0  0  1  0  0  0  0  0  0  0  0  0
    2.3250   62.1670   71.7880 C   0  0  1  0  0  0  0  0  0  0  0  0
    1.7300   63.5040   71.3530 C   0  0  0  0  0  0  0  0  0  0  0  0
    2.8800   64.1960   70.6000 C   0  0  0  0  0  0  0  0  0  0  0  0
    3.9980   63.1440   70.4600 C   0  0  2  0  0  0  0  0  0  0  0  0
    2.5500   61.4100   69.3060 C   0  0  0  0  0  0  0  0  0  0  0  0
   -0.9560   55.4720   74.4890 O   0  0  0  0  0  0  0  0  0  0  0  0
    4.6670   63.2830   69.2210 O   0  0  0  0  0  0  0  0  0  0  0  0
    1.4939   55.2632   73.6839 H   0  0  0  0  0  0  0  0  0  0  0  0
    2.9105   57.1383   72.8629 H   0  0  0  0  0  0  0  0  0  0  0  0
   -1.7737   57.9968   74.3244 H   0  0  0  0  0  0  0  0  0  0  0  0
   -1.3147   60.2723   72.6757 H   0  0  0  0  0  0  0  0  0  0  0  0
   -1.0432   60.4233   74.4804 H   0  0  0  0  0  0  0  0  0  0  0  0
   -0.1335   62.3033   72.9918 H   0  0  0  0  0  0  0  0  0  0  0  0
    0.9734   61.5676   74.2043 H   0  0  0  0  0  0  0  0  0  0  0  0
    0.7909   60.7690   71.2701 H   0  0  0  0  0  0  0  0  0  0  0  0
    2.8293   60.0928   73.5154 H   0  0  0  0  0  0  0  0  0  0  0  0
    4.0001   58.6879   72.0028 H   0  0  0  0  0  0  0  0  0  0  0  0
    2.7794   59.0390   70.6887 H   0  0  0  0  0  0  0  0  0  0  0  0
    4.7944   60.9760   71.9052 H   0  0  0  0  0  0  0  0  0  0  0  0
    4.7554   60.3057   70.2198 H   0  0  0  0  0  0  0  0  0  0  0  0
    2.8066   62.3090   72.7667 H   0  0  0  0  0  0  0  0  0  0  0  0
    0.8655   63.3502   70.6904 H   0  0  0  0  0  0  0  0  0  0  0  0
    1.3608   64.0991   72.2013 H   0  0  0  0  0  0  0  0  0  0  0  0
    2.5411   64.5265   69.6071 H   0  0  0  0  0  0  0  0  0  0  0  0
    3.2336   65.0867   71.1400 H   0  0  0  0  0  0  0  0  0  0  0  0
    4.7990   63.2462   71.2070 H   0  0  0  0  0  0  0  0  0  0  0  0
    1.6049   60.8978   69.5392 H   0  0  0  0  0  0  0  0  0  0  0  0
    2.3405   62.3180   68.7215 H   0  0  0  0  0  0  0  0  0  0  0  0
    3.1963   60.7387   68.7215 H   0  0  0  0  0  0  0  0  0  0  0  0
   -1.8899   55.6117   74.7862 H   0  0  0  0  0  0  0  0  0  0  0  0
    5.6233   63.4817   69.3828 H   0  0  0  0  0  0  0  0  0  0  0  0
  2  1  2  0
  3  2  1  0
  4  3  2  0
  5  4  1  0
  6  5  2  0
  6  1  1  0
  7  5  1  0
  8  7  1  0
  9  8  1  0
 10  9  1  0
 10  4  1  0
 11 10  1  0
 12 11  1  0
 13 12  1  0
 14 13  1  0
 14  9  1  0
 15 14  1  0
 16 15  1  0
 17 16  1  0
 17 13  1  0
 13 18  1  6
 19  1  1  0
 20 17  1  0
  2 21  1  0
  3 22  1  0
  6 23  1  0
  7 24  1  0
  7 25  1  0
  8 26  1  0
  8 27  1  0
  9 28  1  6
 10 29  1  1
 11 30  1  0
 11 31  1  0
 12 32  1  0
 12 33  1  0
 14 34  1  1
 15 35  1  0
 15 36  1  0
 16 37  1  0
 16 38  1  0
 17 39  1  1
 18 40  1  0
 18 41  1  0
 18 42  1  0
 19 43  1  0
 20 44  1  0
M  END
>  <score>  (4) 
-8.367

$$$$
=
     RDKit          3D

 44 47  0  0  0  0  0  0  0  0999 V2000
   -2.6840   59.6740   74.3710 C   0  0  0  0  0  0  0  0  0  0  0  0
   -1.6850   58.7850   74.7260 C   0  0  0  0  0  0  0  0  0  0  0  0
   -0.3570   59.0660   74.3940 C   0  0  0  0  0  0  0  0  0  0  0  0
   -0.0130   60.2340   73.6890 C   0  0  0  0  0  0  0  0  0  0  0  0
   -1.0420   61.1450   73.3620 C   0  0  0  0  0  0  0  0  0  0  0  0
   -2.3760   60.8480   73.6940 C   0  0  0  0  0  0  0  0  0  0  0  0
   -0.7750   62.4270   72.6090 C   0  0  0  0  0  0  0  0  0  0  0  0
    0.6990   62.8180   72.5510 C   0  0  0  0  0  0  0  0  0  0  0  0
    1.5470   61.5930   72.2050 C   0  0  2  0  0  0  0  0  0  0  0  0
    1.4440   60.5600   73.3680 C   0  0  2  0  0  0  0  0  0  0  0  0
    2.3520   59.3290   73.1090 C   0  0  0  0  0  0  0  0  0  0  0  0
    3.8020   59.6980   72.7380 C   0  0  0  0  0  0  0  0  0  0  0  0
    3.8560   60.7100   71.5860 C   0  0  1  0  0  0  0  0  0  0  0  0
    3.0210   61.9410   71.9900 C   0  0  1  0  0  0  0  0  0  0  0  0
    3.3970   62.9850   70.9430 C   0  0  0  0  0  0  0  0  0  0  0  0
    4.8830   62.7030   70.6530 C   0  0  0  0  0  0  0  0  0  0  0  0
    5.2240   61.3920   71.3860 C   0  0  2  0  0  0  0  0  0  0  0  0
    3.4030   60.0180   70.2760 C   0  0  0  0  0  0  0  0  0  0  0  0
   -3.9670   59.3620   74.7110 O   0  0  0  0  0  0  0  0  0  0  0  0
    6.1430   60.6200   70.6370 O   0  0  0  0  0  0  0  0  0  0  0  0
   -1.9351   57.8607   75.2674 H   0  0  0  0  0  0  0  0  0  0  0  0
    0.4340   58.3610   74.6893 H   0  0  0  0  0  0  0  0  0  0  0  0
   -3.1785   61.5474   73.4168 H   0  0  0  0  0  0  0  0  0  0  0  0
   -1.1414   62.3057   71.5789 H   0  0  0  0  0  0  0  0  0  0  0  0
   -1.2957   63.2293   73.1524 H   0  0  0  0  0  0  0  0  0  0  0  0
    0.8419   63.5903   71.7809 H   0  0  0  0  0  0  0  0  0  0  0  0
    1.0096   63.2096   73.5309 H   0  0  0  0  0  0  0  0  0  0  0  0
    1.1584   61.1787   71.2630 H   0  0  0  0  0  0  0  0  0  0  0  0
    1.8409   61.0114   74.2893 H   0  0  0  0  0  0  0  0  0  0  0  0
    2.3722   58.7140   74.0208 H   0  0  0  0  0  0  0  0  0  0  0  0
    1.9267   58.7899   72.2496 H   0  0  0  0  0  0  0  0  0  0  0  0
    4.2947   60.1350   73.6191 H   0  0  0  0  0  0  0  0  0  0  0  0
    4.3151   58.7813   72.4119 H   0  0  0  0  0  0  0  0  0  0  0  0
    3.2367   62.3613   72.9834 H   0  0  0  0  0  0  0  0  0  0  0  0
    2.7909   62.8624   70.0333 H   0  0  0  0  0  0  0  0  0  0  0  0
    3.2209   64.0142   71.2890 H   0  0  0  0  0  0  0  0  0  0  0  0
    5.0450   62.5879   69.5711 H   0  0  0  0  0  0  0  0  0  0  0  0
    5.5217   63.5307   70.9951 H   0  0  0  0  0  0  0  0  0  0  0  0
    5.7301   61.5429   72.3510 H   0  0  0  0  0  0  0  0  0  0  0  0
    2.8155   59.1205   70.5196 H   0  0  0  0  0  0  0  0  0  0  0  0
    2.7845   60.7130   69.6891 H   0  0  0  0  0  0  0  0  0  0  0  0
    4.2874   59.7292   69.6891 H   0  0  0  0  0  0  0  0  0  0  0  0
   -4.7057   59.9763   74.4721 H   0  0  0  0  0  0  0  0  0  0  0  0
    6.7357   60.1221   71.2541 H   0  0  0  0  0  0  0  0  0  0  0  0
  2  1  2  0
  3  2  1  0
  4  3  2  0
  5  4  1  0
  6  5  2  0
  6  1  1  0
  7  5  1  0
  8  7  1  0
  9  8  1  0
 10  9  1  0
 10  4  1  0
 11 10  1  0
 12 11  1  0
 13 12  1  0
 14 13  1  0
 14  9  1  0
 15 14  1  0
 16 15  1  0
 17 16  1  0
 17 13  1  0
 13 18  1  6
 19  1  1  0
 20 17  1  0
  2 21  1  0
  3 22  1  0
  6 23  1  0
  7 24  1  0
  7 25  1  0
  8 26  1  0
  8 27  1  0
  9 28  1  6
 10 29  1  1
 11 30  1  0
 11 31  1  0
 12 32  1  0
 12 33  1  0
 14 34  1  1
 15 35  1  0
 15 36  1  0
 16 37  1  0
 16 38  1  0
 17 39  1  1
 18 40  1  0
 18 41  1  0
 18 42  1  0
 19 43  1  0
 20 44  1  0
M  END
>  <score>  (5) 
-8.277

$$$$
=
     RDKit          3D

 44 47  0  0  0  0  0  0  0  0999 V2000
    5.2120   68.4750   62.7710 C   0  0  0  0  0  0  0  0  0  0  0  0
    5.1520   67.7470   63.9470 C   0  0  0  0  0  0  0  0  0  0  0  0
    3.9150   67.5040   64.5490 C   0  0  0  0  0  0  0  0  0  0  0  0
    2.7230   67.9980   63.9910 C   0  0  0  0  0  0  0  0  0  0  0  0
    2.7990   68.7130   62.7750 C   0  0  0  0  0  0  0  0  0  0  0  0
    4.0510   68.9580   62.1810 C   0  0  0  0  0  0  0  0  0  0  0  0
    1.5760   69.2820   62.0960 C   0  0  0  0  0  0  0  0  0  0  0  0
    0.2560   68.7290   62.6260 C   0  0  0  0  0  0  0  0  0  0  0  0
    0.2810   68.7040   64.1550 C   0  0  2  0  0  0  0  0  0  0  0  0
    1.3690   67.6920   64.6280 C   0  0  2  0  0  0  0  0  0  0  0  0
    1.3820   67.5640   66.1740 C   0  0  0  0  0  0  0  0  0  0  0  0
   -0.0100   67.3060   66.7850 C   0  0  0  0  0  0  0  0  0  0  0  0
   -1.0440   68.3270   66.2980 C   0  0  1  0  0  0  0  0  0  0  0  0
   -1.0630   68.2930   64.7570 C   0  0  1  0  0  0  0  0  0  0  0  0
   -2.3160   69.0880   64.4000 C   0  0  0  0  0  0  0  0  0  0  0  0
   -3.3090   68.7460   65.5250 C   0  0  0  0  0  0  0  0  0  0  0  0
   -2.5120   67.9450   66.5730 C   0  0  2  0  0  0  0  0  0  0  0  0
   -0.7250   69.7130   66.9150 C   0  0  0  0  0  0  0  0  0  0  0  0
    6.4380   68.6920   62.2170 O   0  0  0  0  0  0  0  0  0  0  0  0
   -2.9480   68.2570   67.8830 O   0  0  0  0  0  0  0  0  0  0  0  0
    6.0746   67.3615   64.4055 H   0  0  0  0  0  0  0  0  0  0  0  0
    3.8729   66.9150   65.4771 H   0  0  0  0  0  0  0  0  0  0  0  0
    4.1104   69.5342   61.2459 H   0  0  0  0  0  0  0  0  0  0  0  0
    1.5766   70.3725   62.2402 H   0  0  0  0  0  0  0  0  0  0  0  0
    1.6383   68.9939   61.0362 H   0  0  0  0  0  0  0  0  0  0  0  0
   -0.5712   69.3688   62.2848 H   0  0  0  0  0  0  0  0  0  0  0  0
    0.1134   67.7057   62.2485 H   0  0  0  0  0  0  0  0  0  0  0  0
    0.5049   69.7250   64.4978 H   0  0  0  0  0  0  0  0  0  0  0  0
    1.1103   66.6861   64.2657 H   0  0  0  0  0  0  0  0  0  0  0  0
    2.0422   66.7279   66.4479 H   0  0  0  0  0  0  0  0  0  0  0  0
    1.7360   68.5257   66.5738 H   0  0  0  0  0  0  0  0  0  0  0  0
   -0.3432   66.2976   66.4985 H   0  0  0  0  0  0  0  0  0  0  0  0
    0.0739   67.3993   67.8778 H   0  0  0  0  0  0  0  0  0  0  0  0
   -1.1495   67.2961   64.3001 H   0  0  0  0  0  0  0  0  0  0  0  0
   -2.1023   70.1669   64.3821 H   0  0  0  0  0  0  0  0  0  0  0  0
   -2.7053   68.8379   63.4020 H   0  0  0  0  0  0  0  0  0  0  0  0
   -3.7097   69.6672   65.9731 H   0  0  0  0  0  0  0  0  0  0  0  0
   -4.1635   68.1679   65.1434 H   0  0  0  0  0  0  0  0  0  0  0  0
   -2.6520   66.8565   66.4991 H   0  0  0  0  0  0  0  0  0  0  0  0
   -0.7421   69.6386   68.0123 H   0  0  0  0  0  0  0  0  0  0  0  0
    0.2720   70.0405   66.5852 H   0  0  0  0  0  0  0  0  0  0  0  0
   -1.4785   70.4434   66.5852 H   0  0  0  0  0  0  0  0  0  0  0  0
    6.5168   69.2087   61.3762 H   0  0  0  0  0  0  0  0  0  0  0  0
   -2.3472   67.8270   68.5419 H   0  0  0  0  0  0  0  0  0  0  0  0
  2  1  2  0
  3  2  1  0
  4  3  2  0
  5  4  1  0
  6  5  2  0
  6  1  1  0
  7  5  1  0
  8  7  1  0
  9  8  1  0
 10  9  1  0
 10  4  1  0
 11 10  1  0
 12 11  1  0
 13 12  1  0
 14 13  1  0
 14  9  1  0
 15 14  1  0
 16 15  1  0
 17 16  1  0
 17 13  1  0
 13 18  1  6
 19  1  1  0
 20 17  1  0
  2 21  1  0
  3 22  1  0
  6 23  1  0
  7 24  1  0
  7 25  1  0
  8 26  1  0
  8 27  1  0
  9 28  1  1
 10 29  1  6
 11 30  1  0
 11 31  1  0
 12 32  1  0
 12 33  1  0
 14 34  1  1
 15 35  1  0
 15 36  1  0
 16 37  1  0
 16 38  1  0
 17 39  1  6
 18 40  1  0
 18 41  1  0
 18 42  1  0
 19 43  1  0
 20 44  1  0
M  END
>  <score>  (6) 
-8.182

$$$$
=
     RDKit          3D

 44 47  0  0  0  0  0  0  0  0999 V2000
    1.5840   64.7880   70.5710 C   0  0  0  0  0  0  0  0  0  0  0  0
    2.6680   64.0040   70.2140 C   0  0  0  0  0  0  0  0  0  0  0  0
    2.7320   62.6760   70.6410 C   0  0  0  0  0  0  0  0  0  0  0  0
    1.7200   62.1170   71.4420 C   0  0  0  0  0  0  0  0  0  0  0  0
    0.6060   62.9220   71.7710 C   0  0  0  0  0  0  0  0  0  0  0  0
    0.5560   64.2610   71.3420 C   0  0  0  0  0  0  0  0  0  0  0  0
   -0.5330   62.4140   72.6230 C   0  0  0  0  0  0  0  0  0  0  0  0
   -0.5540   60.8970   72.7920 C   0  0  0  0  0  0  0  0  0  0  0  0
    0.8550   60.3910   73.1020 C   0  0  2  0  0  0  0  0  0  0  0  0
    1.7710   60.6510   71.8680 C   0  0  2  0  0  0  0  0  0  0  0  0
    3.1960   60.0810   72.0950 C   0  0  0  0  0  0  0  0  0  0  0  0
    3.2060   58.6160   72.5730 C   0  0  0  0  0  0  0  0  0  0  0  0
    2.2990   58.4070   73.7920 C   0  0  1  0  0  0  0  0  0  0  0  0
    0.8840   58.8960   73.4250 C   0  0  1  0  0  0  0  0  0  0  0  0
    0.0170   58.3600   74.5610 C   0  0  0  0  0  0  0  0  0  0  0  0
    0.6630   57.0080   74.9160 C   0  0  0  0  0  0  0  0  0  0  0  0
    1.9780   56.9350   74.1160 C   0  0  2  0  0  0  0  0  0  0  0  0
    2.9290   59.1050   75.0240 C   0  0  0  0  0  0  0  0  0  0  0  0
    1.5610   66.0800   70.1370 O   0  0  0  0  0  0  0  0  0  0  0  0
    2.9860   56.2810   74.8630 O   0  0  0  0  0  0  0  0  0  0  0  0
    3.4752   64.4254   69.5968 H   0  0  0  0  0  0  0  0  0  0  0  0
    3.5905   62.0551   70.3452 H   0  0  0  0  0  0  0  0  0  0  0  0
   -0.3008   64.8931   71.6184 H   0  0  0  0  0  0  0  0  0  0  0  0
   -0.4502   62.8719   73.6197 H   0  0  0  0  0  0  0  0  0  0  0  0
   -1.4642   62.6893   72.1061 H   0  0  0  0  0  0  0  0  0  0  0  0
   -1.2279   60.6311   73.6197 H   0  0  0  0  0  0  0  0  0  0  0  0
   -0.9100   60.4326   71.8605 H   0  0  0  0  0  0  0  0  0  0  0  0
    1.2118   60.9342   73.9895 H   0  0  0  0  0  0  0  0  0  0  0  0
    1.3811   60.0931   71.0039 H   0  0  0  0  0  0  0  0  0  0  0  0
    3.7496   60.1410   71.1464 H   0  0  0  0  0  0  0  0  0  0  0  0
    3.6610   60.6826   72.8898 H   0  0  0  0  0  0  0  0  0  0  0  0
    2.8546   57.9719   71.7534 H   0  0  0  0  0  0  0  0  0  0  0  0
    4.2350   58.3593   72.8651 H   0  0  0  0  0  0  0  0  0  0  0  0
    0.4769   58.5161   72.4763 H   0  0  0  0  0  0  0  0  0  0  0  0
    0.0377   59.0419   75.4239 H   0  0  0  0  0  0  0  0  0  0  0  0
   -1.0410   58.2621   74.2764 H   0  0  0  0  0  0  0  0  0  0  0  0
    0.8701   56.9562   75.9951 H   0  0  0  0  0  0  0  0  0  0  0  0
   -0.0034   56.1686   74.6682 H   0  0  0  0  0  0  0  0  0  0  0  0
    1.9038   56.3397   73.1940 H   0  0  0  0  0  0  0  0  0  0  0  0
    2.5257   58.6581   75.9447 H   0  0  0  0  0  0  0  0  0  0  0  0
    4.0210   58.9744   75.0009 H   0  0  0  0  0  0  0  0  0  0  0  0
    2.6875   60.1779   75.0009 H   0  0  0  0  0  0  0  0  0  0  0  0
    0.8009   66.6683   70.3740 H   0  0  0  0  0  0  0  0  0  0  0  0
    2.8077   56.3967   75.8299 H   0  0  0  0  0  0  0  0  0  0  0  0
  2  1  2  0
  3  2  1  0
  4  3  2  0
  5  4  1  0
  6  5  2  0
  6  1  1  0
  7  5  1  0
  8  7  1  0
  9  8  1  0
 10  9  1  0
 10  4  1  0
 11 10  1  0
 12 11  1  0
 13 12  1  0
 14 13  1  0
 14  9  1  0
 15 14  1  0
 16 15  1  0
 17 16  1  0
 17 13  1  0
 13 18  1  1
 19  1  1  0
 20 17  1  0
  2 21  1  0
  3 22  1  0
  6 23  1  0
  7 24  1  0
  7 25  1  0
  8 26  1  0
  8 27  1  0
  9 28  1  1
 10 29  1  6
 11 30  1  0
 11 31  1  0
 12 32  1  0
 12 33  1  0
 14 34  1  6
 15 35  1  0
 15 36  1  0
 16 37  1  0
 16 38  1  0
 17 39  1  6
 18 40  1  0
 18 41  1  0
 18 42  1  0
 19 43  1  0
 20 44  1  0
M  END
>  <score>  (7) 
-8.094

$$$$
=
     RDKit          3D

 44 47  0  0  0  0  0  0  0  0999 V2000
    4.5830   63.1070   70.6580 C   0  0  0  0  0  0  0  0  0  0  0  0
    4.8120   61.7690   70.9310 C   0  0  0  0  0  0  0  0  0  0  0  0
    3.7770   60.9790   71.4370 C   0  0  0  0  0  0  0  0  0  0  0  0
    2.5030   61.5190   71.6890 C   0  0  0  0  0  0  0  0  0  0  0  0
    2.2790   62.8790   71.3770 C   0  0  0  0  0  0  0  0  0  0  0  0
    3.3310   63.6670   70.8750 C   0  0  0  0  0  0  0  0  0  0  0  0
    0.9460   63.5510   71.6090 C   0  0  0  0  0  0  0  0  0  0  0  0
   -0.2030   62.5810   71.8640 C   0  0  0  0  0  0  0  0  0  0  0  0
    0.2380   61.5020   72.8540 C   0  0  2  0  0  0  0  0  0  0  0  0
    1.3620   60.6420   72.1990 C   0  0  2  0  0  0  0  0  0  0  0  0
    1.7920   59.4770   73.1290 C   0  0  0  0  0  0  0  0  0  0  0  0
    0.6090   58.6450   73.6650 C   0  0  0  0  0  0  0  0  0  0  0  0
   -0.4660   59.5300   74.3060 C   0  0  1  0  0  0  0  0  0  0  0  0
   -0.9080   60.5770   73.2650 C   0  0  1  0  0  0  0  0  0  0  0  0
   -2.1700   61.1780   73.8790 C   0  0  0  0  0  0  0  0  0  0  0  0
   -2.8320   59.9930   74.6050 C   0  0  0  0  0  0  0  0  0  0  0  0
   -1.8200   58.8320   74.5470 C   0  0  2  0  0  0  0  0  0  0  0  0
    0.0790   60.1200   75.6310 C   0  0  0  0  0  0  0  0  0  0  0  0
    5.6200   63.8440   70.1680 O   0  0  0  0  0  0  0  0  0  0  0  0
   -1.8640   58.0670   75.7360 O   0  0  0  0  0  0  0  0  0  0  0  0
    5.8043   61.3302   70.7503 H   0  0  0  0  0  0  0  0  0  0  0  0
    3.9619   59.9143   71.6423 H   0  0  0  0  0  0  0  0  0  0  0  0
    3.1610   64.7310   70.6535 H   0  0  0  0  0  0  0  0  0  0  0  0
    1.0399   64.2129   72.4826 H   0  0  0  0  0  0  0  0  0  0  0  0
    0.7012   64.0981   70.6866 H   0  0  0  0  0  0  0  0  0  0  0  0
   -1.0592   63.1312   72.2814 H   0  0  0  0  0  0  0  0  0  0  0  0
   -0.4936   62.1058   70.9155 H   0  0  0  0  0  0  0  0  0  0  0  0
    0.5975   62.0131   73.7593 H   0  0  0  0  0  0  0  0  0  0  0  0
    0.9634   60.1499   71.2995 H   0  0  0  0  0  0  0  0  0  0  0  0
    2.4589   58.8092   72.5640 H   0  0  0  0  0  0  0  0  0  0  0  0
    2.2903   59.9272   74.0002 H   0  0  0  0  0  0  0  0  0  0  0  0
    0.1594   58.0868   72.8306 H   0  0  0  0  0  0  0  0  0  0  0  0
    0.9937   57.9617   74.4365 H   0  0  0  0  0  0  0  0  0  0  0  0
   -1.1659   60.1844   72.2703 H   0  0  0  0  0  0  0  0  0  0  0  0
   -1.9161   61.9790   74.5889 H   0  0  0  0  0  0  0  0  0  0  0  0
   -2.8298   61.6358   73.1272 H   0  0  0  0  0  0  0  0  0  0  0  0
   -3.0476   60.2588   75.6504 H   0  0  0  0  0  0  0  0  0  0  0  0
   -3.7861   59.7164   74.1325 H   0  0  0  0  0  0  0  0  0  0  0  0
   -2.0293   58.1003   73.7527 H   0  0  0  0  0  0  0  0  0  0  0  0
   -0.3938   59.6082   76.4822 H   0  0  0  0  0  0  0  0  0  0  0  0
    1.1686   59.9759   75.6758 H   0  0  0  0  0  0  0  0  0  0  0  0
   -0.1509   61.1948   75.6758 H   0  0  0  0  0  0  0  0  0  0  0  0
    5.4913   64.8037   69.9618 H   0  0  0  0  0  0  0  0  0  0  0  0
   -1.8292   58.6718   76.5190 H   0  0  0  0  0  0  0  0  0  0  0  0
  2  1  2  0
  3  2  1  0
  4  3  2  0
  5  4  1  0
  6  5  2  0
  6  1  1  0
  7  5  1  0
  8  7  1  0
  9  8  1  0
 10  9  1  0
 10  4  1  0
 11 10  1  0
 12 11  1  0
 13 12  1  0
 14 13  1  0
 14  9  1  0
 15 14  1  0
 16 15  1  0
 17 16  1  0
 17 13  1  0
 13 18  1  1
 19  1  1  0
 20 17  1  0
  2 21  1  0
  3 22  1  0
  6 23  1  0
  7 24  1  0
  7 25  1  0
  8 26  1  0
  8 27  1  0
  9 28  1  1
 10 29  1  6
 11 30  1  0
 11 31  1  0
 12 32  1  0
 12 33  1  0
 14 34  1  6
 15 35  1  0
 15 36  1  0
 16 37  1  0
 16 38  1  0
 17 39  1  6
 18 40  1  0
 18 41  1  0
 18 42  1  0
 19 43  1  0
 20 44  1  0
M  END
>  <score>  (8) 
-7.98

$$$$
=
     RDKit          3D

 44 47  0  0  0  0  0  0  0  0999 V2000
    0.0990   63.5500   76.7730 C   0  0  0  0  0  0  0  0  0  0  0  0
   -0.3510   64.4060   75.7820 C   0  0  0  0  0  0  0  0  0  0  0  0
   -0.0200   64.1550   74.4480 C   0  0  0  0  0  0  0  0  0  0  0  0
    0.7760   63.0530   74.0890 C   0  0  0  0  0  0  0  0  0  0  0  0
    1.2010   62.1730   75.1080 C   0  0  0  0  0  0  0  0  0  0  0  0
    0.8690   62.4390   76.4500 C   0  0  0  0  0  0  0  0  0  0  0  0
    2.0560   60.9610   74.8240 C   0  0  0  0  0  0  0  0  0  0  0  0
    2.1200   60.5780   73.3480 C   0  0  0  0  0  0  0  0  0  0  0  0
    2.3430   61.8290   72.4970 C   0  0  2  0  0  0  0  0  0  0  0  0
    1.0970   62.7570   72.6250 C   0  0  2  0  0  0  0  0  0  0  0  0
    1.2310   64.0070   71.7150 C   0  0  0  0  0  0  0  0  0  0  0  0
    1.6050   63.6720   70.2570 C   0  0  0  0  0  0  0  0  0  0  0  0
    2.8390   62.7640   70.1790 C   0  0  1  0  0  0  0  0  0  0  0  0
    2.5590   61.5020   71.0190 C   0  0  1  0  0  0  0  0  0  0  0  0
    3.6860   60.5530   70.6200 C   0  0  0  0  0  0  0  0  0  0  0  0
    3.9220   60.8590   69.1310 C   0  0  0  0  0  0  0  0  0  0  0  0
    3.0710   62.1030   68.8060 C   0  0  2  0  0  0  0  0  0  0  0  0
    4.0930   63.5660   70.6090 C   0  0  0  0  0  0  0  0  0  0  0  0
   -0.2420   63.8310   78.0630 O   0  0  0  0  0  0  0  0  0  0  0  0
    3.7340   62.9370   67.8750 O   0  0  0  0  0  0  0  0  0  0  0  0
   -0.9662   65.2795   76.0438 H   0  0  0  0  0  0  0  0  0  0  0  0
   -0.3891   64.8323   73.6638 H   0  0  0  0  0  0  0  0  0  0  0  0
    1.2202   61.7653   77.2455 H   0  0  0  0  0  0  0  0  0  0  0  0
    3.0785   61.1699   75.1717 H   0  0  0  0  0  0  0  0  0  0  0  0
    1.5933   60.1145   75.3525 H   0  0  0  0  0  0  0  0  0  0  0  0
    2.9511   59.8752   73.1889 H   0  0  0  0  0  0  0  0  0  0  0  0
    1.1719   60.1036   73.0546 H   0  0  0  0  0  0  0  0  0  0  0  0
    3.2529   62.3231   72.8683 H   0  0  0  0  0  0  0  0  0  0  0  0
    0.2110   62.2273   72.2449 H   0  0  0  0  0  0  0  0  0  0  0  0
    0.2692   64.5407   71.7134 H   0  0  0  0  0  0  0  0  0  0  0  0
    2.0481   64.6185   72.1252 H   0  0  0  0  0  0  0  0  0  0  0  0
    0.7559   63.1604   69.7803 H   0  0  0  0  0  0  0  0  0  0  0  0
    1.8405   64.6138   69.7397 H   0  0  0  0  0  0  0  0  0  0  0  0
    1.6018   60.9971   70.8219 H   0  0  0  0  0  0  0  0  0  0  0  0
    4.5931   60.7540   71.2089 H   0  0  0  0  0  0  0  0  0  0  0  0
    3.4339   59.4975   70.8001 H   0  0  0  0  0  0  0  0  0  0  0  0
    4.9866   61.0673   68.9488 H   0  0  0  0  0  0  0  0  0  0  0  0
    3.6408   60.0049   68.4973 H   0  0  0  0  0  0  0  0  0  0  0  0
    2.1132   61.8702   68.3177 H   0  0  0  0  0  0  0  0  0  0  0  0
    4.1473   63.6007   71.7071 H   0  0  0  0  0  0  0  0  0  0  0  0
    4.9949   63.0767   70.2126 H   0  0  0  0  0  0  0  0  0  0  0  0
    4.0271   64.5900   70.2126 H   0  0  0  0  0  0  0  0  0  0  0  0
    0.0633   63.2394   78.7958 H   0  0  0  0  0  0  0  0  0  0  0  0
    4.2708   63.6123   68.3607 H   0  0  0  0  0  0  0  0  0  0  0  0
  2  1  2  0
  3  2  1  0
  4  3  2  0
  5  4  1  0
  6  5  2  0
  6  1  1  0
  7  5  1  0
  8  7  1  0
  9  8  1  0
 10  9  1  0
 10  4  1  0
 11 10  1  0
 12 11  1  0
 13 12  1  0
 14 13  1  0
 14  9  1  0
 15 14  1  0
 16 15  1  0
 17 16  1  0
 17 13  1  0
 13 18  1  1
 19  1  1  0
 20 17  1  0
  2 21  1  0
  3 22  1  0
  6 23  1  0
  7 24  1  0
  7 25  1  0
  8 26  1  0
  8 27  1  0
  9 28  1  1
 10 29  1  6
 11 30  1  0
 11 31  1  0
 12 32  1  0
 12 33  1  0
 14 34  1  6
 15 35  1  0
 15 36  1  0
 16 37  1  0
 16 38  1  0
 17 39  1  6
 18 40  1  0
 18 41  1  0
 18 42  1  0
 19 43  1  0
 20 44  1  0
M  END
>  <score>  (9) 
-7.784

$$$$
