=
     RDKit          3D

 52 53  0  0  0  0  0  0  0  0999 V2000
    3.0360   68.8360   63.6920 N   0  0  2  0  0  4  0  0  0  0  0  0
    4.4280   68.3940   63.2810 C   0  0  0  0  0  0  0  0  0  0  0  0
    5.4560   69.3970   63.8020 C   0  0  0  0  0  0  0  0  0  0  0  0
    5.2630   69.7340   65.2610 C   0  0  0  0  0  0  0  0  0  0  0  0
    4.0460   69.4710   65.9110 C   0  0  0  0  0  0  0  0  0  0  0  0
    2.9140   68.7800   65.1990 C   0  0  0  0  0  0  0  0  0  0  0  0
    3.9000   69.8140   67.2650 C   0  0  0  0  0  0  0  0  0  0  0  0
    4.9390   70.4390   67.9640 C   0  0  0  0  0  0  0  0  0  0  0  0
    6.1500   70.7220   67.3040 C   0  0  0  0  0  0  0  0  0  0  0  0
    6.3010   70.3710   65.9600 C   0  0  0  0  0  0  0  0  0  0  0  0
    7.1130   71.3430   68.0580 O   0  0  0  0  0  0  0  0  0  0  0  0
    7.5360   70.7140   69.2590 C   0  0  0  0  0  0  0  0  0  0  0  0
    4.8730   70.8120   69.2820 O   0  0  0  0  0  0  0  0  0  0  0  0
    3.5960   70.9220   69.8920 C   0  0  0  0  0  0  0  0  0  0  0  0
    1.9310   68.0610   63.0100 C   0  0  0  0  0  0  0  0  0  0  0  0
    0.9070   69.0150   62.4040 C   0  0  0  0  0  0  0  0  0  0  0  0
   -0.3980   68.9820   63.2000 C   0  0  0  0  0  0  0  0  0  0  0  0
   -1.2340   68.5100   65.4710 C   0  0  0  0  0  0  0  0  0  0  0  0
   -2.3440   68.9840   65.2810 O   0  0  0  0  0  0  0  0  0  0  0  0
   -0.1940   68.5510   64.5610 N   0  0  0  0  0  0  0  0  0  0  0  0
   -1.7810   66.9700   67.2460 N   0  0  0  0  0  0  0  0  0  0  0  0
   -0.9090   67.8260   66.7820 C   0  0  0  0  0  0  0  0  0  0  0  0
    0.3730   68.1630   67.4940 C   0  0  0  0  0  0  0  0  0  0  0  0
    1.1570   67.2570   67.7460 O   0  0  0  0  0  0  0  0  0  0  0  0
    0.5470   69.5910   67.9080 C   0  0  0  0  0  0  0  0  0  0  0  0
   -1.3570   66.4220   68.4630 O   0  0  0  0  0  0  0  0  0  0  0  0
    2.9133   69.8083   63.3750 H   0  0  0  0  0  0  0  0  0  0  0  0
    4.6374   67.4008   63.7050 H   0  0  0  0  0  0  0  0  0  0  0  0
    4.4877   68.3446   62.1837 H   0  0  0  0  0  0  0  0  0  0  0  0
    6.4610   68.9694   63.6708 H   0  0  0  0  0  0  0  0  0  0  0  0
    5.3282   70.3274   63.2292 H   0  0  0  0  0  0  0  0  0  0  0  0
    1.9700   69.2630   65.4916 H   0  0  0  0  0  0  0  0  0  0  0  0
    2.9429   67.7197   65.4904 H   0  0  0  0  0  0  0  0  0  0  0  0
    2.9563   69.5884   67.7832 H   0  0  0  0  0  0  0  0  0  0  0  0
    7.2452   70.5966   65.4428 H   0  0  0  0  0  0  0  0  0  0  0  0
    7.1558   71.2794   70.1226 H   0  0  0  0  0  0  0  0  0  0  0  0
    7.1446   69.6865   69.2923 H   0  0  0  0  0  0  0  0  0  0  0  0
    8.6352   70.6889   69.2923 H   0  0  0  0  0  0  0  0  0  0  0  0
    3.7102   70.9122   70.9860 H   0  0  0  0  0  0  0  0  0  0  0  0
    3.1212   71.8644   69.5813 H   0  0  0  0  0  0  0  0  0  0  0  0
    2.9670   70.0747   69.5813 H   0  0  0  0  0  0  0  0  0  0  0  0
    2.3636   67.4394   62.2122 H   0  0  0  0  0  0  0  0  0  0  0  0
    1.4292   67.4257   63.7547 H   0  0  0  0  0  0  0  0  0  0  0  0
    1.3130   70.0372   62.4180 H   0  0  0  0  0  0  0  0  0  0  0  0
    0.6993   68.7016   61.3703 H   0  0  0  0  0  0  0  0  0  0  0  0
   -0.8330   69.9923   63.2096 H   0  0  0  0  0  0  0  0  0  0  0  0
   -1.0721   68.2611   62.7144 H   0  0  0  0  0  0  0  0  0  0  0  0
    0.7491   68.2669   64.8623 H   0  0  0  0  0  0  0  0  0  0  0  0
    0.5549   69.6561   69.0060 H   0  0  0  0  0  0  0  0  0  0  0  0
    1.4985   69.9745   67.5111 H   0  0  0  0  0  0  0  0  0  0  0  0
   -0.2846   70.1918   67.5111 H   0  0  0  0  0  0  0  0  0  0  0  0
   -1.9220   65.7564   68.9297 H   0  0  0  0  0  0  0  0  0  0  0  0
  2  1  1  0
  3  2  1  0
  4  3  1  0
  5  4  2  0
  6  1  1  0
  6  5  1  0
  7  5  1  0
  8  7  2  0
  9  8  1  0
 10  4  1  0
 10  9  2  0
 11  9  1  0
 12 11  1  0
 13  8  1  0
 14 13  1  0
 15  1  1  0
 16 15  1  0
 17 16  1  0
 19 18  2  0
 20 17  1  0
 20 18  1  0
 22 21  2  0
 22 18  1  0
 23 22  1  0
 24 23  2  0
 25 23  1  0
 26 21  1  0
  1 27  1  6
  2 28  1  0
  2 29  1  0
  3 30  1  0
  3 31  1  0
  6 32  1  0
  6 33  1  0
  7 34  1  0
 10 35  1  0
 12 36  1  0
 12 37  1  0
 12 38  1  0
 14 39  1  0
 14 40  1  0
 14 41  1  0
 15 42  1  0
 15 43  1  0
 16 44  1  0
 16 45  1  0
 17 46  1  0
 17 47  1  0
 20 48  1  0
 25 49  1  0
 25 50  1  0
 25 51  1  0
 26 52  1  0
M  CHG  1   1   1
M  END
>  <score>  (1) 
-8.819

$$$$
=
     RDKit          3D

 52 53  0  0  0  0  0  0  0  0999 V2000
    0.4580   65.7280   69.7650 N   0  0  2  0  0  4  0  0  0  0  0  0
   -0.0120   65.9680   71.1880 C   0  0  0  0  0  0  0  0  0  0  0  0
    0.0360   64.6550   71.9690 C   0  0  0  0  0  0  0  0  0  0  0  0
    1.3480   63.9240   71.8110 C   0  0  0  0  0  0  0  0  0  0  0  0
    2.2210   64.2230   70.7520 C   0  0  0  0  0  0  0  0  0  0  0  0
    1.9180   65.3300   69.7780 C   0  0  0  0  0  0  0  0  0  0  0  0
    3.4250   63.5090   70.6300 C   0  0  0  0  0  0  0  0  0  0  0  0
    3.7490   62.4890   71.5300 C   0  0  0  0  0  0  0  0  0  0  0  0
    2.8610   62.1750   72.5760 C   0  0  0  0  0  0  0  0  0  0  0  0
    1.6690   62.8920   72.7070 C   0  0  0  0  0  0  0  0  0  0  0  0
    3.2500   61.1570   73.4090 O   0  0  0  0  0  0  0  0  0  0  0  0
    2.2720   60.2150   73.8230 C   0  0  0  0  0  0  0  0  0  0  0  0
    4.8970   61.7410   71.4740 O   0  0  0  0  0  0  0  0  0  0  0  0
    4.9660   60.6700   70.5440 C   0  0  0  0  0  0  0  0  0  0  0  0
    0.2030   66.8970   68.8400 C   0  0  0  0  0  0  0  0  0  0  0  0
    1.5220   67.4890   68.3550 C   0  0  0  0  0  0  0  0  0  0  0  0
    1.3600   68.9740   68.0300 C   0  0  0  0  0  0  0  0  0  0  0  0
    3.5270   70.1070   68.3440 C   0  0  0  0  0  0  0  0  0  0  0  0
    3.3670   70.3210   69.5370 O   0  0  0  0  0  0  0  0  0  0  0  0
    2.5750   69.5520   67.5090 N   0  0  0  0  0  0  0  0  0  0  0  0
    5.0580   69.9620   66.4850 N   0  0  0  0  0  0  0  0  0  0  0  0
    4.8360   70.4640   67.6710 C   0  0  0  0  0  0  0  0  0  0  0  0
    5.8170   71.3530   68.3870 C   0  0  0  0  0  0  0  0  0  0  0  0
    5.8820   72.5310   68.0620 O   0  0  0  0  0  0  0  0  0  0  0  0
    6.6980   70.6880   69.3990 C   0  0  0  0  0  0  0  0  0  0  0  0
    6.3030   70.3670   65.9880 O   0  0  0  0  0  0  0  0  0  0  0  0
   -0.1040   64.9562   69.3785 H   0  0  0  0  0  0  0  0  0  0  0  0
    0.6447   66.7063   71.6714 H   0  0  0  0  0  0  0  0  0  0  0  0
   -1.0440   66.3486   71.1739 H   0  0  0  0  0  0  0  0  0  0  0  0
   -0.1165   64.8756   73.0358 H   0  0  0  0  0  0  0  0  0  0  0  0
   -0.7547   64.0038   71.5681 H   0  0  0  0  0  0  0  0  0  0  0  0
    2.1981   64.9943   68.7686 H   0  0  0  0  0  0  0  0  0  0  0  0
    2.4949   66.2115   70.0945 H   0  0  0  0  0  0  0  0  0  0  0  0
    4.1220   63.7557   69.8156 H   0  0  0  0  0  0  0  0  0  0  0  0
    0.9733   62.6448   73.5224 H   0  0  0  0  0  0  0  0  0  0  0  0
    2.2372   60.1815   74.9219 H   0  0  0  0  0  0  0  0  0  0  0  0
    1.2874   60.5137   73.4339 H   0  0  0  0  0  0  0  0  0  0  0  0
    2.5335   59.2199   73.4339 H   0  0  0  0  0  0  0  0  0  0  0  0
    5.0275   59.7157   71.0876 H   0  0  0  0  0  0  0  0  0  0  0  0
    4.0657   60.6746   69.9120 H   0  0  0  0  0  0  0  0  0  0  0  0
    5.8583   60.7901   69.9120 H   0  0  0  0  0  0  0  0  0  0  0  0
   -0.3802   66.5527   67.9732 H   0  0  0  0  0  0  0  0  0  0  0  0
   -0.3550   67.6704   69.3881 H   0  0  0  0  0  0  0  0  0  0  0  0
    2.2814   67.3723   69.1422 H   0  0  0  0  0  0  0  0  0  0  0  0
    1.8336   66.9590   67.4429 H   0  0  0  0  0  0  0  0  0  0  0  0
    0.5632   69.0880   67.2802 H   0  0  0  0  0  0  0  0  0  0  0  0
    1.1085   69.4992   68.9632 H   0  0  0  0  0  0  0  0  0  0  0  0
    2.7368   69.5511   66.4918 H   0  0  0  0  0  0  0  0  0  0  0  0
    6.3543   70.9474   70.4112 H   0  0  0  0  0  0  0  0  0  0  0  0
    6.6523   69.5972   69.2646 H   0  0  0  0  0  0  0  0  0  0  0  0
    7.7345   71.0309   69.2646 H   0  0  0  0  0  0  0  0  0  0  0  0
    6.6033   70.0606   65.0958 H   0  0  0  0  0  0  0  0  0  0  0  0
  2  1  1  0
  3  2  1  0
  4  3  1  0
  5  4  2  0
  6  1  1  0
  6  5  1  0
  7  5  1  0
  8  7  2  0
  9  8  1  0
 10  4  1  0
 10  9  2  0
 11  9  1  0
 12 11  1  0
 13  8  1  0
 14 13  1  0
 15  1  1  0
 16 15  1  0
 17 16  1  0
 19 18  2  0
 20 17  1  0
 20 18  1  0
 22 21  2  0
 22 18  1  0
 23 22  1  0
 24 23  2  0
 25 23  1  0
 26 21  1  0
  1 27  1  6
  2 28  1  0
  2 29  1  0
  3 30  1  0
  3 31  1  0
  6 32  1  0
  6 33  1  0
  7 34  1  0
 10 35  1  0
 12 36  1  0
 12 37  1  0
 12 38  1  0
 14 39  1  0
 14 40  1  0
 14 41  1  0
 15 42  1  0
 15 43  1  0
 16 44  1  0
 16 45  1  0
 17 46  1  0
 17 47  1  0
 20 48  1  0
 25 49  1  0
 25 50  1  0
 25 51  1  0
 26 52  1  0
M  CHG  1   1   1
M  END
>  <score>  (2) 
-8.81

$$$$
=
     RDKit          3D

 52 53  0  0  0  0  0  0  0  0999 V2000
    0.8770   68.0600   67.6670 N   0  0  2  0  0  4  0  0  0  0  0  0
   -0.5010   67.7710   67.1010 C   0  0  0  0  0  0  0  0  0  0  0  0
   -0.7370   68.6400   65.8660 C   0  0  0  0  0  0  0  0  0  0  0  0
    0.4110   68.5970   64.8870 C   0  0  0  0  0  0  0  0  0  0  0  0
    1.6820   68.1470   65.2810 C   0  0  0  0  0  0  0  0  0  0  0  0
    1.9310   67.6250   66.6710 C   0  0  0  0  0  0  0  0  0  0  0  0
    2.7300   68.1360   64.3450 C   0  0  0  0  0  0  0  0  0  0  0  0
    2.5300   68.5940   63.0380 C   0  0  0  0  0  0  0  0  0  0  0  0
    1.2610   69.0660   62.6520 C   0  0  0  0  0  0  0  0  0  0  0  0
    0.2140   69.0660   63.5790 C   0  0  0  0  0  0  0  0  0  0  0  0
    1.1510   69.5040   61.3570 O   0  0  0  0  0  0  0  0  0  0  0  0
   -0.1320   69.8830   60.8810 C   0  0  0  0  0  0  0  0  0  0  0  0
    3.5000   68.6250   62.0700 O   0  0  0  0  0  0  0  0  0  0  0  0
    4.1710   67.4170   61.7430 C   0  0  0  0  0  0  0  0  0  0  0  0
    1.1090   67.4500   69.0310 C   0  0  0  0  0  0  0  0  0  0  0  0
    0.0210   66.4300   69.3490 C   0  0  0  0  0  0  0  0  0  0  0  0
    0.4130   65.5830   70.5610 C   0  0  0  0  0  0  0  0  0  0  0  0
    1.5340   63.4090   70.8680 C   0  0  0  0  0  0  0  0  0  0  0  0
    0.8580   63.0710   71.8280 O   0  0  0  0  0  0  0  0  0  0  0  0
    1.4620   64.6430   70.2490 N   0  0  0  0  0  0  0  0  0  0  0  0
    2.3900   61.1810   70.5160 N   0  0  0  0  0  0  0  0  0  0  0  0
    2.5500   62.4560   70.2740 C   0  0  0  0  0  0  0  0  0  0  0  0
    3.6900   63.0030   69.4590 C   0  0  0  0  0  0  0  0  0  0  0  0
    3.5780   63.0240   68.2400 O   0  0  0  0  0  0  0  0  0  0  0  0
    4.9140   63.4110   70.2190 C   0  0  0  0  0  0  0  0  0  0  0  0
    3.4020   60.4200   69.9160 O   0  0  0  0  0  0  0  0  0  0  0  0
    0.9445   69.0770   67.8156 H   0  0  0  0  0  0  0  0  0  0  0  0
   -0.5669   66.7094   66.8204 H   0  0  0  0  0  0  0  0  0  0  0  0
   -1.2641   67.9977   67.8601 H   0  0  0  0  0  0  0  0  0  0  0  0
   -1.6455   68.2862   65.3567 H   0  0  0  0  0  0  0  0  0  0  0  0
   -0.8378   69.6801   66.2097 H   0  0  0  0  0  0  0  0  0  0  0  0
    2.9093   67.9936   67.0132 H   0  0  0  0  0  0  0  0  0  0  0  0
    1.8995   66.5267   66.6192 H   0  0  0  0  0  0  0  0  0  0  0  0
    3.7206   67.7625   64.6436 H   0  0  0  0  0  0  0  0  0  0  0  0
   -0.7767   69.4384   63.2792 H   0  0  0  0  0  0  0  0  0  0  0  0
   -0.7967   70.0794   61.7352 H   0  0  0  0  0  0  0  0  0  0  0  0
   -0.0422   70.7930   60.2695 H   0  0  0  0  0  0  0  0  0  0  0  0
   -0.5510   69.0703   60.2695 H   0  0  0  0  0  0  0  0  0  0  0  0
    4.4602   66.8963   62.6678 H   0  0  0  0  0  0  0  0  0  0  0  0
    3.5011   66.7733   61.1540 H   0  0  0  0  0  0  0  0  0  0  0  0
    5.0714   67.6456   61.1540 H   0  0  0  0  0  0  0  0  0  0  0  0
    2.0889   66.9503   69.0427 H   0  0  0  0  0  0  0  0  0  0  0  0
    1.0825   68.2477   69.7879 H   0  0  0  0  0  0  0  0  0  0  0  0
   -0.9182   66.9596   69.5669 H   0  0  0  0  0  0  0  0  0  0  0  0
   -0.1078   65.7673   68.4806 H   0  0  0  0  0  0  0  0  0  0  0  0
    0.7617   66.2507   71.3626 H   0  0  0  0  0  0  0  0  0  0  0  0
   -0.4724   65.0109   70.8754 H   0  0  0  0  0  0  0  0  0  0  0  0
    2.1736   64.8971   69.5490 H   0  0  0  0  0  0  0  0  0  0  0  0
    4.7144   63.3445   71.2987 H   0  0  0  0  0  0  0  0  0  0  0  0
    5.7474   62.7421   69.9583 H   0  0  0  0  0  0  0  0  0  0  0  0
    5.1794   64.4462   69.9583 H   0  0  0  0  0  0  0  0  0  0  0  0
    3.4065   59.4352   70.0168 H   0  0  0  0  0  0  0  0  0  0  0  0
  2  1  1  0
  3  2  1  0
  4  3  1  0
  5  4  2  0
  6  1  1  0
  6  5  1  0
  7  5  1  0
  8  7  2  0
  9  8  1  0
 10  4  1  0
 10  9  2  0
 11  9  1  0
 12 11  1  0
 13  8  1  0
 14 13  1  0
 15  1  1  0
 16 15  1  0
 17 16  1  0
 19 18  2  0
 20 17  1  0
 20 18  1  0
 22 21  2  0
 22 18  1  0
 23 22  1  0
 24 23  2  0
 25 23  1  0
 26 21  1  0
  1 27  1  1
  2 28  1  0
  2 29  1  0
  3 30  1  0
  3 31  1  0
  6 32  1  0
  6 33  1  0
  7 34  1  0
 10 35  1  0
 12 36  1  0
 12 37  1  0
 12 38  1  0
 14 39  1  0
 14 40  1  0
 14 41  1  0
 15 42  1  0
 15 43  1  0
 16 44  1  0
 16 45  1  0
 17 46  1  0
 17 47  1  0
 20 48  1  0
 25 49  1  0
 25 50  1  0
 25 51  1  0
 26 52  1  0
M  CHG  1   1   1
M  END
>  <score>  (3) 
-8.686

$$$$
=
     RDKit          3D

 52 53  0  0  0  0  0  0  0  0999 V2000
    2.5850   67.7930   63.5030 N   0  0  2  0  0  4  0  0  0  0  0  0
    1.9470   69.1120   63.1070 C   0  0  0  0  0  0  0  0  0  0  0  0
    0.4380   69.0380   63.3400 C   0  0  0  0  0  0  0  0  0  0  0  0
    0.0780   68.5020   64.7050 C   0  0  0  0  0  0  0  0  0  0  0  0
    1.0120   67.7840   65.4700 C   0  0  0  0  0  0  0  0  0  0  0  0
    2.4250   67.5830   64.9930 C   0  0  0  0  0  0  0  0  0  0  0  0
    0.6340   67.2870   66.7290 C   0  0  0  0  0  0  0  0  0  0  0  0
   -0.6650   67.4730   67.2140 C   0  0  0  0  0  0  0  0  0  0  0  0
   -1.6060   68.1730   66.4340 C   0  0  0  0  0  0  0  0  0  0  0  0
   -1.2280   68.6790   65.1870 C   0  0  0  0  0  0  0  0  0  0  0  0
   -2.8580   68.3040   66.9790 O   0  0  0  0  0  0  0  0  0  0  0  0
   -3.9290   68.6740   66.1230 C   0  0  0  0  0  0  0  0  0  0  0  0
   -1.1150   67.0130   68.4250 O   0  0  0  0  0  0  0  0  0  0  0  0
   -0.1890   66.3820   69.2970 C   0  0  0  0  0  0  0  0  0  0  0  0
    4.0290   67.6680   63.0700 C   0  0  0  0  0  0  0  0  0  0  0  0
    4.6170   69.0440   62.7790 C   0  0  0  0  0  0  0  0  0  0  0  0
    5.6550   69.4220   63.8380 C   0  0  0  0  0  0  0  0  0  0  0  0
    5.7950   69.7870   66.2720 C   0  0  0  0  0  0  0  0  0  0  0  0
    6.9640   69.4400   66.3680 O   0  0  0  0  0  0  0  0  0  0  0  0
    5.0470   69.7180   65.1130 N   0  0  0  0  0  0  0  0  0  0  0  0
    3.8220   69.9300   67.6530 N   0  0  0  0  0  0  0  0  0  0  0  0
    5.0560   70.3250   67.4790 C   0  0  0  0  0  0  0  0  0  0  0  0
    5.7510   71.2870   68.4040 C   0  0  0  0  0  0  0  0  0  0  0  0
    5.6670   72.4860   68.1700 O   0  0  0  0  0  0  0  0  0  0  0  0
    6.5630   70.6790   69.5060 C   0  0  0  0  0  0  0  0  0  0  0  0
    3.2600   70.5090   68.7970 O   0  0  0  0  0  0  0  0  0  0  0  0
    2.0898   67.0446   62.9974 H   0  0  0  0  0  0  0  0  0  0  0  0
    2.3728   69.9229   63.7162 H   0  0  0  0  0  0  0  0  0  0  0  0
    2.1446   69.3103   62.0432 H   0  0  0  0  0  0  0  0  0  0  0  0
    0.0175   70.0493   63.2383 H   0  0  0  0  0  0  0  0  0  0  0  0
    0.0232   68.3443   62.5939 H   0  0  0  0  0  0  0  0  0  0  0  0
    2.7338   66.5558   65.2367 H   0  0  0  0  0  0  0  0  0  0  0  0
    3.0512   68.3328   65.4986 H   0  0  0  0  0  0  0  0  0  0  0  0
    1.3693   66.7445   67.3413 H   0  0  0  0  0  0  0  0  0  0  0  0
   -1.9635   69.2227   64.5759 H   0  0  0  0  0  0  0  0  0  0  0  0
   -4.7964   68.9737   66.7295 H   0  0  0  0  0  0  0  0  0  0  0  0
   -3.6168   69.5164   65.4882 H   0  0  0  0  0  0  0  0  0  0  0  0
   -4.2034   67.8186   65.4882 H   0  0  0  0  0  0  0  0  0  0  0  0
   -0.4762   66.5777   70.3407 H   0  0  0  0  0  0  0  0  0  0  0  0
   -0.1925   65.2975   69.1130 H   0  0  0  0  0  0  0  0  0  0  0  0
    0.8191   66.7819   69.1130 H   0  0  0  0  0  0  0  0  0  0  0  0
    4.6081   67.1887   63.8731 H   0  0  0  0  0  0  0  0  0  0  0  0
    4.0760   67.0589   62.1552 H   0  0  0  0  0  0  0  0  0  0  0  0
    5.0985   69.0294   61.7901 H   0  0  0  0  0  0  0  0  0  0  0  0
    3.8059   69.7869   62.7969 H   0  0  0  0  0  0  0  0  0  0  0  0
    6.3542   68.5823   63.9649 H   0  0  0  0  0  0  0  0  0  0  0  0
    6.1765   70.3271   63.4932 H   0  0  0  0  0  0  0  0  0  0  0  0
    4.0312   69.8817   65.1597 H   0  0  0  0  0  0  0  0  0  0  0  0
    6.1510   70.9875   70.4781 H   0  0  0  0  0  0  0  0  0  0  0  0
    6.5289   69.5825   69.4246 H   0  0  0  0  0  0  0  0  0  0  0  0
    7.6055   71.0204   69.4246 H   0  0  0  0  0  0  0  0  0  0  0  0
    2.3268   70.2977   69.0512 H   0  0  0  0  0  0  0  0  0  0  0  0
  2  1  1  0
  3  2  1  0
  4  3  1  0
  5  4  2  0
  6  1  1  0
  6  5  1  0
  7  5  1  0
  8  7  2  0
  9  8  1  0
 10  4  1  0
 10  9  2  0
 11  9  1  0
 12 11  1  0
 13  8  1  0
 14 13  1  0
 15  1  1  0
 16 15  1  0
 17 16  1  0
 19 18  2  0
 20 17  1  0
 20 18  1  0
 22 21  2  0
 22 18  1  0
 23 22  1  0
 24 23  2  0
 25 23  1  0
 26 21  1  0
  1 27  1  6
  2 28  1  0
  2 29  1  0
  3 30  1  0
  3 31  1  0
  6 32  1  0
  6 33  1  0
  7 34  1  0
 10 35  1  0
 12 36  1  0
 12 37  1  0
 12 38  1  0
 14 39  1  0
 14 40  1  0
 14 41  1  0
 15 42  1  0
 15 43  1  0
 16 44  1  0
 16 45  1  0
 17 46  1  0
 17 47  1  0
 20 48  1  0
 25 49  1  0
 25 50  1  0
 25 51  1  0
 26 52  1  0
M  CHG  1   1   1
M  END
>  <score>  (4) 
-8.554

$$$$
=
     RDKit          3D

 52 53  0  0  0  0  0  0  0  0999 V2000
    0.8060   65.0150   70.1890 N   0  0  2  0  0  4  0  0  0  0  0  0
    0.1170   64.7720   71.5190 C   0  0  0  0  0  0  0  0  0  0  0  0
   -0.0160   63.2680   71.7570 C   0  0  0  0  0  0  0  0  0  0  0  0
    1.2730   62.5190   71.5240 C   0  0  0  0  0  0  0  0  0  0  0  0
    2.3210   63.0920   70.7840 C   0  0  0  0  0  0  0  0  0  0  0  0
    2.2270   64.4990   70.2560 C   0  0  0  0  0  0  0  0  0  0  0  0
    3.4990   62.3560   70.5740 C   0  0  0  0  0  0  0  0  0  0  0  0
    3.6290   61.0530   71.0680 C   0  0  0  0  0  0  0  0  0  0  0  0
    2.5690   60.4730   71.7890 C   0  0  0  0  0  0  0  0  0  0  0  0
    1.4010   61.2080   72.0090 C   0  0  0  0  0  0  0  0  0  0  0  0
    2.7750   59.1910   72.2310 O   0  0  0  0  0  0  0  0  0  0  0  0
    3.1820   59.0000   73.5780 C   0  0  0  0  0  0  0  0  0  0  0  0
    4.7410   60.2680   70.9000 O   0  0  0  0  0  0  0  0  0  0  0  0
    6.0000   60.7760   71.3150 C   0  0  0  0  0  0  0  0  0  0  0  0
    0.7540   66.4570   69.7370 C   0  0  0  0  0  0  0  0  0  0  0  0
   -0.4670   66.6940   68.8550 C   0  0  0  0  0  0  0  0  0  0  0  0
   -0.1190   67.6210   67.6890 C   0  0  0  0  0  0  0  0  0  0  0  0
    1.0040   67.4500   65.5010 C   0  0  0  0  0  0  0  0  0  0  0  0
    0.2100   68.1700   64.9130 O   0  0  0  0  0  0  0  0  0  0  0  0
    0.8750   67.0450   66.8160 N   0  0  0  0  0  0  0  0  0  0  0  0
    2.5690   65.6790   65.0190 N   0  0  0  0  0  0  0  0  0  0  0  0
    2.2290   66.9190   64.7870 C   0  0  0  0  0  0  0  0  0  0  0  0
    3.0010   67.8270   63.8680 C   0  0  0  0  0  0  0  0  0  0  0  0
    3.0280   67.5630   62.6730 O   0  0  0  0  0  0  0  0  0  0  0  0
    3.7460   68.9520   64.5190 C   0  0  0  0  0  0  0  0  0  0  0  0
    3.7190   65.3250   64.3020 O   0  0  0  0  0  0  0  0  0  0  0  0
    0.2853   64.4921   69.4704 H   0  0  0  0  0  0  0  0  0  0  0  0
    0.7130   65.2199   72.3278 H   0  0  0  0  0  0  0  0  0  0  0  0
   -0.8828   65.2304   71.5030 H   0  0  0  0  0  0  0  0  0  0  0  0
   -0.3336   63.1043   72.7973 H   0  0  0  0  0  0  0  0  0  0  0  0
   -0.7545   62.8846   71.0376 H   0  0  0  0  0  0  0  0  0  0  0  0
    2.6558   64.5221   69.2433 H   0  0  0  0  0  0  0  0  0  0  0  0
    2.7787   65.1478   70.9522 H   0  0  0  0  0  0  0  0  0  0  0  0
    4.3300   62.8097   70.0140 H   0  0  0  0  0  0  0  0  0  0  0  0
    0.5710   60.7532   72.5696 H   0  0  0  0  0  0  0  0  0  0  0  0
    2.3965   59.3686   74.2541 H   0  0  0  0  0  0  0  0  0  0  0  0
    3.3508   57.9287   73.7616 H   0  0  0  0  0  0  0  0  0  0  0  0
    4.1139   59.5548   73.7616 H   0  0  0  0  0  0  0  0  0  0  0  0
    6.0440   60.7938   72.4140 H   0  0  0  0  0  0  0  0  0  0  0  0
    6.8018   60.1310   70.9263 H   0  0  0  0  0  0  0  0  0  0  0  0
    6.1297   61.7968   70.9263 H   0  0  0  0  0  0  0  0  0  0  0  0
    0.6963   67.1115   70.6192 H   0  0  0  0  0  0  0  0  0  0  0  0
    1.6616   66.6823   69.1578 H   0  0  0  0  0  0  0  0  0  0  0  0
   -0.8183   65.7302   68.4578 H   0  0  0  0  0  0  0  0  0  0  0  0
   -1.2545   67.1668   69.4602 H   0  0  0  0  0  0  0  0  0  0  0  0
   -1.0316   67.8169   67.1070 H   0  0  0  0  0  0  0  0  0  0  0  0
    0.2948   68.5505   68.1070 H   0  0  0  0  0  0  0  0  0  0  0  0
    1.5030   66.3150   67.1814 H   0  0  0  0  0  0  0  0  0  0  0  0
    3.6795   68.8516   65.6124 H   0  0  0  0  0  0  0  0  0  0  0  0
    4.8016   68.9193   64.2113 H   0  0  0  0  0  0  0  0  0  0  0  0
    3.3039   69.9111   64.2113 H   0  0  0  0  0  0  0  0  0  0  0  0
    4.0909   64.4111   64.3827 H   0  0  0  0  0  0  0  0  0  0  0  0
  2  1  1  0
  3  2  1  0
  4  3  1  0
  5  4  2  0
  6  1  1  0
  6  5  1  0
  7  5  1  0
  8  7  2  0
  9  8  1  0
 10  4  1  0
 10  9  2  0
 11  9  1  0
 12 11  1  0
 13  8  1  0
 14 13  1  0
 15  1  1  0
 16 15  1  0
 17 16  1  0
 19 18  2  0
 20 17  1  0
 20 18  1  0
 22 21  2  0
 22 18  1  0
 23 22  1  0
 24 23  2  0
 25 23  1  0
 26 21  1  0
  1 27  1  6
  2 28  1  0
  2 29  1  0
  3 30  1  0
  3 31  1  0
  6 32  1  0
  6 33  1  0
  7 34  1  0
 10 35  1  0
 12 36  1  0
 12 37  1  0
 12 38  1  0
 14 39  1  0
 14 40  1  0
 14 41  1  0
 15 42  1  0
 15 43  1  0
 16 44  1  0
 16 45  1  0
 17 46  1  0
 17 47  1  0
 20 48  1  0
 25 49  1  0
 25 50  1  0
 25 51  1  0
 26 52  1  0
M  CHG  1   1   1
M  END
>  <score>  (5) 
-8.543

$$$$
=
     RDKit          3D

 52 53  0  0  0  0  0  0  0  0999 V2000
    0.1980   66.9320   69.2540 N   0  0  2  0  0  4  0  0  0  0  0  0
   -1.0190   66.4500   68.4870 C   0  0  0  0  0  0  0  0  0  0  0  0
   -1.3550   67.4500   67.3810 C   0  0  0  0  0  0  0  0  0  0  0  0
   -0.1530   67.8390   66.5540 C   0  0  0  0  0  0  0  0  0  0  0  0
    1.1520   67.6220   67.0260 C   0  0  0  0  0  0  0  0  0  0  0  0
    1.4030   66.9290   68.3380 C   0  0  0  0  0  0  0  0  0  0  0  0
    2.2450   68.0130   66.2340 C   0  0  0  0  0  0  0  0  0  0  0  0
    2.0480   68.6400   64.9990 C   0  0  0  0  0  0  0  0  0  0  0  0
    0.7390   68.8780   64.5390 C   0  0  0  0  0  0  0  0  0  0  0  0
   -0.3500   68.4790   65.3200 C   0  0  0  0  0  0  0  0  0  0  0  0
    0.6340   69.5040   63.3230 O   0  0  0  0  0  0  0  0  0  0  0  0
    0.1010   68.7690   62.2310 C   0  0  0  0  0  0  0  0  0  0  0  0
    3.0590   69.0590   64.1720 O   0  0  0  0  0  0  0  0  0  0  0  0
    4.3620   69.2060   64.7150 C   0  0  0  0  0  0  0  0  0  0  0  0
    0.4570   66.1560   70.5250 C   0  0  0  0  0  0  0  0  0  0  0  0
    0.8530   64.7200   70.2010 C   0  0  0  0  0  0  0  0  0  0  0  0
    2.3000   64.4520   70.6170 C   0  0  0  0  0  0  0  0  0  0  0  0
    3.0380   62.2740   69.7280 C   0  0  0  0  0  0  0  0  0  0  0  0
    3.1010   62.6460   68.5650 O   0  0  0  0  0  0  0  0  0  0  0  0
    2.5670   63.0430   70.7760 N   0  0  0  0  0  0  0  0  0  0  0  0
    3.3990   59.9500   69.1910 N   0  0  0  0  0  0  0  0  0  0  0  0
    3.4800   60.8770   70.1100 C   0  0  0  0  0  0  0  0  0  0  0  0
    3.9700   60.6120   71.5070 C   0  0  0  0  0  0  0  0  0  0  0  0
    3.1680   60.2140   72.3410 O   0  0  0  0  0  0  0  0  0  0  0  0
    5.4060   60.9370   71.7790 C   0  0  0  0  0  0  0  0  0  0  0  0
    3.8320   58.7110   69.6820 O   0  0  0  0  0  0  0  0  0  0  0  0
    0.0070   67.8949   69.5659 H   0  0  0  0  0  0  0  0  0  0  0  0
   -0.8052   65.4678   68.0403 H   0  0  0  0  0  0  0  0  0  0  0  0
   -1.8738   66.3630   69.1739 H   0  0  0  0  0  0  0  0  0  0  0  0
   -2.1067   66.9988   66.7167 H   0  0  0  0  0  0  0  0  0  0  0  0
   -1.7313   68.3631   67.8654 H   0  0  0  0  0  0  0  0  0  0  0  0
    2.2324   67.4391   68.8497 H   0  0  0  0  0  0  0  0  0  0  0  0
    1.6399   65.8787   68.1128 H   0  0  0  0  0  0  0  0  0  0  0  0
    3.2685   67.8236   66.5897 H   0  0  0  0  0  0  0  0  0  0  0  0
   -1.3731   68.6688   64.9634 H   0  0  0  0  0  0  0  0  0  0  0  0
   -0.5048   67.9336   62.6121 H   0  0  0  0  0  0  0  0  0  0  0  0
   -0.5296   69.4293   61.6175 H   0  0  0  0  0  0  0  0  0  0  0  0
    0.9246   68.3748   61.6175 H   0  0  0  0  0  0  0  0  0  0  0  0
    4.3043   69.1995   65.8135 H   0  0  0  0  0  0  0  0  0  0  0  0
    4.9965   68.3737   64.3762 H   0  0  0  0  0  0  0  0  0  0  0  0
    4.7951   70.1587   64.3762 H   0  0  0  0  0  0  0  0  0  0  0  0
    1.2716   66.6389   71.0846 H   0  0  0  0  0  0  0  0  0  0  0  0
   -0.4623   66.1445   71.1290 H   0  0  0  0  0  0  0  0  0  0  0  0
    0.1880   64.0310   70.7424 H   0  0  0  0  0  0  0  0  0  0  0  0
    0.7620   64.5640   69.1159 H   0  0  0  0  0  0  0  0  0  0  0  0
    2.9716   64.8553   69.8448 H   0  0  0  0  0  0  0  0  0  0  0  0
    2.4693   64.9405   71.5879 H   0  0  0  0  0  0  0  0  0  0  0  0
    2.4029   62.5999   71.6912 H   0  0  0  0  0  0  0  0  0  0  0  0
    5.5739   60.9750   72.8654 H   0  0  0  0  0  0  0  0  0  0  0  0
    6.0478   60.1614   71.3357 H   0  0  0  0  0  0  0  0  0  0  0  0
    5.6513   61.9134   71.3357 H   0  0  0  0  0  0  0  0  0  0  0  0
    3.8253   57.9154   69.0929 H   0  0  0  0  0  0  0  0  0  0  0  0
  2  1  1  0
  3  2  1  0
  4  3  1  0
  5  4  2  0
  6  1  1  0
  6  5  1  0
  7  5  1  0
  8  7  2  0
  9  8  1  0
 10  4  1  0
 10  9  2  0
 11  9  1  0
 12 11  1  0
 13  8  1  0
 14 13  1  0
 15  1  1  0
 16 15  1  0
 17 16  1  0
 19 18  2  0
 20 17  1  0
 20 18  1  0
 22 21  2  0
 22 18  1  0
 23 22  1  0
 24 23  2  0
 25 23  1  0
 26 21  1  0
  1 27  1  1
  2 28  1  0
  2 29  1  0
  3 30  1  0
  3 31  1  0
  6 32  1  0
  6 33  1  0
  7 34  1  0
 10 35  1  0
 12 36  1  0
 12 37  1  0
 12 38  1  0
 14 39  1  0
 14 40  1  0
 14 41  1  0
 15 42  1  0
 15 43  1  0
 16 44  1  0
 16 45  1  0
 17 46  1  0
 17 47  1  0
 20 48  1  0
 25 49  1  0
 25 50  1  0
 25 51  1  0
 26 52  1  0
M  CHG  1   1   1
M  END
>  <score>  (6) 
-8.47

$$$$
=
     RDKit          3D

 52 53  0  0  0  0  0  0  0  0999 V2000
    0.9020   64.7150   71.3490 N   0  0  2  0  0  4  0  0  0  0  0  0
    1.9270   64.3750   70.2820 C   0  0  0  0  0  0  0  0  0  0  0  0
    2.8880   63.3150   70.8190 C   0  0  0  0  0  0  0  0  0  0  0  0
    2.1800   62.1480   71.4630 C   0  0  0  0  0  0  0  0  0  0  0  0
    0.8400   62.2510   71.8730 C   0  0  0  0  0  0  0  0  0  0  0  0
    0.0400   63.5010   71.6230 C   0  0  0  0  0  0  0  0  0  0  0  0
    0.2200   61.1480   72.4840 C   0  0  0  0  0  0  0  0  0  0  0  0
    0.9270   59.9630   72.7130 C   0  0  0  0  0  0  0  0  0  0  0  0
    2.2760   59.8700   72.3210 C   0  0  0  0  0  0  0  0  0  0  0  0
    2.8920   60.9620   71.7030 C   0  0  0  0  0  0  0  0  0  0  0  0
    2.8990   58.6780   72.5890 O   0  0  0  0  0  0  0  0  0  0  0  0
    3.0440   57.7420   71.5310 C   0  0  0  0  0  0  0  0  0  0  0  0
    0.3980   58.8470   73.3090 O   0  0  0  0  0  0  0  0  0  0  0  0
   -0.6390   59.0150   74.2630 C   0  0  0  0  0  0  0  0  0  0  0  0
    0.0680   65.9320   71.0180 C   0  0  0  0  0  0  0  0  0  0  0  0
    0.4490   66.4810   69.6470 C   0  0  0  0  0  0  0  0  0  0  0  0
   -0.8010   66.7450   68.8060 C   0  0  0  0  0  0  0  0  0  0  0  0
   -0.3040   68.0810   66.7950 C   0  0  0  0  0  0  0  0  0  0  0  0
   -0.5400   69.1600   67.3190 O   0  0  0  0  0  0  0  0  0  0  0  0
   -0.4970   66.8530   67.4000 N   0  0  0  0  0  0  0  0  0  0  0  0
   -0.4880   68.5880   64.4440 N   0  0  0  0  0  0  0  0  0  0  0  0
    0.2270   68.0180   65.3780 C   0  0  0  0  0  0  0  0  0  0  0  0
    1.5220   67.3040   65.1040 C   0  0  0  0  0  0  0  0  0  0  0  0
    1.4790   66.1320   64.7540 O   0  0  0  0  0  0  0  0  0  0  0  0
    2.7760   68.0800   65.3640 C   0  0  0  0  0  0  0  0  0  0  0  0
    0.1150   68.4470   63.1870 O   0  0  0  0  0  0  0  0  0  0  0  0
    1.4166   64.9701   72.2040 H   0  0  0  0  0  0  0  0  0  0  0  0
    1.4132   63.9863   69.3904 H   0  0  0  0  0  0  0  0  0  0  0  0
    2.4917   65.2802   70.0140 H   0  0  0  0  0  0  0  0  0  0  0  0
    3.4963   62.9381   69.9836 H   0  0  0  0  0  0  0  0  0  0  0  0
    3.5052   63.7932   71.5938 H   0  0  0  0  0  0  0  0  0  0  0  0
   -0.5781   63.7039   72.5100 H   0  0  0  0  0  0  0  0  0  0  0  0
   -0.5712   63.3244   70.7256 H   0  0  0  0  0  0  0  0  0  0  0  0
   -0.8354   61.2173   72.7863 H   0  0  0  0  0  0  0  0  0  0  0  0
    3.9474   60.8913   71.4010 H   0  0  0  0  0  0  0  0  0  0  0  0
    3.1997   56.7367   71.9496 H   0  0  0  0  0  0  0  0  0  0  0  0
    2.1347   57.7446   70.9119 H   0  0  0  0  0  0  0  0  0  0  0  0
    3.9099   58.0196   70.9119 H   0  0  0  0  0  0  0  0  0  0  0  0
   -0.2187   58.9469   75.2773 H   0  0  0  0  0  0  0  0  0  0  0  0
   -1.1074   60.0007   74.1256 H   0  0  0  0  0  0  0  0  0  0  0  0
   -1.3947   58.2276   74.1256 H   0  0  0  0  0  0  0  0  0  0  0  0
   -0.9958   65.6520   71.0134 H   0  0  0  0  0  0  0  0  0  0  0  0
    0.2517   66.7073   71.7764 H   0  0  0  0  0  0  0  0  0  0  0  0
    1.0033   67.4223   69.7759 H   0  0  0  0  0  0  0  0  0  0  0  0
    1.0743   65.7388   69.1292 H   0  0  0  0  0  0  0  0  0  0  0  0
   -1.5089   65.9160   68.9530 H   0  0  0  0  0  0  0  0  0  0  0  0
   -1.2332   67.7021   69.1333 H   0  0  0  0  0  0  0  0  0  0  0  0
   -0.4220   65.9957   66.8340 H   0  0  0  0  0  0  0  0  0  0  0  0
    2.9299   68.1753   66.4490 H   0  0  0  0  0  0  0  0  0  0  0  0
    3.6322   67.5537   64.9170 H   0  0  0  0  0  0  0  0  0  0  0  0
    2.6870   69.0811   64.9170 H   0  0  0  0  0  0  0  0  0  0  0  0
   -0.3182   68.8317   62.3842 H   0  0  0  0  0  0  0  0  0  0  0  0
  2  1  1  0
  3  2  1  0
  4  3  1  0
  5  4  2  0
  6  1  1  0
  6  5  1  0
  7  5  1  0
  8  7  2  0
  9  8  1  0
 10  4  1  0
 10  9  2  0
 11  9  1  0
 12 11  1  0
 13  8  1  0
 14 13  1  0
 15  1  1  0
 16 15  1  0
 17 16  1  0
 19 18  2  0
 20 17  1  0
 20 18  1  0
 22 21  2  0
 22 18  1  0
 23 22  1  0
 24 23  2  0
 25 23  1  0
 26 21  1  0
  1 27  1  1
  2 28  1  0
  2 29  1  0
  3 30  1  0
  3 31  1  0
  6 32  1  0
  6 33  1  0
  7 34  1  0
 10 35  1  0
 12 36  1  0
 12 37  1  0
 12 38  1  0
 14 39  1  0
 14 40  1  0
 14 41  1  0
 15 42  1  0
 15 43  1  0
 16 44  1  0
 16 45  1  0
 17 46  1  0
 17 47  1  0
 20 48  1  0
 25 49  1  0
 25 50  1  0
 25 51  1  0
 26 52  1  0
M  CHG  1   1   1
M  END
>  <score>  (7) 
-8.323

$$$$
=
     RDKit          3D

 52 53  0  0  0  0  0  0  0  0999 V2000
    2.4290   63.1500   70.9480 N   0  0  2  0  0  4  0  0  0  0  0  0
    3.0210   62.1080   70.0170 C   0  0  0  0  0  0  0  0  0  0  0  0
    3.3950   60.8620   70.8190 C   0  0  0  0  0  0  0  0  0  0  0  0
    2.2860   60.3940   71.7300 C   0  0  0  0  0  0  0  0  0  0  0  0
    1.2290   61.2480   72.0830 C   0  0  0  0  0  0  0  0  0  0  0  0
    1.1220   62.6370   71.5120 C   0  0  0  0  0  0  0  0  0  0  0  0
    0.2240   60.7810   72.9470 C   0  0  0  0  0  0  0  0  0  0  0  0
    0.2800   59.4890   73.4800 C   0  0  0  0  0  0  0  0  0  0  0  0
    1.3530   58.6420   73.1430 C   0  0  0  0  0  0  0  0  0  0  0  0
    2.3470   59.1010   72.2750 C   0  0  0  0  0  0  0  0  0  0  0  0
    1.3370   57.3950   73.7150 O   0  0  0  0  0  0  0  0  0  0  0  0
    2.2380   57.1310   74.7810 C   0  0  0  0  0  0  0  0  0  0  0  0
   -0.6540   58.9610   74.3350 O   0  0  0  0  0  0  0  0  0  0  0  0
   -1.9450   59.5510   74.3770 C   0  0  0  0  0  0  0  0  0  0  0  0
    2.2680   64.5100   70.3060 C   0  0  0  0  0  0  0  0  0  0  0  0
    0.7980   64.9150   70.2800 C   0  0  0  0  0  0  0  0  0  0  0  0
    0.6570   66.4230   70.0670 C   0  0  0  0  0  0  0  0  0  0  0  0
   -0.4900   67.0720   67.9840 C   0  0  0  0  0  0  0  0  0  0  0  0
   -1.6180   66.8950   68.4190 O   0  0  0  0  0  0  0  0  0  0  0  0
    0.6740   66.7780   68.6690 N   0  0  0  0  0  0  0  0  0  0  0  0
   -1.3060   68.2380   66.0360 N   0  0  0  0  0  0  0  0  0  0  0  0
   -0.2870   67.6410   66.5950 C   0  0  0  0  0  0  0  0  0  0  0  0
    1.0490   67.4860   65.9200 C   0  0  0  0  0  0  0  0  0  0  0  0
    1.2790   66.4500   65.3110 O   0  0  0  0  0  0  0  0  0  0  0  0
    2.0270   68.6020   66.1210 C   0  0  0  0  0  0  0  0  0  0  0  0
   -0.9800   68.7070   64.7570 O   0  0  0  0  0  0  0  0  0  0  0  0
    3.0991   63.2961   71.7164 H   0  0  0  0  0  0  0  0  0  0  0  0
    2.2812   61.8407   69.2480 H   0  0  0  0  0  0  0  0  0  0  0  0
    3.9207   62.5168   69.5339 H   0  0  0  0  0  0  0  0  0  0  0  0
    3.6368   60.0515   70.1156 H   0  0  0  0  0  0  0  0  0  0  0  0
    4.2545   61.1240   71.4535 H   0  0  0  0  0  0  0  0  0  0  0  0
    0.7935   63.3191   72.3100 H   0  0  0  0  0  0  0  0  0  0  0  0
    0.4009   62.5956   70.6824 H   0  0  0  0  0  0  0  0  0  0  0  0
   -0.6175   61.4399   73.2075 H   0  0  0  0  0  0  0  0  0  0  0  0
    3.1880   58.4413   72.0152 H   0  0  0  0  0  0  0  0  0  0  0  0
    1.7237   57.2817   75.7416 H   0  0  0  0  0  0  0  0  0  0  0  0
    2.5915   56.0915   74.7134 H   0  0  0  0  0  0  0  0  0  0  0  0
    3.0965   57.8153   74.7134 H   0  0  0  0  0  0  0  0  0  0  0  0
   -2.2504   59.6906   75.4245 H   0  0  0  0  0  0  0  0  0  0  0  0
   -1.9190   60.5266   73.8695 H   0  0  0  0  0  0  0  0  0  0  0  0
   -2.6656   58.8928   73.8695 H   0  0  0  0  0  0  0  0  0  0  0  0
    2.8385   65.2529   70.8828 H   0  0  0  0  0  0  0  0  0  0  0  0
    2.6436   64.4637   69.2732 H   0  0  0  0  0  0  0  0  0  0  0  0
    0.2919   64.3854   69.4594 H   0  0  0  0  0  0  0  0  0  0  0  0
    0.3407   64.6495   71.2446 H   0  0  0  0  0  0  0  0  0  0  0  0
   -0.2953   66.7556   70.5057 H   0  0  0  0  0  0  0  0  0  0  0  0
    1.5133   66.9148   70.5516 H   0  0  0  0  0  0  0  0  0  0  0  0
    1.5742   66.8132   68.1697 H   0  0  0  0  0  0  0  0  0  0  0  0
    2.1747   68.7706   67.1979 H   0  0  0  0  0  0  0  0  0  0  0  0
    2.9878   68.3357   65.6564 H   0  0  0  0  0  0  0  0  0  0  0  0
    1.6369   69.5196   65.6564 H   0  0  0  0  0  0  0  0  0  0  0  0
   -1.6596   69.1815   64.2156 H   0  0  0  0  0  0  0  0  0  0  0  0
  2  1  1  0
  3  2  1  0
  4  3  1  0
  5  4  2  0
  6  1  1  0
  6  5  1  0
  7  5  1  0
  8  7  2  0
  9  8  1  0
 10  4  1  0
 10  9  2  0
 11  9  1  0
 12 11  1  0
 13  8  1  0
 14 13  1  0
 15  1  1  0
 16 15  1  0
 17 16  1  0
 19 18  2  0
 20 17  1  0
 20 18  1  0
 22 21  2  0
 22 18  1  0
 23 22  1  0
 24 23  2  0
 25 23  1  0
 26 21  1  0
  1 27  1  1
  2 28  1  0
  2 29  1  0
  3 30  1  0
  3 31  1  0
  6 32  1  0
  6 33  1  0
  7 34  1  0
 10 35  1  0
 12 36  1  0
 12 37  1  0
 12 38  1  0
 14 39  1  0
 14 40  1  0
 14 41  1  0
 15 42  1  0
 15 43  1  0
 16 44  1  0
 16 45  1  0
 17 46  1  0
 17 47  1  0
 20 48  1  0
 25 49  1  0
 25 50  1  0
 25 51  1  0
 26 52  1  0
M  CHG  1   1   1
M  END
>  <score>  (8) 
-8.135

$$$$
=
     RDKit          3D

 52 53  0  0  0  0  0  0  0  0999 V2000
    3.7870   60.5290   70.8780 N   0  0  2  0  0  4  0  0  0  0  0  0
    4.9510   60.5720   71.8520 C   0  0  0  0  0  0  0  0  0  0  0  0
    4.4390   60.3180   73.2690 C   0  0  0  0  0  0  0  0  0  0  0  0
    3.5330   59.1140   73.3610 C   0  0  0  0  0  0  0  0  0  0  0  0
    2.9260   58.5750   72.2150 C   0  0  0  0  0  0  0  0  0  0  0  0
    3.2100   59.1300   70.8450 C   0  0  0  0  0  0  0  0  0  0  0  0
    2.0760   57.4630   72.3440 C   0  0  0  0  0  0  0  0  0  0  0  0
    1.8060   56.9080   73.5990 C   0  0  0  0  0  0  0  0  0  0  0  0
    2.3970   57.4650   74.7490 C   0  0  0  0  0  0  0  0  0  0  0  0
    3.2520   58.5630   74.6220 C   0  0  0  0  0  0  0  0  0  0  0  0
    2.0740   56.8670   75.9400 O   0  0  0  0  0  0  0  0  0  0  0  0
    1.3730   57.6320   76.9090 C   0  0  0  0  0  0  0  0  0  0  0  0
    0.9830   55.8310   73.8100 O   0  0  0  0  0  0  0  0  0  0  0  0
   -0.4100   55.9870   73.5830 C   0  0  0  0  0  0  0  0  0  0  0  0
    4.1400   61.0230   69.4940 C   0  0  0  0  0  0  0  0  0  0  0  0
    3.0470   61.9440   68.9630 C   0  0  0  0  0  0  0  0  0  0  0  0
    3.2010   63.3530   69.5380 C   0  0  0  0  0  0  0  0  0  0  0  0
    1.1950   63.6140   70.9470 C   0  0  0  0  0  0  0  0  0  0  0  0
    0.4290   63.8030   70.0130 O   0  0  0  0  0  0  0  0  0  0  0  0
    2.5660   63.4850   70.8260 N   0  0  0  0  0  0  0  0  0  0  0  0
   -0.0030   64.5390   72.8250 N   0  0  0  0  0  0  0  0  0  0  0  0
    0.6660   63.5160   72.3630 C   0  0  0  0  0  0  0  0  0  0  0  0
    0.9410   62.2770   73.1710 C   0  0  0  0  0  0  0  0  0  0  0  0
    1.7060   62.3590   74.1230 O   0  0  0  0  0  0  0  0  0  0  0  0
    0.3020   61.0130   72.6850 C   0  0  0  0  0  0  0  0  0  0  0  0
   -0.4240   64.3170   74.1430 O   0  0  0  0  0  0  0  0  0  0  0  0
    3.0718   61.1865   71.2201 H   0  0  0  0  0  0  0  0  0  0  0  0
    5.6835   59.7970   71.5824 H   0  0  0  0  0  0  0  0  0  0  0  0
    5.4303   61.5610   71.8071 H   0  0  0  0  0  0  0  0  0  0  0  0
    5.3031   60.1580   73.9307 H   0  0  0  0  0  0  0  0  0  0  0  0
    3.8499   61.1972   73.5689 H   0  0  0  0  0  0  0  0  0  0  0  0
    2.2696   59.1527   70.2748 H   0  0  0  0  0  0  0  0  0  0  0  0
    3.9608   58.4769   70.3762 H   0  0  0  0  0  0  0  0  0  0  0  0
    1.6171   57.0235   71.4461 H   0  0  0  0  0  0  0  0  0  0  0  0
    3.7106   59.0012   75.5207 H   0  0  0  0  0  0  0  0  0  0  0  0
    1.6702   57.3077   77.9172 H   0  0  0  0  0  0  0  0  0  0  0  0
    1.6150   58.6973   76.7803 H   0  0  0  0  0  0  0  0  0  0  0  0
    0.2907   57.4837   76.7803 H   0  0  0  0  0  0  0  0  0  0  0  0
   -0.9345   56.0457   74.5481 H   0  0  0  0  0  0  0  0  0  0  0  0
   -0.5874   56.9106   73.0125 H   0  0  0  0  0  0  0  0  0  0  0  0
   -0.7873   55.1255   73.0125 H   0  0  0  0  0  0  0  0  0  0  0  0
    5.0900   61.5758   69.5379 H   0  0  0  0  0  0  0  0  0  0  0  0
    4.2362   60.1586   68.8206 H   0  0  0  0  0  0  0  0  0  0  0  0
    3.1165   61.9920   67.8662 H   0  0  0  0  0  0  0  0  0  0  0  0
    2.0685   61.5432   69.2662 H   0  0  0  0  0  0  0  0  0  0  0  0
    4.2725   63.5770   69.6461 H   0  0  0  0  0  0  0  0  0  0  0  0
    2.7143   64.0565   68.8464 H   0  0  0  0  0  0  0  0  0  0  0  0
    3.1478   63.4831   71.6760 H   0  0  0  0  0  0  0  0  0  0  0  0
   -0.0063   60.4031   73.5469 H   0  0  0  0  0  0  0  0  0  0  0  0
   -0.5801   61.2589   72.0755 H   0  0  0  0  0  0  0  0  0  0  0  0
    1.0230   60.4485   72.0755 H   0  0  0  0  0  0  0  0  0  0  0  0
   -0.9435   65.0115   74.6203 H   0  0  0  0  0  0  0  0  0  0  0  0
  2  1  1  0
  3  2  1  0
  4  3  1  0
  5  4  2  0
  6  1  1  0
  6  5  1  0
  7  5  1  0
  8  7  2  0
  9  8  1  0
 10  4  1  0
 10  9  2  0
 11  9  1  0
 12 11  1  0
 13  8  1  0
 14 13  1  0
 15  1  1  0
 16 15  1  0
 17 16  1  0
 19 18  2  0
 20 17  1  0
 20 18  1  0
 22 21  2  0
 22 18  1  0
 23 22  1  0
 24 23  2  0
 25 23  1  0
 26 21  1  0
  1 27  1  1
  2 28  1  0
  2 29  1  0
  3 30  1  0
  3 31  1  0
  6 32  1  0
  6 33  1  0
  7 34  1  0
 10 35  1  0
 12 36  1  0
 12 37  1  0
 12 38  1  0
 14 39  1  0
 14 40  1  0
 14 41  1  0
 15 42  1  0
 15 43  1  0
 16 44  1  0
 16 45  1  0
 17 46  1  0
 17 47  1  0
 20 48  1  0
 25 49  1  0
 25 50  1  0
 25 51  1  0
 26 52  1  0
M  CHG  1   1   1
M  END
>  <score>  (9) 
-7.886

$$$$
