=
     RDKit          3D

 47 51  0  0  0  0  0  0  0  0999 V2000
    0.8400   66.0650   70.3570 C   0  0  1  0  0  0  0  0  0  0  0  0
   -0.1280   65.9010   71.4330 N   0  0  0  0  0  0  0  0  0  0  0  0
    0.0710   64.7410   72.1300 N   0  0  0  0  0  0  0  0  0  0  0  0
    0.8780   64.0250   71.4080 C   0  0  0  0  0  0  0  0  0  0  0  0
    1.3360   64.6460   70.1180 C   0  0  0  0  0  0  0  0  0  0  0  0
    1.3390   62.6790   71.7760 C   0  0  0  0  0  0  0  0  0  0  0  0
    2.6970   62.3380   71.5390 C   0  0  0  0  0  0  0  0  0  0  0  0
    3.6300   63.1820   70.8880 C   0  0  0  0  0  0  0  0  0  0  0  0
    4.9560   62.7920   70.6930 C   0  0  0  0  0  0  0  0  0  0  0  0
    5.3820   61.5480   71.1410 C   0  0  0  0  0  0  0  0  0  0  0  0
    4.4820   60.6960   71.7770 C   0  0  0  0  0  0  0  0  0  0  0  0
    3.1440   61.0740   71.9780 C   0  0  0  0  0  0  0  0  0  0  0  0
    2.2470   60.2020   72.6160 C   0  0  0  0  0  0  0  0  0  0  0  0
    0.9010   60.5400   72.8300 C   0  0  0  0  0  0  0  0  0  0  0  0
    0.4190   61.7960   72.4030 C   0  0  0  0  0  0  0  0  0  0  0  0
   -0.9490   62.0920   72.6250 C   0  0  0  0  0  0  0  0  0  0  0  0
   -1.7990   61.1840   73.2580 C   0  0  0  0  0  0  0  0  0  0  0  0
   -1.3070   59.9560   73.6810 C   0  0  0  0  0  0  0  0  0  0  0  0
    0.0320   59.6370   73.4660 C   0  0  0  0  0  0  0  0  0  0  0  0
   -0.7570   67.9230   66.7860 C   0  0  0  0  0  0  0  0  0  0  0  0
    0.5470   68.1910   67.2020 C   0  0  0  0  0  0  0  0  0  0  0  0
    1.0530   67.5910   68.3620 C   0  0  0  0  0  0  0  0  0  0  0  0
    0.2640   66.7210   69.1280 C   0  0  0  0  0  0  0  0  0  0  0  0
   -1.0420   66.4530   68.6950 C   0  0  0  0  0  0  0  0  0  0  0  0
   -1.5450   67.0510   67.5380 C   0  0  0  0  0  0  0  0  0  0  0  0
   -2.7630   68.7040   65.7790 C   0  0  0  0  0  0  0  0  0  0  0  0
   -1.3700   68.4390   65.6780 O   0  0  0  0  0  0  0  0  0  0  0  0
    1.6552   66.7546   70.6212 H   0  0  0  0  0  0  0  0  0  0  0  0
   -0.8744   66.5787   71.6441 H   0  0  0  0  0  0  0  0  0  0  0  0
    2.4292   64.6036   70.0036 H   0  0  0  0  0  0  0  0  0  0  0  0
    0.9702   64.1620   69.2004 H   0  0  0  0  0  0  0  0  0  0  0  0
    3.3018   64.1681   70.5276 H   0  0  0  0  0  0  0  0  0  0  0  0
    5.6611   63.4674   70.1864 H   0  0  0  0  0  0  0  0  0  0  0  0
    6.4267   61.2367   70.9940 H   0  0  0  0  0  0  0  0  0  0  0  0
    4.8245   59.7112   72.1275 H   0  0  0  0  0  0  0  0  0  0  0  0
    2.6106   59.2222   72.9593 H   0  0  0  0  0  0  0  0  0  0  0  0
   -1.3503   63.0601   72.2906 H   0  0  0  0  0  0  0  0  0  0  0  0
   -2.8562   61.4403   73.4215 H   0  0  0  0  0  0  0  0  0  0  0  0
   -1.9719   59.2382   74.1837 H   0  0  0  0  0  0  0  0  0  0  0  0
    0.4156   58.6616   73.7998 H   0  0  0  0  0  0  0  0  0  0  0  0
    1.1796   68.8753   66.6176 H   0  0  0  0  0  0  0  0  0  0  0  0
    2.0849   67.8055   68.6769 H   0  0  0  0  0  0  0  0  0  0  0  0
   -1.6768   65.7648   69.2724 H   0  0  0  0  0  0  0  0  0  0  0  0
   -2.5738   66.8323   67.2158 H   0  0  0  0  0  0  0  0  0  0  0  0
   -3.0499   68.7586   66.8395 H   0  0  0  0  0  0  0  0  0  0  0  0
   -2.9906   69.6616   65.2878 H   0  0  0  0  0  0  0  0  0  0  0  0
   -3.3263   67.8969   65.2878 H   0  0  0  0  0  0  0  0  0  0  0  0
  2  1  1  0
  3  2  1  0
  4  3  2  0
  5  4  1  0
  5  1  1  0
  6  4  1  0
  7  6  1  0
  8  7  2  0
  9  8  1  0
 10  9  2  0
 11 10  1  0
 12 11  2  0
 12  7  1  0
 13 12  1  0
 14 13  2  0
 15 14  1  0
 15  6  2  0
 16 15  1  0
 17 16  2  0
 18 17  1  0
 19 18  2  0
 19 14  1  0
 21 20  2  0
 22 21  1  0
 23 22  2  0
 23  1  1  0
 24 23  1  0
 25 24  2  0
 25 20  1  0
 27 26  1  0
 27 20  1  0
  1 28  1  1
  2 29  1  0
  5 30  1  0
  5 31  1  0
  8 32  1  0
  9 33  1  0
 10 34  1  0
 11 35  1  0
 13 36  1  0
 16 37  1  0
 17 38  1  0
 18 39  1  0
 19 40  1  0
 21 41  1  0
 22 42  1  0
 24 43  1  0
 25 44  1  0
 26 45  1  0
 26 46  1  0
 26 47  1  0
M  END
>  <score>  (1) 
-11.993

$$$$
=
     RDKit          3D

 47 51  0  0  0  0  0  0  0  0999 V2000
    0.7980   66.0930   70.3890 C   0  0  1  0  0  0  0  0  0  0  0  0
   -0.1820   65.9160   71.4520 N   0  0  0  0  0  0  0  0  0  0  0  0
    0.0360   64.7690   72.1660 N   0  0  0  0  0  0  0  0  0  0  0  0
    0.8720   64.0660   71.4630 C   0  0  0  0  0  0  0  0  0  0  0  0
    1.3330   64.6840   70.1730 C   0  0  0  0  0  0  0  0  0  0  0  0
    1.3610   62.7360   71.8550 C   0  0  0  0  0  0  0  0  0  0  0  0
    0.4490   61.8280   72.4560 C   0  0  0  0  0  0  0  0  0  0  0  0
   -0.8920   62.1450   72.7860 C   0  0  0  0  0  0  0  0  0  0  0  0
   -1.7430   61.2030   73.3680 C   0  0  0  0  0  0  0  0  0  0  0  0
   -1.2750   59.9240   73.6370 C   0  0  0  0  0  0  0  0  0  0  0  0
    0.0420   59.5900   73.3290 C   0  0  0  0  0  0  0  0  0  0  0  0
    0.9110   60.5280   72.7450 C   0  0  0  0  0  0  0  0  0  0  0  0
    2.2370   60.1770   72.4460 C   0  0  0  0  0  0  0  0  0  0  0  0
    3.1380   61.0880   71.8690 C   0  0  0  0  0  0  0  0  0  0  0  0
    2.7100   62.3980   71.5660 C   0  0  0  0  0  0  0  0  0  0  0  0
    3.6540   63.2890   70.9980 C   0  0  0  0  0  0  0  0  0  0  0  0
    4.9640   62.8910   70.7280 C   0  0  0  0  0  0  0  0  0  0  0  0
    5.3660   61.5960   71.0230 C   0  0  0  0  0  0  0  0  0  0  0  0
    4.4600   60.7020   71.5910 C   0  0  0  0  0  0  0  0  0  0  0  0
   -0.7930   67.8660   66.7710 C   0  0  0  0  0  0  0  0  0  0  0  0
    0.5130   68.1370   67.1800 C   0  0  0  0  0  0  0  0  0  0  0  0
    1.0170   67.5660   68.3550 C   0  0  0  0  0  0  0  0  0  0  0  0
    0.2240   66.7190   69.1430 C   0  0  0  0  0  0  0  0  0  0  0  0
   -1.0830   66.4470   68.7180 C   0  0  0  0  0  0  0  0  0  0  0  0
   -1.5850   67.0180   67.5470 C   0  0  0  0  0  0  0  0  0  0  0  0
   -2.7840   68.6820   65.7620 C   0  0  0  0  0  0  0  0  0  0  0  0
   -1.4040   68.3570   65.6510 O   0  0  0  0  0  0  0  0  0  0  0  0
    1.5908   66.8064   70.6582 H   0  0  0  0  0  0  0  0  0  0  0  0
   -0.9488   66.5764   71.6437 H   0  0  0  0  0  0  0  0  0  0  0  0
    2.4285   64.6679   70.0747 H   0  0  0  0  0  0  0  0  0  0  0  0
    0.9929   64.1810   69.2558 H   0  0  0  0  0  0  0  0  0  0  0  0
   -1.2715   63.1565   72.5790 H   0  0  0  0  0  0  0  0  0  0  0  0
   -2.7808   61.4736   73.6125 H   0  0  0  0  0  0  0  0  0  0  0  0
   -1.9419   59.1767   74.0918 H   0  0  0  0  0  0  0  0  0  0  0  0
    0.4079   58.5757   73.5464 H   0  0  0  0  0  0  0  0  0  0  0  0
    2.5815   59.1567   72.6705 H   0  0  0  0  0  0  0  0  0  0  0  0
    3.3469   64.3191   70.7643 H   0  0  0  0  0  0  0  0  0  0  0  0
    5.6758   63.6017   70.2827 H   0  0  0  0  0  0  0  0  0  0  0  0
    6.3965   61.2760   70.8092 H   0  0  0  0  0  0  0  0  0  0  0  0
    4.7853   59.6777   71.8254 H   0  0  0  0  0  0  0  0  0  0  0  0
    1.1492   68.8017   66.5772 H   0  0  0  0  0  0  0  0  0  0  0  0
    2.0496   67.7848   68.6645 H   0  0  0  0  0  0  0  0  0  0  0  0
   -1.7204   65.7765   69.3132 H   0  0  0  0  0  0  0  0  0  0  0  0
   -2.6157   66.7973   67.2325 H   0  0  0  0  0  0  0  0  0  0  0  0
   -3.0610   68.7472   66.8245 H   0  0  0  0  0  0  0  0  0  0  0  0
   -2.9733   69.6493   65.2737 H   0  0  0  0  0  0  0  0  0  0  0  0
   -3.3851   67.9008   65.2737 H   0  0  0  0  0  0  0  0  0  0  0  0
  2  1  1  0
  3  2  1  0
  4  3  2  0
  5  4  1  0
  5  1  1  0
  6  4  1  0
  7  6  1  0
  8  7  2  0
  9  8  1  0
 10  9  2  0
 11 10  1  0
 12 11  2  0
 12  7  1  0
 13 12  1  0
 14 13  2  0
 15 14  1  0
 15  6  2  0
 16 15  1  0
 17 16  2  0
 18 17  1  0
 19 18  2  0
 19 14  1  0
 21 20  2  0
 22 21  1  0
 23 22  2  0
 23  1  1  0
 24 23  1  0
 25 24  2  0
 25 20  1  0
 27 26  1  0
 27 20  1  0
  1 28  1  1
  2 29  1  0
  5 30  1  0
  5 31  1  0
  8 32  1  0
  9 33  1  0
 10 34  1  0
 11 35  1  0
 13 36  1  0
 16 37  1  0
 17 38  1  0
 18 39  1  0
 19 40  1  0
 21 41  1  0
 22 42  1  0
 24 43  1  0
 25 44  1  0
 26 45  1  0
 26 46  1  0
 26 47  1  0
M  END
>  <score>  (2) 
-11.924

$$$$
=
     RDKit          3D

 47 51  0  0  0  0  0  0  0  0999 V2000
    0.8480   67.2190   68.1280 C   0  0  1  0  0  0  0  0  0  0  0  0
    0.5860   68.6260   68.4010 N   0  0  0  0  0  0  0  0  0  0  0  0
    1.3840   69.4500   67.6560 N   0  0  0  0  0  0  0  0  0  0  0  0
    2.3210   68.6940   67.1680 C   0  0  0  0  0  0  0  0  0  0  0  0
    2.2470   67.2370   67.5280 C   0  0  0  0  0  0  0  0  0  0  0  0
    3.4170   69.1850   66.3210 C   0  0  0  0  0  0  0  0  0  0  0  0
    4.5150   69.8360   66.9420 C   0  0  0  0  0  0  0  0  0  0  0  0
    4.5930   70.1260   68.3270 C   0  0  0  0  0  0  0  0  0  0  0  0
    5.7060   70.7610   68.8790 C   0  0  0  0  0  0  0  0  0  0  0  0
    6.7680   71.1260   68.0620 C   0  0  0  0  0  0  0  0  0  0  0  0
    6.7130   70.8610   66.6960 C   0  0  0  0  0  0  0  0  0  0  0  0
    5.5980   70.2230   66.1250 C   0  0  0  0  0  0  0  0  0  0  0  0
    5.5550   69.9670   64.7450 C   0  0  0  0  0  0  0  0  0  0  0  0
    4.4560   69.3390   64.1360 C   0  0  0  0  0  0  0  0  0  0  0  0
    3.3550   68.9390   64.9230 C   0  0  0  0  0  0  0  0  0  0  0  0
    2.2610   68.3210   64.2670 C   0  0  0  0  0  0  0  0  0  0  0  0
    2.2670   68.0980   62.8900 C   0  0  0  0  0  0  0  0  0  0  0  0
    3.3620   68.4880   62.1310 C   0  0  0  0  0  0  0  0  0  0  0  0
    4.4470   69.1060   62.7510 C   0  0  0  0  0  0  0  0  0  0  0  0
    0.5620   64.7070   71.6440 C   0  0  0  0  0  0  0  0  0  0  0  0
    1.5770   64.5060   70.7100 C   0  0  0  0  0  0  0  0  0  0  0  0
    1.6580   65.3180   69.5720 C   0  0  0  0  0  0  0  0  0  0  0  0
    0.7230   66.3390   69.3460 C   0  0  0  0  0  0  0  0  0  0  0  0
   -0.2880   66.5370   70.2960 C   0  0  0  0  0  0  0  0  0  0  0  0
   -0.3670   65.7260   71.4300 C   0  0  0  0  0  0  0  0  0  0  0  0
    1.4010   63.0840   73.1650 C   0  0  0  0  0  0  0  0  0  0  0  0
    0.3700   63.9890   72.7920 O   0  0  0  0  0  0  0  0  0  0  0  0
    0.1062   66.7738   67.4486 H   0  0  0  0  0  0  0  0  0  0  0  0
   -0.1170   68.9606   69.0753 H   0  0  0  0  0  0  0  0  0  0  0  0
    2.3263   66.5877   66.6436 H   0  0  0  0  0  0  0  0  0  0  0  0
    3.0503   66.8668   68.1820 H   0  0  0  0  0  0  0  0  0  0  0  0
    3.7560   69.8437   68.9825 H   0  0  0  0  0  0  0  0  0  0  0  0
    5.7422   70.9719   69.9580 H   0  0  0  0  0  0  0  0  0  0  0  0
    7.6499   71.6229   68.4925 H   0  0  0  0  0  0  0  0  0  0  0  0
    7.5557   71.1557   66.0533 H   0  0  0  0  0  0  0  0  0  0  0  0
    6.4093   70.2679   64.1209 H   0  0  0  0  0  0  0  0  0  0  0  0
    1.3867   68.0099   64.8576 H   0  0  0  0  0  0  0  0  0  0  0  0
    1.4056   67.6140   62.4064 H   0  0  0  0  0  0  0  0  0  0  0  0
    3.3735   68.3102   61.0455 H   0  0  0  0  0  0  0  0  0  0  0  0
    5.3109   69.4165   62.1450 H   0  0  0  0  0  0  0  0  0  0  0  0
    2.3166   63.7071   70.8673 H   0  0  0  0  0  0  0  0  0  0  0  0
    2.4666   65.1528   68.8447 H   0  0  0  0  0  0  0  0  0  0  0  0
   -1.0262   67.3388   70.1470 H   0  0  0  0  0  0  0  0  0  0  0  0
   -1.1704   65.8922   72.1627 H   0  0  0  0  0  0  0  0  0  0  0  0
    1.4624   63.0301   74.2620 H   0  0  0  0  0  0  0  0  0  0  0  0
    1.1767   62.0858   72.7608 H   0  0  0  0  0  0  0  0  0  0  0  0
    2.3617   63.4358   72.7608 H   0  0  0  0  0  0  0  0  0  0  0  0
  2  1  1  0
  3  2  1  0
  4  3  2  0
  5  4  1  0
  5  1  1  0
  6  4  1  0
  7  6  1  0
  8  7  2  0
  9  8  1  0
 10  9  2  0
 11 10  1  0
 12 11  2  0
 12  7  1  0
 13 12  1  0
 14 13  2  0
 15 14  1  0
 15  6  2  0
 16 15  1  0
 17 16  2  0
 18 17  1  0
 19 18  2  0
 19 14  1  0
 21 20  2  0
 22 21  1  0
 23 22  2  0
 23  1  1  0
 24 23  1  0
 25 24  2  0
 25 20  1  0
 27 26  1  0
 27 20  1  0
  1 28  1  6
  2 29  1  0
  5 30  1  0
  5 31  1  0
  8 32  1  0
  9 33  1  0
 10 34  1  0
 11 35  1  0
 13 36  1  0
 16 37  1  0
 17 38  1  0
 18 39  1  0
 19 40  1  0
 21 41  1  0
 22 42  1  0
 24 43  1  0
 25 44  1  0
 26 45  1  0
 26 46  1  0
 26 47  1  0
M  END
>  <score>  (3) 
-11.894

$$$$
=
     RDKit          3D

 47 51  0  0  0  0  0  0  0  0999 V2000
    0.7590   67.0140   69.2550 C   0  0  1  0  0  0  0  0  0  0  0  0
   -0.2910   66.0830   68.8620 N   0  0  0  0  0  0  0  0  0  0  0  0
   -0.3410   64.9900   69.6840 N   0  0  0  0  0  0  0  0  0  0  0  0
    0.7640   65.0050   70.3660 C   0  0  0  0  0  0  0  0  0  0  0  0
    1.6990   66.1470   70.0820 C   0  0  0  0  0  0  0  0  0  0  0  0
    1.1330   63.9860   71.3580 C   0  0  0  0  0  0  0  0  0  0  0  0
    1.8940   62.8660   70.9300 C   0  0  0  0  0  0  0  0  0  0  0  0
    2.2560   62.6140   69.5830 C   0  0  0  0  0  0  0  0  0  0  0  0
    3.0150   61.4990   69.2270 C   0  0  0  0  0  0  0  0  0  0  0  0
    3.4290   60.6050   70.2060 C   0  0  0  0  0  0  0  0  0  0  0  0
    3.0790   60.8240   71.5360 C   0  0  0  0  0  0  0  0  0  0  0  0
    2.3140   61.9430   71.9100 C   0  0  0  0  0  0  0  0  0  0  0  0
    1.9650   62.1480   73.2540 C   0  0  0  0  0  0  0  0  0  0  0  0
    1.1950   63.2480   73.6660 C   0  0  0  0  0  0  0  0  0  0  0  0
    0.7580   64.1920   72.7130 C   0  0  0  0  0  0  0  0  0  0  0  0
   -0.0270   65.2800   73.1690 C   0  0  0  0  0  0  0  0  0  0  0  0
   -0.3530   65.4310   74.5170 C   0  0  0  0  0  0  0  0  0  0  0  0
    0.0940   64.4990   75.4440 C   0  0  0  0  0  0  0  0  0  0  0  0
    0.8600   63.4150   75.0210 C   0  0  0  0  0  0  0  0  0  0  0  0
    2.7520   68.9480   65.9310 C   0  0  0  0  0  0  0  0  0  0  0  0
    2.8620   69.4640   67.2220 C   0  0  0  0  0  0  0  0  0  0  0  0
    2.2080   68.8360   68.2900 C   0  0  0  0  0  0  0  0  0  0  0  0
    1.4300   67.6880   68.0850 C   0  0  0  0  0  0  0  0  0  0  0  0
    1.3340   67.1730   66.7850 C   0  0  0  0  0  0  0  0  0  0  0  0
    1.9860   67.8000   65.7210 C   0  0  0  0  0  0  0  0  0  0  0  0
    4.7570   69.5060   64.7830 C   0  0  0  0  0  0  0  0  0  0  0  0
    3.3360   69.4610   64.8060 O   0  0  0  0  0  0  0  0  0  0  0  0
    0.3731   67.8736   69.8226 H   0  0  0  0  0  0  0  0  0  0  0  0
   -0.9209   66.2302   68.0605 H   0  0  0  0  0  0  0  0  0  0  0  0
    2.0259   66.6528   71.0025 H   0  0  0  0  0  0  0  0  0  0  0  0
    2.6478   65.8758   69.5959 H   0  0  0  0  0  0  0  0  0  0  0  0
    1.9307   63.3144   68.7996 H   0  0  0  0  0  0  0  0  0  0  0  0
    3.2847   61.3284   68.1743 H   0  0  0  0  0  0  0  0  0  0  0  0
    4.0316   59.7266   69.9316 H   0  0  0  0  0  0  0  0  0  0  0  0
    3.4062   60.1102   72.3063 H   0  0  0  0  0  0  0  0  0  0  0  0
    2.3055   61.4239   74.0088 H   0  0  0  0  0  0  0  0  0  0  0  0
   -0.3879   66.0232   72.4428 H   0  0  0  0  0  0  0  0  0  0  0  0
   -0.9625   66.2861   74.8446 H   0  0  0  0  0  0  0  0  0  0  0  0
   -0.1559   64.6162   76.5088 H   0  0  0  0  0  0  0  0  0  0  0  0
    1.2084   62.6777   75.7593 H   0  0  0  0  0  0  0  0  0  0  0  0
    3.4641   70.3668   67.4022 H   0  0  0  0  0  0  0  0  0  0  0  0
    2.3064   69.2498   69.3044 H   0  0  0  0  0  0  0  0  0  0  0  0
    0.7393   66.2661   66.6010 H   0  0  0  0  0  0  0  0  0  0  0  0
    1.8950   67.3848   64.7065 H   0  0  0  0  0  0  0  0  0  0  0  0
    5.1402   69.5181   65.8140 H   0  0  0  0  0  0  0  0  0  0  0  0
    5.1435   68.6196   64.2586 H   0  0  0  0  0  0  0  0  0  0  0  0
    5.0866   70.4150   64.2586 H   0  0  0  0  0  0  0  0  0  0  0  0
  2  1  1  0
  3  2  1  0
  4  3  2  0
  5  4  1  0
  5  1  1  0
  6  4  1  0
  7  6  1  0
  8  7  2  0
  9  8  1  0
 10  9  2  0
 11 10  1  0
 12 11  2  0
 12  7  1  0
 13 12  1  0
 14 13  2  0
 15 14  1  0
 15  6  2  0
 16 15  1  0
 17 16  2  0
 18 17  1  0
 19 18  2  0
 19 14  1  0
 21 20  2  0
 22 21  1  0
 23 22  2  0
 23  1  1  0
 24 23  1  0
 25 24  2  0
 25 20  1  0
 27 26  1  0
 27 20  1  0
  1 28  1  1
  2 29  1  0
  5 30  1  0
  5 31  1  0
  8 32  1  0
  9 33  1  0
 10 34  1  0
 11 35  1  0
 13 36  1  0
 16 37  1  0
 17 38  1  0
 18 39  1  0
 19 40  1  0
 21 41  1  0
 22 42  1  0
 24 43  1  0
 25 44  1  0
 26 45  1  0
 26 46  1  0
 26 47  1  0
M  END
>  <score>  (4) 
-11.5

$$$$
=
     RDKit          3D

 47 51  0  0  0  0  0  0  0  0999 V2000
    0.7270   66.7810   69.4790 C   0  0  1  0  0  0  0  0  0  0  0  0
   -0.3080   65.8320   69.0890 N   0  0  0  0  0  0  0  0  0  0  0  0
   -0.2850   64.7020   69.8600 N   0  0  0  0  0  0  0  0  0  0  0  0
    0.8480   64.7250   70.4940 C   0  0  0  0  0  0  0  0  0  0  0  0
    1.7310   65.9110   70.2240 C   0  0  0  0  0  0  0  0  0  0  0  0
    1.2950   63.6760   71.4200 C   0  0  0  0  0  0  0  0  0  0  0  0
    0.9360   63.7830   72.7900 C   0  0  0  0  0  0  0  0  0  0  0  0
    0.2430   64.8850   73.3500 C   0  0  0  0  0  0  0  0  0  0  0  0
   -0.0900   64.9260   74.7050 C   0  0  0  0  0  0  0  0  0  0  0  0
    0.2640   63.8710   75.5350 C   0  0  0  0  0  0  0  0  0  0  0  0
    0.9540   62.7800   75.0110 C   0  0  0  0  0  0  0  0  0  0  0  0
    1.2970   62.7250   73.6490 C   0  0  0  0  0  0  0  0  0  0  0  0
    1.9970   61.6200   73.1370 C   0  0  0  0  0  0  0  0  0  0  0  0
    2.3640   61.5310   71.7850 C   0  0  0  0  0  0  0  0  0  0  0  0
    2.0200   62.5720   70.8970 C   0  0  0  0  0  0  0  0  0  0  0  0
    2.4210   62.4490   69.5430 C   0  0  0  0  0  0  0  0  0  0  0  0
    3.1230   61.3320   69.0880 C   0  0  0  0  0  0  0  0  0  0  0  0
    3.4460   60.3120   69.9720 C   0  0  0  0  0  0  0  0  0  0  0  0
    3.0710   60.4120   71.3110 C   0  0  0  0  0  0  0  0  0  0  0  0
    2.5030   68.9350   66.1680 C   0  0  0  0  0  0  0  0  0  0  0  0
    2.6190   69.4160   67.4720 C   0  0  0  0  0  0  0  0  0  0  0  0
    2.0360   68.7170   68.5360 C   0  0  0  0  0  0  0  0  0  0  0  0
    1.3220   67.5300   68.3140 C   0  0  0  0  0  0  0  0  0  0  0  0
    1.2190   67.0520   67.0010 C   0  0  0  0  0  0  0  0  0  0  0  0
    1.8010   67.7500   65.9410 C   0  0  0  0  0  0  0  0  0  0  0  0
    4.4020   69.2920   64.7830 C   0  0  0  0  0  0  0  0  0  0  0  0
    3.0230   69.5170   65.0450 O   0  0  0  0  0  0  0  0  0  0  0  0
    0.3388   67.6004   70.1017 H   0  0  0  0  0  0  0  0  0  0  0  0
   -0.9778   65.9930   68.3233 H   0  0  0  0  0  0  0  0  0  0  0  0
    2.0813   66.3859   71.1523 H   0  0  0  0  0  0  0  0  0  0  0  0
    2.6658   65.6956   69.6857 H   0  0  0  0  0  0  0  0  0  0  0  0
   -0.0391   65.7278   72.7018 H   0  0  0  0  0  0  0  0  0  0  0  0
   -0.6314   65.7918   75.1139 H   0  0  0  0  0  0  0  0  0  0  0  0
    0.0006   63.8964   76.6027 H   0  0  0  0  0  0  0  0  0  0  0  0
    1.2349   61.9483   75.6738 H   0  0  0  0  0  0  0  0  0  0  0  0
    2.2661   60.7984   73.8171 H   0  0  0  0  0  0  0  0  0  0  0  0
    2.1730   63.2529   68.8343 H   0  0  0  0  0  0  0  0  0  0  0  0
    3.4196   61.2602   68.0312 H   0  0  0  0  0  0  0  0  0  0  0  0
    3.9959   59.4278   69.6174 H   0  0  0  0  0  0  0  0  0  0  0  0
    3.3325   59.6022   72.0080 H   0  0  0  0  0  0  0  0  0  0  0  0
    3.1705   70.3479   67.6653 H   0  0  0  0  0  0  0  0  0  0  0  0
    2.1393   69.1041   69.5604 H   0  0  0  0  0  0  0  0  0  0  0  0
    0.6740   66.1172   66.8032 H   0  0  0  0  0  0  0  0  0  0  0  0
    1.7053   67.3620   64.9162 H   0  0  0  0  0  0  0  0  0  0  0  0
    4.9463   69.2032   65.7347 H   0  0  0  0  0  0  0  0  0  0  0  0
    4.5187   68.3629   64.2058 H   0  0  0  0  0  0  0  0  0  0  0  0
    4.8080   70.1358   64.2058 H   0  0  0  0  0  0  0  0  0  0  0  0
  2  1  1  0
  3  2  1  0
  4  3  2  0
  5  4  1  0
  5  1  1  0
  6  4  1  0
  7  6  1  0
  8  7  2  0
  9  8  1  0
 10  9  2  0
 11 10  1  0
 12 11  2  0
 12  7  1  0
 13 12  1  0
 14 13  2  0
 15 14  1  0
 15  6  2  0
 16 15  1  0
 17 16  2  0
 18 17  1  0
 19 18  2  0
 19 14  1  0
 21 20  2  0
 22 21  1  0
 23 22  2  0
 23  1  1  0
 24 23  1  0
 25 24  2  0
 25 20  1  0
 27 26  1  0
 27 20  1  0
  1 28  1  1
  2 29  1  0
  5 30  1  0
  5 31  1  0
  8 32  1  0
  9 33  1  0
 10 34  1  0
 11 35  1  0
 13 36  1  0
 16 37  1  0
 17 38  1  0
 18 39  1  0
 19 40  1  0
 21 41  1  0
 22 42  1  0
 24 43  1  0
 25 44  1  0
 26 45  1  0
 26 46  1  0
 26 47  1  0
M  END
>  <score>  (5) 
-11.379

$$$$
=
     RDKit          3D

 47 51  0  0  0  0  0  0  0  0999 V2000
    0.8150   67.3630   68.0860 C   0  0  1  0  0  0  0  0  0  0  0  0
    0.6620   68.7870   68.3530 N   0  0  0  0  0  0  0  0  0  0  0  0
    1.5180   69.5450   67.6010 N   0  0  0  0  0  0  0  0  0  0  0  0
    2.3930   68.7180   67.1140 C   0  0  0  0  0  0  0  0  0  0  0  0
    2.2090   67.2720   67.4810 C   0  0  0  0  0  0  0  0  0  0  0  0
    3.5190   69.1200   66.2610 C   0  0  0  0  0  0  0  0  0  0  0  0
    3.4450   68.8510   64.8680 C   0  0  0  0  0  0  0  0  0  0  0  0
    2.3880   68.1400   64.2480 C   0  0  0  0  0  0  0  0  0  0  0  0
    2.3680   67.9170   62.8700 C   0  0  0  0  0  0  0  0  0  0  0  0
    3.4040   68.3950   62.0780 C   0  0  0  0  0  0  0  0  0  0  0  0
    4.4590   69.0900   62.6650 C   0  0  0  0  0  0  0  0  0  0  0  0
    4.4940   69.3210   64.0510 C   0  0  0  0  0  0  0  0  0  0  0  0
    5.5670   70.0180   64.6280 C   0  0  0  0  0  0  0  0  0  0  0  0
    5.6420   70.2630   66.0090 C   0  0  0  0  0  0  0  0  0  0  0  0
    4.6100   69.8070   66.8570 C   0  0  0  0  0  0  0  0  0  0  0  0
    4.7310   70.0630   68.2450 C   0  0  0  0  0  0  0  0  0  0  0  0
    5.8250   70.7550   68.7680 C   0  0  0  0  0  0  0  0  0  0  0  0
    6.8270   71.2050   67.9190 C   0  0  0  0  0  0  0  0  0  0  0  0
    6.7360   70.9590   66.5500 C   0  0  0  0  0  0  0  0  0  0  0  0
    0.3480   64.9070   71.6230 C   0  0  0  0  0  0  0  0  0  0  0  0
    1.4580   64.7530   70.7940 C   0  0  0  0  0  0  0  0  0  0  0  0
    1.5980   65.5460   69.6480 C   0  0  0  0  0  0  0  0  0  0  0  0
    0.6280   66.5010   69.3090 C   0  0  0  0  0  0  0  0  0  0  0  0
   -0.4790   66.6530   70.1540 C   0  0  0  0  0  0  0  0  0  0  0  0
   -0.6170   65.8620   71.2960 C   0  0  0  0  0  0  0  0  0  0  0  0
    1.0620   63.2400   73.1590 C   0  0  0  0  0  0  0  0  0  0  0  0
    0.0910   64.2010   72.7650 O   0  0  0  0  0  0  0  0  0  0  0  0
    0.0390   66.9720   67.4115 H   0  0  0  0  0  0  0  0  0  0  0  0
   -0.0110   69.1772   69.0281 H   0  0  0  0  0  0  0  0  0  0  0  0
    2.2351   66.6149   66.5992 H   0  0  0  0  0  0  0  0  0  0  0  0
    2.9841   66.8445   68.1341 H   0  0  0  0  0  0  0  0  0  0  0  0
    1.5641   67.7548   64.8667 H   0  0  0  0  0  0  0  0  0  0  0  0
    1.5341   67.3643   62.4128 H   0  0  0  0  0  0  0  0  0  0  0  0
    3.3915   68.2254   60.9912 H   0  0  0  0  0  0  0  0  0  0  0  0
    5.2782   69.4642   62.0334 H   0  0  0  0  0  0  0  0  0  0  0  0
    6.3752   70.3841   63.9778 H   0  0  0  0  0  0  0  0  0  0  0  0
    3.9443   69.7081   68.9270 H   0  0  0  0  0  0  0  0  0  0  0  0
    5.8928   70.9431   69.8497 H   0  0  0  0  0  0  0  0  0  0  0  0
    7.6896   71.7537   68.3251 H   0  0  0  0  0  0  0  0  0  0  0  0
    7.5340   71.3157   65.8821 H   0  0  0  0  0  0  0  0  0  0  0  0
    2.2268   64.0060   71.0407 H   0  0  0  0  0  0  0  0  0  0  0  0
    2.4811   65.4181   69.0047 H   0  0  0  0  0  0  0  0  0  0  0  0
   -1.2472   67.4032   69.9152 H   0  0  0  0  0  0  0  0  0  0  0  0
   -1.4953   65.9924   71.9453 H   0  0  0  0  0  0  0  0  0  0  0  0
    1.1081   63.1943   74.2571 H   0  0  0  0  0  0  0  0  0  0  0  0
    0.7827   62.2527   72.7624 H   0  0  0  0  0  0  0  0  0  0  0  0
    2.0463   63.5295   72.7624 H   0  0  0  0  0  0  0  0  0  0  0  0
  2  1  1  0
  3  2  1  0
  4  3  2  0
  5  4  1  0
  5  1  1  0
  6  4  1  0
  7  6  1  0
  8  7  2  0
  9  8  1  0
 10  9  2  0
 11 10  1  0
 12 11  2  0
 12  7  1  0
 13 12  1  0
 14 13  2  0
 15 14  1  0
 15  6  2  0
 16 15  1  0
 17 16  2  0
 18 17  1  0
 19 18  2  0
 19 14  1  0
 21 20  2  0
 22 21  1  0
 23 22  2  0
 23  1  1  0
 24 23  1  0
 25 24  2  0
 25 20  1  0
 27 26  1  0
 27 20  1  0
  1 28  1  6
  2 29  1  0
  5 30  1  0
  5 31  1  0
  8 32  1  0
  9 33  1  0
 10 34  1  0
 11 35  1  0
 13 36  1  0
 16 37  1  0
 17 38  1  0
 18 39  1  0
 19 40  1  0
 21 41  1  0
 22 42  1  0
 24 43  1  0
 25 44  1  0
 26 45  1  0
 26 46  1  0
 26 47  1  0
M  END
>  <score>  (6) 
-11.247

$$$$
=
     RDKit          3D

 47 51  0  0  0  0  0  0  0  0999 V2000
   -0.8060   60.7960   74.0540 C   0  0  1  0  0  0  0  0  0  0  0  0
   -0.0190   61.4800   75.0720 N   0  0  0  0  0  0  0  0  0  0  0  0
    0.8990   62.3340   74.5230 N   0  0  0  0  0  0  0  0  0  0  0  0
    0.9640   62.0250   73.2630 C   0  0  0  0  0  0  0  0  0  0  0  0
    0.0640   60.9110   72.8090 C   0  0  0  0  0  0  0  0  0  0  0  0
    1.8560   62.6850   72.3000 C   0  0  0  0  0  0  0  0  0  0  0  0
    3.1090   62.0820   72.0110 C   0  0  0  0  0  0  0  0  0  0  0  0
    3.6030   60.9210   72.6550 C   0  0  0  0  0  0  0  0  0  0  0  0
    4.8400   60.3700   72.3190 C   0  0  0  0  0  0  0  0  0  0  0  0
    5.6170   60.9660   71.3340 C   0  0  0  0  0  0  0  0  0  0  0  0
    5.1570   62.1140   70.6910 C   0  0  0  0  0  0  0  0  0  0  0  0
    3.9140   62.6810   71.0200 C   0  0  0  0  0  0  0  0  0  0  0  0
    3.4670   63.8410   70.3670 C   0  0  0  0  0  0  0  0  0  0  0  0
    2.2350   64.4420   70.6720 C   0  0  0  0  0  0  0  0  0  0  0  0
    1.4040   63.8700   71.6580 C   0  0  0  0  0  0  0  0  0  0  0  0
    0.1750   64.5150   71.9460 C   0  0  0  0  0  0  0  0  0  0  0  0
   -0.2170   65.6720   71.2710 C   0  0  0  0  0  0  0  0  0  0  0  0
    0.6080   66.2170   70.2970 C   0  0  0  0  0  0  0  0  0  0  0  0
    1.8260   65.6060   70.0010 C   0  0  0  0  0  0  0  0  0  0  0  0
   -1.8710   56.7250   75.0800 C   0  0  0  0  0  0  0  0  0  0  0  0
   -2.6620   57.7940   75.5010 C   0  0  0  0  0  0  0  0  0  0  0  0
   -2.3070   59.1070   75.1710 C   0  0  0  0  0  0  0  0  0  0  0  0
   -1.1520   59.3750   74.4210 C   0  0  0  0  0  0  0  0  0  0  0  0
   -0.3700   58.2940   73.9950 C   0  0  0  0  0  0  0  0  0  0  0  0
   -0.7260   56.9840   74.3250 C   0  0  0  0  0  0  0  0  0  0  0  0
   -1.0350   54.5000   75.0780 C   0  0  0  0  0  0  0  0  0  0  0  0
   -2.1050   55.4020   75.3320 O   0  0  0  0  0  0  0  0  0  0  0  0
   -1.8006   61.2444   73.9134 H   0  0  0  0  0  0  0  0  0  0  0  0
   -0.1393   61.3376   76.0850 H   0  0  0  0  0  0  0  0  0  0  0  0
   -0.5210   61.1881   71.9196 H   0  0  0  0  0  0  0  0  0  0  0  0
    0.5715   59.9867   72.4958 H   0  0  0  0  0  0  0  0  0  0  0  0
    2.9970   60.4426   73.4385 H   0  0  0  0  0  0  0  0  0  0  0  0
    5.1989   59.4660   72.8328 H   0  0  0  0  0  0  0  0  0  0  0  0
    6.5914   60.5338   71.0624 H   0  0  0  0  0  0  0  0  0  0  0  0
    5.7771   62.5838   69.9133 H   0  0  0  0  0  0  0  0  0  0  0  0
    4.1024   64.2936   69.5915 H   0  0  0  0  0  0  0  0  0  0  0  0
   -0.4847   64.0941   72.7190 H   0  0  0  0  0  0  0  0  0  0  0  0
   -1.1779   66.1510   71.5105 H   0  0  0  0  0  0  0  0  0  0  0  0
    0.3022   67.1274   69.7606 H   0  0  0  0  0  0  0  0  0  0  0  0
    2.4770   66.0428   69.2294 H   0  0  0  0  0  0  0  0  0  0  0  0
   -3.5684   57.6043   76.0947 H   0  0  0  0  0  0  0  0  0  0  0  0
   -2.9426   59.9406   75.5044 H   0  0  0  0  0  0  0  0  0  0  0  0
    0.5332   58.4782   73.3948 H   0  0  0  0  0  0  0  0  0  0  0  0
   -0.0971   56.1476   73.9861 H   0  0  0  0  0  0  0  0  0  0  0  0
   -0.6176   54.1481   76.0329 H   0  0  0  0  0  0  0  0  0  0  0  0
   -1.4088   53.6405   74.5023 H   0  0  0  0  0  0  0  0  0  0  0  0
   -0.2511   55.0139   74.5023 H   0  0  0  0  0  0  0  0  0  0  0  0
  2  1  1  0
  3  2  1  0
  4  3  2  0
  5  4  1  0
  5  1  1  0
  6  4  1  0
  7  6  1  0
  8  7  2  0
  9  8  1  0
 10  9  2  0
 11 10  1  0
 12 11  2  0
 12  7  1  0
 13 12  1  0
 14 13  2  0
 15 14  1  0
 15  6  2  0
 16 15  1  0
 17 16  2  0
 18 17  1  0
 19 18  2  0
 19 14  1  0
 21 20  2  0
 22 21  1  0
 23 22  2  0
 23  1  1  0
 24 23  1  0
 25 24  2  0
 25 20  1  0
 27 26  1  0
 27 20  1  0
  1 28  1  6
  2 29  1  0
  5 30  1  0
  5 31  1  0
  8 32  1  0
  9 33  1  0
 10 34  1  0
 11 35  1  0
 13 36  1  0
 16 37  1  0
 17 38  1  0
 18 39  1  0
 19 40  1  0
 21 41  1  0
 22 42  1  0
 24 43  1  0
 25 44  1  0
 26 45  1  0
 26 46  1  0
 26 47  1  0
M  END
>  <score>  (7) 
-10.692

$$$$
=
     RDKit          3D

 47 51  0  0  0  0  0  0  0  0999 V2000
    0.6680   66.5120   69.9580 C   0  0  1  0  0  0  0  0  0  0  0  0
    1.6800   67.5570   69.8890 N   0  0  0  0  0  0  0  0  0  0  0  0
    1.5830   68.2900   68.7370 N   0  0  0  0  0  0  0  0  0  0  0  0
    0.8020   67.6150   67.9500 C   0  0  0  0  0  0  0  0  0  0  0  0
    0.2610   66.3270   68.5030 C   0  0  0  0  0  0  0  0  0  0  0  0
    0.4450   68.0340   66.5870 C   0  0  0  0  0  0  0  0  0  0  0  0
   -0.9230   68.2650   66.2840 C   0  0  0  0  0  0  0  0  0  0  0  0
   -1.9900   68.0370   67.1880 C   0  0  0  0  0  0  0  0  0  0  0  0
   -3.3150   68.2940   66.8330 C   0  0  0  0  0  0  0  0  0  0  0  0
   -3.6080   68.7820   65.5670 C   0  0  0  0  0  0  0  0  0  0  0  0
   -2.5780   69.0060   64.6560 C   0  0  0  0  0  0  0  0  0  0  0  0
   -1.2390   68.7500   64.9980 C   0  0  0  0  0  0  0  0  0  0  0  0
   -0.2120   68.9760   64.0680 C   0  0  0  0  0  0  0  0  0  0  0  0
    1.1370   68.7270   64.3690 C   0  0  0  0  0  0  0  0  0  0  0  0
    1.4890   68.2410   65.6460 C   0  0  0  0  0  0  0  0  0  0  0  0
    2.8600   67.9890   65.9050 C   0  0  0  0  0  0  0  0  0  0  0  0
    3.8400   68.2240   64.9390 C   0  0  0  0  0  0  0  0  0  0  0  0
    3.4780   68.7110   63.6910 C   0  0  0  0  0  0  0  0  0  0  0  0
    2.1360   68.9590   63.4080 C   0  0  0  0  0  0  0  0  0  0  0  0
    2.0110   62.8440   71.8290 C   0  0  0  0  0  0  0  0  0  0  0  0
    0.7750   63.3990   72.1610 C   0  0  0  0  0  0  0  0  0  0  0  0
    0.3520   64.5890   71.5570 C   0  0  0  0  0  0  0  0  0  0  0  0
    1.1580   65.2470   70.6160 C   0  0  0  0  0  0  0  0  0  0  0  0
    2.3930   64.6760   70.2840 C   0  0  0  0  0  0  0  0  0  0  0  0
    2.8140   63.4890   70.8870 C   0  0  0  0  0  0  0  0  0  0  0  0
    3.9260   61.4650   72.1150 C   0  0  0  0  0  0  0  0  0  0  0  0
    2.5410   61.6930   72.3410 O   0  0  0  0  0  0  0  0  0  0  0  0
   -0.1828   66.7867   70.5989 H   0  0  0  0  0  0  0  0  0  0  0  0
    2.3854   67.7247   70.6206 H   0  0  0  0  0  0  0  0  0  0  0  0
   -0.8301   66.2520   68.3850 H   0  0  0  0  0  0  0  0  0  0  0  0
    0.6280   65.4099   68.0191 H   0  0  0  0  0  0  0  0  0  0  0  0
   -1.7688   67.6484   68.1930 H   0  0  0  0  0  0  0  0  0  0  0  0
   -4.1249   68.1104   67.5544 H   0  0  0  0  0  0  0  0  0  0  0  0
   -4.6502   68.9912   65.2839 H   0  0  0  0  0  0  0  0  0  0  0  0
   -2.8166   69.3894   63.6529 H   0  0  0  0  0  0  0  0  0  0  0  0
   -0.4724   69.3607   63.0709 H   0  0  0  0  0  0  0  0  0  0  0  0
    3.1582   67.5994   66.8895 H   0  0  0  0  0  0  0  0  0  0  0  0
    4.8973   68.0235   65.1667 H   0  0  0  0  0  0  0  0  0  0  0  0
    4.2473   68.9006   62.9280 H   0  0  0  0  0  0  0  0  0  0  0  0
    1.8541   69.3426   62.4163 H   0  0  0  0  0  0  0  0  0  0  0  0
    0.1306   62.9000   72.8998 H   0  0  0  0  0  0  0  0  0  0  0  0
   -0.6266   65.0143   71.8241 H   0  0  0  0  0  0  0  0  0  0  0  0
    3.0379   65.1676   69.5407 H   0  0  0  0  0  0  0  0  0  0  0  0
    3.7891   63.0576   70.6167 H   0  0  0  0  0  0  0  0  0  0  0  0
    4.4459   61.3794   73.0806 H   0  0  0  0  0  0  0  0  0  0  0  0
    4.0560   60.5334   71.5448 H   0  0  0  0  0  0  0  0  0  0  0  0
    4.3478   62.3058   71.5448 H   0  0  0  0  0  0  0  0  0  0  0  0
  2  1  1  0
  3  2  1  0
  4  3  2  0
  5  4  1  0
  5  1  1  0
  6  4  1  0
  7  6  1  0
  8  7  2  0
  9  8  1  0
 10  9  2  0
 11 10  1  0
 12 11  2  0
 12  7  1  0
 13 12  1  0
 14 13  2  0
 15 14  1  0
 15  6  2  0
 16 15  1  0
 17 16  2  0
 18 17  1  0
 19 18  2  0
 19 14  1  0
 21 20  2  0
 22 21  1  0
 23 22  2  0
 23  1  1  0
 24 23  1  0
 25 24  2  0
 25 20  1  0
 27 26  1  0
 27 20  1  0
  1 28  1  1
  2 29  1  0
  5 30  1  0
  5 31  1  0
  8 32  1  0
  9 33  1  0
 10 34  1  0
 11 35  1  0
 13 36  1  0
 16 37  1  0
 17 38  1  0
 18 39  1  0
 19 40  1  0
 21 41  1  0
 22 42  1  0
 24 43  1  0
 25 44  1  0
 26 45  1  0
 26 46  1  0
 26 47  1  0
M  END
>  <score>  (8) 
-10.549

$$$$
=
     RDKit          3D

 47 51  0  0  0  0  0  0  0  0999 V2000
   -0.9050   60.7430   73.9440 C   0  0  1  0  0  0  0  0  0  0  0  0
   -0.1530   61.4880   74.9450 N   0  0  0  0  0  0  0  0  0  0  0  0
    0.7630   62.3310   74.3770 N   0  0  0  0  0  0  0  0  0  0  0  0
    0.8610   61.9660   73.1340 C   0  0  0  0  0  0  0  0  0  0  0  0
   -0.0100   60.8160   72.7140 C   0  0  0  0  0  0  0  0  0  0  0  0
    1.7630   62.5970   72.1600 C   0  0  0  0  0  0  0  0  0  0  0  0
    1.3510   63.8050   71.5390 C   0  0  0  0  0  0  0  0  0  0  0  0
    0.0840   64.4100   71.7290 C   0  0  0  0  0  0  0  0  0  0  0  0
   -0.2580   65.6060   71.0960 C   0  0  0  0  0  0  0  0  0  0  0  0
    0.6560   66.2270   70.2550 C   0  0  0  0  0  0  0  0  0  0  0  0
    1.9060   65.6490   70.0440 C   0  0  0  0  0  0  0  0  0  0  0  0
    2.2630   64.4440   70.6730 C   0  0  0  0  0  0  0  0  0  0  0  0
    3.5250   63.8710   70.4460 C   0  0  0  0  0  0  0  0  0  0  0  0
    3.9170   62.6650   71.0510 C   0  0  0  0  0  0  0  0  0  0  0  0
    3.0300   61.9990   71.9220 C   0  0  0  0  0  0  0  0  0  0  0  0
    3.4580   60.7780   72.5000 C   0  0  0  0  0  0  0  0  0  0  0  0
    4.7220   60.2480   72.2340 C   0  0  0  0  0  0  0  0  0  0  0  0
    5.5870   60.9210   71.3820 C   0  0  0  0  0  0  0  0  0  0  0  0
    5.1860   62.1190   70.7930 C   0  0  0  0  0  0  0  0  0  0  0  0
   -1.9240   56.7060   75.1360 C   0  0  0  0  0  0  0  0  0  0  0  0
   -2.7360   57.7800   75.4990 C   0  0  0  0  0  0  0  0  0  0  0  0
   -2.3950   59.0830   75.1160 C   0  0  0  0  0  0  0  0  0  0  0  0
   -1.2360   59.3350   74.3690 C   0  0  0  0  0  0  0  0  0  0  0  0
   -0.4320   58.2470   74.0010 C   0  0  0  0  0  0  0  0  0  0  0  0
   -0.7730   56.9480   74.3850 C   0  0  0  0  0  0  0  0  0  0  0  0
   -1.0640   54.6850   76.0440 C   0  0  0  0  0  0  0  0  0  0  0  0
   -2.1410   55.3910   75.4430 O   0  0  0  0  0  0  0  0  0  0  0  0
   -1.9038   61.1662   73.7618 H   0  0  0  0  0  0  0  0  0  0  0  0
   -0.2942   61.3915   75.9607 H   0  0  0  0  0  0  0  0  0  0  0  0
   -0.5800   61.0409   71.8005 H   0  0  0  0  0  0  0  0  0  0  0  0
    0.5200   59.8874   72.4554 H   0  0  0  0  0  0  0  0  0  0  0  0
   -0.6481   63.9252   72.3916 H   0  0  0  0  0  0  0  0  0  0  0  0
   -1.2482   66.0551   71.2627 H   0  0  0  0  0  0  0  0  0  0  0  0
    0.3940   67.1722   69.7570 H   0  0  0  0  0  0  0  0  0  0  0  0
    2.6250   66.1437   69.3744 H   0  0  0  0  0  0  0  0  0  0  0  0
    4.2289   64.3827   69.7732 H   0  0  0  0  0  0  0  0  0  0  0  0
    2.7787   60.2352   73.1738 H   0  0  0  0  0  0  0  0  0  0  0  0
    5.0315   59.3000   72.6982 H   0  0  0  0  0  0  0  0  0  0  0  0
    6.5856   60.5102   71.1724 H   0  0  0  0  0  0  0  0  0  0  0  0
    5.8740   62.6456   70.1152 H   0  0  0  0  0  0  0  0  0  0  0  0
   -3.6478   57.6030   76.0884 H   0  0  0  0  0  0  0  0  0  0  0  0
   -3.0461   59.9210   75.4055 H   0  0  0  0  0  0  0  0  0  0  0  0
    0.4760   58.4180   73.4042 H   0  0  0  0  0  0  0  0  0  0  0  0
   -0.1274   56.1069   74.0923 H   0  0  0  0  0  0  0  0  0  0  0  0
   -1.1529   54.7433   77.1388 H   0  0  0  0  0  0  0  0  0  0  0  0
   -1.0951   53.6315   75.7292 H   0  0  0  0  0  0  0  0  0  0  0  0
   -0.1103   55.1338   75.7292 H   0  0  0  0  0  0  0  0  0  0  0  0
  2  1  1  0
  3  2  1  0
  4  3  2  0
  5  4  1  0
  5  1  1  0
  6  4  1  0
  7  6  1  0
  8  7  2  0
  9  8  1  0
 10  9  2  0
 11 10  1  0
 12 11  2  0
 12  7  1  0
 13 12  1  0
 14 13  2  0
 15 14  1  0
 15  6  2  0
 16 15  1  0
 17 16  2  0
 18 17  1  0
 19 18  2  0
 19 14  1  0
 21 20  2  0
 22 21  1  0
 23 22  2  0
 23  1  1  0
 24 23  1  0
 25 24  2  0
 25 20  1  0
 27 26  1  0
 27 20  1  0
  1 28  1  6
  2 29  1  0
  5 30  1  0
  5 31  1  0
  8 32  1  0
  9 33  1  0
 10 34  1  0
 11 35  1  0
 13 36  1  0
 16 37  1  0
 17 38  1  0
 18 39  1  0
 19 40  1  0
 21 41  1  0
 22 42  1  0
 24 43  1  0
 25 44  1  0
 26 45  1  0
 26 46  1  0
 26 47  1  0
M  END
>  <score>  (9) 
-10.469

$$$$
