=
     RDKit          3D

 39 40  0  0  0  0  0  0  0  0999 V2000
    4.2140   68.0260   64.1990 C   0  0  1  0  0  0  0  0  0  0  0  0
    4.3800   66.5290   64.4430 N   0  0  0  0  0  4  0  0  0  0  0  0
    4.1350   65.8280   63.1290 C   0  0  0  0  0  0  0  0  0  0  0  0
    4.2670   66.9330   62.0810 C   0  0  1  0  0  0  0  0  0  0  0  0
    3.6070   68.1220   62.7820 C   0  0  1  0  0  0  0  0  0  0  0  0
    5.6520   67.2020   61.8580 O   0  0  0  0  0  0  0  0  0  0  0  0
    3.3990   68.6500   65.3370 C   0  0  0  0  0  0  0  0  0  0  0  0
    5.8800   70.9520   68.0280 C   0  0  0  0  0  0  0  0  0  0  0  0
    6.3500   70.5850   66.7650 C   0  0  0  0  0  0  0  0  0  0  0  0
    5.5460   69.8540   65.8880 C   0  0  0  0  0  0  0  0  0  0  0  0
    4.2550   69.4680   66.2680 C   0  0  0  0  0  0  0  0  0  0  0  0
    3.7840   69.8450   67.5320 C   0  0  0  0  0  0  0  0  0  0  0  0
    4.5920   70.5800   68.4070 C   0  0  0  0  0  0  0  0  0  0  0  0
    7.5830   70.9280   69.6890 C   0  0  0  0  0  0  0  0  0  0  0  0
    6.7700   71.6620   68.7810 O   0  0  0  0  0  0  0  0  0  0  0  0
    2.1750   67.9680   62.8260 O   0  0  0  0  0  0  0  0  0  0  0  0
    1.4970   68.8980   62.0880 C   0  0  0  0  0  0  0  0  0  0  0  0
    1.9210   69.3830   61.0520 O   0  0  0  0  0  0  0  0  0  0  0  0
    0.1690   69.2010   62.7100 C   0  0  0  0  0  0  0  0  0  0  0  0
    5.1458   68.6104   64.2161 H   0  0  0  0  0  0  0  0  0  0  0  0
    5.3343   66.3301   64.7756 H   0  0  0  0  0  0  0  0  0  0  0  0
    3.7164   66.2014   65.1594 H   0  0  0  0  0  0  0  0  0  0  0  0
    4.8847   65.0407   62.9617 H   0  0  0  0  0  0  0  0  0  0  0  0
    3.1543   65.3309   63.0943 H   0  0  0  0  0  0  0  0  0  0  0  0
    3.8203   66.6932   61.1048 H   0  0  0  0  0  0  0  0  0  0  0  0
    3.7797   69.0868   62.2826 H   0  0  0  0  0  0  0  0  0  0  0  0
    6.1150   67.2919   62.7284 H   0  0  0  0  0  0  0  0  0  0  0  0
    2.6256   69.3009   64.9032 H   0  0  0  0  0  0  0  0  0  0  0  0
    2.9524   67.8315   65.9206 H   0  0  0  0  0  0  0  0  0  0  0  0
    7.3655   70.8752   66.4575 H   0  0  0  0  0  0  0  0  0  0  0  0
    5.9288   69.5801   64.8938 H   0  0  0  0  0  0  0  0  0  0  0  0
    2.7673   69.5601   67.8405 H   0  0  0  0  0  0  0  0  0  0  0  0
    4.2086   70.8651   69.3978 H   0  0  0  0  0  0  0  0  0  0  0  0
    7.3012   71.1824   70.7214 H   0  0  0  0  0  0  0  0  0  0  0  0
    7.4363   69.8504   69.5238 H   0  0  0  0  0  0  0  0  0  0  0  0
    8.6400   71.1837   69.5238 H   0  0  0  0  0  0  0  0  0  0  0  0
    0.2638   69.1794   63.8057 H   0  0  0  0  0  0  0  0  0  0  0  0
   -0.1664   70.1987   62.3906 H   0  0  0  0  0  0  0  0  0  0  0  0
   -0.5660   68.4475   62.3906 H   0  0  0  0  0  0  0  0  0  0  0  0
  2  1  1  0
  3  2  1  0
  4  3  1  0
  5  4  1  0
  5  1  1  0
  6  4  1  0
  7  1  1  0
  9  8  2  0
 10  9  1  0
 11  7  1  0
 11 10  2  0
 12 11  1  0
 13 12  2  0
 13  8  1  0
 15 14  1  0
 15  8  1  0
 16  5  1  0
 17 16  1  0
 18 17  2  0
 19 17  1  0
  1 20  1  6
  2 21  1  0
  2 22  1  0
  3 23  1  0
  3 24  1  0
  4 25  1  6
  5 26  1  6
  6 27  1  0
  7 28  1  0
  7 29  1  0
  9 30  1  0
 10 31  1  0
 12 32  1  0
 13 33  1  0
 14 34  1  0
 14 35  1  0
 14 36  1  0
 19 37  1  0
 19 38  1  0
 19 39  1  0
M  CHG  1   2   1
M  END
>  <score>  (1) 
-8.975

$$$$
=
     RDKit          3D

 39 40  0  0  0  0  0  0  0  0999 V2000
    3.6660   67.3720   65.1120 C   0  0  1  0  0  0  0  0  0  0  0  0
    2.6080   66.3340   65.4700 N   0  0  0  0  0  4  0  0  0  0  0  0
    2.5060   65.3740   64.3100 C   0  0  0  0  0  0  0  0  0  0  0  0
    3.7890   65.6090   63.5120 C   0  0  1  0  0  0  0  0  0  0  0  0
    3.9590   67.1250   63.6160 C   0  0  1  0  0  0  0  0  0  0  0  0
    4.8730   64.9470   64.1660 O   0  0  0  0  0  0  0  0  0  0  0  0
    3.1710   68.7710   65.4920 C   0  0  0  0  0  0  0  0  0  0  0  0
    6.0350   70.9830   67.8570 C   0  0  0  0  0  0  0  0  0  0  0  0
    4.7870   70.6470   68.3830 C   0  0  0  0  0  0  0  0  0  0  0  0
    3.8640   69.9210   67.6280 C   0  0  0  0  0  0  0  0  0  0  0  0
    4.1770   69.5250   66.3220 C   0  0  0  0  0  0  0  0  0  0  0  0
    5.4350   69.8570   65.7990 C   0  0  0  0  0  0  0  0  0  0  0  0
    6.3560   70.5830   66.5620 C   0  0  0  0  0  0  0  0  0  0  0  0
    7.5950   70.9590   69.6540 C   0  0  0  0  0  0  0  0  0  0  0  0
    6.8360   71.6960   68.7040 O   0  0  0  0  0  0  0  0  0  0  0  0
    3.0020   67.8120   62.7860 O   0  0  0  0  0  0  0  0  0  0  0  0
    3.5710   68.5930   61.8190 C   0  0  0  0  0  0  0  0  0  0  0  0
    2.9920   68.9490   60.8060 O   0  0  0  0  0  0  0  0  0  0  0  0
    4.9700   68.9700   62.1980 C   0  0  0  0  0  0  0  0  0  0  0  0
    4.6118   67.2890   65.6675 H   0  0  0  0  0  0  0  0  0  0  0  0
    2.8862   65.8275   66.3226 H   0  0  0  0  0  0  0  0  0  0  0  0
    1.7001   66.7868   65.6479 H   0  0  0  0  0  0  0  0  0  0  0  0
    2.4540   64.3350   64.6674 H   0  0  0  0  0  0  0  0  0  0  0  0
    1.6002   65.5371   63.7075 H   0  0  0  0  0  0  0  0  0  0  0  0
    3.7585   65.2390   62.4766 H   0  0  0  0  0  0  0  0  0  0  0  0
    4.9435   67.4870   63.2847 H   0  0  0  0  0  0  0  0  0  0  0  0
    4.7587   65.0168   65.1469 H   0  0  0  0  0  0  0  0  0  0  0  0
    2.9745   69.3394   64.5710 H   0  0  0  0  0  0  0  0  0  0  0  0
    2.2573   68.6540   66.0932 H   0  0  0  0  0  0  0  0  0  0  0  0
    4.5271   70.9581   69.4056 H   0  0  0  0  0  0  0  0  0  0  0  0
    2.8872   69.6591   68.0608 H   0  0  0  0  0  0  0  0  0  0  0  0
    5.7004   69.5435   64.7786 H   0  0  0  0  0  0  0  0  0  0  0  0
    7.3379   70.8390   66.1373 H   0  0  0  0  0  0  0  0  0  0  0  0
    7.2936   71.2517   70.6706 H   0  0  0  0  0  0  0  0  0  0  0  0
    7.4136   69.8832   69.5132 H   0  0  0  0  0  0  0  0  0  0  0  0
    8.6650   71.1719   69.5132 H   0  0  0  0  0  0  0  0  0  0  0  0
    5.0591   68.9940   63.2941 H   0  0  0  0  0  0  0  0  0  0  0  0
    5.6729   68.2292   61.7891 H   0  0  0  0  0  0  0  0  0  0  0  0
    5.2055   69.9637   61.7891 H   0  0  0  0  0  0  0  0  0  0  0  0
  2  1  1  0
  3  2  1  0
  4  3  1  0
  5  4  1  0
  5  1  1  0
  6  4  1  0
  7  1  1  0
  9  8  2  0
 10  9  1  0
 11  7  1  0
 11 10  2  0
 12 11  1  0
 13 12  2  0
 13  8  1  0
 15 14  1  0
 15  8  1  0
 16  5  1  0
 17 16  1  0
 18 17  2  0
 19 17  1  0
  1 20  1  1
  2 21  1  0
  2 22  1  0
  3 23  1  0
  3 24  1  0
  4 25  1  6
  5 26  1  6
  6 27  1  0
  7 28  1  0
  7 29  1  0
  9 30  1  0
 10 31  1  0
 12 32  1  0
 13 33  1  0
 14 34  1  0
 14 35  1  0
 14 36  1  0
 19 37  1  0
 19 38  1  0
 19 39  1  0
M  CHG  1   2   1
M  END
>  <score>  (2) 
-8.48

$$$$
=
     RDKit          3D

 39 40  0  0  0  0  0  0  0  0999 V2000
    2.7700   68.3780   65.1720 C   0  0  1  0  0  0  0  0  0  0  0  0
    1.6950   69.0410   64.3150 N   0  0  0  0  0  4  0  0  0  0  0  0
    0.8300   67.9420   63.7460 C   0  0  0  0  0  0  0  0  0  0  0  0
    1.1420   66.7270   64.6200 C   0  0  1  0  0  0  0  0  0  0  0  0
    2.6470   66.8720   64.8500 C   0  0  1  0  0  0  0  0  0  0  0  0
    0.4410   66.8500   65.8580 O   0  0  0  0  0  0  0  0  0  0  0  0
    4.1290   69.0290   64.8950 C   0  0  0  0  0  0  0  0  0  0  0  0
    5.8820   70.7110   68.4720 C   0  0  0  0  0  0  0  0  0  0  0  0
    6.6520   70.5230   67.3230 C   0  0  0  0  0  0  0  0  0  0  0  0
    6.0860   69.9930   66.1610 C   0  0  0  0  0  0  0  0  0  0  0  0
    4.7340   69.6330   66.1360 C   0  0  0  0  0  0  0  0  0  0  0  0
    3.9610   69.8300   67.2880 C   0  0  0  0  0  0  0  0  0  0  0  0
    4.5330   70.3640   68.4490 C   0  0  0  0  0  0  0  0  0  0  0  0
    7.9440   70.9110   69.6420 C   0  0  0  0  0  0  0  0  0  0  0  0
    6.5630   71.2350   69.5330 O   0  0  0  0  0  0  0  0  0  0  0  0
    3.3880   66.5400   63.6610 O   0  0  0  0  0  0  0  0  0  0  0  0
    4.0910   65.3710   63.7570 C   0  0  0  0  0  0  0  0  0  0  0  0
    5.0880   65.1230   63.1000 O   0  0  0  0  0  0  0  0  0  0  0  0
    3.4870   64.4750   64.7930 C   0  0  0  0  0  0  0  0  0  0  0  0
    2.6523   68.5099   66.2577 H   0  0  0  0  0  0  0  0  0  0  0  0
    1.1246   69.6743   64.8934 H   0  0  0  0  0  0  0  0  0  0  0  0
    2.1227   69.5953   63.5595 H   0  0  0  0  0  0  0  0  0  0  0  0
   -0.2349   68.2088   63.8149 H   0  0  0  0  0  0  0  0  0  0  0  0
    1.0314   67.7569   62.6806 H   0  0  0  0  0  0  0  0  0  0  0  0
    0.8557   65.7609   64.1787 H   0  0  0  0  0  0  0  0  0  0  0  0
    3.0446   66.2097   65.6331 H   0  0  0  0  0  0  0  0  0  0  0  0
    1.0760   66.7386   66.6093 H   0  0  0  0  0  0  0  0  0  0  0  0
    4.8150   68.2638   64.5027 H   0  0  0  0  0  0  0  0  0  0  0  0
    3.9736   69.8384   64.1665 H   0  0  0  0  0  0  0  0  0  0  0  0
    7.7177   70.7956   67.3326 H   0  0  0  0  0  0  0  0  0  0  0  0
    6.7055   69.8581   65.2621 H   0  0  0  0  0  0  0  0  0  0  0  0
    2.8941   69.5624   67.2801 H   0  0  0  0  0  0  0  0  0  0  0  0
    3.9146   70.5102   69.3469 H   0  0  0  0  0  0  0  0  0  0  0  0
    8.2226   70.8456   70.7041 H   0  0  0  0  0  0  0  0  0  0  0  0
    8.1335   69.9440   69.1531 H   0  0  0  0  0  0  0  0  0  0  0  0
    8.5438   71.6928   69.1531 H   0  0  0  0  0  0  0  0  0  0  0  0
    3.7402   64.8507   65.7954 H   0  0  0  0  0  0  0  0  0  0  0  0
    2.3937   64.4600   64.6725 H   0  0  0  0  0  0  0  0  0  0  0  0
    3.8832   63.4559   64.6725 H   0  0  0  0  0  0  0  0  0  0  0  0
  2  1  1  0
  3  2  1  0
  4  3  1  0
  5  4  1  0
  5  1  1  0
  6  4  1  0
  7  1  1  0
  9  8  2  0
 10  9  1  0
 11  7  1  0
 11 10  2  0
 12 11  1  0
 13 12  2  0
 13  8  1  0
 15 14  1  0
 15  8  1  0
 16  5  1  0
 17 16  1  0
 18 17  2  0
 19 17  1  0
  1 20  1  1
  2 21  1  0
  2 22  1  0
  3 23  1  0
  3 24  1  0
  4 25  1  6
  5 26  1  1
  6 27  1  0
  7 28  1  0
  7 29  1  0
  9 30  1  0
 10 31  1  0
 12 32  1  0
 13 33  1  0
 14 34  1  0
 14 35  1  0
 14 36  1  0
 19 37  1  0
 19 38  1  0
 19 39  1  0
M  CHG  1   2   1
M  END
>  <score>  (3) 
-7.993

$$$$
=
     RDKit          3D

 39 40  0  0  0  0  0  0  0  0999 V2000
    3.6580   68.6330   63.8740 C   0  0  1  0  0  0  0  0  0  0  0  0
    4.9210   69.3560   63.4170 N   0  0  0  0  0  4  0  0  0  0  0  0
    5.6280   68.4530   62.4350 C   0  0  0  0  0  0  0  0  0  0  0  0
    4.5600   67.4420   62.0160 C   0  0  1  0  0  0  0  0  0  0  0  0
    3.8160   67.1960   63.3290 C   0  0  1  0  0  0  0  0  0  0  0  0
    3.6870   68.0530   61.0640 O   0  0  0  0  0  0  0  0  0  0  0  0
    3.4970   68.7770   65.3900 C   0  0  0  0  0  0  0  0  0  0  0  0
   -0.6400   68.5550   66.6280 C   0  0  0  0  0  0  0  0  0  0  0  0
   -0.3070   68.6720   65.2780 C   0  0  0  0  0  0  0  0  0  0  0  0
    1.0280   68.7300   64.8730 C   0  0  0  0  0  0  0  0  0  0  0  0
    2.0570   68.6800   65.8210 C   0  0  0  0  0  0  0  0  0  0  0  0
    1.7190   68.5540   67.1760 C   0  0  0  0  0  0  0  0  0  0  0  0
    0.3800   68.4940   67.5760 C   0  0  0  0  0  0  0  0  0  0  0  0
   -2.8570   68.7210   65.7800 C   0  0  0  0  0  0  0  0  0  0  0  0
   -1.9810   68.5110   66.8810 O   0  0  0  0  0  0  0  0  0  0  0  0
    4.6040   66.3910   64.2280 O   0  0  0  0  0  0  0  0  0  0  0  0
    4.4380   65.0460   64.0530 C   0  0  0  0  0  0  0  0  0  0  0  0
    5.2440   64.3310   63.4800 O   0  0  0  0  0  0  0  0  0  0  0  0
    3.1640   64.5820   64.6880 C   0  0  0  0  0  0  0  0  0  0  0  0
    2.7148   69.0469   63.4880 H   0  0  0  0  0  0  0  0  0  0  0  0
    4.6721   70.2454   62.9611 H   0  0  0  0  0  0  0  0  0  0  0  0
    5.5300   69.5672   64.2204 H   0  0  0  0  0  0  0  0  0  0  0  0
    5.9850   69.0255   61.5662 H   0  0  0  0  0  0  0  0  0  0  0  0
    6.5156   67.9709   62.8707 H   0  0  0  0  0  0  0  0  0  0  0  0
    4.9546   66.5246   61.5548 H   0  0  0  0  0  0  0  0  0  0  0  0
    2.8668   66.6532   63.2089 H   0  0  0  0  0  0  0  0  0  0  0  0
    2.9759   68.5507   61.5402 H   0  0  0  0  0  0  0  0  0  0  0  0
    4.0693   67.9783   65.8845 H   0  0  0  0  0  0  0  0  0  0  0  0
    3.8688   69.7719   65.6761 H   0  0  0  0  0  0  0  0  0  0  0  0
   -1.1061   68.7191   64.5235 H   0  0  0  0  0  0  0  0  0  0  0  0
    1.2724   68.8154   63.8039 H   0  0  0  0  0  0  0  0  0  0  0  0
    2.5156   68.5018   67.9327 H   0  0  0  0  0  0  0  0  0  0  0  0
    0.1309   68.3983   68.6431 H   0  0  0  0  0  0  0  0  0  0  0  0
   -3.8633   68.9622   66.1529 H   0  0  0  0  0  0  0  0  0  0  0  0
   -2.4831   69.5550   65.1679 H   0  0  0  0  0  0  0  0  0  0  0  0
   -2.9019   67.8082   65.1679 H   0  0  0  0  0  0  0  0  0  0  0  0
    3.2653   64.6189   65.7827 H   0  0  0  0  0  0  0  0  0  0  0  0
    2.3380   65.2370   64.3739 H   0  0  0  0  0  0  0  0  0  0  0  0
    2.9527   63.5492   64.3739 H   0  0  0  0  0  0  0  0  0  0  0  0
  2  1  1  0
  3  2  1  0
  4  3  1  0
  5  4  1  0
  5  1  1  0
  6  4  1  0
  7  1  1  0
  9  8  2  0
 10  9  1  0
 11  7  1  0
 11 10  2  0
 12 11  1  0
 13 12  2  0
 13  8  1  0
 15 14  1  0
 15  8  1  0
 16  5  1  0
 17 16  1  0
 18 17  2  0
 19 17  1  0
  1 20  1  6
  2 21  1  0
  2 22  1  0
  3 23  1  0
  3 24  1  0
  4 25  1  6
  5 26  1  6
  6 27  1  0
  7 28  1  0
  7 29  1  0
  9 30  1  0
 10 31  1  0
 12 32  1  0
 13 33  1  0
 14 34  1  0
 14 35  1  0
 14 36  1  0
 19 37  1  0
 19 38  1  0
 19 39  1  0
M  CHG  1   2   1
M  END
>  <score>  (4) 
-7.971

$$$$
=
     RDKit          3D

 39 40  0  0  0  0  0  0  0  0999 V2000
    1.9540   68.5870   67.0170 C   0  0  1  0  0  0  0  0  0  0  0  0
    0.7820   69.4890   67.3890 N   0  0  0  0  0  4  0  0  0  0  0  0
   -0.4820   68.6830   67.2120 C   0  0  0  0  0  0  0  0  0  0  0  0
   -0.0020   67.2330   67.1690 C   0  0  1  0  0  0  0  0  0  0  0  0
    1.2970   67.3470   66.3710 C   0  0  1  0  0  0  0  0  0  0  0  0
    0.2760   66.7940   68.5000 O   0  0  0  0  0  0  0  0  0  0  0  0
    2.9530   69.3620   66.1510 C   0  0  0  0  0  0  0  0  0  0  0  0
    6.3850   70.7300   68.3960 C   0  0  0  0  0  0  0  0  0  0  0  0
    5.1190   70.6950   68.9830 C   0  0  0  0  0  0  0  0  0  0  0  0
    4.0100   70.2410   68.2660 C   0  0  0  0  0  0  0  0  0  0  0  0
    4.1520   69.8200   66.9380 C   0  0  0  0  0  0  0  0  0  0  0  0
    5.4260   69.8480   66.3540 C   0  0  0  0  0  0  0  0  0  0  0  0
    6.5340   70.3020   67.0780 C   0  0  0  0  0  0  0  0  0  0  0  0
    7.4940   70.6040   70.4980 C   0  0  0  0  0  0  0  0  0  0  0  0
    7.3760   71.1980   69.2100 O   0  0  0  0  0  0  0  0  0  0  0  0
    1.0300   67.5770   64.9740 O   0  0  0  0  0  0  0  0  0  0  0  0
    2.0060   67.1080   64.1400 C   0  0  0  0  0  0  0  0  0  0  0  0
    2.3660   67.6810   63.1250 O   0  0  0  0  0  0  0  0  0  0  0  0
    2.5810   65.8290   64.6660 C   0  0  0  0  0  0  0  0  0  0  0  0
    2.5732   68.2505   67.8616 H   0  0  0  0  0  0  0  0  0  0  0  0
    0.8702   69.7948   68.3686 H   0  0  0  0  0  0  0  0  0  0  0  0
    0.7649   70.3280   66.7917 H   0  0  0  0  0  0  0  0  0  0  0  0
   -1.1671   68.8418   68.0578 H   0  0  0  0  0  0  0  0  0  0  0  0
   -1.0393   68.9683   66.3075 H   0  0  0  0  0  0  0  0  0  0  0  0
   -0.7239   66.5248   66.7362 H   0  0  0  0  0  0  0  0  0  0  0  0
    1.9195   66.4406   66.4011 H   0  0  0  0  0  0  0  0  0  0  0  0
   -0.1250   67.4272   69.1468 H   0  0  0  0  0  0  0  0  0  0  0  0
    3.2939   68.7097   65.3335 H   0  0  0  0  0  0  0  0  0  0  0  0
    2.4419   70.2556   65.7634 H   0  0  0  0  0  0  0  0  0  0  0  0
    4.9934   71.0292   70.0234 H   0  0  0  0  0  0  0  0  0  0  0  0
    3.0208   70.2140   68.7464 H   0  0  0  0  0  0  0  0  0  0  0  0
    5.5561   69.5095   65.3155 H   0  0  0  0  0  0  0  0  0  0  0  0
    7.5269   70.3212   66.6049 H   0  0  0  0  0  0  0  0  0  0  0  0
    7.3415   71.3715   71.2711 H   0  0  0  0  0  0  0  0  0  0  0  0
    6.7349   69.8157   70.6092 H   0  0  0  0  0  0  0  0  0  0  0  0
    8.4968   70.1657   70.6092 H   0  0  0  0  0  0  0  0  0  0  0  0
    2.5724   65.8481   65.7658 H   0  0  0  0  0  0  0  0  0  0  0  0
    1.9773   64.9815   64.3093 H   0  0  0  0  0  0  0  0  0  0  0  0
    3.6156   65.7180   64.3093 H   0  0  0  0  0  0  0  0  0  0  0  0
  2  1  1  0
  3  2  1  0
  4  3  1  0
  5  4  1  0
  5  1  1  0
  6  4  1  0
  7  1  1  0
  9  8  2  0
 10  9  1  0
 11  7  1  0
 11 10  2  0
 12 11  1  0
 13 12  2  0
 13  8  1  0
 15 14  1  0
 15  8  1  0
 16  5  1  0
 17 16  1  0
 18 17  2  0
 19 17  1  0
  1 20  1  1
  2 21  1  0
  2 22  1  0
  3 23  1  0
  3 24  1  0
  4 25  1  6
  5 26  1  6
  6 27  1  0
  7 28  1  0
  7 29  1  0
  9 30  1  0
 10 31  1  0
 12 32  1  0
 13 33  1  0
 14 34  1  0
 14 35  1  0
 14 36  1  0
 19 37  1  0
 19 38  1  0
 19 39  1  0
M  CHG  1   2   1
M  END
>  <score>  (5) 
-7.799

$$$$
=
     RDKit          3D

 39 40  0  0  0  0  0  0  0  0999 V2000
    2.0100   68.8540   65.9190 C   0  0  1  0  0  0  0  0  0  0  0  0
    2.9170   67.6590   65.6430 N   0  0  0  0  0  4  0  0  0  0  0  0
    2.1100   66.6510   64.8620 C   0  0  0  0  0  0  0  0  0  0  0  0
    0.9200   67.4500   64.3310 C   0  0  1  0  0  0  0  0  0  0  0  0
    0.6010   68.3730   65.5070 C   0  0  1  0  0  0  0  0  0  0  0  0
    1.3400   68.2190   63.2030 O   0  0  0  0  0  0  0  0  0  0  0  0
    2.1800   69.3120   67.3710 C   0  0  0  0  0  0  0  0  0  0  0  0
    6.1740   70.7580   68.1760 C   0  0  0  0  0  0  0  0  0  0  0  0
    5.2150   70.7160   69.1900 C   0  0  0  0  0  0  0  0  0  0  0  0
    3.9280   70.2370   68.9370 C   0  0  0  0  0  0  0  0  0  0  0  0
    3.5770   69.7970   67.6550 C   0  0  0  0  0  0  0  0  0  0  0  0
    4.5450   69.8330   66.6420 C   0  0  0  0  0  0  0  0  0  0  0  0
    5.8340   70.3120   66.9010 C   0  0  0  0  0  0  0  0  0  0  0  0
    7.8090   70.9720   69.8930 C   0  0  0  0  0  0  0  0  0  0  0  0
    7.3880   71.2510   68.5630 O   0  0  0  0  0  0  0  0  0  0  0  0
   -0.0270   67.6460   66.5810 O   0  0  0  0  0  0  0  0  0  0  0  0
   -1.3880   67.7710   66.6110 C   0  0  0  0  0  0  0  0  0  0  0  0
   -2.1460   66.8660   66.9190 O   0  0  0  0  0  0  0  0  0  0  0  0
   -1.7990   69.1650   66.2500 C   0  0  0  0  0  0  0  0  0  0  0  0
    2.2461   69.7636   65.3473 H   0  0  0  0  0  0  0  0  0  0  0  0
    3.7350   67.9575   65.0928 H   0  0  0  0  0  0  0  0  0  0  0  0
    3.2564   67.2487   66.5247 H   0  0  0  0  0  0  0  0  0  0  0  0
    2.7019   66.2361   64.0329 H   0  0  0  0  0  0  0  0  0  0  0  0
    1.7997   65.7935   65.4772 H   0  0  0  0  0  0  0  0  0  0  0  0
    0.0656   66.8373   64.0076 H   0  0  0  0  0  0  0  0  0  0  0  0
   -0.0976   69.1858   65.2595 H   0  0  0  0  0  0  0  0  0  0  0  0
    1.7904   69.0436   63.5150 H   0  0  0  0  0  0  0  0  0  0  0  0
    1.4735   70.1316   67.5689 H   0  0  0  0  0  0  0  0  0  0  0  0
    1.9837   68.4478   68.0227 H   0  0  0  0  0  0  0  0  0  0  0  0
    5.4764   71.0644   70.2001 H   0  0  0  0  0  0  0  0  0  0  0  0
    3.1864   70.2052   69.7488 H   0  0  0  0  0  0  0  0  0  0  0  0
    4.2885   69.4807   65.6320 H   0  0  0  0  0  0  0  0  0  0  0  0
    6.5817   70.3364   66.0946 H   0  0  0  0  0  0  0  0  0  0  0  0
    7.1093   71.4357   70.6040 H   0  0  0  0  0  0  0  0  0  0  0  0
    7.8254   69.8836   70.0517 H   0  0  0  0  0  0  0  0  0  0  0  0
    8.8177   71.3810   70.0517 H   0  0  0  0  0  0  0  0  0  0  0  0
   -1.9703   69.7461   67.1681 H   0  0  0  0  0  0  0  0  0  0  0  0
   -1.0028   69.6404   65.6584 H   0  0  0  0  0  0  0  0  0  0  0  0
   -2.7258   69.1324   65.6584 H   0  0  0  0  0  0  0  0  0  0  0  0
  2  1  1  0
  3  2  1  0
  4  3  1  0
  5  4  1  0
  5  1  1  0
  6  4  1  0
  7  1  1  0
  9  8  2  0
 10  9  1  0
 11  7  1  0
 11 10  2  0
 12 11  1  0
 13 12  2  0
 13  8  1  0
 15 14  1  0
 15  8  1  0
 16  5  1  0
 17 16  1  0
 18 17  2  0
 19 17  1  0
  1 20  1  6
  2 21  1  0
  2 22  1  0
  3 23  1  0
  3 24  1  0
  4 25  1  6
  5 26  1  6
  6 27  1  0
  7 28  1  0
  7 29  1  0
  9 30  1  0
 10 31  1  0
 12 32  1  0
 13 33  1  0
 14 34  1  0
 14 35  1  0
 14 36  1  0
 19 37  1  0
 19 38  1  0
 19 39  1  0
M  CHG  1   2   1
M  END
>  <score>  (6) 
-7.296

$$$$
=
     RDKit          3D

 39 40  0  0  0  0  0  0  0  0999 V2000
    0.9040   66.7030   68.3430 C   0  0  1  0  0  0  0  0  0  0  0  0
   -0.6080   66.8010   68.1710 N   0  0  0  0  0  4  0  0  0  0  0  0
   -0.8730   67.7590   67.0360 C   0  0  0  0  0  0  0  0  0  0  0  0
    0.4650   67.8530   66.3020 C   0  0  1  0  0  0  0  0  0  0  0  0
    1.4680   67.8350   67.4560 C   0  0  1  0  0  0  0  0  0  0  0  0
    0.6330   66.6920   65.4880 O   0  0  0  0  0  0  0  0  0  0  0  0
    1.2620   66.7570   69.8320 C   0  0  0  0  0  0  0  0  0  0  0  0
    1.4160   62.8000   71.5660 C   0  0  0  0  0  0  0  0  0  0  0  0
    2.5030   63.3060   70.8510 C   0  0  0  0  0  0  0  0  0  0  0  0
    2.4630   64.5890   70.3020 C   0  0  0  0  0  0  0  0  0  0  0  0
    1.3220   65.3860   70.4530 C   0  0  0  0  0  0  0  0  0  0  0  0
    0.2350   64.8780   71.1770 C   0  0  0  0  0  0  0  0  0  0  0  0
    0.2820   63.5920   71.7280 C   0  0  0  0  0  0  0  0  0  0  0  0
    2.6260   60.7530   71.4560 C   0  0  0  0  0  0  0  0  0  0  0  0
    1.5920   61.5330   72.0450 O   0  0  0  0  0  0  0  0  0  0  0  0
    1.4660   69.0900   68.1640 O   0  0  0  0  0  0  0  0  0  0  0  0
    2.7030   69.6600   68.2800 C   0  0  0  0  0  0  0  0  0  0  0  0
    3.1140   70.1900   69.2990 O   0  0  0  0  0  0  0  0  0  0  0  0
    3.4770   69.5090   67.0060 C   0  0  0  0  0  0  0  0  0  0  0  0
    1.3525   65.7527   68.0179 H   0  0  0  0  0  0  0  0  0  0  0  0
   -0.9975   65.8741   67.9473 H   0  0  0  0  0  0  0  0  0  0  0  0
   -1.0514   67.1345   69.0388 H   0  0  0  0  0  0  0  0  0  0  0  0
   -1.6562   67.3675   66.3702 H   0  0  0  0  0  0  0  0  0  0  0  0
   -1.2300   68.7385   67.3870 H   0  0  0  0  0  0  0  0  0  0  0  0
    0.5653   68.7294   65.6448 H   0  0  0  0  0  0  0  0  0  0  0  0
    2.5102   67.6822   67.1391 H   0  0  0  0  0  0  0  0  0  0  0  0
    0.7480   65.8970   66.0667 H   0  0  0  0  0  0  0  0  0  0  0  0
    2.2444   67.2394   69.9429 H   0  0  0  0  0  0  0  0  0  0  0  0
    0.4754   67.3272   70.3479 H   0  0  0  0  0  0  0  0  0  0  0  0
    3.4021   62.6862   70.7185 H   0  0  0  0  0  0  0  0  0  0  0  0
    3.3316   64.9753   69.7485 H   0  0  0  0  0  0  0  0  0  0  0  0
   -0.6645   65.4962   71.3138 H   0  0  0  0  0  0  0  0  0  0  0  0
   -0.5802   63.2055   72.2912 H   0  0  0  0  0  0  0  0  0  0  0  0
    3.2352   60.2935   72.2483 H   0  0  0  0  0  0  0  0  0  0  0  0
    2.1802   59.9642   70.8322 H   0  0  0  0  0  0  0  0  0  0  0  0
    3.2620   61.3983   70.8322 H   0  0  0  0  0  0  0  0  0  0  0  0
    4.5319   69.3032   67.2401 H   0  0  0  0  0  0  0  0  0  0  0  0
    3.0617   68.6749   66.4213 H   0  0  0  0  0  0  0  0  0  0  0  0
    3.4056   70.4380   66.4213 H   0  0  0  0  0  0  0  0  0  0  0  0
  2  1  1  0
  3  2  1  0
  4  3  1  0
  5  4  1  0
  5  1  1  0
  6  4  1  0
  7  1  1  0
  9  8  2  0
 10  9  1  0
 11  7  1  0
 11 10  2  0
 12 11  1  0
 13 12  2  0
 13  8  1  0
 15 14  1  0
 15  8  1  0
 16  5  1  0
 17 16  1  0
 18 17  2  0
 19 17  1  0
  1 20  1  6
  2 21  1  0
  2 22  1  0
  3 23  1  0
  3 24  1  0
  4 25  1  6
  5 26  1  6
  6 27  1  0
  7 28  1  0
  7 29  1  0
  9 30  1  0
 10 31  1  0
 12 32  1  0
 13 33  1  0
 14 34  1  0
 14 35  1  0
 14 36  1  0
 19 37  1  0
 19 38  1  0
 19 39  1  0
M  CHG  1   2   1
M  END
>  <score>  (7) 
-7.19

$$$$
=
     RDKit          3D

 39 40  0  0  0  0  0  0  0  0999 V2000
    2.9690   61.9280   72.5990 C   0  0  1  0  0  0  0  0  0  0  0  0
    3.0970   61.3070   73.9870 N   0  0  0  0  0  4  0  0  0  0  0  0
    4.0590   60.1490   73.8770 C   0  0  0  0  0  0  0  0  0  0  0  0
    4.7920   60.3920   72.5570 C   0  0  1  0  0  0  0  0  0  0  0  0
    3.6730   60.9230   71.6600 C   0  0  1  0  0  0  0  0  0  0  0  0
    5.7840   61.4000   72.7530 O   0  0  0  0  0  0  0  0  0  0  0  0
    1.4980   62.2310   72.2990 C   0  0  0  0  0  0  0  0  0  0  0  0
    1.0290   66.0030   70.2390 C   0  0  0  0  0  0  0  0  0  0  0  0
    2.1190   65.1740   69.9670 C   0  0  0  0  0  0  0  0  0  0  0  0
    2.2660   63.9490   70.6200 C   0  0  0  0  0  0  0  0  0  0  0  0
    1.3230   63.5360   71.5680 C   0  0  0  0  0  0  0  0  0  0  0  0
    0.2260   64.3670   71.8340 C   0  0  0  0  0  0  0  0  0  0  0  0
    0.0810   65.5930   71.1740 C   0  0  0  0  0  0  0  0  0  0  0  0
    0.1560   67.2290   68.3950 C   0  0  0  0  0  0  0  0  0  0  0  0
    1.0110   67.1700   69.5310 O   0  0  0  0  0  0  0  0  0  0  0  0
    2.7720   59.8670   71.2720 O   0  0  0  0  0  0  0  0  0  0  0  0
    3.3520   58.9080   70.4900 C   0  0  0  0  0  0  0  0  0  0  0  0
    3.9660   59.1470   69.4640 O   0  0  0  0  0  0  0  0  0  0  0  0
    3.1550   57.5480   71.0870 C   0  0  0  0  0  0  0  0  0  0  0  0
    3.4499   62.9099   72.4779 H   0  0  0  0  0  0  0  0  0  0  0  0
    3.4602   62.0043   74.6524 H   0  0  0  0  0  0  0  0  0  0  0  0
    2.1794   60.9862   74.3277 H   0  0  0  0  0  0  0  0  0  0  0  0
    4.7651   60.1473   74.7204 H   0  0  0  0  0  0  0  0  0  0  0  0
    3.5490   59.1747   73.9018 H   0  0  0  0  0  0  0  0  0  0  0  0
    5.3024   59.5077   72.1478 H   0  0  0  0  0  0  0  0  0  0  0  0
    4.0292   61.3612   70.7160 H   0  0  0  0  0  0  0  0  0  0  0  0
    5.9234   61.5417   73.7228 H   0  0  0  0  0  0  0  0  0  0  0  0
    1.0887   61.4200   71.6787 H   0  0  0  0  0  0  0  0  0  0  0  0
    0.9668   62.3082   73.2591 H   0  0  0  0  0  0  0  0  0  0  0  0
    2.8711   65.4900   69.2291 H   0  0  0  0  0  0  0  0  0  0  0  0
    3.1273   63.3052   70.3883 H   0  0  0  0  0  0  0  0  0  0  0  0
   -0.5292   64.0524   72.5693 H   0  0  0  0  0  0  0  0  0  0  0  0
   -0.7846   66.2350   71.3944 H   0  0  0  0  0  0  0  0  0  0  0  0
   -0.8902   67.3012   68.7269 H   0  0  0  0  0  0  0  0  0  0  0  0
    0.4105   68.1117   67.7900 H   0  0  0  0  0  0  0  0  0  0  0  0
    0.2868   66.3197   67.7900 H   0  0  0  0  0  0  0  0  0  0  0  0
    3.1660   57.6241   72.1843 H   0  0  0  0  0  0  0  0  0  0  0  0
    2.1883   57.1394   70.7575 H   0  0  0  0  0  0  0  0  0  0  0  0
    3.9660   56.8819   70.7575 H   0  0  0  0  0  0  0  0  0  0  0  0
  2  1  1  0
  3  2  1  0
  4  3  1  0
  5  4  1  0
  5  1  1  0
  6  4  1  0
  7  1  1  0
  9  8  2  0
 10  9  1  0
 11  7  1  0
 11 10  2  0
 12 11  1  0
 13 12  2  0
 13  8  1  0
 15 14  1  0
 15  8  1  0
 16  5  1  0
 17 16  1  0
 18 17  2  0
 19 17  1  0
  1 20  1  1
  2 21  1  0
  2 22  1  0
  3 23  1  0
  3 24  1  0
  4 25  1  6
  5 26  1  6
  6 27  1  0
  7 28  1  0
  7 29  1  0
  9 30  1  0
 10 31  1  0
 12 32  1  0
 13 33  1  0
 14 34  1  0
 14 35  1  0
 14 36  1  0
 19 37  1  0
 19 38  1  0
 19 39  1  0
M  CHG  1   2   1
M  END
>  <score>  (8) 
-6.948

$$$$
=
     RDKit          3D

 39 40  0  0  0  0  0  0  0  0999 V2000
    2.2510   67.8960   65.2590 C   0  0  1  0  0  0  0  0  0  0  0  0
    2.5100   66.3950   65.3350 N   0  0  0  0  0  4  0  0  0  0  0  0
    3.2460   65.9990   64.0780 C   0  0  0  0  0  0  0  0  0  0  0  0
    3.7760   67.3200   63.5200 C   0  0  1  0  0  0  0  0  0  0  0  0
    2.6200   68.2790   63.8090 C   0  0  1  0  0  0  0  0  0  0  0  0
    4.9340   67.7080   64.2610 O   0  0  0  0  0  0  0  0  0  0  0  0
    0.8160   68.1990   65.7030 C   0  0  0  0  0  0  0  0  0  0  0  0
   -0.0300   66.5550   69.6110 C   0  0  0  0  0  0  0  0  0  0  0  0
    1.2170   67.1180   69.3300 C   0  0  0  0  0  0  0  0  0  0  0  0
    1.4890   67.6620   68.0740 C   0  0  0  0  0  0  0  0  0  0  0  0
    0.5140   67.6440   67.0700 C   0  0  0  0  0  0  0  0  0  0  0  0
   -0.7390   67.0860   67.3570 C   0  0  0  0  0  0  0  0  0  0  0  0
   -1.0080   66.5440   68.6190 C   0  0  0  0  0  0  0  0  0  0  0  0
    0.4690   64.8120   71.1520 C   0  0  0  0  0  0  0  0  0  0  0  0
   -0.1580   66.0590   70.8770 O   0  0  0  0  0  0  0  0  0  0  0  0
    1.5140   68.0420   62.9180 O   0  0  0  0  0  0  0  0  0  0  0  0
    1.3260   69.0320   61.9950 C   0  0  0  0  0  0  0  0  0  0  0  0
    2.1020   69.2670   61.0830 O   0  0  0  0  0  0  0  0  0  0  0  0
    0.0330   69.7470   62.2420 C   0  0  0  0  0  0  0  0  0  0  0  0
    2.8537   68.5110   65.9434 H   0  0  0  0  0  0  0  0  0  0  0  0
    3.0843   66.1784   66.1621 H   0  0  0  0  0  0  0  0  0  0  0  0
    1.6235   65.8769   65.4155 H   0  0  0  0  0  0  0  0  0  0  0  0
    4.0744   65.3137   64.3107 H   0  0  0  0  0  0  0  0  0  0  0  0
    2.6009   65.4685   63.3622 H   0  0  0  0  0  0  0  0  0  0  0  0
    4.0646   67.2858   62.4591 H   0  0  0  0  0  0  0  0  0  0  0  0
    2.8765   69.3403   63.6752 H   0  0  0  0  0  0  0  0  0  0  0  0
    4.7424   67.6438   65.2302 H   0  0  0  0  0  0  0  0  0  0  0  0
    0.6747   69.2897   65.7244 H   0  0  0  0  0  0  0  0  0  0  0  0
    0.1327   67.7206   64.9859 H   0  0  0  0  0  0  0  0  0  0  0  0
    1.9942   67.1328   70.1083 H   0  0  0  0  0  0  0  0  0  0  0  0
    2.4744   68.1071   67.8721 H   0  0  0  0  0  0  0  0  0  0  0  0
   -1.5196   67.0738   66.5820 H   0  0  0  0  0  0  0  0  0  0  0  0
   -1.9957   66.1075   68.8284 H   0  0  0  0  0  0  0  0  0  0  0  0
    0.5405   64.6697   72.2404 H   0  0  0  0  0  0  0  0  0  0  0  0
   -0.1268   63.9976   70.7141 H   0  0  0  0  0  0  0  0  0  0  0  0
    1.4781   64.8045   70.7141 H   0  0  0  0  0  0  0  0  0  0  0  0
   -0.1338   69.8393   63.3254 H   0  0  0  0  0  0  0  0  0  0  0  0
    0.0763   70.7494   61.7910 H   0  0  0  0  0  0  0  0  0  0  0  0
   -0.7929   69.1774   61.7910 H   0  0  0  0  0  0  0  0  0  0  0  0
  2  1  1  0
  3  2  1  0
  4  3  1  0
  5  4  1  0
  5  1  1  0
  6  4  1  0
  7  1  1  0
  9  8  2  0
 10  9  1  0
 11  7  1  0
 11 10  2  0
 12 11  1  0
 13 12  2  0
 13  8  1  0
 15 14  1  0
 15  8  1  0
 16  5  1  0
 17 16  1  0
 18 17  2  0
 19 17  1  0
  1 20  1  1
  2 21  1  0
  2 22  1  0
  3 23  1  0
  3 24  1  0
  4 25  1  6
  5 26  1  1
  6 27  1  0
  7 28  1  0
  7 29  1  0
  9 30  1  0
 10 31  1  0
 12 32  1  0
 13 33  1  0
 14 34  1  0
 14 35  1  0
 14 36  1  0
 19 37  1  0
 19 38  1  0
 19 39  1  0
M  CHG  1   2   1
M  END
>  <score>  (9) 
-6.773

$$$$
