=
     RDKit          3D

 74 77  0  0  0  0  0  0  0  0999 V2000
   -0.1030   68.1230   67.8030 C   0  0  0  0  0  0  0  0  0  0  0  0
   -1.0280   67.1120   67.9700 C   0  0  0  0  0  0  0  0  0  0  0  0
   -2.4150   67.1930   67.4020 C   0  0  0  0  0  0  0  0  0  0  0  0
   -0.7380   65.9860   68.6640 N   0  0  0  0  0  0  0  0  0  0  0  0
    0.4820   65.8530   69.2100 C   0  0  0  0  0  0  0  0  0  0  0  0
    1.4300   66.7900   69.0680 N   0  0  0  0  0  0  0  0  0  0  0  0
    1.1430   67.9110   68.3620 C   0  0  0  0  0  0  0  0  0  0  0  0
    0.7840   64.6840   69.9110 N   0  0  0  0  0  0  0  0  0  0  0  0
   -0.3990   64.0230   70.4860 C   0  0  0  0  0  0  0  0  0  0  0  0
   -0.0260   62.6920   71.1690 C   0  0  0  0  0  0  0  0  0  0  0  0
    1.1260   62.8160   72.1230 N   0  0  0  0  0  0  0  0  0  0  0  0
    2.2940   63.4540   71.4340 C   0  0  0  0  0  0  0  0  0  0  0  0
    1.9340   64.8170   70.8200 C   0  0  0  0  0  0  0  0  0  0  0  0
    2.2780   68.8440   68.2420 C   0  0  0  0  0  0  0  0  0  0  0  0
    2.6300   69.7120   69.2860 C   0  0  0  0  0  0  0  0  0  0  0  0
    3.7200   70.5800   69.1640 C   0  0  0  0  0  0  0  0  0  0  0  0
    4.4770   70.6050   67.9900 C   0  0  0  0  0  0  0  0  0  0  0  0
    4.1300   69.7540   66.9240 C   0  0  0  0  0  0  0  0  0  0  0  0
    3.0370   68.8880   67.0580 C   0  0  0  0  0  0  0  0  0  0  0  0
    4.9180   69.8390   65.8030 O   0  0  0  0  0  0  0  0  0  0  0  0
    4.3930   69.3250   64.5870 C   0  0  0  0  0  0  0  0  0  0  0  0
    5.5630   71.4190   67.7860 O   0  0  0  0  0  0  0  0  0  0  0  0
    6.7410   71.1480   68.5320 C   0  0  0  0  0  0  0  0  0  0  0  0
    0.7870   63.4360   73.6700 S   0  0  0  0  0  6  0  0  0  0  0  0
    0.0040   64.6410   73.5150 O   0  0  0  0  0  0  0  0  0  0  0  0
    2.0120   63.4320   74.4380 O   0  0  0  0  0  0  0  0  0  0  0  0
   -0.2560   62.1760   74.3600 C   0  0  0  0  0  0  0  0  0  0  0  0
   -1.2500   62.5070   75.2810 C   0  0  0  0  0  0  0  0  0  0  0  0
   -2.0620   61.5020   75.8160 C   0  0  0  0  0  0  0  0  0  0  0  0
   -1.8830   60.1640   75.4430 C   0  0  0  0  0  0  0  0  0  0  0  0
   -0.8630   59.8540   74.5190 C   0  0  0  0  0  0  0  0  0  0  0  0
   -0.0490   60.8500   73.9780 C   0  0  0  0  0  0  0  0  0  0  0  0
   -0.5860   58.2190   74.0160 Cl  0  0  0  0  0  0  0  0  0  0  0  0
   -2.6720   59.1040   75.9510 N   0  0  0  0  0  0  0  0  0  0  0  0
   -3.9490   58.7390   75.5750 C   0  0  0  0  0  0  0  0  0  0  0  0
   -4.6450   59.2790   74.7230 O   0  0  0  0  0  0  0  0  0  0  0  0
   -4.4660   57.5620   76.3650 C   0  0  0  0  0  0  0  0  0  0  0  0
   -0.4440   69.3480   67.0790 C   0  0  0  0  0  0  0  0  0  0  0  0
   -0.4080   70.4610   67.5710 O   0  0  0  0  0  0  0  0  0  0  0  0
   -0.7530   69.0230   65.8030 O   0  0  0  0  0  0  0  0  0  0  0  0
    0.0580   69.0120   63.5590 C   0  0  0  0  0  0  0  0  0  0  0  0
    0.3710   68.6520   64.9980 C   0  0  0  0  0  0  0  0  0  0  0  0
   -3.1456   67.2357   68.2232 H   0  0  0  0  0  0  0  0  0  0  0  0
   -2.5056   68.0980   66.7833 H   0  0  0  0  0  0  0  0  0  0  0  0
   -2.6103   66.3047   66.7833 H   0  0  0  0  0  0  0  0  0  0  0  0
   -0.8553   64.6915   71.2309 H   0  0  0  0  0  0  0  0  0  0  0  0
   -1.1043   63.8066   69.6701 H   0  0  0  0  0  0  0  0  0  0  0  0
   -0.9022   62.3276   71.7253 H   0  0  0  0  0  0  0  0  0  0  0  0
    0.2815   61.9943   70.3762 H   0  0  0  0  0  0  0  0  0  0  0  0
    3.1018   63.5980   72.1666 H   0  0  0  0  0  0  0  0  0  0  0  0
    2.6081   62.7883   70.6166 H   0  0  0  0  0  0  0  0  0  0  0  0
    2.7980   65.2004   70.2574 H   0  0  0  0  0  0  0  0  0  0  0  0
    1.6698   65.5137   71.6292 H   0  0  0  0  0  0  0  0  0  0  0  0
    2.0401   69.7101   70.2145 H   0  0  0  0  0  0  0  0  0  0  0  0
    3.9830   71.2474   69.9979 H   0  0  0  0  0  0  0  0  0  0  0  0
    2.7665   68.2286   66.2201 H   0  0  0  0  0  0  0  0  0  0  0  0
    3.6232   68.5714   64.8095 H   0  0  0  0  0  0  0  0  0  0  0  0
    3.9463   70.1446   64.0050 H   0  0  0  0  0  0  0  0  0  0  0  0
    5.2030   68.8611   64.0050 H   0  0  0  0  0  0  0  0  0  0  0  0
    6.5143   71.2002   69.6071 H   0  0  0  0  0  0  0  0  0  0  0  0
    7.1091   70.1417   68.2833 H   0  0  0  0  0  0  0  0  0  0  0  0
    7.5118   71.8923   68.2833 H   0  0  0  0  0  0  0  0  0  0  0  0
   -1.3945   63.5542   75.5852 H   0  0  0  0  0  0  0  0  0  0  0  0
   -2.8496   61.7651   76.5374 H   0  0  0  0  0  0  0  0  0  0  0  0
    0.7445   60.5935   73.2607 H   0  0  0  0  0  0  0  0  0  0  0  0
   -2.2398   58.5349   76.6928 H   0  0  0  0  0  0  0  0  0  0  0  0
   -4.3733   57.7731   77.4406 H   0  0  0  0  0  0  0  0  0  0  0  0
   -5.5231   57.3886   76.1152 H   0  0  0  0  0  0  0  0  0  0  0  0
   -3.8785   56.6662   76.1152 H   0  0  0  0  0  0  0  0  0  0  0  0
   -0.6636   69.8420   63.5373 H   0  0  0  0  0  0  0  0  0  0  0  0
    0.9830   69.3169   63.0478 H   0  0  0  0  0  0  0  0  0  0  0  0
   -0.3725   68.1383   63.0478 H   0  0  0  0  0  0  0  0  0  0  0  0
    0.5486   67.5697   65.0815 H   0  0  0  0  0  0  0  0  0  0  0  0
    1.2738   69.1819   65.3360 H   0  0  0  0  0  0  0  0  0  0  0  0
  2  1  2  0
  3  2  1  0
  4  2  1  0
  5  4  2  0
  6  5  1  0
  7  6  2  0
  7  1  1  0
  8  5  1  0
  9  8  1  0
 10  9  1  0
 11 10  1  0
 12 11  1  0
 13  8  1  0
 13 12  1  0
 14  7  1  0
 15 14  2  0
 16 15  1  0
 17 16  2  0
 18 17  1  0
 19 18  2  0
 19 14  1  0
 20 18  1  0
 21 20  1  0
 22 17  1  0
 23 22  1  0
 24 11  1  0
 25 24  2  0
 26 24  2  0
 27 24  1  0
 28 27  2  0
 29 28  1  0
 30 29  2  0
 31 30  1  0
 32 31  2  0
 32 27  1  0
 33 31  1  0
 34 30  1  0
 35 34  1  0
 36 35  2  0
 37 35  1  0
 38  1  1  0
 39 38  2  0
 40 38  1  0
 42 41  1  0
 42 40  1  0
  3 43  1  0
  3 44  1  0
  3 45  1  0
  9 46  1  0
  9 47  1  0
 10 48  1  0
 10 49  1  0
 12 50  1  0
 12 51  1  0
 13 52  1  0
 13 53  1  0
 15 54  1  0
 16 55  1  0
 19 56  1  0
 21 57  1  0
 21 58  1  0
 21 59  1  0
 23 60  1  0
 23 61  1  0
 23 62  1  0
 28 63  1  0
 29 64  1  0
 32 65  1  0
 34 66  1  0
 37 67  1  0
 37 68  1  0
 37 69  1  0
 41 70  1  0
 41 71  1  0
 41 72  1  0
 42 73  1  0
 42 74  1  0
M  END
>  <score>  (1) 
-9.056

$$$$
=
     RDKit          3D

 74 77  0  0  0  0  0  0  0  0999 V2000
    1.1400   60.2750   73.9790 C   0  0  0  0  0  0  0  0  0  0  0  0
    0.7340   59.4410   75.0020 C   0  0  0  0  0  0  0  0  0  0  0  0
    1.5800   58.3030   75.4920 C   0  0  0  0  0  0  0  0  0  0  0  0
   -0.4600   59.6000   75.6200 N   0  0  0  0  0  0  0  0  0  0  0  0
   -1.2730   60.5920   75.2240 C   0  0  0  0  0  0  0  0  0  0  0  0
   -0.9290   61.4470   74.2490 N   0  0  0  0  0  0  0  0  0  0  0  0
    0.2730   61.2960   73.6400 C   0  0  0  0  0  0  0  0  0  0  0  0
   -2.4970   60.7640   75.8740 N   0  0  0  0  0  0  0  0  0  0  0  0
   -3.0200   59.5260   76.4750 C   0  0  0  0  0  0  0  0  0  0  0  0
   -4.3220   59.7860   77.2590 C   0  0  0  0  0  0  0  0  0  0  0  0
   -5.3410   60.5620   76.4770 N   0  0  0  0  0  0  0  0  0  0  0  0
   -4.7290   61.8240   75.9490 C   0  0  0  0  0  0  0  0  0  0  0  0
   -3.4730   61.5530   75.1050 C   0  0  0  0  0  0  0  0  0  0  0  0
    0.5520   62.3200   72.6170 C   0  0  0  0  0  0  0  0  0  0  0  0
    0.1820   63.6600   72.7980 C   0  0  0  0  0  0  0  0  0  0  0  0
    0.4690   64.6240   71.8250 C   0  0  0  0  0  0  0  0  0  0  0  0
    1.1250   64.2650   70.6450 C   0  0  0  0  0  0  0  0  0  0  0  0
    1.4880   62.9220   70.4360 C   0  0  0  0  0  0  0  0  0  0  0  0
    1.1970   61.9650   71.4180 C   0  0  0  0  0  0  0  0  0  0  0  0
    2.1260   62.6460   69.2520 O   0  0  0  0  0  0  0  0  0  0  0  0
    3.5460   62.6690   69.2460 C   0  0  0  0  0  0  0  0  0  0  0  0
    1.4500   65.1430   69.6410 O   0  0  0  0  0  0  0  0  0  0  0  0
    1.1590   66.5180   69.8470 C   0  0  0  0  0  0  0  0  0  0  0  0
   -6.2740   59.6970   75.3480 S   0  0  0  0  0  6  0  0  0  0  0  0
   -7.1770   58.8310   76.0720 O   0  0  0  0  0  0  0  0  0  0  0  0
   -5.3860   59.1730   74.3340 O   0  0  0  0  0  0  0  0  0  0  0  0
   -7.2250   60.9830   74.5810 C   0  0  0  0  0  0  0  0  0  0  0  0
   -7.5060   60.9370   73.2160 C   0  0  0  0  0  0  0  0  0  0  0  0
   -8.2570   61.9600   72.6270 C   0  0  0  0  0  0  0  0  0  0  0  0
   -8.7250   63.0350   73.3930 C   0  0  0  0  0  0  0  0  0  0  0  0
   -8.4170   63.0640   74.7690 C   0  0  0  0  0  0  0  0  0  0  0  0
   -7.6710   62.0480   75.3660 C   0  0  0  0  0  0  0  0  0  0  0  0
   -8.9630   64.3660   75.7740 Cl  0  0  0  0  0  0  0  0  0  0  0  0
   -9.4870   64.0990   72.8530 N   0  0  0  0  0  0  0  0  0  0  0  0
   -9.0520   65.1430   72.0640 C   0  0  0  0  0  0  0  0  0  0  0  0
   -7.9040   65.3480   71.6860 O   0  0  0  0  0  0  0  0  0  0  0  0
  -10.1660   66.0940   71.7010 C   0  0  0  0  0  0  0  0  0  0  0  0
    2.4190   60.0690   73.2980 C   0  0  0  0  0  0  0  0  0  0  0  0
    3.4440   60.6610   73.5820 O   0  0  0  0  0  0  0  0  0  0  0  0
    2.2580   59.1060   72.3610 O   0  0  0  0  0  0  0  0  0  0  0  0
    3.4380   59.1750   70.2880 C   0  0  0  0  0  0  0  0  0  0  0  0
    3.4730   58.6920   71.7240 C   0  0  0  0  0  0  0  0  0  0  0  0
    1.5847   58.2967   76.5920 H   0  0  0  0  0  0  0  0  0  0  0  0
    1.1670   57.3531   75.1216 H   0  0  0  0  0  0  0  0  0  0  0  0
    2.6086   58.4248   75.1216 H   0  0  0  0  0  0  0  0  0  0  0  0
   -3.2232   58.7984   75.6754 H   0  0  0  0  0  0  0  0  0  0  0  0
   -2.2665   59.1368   77.1756 H   0  0  0  0  0  0  0  0  0  0  0  0
   -4.7606   58.8168   77.5387 H   0  0  0  0  0  0  0  0  0  0  0  0
   -4.0572   60.3906   78.1390 H   0  0  0  0  0  0  0  0  0  0  0  0
   -5.4707   62.3424   75.3236 H   0  0  0  0  0  0  0  0  0  0  0  0
   -4.4301   62.4397   76.8102 H   0  0  0  0  0  0  0  0  0  0  0  0
   -3.0169   62.5114   74.8162 H   0  0  0  0  0  0  0  0  0  0  0  0
   -3.7621   60.9858   74.2080 H   0  0  0  0  0  0  0  0  0  0  0  0
   -0.3416   63.9581   73.7183 H   0  0  0  0  0  0  0  0  0  0  0  0
    0.1761   65.6713   71.9904 H   0  0  0  0  0  0  0  0  0  0  0  0
    1.4786   60.9154   71.2478 H   0  0  0  0  0  0  0  0  0  0  0  0
    3.9170   62.6750   70.2815 H   0  0  0  0  0  0  0  0  0  0  0  0
    3.9250   61.7769   68.7259 H   0  0  0  0  0  0  0  0  0  0  0  0
    3.8959   63.5729   68.7259 H   0  0  0  0  0  0  0  0  0  0  0  0
    1.1150   66.7258   70.9263 H   0  0  0  0  0  0  0  0  0  0  0  0
    1.9470   67.1325   69.3871 H   0  0  0  0  0  0  0  0  0  0  0  0
    0.1896   66.7605   69.3871 H   0  0  0  0  0  0  0  0  0  0  0  0
   -7.1386   60.0996   72.6046 H   0  0  0  0  0  0  0  0  0  0  0  0
   -8.4822   61.9195   71.5511 H   0  0  0  0  0  0  0  0  0  0  0  0
   -7.4373   62.0852   76.4402 H   0  0  0  0  0  0  0  0  0  0  0  0
  -10.4922   64.0925   73.0776 H   0  0  0  0  0  0  0  0  0  0  0  0
  -10.6264   66.4871   72.6194 H   0  0  0  0  0  0  0  0  0  0  0  0
   -9.7587   66.9272   71.1095 H   0  0  0  0  0  0  0  0  0  0  0  0
  -10.9250   65.5610   71.1095 H   0  0  0  0  0  0  0  0  0  0  0  0
    3.3585   60.2720   70.2720 H   0  0  0  0  0  0  0  0  0  0  0  0
    4.3608   58.8667   69.7749 H   0  0  0  0  0  0  0  0  0  0  0  0
    2.5692   58.7369   69.7749 H   0  0  0  0  0  0  0  0  0  0  0  0
    3.5513   57.5950   71.7469 H   0  0  0  0  0  0  0  0  0  0  0  0
    4.3424   59.1155   72.2482 H   0  0  0  0  0  0  0  0  0  0  0  0
  2  1  2  0
  3  2  1  0
  4  2  1  0
  5  4  2  0
  6  5  1  0
  7  6  2  0
  7  1  1  0
  8  5  1  0
  9  8  1  0
 10  9  1  0
 11 10  1  0
 12 11  1  0
 13  8  1  0
 13 12  1  0
 14  7  1  0
 15 14  2  0
 16 15  1  0
 17 16  2  0
 18 17  1  0
 19 18  2  0
 19 14  1  0
 20 18  1  0
 21 20  1  0
 22 17  1  0
 23 22  1  0
 24 11  1  0
 25 24  2  0
 26 24  2  0
 27 24  1  0
 28 27  2  0
 29 28  1  0
 30 29  2  0
 31 30  1  0
 32 31  2  0
 32 27  1  0
 33 31  1  0
 34 30  1  0
 35 34  1  0
 36 35  2  0
 37 35  1  0
 38  1  1  0
 39 38  2  0
 40 38  1  0
 42 41  1  0
 42 40  1  0
  3 43  1  0
  3 44  1  0
  3 45  1  0
  9 46  1  0
  9 47  1  0
 10 48  1  0
 10 49  1  0
 12 50  1  0
 12 51  1  0
 13 52  1  0
 13 53  1  0
 15 54  1  0
 16 55  1  0
 19 56  1  0
 21 57  1  0
 21 58  1  0
 21 59  1  0
 23 60  1  0
 23 61  1  0
 23 62  1  0
 28 63  1  0
 29 64  1  0
 32 65  1  0
 34 66  1  0
 37 67  1  0
 37 68  1  0
 37 69  1  0
 41 70  1  0
 41 71  1  0
 41 72  1  0
 42 73  1  0
 42 74  1  0
M  END
>  <score>  (2) 
-8.256

$$$$
=
     RDKit          3D

 74 77  0  0  0  0  0  0  0  0999 V2000
   -5.8180   59.7380   76.4690 C   0  0  0  0  0  0  0  0  0  0  0  0
   -4.8220   58.8910   76.9080 C   0  0  0  0  0  0  0  0  0  0  0  0
   -4.9900   58.0080   78.1100 C   0  0  0  0  0  0  0  0  0  0  0  0
   -3.6250   58.8110   76.2790 N   0  0  0  0  0  0  0  0  0  0  0  0
   -3.4010   59.5820   75.2020 C   0  0  0  0  0  0  0  0  0  0  0  0
   -4.3350   60.4120   74.7160 N   0  0  0  0  0  0  0  0  0  0  0  0
   -5.5380   60.4810   75.3380 C   0  0  0  0  0  0  0  0  0  0  0  0
   -2.1720   59.4850   74.5460 N   0  0  0  0  0  0  0  0  0  0  0  0
   -1.0750   59.0350   75.4180 C   0  0  0  0  0  0  0  0  0  0  0  0
    0.2360   58.8550   74.6290 C   0  0  0  0  0  0  0  0  0  0  0  0
    0.5840   60.0410   73.7760 N   0  0  0  0  0  0  0  0  0  0  0  0
   -0.5740   60.3930   72.8920 C   0  0  0  0  0  0  0  0  0  0  0  0
   -1.8630   60.6440   73.6920 C   0  0  0  0  0  0  0  0  0  0  0  0
   -6.4920   61.3960   74.6840 C   0  0  0  0  0  0  0  0  0  0  0  0
   -7.2970   60.9780   73.6150 C   0  0  0  0  0  0  0  0  0  0  0  0
   -8.2100   61.8520   73.0160 C   0  0  0  0  0  0  0  0  0  0  0  0
   -8.3300   63.1690   73.4690 C   0  0  0  0  0  0  0  0  0  0  0  0
   -7.5180   63.6130   74.5290 C   0  0  0  0  0  0  0  0  0  0  0  0
   -6.6080   62.7280   75.1220 C   0  0  0  0  0  0  0  0  0  0  0  0
   -7.6910   64.9190   74.9150 O   0  0  0  0  0  0  0  0  0  0  0  0
   -6.5350   65.6530   75.2960 C   0  0  0  0  0  0  0  0  0  0  0  0
   -9.2000   64.0920   72.9450 O   0  0  0  0  0  0  0  0  0  0  0  0
   -8.8720   64.6700   71.6900 C   0  0  0  0  0  0  0  0  0  0  0  0
    1.3130   61.3660   74.5540 S   0  0  0  0  0  6  0  0  0  0  0  0
    2.6670   61.0000   74.9030 O   0  0  0  0  0  0  0  0  0  0  0  0
    0.3930   61.8690   75.5500 O   0  0  0  0  0  0  0  0  0  0  0  0
    1.3760   62.5760   73.2570 C   0  0  0  0  0  0  0  0  0  0  0  0
    0.3440   63.5020   73.1040 C   0  0  0  0  0  0  0  0  0  0  0  0
    0.4090   64.4490   72.0750 C   0  0  0  0  0  0  0  0  0  0  0  0
    1.4960   64.4710   71.1920 C   0  0  0  0  0  0  0  0  0  0  0  0
    2.5200   63.5160   71.3620 C   0  0  0  0  0  0  0  0  0  0  0  0
    2.4660   62.5700   72.3860 C   0  0  0  0  0  0  0  0  0  0  0  0
    3.8920   63.4870   70.3040 Cl  0  0  0  0  0  0  0  0  0  0  0  0
    1.6170   65.4030   70.1340 N   0  0  0  0  0  0  0  0  0  0  0  0
    0.6810   66.3180   69.6960 C   0  0  0  0  0  0  0  0  0  0  0  0
   -0.4450   66.4890   70.1470 O   0  0  0  0  0  0  0  0  0  0  0  0
    1.1750   67.1290   68.5220 C   0  0  0  0  0  0  0  0  0  0  0  0
   -7.0940   59.8380   77.1800 C   0  0  0  0  0  0  0  0  0  0  0  0
   -7.2900   60.5800   78.1250 O   0  0  0  0  0  0  0  0  0  0  0  0
   -7.9850   59.0130   76.5850 O   0  0  0  0  0  0  0  0  0  0  0  0
   -9.8570   60.4370   76.1830 C   0  0  0  0  0  0  0  0  0  0  0  0
   -9.3480   59.2420   76.9630 C   0  0  0  0  0  0  0  0  0  0  0  0
   -4.8758   58.6082   79.0247 H   0  0  0  0  0  0  0  0  0  0  0  0
   -5.9910   57.5522   78.0931 H   0  0  0  0  0  0  0  0  0  0  0  0
   -4.2263   57.2165   78.0931 H   0  0  0  0  0  0  0  0  0  0  0  0
   -0.9166   59.7835   76.2083 H   0  0  0  0  0  0  0  0  0  0  0  0
   -1.3542   58.0626   75.8498 H   0  0  0  0  0  0  0  0  0  0  0  0
    1.0542   58.6879   75.3450 H   0  0  0  0  0  0  0  0  0  0  0  0
    0.0946   57.9984   73.9536 H   0  0  0  0  0  0  0  0  0  0  0  0
   -0.3245   61.3039   72.3280 H   0  0  0  0  0  0  0  0  0  0  0  0
   -0.7554   59.5415   72.2196 H   0  0  0  0  0  0  0  0  0  0  0  0
   -2.6961   60.8117   72.9935 H   0  0  0  0  0  0  0  0  0  0  0  0
   -1.7201   61.5287   74.3298 H   0  0  0  0  0  0  0  0  0  0  0  0
   -7.2092   59.9470   73.2417 H   0  0  0  0  0  0  0  0  0  0  0  0
   -8.8374   61.5009   72.1834 H   0  0  0  0  0  0  0  0  0  0  0  0
   -5.9715   63.0816   75.9465 H   0  0  0  0  0  0  0  0  0  0  0  0
   -6.4715   65.6933   76.3934 H   0  0  0  0  0  0  0  0  0  0  0  0
   -5.6380   65.1586   74.8947 H   0  0  0  0  0  0  0  0  0  0  0  0
   -6.6009   66.6751   74.8947 H   0  0  0  0  0  0  0  0  0  0  0  0
   -8.3350   65.6164   71.8513 H   0  0  0  0  0  0  0  0  0  0  0  0
   -8.2323   63.9774   71.1233 H   0  0  0  0  0  0  0  0  0  0  0  0
   -9.7946   64.8640   71.1233 H   0  0  0  0  0  0  0  0  0  0  0  0
   -0.5168   63.4882   73.7887 H   0  0  0  0  0  0  0  0  0  0  0  0
   -0.4018   65.1832   71.9588 H   0  0  0  0  0  0  0  0  0  0  0  0
    3.2712   61.8300   72.5050 H   0  0  0  0  0  0  0  0  0  0  0  0
    2.5143   65.3979   69.6284 H   0  0  0  0  0  0  0  0  0  0  0  0
    1.7144   68.0146   68.8891 H   0  0  0  0  0  0  0  0  0  0  0  0
    1.8523   66.5144   67.9108 H   0  0  0  0  0  0  0  0  0  0  0  0
    0.3182   67.4488   67.9108 H   0  0  0  0  0  0  0  0  0  0  0  0
  -10.1894   61.2174   76.8833 H   0  0  0  0  0  0  0  0  0  0  0  0
   -9.0493   60.8326   75.5497 H   0  0  0  0  0  0  0  0  0  0  0  0
  -10.7019   60.1286   75.5497 H   0  0  0  0  0  0  0  0  0  0  0  0
   -9.4063   59.4484   78.0419 H   0  0  0  0  0  0  0  0  0  0  0  0
   -9.9593   58.3543   76.7432 H   0  0  0  0  0  0  0  0  0  0  0  0
  2  1  2  0
  3  2  1  0
  4  2  1  0
  5  4  2  0
  6  5  1  0
  7  6  2  0
  7  1  1  0
  8  5  1  0
  9  8  1  0
 10  9  1  0
 11 10  1  0
 12 11  1  0
 13  8  1  0
 13 12  1  0
 14  7  1  0
 15 14  2  0
 16 15  1  0
 17 16  2  0
 18 17  1  0
 19 18  2  0
 19 14  1  0
 20 18  1  0
 21 20  1  0
 22 17  1  0
 23 22  1  0
 24 11  1  0
 25 24  2  0
 26 24  2  0
 27 24  1  0
 28 27  2  0
 29 28  1  0
 30 29  2  0
 31 30  1  0
 32 31  2  0
 32 27  1  0
 33 31  1  0
 34 30  1  0
 35 34  1  0
 36 35  2  0
 37 35  1  0
 38  1  1  0
 39 38  2  0
 40 38  1  0
 42 41  1  0
 42 40  1  0
  3 43  1  0
  3 44  1  0
  3 45  1  0
  9 46  1  0
  9 47  1  0
 10 48  1  0
 10 49  1  0
 12 50  1  0
 12 51  1  0
 13 52  1  0
 13 53  1  0
 15 54  1  0
 16 55  1  0
 19 56  1  0
 21 57  1  0
 21 58  1  0
 21 59  1  0
 23 60  1  0
 23 61  1  0
 23 62  1  0
 28 63  1  0
 29 64  1  0
 32 65  1  0
 34 66  1  0
 37 67  1  0
 37 68  1  0
 37 69  1  0
 41 70  1  0
 41 71  1  0
 41 72  1  0
 42 73  1  0
 42 74  1  0
M  END
>  <score>  (3) 
-7.729

$$$$
=
     RDKit          3D

 74 77  0  0  0  0  0  0  0  0999 V2000
   -3.3880   58.2070   76.8150 C   0  0  0  0  0  0  0  0  0  0  0  0
   -2.2650   57.4400   77.0530 C   0  0  0  0  0  0  0  0  0  0  0  0
   -2.1670   56.5030   78.2210 C   0  0  0  0  0  0  0  0  0  0  0  0
   -1.1790   57.4950   76.2460 N   0  0  0  0  0  0  0  0  0  0  0  0
   -1.1940   58.3220   75.1880 C   0  0  0  0  0  0  0  0  0  0  0  0
   -2.2610   59.0780   74.8920 N   0  0  0  0  0  0  0  0  0  0  0  0
   -3.3530   59.0130   75.6920 C   0  0  0  0  0  0  0  0  0  0  0  0
   -0.0800   58.3630   74.3470 N   0  0  0  0  0  0  0  0  0  0  0  0
    1.1750   57.9860   75.0180 C   0  0  0  0  0  0  0  0  0  0  0  0
    2.3580   57.9580   74.0300 C   0  0  0  0  0  0  0  0  0  0  0  0
    2.4640   59.2000   73.1950 N   0  0  0  0  0  0  0  0  0  0  0  0
    1.1560   59.4740   72.5160 C   0  0  0  0  0  0  0  0  0  0  0  0
   -0.0090   59.5760   73.5150 C   0  0  0  0  0  0  0  0  0  0  0  0
   -4.4730   59.8570   75.2390 C   0  0  0  0  0  0  0  0  0  0  0  0
   -5.5020   59.3460   74.4370 C   0  0  0  0  0  0  0  0  0  0  0  0
   -6.5670   60.1550   74.0280 C   0  0  0  0  0  0  0  0  0  0  0  0
   -6.6200   61.4990   74.4060 C   0  0  0  0  0  0  0  0  0  0  0  0
   -5.5870   62.0370   75.1960 C   0  0  0  0  0  0  0  0  0  0  0  0
   -4.5260   61.2160   75.6010 C   0  0  0  0  0  0  0  0  0  0  0  0
   -5.7070   63.3650   75.5240 O   0  0  0  0  0  0  0  0  0  0  0  0
   -5.8050   63.6980   76.9020 C   0  0  0  0  0  0  0  0  0  0  0  0
   -7.6270   62.3640   74.0560 O   0  0  0  0  0  0  0  0  0  0  0  0
   -8.5500   61.9360   73.0650 C   0  0  0  0  0  0  0  0  0  0  0  0
    3.1880   60.5580   73.9170 S   0  0  0  0  0  6  0  0  0  0  0  0
    4.6230   60.4030   73.8420 O   0  0  0  0  0  0  0  0  0  0  0  0
    2.5270   60.8070   75.1790 O   0  0  0  0  0  0  0  0  0  0  0  0
    2.7090   61.8690   72.8200 C   0  0  0  0  0  0  0  0  0  0  0  0
    1.6950   62.7560   73.1800 C   0  0  0  0  0  0  0  0  0  0  0  0
    1.3280   63.7830   72.3030 C   0  0  0  0  0  0  0  0  0  0  0  0
    1.9640   63.9250   71.0640 C   0  0  0  0  0  0  0  0  0  0  0  0
    2.9780   63.0080   70.7190 C   0  0  0  0  0  0  0  0  0  0  0  0
    3.3530   61.9820   71.5870 C   0  0  0  0  0  0  0  0  0  0  0  0
    3.8050   63.1260   69.2000 Cl  0  0  0  0  0  0  0  0  0  0  0  0
    1.6370   64.9430   70.1360 N   0  0  0  0  0  0  0  0  0  0  0  0
    0.7070   65.9530   70.2740 C   0  0  0  0  0  0  0  0  0  0  0  0
   -0.0220   66.1520   71.2390 O   0  0  0  0  0  0  0  0  0  0  0  0
    0.6310   66.8370   69.0530 C   0  0  0  0  0  0  0  0  0  0  0  0
   -4.5400   58.1620   77.7160 C   0  0  0  0  0  0  0  0  0  0  0  0
   -4.7010   58.9230   78.6530 O   0  0  0  0  0  0  0  0  0  0  0  0
   -5.3740   57.1810   77.3020 O   0  0  0  0  0  0  0  0  0  0  0  0
   -7.6550   57.2880   76.6080 C   0  0  0  0  0  0  0  0  0  0  0  0
   -6.7140   57.2960   77.7960 C   0  0  0  0  0  0  0  0  0  0  0  0
   -2.2270   57.0769   79.1575 H   0  0  0  0  0  0  0  0  0  0  0  0
   -2.9943   55.7792   78.1808 H   0  0  0  0  0  0  0  0  0  0  0  0
   -1.2078   55.9660   78.1808 H   0  0  0  0  0  0  0  0  0  0  0  0
    1.3894   58.7169   75.8116 H   0  0  0  0  0  0  0  0  0  0  0  0
    1.0521   56.9767   75.4377 H   0  0  0  0  0  0  0  0  0  0  0  0
    3.2894   57.8426   74.6038 H   0  0  0  0  0  0  0  0  0  0  0  0
    2.1878   57.1167   73.3421 H   0  0  0  0  0  0  0  0  0  0  0  0
    1.2348   60.4234   71.9660 H   0  0  0  0  0  0  0  0  0  0  0  0
    0.9458   58.6337   71.8379 H   0  0  0  0  0  0  0  0  0  0  0  0
   -0.9523   59.6912   72.9611 H   0  0  0  0  0  0  0  0  0  0  0  0
    0.1555   60.4466   74.1670 H   0  0  0  0  0  0  0  0  0  0  0  0
   -5.4717   58.2919   74.1241 H   0  0  0  0  0  0  0  0  0  0  0  0
   -7.3679   59.7305   73.4048 H   0  0  0  0  0  0  0  0  0  0  0  0
   -3.7184   61.6423   76.2142 H   0  0  0  0  0  0  0  0  0  0  0  0
   -5.5464   62.8192   77.5109 H   0  0  0  0  0  0  0  0  0  0  0  0
   -5.1106   64.5199   77.1309 H   0  0  0  0  0  0  0  0  0  0  0  0
   -6.8339   64.0127   77.1309 H   0  0  0  0  0  0  0  0  0  0  0  0
   -9.4448   61.5211   73.5521 H   0  0  0  0  0  0  0  0  0  0  0  0
   -8.8379   62.7925   72.4377 H   0  0  0  0  0  0  0  0  0  0  0  0
   -8.0822   61.1629   72.4377 H   0  0  0  0  0  0  0  0  0  0  0  0
    1.1858   62.6489   74.1491 H   0  0  0  0  0  0  0  0  0  0  0  0
    0.5319   64.4857   72.5901 H   0  0  0  0  0  0  0  0  0  0  0  0
    4.1445   61.2726   71.3037 H   0  0  0  0  0  0  0  0  0  0  0  0
    2.1580   64.9278   69.2476 H   0  0  0  0  0  0  0  0  0  0  0  0
    0.5407   67.8876   69.3660 H   0  0  0  0  0  0  0  0  0  0  0  0
    1.5433   66.7107   68.4515 H   0  0  0  0  0  0  0  0  0  0  0  0
   -0.2464   66.5569   68.4515 H   0  0  0  0  0  0  0  0  0  0  0  0
   -8.6956   57.2792   76.9645 H   0  0  0  0  0  0  0  0  0  0  0  0
   -7.4838   58.1876   75.9986 H   0  0  0  0  0  0  0  0  0  0  0  0
   -7.4686   56.3914   75.9986 H   0  0  0  0  0  0  0  0  0  0  0  0
   -6.8262   58.2370   78.3544 H   0  0  0  0  0  0  0  0  0  0  0  0
   -6.9449   56.4588   78.4712 H   0  0  0  0  0  0  0  0  0  0  0  0
  2  1  2  0
  3  2  1  0
  4  2  1  0
  5  4  2  0
  6  5  1  0
  7  6  2  0
  7  1  1  0
  8  5  1  0
  9  8  1  0
 10  9  1  0
 11 10  1  0
 12 11  1  0
 13  8  1  0
 13 12  1  0
 14  7  1  0
 15 14  2  0
 16 15  1  0
 17 16  2  0
 18 17  1  0
 19 18  2  0
 19 14  1  0
 20 18  1  0
 21 20  1  0
 22 17  1  0
 23 22  1  0
 24 11  1  0
 25 24  2  0
 26 24  2  0
 27 24  1  0
 28 27  2  0
 29 28  1  0
 30 29  2  0
 31 30  1  0
 32 31  2  0
 32 27  1  0
 33 31  1  0
 34 30  1  0
 35 34  1  0
 36 35  2  0
 37 35  1  0
 38  1  1  0
 39 38  2  0
 40 38  1  0
 42 41  1  0
 42 40  1  0
  3 43  1  0
  3 44  1  0
  3 45  1  0
  9 46  1  0
  9 47  1  0
 10 48  1  0
 10 49  1  0
 12 50  1  0
 12 51  1  0
 13 52  1  0
 13 53  1  0
 15 54  1  0
 16 55  1  0
 19 56  1  0
 21 57  1  0
 21 58  1  0
 21 59  1  0
 23 60  1  0
 23 61  1  0
 23 62  1  0
 28 63  1  0
 29 64  1  0
 32 65  1  0
 34 66  1  0
 37 67  1  0
 37 68  1  0
 37 69  1  0
 41 70  1  0
 41 71  1  0
 41 72  1  0
 42 73  1  0
 42 74  1  0
M  END
>  <score>  (4) 
-7.695

$$$$
=
     RDKit          3D

 74 77  0  0  0  0  0  0  0  0999 V2000
    1.4850   58.2260   76.3450 C   0  0  0  0  0  0  0  0  0  0  0  0
    2.1150   59.4490   76.4500 C   0  0  0  0  0  0  0  0  0  0  0  0
    2.0070   60.3040   77.6780 C   0  0  0  0  0  0  0  0  0  0  0  0
    2.8670   59.9530   75.4430 N   0  0  0  0  0  0  0  0  0  0  0  0
    2.9980   59.2460   74.3090 C   0  0  0  0  0  0  0  0  0  0  0  0
    2.4250   58.0430   74.1520 N   0  0  0  0  0  0  0  0  0  0  0  0
    1.6850   57.5320   75.1660 C   0  0  0  0  0  0  0  0  0  0  0  0
    3.7870   59.7600   73.2780 N   0  0  0  0  0  0  0  0  0  0  0  0
    3.8820   61.2290   73.2910 C   0  0  0  0  0  0  0  0  0  0  0  0
    4.8360   61.7420   72.1940 C   0  0  0  0  0  0  0  0  0  0  0  0
    4.5510   61.1620   70.8390 N   0  0  0  0  0  0  0  0  0  0  0  0
    4.5220   59.6650   70.9190 C   0  0  0  0  0  0  0  0  0  0  0  0
    3.5130   59.1580   71.9630 C   0  0  0  0  0  0  0  0  0  0  0  0
    1.1450   56.1890   74.8880 C   0  0  0  0  0  0  0  0  0  0  0  0
    0.1420   55.9830   73.9310 C   0  0  0  0  0  0  0  0  0  0  0  0
   -0.3480   54.6990   73.6660 C   0  0  0  0  0  0  0  0  0  0  0  0
    0.1480   53.5950   74.3620 C   0  0  0  0  0  0  0  0  0  0  0  0
    1.1420   53.7830   75.3410 C   0  0  0  0  0  0  0  0  0  0  0  0
    1.6260   55.0720   75.5960 C   0  0  0  0  0  0  0  0  0  0  0  0
    1.5760   52.6510   75.9850 O   0  0  0  0  0  0  0  0  0  0  0  0
    1.2540   52.5100   77.3620 C   0  0  0  0  0  0  0  0  0  0  0  0
   -0.2700   52.3020   74.1660 O   0  0  0  0  0  0  0  0  0  0  0  0
   -1.5670   51.9510   74.6250 C   0  0  0  0  0  0  0  0  0  0  0  0
    3.2730   61.8510   69.9550 S   0  0  0  0  0  6  0  0  0  0  0  0
    2.7030   60.8300   69.1060 O   0  0  0  0  0  0  0  0  0  0  0  0
    3.7270   63.1110   69.4090 O   0  0  0  0  0  0  0  0  0  0  0  0
    2.0990   62.2380   71.2290 C   0  0  0  0  0  0  0  0  0  0  0  0
    2.0210   63.5300   71.7490 C   0  0  0  0  0  0  0  0  0  0  0  0
    1.0910   63.8180   72.7540 C   0  0  0  0  0  0  0  0  0  0  0  0
    0.2420   62.8210   73.2490 C   0  0  0  0  0  0  0  0  0  0  0  0
    0.3490   61.5200   72.7150 C   0  0  0  0  0  0  0  0  0  0  0  0
    1.2720   61.2230   71.7110 C   0  0  0  0  0  0  0  0  0  0  0  0
   -0.6690   60.2390   73.2840 Cl  0  0  0  0  0  0  0  0  0  0  0  0
   -0.7170   63.0520   74.2640 N   0  0  0  0  0  0  0  0  0  0  0  0
   -0.5030   63.1960   75.6200 C   0  0  0  0  0  0  0  0  0  0  0  0
    0.5740   63.1440   76.2020 O   0  0  0  0  0  0  0  0  0  0  0  0
   -1.7860   63.4120   76.3850 C   0  0  0  0  0  0  0  0  0  0  0  0
    0.6480   57.7100   77.4290 C   0  0  0  0  0  0  0  0  0  0  0  0
    1.0710   57.0470   78.3590 O   0  0  0  0  0  0  0  0  0  0  0  0
   -0.6230   58.1290   77.2300 O   0  0  0  0  0  0  0  0  0  0  0  0
   -2.4830   57.2600   76.0150 C   0  0  0  0  0  0  0  0  0  0  0  0
   -1.5990   57.0810   77.2330 C   0  0  0  0  0  0  0  0  0  0  0  0
    2.0870   59.6708   78.5739 H   0  0  0  0  0  0  0  0  0  0  0  0
    2.8185   61.0466   77.6803 H   0  0  0  0  0  0  0  0  0  0  0  0
    1.0363   60.8215   77.6803 H   0  0  0  0  0  0  0  0  0  0  0  0
    2.8814   61.6536   73.1220 H   0  0  0  0  0  0  0  0  0  0  0  0
    4.2793   61.5410   74.2681 H   0  0  0  0  0  0  0  0  0  0  0  0
    4.7406   62.8361   72.1323 H   0  0  0  0  0  0  0  0  0  0  0  0
    5.8526   61.4292   72.4745 H   0  0  0  0  0  0  0  0  0  0  0  0
    4.2441   59.2630   69.9335 H   0  0  0  0  0  0  0  0  0  0  0  0
    5.5225   59.3238   71.2232 H   0  0  0  0  0  0  0  0  0  0  0  0
    3.5925   58.0637   72.0420 H   0  0  0  0  0  0  0  0  0  0  0  0
    2.4988   59.4421   71.6455 H   0  0  0  0  0  0  0  0  0  0  0  0
   -0.2661   56.8431   73.3800 H   0  0  0  0  0  0  0  0  0  0  0  0
   -1.1291   54.5588   72.9043 H   0  0  0  0  0  0  0  0  0  0  0  0
    2.3985   55.2145   76.3660 H   0  0  0  0  0  0  0  0  0  0  0  0
    2.0914   52.8767   77.9738 H   0  0  0  0  0  0  0  0  0  0  0  0
    0.3504   53.0948   77.5890 H   0  0  0  0  0  0  0  0  0  0  0  0
    1.0709   51.4494   77.5890 H   0  0  0  0  0  0  0  0  0  0  0  0
   -1.5783   51.9479   75.7249 H   0  0  0  0  0  0  0  0  0  0  0  0
   -2.2984   52.6835   74.2528 H   0  0  0  0  0  0  0  0  0  0  0  0
   -1.8291   50.9496   74.2528 H   0  0  0  0  0  0  0  0  0  0  0  0
    2.6876   64.3190   71.3707 H   0  0  0  0  0  0  0  0  0  0  0  0
    1.0263   64.8385   73.1594 H   0  0  0  0  0  0  0  0  0  0  0  0
    1.3463   60.2032   71.3055 H   0  0  0  0  0  0  0  0  0  0  0  0
   -1.6962   63.1213   73.9520 H   0  0  0  0  0  0  0  0  0  0  0  0
   -1.5793   63.3772   77.4648 H   0  0  0  0  0  0  0  0  0  0  0  0
   -2.2078   64.3938   76.1238 H   0  0  0  0  0  0  0  0  0  0  0  0
   -2.5060   62.6224   76.1238 H   0  0  0  0  0  0  0  0  0  0  0  0
   -3.5137   57.4687   76.3375 H   0  0  0  0  0  0  0  0  0  0  0  0
   -2.1102   58.1009   75.4117 H   0  0  0  0  0  0  0  0  0  0  0  0
   -2.4667   56.3403   75.4117 H   0  0  0  0  0  0  0  0  0  0  0  0
   -2.2073   57.1402   78.1476 H   0  0  0  0  0  0  0  0  0  0  0  0
   -1.1047   56.0987   77.2051 H   0  0  0  0  0  0  0  0  0  0  0  0
  2  1  2  0
  3  2  1  0
  4  2  1  0
  5  4  2  0
  6  5  1  0
  7  6  2  0
  7  1  1  0
  8  5  1  0
  9  8  1  0
 10  9  1  0
 11 10  1  0
 12 11  1  0
 13  8  1  0
 13 12  1  0
 14  7  1  0
 15 14  2  0
 16 15  1  0
 17 16  2  0
 18 17  1  0
 19 18  2  0
 19 14  1  0
 20 18  1  0
 21 20  1  0
 22 17  1  0
 23 22  1  0
 24 11  1  0
 25 24  2  0
 26 24  2  0
 27 24  1  0
 28 27  2  0
 29 28  1  0
 30 29  2  0
 31 30  1  0
 32 31  2  0
 32 27  1  0
 33 31  1  0
 34 30  1  0
 35 34  1  0
 36 35  2  0
 37 35  1  0
 38  1  1  0
 39 38  2  0
 40 38  1  0
 42 41  1  0
 42 40  1  0
  3 43  1  0
  3 44  1  0
  3 45  1  0
  9 46  1  0
  9 47  1  0
 10 48  1  0
 10 49  1  0
 12 50  1  0
 12 51  1  0
 13 52  1  0
 13 53  1  0
 15 54  1  0
 16 55  1  0
 19 56  1  0
 21 57  1  0
 21 58  1  0
 21 59  1  0
 23 60  1  0
 23 61  1  0
 23 62  1  0
 28 63  1  0
 29 64  1  0
 32 65  1  0
 34 66  1  0
 37 67  1  0
 37 68  1  0
 37 69  1  0
 41 70  1  0
 41 71  1  0
 41 72  1  0
 42 73  1  0
 42 74  1  0
M  END
>  <score>  (5) 
-7.688

$$$$
=
     RDKit          3D

 74 77  0  0  0  0  0  0  0  0999 V2000
   -4.0970   57.3830   77.3570 C   0  0  0  0  0  0  0  0  0  0  0  0
   -3.1190   56.5210   77.8080 C   0  0  0  0  0  0  0  0  0  0  0  0
   -3.2700   55.7280   79.0730 C   0  0  0  0  0  0  0  0  0  0  0  0
   -1.9580   56.3430   77.1340 N   0  0  0  0  0  0  0  0  0  0  0  0
   -1.7520   57.0300   75.9980 C   0  0  0  0  0  0  0  0  0  0  0  0
   -2.6710   57.8700   75.4990 N   0  0  0  0  0  0  0  0  0  0  0  0
   -3.8380   58.0360   76.1670 C   0  0  0  0  0  0  0  0  0  0  0  0
   -0.5610   56.8330   75.2960 N   0  0  0  0  0  0  0  0  0  0  0  0
    0.5550   56.3900   76.1480 C   0  0  0  0  0  0  0  0  0  0  0  0
    1.8190   56.0980   75.3150 C   0  0  0  0  0  0  0  0  0  0  0  0
    2.1770   57.2070   74.3690 N   0  0  0  0  0  0  0  0  0  0  0  0
    0.9960   57.5540   73.5150 C   0  0  0  0  0  0  0  0  0  0  0  0
   -0.2420   57.9180   74.3530 C   0  0  0  0  0  0  0  0  0  0  0  0
   -4.7810   58.9490   75.4960 C   0  0  0  0  0  0  0  0  0  0  0  0
   -5.7590   58.4760   74.6100 C   0  0  0  0  0  0  0  0  0  0  0  0
   -6.6580   59.3530   73.9930 C   0  0  0  0  0  0  0  0  0  0  0  0
   -6.5910   60.7260   74.2430 C   0  0  0  0  0  0  0  0  0  0  0  0
   -5.6040   61.2230   75.1150 C   0  0  0  0  0  0  0  0  0  0  0  0
   -4.7100   60.3350   75.7270 C   0  0  0  0  0  0  0  0  0  0  0  0
   -5.5990   62.5830   75.3070 O   0  0  0  0  0  0  0  0  0  0  0  0
   -5.9970   63.0710   76.5810 C   0  0  0  0  0  0  0  0  0  0  0  0
   -7.4320   61.6570   73.6880 O   0  0  0  0  0  0  0  0  0  0  0  0
   -8.8000   61.6190   74.0660 C   0  0  0  0  0  0  0  0  0  0  0  0
    3.0000   58.5450   75.0220 S   0  0  0  0  0  6  0  0  0  0  0  0
    4.2680   58.0890   75.5450 O   0  0  0  0  0  0  0  0  0  0  0  0
    2.0730   59.2870   75.8480 O   0  0  0  0  0  0  0  0  0  0  0  0
    3.3110   59.5350   73.5830 C   0  0  0  0  0  0  0  0  0  0  0  0
    3.4890   60.9140   73.6980 C   0  0  0  0  0  0  0  0  0  0  0  0
    3.7320   61.6800   72.5530 C   0  0  0  0  0  0  0  0  0  0  0  0
    3.7910   61.0780   71.2900 C   0  0  0  0  0  0  0  0  0  0  0  0
    3.5960   59.6840   71.1990 C   0  0  0  0  0  0  0  0  0  0  0  0
    3.3550   58.9110   72.3350 C   0  0  0  0  0  0  0  0  0  0  0  0
    3.6550   58.8760   69.6670 Cl  0  0  0  0  0  0  0  0  0  0  0  0
    4.0330   61.8000   70.0970 N   0  0  0  0  0  0  0  0  0  0  0  0
    3.1210   62.4730   69.3100 C   0  0  0  0  0  0  0  0  0  0  0  0
    1.9140   62.5630   69.5000 O   0  0  0  0  0  0  0  0  0  0  0  0
    3.7630   63.1080   68.1000 C   0  0  0  0  0  0  0  0  0  0  0  0
   -5.3320   57.5890   78.1160 C   0  0  0  0  0  0  0  0  0  0  0  0
   -5.4890   58.4780   78.9320 O   0  0  0  0  0  0  0  0  0  0  0  0
   -6.2390   56.6660   77.7220 O   0  0  0  0  0  0  0  0  0  0  0  0
   -8.3500   57.4970   76.9790 C   0  0  0  0  0  0  0  0  0  0  0  0
   -7.5790   56.9310   78.1550 C   0  0  0  0  0  0  0  0  0  0  0  0
   -3.1434   56.3931   79.9400 H   0  0  0  0  0  0  0  0  0  0  0  0
   -4.2710   55.2728   79.1031 H   0  0  0  0  0  0  0  0  0  0  0  0
   -2.5064   54.9368   79.1031 H   0  0  0  0  0  0  0  0  0  0  0  0
    0.7828   57.1802   76.8785 H   0  0  0  0  0  0  0  0  0  0  0  0
    0.2543   55.4621   76.6566 H   0  0  0  0  0  0  0  0  0  0  0  0
    2.6622   55.9410   76.0037 H   0  0  0  0  0  0  0  0  0  0  0  0
    1.6087   55.2062   74.7063 H   0  0  0  0  0  0  0  0  0  0  0  0
    1.2586   58.4129   72.8799 H   0  0  0  0  0  0  0  0  0  0  0  0
    0.7457   56.6698   72.9104 H   0  0  0  0  0  0  0  0  0  0  0  0
   -1.0990   58.0790   73.6824 H   0  0  0  0  0  0  0  0  0  0  0  0
   -0.0302   58.8349   74.9226 H   0  0  0  0  0  0  0  0  0  0  0  0
   -5.8207   57.3987   74.3965 H   0  0  0  0  0  0  0  0  0  0  0  0
   -7.4222   58.9590   73.3069 H   0  0  0  0  0  0  0  0  0  0  0  0
   -3.9364   60.7295   76.4022 H   0  0  0  0  0  0  0  0  0  0  0  0
   -5.5121   62.4764   77.3692 H   0  0  0  0  0  0  0  0  0  0  0  0
   -5.6975   64.1248   76.6799 H   0  0  0  0  0  0  0  0  0  0  0  0
   -7.0895   62.9895   76.6799 H   0  0  0  0  0  0  0  0  0  0  0  0
   -8.8773   61.6169   75.1633 H   0  0  0  0  0  0  0  0  0  0  0  0
   -9.3162   62.5032   73.6638 H   0  0  0  0  0  0  0  0  0  0  0  0
   -9.2664   60.7076   73.6638 H   0  0  0  0  0  0  0  0  0  0  0  0
    3.4385   61.3969   74.6850 H   0  0  0  0  0  0  0  0  0  0  0  0
    3.8782   62.7663   72.6457 H   0  0  0  0  0  0  0  0  0  0  0  0
    3.2018   57.8252   72.2486 H   0  0  0  0  0  0  0  0  0  0  0  0
    5.0115   61.8264   69.7764 H   0  0  0  0  0  0  0  0  0  0  0  0
    4.5098   63.8467   68.4264 H   0  0  0  0  0  0  0  0  0  0  0  0
    4.2550   62.3314   67.4960 H   0  0  0  0  0  0  0  0  0  0  0  0
    2.9919   63.6085   67.4960 H   0  0  0  0  0  0  0  0  0  0  0  0
   -9.1851   58.1100   77.3489 H   0  0  0  0  0  0  0  0  0  0  0  0
   -7.6807   58.1198   76.3673 H   0  0  0  0  0  0  0  0  0  0  0  0
   -8.7437   56.6718   76.3673 H   0  0  0  0  0  0  0  0  0  0  0  0
   -7.5675   57.6597   78.9789 H   0  0  0  0  0  0  0  0  0  0  0  0
   -8.0542   56.0057   78.5127 H   0  0  0  0  0  0  0  0  0  0  0  0
  2  1  2  0
  3  2  1  0
  4  2  1  0
  5  4  2  0
  6  5  1  0
  7  6  2  0
  7  1  1  0
  8  5  1  0
  9  8  1  0
 10  9  1  0
 11 10  1  0
 12 11  1  0
 13  8  1  0
 13 12  1  0
 14  7  1  0
 15 14  2  0
 16 15  1  0
 17 16  2  0
 18 17  1  0
 19 18  2  0
 19 14  1  0
 20 18  1  0
 21 20  1  0
 22 17  1  0
 23 22  1  0
 24 11  1  0
 25 24  2  0
 26 24  2  0
 27 24  1  0
 28 27  2  0
 29 28  1  0
 30 29  2  0
 31 30  1  0
 32 31  2  0
 32 27  1  0
 33 31  1  0
 34 30  1  0
 35 34  1  0
 36 35  2  0
 37 35  1  0
 38  1  1  0
 39 38  2  0
 40 38  1  0
 42 41  1  0
 42 40  1  0
  3 43  1  0
  3 44  1  0
  3 45  1  0
  9 46  1  0
  9 47  1  0
 10 48  1  0
 10 49  1  0
 12 50  1  0
 12 51  1  0
 13 52  1  0
 13 53  1  0
 15 54  1  0
 16 55  1  0
 19 56  1  0
 21 57  1  0
 21 58  1  0
 21 59  1  0
 23 60  1  0
 23 61  1  0
 23 62  1  0
 28 63  1  0
 29 64  1  0
 32 65  1  0
 34 66  1  0
 37 67  1  0
 37 68  1  0
 37 69  1  0
 41 70  1  0
 41 71  1  0
 41 72  1  0
 42 73  1  0
 42 74  1  0
M  END
>  <score>  (6) 
-7.573

$$$$
=
     RDKit          3D

 74 77  0  0  0  0  0  0  0  0999 V2000
    1.4510   60.1090   73.8280 C   0  0  0  0  0  0  0  0  0  0  0  0
    1.2990   59.0960   74.7530 C   0  0  0  0  0  0  0  0  0  0  0  0
    2.3520   58.0510   74.9780 C   0  0  0  0  0  0  0  0  0  0  0  0
    0.1810   58.9820   75.5100 N   0  0  0  0  0  0  0  0  0  0  0  0
   -0.8070   59.8770   75.3520 C   0  0  0  0  0  0  0  0  0  0  0  0
   -0.7120   60.8950   74.4830 N   0  0  0  0  0  0  0  0  0  0  0  0
    0.4120   61.0160   73.7360 C   0  0  0  0  0  0  0  0  0  0  0  0
   -1.9510   59.7680   76.1450 N   0  0  0  0  0  0  0  0  0  0  0  0
   -2.2150   58.3950   76.6070 C   0  0  0  0  0  0  0  0  0  0  0  0
   -3.4310   58.3420   77.5530 C   0  0  0  0  0  0  0  0  0  0  0  0
   -4.6400   59.0430   77.0060 N   0  0  0  0  0  0  0  0  0  0  0  0
   -4.2840   60.4440   76.6090 C   0  0  0  0  0  0  0  0  0  0  0  0
   -3.1180   60.4860   75.6070 C   0  0  0  0  0  0  0  0  0  0  0  0
    0.4130   62.1960   72.8520 C   0  0  0  0  0  0  0  0  0  0  0  0
    0.7950   62.1060   71.5060 C   0  0  0  0  0  0  0  0  0  0  0  0
    0.7750   63.2310   70.6750 C   0  0  0  0  0  0  0  0  0  0  0  0
    0.3800   64.4750   71.1770 C   0  0  0  0  0  0  0  0  0  0  0  0
    0.0100   64.5890   72.5300 C   0  0  0  0  0  0  0  0  0  0  0  0
    0.0330   63.4550   73.3520 C   0  0  0  0  0  0  0  0  0  0  0  0
   -0.3620   65.8430   72.9500 O   0  0  0  0  0  0  0  0  0  0  0  0
   -0.6480   66.0180   74.3300 C   0  0  0  0  0  0  0  0  0  0  0  0
    0.3250   65.6280   70.4350 O   0  0  0  0  0  0  0  0  0  0  0  0
    1.5450   66.1390   69.9180 C   0  0  0  0  0  0  0  0  0  0  0  0
   -5.5750   58.1970   75.8650 S   0  0  0  0  0  6  0  0  0  0  0  0
   -6.4290   57.2700   76.5740 O   0  0  0  0  0  0  0  0  0  0  0  0
   -4.7000   57.7480   74.8050 O   0  0  0  0  0  0  0  0  0  0  0  0
   -6.5900   59.4820   75.1820 C   0  0  0  0  0  0  0  0  0  0  0  0
   -6.4950   59.8160   73.8310 C   0  0  0  0  0  0  0  0  0  0  0  0
   -7.3020   60.8330   73.3090 C   0  0  0  0  0  0  0  0  0  0  0  0
   -8.2000   61.5250   74.1310 C   0  0  0  0  0  0  0  0  0  0  0  0
   -8.2690   61.1770   75.4960 C   0  0  0  0  0  0  0  0  0  0  0  0
   -7.4700   60.1630   76.0260 C   0  0  0  0  0  0  0  0  0  0  0  0
   -9.3570   61.9950   76.5680 Cl  0  0  0  0  0  0  0  0  0  0  0  0
   -9.0410   62.5620   73.6600 N   0  0  0  0  0  0  0  0  0  0  0  0
   -8.7730   63.9150   73.6040 C   0  0  0  0  0  0  0  0  0  0  0  0
   -7.7440   64.4740   73.9640 O   0  0  0  0  0  0  0  0  0  0  0  0
   -9.9330   64.7090   73.0540 C   0  0  0  0  0  0  0  0  0  0  0  0
    2.6500   60.1970   72.9940 C   0  0  0  0  0  0  0  0  0  0  0  0
    3.6090   60.9020   73.2530 O   0  0  0  0  0  0  0  0  0  0  0  0
    2.5100   59.3520   71.9470 O   0  0  0  0  0  0  0  0  0  0  0  0
    3.4720   60.0380   69.8730 C   0  0  0  0  0  0  0  0  0  0  0  0
    3.6820   59.2200   71.1330 C   0  0  0  0  0  0  0  0  0  0  0  0
    2.4989   57.9052   76.0583 H   0  0  0  0  0  0  0  0  0  0  0  0
    2.0319   57.1034   74.5203 H   0  0  0  0  0  0  0  0  0  0  0  0
    3.2972   58.3784   74.5203 H   0  0  0  0  0  0  0  0  0  0  0  0
   -2.4131   57.7558   75.7339 H   0  0  0  0  0  0  0  0  0  0  0  0
   -1.3321   58.0406   77.1591 H   0  0  0  0  0  0  0  0  0  0  0  0
   -3.6894   57.2876   77.7307 H   0  0  0  0  0  0  0  0  0  0  0  0
   -3.1453   58.8608   78.4800 H   0  0  0  0  0  0  0  0  0  0  0  0
   -5.1642   60.9160   76.1481 H   0  0  0  0  0  0  0  0  0  0  0  0
   -3.9695   60.9820   77.5154 H   0  0  0  0  0  0  0  0  0  0  0  0
   -2.8422   61.5336   75.4160 H   0  0  0  0  0  0  0  0  0  0  0  0
   -3.4345   60.0011   74.6718 H   0  0  0  0  0  0  0  0  0  0  0  0
    1.1152   61.1362   71.0974 H   0  0  0  0  0  0  0  0  0  0  0  0
    1.0718   63.1366   69.6200 H   0  0  0  0  0  0  0  0  0  0  0  0
   -0.2519   63.5508   74.4101 H   0  0  0  0  0  0  0  0  0  0  0  0
    0.1378   65.5372   74.9312 H   0  0  0  0  0  0  0  0  0  0  0  0
   -0.6829   67.0923   74.5639 H   0  0  0  0  0  0  0  0  0  0  0  0
   -1.6204   65.5601   74.5639 H   0  0  0  0  0  0  0  0  0  0  0  0
    2.2082   66.4168   70.7504 H   0  0  0  0  0  0  0  0  0  0  0  0
    2.0329   65.3696   69.3016 H   0  0  0  0  0  0  0  0  0  0  0  0
    1.3389   67.0264   69.3016 H   0  0  0  0  0  0  0  0  0  0  0  0
   -5.7885   59.2820   73.1786 H   0  0  0  0  0  0  0  0  0  0  0  0
   -7.2303   61.0915   72.2422 H   0  0  0  0  0  0  0  0  0  0  0  0
   -7.5324   59.9038   77.0932 H   0  0  0  0  0  0  0  0  0  0  0  0
   -9.9674   62.2709   73.3166 H   0  0  0  0  0  0  0  0  0  0  0  0
  -10.5266   65.1153   73.8862 H   0  0  0  0  0  0  0  0  0  0  0  0
   -9.5516   65.5363   72.4375 H   0  0  0  0  0  0  0  0  0  0  0  0
  -10.5662   64.0540   72.4375 H   0  0  0  0  0  0  0  0  0  0  0  0
    3.2070   61.0702   70.1458 H   0  0  0  0  0  0  0  0  0  0  0  0
    4.3983   60.0419   69.2797 H   0  0  0  0  0  0  0  0  0  0  0  0
    2.6584   59.5952   69.2797 H   0  0  0  0  0  0  0  0  0  0  0  0
    3.8371   58.1631   70.8704 H   0  0  0  0  0  0  0  0  0  0  0  0
    4.5680   59.5780   71.6778 H   0  0  0  0  0  0  0  0  0  0  0  0
  2  1  2  0
  3  2  1  0
  4  2  1  0
  5  4  2  0
  6  5  1  0
  7  6  2  0
  7  1  1  0
  8  5  1  0
  9  8  1  0
 10  9  1  0
 11 10  1  0
 12 11  1  0
 13  8  1  0
 13 12  1  0
 14  7  1  0
 15 14  2  0
 16 15  1  0
 17 16  2  0
 18 17  1  0
 19 18  2  0
 19 14  1  0
 20 18  1  0
 21 20  1  0
 22 17  1  0
 23 22  1  0
 24 11  1  0
 25 24  2  0
 26 24  2  0
 27 24  1  0
 28 27  2  0
 29 28  1  0
 30 29  2  0
 31 30  1  0
 32 31  2  0
 32 27  1  0
 33 31  1  0
 34 30  1  0
 35 34  1  0
 36 35  2  0
 37 35  1  0
 38  1  1  0
 39 38  2  0
 40 38  1  0
 42 41  1  0
 42 40  1  0
  3 43  1  0
  3 44  1  0
  3 45  1  0
  9 46  1  0
  9 47  1  0
 10 48  1  0
 10 49  1  0
 12 50  1  0
 12 51  1  0
 13 52  1  0
 13 53  1  0
 15 54  1  0
 16 55  1  0
 19 56  1  0
 21 57  1  0
 21 58  1  0
 21 59  1  0
 23 60  1  0
 23 61  1  0
 23 62  1  0
 28 63  1  0
 29 64  1  0
 32 65  1  0
 34 66  1  0
 37 67  1  0
 37 68  1  0
 37 69  1  0
 41 70  1  0
 41 71  1  0
 41 72  1  0
 42 73  1  0
 42 74  1  0
M  END
>  <score>  (7) 
-7.376

$$$$
=
     RDKit          3D

 74 77  0  0  0  0  0  0  0  0999 V2000
    2.4450   60.5730   73.9500 C   0  0  0  0  0  0  0  0  0  0  0  0
    2.3700   59.6960   75.0130 C   0  0  0  0  0  0  0  0  0  0  0  0
    3.5170   58.8130   75.4070 C   0  0  0  0  0  0  0  0  0  0  0  0
    1.2480   59.5780   75.7620 N   0  0  0  0  0  0  0  0  0  0  0  0
    0.1780   60.3310   75.4580 C   0  0  0  0  0  0  0  0  0  0  0  0
    0.1950   61.2140   74.4490 N   0  0  0  0  0  0  0  0  0  0  0  0
    1.3230   61.3420   73.7080 C   0  0  0  0  0  0  0  0  0  0  0  0
   -0.9720   60.2190   76.2420 N   0  0  0  0  0  0  0  0  0  0  0  0
   -1.1080   58.9090   76.9000 C   0  0  0  0  0  0  0  0  0  0  0  0
   -2.3400   58.8670   77.8250 C   0  0  0  0  0  0  0  0  0  0  0  0
   -3.5970   59.3490   77.1620 N   0  0  0  0  0  0  0  0  0  0  0  0
   -3.3740   60.7050   76.5660 C   0  0  0  0  0  0  0  0  0  0  0  0
   -2.1890   60.7230   75.5860 C   0  0  0  0  0  0  0  0  0  0  0  0
    1.2300   62.3730   72.6590 C   0  0  0  0  0  0  0  0  0  0  0  0
    0.5650   63.5880   72.8780 C   0  0  0  0  0  0  0  0  0  0  0  0
    0.5000   64.5640   71.8780 C   0  0  0  0  0  0  0  0  0  0  0  0
    1.0900   64.3400   70.6310 C   0  0  0  0  0  0  0  0  0  0  0  0
    1.7460   63.1190   70.3850 C   0  0  0  0  0  0  0  0  0  0  0  0
    1.8060   62.1500   71.3950 C   0  0  0  0  0  0  0  0  0  0  0  0
    2.2970   62.9720   69.1360 O   0  0  0  0  0  0  0  0  0  0  0  0
    3.7150   62.9710   69.0370 C   0  0  0  0  0  0  0  0  0  0  0  0
    1.0790   65.2410   69.5960 O   0  0  0  0  0  0  0  0  0  0  0  0
    1.1080   66.6230   69.9220 C   0  0  0  0  0  0  0  0  0  0  0  0
   -4.4070   58.2500   76.1470 S   0  0  0  0  0  6  0  0  0  0  0  0
   -4.4050   58.7850   74.8040 O   0  0  0  0  0  0  0  0  0  0  0  0
   -5.6390   57.8580   76.7940 O   0  0  0  0  0  0  0  0  0  0  0  0
   -3.3330   56.8380   76.1890 C   0  0  0  0  0  0  0  0  0  0  0  0
   -3.3860   55.9410   77.2560 C   0  0  0  0  0  0  0  0  0  0  0  0
   -2.5320   54.8320   77.2730 C   0  0  0  0  0  0  0  0  0  0  0  0
   -1.6180   54.6180   76.2340 C   0  0  0  0  0  0  0  0  0  0  0  0
   -1.5770   55.5460   75.1730 C   0  0  0  0  0  0  0  0  0  0  0  0
   -2.4260   56.6530   75.1450 C   0  0  0  0  0  0  0  0  0  0  0  0
   -0.4690   55.3410   73.8570 Cl  0  0  0  0  0  0  0  0  0  0  0  0
   -0.7300   53.5170   76.1980 N   0  0  0  0  0  0  0  0  0  0  0  0
    0.5350   53.4250   76.7430 C   0  0  0  0  0  0  0  0  0  0  0  0
    1.1300   54.2980   77.3640 O   0  0  0  0  0  0  0  0  0  0  0  0
    1.1810   52.0880   76.4760 C   0  0  0  0  0  0  0  0  0  0  0  0
    3.6540   60.6640   73.1290 C   0  0  0  0  0  0  0  0  0  0  0  0
    4.5130   61.5130   73.2760 O   0  0  0  0  0  0  0  0  0  0  0  0
    3.6510   59.6430   72.2420 O   0  0  0  0  0  0  0  0  0  0  0  0
    3.6120   59.3550   69.8730 C   0  0  0  0  0  0  0  0  0  0  0  0
    4.4040   59.8920   71.0490 C   0  0  0  0  0  0  0  0  0  0  0  0
    3.5815   58.7633   76.5040 H   0  0  0  0  0  0  0  0  0  0  0  0
    3.3574   57.8024   75.0030 H   0  0  0  0  0  0  0  0  0  0  0  0
    4.4531   59.2258   75.0030 H   0  0  0  0  0  0  0  0  0  0  0  0
   -1.2129   58.1311   76.1294 H   0  0  0  0  0  0  0  0  0  0  0  0
   -0.2107   58.7353   77.5121 H   0  0  0  0  0  0  0  0  0  0  0  0
   -2.4947   57.8287   78.1535 H   0  0  0  0  0  0  0  0  0  0  0  0
   -2.1370   59.5429   78.6687 H   0  0  0  0  0  0  0  0  0  0  0  0
   -4.2836   61.0087   76.0271 H   0  0  0  0  0  0  0  0  0  0  0  0
   -3.1430   61.4000   77.3868 H   0  0  0  0  0  0  0  0  0  0  0  0
   -2.0162   61.7546   75.2453 H   0  0  0  0  0  0  0  0  0  0  0  0
   -2.4257   60.0759   74.7285 H   0  0  0  0  0  0  0  0  0  0  0  0
    0.0873   63.7764   73.8508 H   0  0  0  0  0  0  0  0  0  0  0  0
   -0.0188   65.5139   72.0744 H   0  0  0  0  0  0  0  0  0  0  0  0
    2.3140   61.1949   71.1956 H   0  0  0  0  0  0  0  0  0  0  0  0
    4.1530   62.9707   70.0460 H   0  0  0  0  0  0  0  0  0  0  0  0
    4.0440   62.0726   68.4942 H   0  0  0  0  0  0  0  0  0  0  0  0
    4.0453   63.8689   68.4942 H   0  0  0  0  0  0  0  0  0  0  0  0
    1.1105   66.7418   71.0156 H   0  0  0  0  0  0  0  0  0  0  0  0
    2.0159   67.0800   69.5015 H   0  0  0  0  0  0  0  0  0  0  0  0
    0.2200   67.1176   69.5015 H   0  0  0  0  0  0  0  0  0  0  0  0
   -4.0957   56.1044   78.0804 H   0  0  0  0  0  0  0  0  0  0  0  0
   -2.5794   54.1213   78.1112 H   0  0  0  0  0  0  0  0  0  0  0  0
   -2.3809   57.3696   74.3117 H   0  0  0  0  0  0  0  0  0  0  0  0
   -1.0698   52.6798   75.7035 H   0  0  0  0  0  0  0  0  0  0  0  0
    1.4178   51.5978   77.4318 H   0  0  0  0  0  0  0  0  0  0  0  0
    0.4894   51.4550   75.9007 H   0  0  0  0  0  0  0  0  0  0  0  0
    2.1068   52.2364   75.9007 H   0  0  0  0  0  0  0  0  0  0  0  0
    2.7546   58.7737   70.2431 H   0  0  0  0  0  0  0  0  0  0  0  0
    3.2493   60.1942   69.2613 H   0  0  0  0  0  0  0  0  0  0  0  0
    4.2574   58.7075   69.2613 H   0  0  0  0  0  0  0  0  0  0  0  0
    5.3765   59.3813   71.1082 H   0  0  0  0  0  0  0  0  0  0  0  0
    4.5822   60.9707   70.9284 H   0  0  0  0  0  0  0  0  0  0  0  0
  2  1  2  0
  3  2  1  0
  4  2  1  0
  5  4  2  0
  6  5  1  0
  7  6  2  0
  7  1  1  0
  8  5  1  0
  9  8  1  0
 10  9  1  0
 11 10  1  0
 12 11  1  0
 13  8  1  0
 13 12  1  0
 14  7  1  0
 15 14  2  0
 16 15  1  0
 17 16  2  0
 18 17  1  0
 19 18  2  0
 19 14  1  0
 20 18  1  0
 21 20  1  0
 22 17  1  0
 23 22  1  0
 24 11  1  0
 25 24  2  0
 26 24  2  0
 27 24  1  0
 28 27  2  0
 29 28  1  0
 30 29  2  0
 31 30  1  0
 32 31  2  0
 32 27  1  0
 33 31  1  0
 34 30  1  0
 35 34  1  0
 36 35  2  0
 37 35  1  0
 38  1  1  0
 39 38  2  0
 40 38  1  0
 42 41  1  0
 42 40  1  0
  3 43  1  0
  3 44  1  0
  3 45  1  0
  9 46  1  0
  9 47  1  0
 10 48  1  0
 10 49  1  0
 12 50  1  0
 12 51  1  0
 13 52  1  0
 13 53  1  0
 15 54  1  0
 16 55  1  0
 19 56  1  0
 21 57  1  0
 21 58  1  0
 21 59  1  0
 23 60  1  0
 23 61  1  0
 23 62  1  0
 28 63  1  0
 29 64  1  0
 32 65  1  0
 34 66  1  0
 37 67  1  0
 37 68  1  0
 37 69  1  0
 41 70  1  0
 41 71  1  0
 41 72  1  0
 42 73  1  0
 42 74  1  0
M  END
>  <score>  (8) 
-7.281

$$$$
=
     RDKit          3D

 74 77  0  0  0  0  0  0  0  0999 V2000
    0.5640   61.2730   73.6500 C   0  0  0  0  0  0  0  0  0  0  0  0
   -0.5070   61.6930   72.8880 C   0  0  0  0  0  0  0  0  0  0  0  0
   -0.3420   62.5910   71.6980 C   0  0  0  0  0  0  0  0  0  0  0  0
   -1.7770   61.3210   73.1760 N   0  0  0  0  0  0  0  0  0  0  0  0
   -1.9990   60.5260   74.2360 C   0  0  0  0  0  0  0  0  0  0  0  0
   -0.9990   60.0700   75.0040 N   0  0  0  0  0  0  0  0  0  0  0  0
    0.2730   60.4320   74.7070 C   0  0  0  0  0  0  0  0  0  0  0  0
   -3.3080   60.1300   74.5210 N   0  0  0  0  0  0  0  0  0  0  0  0
   -4.3250   61.0760   74.0340 C   0  0  0  0  0  0  0  0  0  0  0  0
   -5.7520   60.5510   74.2890 C   0  0  0  0  0  0  0  0  0  0  0  0
   -5.9720   60.0920   75.7010 N   0  0  0  0  0  0  0  0  0  0  0  0
   -4.9180   59.0990   76.0880 C   0  0  0  0  0  0  0  0  0  0  0  0
   -3.4970   59.6560   75.9010 C   0  0  0  0  0  0  0  0  0  0  0  0
    1.2830   59.8330   75.5980 C   0  0  0  0  0  0  0  0  0  0  0  0
    1.8350   60.5480   76.6690 C   0  0  0  0  0  0  0  0  0  0  0  0
    2.7810   59.9620   77.5170 C   0  0  0  0  0  0  0  0  0  0  0  0
    3.2030   58.6470   77.3030 C   0  0  0  0  0  0  0  0  0  0  0  0
    2.6740   57.9170   76.2210 C   0  0  0  0  0  0  0  0  0  0  0  0
    1.7270   58.5150   75.3810 C   0  0  0  0  0  0  0  0  0  0  0  0
    3.1400   56.6340   76.0740 O   0  0  0  0  0  0  0  0  0  0  0  0
    2.2630   55.6760   75.4970 C   0  0  0  0  0  0  0  0  0  0  0  0
    4.1210   57.9900   78.0850 O   0  0  0  0  0  0  0  0  0  0  0  0
    3.7630   57.7110   79.4300 C   0  0  0  0  0  0  0  0  0  0  0  0
   -6.2790   61.2930   76.8660 S   0  0  0  0  0  6  0  0  0  0  0  0
   -5.0120   61.8010   77.3410 O   0  0  0  0  0  0  0  0  0  0  0  0
   -7.2750   60.7880   77.7860 O   0  0  0  0  0  0  0  0  0  0  0  0
   -7.0650   62.5590   75.9030 C   0  0  0  0  0  0  0  0  0  0  0  0
   -8.3510   62.3680   75.3980 C   0  0  0  0  0  0  0  0  0  0  0  0
   -8.9560   63.3770   74.6400 C   0  0  0  0  0  0  0  0  0  0  0  0
   -8.2800   64.5750   74.3760 C   0  0  0  0  0  0  0  0  0  0  0  0
   -6.9760   64.7380   74.8880 C   0  0  0  0  0  0  0  0  0  0  0  0
   -6.3650   63.7390   75.6470 C   0  0  0  0  0  0  0  0  0  0  0  0
   -6.0830   66.1950   74.5960 Cl  0  0  0  0  0  0  0  0  0  0  0  0
   -8.8390   65.6290   73.6150 N   0  0  0  0  0  0  0  0  0  0  0  0
   -8.7870   65.8130   72.2490 C   0  0  0  0  0  0  0  0  0  0  0  0
   -8.2320   65.0880   71.4310 O   0  0  0  0  0  0  0  0  0  0  0  0
   -9.4900   67.0750   71.8110 C   0  0  0  0  0  0  0  0  0  0  0  0
    1.9270   61.7130   73.3460 C   0  0  0  0  0  0  0  0  0  0  0  0
    2.4350   62.7200   73.8030 O   0  0  0  0  0  0  0  0  0  0  0  0
    2.5010   60.8010   72.5270 O   0  0  0  0  0  0  0  0  0  0  0  0
    3.0370   60.5930   70.2110 C   0  0  0  0  0  0  0  0  0  0  0  0
    3.3080   61.3660   71.4870 C   0  0  0  0  0  0  0  0  0  0  0  0
   -0.1530   63.6198   72.0384 H   0  0  0  0  0  0  0  0  0  0  0  0
    0.5073   62.2436   71.0914 H   0  0  0  0  0  0  0  0  0  0  0  0
   -1.2594   62.5682   71.0914 H   0  0  0  0  0  0  0  0  0  0  0  0
   -4.1988   62.0364   74.5553 H   0  0  0  0  0  0  0  0  0  0  0  0
   -4.1909   61.1992   72.9492 H   0  0  0  0  0  0  0  0  0  0  0  0
   -6.4657   61.3587   74.0692 H   0  0  0  0  0  0  0  0  0  0  0  0
   -5.8998   59.6783   73.6359 H   0  0  0  0  0  0  0  0  0  0  0  0
   -5.0564   58.8298   77.1455 H   0  0  0  0  0  0  0  0  0  0  0  0
   -5.0250   58.2213   75.4336 H   0  0  0  0  0  0  0  0  0  0  0  0
   -2.7659   58.8624   76.1147 H   0  0  0  0  0  0  0  0  0  0  0  0
   -3.3517   60.5005   76.5908 H   0  0  0  0  0  0  0  0  0  0  0  0
    1.5195   61.5868   76.8460 H   0  0  0  0  0  0  0  0  0  0  0  0
    3.1949   60.5395   78.3568 H   0  0  0  0  0  0  0  0  0  0  0  0
    1.3214   57.9428   74.5336 H   0  0  0  0  0  0  0  0  0  0  0  0
    1.7524   55.1183   76.2959 H   0  0  0  0  0  0  0  0  0  0  0  0
    1.5164   56.1906   74.8742 H   0  0  0  0  0  0  0  0  0  0  0  0
    2.8414   54.9777   74.8742 H   0  0  0  0  0  0  0  0  0  0  0  0
    4.4456   58.2430   80.1090 H   0  0  0  0  0  0  0  0  0  0  0  0
    2.7309   58.0453   79.6116 H   0  0  0  0  0  0  0  0  0  0  0  0
    3.8351   56.6285   79.6116 H   0  0  0  0  0  0  0  0  0  0  0  0
   -8.8876   61.4281   75.5947 H   0  0  0  0  0  0  0  0  0  0  0  0
   -9.9727   63.2277   74.2476 H   0  0  0  0  0  0  0  0  0  0  0  0
   -5.3464   63.8795   76.0379 H   0  0  0  0  0  0  0  0  0  0  0  0
   -9.3483   66.3486   74.1476 H   0  0  0  0  0  0  0  0  0  0  0  0
   -9.8072   67.6444   72.6971 H   0  0  0  0  0  0  0  0  0  0  0  0
   -8.8029   67.6872   71.2084 H   0  0  0  0  0  0  0  0  0  0  0  0
  -10.3722   66.8130   71.2084 H   0  0  0  0  0  0  0  0  0  0  0  0
    2.6827   59.5825   70.4627 H   0  0  0  0  0  0  0  0  0  0  0  0
    2.2683   61.1150   69.6223 H   0  0  0  0  0  0  0  0  0  0  0  0
    3.9634   60.5207   69.6223 H   0  0  0  0  0  0  0  0  0  0  0  0
    4.3720   61.2843   71.7541 H   0  0  0  0  0  0  0  0  0  0  0  0
    3.0633   62.4295   71.3487 H   0  0  0  0  0  0  0  0  0  0  0  0
  2  1  2  0
  3  2  1  0
  4  2  1  0
  5  4  2  0
  6  5  1  0
  7  6  2  0
  7  1  1  0
  8  5  1  0
  9  8  1  0
 10  9  1  0
 11 10  1  0
 12 11  1  0
 13  8  1  0
 13 12  1  0
 14  7  1  0
 15 14  2  0
 16 15  1  0
 17 16  2  0
 18 17  1  0
 19 18  2  0
 19 14  1  0
 20 18  1  0
 21 20  1  0
 22 17  1  0
 23 22  1  0
 24 11  1  0
 25 24  2  0
 26 24  2  0
 27 24  1  0
 28 27  2  0
 29 28  1  0
 30 29  2  0
 31 30  1  0
 32 31  2  0
 32 27  1  0
 33 31  1  0
 34 30  1  0
 35 34  1  0
 36 35  2  0
 37 35  1  0
 38  1  1  0
 39 38  2  0
 40 38  1  0
 42 41  1  0
 42 40  1  0
  3 43  1  0
  3 44  1  0
  3 45  1  0
  9 46  1  0
  9 47  1  0
 10 48  1  0
 10 49  1  0
 12 50  1  0
 12 51  1  0
 13 52  1  0
 13 53  1  0
 15 54  1  0
 16 55  1  0
 19 56  1  0
 21 57  1  0
 21 58  1  0
 21 59  1  0
 23 60  1  0
 23 61  1  0
 23 62  1  0
 28 63  1  0
 29 64  1  0
 32 65  1  0
 34 66  1  0
 37 67  1  0
 37 68  1  0
 37 69  1  0
 41 70  1  0
 41 71  1  0
 41 72  1  0
 42 73  1  0
 42 74  1  0
M  END
>  <score>  (9) 
-7.128

$$$$
