=
     RDKit          3D

 32 33  0  0  0  0  0  0  0  0999 V2000
    1.9880   69.0760   64.1160 O   0  0  0  0  0  0  0  0  0  0  0  0
    2.2650   68.6770   65.2420 C   0  0  0  0  0  0  0  0  0  0  0  0
    3.3840   69.2590   66.0280 C   0  0  0  0  0  0  0  0  0  0  0  0
    4.6330   69.3820   65.4130 C   0  0  0  0  0  0  0  0  0  0  0  0
    5.7170   69.9050   66.1200 C   0  0  0  0  0  0  0  0  0  0  0  0
    5.5730   70.3160   67.4530 C   0  0  0  0  0  0  0  0  0  0  0  0
    4.3150   70.1990   68.0790 C   0  0  0  0  0  0  0  0  0  0  0  0
    3.2300   69.6690   67.3580 C   0  0  0  0  0  0  0  0  0  0  0  0
    4.1070   70.6360   69.5040 C   0  0  0  0  0  0  0  0  0  0  0  0
    6.7620   70.8800   68.1820 C   0  0  0  0  0  0  0  0  0  0  0  0
    1.4620   67.5320   65.8150 C   0  0  0  0  0  0  0  0  0  0  0  0
    2.0010   66.4350   65.9140 O   0  0  0  0  0  0  0  0  0  0  0  0
    0.0450   67.7500   66.2040 C   0  0  0  0  0  0  0  0  0  0  0  0
   -0.7760   68.6760   65.5490 C   0  0  0  0  0  0  0  0  0  0  0  0
   -2.1080   68.8320   65.9420 C   0  0  0  0  0  0  0  0  0  0  0  0
   -2.6250   68.0650   66.9850 C   0  0  0  0  0  0  0  0  0  0  0  0
   -1.8130   67.1430   67.6430 C   0  0  0  0  0  0  0  0  0  0  0  0
   -0.4810   66.9850   67.2540 C   0  0  0  0  0  0  0  0  0  0  0  0
    4.7623   69.0654   64.3675 H   0  0  0  0  0  0  0  0  0  0  0  0
    6.6955   69.9958   65.6258 H   0  0  0  0  0  0  0  0  0  0  0  0
    2.2481   69.5754   67.8450 H   0  0  0  0  0  0  0  0  0  0  0  0
    4.4784   69.8558   70.1847 H   0  0  0  0  0  0  0  0  0  0  0  0
    4.6563   71.5718   69.6844 H   0  0  0  0  0  0  0  0  0  0  0  0
    3.0343   70.7998   69.6844 H   0  0  0  0  0  0  0  0  0  0  0  0
    6.5977   70.8021   69.2669 H   0  0  0  0  0  0  0  0  0  0  0  0
    7.6637   70.3137   67.9061 H   0  0  0  0  0  0  0  0  0  0  0  0
    6.8939   71.9366   67.9061 H   0  0  0  0  0  0  0  0  0  0  0  0
   -0.3721   69.2814   64.7242 H   0  0  0  0  0  0  0  0  0  0  0  0
   -2.7501   69.5618   65.4271 H   0  0  0  0  0  0  0  0  0  0  0  0
   -3.6750   68.1876   67.2890 H   0  0  0  0  0  0  0  0  0  0  0  0
   -2.2208   66.5403   68.4679 H   0  0  0  0  0  0  0  0  0  0  0  0
    0.1584   66.2566   67.7742 H   0  0  0  0  0  0  0  0  0  0  0  0
  2  1  2  0
  3  2  1  0
  4  3  2  0
  5  4  1  0
  6  5  2  0
  7  6  1  0
  8  7  2  0
  8  3  1  0
  9  7  1  0
 10  6  1  0
 11  2  1  0
 12 11  2  0
 13 11  1  0
 14 13  2  0
 15 14  1  0
 16 15  2  0
 17 16  1  0
 18 17  2  0
 18 13  1  0
  4 19  1  0
  5 20  1  0
  8 21  1  0
  9 22  1  0
  9 23  1  0
  9 24  1  0
 10 25  1  0
 10 26  1  0
 10 27  1  0
 14 28  1  0
 15 29  1  0
 16 30  1  0
 17 31  1  0
 18 32  1  0
M  END
>  <score>  (1) 
-10.43

$$$$
=
     RDKit          3D

 32 33  0  0  0  0  0  0  0  0999 V2000
    1.6770   69.0840   63.9430 O   0  0  0  0  0  0  0  0  0  0  0  0
    2.2420   68.4560   64.8310 C   0  0  0  0  0  0  0  0  0  0  0  0
    3.2710   69.0810   65.7040 C   0  0  0  0  0  0  0  0  0  0  0  0
    4.5500   69.2860   65.1780 C   0  0  0  0  0  0  0  0  0  0  0  0
    5.5520   69.8520   65.9670 C   0  0  0  0  0  0  0  0  0  0  0  0
    5.2960   70.2240   67.2950 C   0  0  0  0  0  0  0  0  0  0  0  0
    4.0070   70.0240   67.8310 C   0  0  0  0  0  0  0  0  0  0  0  0
    3.0050   69.4520   67.0260 C   0  0  0  0  0  0  0  0  0  0  0  0
    3.6780   70.4180   69.2460 C   0  0  0  0  0  0  0  0  0  0  0  0
    6.3990   70.8360   68.1130 C   0  0  0  0  0  0  0  0  0  0  0  0
    1.9010   66.9940   65.0040 C   0  0  0  0  0  0  0  0  0  0  0  0
    0.8000   66.7030   65.4600 O   0  0  0  0  0  0  0  0  0  0  0  0
    2.9080   65.9580   64.6580 C   0  0  0  0  0  0  0  0  0  0  0  0
    3.0570   64.7840   65.4050 C   0  0  0  0  0  0  0  0  0  0  0  0
    4.0080   63.8310   65.0280 C   0  0  0  0  0  0  0  0  0  0  0  0
    4.8090   64.0450   63.9070 C   0  0  0  0  0  0  0  0  0  0  0  0
    4.6660   65.2130   63.1600 C   0  0  0  0  0  0  0  0  0  0  0  0
    3.7180   66.1680   63.5330 C   0  0  0  0  0  0  0  0  0  0  0  0
    4.7672   69.0000   64.1383 H   0  0  0  0  0  0  0  0  0  0  0  0
    6.5547   70.0084   65.5425 H   0  0  0  0  0  0  0  0  0  0  0  0
    1.9989   69.2944   67.4419 H   0  0  0  0  0  0  0  0  0  0  0  0
    4.2227   69.7656   69.9443 H   0  0  0  0  0  0  0  0  0  0  0  0
    3.9748   71.4638   69.4139 H   0  0  0  0  0  0  0  0  0  0  0  0
    2.5960   70.3125   69.4139 H   0  0  0  0  0  0  0  0  0  0  0  0
    6.1746   70.7115   69.1826 H   0  0  0  0  0  0  0  0  0  0  0  0
    7.3505   70.3368   67.8774 H   0  0  0  0  0  0  0  0  0  0  0  0
    6.4790   71.9075   67.8774 H   0  0  0  0  0  0  0  0  0  0  0  0
    2.4257   64.6110   66.2890 H   0  0  0  0  0  0  0  0  0  0  0  0
    4.1246   62.9097   65.6175 H   0  0  0  0  0  0  0  0  0  0  0  0
    5.5542   63.2916   63.6120 H   0  0  0  0  0  0  0  0  0  0  0  0
    5.2997   65.3824   62.2770 H   0  0  0  0  0  0  0  0  0  0  0  0
    3.6062   67.0889   62.9418 H   0  0  0  0  0  0  0  0  0  0  0  0
  2  1  2  0
  3  2  1  0
  4  3  2  0
  5  4  1  0
  6  5  2  0
  7  6  1  0
  8  7  2  0
  8  3  1  0
  9  7  1  0
 10  6  1  0
 11  2  1  0
 12 11  2  0
 13 11  1  0
 14 13  2  0
 15 14  1  0
 16 15  2  0
 17 16  1  0
 18 17  2  0
 18 13  1  0
  4 19  1  0
  5 20  1  0
  8 21  1  0
  9 22  1  0
  9 23  1  0
  9 24  1  0
 10 25  1  0
 10 26  1  0
 10 27  1  0
 14 28  1  0
 15 29  1  0
 16 30  1  0
 17 31  1  0
 18 32  1  0
M  END
>  <score>  (2) 
-10.404

$$$$
=
     RDKit          3D

 32 33  0  0  0  0  0  0  0  0999 V2000
    5.2170   69.4620   63.1200 O   0  0  0  0  0  0  0  0  0  0  0  0
    4.4290   68.9940   63.9350 C   0  0  0  0  0  0  0  0  0  0  0  0
    4.4450   69.4010   65.3650 C   0  0  0  0  0  0  0  0  0  0  0  0
    3.2500   69.3280   66.0880 C   0  0  0  0  0  0  0  0  0  0  0  0
    3.2150   69.7180   67.4270 C   0  0  0  0  0  0  0  0  0  0  0  0
    4.3700   70.1850   68.0700 C   0  0  0  0  0  0  0  0  0  0  0  0
    5.5790   70.2570   67.3480 C   0  0  0  0  0  0  0  0  0  0  0  0
    5.6040   69.8630   65.9980 C   0  0  0  0  0  0  0  0  0  0  0  0
    6.8490   70.7420   67.9960 C   0  0  0  0  0  0  0  0  0  0  0  0
    4.2940   70.5920   69.5160 C   0  0  0  0  0  0  0  0  0  0  0  0
    3.4500   67.9450   63.4650 C   0  0  0  0  0  0  0  0  0  0  0  0
    2.4770   68.3070   62.8120 O   0  0  0  0  0  0  0  0  0  0  0  0
    3.6640   66.5210   63.8320 C   0  0  0  0  0  0  0  0  0  0  0  0
    4.6020   65.7140   63.1780 C   0  0  0  0  0  0  0  0  0  0  0  0
    4.7780   64.3850   63.5730 C   0  0  0  0  0  0  0  0  0  0  0  0
    4.0240   63.8590   64.6200 C   0  0  0  0  0  0  0  0  0  0  0  0
    3.0870   64.6570   65.2760 C   0  0  0  0  0  0  0  0  0  0  0  0
    2.9080   65.9850   64.8840 C   0  0  0  0  0  0  0  0  0  0  0  0
    2.3350   68.9620   65.5994 H   0  0  0  0  0  0  0  0  0  0  0  0
    2.2691   69.6583   67.9854 H   0  0  0  0  0  0  0  0  0  0  0  0
    6.5462   69.9188   65.4331 H   0  0  0  0  0  0  0  0  0  0  0  0
    6.7413   70.7009   69.0899 H   0  0  0  0  0  0  0  0  0  0  0  0
    7.6871   70.1006   67.6857 H   0  0  0  0  0  0  0  0  0  0  0  0
    7.0462   71.7787   67.6857 H   0  0  0  0  0  0  0  0  0  0  0  0
    4.4585   69.7111   70.1540 H   0  0  0  0  0  0  0  0  0  0  0  0
    5.0669   71.3461   69.7258 H   0  0  0  0  0  0  0  0  0  0  0  0
    3.3011   71.0164   69.7258 H   0  0  0  0  0  0  0  0  0  0  0  0
    5.2011   66.1260   62.3526 H   0  0  0  0  0  0  0  0  0  0  0  0
    5.5142   63.7522   63.0557 H   0  0  0  0  0  0  0  0  0  0  0  0
    4.1679   62.8133   64.9295 H   0  0  0  0  0  0  0  0  0  0  0  0
    2.4900   64.2408   66.1009 H   0  0  0  0  0  0  0  0  0  0  0  0
    2.1700   66.6140   65.4033 H   0  0  0  0  0  0  0  0  0  0  0  0
  2  1  2  0
  3  2  1  0
  4  3  2  0
  5  4  1  0
  6  5  2  0
  7  6  1  0
  8  7  2  0
  8  3  1  0
  9  7  1  0
 10  6  1  0
 11  2  1  0
 12 11  2  0
 13 11  1  0
 14 13  2  0
 15 14  1  0
 16 15  2  0
 17 16  1  0
 18 17  2  0
 18 13  1  0
  4 19  1  0
  5 20  1  0
  8 21  1  0
  9 22  1  0
  9 23  1  0
  9 24  1  0
 10 25  1  0
 10 26  1  0
 10 27  1  0
 14 28  1  0
 15 29  1  0
 16 30  1  0
 17 31  1  0
 18 32  1  0
M  END
>  <score>  (3) 
-10.217

$$$$
=
     RDKit          3D

 32 33  0  0  0  0  0  0  0  0999 V2000
    0.4620   69.4840   67.6450 O   0  0  0  0  0  0  0  0  0  0  0  0
    1.5000   69.0510   67.1540 C   0  0  0  0  0  0  0  0  0  0  0  0
    2.8340   69.5670   67.5570 C   0  0  0  0  0  0  0  0  0  0  0  0
    2.9610   70.1680   68.8140 C   0  0  0  0  0  0  0  0  0  0  0  0
    4.1910   70.6840   69.2250 C   0  0  0  0  0  0  0  0  0  0  0  0
    5.3160   70.6090   68.3910 C   0  0  0  0  0  0  0  0  0  0  0  0
    5.1970   70.0000   67.1250 C   0  0  0  0  0  0  0  0  0  0  0  0
    3.9520   69.4850   66.7200 C   0  0  0  0  0  0  0  0  0  0  0  0
    6.3770   69.8850   66.1980 C   0  0  0  0  0  0  0  0  0  0  0  0
    6.6260   71.1710   68.8710 C   0  0  0  0  0  0  0  0  0  0  0  0
    1.3990   67.9920   66.0820 C   0  0  0  0  0  0  0  0  0  0  0  0
    1.5060   66.8170   66.4120 O   0  0  0  0  0  0  0  0  0  0  0  0
    1.2130   68.3970   64.6640 C   0  0  0  0  0  0  0  0  0  0  0  0
    2.2670   68.3940   63.7430 C   0  0  0  0  0  0  0  0  0  0  0  0
    2.0370   68.7680   62.4150 C   0  0  0  0  0  0  0  0  0  0  0  0
    0.7590   69.1420   62.0040 C   0  0  0  0  0  0  0  0  0  0  0  0
   -0.2950   69.1480   62.9170 C   0  0  0  0  0  0  0  0  0  0  0  0
   -0.0700   68.7770   64.2430 C   0  0  0  0  0  0  0  0  0  0  0  0
    2.0885   70.2341   69.4806 H   0  0  0  0  0  0  0  0  0  0  0  0
    4.2791   71.1552   70.2151 H   0  0  0  0  0  0  0  0  0  0  0  0
    3.8563   69.0114   65.7318 H   0  0  0  0  0  0  0  0  0  0  0  0
    7.3003   69.7950   66.7892 H   0  0  0  0  0  0  0  0  0  0  0  0
    6.2595   68.9941   65.5636 H   0  0  0  0  0  0  0  0  0  0  0  0
    6.4337   70.7819   65.5636 H   0  0  0  0  0  0  0  0  0  0  0  0
    6.6412   71.1775   69.9709 H   0  0  0  0  0  0  0  0  0  0  0  0
    7.4515   70.5479   68.4966 H   0  0  0  0  0  0  0  0  0  0  0  0
    6.7433   72.1986   68.4966 H   0  0  0  0  0  0  0  0  0  0  0  0
    3.2765   68.0974   64.0637 H   0  0  0  0  0  0  0  0  0  0  0  0
    2.8670   68.7669   61.6932 H   0  0  0  0  0  0  0  0  0  0  0  0
    0.5815   69.4328   60.9581 H   0  0  0  0  0  0  0  0  0  0  0  0
   -1.3030   69.4450   62.5920 H   0  0  0  0  0  0  0  0  0  0  0  0
   -0.9027   68.7825   64.9618 H   0  0  0  0  0  0  0  0  0  0  0  0
  2  1  2  0
  3  2  1  0
  4  3  2  0
  5  4  1  0
  6  5  2  0
  7  6  1  0
  8  7  2  0
  8  3  1  0
  9  7  1  0
 10  6  1  0
 11  2  1  0
 12 11  2  0
 13 11  1  0
 14 13  2  0
 15 14  1  0
 16 15  2  0
 17 16  1  0
 18 17  2  0
 18 13  1  0
  4 19  1  0
  5 20  1  0
  8 21  1  0
  9 22  1  0
  9 23  1  0
  9 24  1  0
 10 25  1  0
 10 26  1  0
 10 27  1  0
 14 28  1  0
 15 29  1  0
 16 30  1  0
 17 31  1  0
 18 32  1  0
M  END
>  <score>  (4) 
-10.179

$$$$
=
     RDKit          3D

 32 33  0  0  0  0  0  0  0  0999 V2000
    5.2280   69.4630   63.1330 O   0  0  0  0  0  0  0  0  0  0  0  0
    4.4220   69.0370   63.9530 C   0  0  0  0  0  0  0  0  0  0  0  0
    4.4850   69.4200   65.3890 C   0  0  0  0  0  0  0  0  0  0  0  0
    3.3160   69.3310   66.1510 C   0  0  0  0  0  0  0  0  0  0  0  0
    3.3260   69.6980   67.4970 C   0  0  0  0  0  0  0  0  0  0  0  0
    4.5010   70.1590   68.1070 C   0  0  0  0  0  0  0  0  0  0  0  0
    5.6850   70.2470   67.3460 C   0  0  0  0  0  0  0  0  0  0  0  0
    5.6640   69.8750   65.9900 C   0  0  0  0  0  0  0  0  0  0  0  0
    6.9740   70.7250   67.9580 C   0  0  0  0  0  0  0  0  0  0  0  0
    4.4740   70.5410   69.5620 C   0  0  0  0  0  0  0  0  0  0  0  0
    3.3670   68.0640   63.4830 C   0  0  0  0  0  0  0  0  0  0  0  0
    3.6330   66.8670   63.4910 O   0  0  0  0  0  0  0  0  0  0  0  0
    2.0610   68.5760   62.9930 C   0  0  0  0  0  0  0  0  0  0  0  0
    1.8950   69.0790   61.6970 C   0  0  0  0  0  0  0  0  0  0  0  0
    0.6420   69.5330   61.2770 C   0  0  0  0  0  0  0  0  0  0  0  0
   -0.4480   69.4850   62.1460 C   0  0  0  0  0  0  0  0  0  0  0  0
   -0.2900   68.9880   63.4380 C   0  0  0  0  0  0  0  0  0  0  0  0
    0.9610   68.5330   63.8610 C   0  0  0  0  0  0  0  0  0  0  0  0
    2.3857   68.9705   65.6878 H   0  0  0  0  0  0  0  0  0  0  0  0
    2.4004   69.6247   68.0869 H   0  0  0  0  0  0  0  0  0  0  0  0
    6.5861   69.9425   65.3941 H   0  0  0  0  0  0  0  0  0  0  0  0
    6.8926   70.6948   69.0546 H   0  0  0  0  0  0  0  0  0  0  0  0
    7.7981   70.0727   67.6334 H   0  0  0  0  0  0  0  0  0  0  0  0
    7.1735   71.7569   67.6334 H   0  0  0  0  0  0  0  0  0  0  0  0
    4.5381   69.6337   70.1806 H   0  0  0  0  0  0  0  0  0  0  0  0
    5.3280   71.1976   69.7846 H   0  0  0  0  0  0  0  0  0  0  0  0
    3.5362   71.0710   69.7846 H   0  0  0  0  0  0  0  0  0  0  0  0
    2.7521   69.1168   61.0085 H   0  0  0  0  0  0  0  0  0  0  0  0
    0.5149   69.9292   60.2587 H   0  0  0  0  0  0  0  0  0  0  0  0
   -1.4337   69.8400   61.8108 H   0  0  0  0  0  0  0  0  0  0  0  0
   -1.1493   68.9540   64.1239 H   0  0  0  0  0  0  0  0  0  0  0  0
    1.0837   68.1388   64.8806 H   0  0  0  0  0  0  0  0  0  0  0  0
  2  1  2  0
  3  2  1  0
  4  3  2  0
  5  4  1  0
  6  5  2  0
  7  6  1  0
  8  7  2  0
  8  3  1  0
  9  7  1  0
 10  6  1  0
 11  2  1  0
 12 11  2  0
 13 11  1  0
 14 13  2  0
 15 14  1  0
 16 15  2  0
 17 16  1  0
 18 17  2  0
 18 13  1  0
  4 19  1  0
  5 20  1  0
  8 21  1  0
  9 22  1  0
  9 23  1  0
  9 24  1  0
 10 25  1  0
 10 26  1  0
 10 27  1  0
 14 28  1  0
 15 29  1  0
 16 30  1  0
 17 31  1  0
 18 32  1  0
M  END
>  <score>  (5) 
-10.083

$$$$
=
     RDKit          3D

 32 33  0  0  0  0  0  0  0  0999 V2000
    3.6920   66.7440   64.7220 O   0  0  0  0  0  0  0  0  0  0  0  0
    3.2140   67.8450   64.9730 C   0  0  0  0  0  0  0  0  0  0  0  0
    1.7650   68.0270   65.2520 C   0  0  0  0  0  0  0  0  0  0  0  0
    1.0010   68.7630   64.3420 C   0  0  0  0  0  0  0  0  0  0  0  0
   -0.3590   68.9740   64.5740 C   0  0  0  0  0  0  0  0  0  0  0  0
   -0.9810   68.4550   65.7180 C   0  0  0  0  0  0  0  0  0  0  0  0
   -0.2180   67.7080   66.6390 C   0  0  0  0  0  0  0  0  0  0  0  0
    1.1520   67.5020   66.3960 C   0  0  0  0  0  0  0  0  0  0  0  0
   -0.8420   67.1200   67.8770 C   0  0  0  0  0  0  0  0  0  0  0  0
   -2.4490   68.7000   65.9320 C   0  0  0  0  0  0  0  0  0  0  0  0
    4.1290   69.0460   64.9520 C   0  0  0  0  0  0  0  0  0  0  0  0
    4.4960   69.4800   63.8660 O   0  0  0  0  0  0  0  0  0  0  0  0
    4.5900   69.6420   66.2340 C   0  0  0  0  0  0  0  0  0  0  0  0
    3.7230   69.8540   67.3120 C   0  0  0  0  0  0  0  0  0  0  0  0
    4.2080   70.4020   68.5030 C   0  0  0  0  0  0  0  0  0  0  0  0
    5.5570   70.7370   68.6210 C   0  0  0  0  0  0  0  0  0  0  0  0
    6.4250   70.5290   67.5510 C   0  0  0  0  0  0  0  0  0  0  0  0
    5.9440   69.9830   66.3590 C   0  0  0  0  0  0  0  0  0  0  0  0
    1.4735   69.1776   63.4393 H   0  0  0  0  0  0  0  0  0  0  0  0
   -0.9499   69.5546   63.8504 H   0  0  0  0  0  0  0  0  0  0  0  0
    1.7494   66.9210   67.1140 H   0  0  0  0  0  0  0  0  0  0  0  0
   -0.3734   67.5615   68.7689 H   0  0  0  0  0  0  0  0  0  0  0  0
   -1.9201   67.3381   67.8832 H   0  0  0  0  0  0  0  0  0  0  0  0
   -0.6882   66.0308   67.8832 H   0  0  0  0  0  0  0  0  0  0  0  0
   -2.6614   68.7354   67.0107 H   0  0  0  0  0  0  0  0  0  0  0  0
   -2.7319   69.6578   65.4709 H   0  0  0  0  0  0  0  0  0  0  0  0
   -3.0276   67.8860   65.4709 H   0  0  0  0  0  0  0  0  0  0  0  0
    2.6591   69.5892   67.2220 H   0  0  0  0  0  0  0  0  0  0  0  0
    3.5247   70.5694   69.3486 H   0  0  0  0  0  0  0  0  0  0  0  0
    5.9361   71.1661   69.5602 H   0  0  0  0  0  0  0  0  0  0  0  0
    7.4883   70.7947   67.6451 H   0  0  0  0  0  0  0  0  0  0  0  0
    6.6302   69.8199   65.5149 H   0  0  0  0  0  0  0  0  0  0  0  0
  2  1  2  0
  3  2  1  0
  4  3  2  0
  5  4  1  0
  6  5  2  0
  7  6  1  0
  8  7  2  0
  8  3  1  0
  9  7  1  0
 10  6  1  0
 11  2  1  0
 12 11  2  0
 13 11  1  0
 14 13  2  0
 15 14  1  0
 16 15  2  0
 17 16  1  0
 18 17  2  0
 18 13  1  0
  4 19  1  0
  5 20  1  0
  8 21  1  0
  9 22  1  0
  9 23  1  0
  9 24  1  0
 10 25  1  0
 10 26  1  0
 10 27  1  0
 14 28  1  0
 15 29  1  0
 16 30  1  0
 17 31  1  0
 18 32  1  0
M  END
>  <score>  (6) 
-9.613

$$$$
=
     RDKit          3D

 32 33  0  0  0  0  0  0  0  0999 V2000
    4.5970   67.0900   64.2780 O   0  0  0  0  0  0  0  0  0  0  0  0
    4.1080   68.1730   64.5800 C   0  0  0  0  0  0  0  0  0  0  0  0
    2.6380   68.3680   64.6860 C   0  0  0  0  0  0  0  0  0  0  0  0
    2.0150   68.0690   65.9010 C   0  0  0  0  0  0  0  0  0  0  0  0
    0.6350   68.2200   66.0400 C   0  0  0  0  0  0  0  0  0  0  0  0
   -0.1490   68.6730   64.9690 C   0  0  0  0  0  0  0  0  0  0  0  0
    0.4730   68.9810   63.7410 C   0  0  0  0  0  0  0  0  0  0  0  0
    1.8650   68.8250   63.6120 C   0  0  0  0  0  0  0  0  0  0  0  0
   -0.3230   69.4820   62.5660 C   0  0  0  0  0  0  0  0  0  0  0  0
   -1.6330   68.8280   65.1570 C   0  0  0  0  0  0  0  0  0  0  0  0
    5.0370   69.3420   64.8050 C   0  0  0  0  0  0  0  0  0  0  0  0
    5.6040   69.8310   63.8340 O   0  0  0  0  0  0  0  0  0  0  0  0
    5.2700   69.8400   66.1860 C   0  0  0  0  0  0  0  0  0  0  0  0
    6.5220   70.2980   66.6130 C   0  0  0  0  0  0  0  0  0  0  0  0
    6.6860   70.7730   67.9170 C   0  0  0  0  0  0  0  0  0  0  0  0
    5.6030   70.7960   68.7950 C   0  0  0  0  0  0  0  0  0  0  0  0
    4.3540   70.3410   68.3770 C   0  0  0  0  0  0  0  0  0  0  0  0
    4.1870   69.8650   67.0750 C   0  0  0  0  0  0  0  0  0  0  0  0
    2.6153   67.7131   66.7512 H   0  0  0  0  0  0  0  0  0  0  0  0
    0.1562   67.9809   67.0010 H   0  0  0  0  0  0  0  0  0  0  0  0
    2.3522   69.0651   62.6554 H   0  0  0  0  0  0  0  0  0  0  0  0
   -1.2021   70.0353   62.9278 H   0  0  0  0  0  0  0  0  0  0  0  0
    0.3041   70.1485   61.9557 H   0  0  0  0  0  0  0  0  0  0  0  0
   -0.6527   68.6283   61.9557 H   0  0  0  0  0  0  0  0  0  0  0  0
   -1.8659   68.8523   66.2318 H   0  0  0  0  0  0  0  0  0  0  0  0
   -1.9660   69.7658   64.6884 H   0  0  0  0  0  0  0  0  0  0  0  0
   -2.1526   67.9792   64.6884 H   0  0  0  0  0  0  0  0  0  0  0  0
    7.3774   70.2840   65.9216 H   0  0  0  0  0  0  0  0  0  0  0  0
    7.6714   71.1295   68.2515 H   0  0  0  0  0  0  0  0  0  0  0  0
    5.7349   71.1740   69.8195 H   0  0  0  0  0  0  0  0  0  0  0  0
    3.5011   70.3568   69.0715 H   0  0  0  0  0  0  0  0  0  0  0  0
    3.2002   69.5078   66.7454 H   0  0  0  0  0  0  0  0  0  0  0  0
  2  1  2  0
  3  2  1  0
  4  3  2  0
  5  4  1  0
  6  5  2  0
  7  6  1  0
  8  7  2  0
  8  3  1  0
  9  7  1  0
 10  6  1  0
 11  2  1  0
 12 11  2  0
 13 11  1  0
 14 13  2  0
 15 14  1  0
 16 15  2  0
 17 16  1  0
 18 17  2  0
 18 13  1  0
  4 19  1  0
  5 20  1  0
  8 21  1  0
  9 22  1  0
  9 23  1  0
  9 24  1  0
 10 25  1  0
 10 26  1  0
 10 27  1  0
 14 28  1  0
 15 29  1  0
 16 30  1  0
 17 31  1  0
 18 32  1  0
M  END
>  <score>  (7) 
-9.088

$$$$
=
     RDKit          3D

 32 33  0  0  0  0  0  0  0  0999 V2000
    3.3800   68.8090   66.1280 O   0  0  0  0  0  0  0  0  0  0  0  0
    2.6430   69.1020   67.0630 C   0  0  0  0  0  0  0  0  0  0  0  0
    1.2740   68.5350   67.1910 C   0  0  0  0  0  0  0  0  0  0  0  0
    1.0510   67.5540   68.1620 C   0  0  0  0  0  0  0  0  0  0  0  0
   -0.2130   66.9810   68.3050 C   0  0  0  0  0  0  0  0  0  0  0  0
   -1.2770   67.3760   67.4810 C   0  0  0  0  0  0  0  0  0  0  0  0
   -1.0610   68.3670   66.5020 C   0  0  0  0  0  0  0  0  0  0  0  0
    0.2180   68.9370   66.3660 C   0  0  0  0  0  0  0  0  0  0  0  0
   -2.1730   68.8320   65.6010 C   0  0  0  0  0  0  0  0  0  0  0  0
   -2.6270   66.7390   67.6670 C   0  0  0  0  0  0  0  0  0  0  0  0
    3.1380   70.1010   68.0820 C   0  0  0  0  0  0  0  0  0  0  0  0
    2.3100   70.7300   68.7310 O   0  0  0  0  0  0  0  0  0  0  0  0
    4.5980   70.3220   68.2450 C   0  0  0  0  0  0  0  0  0  0  0  0
    5.4780   70.3340   67.1560 C   0  0  0  0  0  0  0  0  0  0  0  0
    6.8410   70.5640   67.3600 C   0  0  0  0  0  0  0  0  0  0  0  0
    7.3290   70.7850   68.6470 C   0  0  0  0  0  0  0  0  0  0  0  0
    6.4590   70.7730   69.7360 C   0  0  0  0  0  0  0  0  0  0  0  0
    5.0970   70.5430   69.5370 C   0  0  0  0  0  0  0  0  0  0  0  0
    1.8753   67.2328   68.8157 H   0  0  0  0  0  0  0  0  0  0  0  0
   -0.3770   66.2106   69.0728 H   0  0  0  0  0  0  0  0  0  0  0  0
    0.3900   69.7087   65.6012 H   0  0  0  0  0  0  0  0  0  0  0  0
   -3.0168   69.1849   66.2121 H   0  0  0  0  0  0  0  0  0  0  0  0
   -1.8110   69.6541   64.9661 H   0  0  0  0  0  0  0  0  0  0  0  0
   -2.5040   67.9969   64.9661 H   0  0  0  0  0  0  0  0  0  0  0  0
   -2.8401   66.6385   68.7415 H   0  0  0  0  0  0  0  0  0  0  0  0
   -3.3973   67.3686   67.1978 H   0  0  0  0  0  0  0  0  0  0  0  0
   -2.6308   65.7441   67.1978 H   0  0  0  0  0  0  0  0  0  0  0  0
    5.0959   70.1622   66.1389 H   0  0  0  0  0  0  0  0  0  0  0  0
    7.5306   70.5707   66.5030 H   0  0  0  0  0  0  0  0  0  0  0  0
    8.4021   70.9691   68.8034 H   0  0  0  0  0  0  0  0  0  0  0  0
    6.8457   70.9447   70.7514 H   0  0  0  0  0  0  0  0  0  0  0  0
    4.4117   70.5350   70.3974 H   0  0  0  0  0  0  0  0  0  0  0  0
  2  1  2  0
  3  2  1  0
  4  3  2  0
  5  4  1  0
  6  5  2  0
  7  6  1  0
  8  7  2  0
  8  3  1  0
  9  7  1  0
 10  6  1  0
 11  2  1  0
 12 11  2  0
 13 11  1  0
 14 13  2  0
 15 14  1  0
 16 15  2  0
 17 16  1  0
 18 17  2  0
 18 13  1  0
  4 19  1  0
  5 20  1  0
  8 21  1  0
  9 22  1  0
  9 23  1  0
  9 24  1  0
 10 25  1  0
 10 26  1  0
 10 27  1  0
 14 28  1  0
 15 29  1  0
 16 30  1  0
 17 31  1  0
 18 32  1  0
M  END
>  <score>  (8) 
-8.608

$$$$
=
     RDKit          3D

 32 33  0  0  0  0  0  0  0  0999 V2000
    4.0060   58.6890   73.1490 O   0  0  0  0  0  0  0  0  0  0  0  0
    3.2760   59.2350   72.3290 C   0  0  0  0  0  0  0  0  0  0  0  0
    1.8990   59.6750   72.6740 C   0  0  0  0  0  0  0  0  0  0  0  0
    1.0920   58.8080   73.4170 C   0  0  0  0  0  0  0  0  0  0  0  0
   -0.2140   59.1720   73.7470 C   0  0  0  0  0  0  0  0  0  0  0  0
   -0.7390   60.4080   73.3410 C   0  0  0  0  0  0  0  0  0  0  0  0
    0.0700   61.2900   72.5960 C   0  0  0  0  0  0  0  0  0  0  0  0
    1.3850   60.9120   72.2680 C   0  0  0  0  0  0  0  0  0  0  0  0
   -0.4430   62.6320   72.1470 C   0  0  0  0  0  0  0  0  0  0  0  0
   -2.1490   60.7680   73.7200 C   0  0  0  0  0  0  0  0  0  0  0  0
    3.7920   59.4220   70.9220 C   0  0  0  0  0  0  0  0  0  0  0  0
    4.0310   58.4230   70.2520 O   0  0  0  0  0  0  0  0  0  0  0  0
    4.0320   60.7930   70.4020 C   0  0  0  0  0  0  0  0  0  0  0  0
    3.4620   61.2490   69.2080 C   0  0  0  0  0  0  0  0  0  0  0  0
    3.7040   62.5540   68.7700 C   0  0  0  0  0  0  0  0  0  0  0  0
    4.5110   63.4070   69.5220 C   0  0  0  0  0  0  0  0  0  0  0  0
    5.0820   62.9590   70.7120 C   0  0  0  0  0  0  0  0  0  0  0  0
    4.8440   61.6560   71.1520 C   0  0  0  0  0  0  0  0  0  0  0  0
    1.4883   57.8349   73.7427 H   0  0  0  0  0  0  0  0  0  0  0  0
   -0.8392   58.4817   74.3323 H   0  0  0  0  0  0  0  0  0  0  0  0
    2.0174   61.5976   71.6849 H   0  0  0  0  0  0  0  0  0  0  0  0
   -0.6784   63.2479   73.0275 H   0  0  0  0  0  0  0  0  0  0  0  0
    0.3262   63.1351   71.5427 H   0  0  0  0  0  0  0  0  0  0  0  0
   -1.3517   62.4937   71.5427 H   0  0  0  0  0  0  0  0  0  0  0  0
   -2.2395   60.7911   74.8160 H   0  0  0  0  0  0  0  0  0  0  0  0
   -2.3972   61.7583   73.3106 H   0  0  0  0  0  0  0  0  0  0  0  0
   -2.8416   60.0179   73.3106 H   0  0  0  0  0  0  0  0  0  0  0  0
    2.8228   60.5796   68.6136 H   0  0  0  0  0  0  0  0  0  0  0  0
    3.2568   62.9090   67.8298 H   0  0  0  0  0  0  0  0  0  0  0  0
    4.6972   64.4344   69.1758 H   0  0  0  0  0  0  0  0  0  0  0  0
    5.7198   63.6319   71.3040 H   0  0  0  0  0  0  0  0  0  0  0  0
    5.2955   61.3044   72.0914 H   0  0  0  0  0  0  0  0  0  0  0  0
  2  1  2  0
  3  2  1  0
  4  3  2  0
  5  4  1  0
  6  5  2  0
  7  6  1  0
  8  7  2  0
  8  3  1  0
  9  7  1  0
 10  6  1  0
 11  2  1  0
 12 11  2  0
 13 11  1  0
 14 13  2  0
 15 14  1  0
 16 15  2  0
 17 16  1  0
 18 17  2  0
 18 13  1  0
  4 19  1  0
  5 20  1  0
  8 21  1  0
  9 22  1  0
  9 23  1  0
  9 24  1  0
 10 25  1  0
 10 26  1  0
 10 27  1  0
 14 28  1  0
 15 29  1  0
 16 30  1  0
 17 31  1  0
 18 32  1  0
M  END
>  <score>  (9) 
-8.512

$$$$
