=
     RDKit          3D

 56 59  0  0  0  0  0  0  0  0999 V2000
    0.3880   67.5670   68.8300 C   0  0  2  0  0  0  0  0  0  0  0  0
   -0.7110   67.2370   67.8030 C   0  0  0  0  0  0  0  0  0  0  0  0
   -0.1500   66.8540   66.4400 C   0  0  0  0  0  0  0  0  0  0  0  0
    0.6920   67.9960   65.8260 N   0  0  2  0  0  4  0  0  0  0  0  0
    1.2970   68.9050   66.9130 C   0  0  0  0  0  0  0  0  0  0  0  0
    1.6700   68.1160   68.1730 C   0  0  1  0  0  0  0  0  0  0  0  0
   -0.2100   68.8600   64.9400 C   0  0  0  0  0  0  0  0  0  0  0  0
    1.3350   62.7580   72.8680 C   0  0  0  0  0  0  0  0  0  0  0  0
    0.4000   63.7670   72.6020 C   0  0  0  0  0  0  0  0  0  0  0  0
    0.6380   64.6560   71.5350 C   0  0  0  0  0  0  0  0  0  0  0  0
   -0.3660   65.9590   71.0310 S   0  0  0  0  0  0  0  0  0  0  0  0
    0.6850   66.4040   69.7590 C   0  0  0  0  0  0  0  0  0  0  0  0
    1.7880   65.5730   69.7220 C   0  0  0  0  0  0  0  0  0  0  0  0
    1.7750   64.5590   70.7380 C   0  0  0  0  0  0  0  0  0  0  0  0
    2.7090   63.5330   71.0220 C   0  0  0  0  0  0  0  0  0  0  0  0
    2.4910   62.6400   72.0800 C   0  0  0  0  0  0  0  0  0  0  0  0
    0.8730   62.3130   75.1780 C   0  0  0  0  0  0  0  0  0  0  0  0
    1.2050   61.8390   73.8810 O   0  0  0  0  0  0  0  0  0  0  0  0
    3.3470   61.6200   72.4190 O   0  0  0  0  0  0  0  0  0  0  0  0
    4.7010   61.7200   72.0060 C   0  0  0  0  0  0  0  0  0  0  0  0
    2.3510   68.9880   69.0730 O   0  0  0  0  0  0  0  0  0  0  0  0
    1.8010   67.3340   64.9560 C   0  0  0  0  0  0  0  0  0  0  0  0
    3.0110   68.1660   64.6120 C   0  0  0  0  0  0  0  0  0  0  0  0
    3.3890   68.3640   63.2730 C   0  0  0  0  0  0  0  0  0  0  0  0
    4.5070   69.1350   62.9560 C   0  0  0  0  0  0  0  0  0  0  0  0
    5.2690   69.7100   63.9710 C   0  0  0  0  0  0  0  0  0  0  0  0
    4.9200   69.5070   65.3030 C   0  0  0  0  0  0  0  0  0  0  0  0
    3.8020   68.7360   65.6230 C   0  0  0  0  0  0  0  0  0  0  0  0
   -0.0187   68.3767   69.4538 H   0  0  0  0  0  0  0  0  0  0  0  0
   -1.3086   66.3966   68.1857 H   0  0  0  0  0  0  0  0  0  0  0  0
   -1.3201   68.1429   67.6675 H   0  0  0  0  0  0  0  0  0  0  0  0
    0.4861   65.9638   66.5538 H   0  0  0  0  0  0  0  0  0  0  0  0
   -0.9955   66.6513   65.7662 H   0  0  0  0  0  0  0  0  0  0  0  0
    2.2022   69.3848   66.5125 H   0  0  0  0  0  0  0  0  0  0  0  0
    0.5416   69.6548   67.1906 H   0  0  0  0  0  0  0  0  0  0  0  0
    2.3255   67.2712   67.9150 H   0  0  0  0  0  0  0  0  0  0  0  0
   -0.8593   69.4819   65.5737 H   0  0  0  0  0  0  0  0  0  0  0  0
    0.4120   69.5079   64.3049 H   0  0  0  0  0  0  0  0  0  0  0  0
   -0.8306   68.2107   64.3049 H   0  0  0  0  0  0  0  0  0  0  0  0
   -0.5067   63.8638   73.2172 H   0  0  0  0  0  0  0  0  0  0  0  0
    2.5980   65.6782   68.9852 H   0  0  0  0  0  0  0  0  0  0  0  0
    3.6150   63.4359   70.4058 H   0  0  0  0  0  0  0  0  0  0  0  0
    1.3306   61.6596   75.9354 H   0  0  0  0  0  0  0  0  0  0  0  0
    1.2513   63.3385   75.3016 H   0  0  0  0  0  0  0  0  0  0  0  0
   -0.2200   62.3080   75.3016 H   0  0  0  0  0  0  0  0  0  0  0  0
    5.3518   61.7681   72.8915 H   0  0  0  0  0  0  0  0  0  0  0  0
    4.9665   60.8390   71.4032 H   0  0  0  0  0  0  0  0  0  0  0  0
    4.8342   62.6304   71.4032 H   0  0  0  0  0  0  0  0  0  0  0  0
    2.1460   68.7256   70.0053 H   0  0  0  0  0  0  0  0  0  0  0  0
    2.1566   66.4449   65.4974 H   0  0  0  0  0  0  0  0  0  0  0  0
    1.3152   67.1360   63.9891 H   0  0  0  0  0  0  0  0  0  0  0  0
    2.7970   67.9062   62.4668 H   0  0  0  0  0  0  0  0  0  0  0  0
    4.7876   69.2894   61.9036 H   0  0  0  0  0  0  0  0  0  0  0  0
    6.1462   70.3243   63.7196 H   0  0  0  0  0  0  0  0  0  0  0  0
    5.5262   69.9549   66.1042 H   0  0  0  0  0  0  0  0  0  0  0  0
    3.5373   68.5729   66.6781 H   0  0  0  0  0  0  0  0  0  0  0  0
  2  1  1  0
  3  2  1  0
  4  3  1  0
  5  4  1  0
  6  5  1  0
  6  1  1  0
  4  7  1  6
  9  8  2  0
 10  9  1  0
 11 10  1  0
 12  1  1  0
 12 11  1  0
 13 12  2  0
 14 10  2  0
 14 13  1  0
 15 14  1  0
 16 15  2  0
 16  8  1  0
 18 17  1  0
 18  8  1  0
 19 16  1  0
 20 19  1  0
 21  6  1  0
 22  4  1  0
 23 22  1  0
 24 23  2  0
 25 24  1  0
 26 25  2  0
 27 26  1  0
 28 27  2  0
 28 23  1  0
  1 29  1  1
  2 30  1  0
  2 31  1  0
  3 32  1  0
  3 33  1  0
  5 34  1  0
  5 35  1  0
  6 36  1  6
  7 37  1  0
  7 38  1  0
  7 39  1  0
  9 40  1  0
 13 41  1  0
 15 42  1  0
 17 43  1  0
 17 44  1  0
 17 45  1  0
 20 46  1  0
 20 47  1  0
 20 48  1  0
 21 49  1  0
 22 50  1  0
 22 51  1  0
 24 52  1  0
 25 53  1  0
 26 54  1  0
 27 55  1  0
 28 56  1  0
M  CHG  1   4   1
M  END
>  <score>  (1) 
-8.762

$$$$
=
     RDKit          3D

 56 59  0  0  0  0  0  0  0  0999 V2000
    2.4000   59.2000   73.2620 C   0  0  2  0  0  0  0  0  0  0  0  0
    3.2080   60.4180   73.7460 C   0  0  0  0  0  0  0  0  0  0  0  0
    3.3950   61.4710   72.6620 C   0  0  0  0  0  0  0  0  0  0  0  0
    4.1530   60.9060   71.4390 N   0  0  2  0  0  4  0  0  0  0  0  0
    3.9540   59.3830   71.3010 C   0  0  0  0  0  0  0  0  0  0  0  0
    2.5550   58.9490   71.7480 C   0  0  1  0  0  0  0  0  0  0  0  0
    5.6510   61.1700   71.6130 C   0  0  0  0  0  0  0  0  0  0  0  0
   -3.6660   59.1700   75.1370 C   0  0  0  0  0  0  0  0  0  0  0  0
   -2.5320   58.3480   75.1620 C   0  0  0  0  0  0  0  0  0  0  0  0
   -1.3370   58.8140   74.5790 C   0  0  0  0  0  0  0  0  0  0  0  0
    0.1670   57.9810   74.4950 S   0  0  0  0  0  0  0  0  0  0  0  0
    0.9420   59.2650   73.6750 C   0  0  0  0  0  0  0  0  0  0  0  0
    0.0650   60.3120   73.4650 C   0  0  0  0  0  0  0  0  0  0  0  0
   -1.2520   60.0690   73.9820 C   0  0  0  0  0  0  0  0  0  0  0  0
   -2.4080   60.8860   73.9670 C   0  0  0  0  0  0  0  0  0  0  0  0
   -3.6070   60.4380   74.5390 C   0  0  0  0  0  0  0  0  0  0  0  0
   -5.6740   57.8710   74.9710 C   0  0  0  0  0  0  0  0  0  0  0  0
   -4.8810   58.8170   75.6730 O   0  0  0  0  0  0  0  0  0  0  0  0
   -4.7700   61.1700   74.5660 O   0  0  0  0  0  0  0  0  0  0  0  0
   -4.8400   62.2810   75.4460 C   0  0  0  0  0  0  0  0  0  0  0  0
    2.3940   57.5610   71.4590 O   0  0  0  0  0  0  0  0  0  0  0  0
    3.6310   61.6630   70.1830 C   0  0  0  0  0  0  0  0  0  0  0  0
    2.5750   62.7190   70.3900 C   0  0  0  0  0  0  0  0  0  0  0  0
    1.2550   62.3610   70.7110 C   0  0  0  0  0  0  0  0  0  0  0  0
    0.2790   63.3390   70.9040 C   0  0  0  0  0  0  0  0  0  0  0  0
    0.6050   64.6870   70.7700 C   0  0  0  0  0  0  0  0  0  0  0  0
    1.9040   65.0570   70.4330 C   0  0  0  0  0  0  0  0  0  0  0  0
    2.8820   64.0810   70.2390 C   0  0  0  0  0  0  0  0  0  0  0  0
    2.8358   58.3295   73.7742 H   0  0  0  0  0  0  0  0  0  0  0  0
    2.6782   60.8767   74.5939 H   0  0  0  0  0  0  0  0  0  0  0  0
    4.2069   60.0591   74.0348 H   0  0  0  0  0  0  0  0  0  0  0  0
    2.4063   61.8257   72.3356 H   0  0  0  0  0  0  0  0  0  0  0  0
    3.9905   62.2943   73.0835 H   0  0  0  0  0  0  0  0  0  0  0  0
    4.0950   59.0996   70.2475 H   0  0  0  0  0  0  0  0  0  0  0  0
    4.6899   58.8823   71.9473 H   0  0  0  0  0  0  0  0  0  0  0  0
    1.7867   59.5269   71.2135 H   0  0  0  0  0  0  0  0  0  0  0  0
    5.8937   61.2128   72.6850 H   0  0  0  0  0  0  0  0  0  0  0  0
    6.2237   60.3589   71.1395 H   0  0  0  0  0  0  0  0  0  0  0  0
    5.9119   62.1280   71.1395 H   0  0  0  0  0  0  0  0  0  0  0  0
   -2.5739   57.3534   75.6299 H   0  0  0  0  0  0  0  0  0  0  0  0
    0.3487   61.2423   72.9511 H   0  0  0  0  0  0  0  0  0  0  0  0
   -2.3651   61.8820   73.5020 H   0  0  0  0  0  0  0  0  0  0  0  0
   -6.2081   57.2338   75.6912 H   0  0  0  0  0  0  0  0  0  0  0  0
   -6.4024   58.4002   74.3390 H   0  0  0  0  0  0  0  0  0  0  0  0
   -5.0258   57.2462   74.3390 H   0  0  0  0  0  0  0  0  0  0  0  0
   -4.8176   61.9262   76.4870 H   0  0  0  0  0  0  0  0  0  0  0  0
   -3.9819   62.9455   75.2666 H   0  0  0  0  0  0  0  0  0  0  0  0
   -5.7747   62.8325   75.2666 H   0  0  0  0  0  0  0  0  0  0  0  0
    2.3350   57.0522   72.3062 H   0  0  0  0  0  0  0  0  0  0  0  0
    4.4960   62.1515   69.7107 H   0  0  0  0  0  0  0  0  0  0  0  0
    3.1358   60.8893   69.5779 H   0  0  0  0  0  0  0  0  0  0  0  0
    0.9882   61.2986   70.8112 H   0  0  0  0  0  0  0  0  0  0  0  0
   -0.7492   63.0455   71.1623 H   0  0  0  0  0  0  0  0  0  0  0  0
   -0.1631   65.4579   70.9303 H   0  0  0  0  0  0  0  0  0  0  0  0
    2.1599   66.1208   70.3194 H   0  0  0  0  0  0  0  0  0  0  0  0
    3.9041   64.3815   69.9649 H   0  0  0  0  0  0  0  0  0  0  0  0
  2  1  1  0
  3  2  1  0
  4  3  1  0
  5  4  1  0
  6  5  1  0
  6  1  1  0
  4  7  1  1
  9  8  2  0
 10  9  1  0
 11 10  1  0
 12  1  1  0
 12 11  1  0
 13 12  2  0
 14 10  2  0
 14 13  1  0
 15 14  1  0
 16 15  2  0
 16  8  1  0
 18 17  1  0
 18  8  1  0
 19 16  1  0
 20 19  1  0
 21  6  1  0
 22  4  1  0
 23 22  1  0
 24 23  2  0
 25 24  1  0
 26 25  2  0
 27 26  1  0
 28 27  2  0
 28 23  1  0
  1 29  1  1
  2 30  1  0
  2 31  1  0
  3 32  1  0
  3 33  1  0
  5 34  1  0
  5 35  1  0
  6 36  1  6
  7 37  1  0
  7 38  1  0
  7 39  1  0
  9 40  1  0
 13 41  1  0
 15 42  1  0
 17 43  1  0
 17 44  1  0
 17 45  1  0
 20 46  1  0
 20 47  1  0
 20 48  1  0
 21 49  1  0
 22 50  1  0
 22 51  1  0
 24 52  1  0
 25 53  1  0
 26 54  1  0
 27 55  1  0
 28 56  1  0
M  CHG  1   4   1
M  END
>  <score>  (2) 
-8.558

$$$$
=
     RDKit          3D

 56 59  0  0  0  0  0  0  0  0999 V2000
    3.4410   58.9310   72.3620 C   0  0  2  0  0  0  0  0  0  0  0  0
    3.6720   60.3080   73.0120 C   0  0  0  0  0  0  0  0  0  0  0  0
    3.0900   61.4530   72.1920 C   0  0  0  0  0  0  0  0  0  0  0  0
    3.7200   61.5250   70.7820 N   0  0  2  0  0  4  0  0  0  0  0  0
    4.2300   60.1480   70.3150 C   0  0  0  0  0  0  0  0  0  0  0  0
    3.3410   59.0080   70.8250 C   0  0  1  0  0  0  0  0  0  0  0  0
    4.9150   62.4820   70.8170 C   0  0  0  0  0  0  0  0  0  0  0  0
   -1.6510   56.1410   74.9340 C   0  0  0  0  0  0  0  0  0  0  0  0
   -1.1630   57.4210   74.6420 C   0  0  0  0  0  0  0  0  0  0  0  0
    0.1020   57.5480   74.0330 C   0  0  0  0  0  0  0  0  0  0  0  0
    0.8940   59.0100   73.5880 S   0  0  0  0  0  0  0  0  0  0  0  0
    2.2610   58.1930   72.9660 C   0  0  0  0  0  0  0  0  0  0  0  0
    2.1170   56.8260   73.1010 C   0  0  0  0  0  0  0  0  0  0  0  0
    0.8770   56.4380   73.7120 C   0  0  0  0  0  0  0  0  0  0  0  0
    0.3670   55.1520   74.0140 C   0  0  0  0  0  0  0  0  0  0  0  0
   -0.8880   55.0050   74.6210 C   0  0  0  0  0  0  0  0  0  0  0  0
   -3.6800   57.0160   75.8630 C   0  0  0  0  0  0  0  0  0  0  0  0
   -2.8680   55.9010   75.5260 O   0  0  0  0  0  0  0  0  0  0  0  0
   -1.4520   53.7950   74.9460 O   0  0  0  0  0  0  0  0  0  0  0  0
   -0.7200   52.6160   74.6490 C   0  0  0  0  0  0  0  0  0  0  0  0
    3.7860   57.7860   70.2400 O   0  0  0  0  0  0  0  0  0  0  0  0
    2.6310   62.0840   69.8200 C   0  0  0  0  0  0  0  0  0  0  0  0
    1.8350   63.2800   70.2790 C   0  0  0  0  0  0  0  0  0  0  0  0
    2.2290   64.5820   69.9250 C   0  0  0  0  0  0  0  0  0  0  0  0
    1.4910   65.6870   70.3490 C   0  0  0  0  0  0  0  0  0  0  0  0
    0.3570   65.5100   71.1390 C   0  0  0  0  0  0  0  0  0  0  0  0
   -0.0350   64.2270   71.5140 C   0  0  0  0  0  0  0  0  0  0  0  0
    0.7020   63.1200   71.0920 C   0  0  0  0  0  0  0  0  0  0  0  0
    4.3387   58.3379   72.5908 H   0  0  0  0  0  0  0  0  0  0  0  0
    3.1995   60.3115   74.0054 H   0  0  0  0  0  0  0  0  0  0  0  0
    4.7587   60.4657   73.0765 H   0  0  0  0  0  0  0  0  0  0  0  0
    2.0050   61.3030   72.0904 H   0  0  0  0  0  0  0  0  0  0  0  0
    3.3107   62.3955   72.7145 H   0  0  0  0  0  0  0  0  0  0  0  0
    4.2404   60.1265   69.2153 H   0  0  0  0  0  0  0  0  0  0  0  0
    5.2409   60.0017   70.7232 H   0  0  0  0  0  0  0  0  0  0  0  0
    2.2919   59.1869   70.5468 H   0  0  0  0  0  0  0  0  0  0  0  0
    5.1826   62.6963   71.8622 H   0  0  0  0  0  0  0  0  0  0  0  0
    5.7718   62.0175   70.3070 H   0  0  0  0  0  0  0  0  0  0  0  0
    4.6490   63.4196   70.3070 H   0  0  0  0  0  0  0  0  0  0  0  0
   -1.7580   58.3139   74.8843 H   0  0  0  0  0  0  0  0  0  0  0  0
    2.8790   56.1041   72.7721 H   0  0  0  0  0  0  0  0  0  0  0  0
    0.9616   54.2594   73.7698 H   0  0  0  0  0  0  0  0  0  0  0  0
   -3.7448   57.1050   76.9575 H   0  0  0  0  0  0  0  0  0  0  0  0
   -3.2361   57.9321   75.4463 H   0  0  0  0  0  0  0  0  0  0  0  0
   -4.6882   56.8747   75.4463 H   0  0  0  0  0  0  0  0  0  0  0  0
   -0.4164   52.1270   75.5864 H   0  0  0  0  0  0  0  0  0  0  0  0
   -1.3512   51.9298   74.0652 H   0  0  0  0  0  0  0  0  0  0  0  0
    0.1749   52.8773   74.0652 H   0  0  0  0  0  0  0  0  0  0  0  0
    4.0200   57.1434   70.9559 H   0  0  0  0  0  0  0  0  0  0  0  0
    3.1338   62.3644   68.8827 H   0  0  0  0  0  0  0  0  0  0  0  0
    1.8915   61.2738   69.7375 H   0  0  0  0  0  0  0  0  0  0  0  0
    3.1274   64.7308   69.3080 H   0  0  0  0  0  0  0  0  0  0  0  0
    1.8050   66.7006   70.0590 H   0  0  0  0  0  0  0  0  0  0  0  0
   -0.2279   66.3823   71.4661 H   0  0  0  0  0  0  0  0  0  0  0  0
   -0.9262   64.0865   72.1433 H   0  0  0  0  0  0  0  0  0  0  0  0
    0.3917   62.1106   71.3999 H   0  0  0  0  0  0  0  0  0  0  0  0
  2  1  1  0
  3  2  1  0
  4  3  1  0
  5  4  1  0
  6  5  1  0
  6  1  1  0
  4  7  1  1
  9  8  2  0
 10  9  1  0
 11 10  1  0
 12  1  1  0
 12 11  1  0
 13 12  2  0
 14 10  2  0
 14 13  1  0
 15 14  1  0
 16 15  2  0
 16  8  1  0
 18 17  1  0
 18  8  1  0
 19 16  1  0
 20 19  1  0
 21  6  1  0
 22  4  1  0
 23 22  1  0
 24 23  2  0
 25 24  1  0
 26 25  2  0
 27 26  1  0
 28 27  2  0
 28 23  1  0
  1 29  1  6
  2 30  1  0
  2 31  1  0
  3 32  1  0
  3 33  1  0
  5 34  1  0
  5 35  1  0
  6 36  1  1
  7 37  1  0
  7 38  1  0
  7 39  1  0
  9 40  1  0
 13 41  1  0
 15 42  1  0
 17 43  1  0
 17 44  1  0
 17 45  1  0
 20 46  1  0
 20 47  1  0
 20 48  1  0
 21 49  1  0
 22 50  1  0
 22 51  1  0
 24 52  1  0
 25 53  1  0
 26 54  1  0
 27 55  1  0
 28 56  1  0
M  CHG  1   4   1
M  END
>  <score>  (3) 
-8.513

$$$$
=
     RDKit          3D

 56 59  0  0  0  0  0  0  0  0999 V2000
    3.1600   58.6020   72.8590 C   0  0  2  0  0  0  0  0  0  0  0  0
    3.5450   59.9850   73.4160 C   0  0  0  0  0  0  0  0  0  0  0  0
    3.1630   61.1250   72.4800 C   0  0  0  0  0  0  0  0  0  0  0  0
    3.8620   60.9980   71.1070 N   0  0  2  0  0  4  0  0  0  0  0  0
    4.2020   59.5310   70.7750 C   0  0  0  0  0  0  0  0  0  0  0  0
    3.1440   58.5640   71.3180 C   0  0  1  0  0  0  0  0  0  0  0  0
    5.1730   61.7880   71.1390 C   0  0  0  0  0  0  0  0  0  0  0  0
   -2.1270   56.0980   75.3300 C   0  0  0  0  0  0  0  0  0  0  0  0
   -0.8600   55.7010   74.8830 C   0  0  0  0  0  0  0  0  0  0  0  0
    0.0260   56.6780   74.3840 C   0  0  0  0  0  0  0  0  0  0  0  0
    1.6190   56.4200   73.7860 S   0  0  0  0  0  0  0  0  0  0  0  0
    1.8640   58.0780   73.4480 C   0  0  0  0  0  0  0  0  0  0  0  0
    0.7450   58.8150   73.7820 C   0  0  0  0  0  0  0  0  0  0  0  0
   -0.3230   58.0240   74.3240 C   0  0  0  0  0  0  0  0  0  0  0  0
   -1.6080   58.4060   74.7810 C   0  0  0  0  0  0  0  0  0  0  0  0
   -2.5030   57.4500   75.2790 C   0  0  0  0  0  0  0  0  0  0  0  0
   -2.7760   53.8440   75.8220 C   0  0  0  0  0  0  0  0  0  0  0  0
   -3.0680   55.2340   75.8340 O   0  0  0  0  0  0  0  0  0  0  0  0
   -3.7650   57.7400   75.7400 O   0  0  0  0  0  0  0  0  0  0  0  0
   -4.4800   58.7930   75.1130 C   0  0  0  0  0  0  0  0  0  0  0  0
    3.4460   57.2500   70.8530 O   0  0  0  0  0  0  0  0  0  0  0  0
    2.9050   61.6130   70.0440 C   0  0  0  0  0  0  0  0  0  0  0  0
    2.0720   62.8010   70.4540 C   0  0  0  0  0  0  0  0  0  0  0  0
    2.4560   64.1050   70.0980 C   0  0  0  0  0  0  0  0  0  0  0  0
    1.6830   65.2030   70.4760 C   0  0  0  0  0  0  0  0  0  0  0  0
    0.5230   65.0160   71.2230 C   0  0  0  0  0  0  0  0  0  0  0  0
    0.1390   63.7320   71.6010 C   0  0  0  0  0  0  0  0  0  0  0  0
    0.9100   62.6320   71.2240 C   0  0  0  0  0  0  0  0  0  0  0  0
    3.9574   57.9170   73.1828 H   0  0  0  0  0  0  0  0  0  0  0  0
    3.0312   60.1323   74.3774 H   0  0  0  0  0  0  0  0  0  0  0  0
    4.6388   60.0031   73.5313 H   0  0  0  0  0  0  0  0  0  0  0  0
    2.0737   61.1111   72.3278 H   0  0  0  0  0  0  0  0  0  0  0  0
    3.4852   62.0698   72.9420 H   0  0  0  0  0  0  0  0  0  0  0  0
    4.2605   59.4177   69.6824 H   0  0  0  0  0  0  0  0  0  0  0  0
    5.1637   59.2872   71.2501 H   0  0  0  0  0  0  0  0  0  0  0  0
    2.1429   58.8556   70.9676 H   0  0  0  0  0  0  0  0  0  0  0  0
    5.4684   61.9660   72.1835 H   0  0  0  0  0  0  0  0  0  0  0  0
    5.9598   61.2135   70.6282 H   0  0  0  0  0  0  0  0  0  0  0  0
    5.0327   62.7521   70.6282 H   0  0  0  0  0  0  0  0  0  0  0  0
   -0.5608   54.6431   74.9207 H   0  0  0  0  0  0  0  0  0  0  0  0
    0.6785   59.9045   73.6457 H   0  0  0  0  0  0  0  0  0  0  0  0
   -1.9064   59.4641   74.7446 H   0  0  0  0  0  0  0  0  0  0  0  0
   -2.6988   53.4766   76.8560 H   0  0  0  0  0  0  0  0  0  0  0  0
   -3.5805   53.3048   75.3004 H   0  0  0  0  0  0  0  0  0  0  0  0
   -1.8226   53.6741   75.3004 H   0  0  0  0  0  0  0  0  0  0  0  0
   -4.9222   59.4443   75.8813 H   0  0  0  0  0  0  0  0  0  0  0  0
   -3.7930   59.3801   74.4858 H   0  0  0  0  0  0  0  0  0  0  0  0
   -5.2791   58.3710   74.4858 H   0  0  0  0  0  0  0  0  0  0  0  0
    3.5840   56.6494   71.6278 H   0  0  0  0  0  0  0  0  0  0  0  0
    3.5216   61.9240   69.1878 H   0  0  0  0  0  0  0  0  0  0  0  0
    2.1729   60.8186   69.8367 H   0  0  0  0  0  0  0  0  0  0  0  0
    3.3757   64.2616   69.5152 H   0  0  0  0  0  0  0  0  0  0  0  0
    1.9903   66.2179   70.1835 H   0  0  0  0  0  0  0  0  0  0  0  0
   -0.0896   65.8819   71.5143 H   0  0  0  0  0  0  0  0  0  0  0  0
   -0.7734   63.5848   72.1976 H   0  0  0  0  0  0  0  0  0  0  0  0
    0.6043   61.6216   71.5333 H   0  0  0  0  0  0  0  0  0  0  0  0
  2  1  1  0
  3  2  1  0
  4  3  1  0
  5  4  1  0
  6  5  1  0
  6  1  1  0
  4  7  1  1
  9  8  2  0
 10  9  1  0
 11 10  1  0
 12  1  1  0
 12 11  1  0
 13 12  2  0
 14 10  2  0
 14 13  1  0
 15 14  1  0
 16 15  2  0
 16  8  1  0
 18 17  1  0
 18  8  1  0
 19 16  1  0
 20 19  1  0
 21  6  1  0
 22  4  1  0
 23 22  1  0
 24 23  2  0
 25 24  1  0
 26 25  2  0
 27 26  1  0
 28 27  2  0
 28 23  1  0
  1 29  1  1
  2 30  1  0
  2 31  1  0
  3 32  1  0
  3 33  1  0
  5 34  1  0
  5 35  1  0
  6 36  1  6
  7 37  1  0
  7 38  1  0
  7 39  1  0
  9 40  1  0
 13 41  1  0
 15 42  1  0
 17 43  1  0
 17 44  1  0
 17 45  1  0
 20 46  1  0
 20 47  1  0
 20 48  1  0
 21 49  1  0
 22 50  1  0
 22 51  1  0
 24 52  1  0
 25 53  1  0
 26 54  1  0
 27 55  1  0
 28 56  1  0
M  CHG  1   4   1
M  END
>  <score>  (4) 
-8.414

$$$$
=
     RDKit          3D

 56 59  0  0  0  0  0  0  0  0999 V2000
    0.2160   62.2020   73.0590 C   0  0  2  0  0  0  0  0  0  0  0  0
   -0.5230   62.5700   71.7590 C   0  0  0  0  0  0  0  0  0  0  0  0
    0.4230   62.9640   70.6330 C   0  0  0  0  0  0  0  0  0  0  0  0
    1.2810   64.1940   71.0090 N   0  0  2  0  0  4  0  0  0  0  0  0
    1.4730   64.3090   72.5350 C   0  0  0  0  0  0  0  0  0  0  0  0
    1.5670   62.9330   73.2020 C   0  0  1  0  0  0  0  0  0  0  0  0
    0.5720   65.4630   70.5290 C   0  0  0  0  0  0  0  0  0  0  0  0
    1.1660   55.9590   73.7290 C   0  0  0  0  0  0  0  0  0  0  0  0
    1.8600   57.1140   73.3450 C   0  0  0  0  0  0  0  0  0  0  0  0
    1.1850   58.3510   73.3540 C   0  0  0  0  0  0  0  0  0  0  0  0
    1.8340   59.8870   72.9240 S   0  0  0  0  0  0  0  0  0  0  0  0
    0.3650   60.7030   73.2400 C   0  0  0  0  0  0  0  0  0  0  0  0
   -0.6060   59.8160   73.6610 C   0  0  0  0  0  0  0  0  0  0  0  0
   -0.1500   58.4580   73.7340 C   0  0  0  0  0  0  0  0  0  0  0  0
   -0.8340   57.2790   74.1190 C   0  0  0  0  0  0  0  0  0  0  0  0
   -0.1810   56.0390   74.1150 C   0  0  0  0  0  0  0  0  0  0  0  0
    2.2310   54.2240   74.9940 C   0  0  0  0  0  0  0  0  0  0  0  0
    1.7230   54.7030   73.7570 O   0  0  0  0  0  0  0  0  0  0  0  0
   -0.7740   54.8530   74.4750 O   0  0  0  0  0  0  0  0  0  0  0  0
   -1.7830   54.8860   75.4730 C   0  0  0  0  0  0  0  0  0  0  0  0
    1.8860   63.1140   74.5800 O   0  0  0  0  0  0  0  0  0  0  0  0
    2.6460   64.0470   70.2740 C   0  0  0  0  0  0  0  0  0  0  0  0
    3.3190   62.6980   70.3100 C   0  0  0  0  0  0  0  0  0  0  0  0
    4.4360   62.4750   71.1320 C   0  0  0  0  0  0  0  0  0  0  0  0
    5.0570   61.2260   71.1660 C   0  0  0  0  0  0  0  0  0  0  0  0
    4.5770   60.1860   70.3730 C   0  0  0  0  0  0  0  0  0  0  0  0
    3.4830   60.3960   69.5390 C   0  0  0  0  0  0  0  0  0  0  0  0
    2.8610   61.6450   69.5020 C   0  0  0  0  0  0  0  0  0  0  0  0
   -0.4247   62.5589   73.8788 H   0  0  0  0  0  0  0  0  0  0  0  0
   -1.1145   61.7016   71.4333 H   0  0  0  0  0  0  0  0  0  0  0  0
   -1.1601   63.4401   71.9756 H   0  0  0  0  0  0  0  0  0  0  0  0
    1.0905   62.1171   70.4158 H   0  0  0  0  0  0  0  0  0  0  0  0
   -0.1827   63.2254   69.7528 H   0  0  0  0  0  0  0  0  0  0  0  0
    2.3998   64.8663   72.7362 H   0  0  0  0  0  0  0  0  0  0  0  0
    0.5991   64.8316   72.9511 H   0  0  0  0  0  0  0  0  0  0  0  0
    2.3498   62.3281   72.7211 H   0  0  0  0  0  0  0  0  0  0  0  0
    0.2436   66.0508   71.3988 H   0  0  0  0  0  0  0  0  0  0  0  0
    1.2656   66.0631   69.9216 H   0  0  0  0  0  0  0  0  0  0  0  0
   -0.3026   65.1869   69.9216 H   0  0  0  0  0  0  0  0  0  0  0  0
    2.9156   57.0561   73.0411 H   0  0  0  0  0  0  0  0  0  0  0  0
   -1.6314   60.1217   73.9161 H   0  0  0  0  0  0  0  0  0  0  0  0
   -1.8891   57.3373   74.4244 H   0  0  0  0  0  0  0  0  0  0  0  0
    1.7050   54.7199   75.8231 H   0  0  0  0  0  0  0  0  0  0  0  0
    2.0745   53.1371   75.0584 H   0  0  0  0  0  0  0  0  0  0  0  0
    3.3068   54.4440   75.0584 H   0  0  0  0  0  0  0  0  0  0  0  0
   -1.3149   54.8707   76.4683 H   0  0  0  0  0  0  0  0  0  0  0  0
   -2.3786   55.8041   75.3620 H   0  0  0  0  0  0  0  0  0  0  0  0
   -2.4373   54.0088   75.3620 H   0  0  0  0  0  0  0  0  0  0  0  0
    1.1753   62.7108   75.1390 H   0  0  0  0  0  0  0  0  0  0  0  0
    2.4795   64.3031   69.2173 H   0  0  0  0  0  0  0  0  0  0  0  0
    3.3295   64.7137   70.8202 H   0  0  0  0  0  0  0  0  0  0  0  0
    4.8252   63.2935   71.7554 H   0  0  0  0  0  0  0  0  0  0  0  0
    5.9265   61.0623   71.8196 H   0  0  0  0  0  0  0  0  0  0  0  0
    5.0625   59.1995   70.4061 H   0  0  0  0  0  0  0  0  0  0  0  0
    3.1079   59.5767   68.9081 H   0  0  0  0  0  0  0  0  0  0  0  0
    2.0030   61.8061   68.8328 H   0  0  0  0  0  0  0  0  0  0  0  0
  2  1  1  0
  3  2  1  0
  4  3  1  0
  5  4  1  0
  6  5  1  0
  6  1  1  0
  4  7  1  6
  9  8  2  0
 10  9  1  0
 11 10  1  0
 12  1  1  0
 12 11  1  0
 13 12  2  0
 14 10  2  0
 14 13  1  0
 15 14  1  0
 16 15  2  0
 16  8  1  0
 18 17  1  0
 18  8  1  0
 19 16  1  0
 20 19  1  0
 21  6  1  0
 22  4  1  0
 23 22  1  0
 24 23  2  0
 25 24  1  0
 26 25  2  0
 27 26  1  0
 28 27  2  0
 28 23  1  0
  1 29  1  1
  2 30  1  0
  2 31  1  0
  3 32  1  0
  3 33  1  0
  5 34  1  0
  5 35  1  0
  6 36  1  6
  7 37  1  0
  7 38  1  0
  7 39  1  0
  9 40  1  0
 13 41  1  0
 15 42  1  0
 17 43  1  0
 17 44  1  0
 17 45  1  0
 20 46  1  0
 20 47  1  0
 20 48  1  0
 21 49  1  0
 22 50  1  0
 22 51  1  0
 24 52  1  0
 25 53  1  0
 26 54  1  0
 27 55  1  0
 28 56  1  0
M  CHG  1   4   1
M  END
>  <score>  (5) 
-8.302

$$$$
=
     RDKit          3D

 56 59  0  0  0  0  0  0  0  0999 V2000
    0.2100   66.9470   69.4360 C   0  0  2  0  0  0  0  0  0  0  0  0
   -0.9540   66.8640   68.4310 C   0  0  0  0  0  0  0  0  0  0  0  0
   -0.4810   66.7940   66.9850 C   0  0  0  0  0  0  0  0  0  0  0  0
    0.3470   68.0400   66.5920 N   0  0  2  0  0  4  0  0  0  0  0  0
    1.0340   68.6760   67.8170 C   0  0  0  0  0  0  0  0  0  0  0  0
    1.4630   67.6210   68.8410 C   0  0  1  0  0  0  0  0  0  0  0  0
   -0.5870   69.0870   65.9790 C   0  0  0  0  0  0  0  0  0  0  0  0
    1.9020   61.3710   71.9590 C   0  0  0  0  0  0  0  0  0  0  0  0
    2.4630   62.4420   71.2540 C   0  0  0  0  0  0  0  0  0  0  0  0
    1.6390   63.5240   70.8840 C   0  0  0  0  0  0  0  0  0  0  0  0
    2.1110   64.9360   70.0210 S   0  0  0  0  0  0  0  0  0  0  0  0
    0.5370   65.6030   70.0600 C   0  0  0  0  0  0  0  0  0  0  0  0
   -0.3360   64.7580   70.7180 C   0  0  0  0  0  0  0  0  0  0  0  0
    0.2840   63.5560   71.2000 C   0  0  0  0  0  0  0  0  0  0  0  0
   -0.2660   62.4630   71.9140 C   0  0  0  0  0  0  0  0  0  0  0  0
    0.5380   61.3780   72.2890 C   0  0  0  0  0  0  0  0  0  0  0  0
    3.7330   59.8660   71.5960 C   0  0  0  0  0  0  0  0  0  0  0  0
    2.6110   60.2670   72.3690 O   0  0  0  0  0  0  0  0  0  0  0  0
    0.0810   60.2830   72.9810 O   0  0  0  0  0  0  0  0  0  0  0  0
   -1.2100   60.3530   73.5670 C   0  0  0  0  0  0  0  0  0  0  0  0
    2.2130   68.2640   69.8710 O   0  0  0  0  0  0  0  0  0  0  0  0
    1.3900   67.5830   65.5300 C   0  0  0  0  0  0  0  0  0  0  0  0
    2.6630   68.3820   65.4080 C   0  0  0  0  0  0  0  0  0  0  0  0
    3.2290   69.0050   66.5330 C   0  0  0  0  0  0  0  0  0  0  0  0
    4.4080   69.7420   66.4200 C   0  0  0  0  0  0  0  0  0  0  0  0
    5.0320   69.8750   65.1810 C   0  0  0  0  0  0  0  0  0  0  0  0
    4.4730   69.2800   64.0540 C   0  0  0  0  0  0  0  0  0  0  0  0
    3.2940   68.5420   64.1640 C   0  0  0  0  0  0  0  0  0  0  0  0
   -0.1428   67.5985   70.2491 H   0  0  0  0  0  0  0  0  0  0  0  0
   -1.5452   65.9629   68.6515 H   0  0  0  0  0  0  0  0  0  0  0  0
   -1.5519   67.7809   68.5400 H   0  0  0  0  0  0  0  0  0  0  0  0
    0.1426   65.8969   66.8571 H   0  0  0  0  0  0  0  0  0  0  0  0
   -1.3682   66.7537   66.3360 H   0  0  0  0  0  0  0  0  0  0  0  0
    1.9242   69.2271   67.4796 H   0  0  0  0  0  0  0  0  0  0  0  0
    0.3120   69.3493   68.3022 H   0  0  0  0  0  0  0  0  0  0  0  0
    2.0845   66.8513   68.3600 H   0  0  0  0  0  0  0  0  0  0  0  0
   -1.0871   69.6476   66.7825 H   0  0  0  0  0  0  0  0  0  0  0  0
   -0.0022   69.7807   65.3570 H   0  0  0  0  0  0  0  0  0  0  0  0
   -1.3427   68.5849   65.3570 H   0  0  0  0  0  0  0  0  0  0  0  0
    3.5315   62.4394   70.9925 H   0  0  0  0  0  0  0  0  0  0  0  0
   -1.4032   64.9844   70.8590 H   0  0  0  0  0  0  0  0  0  0  0  0
   -1.3342   62.4659   72.1766 H   0  0  0  0  0  0  0  0  0  0  0  0
    4.5542   59.5725   72.2665 H   0  0  0  0  0  0  0  0  0  0  0  0
    3.4546   59.0117   70.9614 H   0  0  0  0  0  0  0  0  0  0  0  0
    4.0592   60.7032   70.9614 H   0  0  0  0  0  0  0  0  0  0  0  0
   -1.1160   60.3479   74.6630 H   0  0  0  0  0  0  0  0  0  0  0  0
   -1.7086   61.2795   73.2461 H   0  0  0  0  0  0  0  0  0  0  0  0
   -1.8059   59.4858   73.2461 H   0  0  0  0  0  0  0  0  0  0  0  0
    1.8750   67.9742   70.7552 H   0  0  0  0  0  0  0  0  0  0  0  0
    1.6737   66.5482   65.7724 H   0  0  0  0  0  0  0  0  0  0  0  0
    0.8818   67.7210   64.5642 H   0  0  0  0  0  0  0  0  0  0  0  0
    2.7376   68.9107   67.5126 H   0  0  0  0  0  0  0  0  0  0  0  0
    4.8455   70.2186   67.3096 H   0  0  0  0  0  0  0  0  0  0  0  0
    5.9658   70.4499   65.0939 H   0  0  0  0  0  0  0  0  0  0  0  0
    4.9615   69.3917   63.0748 H   0  0  0  0  0  0  0  0  0  0  0  0
    2.8545   68.0810   63.2672 H   0  0  0  0  0  0  0  0  0  0  0  0
  2  1  1  0
  3  2  1  0
  4  3  1  0
  5  4  1  0
  6  5  1  0
  6  1  1  0
  4  7  1  6
  9  8  2  0
 10  9  1  0
 11 10  1  0
 12  1  1  0
 12 11  1  0
 13 12  2  0
 14 10  2  0
 14 13  1  0
 15 14  1  0
 16 15  2  0
 16  8  1  0
 18 17  1  0
 18  8  1  0
 19 16  1  0
 20 19  1  0
 21  6  1  0
 22  4  1  0
 23 22  1  0
 24 23  2  0
 25 24  1  0
 26 25  2  0
 27 26  1  0
 28 27  2  0
 28 23  1  0
  1 29  1  1
  2 30  1  0
  2 31  1  0
  3 32  1  0
  3 33  1  0
  5 34  1  0
  5 35  1  0
  6 36  1  6
  7 37  1  0
  7 38  1  0
  7 39  1  0
  9 40  1  0
 13 41  1  0
 15 42  1  0
 17 43  1  0
 17 44  1  0
 17 45  1  0
 20 46  1  0
 20 47  1  0
 20 48  1  0
 21 49  1  0
 22 50  1  0
 22 51  1  0
 24 52  1  0
 25 53  1  0
 26 54  1  0
 27 55  1  0
 28 56  1  0
M  CHG  1   4   1
M  END
>  <score>  (6) 
-8.257

$$$$
=
     RDKit          3D

 56 59  0  0  0  0  0  0  0  0999 V2000
    2.5860   58.9850   73.3100 C   0  0  2  0  0  0  0  0  0  0  0  0
    3.3060   60.2820   73.7260 C   0  0  0  0  0  0  0  0  0  0  0  0
    3.3990   61.2950   72.5910 C   0  0  0  0  0  0  0  0  0  0  0  0
    4.1810   60.7310   71.3830 N   0  0  2  0  0  4  0  0  0  0  0  0
    4.0960   59.1930   71.3170 C   0  0  0  0  0  0  0  0  0  0  0  0
    2.7390   58.6760   71.8070 C   0  0  1  0  0  0  0  0  0  0  0  0
    5.6570   61.1140   71.5200 C   0  0  0  0  0  0  0  0  0  0  0  0
   -3.5350   59.1870   74.9850 C   0  0  0  0  0  0  0  0  0  0  0  0
   -2.5720   59.9780   74.3460 C   0  0  0  0  0  0  0  0  0  0  0  0
   -1.2630   59.4770   74.2010 C   0  0  0  0  0  0  0  0  0  0  0  0
    0.0710   60.2690   73.4550 S   0  0  0  0  0  0  0  0  0  0  0  0
    1.1330   58.9610   73.7450 C   0  0  0  0  0  0  0  0  0  0  0  0
    0.4810   57.9390   74.4060 C   0  0  0  0  0  0  0  0  0  0  0  0
   -0.9010   58.2190   74.6750 C   0  0  0  0  0  0  0  0  0  0  0  0
   -1.8890   57.4340   75.3180 C   0  0  0  0  0  0  0  0  0  0  0  0
   -3.1960   57.9160   75.4730 C   0  0  0  0  0  0  0  0  0  0  0  0
   -5.1710   60.9400   74.9700 C   0  0  0  0  0  0  0  0  0  0  0  0
   -4.8390   59.5750   75.1810 O   0  0  0  0  0  0  0  0  0  0  0  0
   -4.2080   57.2170   76.0840 O   0  0  0  0  0  0  0  0  0  0  0  0
   -3.8810   56.4110   77.2060 C   0  0  0  0  0  0  0  0  0  0  0  0
    2.6800   57.2680   71.5850 O   0  0  0  0  0  0  0  0  0  0  0  0
    3.5860   61.3870   70.1020 C   0  0  0  0  0  0  0  0  0  0  0  0
    2.6450   62.5520   70.2840 C   0  0  0  0  0  0  0  0  0  0  0  0
    3.1220   63.8730   70.2470 C   0  0  0  0  0  0  0  0  0  0  0  0
    2.2500   64.9490   70.4120 C   0  0  0  0  0  0  0  0  0  0  0  0
    0.8920   64.7210   70.6270 C   0  0  0  0  0  0  0  0  0  0  0  0
    0.4070   63.4170   70.6850 C   0  0  0  0  0  0  0  0  0  0  0  0
    1.2770   62.3390   70.5200 C   0  0  0  0  0  0  0  0  0  0  0  0
    3.0936   58.1735   73.8521 H   0  0  0  0  0  0  0  0  0  0  0  0
    2.7536   60.7387   74.5605 H   0  0  0  0  0  0  0  0  0  0  0  0
    4.3326   60.0131   74.0154 H   0  0  0  0  0  0  0  0  0  0  0  0
    2.3822   61.5595   72.2652 H   0  0  0  0  0  0  0  0  0  0  0  0
    3.9363   62.1793   72.9643 H   0  0  0  0  0  0  0  0  0  0  0  0
    4.2439   58.8727   70.2751 H   0  0  0  0  0  0  0  0  0  0  0  0
    4.8763   58.7792   71.9726 H   0  0  0  0  0  0  0  0  0  0  0  0
    1.9221   59.1687   71.2593 H   0  0  0  0  0  0  0  0  0  0  0  0
    5.9207   61.1824   72.5857 H   0  0  0  0  0  0  0  0  0  0  0  0
    6.2810   60.3480   71.0363 H   0  0  0  0  0  0  0  0  0  0  0  0
    5.8298   62.0867   71.0363 H   0  0  0  0  0  0  0  0  0  0  0  0
   -2.8336   60.9755   73.9630 H   0  0  0  0  0  0  0  0  0  0  0  0
    0.9735   56.9999   74.6985 H   0  0  0  0  0  0  0  0  0  0  0  0
   -1.6280   56.4359   75.6996 H   0  0  0  0  0  0  0  0  0  0  0  0
   -5.2931   61.4420   75.9411 H   0  0  0  0  0  0  0  0  0  0  0  0
   -4.3658   61.4298   74.4027 H   0  0  0  0  0  0  0  0  0  0  0  0
   -6.1112   61.0052   74.4027 H   0  0  0  0  0  0  0  0  0  0  0  0
   -4.1047   56.9623   78.1312 H   0  0  0  0  0  0  0  0  0  0  0  0
   -4.4747   55.4854   77.1781 H   0  0  0  0  0  0  0  0  0  0  0  0
   -2.8102   56.1607   77.1781 H   0  0  0  0  0  0  0  0  0  0  0  0
    2.6603   56.7972   72.4557 H   0  0  0  0  0  0  0  0  0  0  0  0
    4.4300   61.7387   69.4905 H   0  0  0  0  0  0  0  0  0  0  0  0
    2.9683   60.5988   69.6469 H   0  0  0  0  0  0  0  0  0  0  0  0
    4.1939   64.0605   70.0863 H   0  0  0  0  0  0  0  0  0  0  0  0
    2.6346   65.9788   70.3724 H   0  0  0  0  0  0  0  0  0  0  0  0
    0.2040   65.5703   70.7508 H   0  0  0  0  0  0  0  0  0  0  0  0
   -0.6637   63.2366   70.8612 H   0  0  0  0  0  0  0  0  0  0  0  0
    0.8876   61.3117   70.5753 H   0  0  0  0  0  0  0  0  0  0  0  0
  2  1  1  0
  3  2  1  0
  4  3  1  0
  5  4  1  0
  6  5  1  0
  6  1  1  0
  4  7  1  1
  9  8  2  0
 10  9  1  0
 11 10  1  0
 12  1  1  0
 12 11  1  0
 13 12  2  0
 14 10  2  0
 14 13  1  0
 15 14  1  0
 16 15  2  0
 16  8  1  0
 18 17  1  0
 18  8  1  0
 19 16  1  0
 20 19  1  0
 21  6  1  0
 22  4  1  0
 23 22  1  0
 24 23  2  0
 25 24  1  0
 26 25  2  0
 27 26  1  0
 28 27  2  0
 28 23  1  0
  1 29  1  1
  2 30  1  0
  2 31  1  0
  3 32  1  0
  3 33  1  0
  5 34  1  0
  5 35  1  0
  6 36  1  6
  7 37  1  0
  7 38  1  0
  7 39  1  0
  9 40  1  0
 13 41  1  0
 15 42  1  0
 17 43  1  0
 17 44  1  0
 17 45  1  0
 20 46  1  0
 20 47  1  0
 20 48  1  0
 21 49  1  0
 22 50  1  0
 22 51  1  0
 24 52  1  0
 25 53  1  0
 26 54  1  0
 27 55  1  0
 28 56  1  0
M  CHG  1   4   1
M  END
>  <score>  (7) 
-8.077

$$$$
=
     RDKit          3D

 56 59  0  0  0  0  0  0  0  0999 V2000
   -0.4340   61.5950   73.9560 C   0  0  2  0  0  0  0  0  0  0  0  0
   -0.8120   61.9750   72.5120 C   0  0  0  0  0  0  0  0  0  0  0  0
    0.4040   62.1610   71.6130 C   0  0  0  0  0  0  0  0  0  0  0  0
    1.3310   63.2850   72.1300 N   0  0  2  0  0  4  0  0  0  0  0  0
    1.2040   63.4720   73.6550 C   0  0  0  0  0  0  0  0  0  0  0  0
    0.9460   62.1430   74.3730 C   0  0  1  0  0  0  0  0  0  0  0  0
    0.9390   64.6050   71.4610 C   0  0  0  0  0  0  0  0  0  0  0  0
   -1.1530   55.4270   75.2810 C   0  0  0  0  0  0  0  0  0  0  0  0
   -1.6140   56.6770   75.7130 C   0  0  0  0  0  0  0  0  0  0  0  0
   -1.1370   57.8400   75.0750 C   0  0  0  0  0  0  0  0  0  0  0  0
   -1.5630   59.4670   75.4370 S   0  0  0  0  0  0  0  0  0  0  0  0
   -0.5510   60.1050   74.2150 C   0  0  0  0  0  0  0  0  0  0  0  0
    0.1050   59.0910   73.5450 C   0  0  0  0  0  0  0  0  0  0  0  0
   -0.2230   57.7800   74.0270 C   0  0  0  0  0  0  0  0  0  0  0  0
    0.2320   56.5060   73.6040 C   0  0  0  0  0  0  0  0  0  0  0  0
   -0.2300   55.3390   74.2280 C   0  0  0  0  0  0  0  0  0  0  0  0
   -2.9180   53.8650   75.7210 C   0  0  0  0  0  0  0  0  0  0  0  0
   -1.5500   54.2320   75.8310 O   0  0  0  0  0  0  0  0  0  0  0  0
    0.1620   54.0700   73.8770 O   0  0  0  0  0  0  0  0  0  0  0  0
    1.5110   53.6970   74.1140 C   0  0  0  0  0  0  0  0  0  0  0  0
    0.9830   62.3690   75.7800 O   0  0  0  0  0  0  0  0  0  0  0  0
    2.7860   62.9050   71.7250 C   0  0  0  0  0  0  0  0  0  0  0  0
    3.0470   61.4800   71.3060 C   0  0  0  0  0  0  0  0  0  0  0  0
    3.2380   60.4730   72.2660 C   0  0  0  0  0  0  0  0  0  0  0  0
    3.4780   59.1550   71.8770 C   0  0  0  0  0  0  0  0  0  0  0  0
    3.5400   58.8260   70.5250 C   0  0  0  0  0  0  0  0  0  0  0  0
    3.3710   59.8160   69.5610 C   0  0  0  0  0  0  0  0  0  0  0  0
    3.1320   61.1360   69.9470 C   0  0  0  0  0  0  0  0  0  0  0  0
   -1.1766   62.0885   74.6002 H   0  0  0  0  0  0  0  0  0  0  0  0
   -1.4410   61.1765   72.0916 H   0  0  0  0  0  0  0  0  0  0  0  0
   -1.3451   62.9364   72.5512 H   0  0  0  0  0  0  0  0  0  0  0  0
    0.9705   61.2187   71.5802 H   0  0  0  0  0  0  0  0  0  0  0  0
    0.0494   62.4430   70.6107 H   0  0  0  0  0  0  0  0  0  0  0  0
    2.1378   63.9085   74.0390 H   0  0  0  0  0  0  0  0  0  0  0  0
    0.3482   64.1358   73.8475 H   0  0  0  0  0  0  0  0  0  0  0  0
    1.7158   61.4061   74.1003 H   0  0  0  0  0  0  0  0  0  0  0  0
    0.7161   65.3556   72.2336 H   0  0  0  0  0  0  0  0  0  0  0  0
    1.7706   64.9596   70.8344 H   0  0  0  0  0  0  0  0  0  0  0  0
    0.0486   64.4482   70.8344 H   0  0  0  0  0  0  0  0  0  0  0  0
   -2.3377   56.7501   76.5381 H   0  0  0  0  0  0  0  0  0  0  0  0
    0.8111   59.2712   72.7210 H   0  0  0  0  0  0  0  0  0  0  0  0
    0.9547   56.4324   72.7780 H   0  0  0  0  0  0  0  0  0  0  0  0
   -3.3486   53.7495   76.7266 H   0  0  0  0  0  0  0  0  0  0  0  0
   -3.4650   54.6482   75.1756 H   0  0  0  0  0  0  0  0  0  0  0  0
   -2.9996   52.9132   75.1756 H   0  0  0  0  0  0  0  0  0  0  0  0
    1.6926   53.6468   75.1978 H   0  0  0  0  0  0  0  0  0  0  0  0
    1.7035   52.7119   73.6639 H   0  0  0  0  0  0  0  0  0  0  0  0
    2.1822   54.4432   73.6639 H   0  0  0  0  0  0  0  0  0  0  0  0
    0.8427   61.5122   76.2557 H   0  0  0  0  0  0  0  0  0  0  0  0
    3.0727   63.5527   70.8834 H   0  0  0  0  0  0  0  0  0  0  0  0
    3.3743   63.0367   72.6451 H   0  0  0  0  0  0  0  0  0  0  0  0
    3.1979   60.7261   73.3357 H   0  0  0  0  0  0  0  0  0  0  0  0
    3.6185   58.3744   72.6392 H   0  0  0  0  0  0  0  0  0  0  0  0
    3.7223   57.7852   70.2193 H   0  0  0  0  0  0  0  0  0  0  0  0
    3.4259   59.5576   68.4932 H   0  0  0  0  0  0  0  0  0  0  0  0
    3.0091   61.9142   69.1794 H   0  0  0  0  0  0  0  0  0  0  0  0
  2  1  1  0
  3  2  1  0
  4  3  1  0
  5  4  1  0
  6  5  1  0
  6  1  1  0
  4  7  1  6
  9  8  2  0
 10  9  1  0
 11 10  1  0
 12  1  1  0
 12 11  1  0
 13 12  2  0
 14 10  2  0
 14 13  1  0
 15 14  1  0
 16 15  2  0
 16  8  1  0
 18 17  1  0
 18  8  1  0
 19 16  1  0
 20 19  1  0
 21  6  1  0
 22  4  1  0
 23 22  1  0
 24 23  2  0
 25 24  1  0
 26 25  2  0
 27 26  1  0
 28 27  2  0
 28 23  1  0
  1 29  1  1
  2 30  1  0
  2 31  1  0
  3 32  1  0
  3 33  1  0
  5 34  1  0
  5 35  1  0
  6 36  1  1
  7 37  1  0
  7 38  1  0
  7 39  1  0
  9 40  1  0
 13 41  1  0
 15 42  1  0
 17 43  1  0
 17 44  1  0
 17 45  1  0
 20 46  1  0
 20 47  1  0
 20 48  1  0
 21 49  1  0
 22 50  1  0
 22 51  1  0
 24 52  1  0
 25 53  1  0
 26 54  1  0
 27 55  1  0
 28 56  1  0
M  CHG  1   4   1
M  END
>  <score>  (8) 
-8.05

$$$$
=
     RDKit          3D

 56 59  0  0  0  0  0  0  0  0999 V2000
    0.5250   58.4090   74.8680 C   0  0  2  0  0  0  0  0  0  0  0  0
    1.3350   59.6780   75.1880 C   0  0  0  0  0  0  0  0  0  0  0  0
    1.7650   60.4350   73.9380 C   0  0  0  0  0  0  0  0  0  0  0  0
    2.6590   59.5680   73.0230 N   0  0  2  0  0  4  0  0  0  0  0  0
    2.3720   58.0640   73.2060 C   0  0  0  0  0  0  0  0  0  0  0  0
    0.8920   57.7980   73.5000 C   0  0  1  0  0  0  0  0  0  0  0  0
    4.1280   59.8130   73.3800 C   0  0  0  0  0  0  0  0  0  0  0  0
   -5.7440   59.0420   75.6570 C   0  0  0  0  0  0  0  0  0  0  0  0
   -4.6910   58.2110   76.0610 C   0  0  0  0  0  0  0  0  0  0  0  0
   -3.3890   58.4820   75.5950 C   0  0  0  0  0  0  0  0  0  0  0  0
   -1.9560   57.6010   75.9590 S   0  0  0  0  0  0  0  0  0  0  0  0
   -0.9710   58.6230   75.0050 C   0  0  0  0  0  0  0  0  0  0  0  0
   -1.7260   59.6170   74.4150 C   0  0  0  0  0  0  0  0  0  0  0  0
   -3.1210   59.5520   74.7450 C   0  0  0  0  0  0  0  0  0  0  0  0
   -4.1980   60.3800   74.3480 C   0  0  0  0  0  0  0  0  0  0  0  0
   -5.5000   60.1260   74.8000 C   0  0  0  0  0  0  0  0  0  0  0  0
   -7.5100   57.5490   76.2880 C   0  0  0  0  0  0  0  0  0  0  0  0
   -7.0500   58.8710   76.0500 O   0  0  0  0  0  0  0  0  0  0  0  0
   -6.5960   60.8820   74.4610 O   0  0  0  0  0  0  0  0  0  0  0  0
   -7.1500   60.7130   73.1650 C   0  0  0  0  0  0  0  0  0  0  0  0
    0.6760   56.3890   73.5140 O   0  0  0  0  0  0  0  0  0  0  0  0
    2.3940   60.0220   71.5570 C   0  0  0  0  0  0  0  0  0  0  0  0
    2.6200   61.4740   71.2210 C   0  0  0  0  0  0  0  0  0  0  0  0
    1.5680   62.4020   71.3060 C   0  0  0  0  0  0  0  0  0  0  0  0
    1.7790   63.7460   70.9970 C   0  0  0  0  0  0  0  0  0  0  0  0
    3.0380   64.1800   70.5900 C   0  0  0  0  0  0  0  0  0  0  0  0
    4.0860   63.2700   70.4820 C   0  0  0  0  0  0  0  0  0  0  0  0
    3.8780   61.9250   70.7900 C   0  0  0  0  0  0  0  0  0  0  0  0
    0.8124   57.6708   75.6312 H   0  0  0  0  0  0  0  0  0  0  0  0
    0.7151   60.3439   75.8063 H   0  0  0  0  0  0  0  0  0  0  0  0
    2.2479   59.3639   75.7153 H   0  0  0  0  0  0  0  0  0  0  0  0
    0.8677   60.7364   73.3776 H   0  0  0  0  0  0  0  0  0  0  0  0
    2.3472   61.3136   74.2529 H   0  0  0  0  0  0  0  0  0  0  0  0
    2.6527   57.5334   72.2843 H   0  0  0  0  0  0  0  0  0  0  0  0
    2.9604   57.7059   74.0637 H   0  0  0  0  0  0  0  0  0  0  0  0
    0.2592   58.2576   72.7264 H   0  0  0  0  0  0  0  0  0  0  0  0
    4.2412   59.8319   74.4740 H   0  0  0  0  0  0  0  0  0  0  0  0
    4.7467   59.0056   72.9612 H   0  0  0  0  0  0  0  0  0  0  0  0
    4.4512   60.7775   72.9612 H   0  0  0  0  0  0  0  0  0  0  0  0
   -4.8777   57.3596   76.7320 H   0  0  0  0  0  0  0  0  0  0  0  0
   -1.2987   60.3859   73.7546 H   0  0  0  0  0  0  0  0  0  0  0  0
   -4.0111   61.2319   73.6776 H   0  0  0  0  0  0  0  0  0  0  0  0
   -7.5717   57.3718   77.3719 H   0  0  0  0  0  0  0  0  0  0  0  0
   -8.5056   57.4207   75.8383 H   0  0  0  0  0  0  0  0  0  0  0  0
   -6.8091   56.8303   75.8383 H   0  0  0  0  0  0  0  0  0  0  0  0
   -8.1987   60.3931   73.2534 H   0  0  0  0  0  0  0  0  0  0  0  0
   -7.1023   61.6665   72.6187 H   0  0  0  0  0  0  0  0  0  0  0  0
   -6.5782   59.9484   72.6187 H   0  0  0  0  0  0  0  0  0  0  0  0
    0.6274   56.0719   74.4506 H   0  0  0  0  0  0  0  0  0  0  0  0
    3.0515   59.4279   70.9053 H   0  0  0  0  0  0  0  0  0  0  0  0
    1.3150   59.8673   71.4090 H   0  0  0  0  0  0  0  0  0  0  0  0
    0.5687   62.0654   71.6192 H   0  0  0  0  0  0  0  0  0  0  0  0
    0.9494   64.4641   71.0750 H   0  0  0  0  0  0  0  0  0  0  0  0
    3.2044   65.2414   70.3539 H   0  0  0  0  0  0  0  0  0  0  0  0
    5.0788   63.6115   70.1536 H   0  0  0  0  0  0  0  0  0  0  0  0
    4.7086   61.2102   70.6941 H   0  0  0  0  0  0  0  0  0  0  0  0
  2  1  1  0
  3  2  1  0
  4  3  1  0
  5  4  1  0
  6  5  1  0
  6  1  1  0
  4  7  1  1
  9  8  2  0
 10  9  1  0
 11 10  1  0
 12  1  1  0
 12 11  1  0
 13 12  2  0
 14 10  2  0
 14 13  1  0
 15 14  1  0
 16 15  2  0
 16  8  1  0
 18 17  1  0
 18  8  1  0
 19 16  1  0
 20 19  1  0
 21  6  1  0
 22  4  1  0
 23 22  1  0
 24 23  2  0
 25 24  1  0
 26 25  2  0
 27 26  1  0
 28 27  2  0
 28 23  1  0
  1 29  1  1
  2 30  1  0
  2 31  1  0
  3 32  1  0
  3 33  1  0
  5 34  1  0
  5 35  1  0
  6 36  1  6
  7 37  1  0
  7 38  1  0
  7 39  1  0
  9 40  1  0
 13 41  1  0
 15 42  1  0
 17 43  1  0
 17 44  1  0
 17 45  1  0
 20 46  1  0
 20 47  1  0
 20 48  1  0
 21 49  1  0
 22 50  1  0
 22 51  1  0
 24 52  1  0
 25 53  1  0
 26 54  1  0
 27 55  1  0
 28 56  1  0
M  CHG  1   4   1
M  END
>  <score>  (9) 
-7.327

$$$$
