=
     RDKit          3D

 70 74  0  0  0  0  0  0  0  0999 V2000
   -0.8630   66.7750   68.4440 C   0  0  0  0  0  0  0  0  0  0  0  0
    0.6290   66.9200   68.7530 C   0  0  0  0  0  0  0  0  0  0  0  0
    1.0010   66.4780   70.1680 C   0  0  0  0  0  0  0  0  0  0  0  0
    1.0730   64.1150   70.8950 C   0  0  0  0  0  0  0  0  0  0  0  0
    0.1010   64.2490   71.6360 O   0  0  0  0  0  0  0  0  0  0  0  0
    1.5920   65.1570   70.1690 N   0  0  0  0  0  0  0  0  0  0  0  0
    2.4770   58.3050   72.4640 C   0  0  0  0  0  0  0  0  0  0  0  0
    3.3410   58.0380   71.3980 C   0  0  0  0  0  0  0  0  0  0  0  0
    3.5910   59.0210   70.4370 C   0  0  0  0  0  0  0  0  0  0  0  0
    2.9730   60.2620   70.5550 C   0  0  0  0  0  0  0  0  0  0  0  0
    2.1110   60.5480   71.6040 C   0  0  0  0  0  0  0  0  0  0  0  0
    1.8660   59.5620   72.5620 C   0  0  0  0  0  0  0  0  0  0  0  0
    1.4990   61.8650   71.6690 C   0  0  0  0  0  0  0  0  0  0  0  0
    1.7560   62.7930   70.7330 C   0  0  0  0  0  0  0  0  0  0  0  0
    2.6710   62.4900   69.6080 C   0  0  0  0  0  0  0  0  0  0  0  0
    2.9210   63.3150   68.7310 O   0  0  0  0  0  0  0  0  0  0  0  0
    3.2480   61.2240   69.5700 O   0  0  0  0  0  0  0  0  0  0  0  0
    0.9250   56.7240   73.3300 C   0  0  0  0  0  0  0  0  0  0  0  0
    2.1490   57.4360   73.4670 O   0  0  0  0  0  0  0  0  0  0  0  0
   -1.2850   67.4750   67.1490 C   0  0  0  0  0  0  0  0  0  0  0  0
   -0.6550   68.8680   67.0450 C   0  0  0  0  0  0  0  0  0  0  0  0
    0.2770   69.0140   65.8390 C   0  0  0  0  0  0  0  0  0  0  0  0
    1.4180   68.0960   65.9660 N   0  0  0  0  0  0  0  0  0  0  0  0
    2.6590   68.7680   65.7430 C   0  0  0  0  0  0  0  0  0  0  0  0
    3.2810   68.7330   64.4780 C   0  0  0  0  0  0  0  0  0  0  0  0
    2.6390   68.0580   63.2880 C   0  0  0  0  0  0  0  0  0  0  0  0
    3.3000   68.3760   61.9480 C   0  0  0  0  0  0  0  0  0  0  0  0
    4.8130   68.2880   62.0640 C   0  0  0  0  0  0  0  0  0  0  0  0
    5.3090   69.3230   63.0660 C   0  0  0  0  0  0  0  0  0  0  0  0
    4.5590   69.2950   64.3730 C   0  0  0  0  0  0  0  0  0  0  0  0
    5.2000   69.8860   65.4080 N   0  0  0  0  0  0  0  0  0  0  0  0
    4.6000   69.9320   66.6050 C   0  0  0  0  0  0  0  0  0  0  0  0
    3.3240   69.3870   66.8380 C   0  0  0  0  0  0  0  0  0  0  0  0
    2.7640   69.4970   68.1330 C   0  0  0  0  0  0  0  0  0  0  0  0
    3.4560   70.1180   69.1730 C   0  0  0  0  0  0  0  0  0  0  0  0
    4.7160   70.6420   68.9330 C   0  0  0  0  0  0  0  0  0  0  0  0
    5.2710   70.5450   67.6550 C   0  0  0  0  0  0  0  0  0  0  0  0
   -1.0984   65.7042   68.3546 H   0  0  0  0  0  0  0  0  0  0  0  0
   -1.4139   67.2536   69.2671 H   0  0  0  0  0  0  0  0  0  0  0  0
    1.1949   66.3070   68.0360 H   0  0  0  0  0  0  0  0  0  0  0  0
    0.8755   67.9889   68.6711 H   0  0  0  0  0  0  0  0  0  0  0  0
    1.7228   67.1936   70.5886 H   0  0  0  0  0  0  0  0  0  0  0  0
    0.0837   66.4479   70.7743 H   0  0  0  0  0  0  0  0  0  0  0  0
    2.4360   64.9925   69.6020 H   0  0  0  0  0  0  0  0  0  0  0  0
    3.8244   57.0533   71.3157 H   0  0  0  0  0  0  0  0  0  0  0  0
    4.2694   58.8159   69.5958 H   0  0  0  0  0  0  0  0  0  0  0  0
    1.1872   59.7741   73.4012 H   0  0  0  0  0  0  0  0  0  0  0  0
    0.8155   62.1049   72.4968 H   0  0  0  0  0  0  0  0  0  0  0  0
    0.5232   56.4903   74.3270 H   0  0  0  0  0  0  0  0  0  0  0  0
    0.2011   57.3419   72.7786 H   0  0  0  0  0  0  0  0  0  0  0  0
    1.1043   55.7892   72.7786 H   0  0  0  0  0  0  0  0  0  0  0  0
   -0.9603   66.8687   66.2905 H   0  0  0  0  0  0  0  0  0  0  0  0
   -2.3794   67.5856   67.1520 H   0  0  0  0  0  0  0  0  0  0  0  0
   -1.4608   69.6116   66.9574 H   0  0  0  0  0  0  0  0  0  0  0  0
   -0.0494   69.0239   67.9499 H   0  0  0  0  0  0  0  0  0  0  0  0
   -0.2787   68.7781   64.9195 H   0  0  0  0  0  0  0  0  0  0  0  0
    0.6506   70.0477   65.7968 H   0  0  0  0  0  0  0  0  0  0  0  0
    1.3335   67.0938   66.1880 H   0  0  0  0  0  0  0  0  0  0  0  0
    2.6843   66.9701   63.4441 H   0  0  0  0  0  0  0  0  0  0  0  0
    1.6095   68.4409   63.2283 H   0  0  0  0  0  0  0  0  0  0  0  0
    2.9527   67.6550   61.1934 H   0  0  0  0  0  0  0  0  0  0  0  0
    3.0258   69.3991   61.6511 H   0  0  0  0  0  0  0  0  0  0  0  0
    5.0961   67.2817   62.4064 H   0  0  0  0  0  0  0  0  0  0  0  0
    5.2670   68.4835   61.0813 H   0  0  0  0  0  0  0  0  0  0  0  0
    6.3726   69.1300   63.2696 H   0  0  0  0  0  0  0  0  0  0  0  0
    5.1458   70.3143   62.6180 H   0  0  0  0  0  0  0  0  0  0  0  0
    1.7623   69.0843   68.3235 H   0  0  0  0  0  0  0  0  0  0  0  0
    3.0057   70.1910   70.1739 H   0  0  0  0  0  0  0  0  0  0  0  0
    5.2756   71.1313   69.7438 H   0  0  0  0  0  0  0  0  0  0  0  0
    6.2706   70.9672   67.4746 H   0  0  0  0  0  0  0  0  0  0  0  0
  2  1  1  0
  3  2  1  0
  5  4  2  0
  6  4  1  0
  6  3  1  0
  8  7  2  0
  9  8  1  0
 10  9  2  0
 11 10  1  0
 12  7  1  0
 12 11  2  0
 13 11  1  0
 14 13  2  0
 14  4  1  0
 15 14  1  0
 16 15  2  0
 17 15  1  0
 17 10  1  0
 19 18  1  0
 19  7  1  0
 20  1  1  0
 21 20  1  0
 22 21  1  0
 23 22  1  0
 24 23  1  0
 25 24  1  0
 26 25  1  0
 27 26  1  0
 28 27  1  0
 29 28  1  0
 30 29  1  0
 30 25  2  0
 31 30  1  0
 32 31  2  0
 33 32  1  0
 33 24  2  0
 34 33  1  0
 35 34  2  0
 36 35  1  0
 37 36  2  0
 37 32  1  0
  1 38  1  0
  1 39  1  0
  2 40  1  0
  2 41  1  0
  3 42  1  0
  3 43  1  0
  6 44  1  0
  8 45  1  0
  9 46  1  0
 12 47  1  0
 13 48  1  0
 18 49  1  0
 18 50  1  0
 18 51  1  0
 20 52  1  0
 20 53  1  0
 21 54  1  0
 21 55  1  0
 22 56  1  0
 22 57  1  0
 23 58  1  0
 26 59  1  0
 26 60  1  0
 27 61  1  0
 27 62  1  0
 28 63  1  0
 28 64  1  0
 29 65  1  0
 29 66  1  0
 34 67  1  0
 35 68  1  0
 36 69  1  0
 37 70  1  0
M  END
>  <score>  (1) 
-12.307

$$$$
=
     RDKit          3D

 70 74  0  0  0  0  0  0  0  0999 V2000
    0.7220   66.7730   69.4970 C   0  0  0  0  0  0  0  0  0  0  0  0
    0.8200   65.4660   70.2880 C   0  0  0  0  0  0  0  0  0  0  0  0
    2.2240   64.8610   70.2890 C   0  0  0  0  0  0  0  0  0  0  0  0
    3.3140   62.6790   70.6970 C   0  0  0  0  0  0  0  0  0  0  0  0
    4.4430   63.1620   70.6380 O   0  0  0  0  0  0  0  0  0  0  0  0
    2.1820   63.4310   70.5080 N   0  0  0  0  0  0  0  0  0  0  0  0
    0.8540   57.8650   73.6900 C   0  0  0  0  0  0  0  0  0  0  0  0
    1.4980   56.8590   72.9650 C   0  0  0  0  0  0  0  0  0  0  0  0
    2.3770   57.1930   71.9320 C   0  0  0  0  0  0  0  0  0  0  0  0
    2.6000   58.5340   71.6360 C   0  0  0  0  0  0  0  0  0  0  0  0
    1.9710   59.5500   72.3410 C   0  0  0  0  0  0  0  0  0  0  0  0
    1.0940   59.2090   73.3740 C   0  0  0  0  0  0  0  0  0  0  0  0
    2.2490   60.9300   71.9820 C   0  0  0  0  0  0  0  0  0  0  0  0
    3.0990   61.2250   70.9840 C   0  0  0  0  0  0  0  0  0  0  0  0
    3.7690   60.1450   70.2250 C   0  0  0  0  0  0  0  0  0  0  0  0
    4.5460   60.3820   69.3010 O   0  0  0  0  0  0  0  0  0  0  0  0
    3.4890   58.8320   70.5910 O   0  0  0  0  0  0  0  0  0  0  0  0
    0.5250   57.5530   76.0250 C   0  0  0  0  0  0  0  0  0  0  0  0
   -0.0250   57.6750   74.7200 O   0  0  0  0  0  0  0  0  0  0  0  0
   -0.4580   66.8050   68.5220 C   0  0  0  0  0  0  0  0  0  0  0  0
   -0.0200   67.3090   67.1430 C   0  0  0  0  0  0  0  0  0  0  0  0
    1.4630   67.6860   67.0870 C   0  0  0  0  0  0  0  0  0  0  0  0
    1.6140   69.0860   66.6640 N   0  0  0  0  0  0  0  0  0  0  0  0
    2.9450   69.3590   66.2200 C   0  0  0  0  0  0  0  0  0  0  0  0
    3.3310   69.0890   64.8900 C   0  0  0  0  0  0  0  0  0  0  0  0
    2.3510   68.5770   63.8600 C   0  0  0  0  0  0  0  0  0  0  0  0
    2.8620   68.6300   62.4210 C   0  0  0  0  0  0  0  0  0  0  0  0
    4.2880   68.1120   62.3410 C   0  0  0  0  0  0  0  0  0  0  0  0
    5.2020   69.0010   63.1740 C   0  0  0  0  0  0  0  0  0  0  0  0
    4.6830   69.2500   64.5670 C   0  0  0  0  0  0  0  0  0  0  0  0
    5.6150   69.6750   65.4530 N   0  0  0  0  0  0  0  0  0  0  0  0
    5.2420   69.9470   66.7100 C   0  0  0  0  0  0  0  0  0  0  0  0
    3.9150   69.8060   67.1580 C   0  0  0  0  0  0  0  0  0  0  0  0
    3.6140   70.1310   68.5020 C   0  0  0  0  0  0  0  0  0  0  0  0
    4.6020   70.5690   69.3830 C   0  0  0  0  0  0  0  0  0  0  0  0
    5.9070   70.6940   68.9320 C   0  0  0  0  0  0  0  0  0  0  0  0
    6.2110   70.3840   67.6050 C   0  0  0  0  0  0  0  0  0  0  0  0
    0.6091   67.6040   70.2088 H   0  0  0  0  0  0  0  0  0  0  0  0
    1.6409   66.8609   68.8987 H   0  0  0  0  0  0  0  0  0  0  0  0
    0.5255   65.6654   71.3289 H   0  0  0  0  0  0  0  0  0  0  0  0
    0.1537   64.7398   69.7993 H   0  0  0  0  0  0  0  0  0  0  0  0
    2.7005   65.0606   69.3179 H   0  0  0  0  0  0  0  0  0  0  0  0
    2.7985   65.3201   71.1071 H   0  0  0  0  0  0  0  0  0  0  0  0
    1.2665   62.9593   70.5226 H   0  0  0  0  0  0  0  0  0  0  0  0
    1.3125   55.8024   73.2081 H   0  0  0  0  0  0  0  0  0  0  0  0
    2.8871   56.4046   71.3590 H   0  0  0  0  0  0  0  0  0  0  0  0
    0.5878   60.0021   73.9439 H   0  0  0  0  0  0  0  0  0  0  0  0
    1.7572   61.7442   72.5345 H   0  0  0  0  0  0  0  0  0  0  0  0
   -0.2627   57.7277   76.7727 H   0  0  0  0  0  0  0  0  0  0  0  0
    0.9372   56.5416   76.1561 H   0  0  0  0  0  0  0  0  0  0  0  0
    1.3262   58.2953   76.1561 H   0  0  0  0  0  0  0  0  0  0  0  0
   -0.8674   65.7892   68.4199 H   0  0  0  0  0  0  0  0  0  0  0  0
   -1.2208   67.4910   68.9188 H   0  0  0  0  0  0  0  0  0  0  0  0
   -0.2083   66.5162   66.4040 H   0  0  0  0  0  0  0  0  0  0  0  0
   -0.5991   68.2187   66.9260 H   0  0  0  0  0  0  0  0  0  0  0  0
    1.9088   67.5574   68.0844 H   0  0  0  0  0  0  0  0  0  0  0  0
    1.9725   67.0344   66.3618 H   0  0  0  0  0  0  0  0  0  0  0  0
    0.8557   69.7827   66.6850 H   0  0  0  0  0  0  0  0  0  0  0  0
    2.1128   67.5308   64.1021 H   0  0  0  0  0  0  0  0  0  0  0  0
    1.4733   69.2385   63.9059 H   0  0  0  0  0  0  0  0  0  0  0  0
    2.2152   68.0083   61.7845 H   0  0  0  0  0  0  0  0  0  0  0  0
    2.8440   69.6745   62.0763 H   0  0  0  0  0  0  0  0  0  0  0  0
    4.3260   67.0831   62.7281 H   0  0  0  0  0  0  0  0  0  0  0  0
    4.6227   68.1238   61.2932 H   0  0  0  0  0  0  0  0  0  0  0  0
    6.1865   68.5162   63.2496 H   0  0  0  0  0  0  0  0  0  0  0  0
    5.2581   69.9760   62.6679 H   0  0  0  0  0  0  0  0  0  0  0  0
    2.5780   70.0360   68.8595 H   0  0  0  0  0  0  0  0  0  0  0  0
    4.3486   70.8129   70.4253 H   0  0  0  0  0  0  0  0  0  0  0  0
    6.6983   71.0354   69.6156 H   0  0  0  0  0  0  0  0  0  0  0  0
    7.2493   70.4889   67.2574 H   0  0  0  0  0  0  0  0  0  0  0  0
  2  1  1  0
  3  2  1  0
  5  4  2  0
  6  4  1  0
  6  3  1  0
  8  7  2  0
  9  8  1  0
 10  9  2  0
 11 10  1  0
 12  7  1  0
 12 11  2  0
 13 11  1  0
 14 13  2  0
 14  4  1  0
 15 14  1  0
 16 15  2  0
 17 15  1  0
 17 10  1  0
 19 18  1  0
 19  7  1  0
 20  1  1  0
 21 20  1  0
 22 21  1  0
 23 22  1  0
 24 23  1  0
 25 24  1  0
 26 25  1  0
 27 26  1  0
 28 27  1  0
 29 28  1  0
 30 29  1  0
 30 25  2  0
 31 30  1  0
 32 31  2  0
 33 32  1  0
 33 24  2  0
 34 33  1  0
 35 34  2  0
 36 35  1  0
 37 36  2  0
 37 32  1  0
  1 38  1  0
  1 39  1  0
  2 40  1  0
  2 41  1  0
  3 42  1  0
  3 43  1  0
  6 44  1  0
  8 45  1  0
  9 46  1  0
 12 47  1  0
 13 48  1  0
 18 49  1  0
 18 50  1  0
 18 51  1  0
 20 52  1  0
 20 53  1  0
 21 54  1  0
 21 55  1  0
 22 56  1  0
 22 57  1  0
 23 58  1  0
 26 59  1  0
 26 60  1  0
 27 61  1  0
 27 62  1  0
 28 63  1  0
 28 64  1  0
 29 65  1  0
 29 66  1  0
 34 67  1  0
 35 68  1  0
 36 69  1  0
 37 70  1  0
M  END
>  <score>  (2) 
-12.029

$$$$
=
     RDKit          3D

 70 74  0  0  0  0  0  0  0  0999 V2000
    0.3560   66.7840   69.1400 C   0  0  0  0  0  0  0  0  0  0  0  0
   -1.1200   66.4740   68.8740 C   0  0  0  0  0  0  0  0  0  0  0  0
   -1.5690   66.8310   67.4580 C   0  0  0  0  0  0  0  0  0  0  0  0
   -0.4450   68.2140   65.7440 C   0  0  0  0  0  0  0  0  0  0  0  0
   -1.4300   68.9330   65.5880 O   0  0  0  0  0  0  0  0  0  0  0  0
   -0.4400   67.1520   66.6110 N   0  0  0  0  0  0  0  0  0  0  0  0
    5.5640   69.5450   65.1810 C   0  0  0  0  0  0  0  0  0  0  0  0
    5.6300   69.4750   63.7870 C   0  0  0  0  0  0  0  0  0  0  0  0
    4.4860   69.1700   63.0460 C   0  0  0  0  0  0  0  0  0  0  0  0
    3.2860   68.9380   63.7110 C   0  0  0  0  0  0  0  0  0  0  0  0
    3.1970   69.0010   65.0940 C   0  0  0  0  0  0  0  0  0  0  0  0
    4.3450   69.3070   65.8290 C   0  0  0  0  0  0  0  0  0  0  0  0
    1.9130   68.7480   65.7260 C   0  0  0  0  0  0  0  0  0  0  0  0
    0.8270   68.4570   64.9910 C   0  0  0  0  0  0  0  0  0  0  0  0
    0.9180   68.3830   63.5150 C   0  0  0  0  0  0  0  0  0  0  0  0
   -0.0550   68.1120   62.8150 O   0  0  0  0  0  0  0  0  0  0  0  0
    2.1580   68.6330   62.9330 O   0  0  0  0  0  0  0  0  0  0  0  0
    6.3180   70.6500   67.1480 C   0  0  0  0  0  0  0  0  0  0  0  0
    6.6040   69.8330   66.0200 O   0  0  0  0  0  0  0  0  0  0  0  0
    0.9790   65.8930   70.2180 C   0  0  0  0  0  0  0  0  0  0  0  0
    0.0240   65.7130   71.4030 C   0  0  0  0  0  0  0  0  0  0  0  0
    0.2440   64.3960   72.1530 C   0  0  0  0  0  0  0  0  0  0  0  0
    0.3500   63.2820   71.2000 N   0  0  0  0  0  0  0  0  0  0  0  0
    1.1110   62.2000   71.7410 C   0  0  0  0  0  0  0  0  0  0  0  0
    2.4830   62.0630   71.4420 C   0  0  0  0  0  0  0  0  0  0  0  0
    3.2260   63.0800   70.6070 C   0  0  0  0  0  0  0  0  0  0  0  0
    4.7470   62.9340   70.6380 C   0  0  0  0  0  0  0  0  0  0  0  0
    5.1460   61.4760   70.4750 C   0  0  0  0  0  0  0  0  0  0  0  0
    4.5940   60.6630   71.6390 C   0  0  0  0  0  0  0  0  0  0  0  0
    3.1280   60.9050   71.8920 C   0  0  0  0  0  0  0  0  0  0  0  0
    2.5100   59.9420   72.6160 N   0  0  0  0  0  0  0  0  0  0  0  0
    1.2120   60.0840   72.9140 C   0  0  0  0  0  0  0  0  0  0  0  0
    0.4530   61.1950   72.5010 C   0  0  0  0  0  0  0  0  0  0  0  0
   -0.9100   61.2640   72.8770 C   0  0  0  0  0  0  0  0  0  0  0  0
   -1.5090   60.2530   73.6270 C   0  0  0  0  0  0  0  0  0  0  0  0
   -0.7540   59.1580   74.0190 C   0  0  0  0  0  0  0  0  0  0  0  0
    0.5950   59.0880   73.6600 C   0  0  0  0  0  0  0  0  0  0  0  0
    0.9163   66.6427   68.2040 H   0  0  0  0  0  0  0  0  0  0  0  0
    0.4100   67.8206   69.5040 H   0  0  0  0  0  0  0  0  0  0  0  0
   -1.2841   65.3977   69.0309 H   0  0  0  0  0  0  0  0  0  0  0  0
   -1.7114   67.0900   69.5674 H   0  0  0  0  0  0  0  0  0  0  0  0
   -2.1078   65.9744   67.0268 H   0  0  0  0  0  0  0  0  0  0  0  0
   -2.2218   67.7146   67.5143 H   0  0  0  0  0  0  0  0  0  0  0  0
    0.4006   66.5589   66.6617 H   0  0  0  0  0  0  0  0  0  0  0  0
    6.5844   69.6604   63.2724 H   0  0  0  0  0  0  0  0  0  0  0  0
    4.5332   69.1138   61.9485 H   0  0  0  0  0  0  0  0  0  0  0  0
    4.2912   69.3615   66.9263 H   0  0  0  0  0  0  0  0  0  0  0  0
    1.8293   68.7955   66.8218 H   0  0  0  0  0  0  0  0  0  0  0  0
    6.5161   70.0841   68.0703 H   0  0  0  0  0  0  0  0  0  0  0  0
    6.9560   71.5457   67.1232 H   0  0  0  0  0  0  0  0  0  0  0  0
    5.2606   70.9522   67.1232 H   0  0  0  0  0  0  0  0  0  0  0  0
    1.2034   64.9074   69.7842 H   0  0  0  0  0  0  0  0  0  0  0  0
    1.8995   66.3739   70.5804 H   0  0  0  0  0  0  0  0  0  0  0  0
    0.1756   66.5460   72.1052 H   0  0  0  0  0  0  0  0  0  0  0  0
   -0.9999   65.6963   71.0013 H   0  0  0  0  0  0  0  0  0  0  0  0
    1.1722   64.4623   72.7395 H   0  0  0  0  0  0  0  0  0  0  0  0
   -0.6104   64.2164   72.8222 H   0  0  0  0  0  0  0  0  0  0  0  0
   -0.0713   63.2812   70.2601 H   0  0  0  0  0  0  0  0  0  0  0  0
    2.8920   62.9784   69.5639 H   0  0  0  0  0  0  0  0  0  0  0  0
    2.9970   64.0662   71.0371 H   0  0  0  0  0  0  0  0  0  0  0  0
    5.1838   63.5226   69.8178 H   0  0  0  0  0  0  0  0  0  0  0  0
    5.1194   63.2983   71.6068 H   0  0  0  0  0  0  0  0  0  0  0  0
    4.7370   61.0877   69.5305 H   0  0  0  0  0  0  0  0  0  0  0  0
    6.2430   61.3964   70.4610 H   0  0  0  0  0  0  0  0  0  0  0  0
    4.7388   59.5950   71.4189 H   0  0  0  0  0  0  0  0  0  0  0  0
    5.1371   60.9769   72.5426 H   0  0  0  0  0  0  0  0  0  0  0  0
   -1.5094   62.1341   72.5708 H   0  0  0  0  0  0  0  0  0  0  0  0
   -2.5709   60.3233   73.9053 H   0  0  0  0  0  0  0  0  0  0  0  0
   -1.2133   58.3505   74.6081 H   0  0  0  0  0  0  0  0  0  0  0  0
    1.1865   58.2169   73.9782 H   0  0  0  0  0  0  0  0  0  0  0  0
  2  1  1  0
  3  2  1  0
  5  4  2  0
  6  4  1  0
  6  3  1  0
  8  7  2  0
  9  8  1  0
 10  9  2  0
 11 10  1  0
 12  7  1  0
 12 11  2  0
 13 11  1  0
 14 13  2  0
 14  4  1  0
 15 14  1  0
 16 15  2  0
 17 15  1  0
 17 10  1  0
 19 18  1  0
 19  7  1  0
 20  1  1  0
 21 20  1  0
 22 21  1  0
 23 22  1  0
 24 23  1  0
 25 24  1  0
 26 25  1  0
 27 26  1  0
 28 27  1  0
 29 28  1  0
 30 29  1  0
 30 25  2  0
 31 30  1  0
 32 31  2  0
 33 32  1  0
 33 24  2  0
 34 33  1  0
 35 34  2  0
 36 35  1  0
 37 36  2  0
 37 32  1  0
  1 38  1  0
  1 39  1  0
  2 40  1  0
  2 41  1  0
  3 42  1  0
  3 43  1  0
  6 44  1  0
  8 45  1  0
  9 46  1  0
 12 47  1  0
 13 48  1  0
 18 49  1  0
 18 50  1  0
 18 51  1  0
 20 52  1  0
 20 53  1  0
 21 54  1  0
 21 55  1  0
 22 56  1  0
 22 57  1  0
 23 58  1  0
 26 59  1  0
 26 60  1  0
 27 61  1  0
 27 62  1  0
 28 63  1  0
 28 64  1  0
 29 65  1  0
 29 66  1  0
 34 67  1  0
 35 68  1  0
 36 69  1  0
 37 70  1  0
M  END
>  <score>  (3) 
-11.95

$$$$
=
     RDKit          3D

 70 74  0  0  0  0  0  0  0  0999 V2000
    1.0520   67.0630   68.6130 C   0  0  0  0  0  0  0  0  0  0  0  0
    1.1190   66.4920   70.0320 C   0  0  0  0  0  0  0  0  0  0  0  0
    0.0330   65.4560   70.3200 C   0  0  0  0  0  0  0  0  0  0  0  0
    0.5400   63.5300   71.7860 C   0  0  0  0  0  0  0  0  0  0  0  0
    0.0430   64.0700   72.7720 O   0  0  0  0  0  0  0  0  0  0  0  0
    0.6030   64.1490   70.5630 N   0  0  0  0  0  0  0  0  0  0  0  0
    0.8080   57.6710   73.7320 C   0  0  0  0  0  0  0  0  0  0  0  0
    1.9420   57.2960   73.0060 C   0  0  0  0  0  0  0  0  0  0  0  0
    2.5820   58.2220   72.1780 C   0  0  0  0  0  0  0  0  0  0  0  0
    2.0780   59.5150   72.0880 C   0  0  0  0  0  0  0  0  0  0  0  0
    0.9530   59.9100   72.7980 C   0  0  0  0  0  0  0  0  0  0  0  0
    0.3190   58.9790   73.6240 C   0  0  0  0  0  0  0  0  0  0  0  0
    0.4790   61.2770   72.6590 C   0  0  0  0  0  0  0  0  0  0  0  0
    1.1130   62.1480   71.8570 C   0  0  0  0  0  0  0  0  0  0  0  0
    2.3100   61.7310   71.0920 C   0  0  0  0  0  0  0  0  0  0  0  0
    2.9080   62.5020   70.3440 O   0  0  0  0  0  0  0  0  0  0  0  0
    2.7470   60.4180   71.2460 O   0  0  0  0  0  0  0  0  0  0  0  0
   -0.5990   55.7700   73.9870 C   0  0  0  0  0  0  0  0  0  0  0  0
    0.0920   56.8660   74.5730 O   0  0  0  0  0  0  0  0  0  0  0  0
   -0.3780   67.2790   68.1120 C   0  0  0  0  0  0  0  0  0  0  0  0
   -0.4020   67.5250   66.5990 C   0  0  0  0  0  0  0  0  0  0  0  0
    0.9970   67.5620   65.9780 C   0  0  0  0  0  0  0  0  0  0  0  0
    1.3490   68.9400   65.6050 N   0  0  0  0  0  0  0  0  0  0  0  0
    2.7650   69.1290   65.5750 C   0  0  0  0  0  0  0  0  0  0  0  0
    3.4560   69.5920   66.7150 C   0  0  0  0  0  0  0  0  0  0  0  0
    2.7550   69.8350   68.0310 C   0  0  0  0  0  0  0  0  0  0  0  0
    3.6940   70.0390   69.2190 C   0  0  0  0  0  0  0  0  0  0  0  0
    4.8260   70.9840   68.8490 C   0  0  0  0  0  0  0  0  0  0  0  0
    5.6520   70.3750   67.7240 C   0  0  0  0  0  0  0  0  0  0  0  0
    4.8160   69.8860   66.5680 C   0  0  0  0  0  0  0  0  0  0  0  0
    5.4930   69.7190   65.4080 N   0  0  0  0  0  0  0  0  0  0  0  0
    4.8390   69.2630   64.3320 C   0  0  0  0  0  0  0  0  0  0  0  0
    3.4670   68.9510   64.3520 C   0  0  0  0  0  0  0  0  0  0  0  0
    2.8650   68.4610   63.1670 C   0  0  0  0  0  0  0  0  0  0  0  0
    3.5990   68.2990   61.9930 C   0  0  0  0  0  0  0  0  0  0  0  0
    4.9470   68.6210   61.9840 C   0  0  0  0  0  0  0  0  0  0  0  0
    5.5500   69.0960   63.1500 C   0  0  0  0  0  0  0  0  0  0  0  0
    1.5755   68.0304   68.6013 H   0  0  0  0  0  0  0  0  0  0  0  0
    1.5229   66.3275   67.9442 H   0  0  0  0  0  0  0  0  0  0  0  0
    2.1009   66.0159   70.1705 H   0  0  0  0  0  0  0  0  0  0  0  0
    0.9620   67.3297   70.7274 H   0  0  0  0  0  0  0  0  0  0  0  0
   -0.5347   65.7699   71.2083 H   0  0  0  0  0  0  0  0  0  0  0  0
   -0.6245   65.3894   69.4406 H   0  0  0  0  0  0  0  0  0  0  0  0
    1.0751   63.6635   69.7869 H   0  0  0  0  0  0  0  0  0  0  0  0
    2.3313   56.2703   73.0866 H   0  0  0  0  0  0  0  0  0  0  0  0
    3.4742   57.9315   71.6040 H   0  0  0  0  0  0  0  0  0  0  0  0
   -0.5729   59.2760   74.1952 H   0  0  0  0  0  0  0  0  0  0  0  0
   -0.4107   61.6024   73.2180 H   0  0  0  0  0  0  0  0  0  0  0  0
   -1.0051   55.1259   74.7808 H   0  0  0  0  0  0  0  0  0  0  0  0
   -1.4230   56.1472   73.3634 H   0  0  0  0  0  0  0  0  0  0  0  0
    0.0965   55.1892   73.3634 H   0  0  0  0  0  0  0  0  0  0  0  0
   -0.9773   66.3853   68.3401 H   0  0  0  0  0  0  0  0  0  0  0  0
   -0.7948   68.1634   68.6162 H   0  0  0  0  0  0  0  0  0  0  0  0
   -0.9765   66.7176   66.1214 H   0  0  0  0  0  0  0  0  0  0  0  0
   -0.8627   68.5099   66.4325 H   0  0  0  0  0  0  0  0  0  0  0  0
    1.7287   67.1845   66.7074 H   0  0  0  0  0  0  0  0  0  0  0  0
    1.0071   66.9317   65.0765 H   0  0  0  0  0  0  0  0  0  0  0  0
    0.6612   69.6766   65.3921 H   0  0  0  0  0  0  0  0  0  0  0  0
    2.1311   70.7350   67.9273 H   0  0  0  0  0  0  0  0  0  0  0  0
    2.1692   68.9292   68.2462 H   0  0  0  0  0  0  0  0  0  0  0  0
    3.1267   70.4657   70.0593 H   0  0  0  0  0  0  0  0  0  0  0  0
    4.1221   69.0667   69.5042 H   0  0  0  0  0  0  0  0  0  0  0  0
    4.4068   71.9451   68.5166 H   0  0  0  0  0  0  0  0  0  0  0  0
    5.4681   71.1467   69.7272 H   0  0  0  0  0  0  0  0  0  0  0  0
    6.3509   71.1383   67.3513 H   0  0  0  0  0  0  0  0  0  0  0  0
    6.1756   69.5016   68.1400 H   0  0  0  0  0  0  0  0  0  0  0  0
    1.7957   68.2029   63.1734 H   0  0  0  0  0  0  0  0  0  0  0  0
    3.1129   67.9192   61.0823 H   0  0  0  0  0  0  0  0  0  0  0  0
    5.5380   68.5030   61.0638 H   0  0  0  0  0  0  0  0  0  0  0  0
    6.6211   69.3458   63.1325 H   0  0  0  0  0  0  0  0  0  0  0  0
  2  1  1  0
  3  2  1  0
  5  4  2  0
  6  4  1  0
  6  3  1  0
  8  7  2  0
  9  8  1  0
 10  9  2  0
 11 10  1  0
 12  7  1  0
 12 11  2  0
 13 11  1  0
 14 13  2  0
 14  4  1  0
 15 14  1  0
 16 15  2  0
 17 15  1  0
 17 10  1  0
 19 18  1  0
 19  7  1  0
 20  1  1  0
 21 20  1  0
 22 21  1  0
 23 22  1  0
 24 23  1  0
 25 24  1  0
 26 25  1  0
 27 26  1  0
 28 27  1  0
 29 28  1  0
 30 29  1  0
 30 25  2  0
 31 30  1  0
 32 31  2  0
 33 32  1  0
 33 24  2  0
 34 33  1  0
 35 34  2  0
 36 35  1  0
 37 36  2  0
 37 32  1  0
  1 38  1  0
  1 39  1  0
  2 40  1  0
  2 41  1  0
  3 42  1  0
  3 43  1  0
  6 44  1  0
  8 45  1  0
  9 46  1  0
 12 47  1  0
 13 48  1  0
 18 49  1  0
 18 50  1  0
 18 51  1  0
 20 52  1  0
 20 53  1  0
 21 54  1  0
 21 55  1  0
 22 56  1  0
 22 57  1  0
 23 58  1  0
 26 59  1  0
 26 60  1  0
 27 61  1  0
 27 62  1  0
 28 63  1  0
 28 64  1  0
 29 65  1  0
 29 66  1  0
 34 67  1  0
 35 68  1  0
 36 69  1  0
 37 70  1  0
M  END
>  <score>  (4) 
-11.942

$$$$
=
     RDKit          3D

 70 74  0  0  0  0  0  0  0  0999 V2000
    4.2720   64.4520   64.5410 C   0  0  0  0  0  0  0  0  0  0  0  0
    3.6270   63.4640   65.5150 C   0  0  0  0  0  0  0  0  0  0  0  0
    4.2900   63.4490   66.8920 C   0  0  0  0  0  0  0  0  0  0  0  0
    3.6820   63.0310   69.2530 C   0  0  0  0  0  0  0  0  0  0  0  0
    4.7950   63.3550   69.6610 O   0  0  0  0  0  0  0  0  0  0  0  0
    3.3640   63.0200   67.9180 N   0  0  0  0  0  0  0  0  0  0  0  0
    0.8840   59.3150   73.3210 C   0  0  0  0  0  0  0  0  0  0  0  0
   -0.2430   60.1120   73.5420 C   0  0  0  0  0  0  0  0  0  0  0  0
   -0.3800   61.3320   72.8740 C   0  0  0  0  0  0  0  0  0  0  0  0
    0.6150   61.7400   71.9920 C   0  0  0  0  0  0  0  0  0  0  0  0
    1.7430   60.9660   71.7590 C   0  0  0  0  0  0  0  0  0  0  0  0
    1.8730   59.7470   72.4290 C   0  0  0  0  0  0  0  0  0  0  0  0
    2.7460   61.4510   70.8240 C   0  0  0  0  0  0  0  0  0  0  0  0
    2.5900   62.6270   70.1950 C   0  0  0  0  0  0  0  0  0  0  0  0
    1.3910   63.4590   70.4440 C   0  0  0  0  0  0  0  0  0  0  0  0
    1.2230   64.5440   69.8900 O   0  0  0  0  0  0  0  0  0  0  0  0
    0.4440   62.9710   71.3400 O   0  0  0  0  0  0  0  0  0  0  0  0
    1.7100   57.0970   73.0850 C   0  0  0  0  0  0  0  0  0  0  0  0
    1.1390   58.1060   73.9080 O   0  0  0  0  0  0  0  0  0  0  0  0
    3.4590   65.7350   64.3500 C   0  0  0  0  0  0  0  0  0  0  0  0
    4.2280   66.7540   63.5010 C   0  0  0  0  0  0  0  0  0  0  0  0
    4.9740   67.7930   64.3430 C   0  0  0  0  0  0  0  0  0  0  0  0
    4.1820   69.0280   64.4420 N   0  0  0  0  0  0  0  0  0  0  0  0
    3.7170   69.2480   65.7750 C   0  0  0  0  0  0  0  0  0  0  0  0
    2.3680   69.0140   66.1160 C   0  0  0  0  0  0  0  0  0  0  0  0
    1.3770   68.4530   65.1230 C   0  0  0  0  0  0  0  0  0  0  0  0
    0.0600   67.9860   65.7400 C   0  0  0  0  0  0  0  0  0  0  0  0
   -0.4580   69.0120   66.7350 C   0  0  0  0  0  0  0  0  0  0  0  0
    0.5410   69.1660   67.8740 C   0  0  0  0  0  0  0  0  0  0  0  0
    1.9560   69.3830   67.4010 C   0  0  0  0  0  0  0  0  0  0  0  0
    2.7880   69.9180   68.3250 N   0  0  0  0  0  0  0  0  0  0  0  0
    4.0720   70.1240   68.0050 C   0  0  0  0  0  0  0  0  0  0  0  0
    4.5990   69.8100   66.7380 C   0  0  0  0  0  0  0  0  0  0  0  0
    5.9730   70.0490   66.4960 C   0  0  0  0  0  0  0  0  0  0  0  0
    6.7980   70.5990   67.4770 C   0  0  0  0  0  0  0  0  0  0  0  0
    6.2650   70.9140   68.7170 C   0  0  0  0  0  0  0  0  0  0  0  0
    4.9120   70.6710   68.9660 C   0  0  0  0  0  0  0  0  0  0  0  0
    5.2660   64.7231   64.9263 H   0  0  0  0  0  0  0  0  0  0  0  0
    4.3276   63.9537   63.5619 H   0  0  0  0  0  0  0  0  0  0  0  0
    2.5691   63.7381   65.6403 H   0  0  0  0  0  0  0  0  0  0  0  0
    3.7478   62.4586   65.0854 H   0  0  0  0  0  0  0  0  0  0  0  0
    5.1455   62.7579   66.8700 H   0  0  0  0  0  0  0  0  0  0  0  0
    4.6206   64.4711   67.1288 H   0  0  0  0  0  0  0  0  0  0  0  0
    2.4290   62.6934   67.6351 H   0  0  0  0  0  0  0  0  0  0  0  0
   -1.0229   59.7786   74.2424 H   0  0  0  0  0  0  0  0  0  0  0  0
   -1.2651   61.9626   73.0440 H   0  0  0  0  0  0  0  0  0  0  0  0
    2.7604   59.1209   72.2542 H   0  0  0  0  0  0  0  0  0  0  0  0
    3.6442   60.8464   70.6296 H   0  0  0  0  0  0  0  0  0  0  0  0
    2.1529   56.3143   73.7184 H   0  0  0  0  0  0  0  0  0  0  0  0
    0.9278   56.6557   72.4499 H   0  0  0  0  0  0  0  0  0  0  0  0
    2.4911   57.5404   72.4499 H   0  0  0  0  0  0  0  0  0  0  0  0
    2.5125   65.4890   63.8463 H   0  0  0  0  0  0  0  0  0  0  0  0
    3.2670   66.1776   65.3386 H   0  0  0  0  0  0  0  0  0  0  0  0
    4.9595   66.2137   62.8821 H   0  0  0  0  0  0  0  0  0  0  0  0
    3.4914   67.2945   62.8884 H   0  0  0  0  0  0  0  0  0  0  0  0
    5.1448   67.3888   65.3517 H   0  0  0  0  0  0  0  0  0  0  0  0
    5.9368   68.0210   63.8624 H   0  0  0  0  0  0  0  0  0  0  0  0
    3.9868   69.6561   63.6493 H   0  0  0  0  0  0  0  0  0  0  0  0
    1.1518   69.2349   64.3827 H   0  0  0  0  0  0  0  0  0  0  0  0
    1.8478   67.5638   64.6784 H   0  0  0  0  0  0  0  0  0  0  0  0
   -0.6844   67.8484   64.9419 H   0  0  0  0  0  0  0  0  0  0  0  0
    0.2324   67.0361   66.2673 H   0  0  0  0  0  0  0  0  0  0  0  0
   -0.5886   69.9798   66.2288 H   0  0  0  0  0  0  0  0  0  0  0  0
   -1.4243   68.6752   67.1386 H   0  0  0  0  0  0  0  0  0  0  0  0
    0.2415   70.0290   68.4868 H   0  0  0  0  0  0  0  0  0  0  0  0
    0.5294   68.2269   68.4467 H   0  0  0  0  0  0  0  0  0  0  0  0
    6.3990   69.7957   65.5140 H   0  0  0  0  0  0  0  0  0  0  0  0
    7.8625   70.7812   67.2683 H   0  0  0  0  0  0  0  0  0  0  0  0
    6.9025   71.3520   69.4992 H   0  0  0  0  0  0  0  0  0  0  0  0
    4.4990   70.9208   69.9545 H   0  0  0  0  0  0  0  0  0  0  0  0
  2  1  1  0
  3  2  1  0
  5  4  2  0
  6  4  1  0
  6  3  1  0
  8  7  2  0
  9  8  1  0
 10  9  2  0
 11 10  1  0
 12  7  1  0
 12 11  2  0
 13 11  1  0
 14 13  2  0
 14  4  1  0
 15 14  1  0
 16 15  2  0
 17 15  1  0
 17 10  1  0
 19 18  1  0
 19  7  1  0
 20  1  1  0
 21 20  1  0
 22 21  1  0
 23 22  1  0
 24 23  1  0
 25 24  1  0
 26 25  1  0
 27 26  1  0
 28 27  1  0
 29 28  1  0
 30 29  1  0
 30 25  2  0
 31 30  1  0
 32 31  2  0
 33 32  1  0
 33 24  2  0
 34 33  1  0
 35 34  2  0
 36 35  1  0
 37 36  2  0
 37 32  1  0
  1 38  1  0
  1 39  1  0
  2 40  1  0
  2 41  1  0
  3 42  1  0
  3 43  1  0
  6 44  1  0
  8 45  1  0
  9 46  1  0
 12 47  1  0
 13 48  1  0
 18 49  1  0
 18 50  1  0
 18 51  1  0
 20 52  1  0
 20 53  1  0
 21 54  1  0
 21 55  1  0
 22 56  1  0
 22 57  1  0
 23 58  1  0
 26 59  1  0
 26 60  1  0
 27 61  1  0
 27 62  1  0
 28 63  1  0
 28 64  1  0
 29 65  1  0
 29 66  1  0
 34 67  1  0
 35 68  1  0
 36 69  1  0
 37 70  1  0
M  END
>  <score>  (5) 
-11.855

$$$$
=
     RDKit          3D

 70 74  0  0  0  0  0  0  0  0999 V2000
    4.2540   64.3880   64.5480 C   0  0  0  0  0  0  0  0  0  0  0  0
    3.4430   63.6580   65.6210 C   0  0  0  0  0  0  0  0  0  0  0  0
    4.2200   63.4250   66.9160 C   0  0  0  0  0  0  0  0  0  0  0  0
    3.7140   62.9180   69.2830 C   0  0  0  0  0  0  0  0  0  0  0  0
    4.8010   63.3400   69.6710 O   0  0  0  0  0  0  0  0  0  0  0  0
    3.3640   62.8970   67.9570 N   0  0  0  0  0  0  0  0  0  0  0  0
    1.3440   58.8620   73.2980 C   0  0  0  0  0  0  0  0  0  0  0  0
    0.1680   59.5620   73.5830 C   0  0  0  0  0  0  0  0  0  0  0  0
   -0.0820   60.7900   72.9660 C   0  0  0  0  0  0  0  0  0  0  0  0
    0.8480   61.3030   72.0690 C   0  0  0  0  0  0  0  0  0  0  0  0
    2.0230   60.6260   71.7710 C   0  0  0  0  0  0  0  0  0  0  0  0
    2.2670   59.3990   72.3910 C   0  0  0  0  0  0  0  0  0  0  0  0
    2.9530   61.2180   70.8240 C   0  0  0  0  0  0  0  0  0  0  0  0
    2.6880   62.4000   70.2440 C   0  0  0  0  0  0  0  0  0  0  0  0
    1.4390   63.1290   70.5620 C   0  0  0  0  0  0  0  0  0  0  0  0
    1.1710   64.2160   70.0530 O   0  0  0  0  0  0  0  0  0  0  0  0
    0.5630   62.5400   71.4690 O   0  0  0  0  0  0  0  0  0  0  0  0
    0.9810   57.2050   74.9650 C   0  0  0  0  0  0  0  0  0  0  0  0
    1.7090   57.6560   73.8310 O   0  0  0  0  0  0  0  0  0  0  0  0
    3.5500   65.6290   63.9940 C   0  0  0  0  0  0  0  0  0  0  0  0
    4.5630   66.6380   63.4420 C   0  0  0  0  0  0  0  0  0  0  0  0
    5.0480   67.6370   64.4960 C   0  0  0  0  0  0  0  0  0  0  0  0
    4.2790   68.8860   64.4040 N   0  0  0  0  0  0  0  0  0  0  0  0
    3.7360   69.2620   65.6710 C   0  0  0  0  0  0  0  0  0  0  0  0
    4.5540   69.8420   66.6630 C   0  0  0  0  0  0  0  0  0  0  0  0
    6.0100   70.1610   66.4140 C   0  0  0  0  0  0  0  0  0  0  0  0
    6.6530   71.0500   67.4780 C   0  0  0  0  0  0  0  0  0  0  0  0
    6.2740   70.5750   68.8710 C   0  0  0  0  0  0  0  0  0  0  0  0
    4.7650   70.6780   69.0520 C   0  0  0  0  0  0  0  0  0  0  0  0
    3.9850   70.0540   67.9230 C   0  0  0  0  0  0  0  0  0  0  0  0
    2.6970   69.7600   68.2180 N   0  0  0  0  0  0  0  0  0  0  0  0
    1.9170   69.2260   67.2690 C   0  0  0  0  0  0  0  0  0  0  0  0
    2.3810   68.9500   65.9700 C   0  0  0  0  0  0  0  0  0  0  0  0
    1.4780   68.3980   65.0290 C   0  0  0  0  0  0  0  0  0  0  0  0
    0.1570   68.1130   65.3710 C   0  0  0  0  0  0  0  0  0  0  0  0
   -0.2850   68.3800   66.6570 C   0  0  0  0  0  0  0  0  0  0  0  0
    0.5970   68.9330   67.5880 C   0  0  0  0  0  0  0  0  0  0  0  0
    5.2137   64.6982   64.9870 H   0  0  0  0  0  0  0  0  0  0  0  0
    4.3874   63.6886   63.7095 H   0  0  0  0  0  0  0  0  0  0  0  0
    2.5512   64.2588   65.8528 H   0  0  0  0  0  0  0  0  0  0  0  0
    3.1843   62.6688   65.2153 H   0  0  0  0  0  0  0  0  0  0  0  0
    5.0319   62.7085   66.7224 H   0  0  0  0  0  0  0  0  0  0  0  0
    4.6242   64.3899   67.2560 H   0  0  0  0  0  0  0  0  0  0  0  0
    2.4561   62.4894   67.6915 H   0  0  0  0  0  0  0  0  0  0  0  0
   -0.5610   59.1455   74.2937 H   0  0  0  0  0  0  0  0  0  0  0  0
   -1.0053   61.3454   73.1876 H   0  0  0  0  0  0  0  0  0  0  0  0
    3.1924   58.8489   72.1653 H   0  0  0  0  0  0  0  0  0  0  0  0
    3.8868   60.6907   70.5789 H   0  0  0  0  0  0  0  0  0  0  0  0
    1.4967   57.5245   75.8826 H   0  0  0  0  0  0  0  0  0  0  0  0
   -0.0316   57.6342   74.9451 H   0  0  0  0  0  0  0  0  0  0  0  0
    0.9144   56.1072   74.9451 H   0  0  0  0  0  0  0  0  0  0  0  0
    2.8690   65.3248   63.1855 H   0  0  0  0  0  0  0  0  0  0  0  0
    2.9905   66.1073   64.8114 H   0  0  0  0  0  0  0  0  0  0  0  0
    5.4326   66.0860   63.0559 H   0  0  0  0  0  0  0  0  0  0  0  0
    4.0575   67.2129   62.6520 H   0  0  0  0  0  0  0  0  0  0  0  0
    4.9153   67.2016   65.4974 H   0  0  0  0  0  0  0  0  0  0  0  0
    6.1113   67.8566   64.3196 H   0  0  0  0  0  0  0  0  0  0  0  0
    4.1479   69.4231   63.5350 H   0  0  0  0  0  0  0  0  0  0  0  0
    6.5677   69.2137   66.3744 H   0  0  0  0  0  0  0  0  0  0  0  0
    6.0509   70.7229   65.4692 H   0  0  0  0  0  0  0  0  0  0  0  0
    7.7468   71.0121   67.3681 H   0  0  0  0  0  0  0  0  0  0  0  0
    6.2930   72.0808   67.3442 H   0  0  0  0  0  0  0  0  0  0  0  0
    6.5877   69.5285   68.9991 H   0  0  0  0  0  0  0  0  0  0  0  0
    6.7761   71.2038   69.6210 H   0  0  0  0  0  0  0  0  0  0  0  0
    4.4903   70.1705   69.9885 H   0  0  0  0  0  0  0  0  0  0  0  0
    4.5114   71.7482   69.0707 H   0  0  0  0  0  0  0  0  0  0  0  0
    1.8264   68.1897   64.0066 H   0  0  0  0  0  0  0  0  0  0  0  0
   -0.5281   67.6803   64.6271 H   0  0  0  0  0  0  0  0  0  0  0  0
   -1.3238   68.1578   66.9426 H   0  0  0  0  0  0  0  0  0  0  0  0
    0.2353   69.1431   68.6054 H   0  0  0  0  0  0  0  0  0  0  0  0
  2  1  1  0
  3  2  1  0
  5  4  2  0
  6  4  1  0
  6  3  1  0
  8  7  2  0
  9  8  1  0
 10  9  2  0
 11 10  1  0
 12  7  1  0
 12 11  2  0
 13 11  1  0
 14 13  2  0
 14  4  1  0
 15 14  1  0
 16 15  2  0
 17 15  1  0
 17 10  1  0
 19 18  1  0
 19  7  1  0
 20  1  1  0
 21 20  1  0
 22 21  1  0
 23 22  1  0
 24 23  1  0
 25 24  1  0
 26 25  1  0
 27 26  1  0
 28 27  1  0
 29 28  1  0
 30 29  1  0
 30 25  2  0
 31 30  1  0
 32 31  2  0
 33 32  1  0
 33 24  2  0
 34 33  1  0
 35 34  2  0
 36 35  1  0
 37 36  2  0
 37 32  1  0
  1 38  1  0
  1 39  1  0
  2 40  1  0
  2 41  1  0
  3 42  1  0
  3 43  1  0
  6 44  1  0
  8 45  1  0
  9 46  1  0
 12 47  1  0
 13 48  1  0
 18 49  1  0
 18 50  1  0
 18 51  1  0
 20 52  1  0
 20 53  1  0
 21 54  1  0
 21 55  1  0
 22 56  1  0
 22 57  1  0
 23 58  1  0
 26 59  1  0
 26 60  1  0
 27 61  1  0
 27 62  1  0
 28 63  1  0
 28 64  1  0
 29 65  1  0
 29 66  1  0
 34 67  1  0
 35 68  1  0
 36 69  1  0
 37 70  1  0
M  END
>  <score>  (6) 
-11.436

$$$$
=
     RDKit          3D

 70 74  0  0  0  0  0  0  0  0999 V2000
   -0.4820   66.1920   68.7820 C   0  0  0  0  0  0  0  0  0  0  0  0
   -1.9180   66.6140   68.4640 C   0  0  0  0  0  0  0  0  0  0  0  0
   -2.1000   67.1190   67.0330 C   0  0  0  0  0  0  0  0  0  0  0  0
   -0.2230   68.6750   66.6200 C   0  0  0  0  0  0  0  0  0  0  0  0
   -0.7450   69.5760   67.2730 O   0  0  0  0  0  0  0  0  0  0  0  0
   -0.8290   67.4600   66.4290 N   0  0  0  0  0  0  0  0  0  0  0  0
    5.8210   69.9660   66.5730 C   0  0  0  0  0  0  0  0  0  0  0  0
    6.0350   69.7590   65.2080 C   0  0  0  0  0  0  0  0  0  0  0  0
    4.9740   69.3770   64.3820 C   0  0  0  0  0  0  0  0  0  0  0  0
    3.7090   69.2080   64.9360 C   0  0  0  0  0  0  0  0  0  0  0  0
    3.4730   69.4070   66.2880 C   0  0  0  0  0  0  0  0  0  0  0  0
    4.5380   69.7890   67.1080 C   0  0  0  0  0  0  0  0  0  0  0  0
    2.1270   69.2130   66.8020 C   0  0  0  0  0  0  0  0  0  0  0  0
    1.1240   68.8470   65.9870 C   0  0  0  0  0  0  0  0  0  0  0  0
    1.3710   68.6280   64.5440 C   0  0  0  0  0  0  0  0  0  0  0  0
    0.4760   68.2840   63.7740 O   0  0  0  0  0  0  0  0  0  0  0  0
    2.6670   68.8230   64.0760 O   0  0  0  0  0  0  0  0  0  0  0  0
    6.4420   71.4210   68.3500 C   0  0  0  0  0  0  0  0  0  0  0  0
    6.7680   70.3390   67.4860 O   0  0  0  0  0  0  0  0  0  0  0  0
   -0.1760   66.1620   70.2820 C   0  0  0  0  0  0  0  0  0  0  0  0
    0.9570   65.1780   70.5940 C   0  0  0  0  0  0  0  0  0  0  0  0
    0.4490   63.8000   71.0290 C   0  0  0  0  0  0  0  0  0  0  0  0
    1.0460   63.4240   72.3190 N   0  0  0  0  0  0  0  0  0  0  0  0
    1.4670   62.0590   72.3240 C   0  0  0  0  0  0  0  0  0  0  0  0
    0.6410   61.0510   72.8640 C   0  0  0  0  0  0  0  0  0  0  0  0
   -0.7450   61.3480   73.3890 C   0  0  0  0  0  0  0  0  0  0  0  0
   -1.6000   60.1090   73.6520 C   0  0  0  0  0  0  0  0  0  0  0  0
   -0.7930   59.0480   74.3810 C   0  0  0  0  0  0  0  0  0  0  0  0
    0.3770   58.6090   73.5110 C   0  0  0  0  0  0  0  0  0  0  0  0
    1.1760   59.7620   72.9600 C   0  0  0  0  0  0  0  0  0  0  0  0
    2.4210   59.4390   72.5380 N   0  0  0  0  0  0  0  0  0  0  0  0
    3.1980   60.3950   72.0090 C   0  0  0  0  0  0  0  0  0  0  0  0
    2.7760   61.7310   71.8760 C   0  0  0  0  0  0  0  0  0  0  0  0
    3.6620   62.6680   71.2910 C   0  0  0  0  0  0  0  0  0  0  0  0
    4.9350   62.2940   70.8640 C   0  0  0  0  0  0  0  0  0  0  0  0
    5.3430   60.9770   71.0100 C   0  0  0  0  0  0  0  0  0  0  0  0
    4.4710   60.0450   71.5770 C   0  0  0  0  0  0  0  0  0  0  0  0
   -0.3153   65.1851   68.3718 H   0  0  0  0  0  0  0  0  0  0  0  0
    0.1847   66.9406   68.3291 H   0  0  0  0  0  0  0  0  0  0  0  0
   -2.5776   65.7466   68.6141 H   0  0  0  0  0  0  0  0  0  0  0  0
   -2.1677   67.4478   69.1366 H   0  0  0  0  0  0  0  0  0  0  0  0
   -2.5816   66.3321   66.4340 H   0  0  0  0  0  0  0  0  0  0  0  0
   -2.7245   68.0241   67.0614 H   0  0  0  0  0  0  0  0  0  0  0  0
   -0.3617   66.7624   65.8324 H   0  0  0  0  0  0  0  0  0  0  0  0
    7.0400   69.8968   64.7826 H   0  0  0  0  0  0  0  0  0  0  0  0
    5.1373   69.2120   63.3068 H   0  0  0  0  0  0  0  0  0  0  0  0
    4.3678   69.9521   68.1824 H   0  0  0  0  0  0  0  0  0  0  0  0
    1.9273   69.3680   67.8726 H   0  0  0  0  0  0  0  0  0  0  0  0
    6.5397   71.0968   69.3966 H   0  0  0  0  0  0  0  0  0  0  0  0
    7.1271   72.2606   68.1608 H   0  0  0  0  0  0  0  0  0  0  0  0
    5.4071   71.7424   68.1608 H   0  0  0  0  0  0  0  0  0  0  0  0
    0.1228   67.1692   70.6080 H   0  0  0  0  0  0  0  0  0  0  0  0
   -1.0800   65.8352   70.8167 H   0  0  0  0  0  0  0  0  0  0  0  0
    1.5736   65.0555   69.6913 H   0  0  0  0  0  0  0  0  0  0  0  0
    1.5346   65.5957   71.4318 H   0  0  0  0  0  0  0  0  0  0  0  0
   -0.6459   63.8315   71.1305 H   0  0  0  0  0  0  0  0  0  0  0  0
    0.7340   63.0560   70.2706 H   0  0  0  0  0  0  0  0  0  0  0  0
    1.1479   64.0647   73.1190 H   0  0  0  0  0  0  0  0  0  0  0  0
   -0.6435   61.9026   74.3335 H   0  0  0  0  0  0  0  0  0  0  0  0
   -1.2601   61.9242   72.6063 H   0  0  0  0  0  0  0  0  0  0  0  0
   -2.4662   60.3915   74.2684 H   0  0  0  0  0  0  0  0  0  0  0  0
   -1.9366   59.6990   72.6883 H   0  0  0  0  0  0  0  0  0  0  0  0
   -0.4114   59.4630   75.3256 H   0  0  0  0  0  0  0  0  0  0  0  0
   -1.4362   58.1812   74.5929 H   0  0  0  0  0  0  0  0  0  0  0  0
    1.0452   57.9790   74.1165 H   0  0  0  0  0  0  0  0  0  0  0  0
   -0.0421   58.0635   72.6526 H   0  0  0  0  0  0  0  0  0  0  0  0
    3.3389   63.7126   71.1711 H   0  0  0  0  0  0  0  0  0  0  0  0
    5.6102   63.0374   70.4150 H   0  0  0  0  0  0  0  0  0  0  0  0
    6.3464   60.6684   70.6816 H   0  0  0  0  0  0  0  0  0  0  0  0
    4.8024   59.0017   71.6848 H   0  0  0  0  0  0  0  0  0  0  0  0
  2  1  1  0
  3  2  1  0
  5  4  2  0
  6  4  1  0
  6  3  1  0
  8  7  2  0
  9  8  1  0
 10  9  2  0
 11 10  1  0
 12  7  1  0
 12 11  2  0
 13 11  1  0
 14 13  2  0
 14  4  1  0
 15 14  1  0
 16 15  2  0
 17 15  1  0
 17 10  1  0
 19 18  1  0
 19  7  1  0
 20  1  1  0
 21 20  1  0
 22 21  1  0
 23 22  1  0
 24 23  1  0
 25 24  1  0
 26 25  1  0
 27 26  1  0
 28 27  1  0
 29 28  1  0
 30 29  1  0
 30 25  2  0
 31 30  1  0
 32 31  2  0
 33 32  1  0
 33 24  2  0
 34 33  1  0
 35 34  2  0
 36 35  1  0
 37 36  2  0
 37 32  1  0
  1 38  1  0
  1 39  1  0
  2 40  1  0
  2 41  1  0
  3 42  1  0
  3 43  1  0
  6 44  1  0
  8 45  1  0
  9 46  1  0
 12 47  1  0
 13 48  1  0
 18 49  1  0
 18 50  1  0
 18 51  1  0
 20 52  1  0
 20 53  1  0
 21 54  1  0
 21 55  1  0
 22 56  1  0
 22 57  1  0
 23 58  1  0
 26 59  1  0
 26 60  1  0
 27 61  1  0
 27 62  1  0
 28 63  1  0
 28 64  1  0
 29 65  1  0
 29 66  1  0
 34 67  1  0
 35 68  1  0
 36 69  1  0
 37 70  1  0
M  END
>  <score>  (7) 
-11.342

$$$$
=
     RDKit          3D

 70 74  0  0  0  0  0  0  0  0999 V2000
    0.5740   66.0540   69.9420 C   0  0  0  0  0  0  0  0  0  0  0  0
    0.2130   64.6450   70.4180 C   0  0  0  0  0  0  0  0  0  0  0  0
    0.9210   64.2410   71.7110 C   0  0  0  0  0  0  0  0  0  0  0  0
    0.8770   61.7960   72.0800 C   0  0  0  0  0  0  0  0  0  0  0  0
    1.8560   61.6070   71.3620 O   0  0  0  0  0  0  0  0  0  0  0  0
    0.3400   63.0430   72.2790 N   0  0  0  0  0  0  0  0  0  0  0  0
    0.3820   56.0210   74.2230 C   0  0  0  0  0  0  0  0  0  0  0  0
   -0.8750   56.1610   74.8180 C   0  0  0  0  0  0  0  0  0  0  0  0
   -1.5450   57.3850   74.7590 C   0  0  0  0  0  0  0  0  0  0  0  0
   -0.9480   58.4570   74.1040 C   0  0  0  0  0  0  0  0  0  0  0  0
    0.2990   58.3420   73.5070 C   0  0  0  0  0  0  0  0  0  0  0  0
    0.9640   57.1150   73.5690 C   0  0  0  0  0  0  0  0  0  0  0  0
    0.8670   59.5010   72.8380 C   0  0  0  0  0  0  0  0  0  0  0  0
    0.2010   60.6670   72.7950 C   0  0  0  0  0  0  0  0  0  0  0  0
   -1.1280   60.7960   73.4350 C   0  0  0  0  0  0  0  0  0  0  0  0
   -1.7590   61.8520   73.4190 O   0  0  0  0  0  0  0  0  0  0  0  0
   -1.6510   59.6720   74.0660 O   0  0  0  0  0  0  0  0  0  0  0  0
    2.3680   54.9170   74.9250 C   0  0  0  0  0  0  0  0  0  0  0  0
    1.1410   54.8830   74.2090 O   0  0  0  0  0  0  0  0  0  0  0  0
   -0.3810   66.5970   68.8760 C   0  0  0  0  0  0  0  0  0  0  0  0
    0.3880   67.3100   67.7580 C   0  0  0  0  0  0  0  0  0  0  0  0
    1.5890   68.1080   68.2730 C   0  0  0  0  0  0  0  0  0  0  0  0
    1.6660   69.4070   67.5870 N   0  0  0  0  0  0  0  0  0  0  0  0
    2.8800   69.5360   66.8450 C   0  0  0  0  0  0  0  0  0  0  0  0
    2.9410   69.1570   65.4880 C   0  0  0  0  0  0  0  0  0  0  0  0
    1.7230   68.6730   64.7370 C   0  0  0  0  0  0  0  0  0  0  0  0
    1.9030   68.5970   63.2210 C   0  0  0  0  0  0  0  0  0  0  0  0
    3.2350   67.9530   62.8740 C   0  0  0  0  0  0  0  0  0  0  0  0
    4.3730   68.8070   63.4190 C   0  0  0  0  0  0  0  0  0  0  0  0
    4.1950   69.1810   64.8680 C   0  0  0  0  0  0  0  0  0  0  0  0
    5.3290   69.5740   65.4960 N   0  0  0  0  0  0  0  0  0  0  0  0
    5.2660   69.9500   66.7800 C   0  0  0  0  0  0  0  0  0  0  0  0
    4.0650   69.9510   67.5140 C   0  0  0  0  0  0  0  0  0  0  0  0
    4.0940   70.3790   68.8630 C   0  0  0  0  0  0  0  0  0  0  0  0
    5.2820   70.7810   69.4720 C   0  0  0  0  0  0  0  0  0  0  0  0
    6.4600   70.7650   68.7410 C   0  0  0  0  0  0  0  0  0  0  0  0
    6.4380   70.3530   67.4070 C   0  0  0  0  0  0  0  0  0  0  0  0
    0.5516   66.7315   70.8083 H   0  0  0  0  0  0  0  0  0  0  0  0
    1.5731   65.9973   69.4854 H   0  0  0  0  0  0  0  0  0  0  0  0
   -0.8731   64.6016   70.5870 H   0  0  0  0  0  0  0  0  0  0  0  0
    0.5404   63.9442   69.6359 H   0  0  0  0  0  0  0  0  0  0  0  0
    1.9834   64.0556   71.4944 H   0  0  0  0  0  0  0  0  0  0  0  0
    0.8078   65.0589   72.4378 H   0  0  0  0  0  0  0  0  0  0  0  0
   -0.5095   63.1300   72.8549 H   0  0  0  0  0  0  0  0  0  0  0  0
   -1.3371   55.3061   75.3334 H   0  0  0  0  0  0  0  0  0  0  0  0
   -2.5345   57.5000   75.2256 H   0  0  0  0  0  0  0  0  0  0  0  0
    1.9532   57.0068   73.1003 H   0  0  0  0  0  0  0  0  0  0  0  0
    1.8550   59.4223   72.3608 H   0  0  0  0  0  0  0  0  0  0  0  0
    2.1623   54.9113   76.0056 H   0  0  0  0  0  0  0  0  0  0  0  0
    2.9707   54.0352   74.6618 H   0  0  0  0  0  0  0  0  0  0  0  0
    2.9209   55.8308   74.6618 H   0  0  0  0  0  0  0  0  0  0  0  0
   -0.9500   65.7607   68.4438 H   0  0  0  0  0  0  0  0  0  0  0  0
   -1.0591   67.3215   69.3507 H   0  0  0  0  0  0  0  0  0  0  0  0
    0.7489   66.5550   67.0441 H   0  0  0  0  0  0  0  0  0  0  0  0
   -0.3035   68.0237   67.2863 H   0  0  0  0  0  0  0  0  0  0  0  0
    1.4783   68.2741   69.3547 H   0  0  0  0  0  0  0  0  0  0  0  0
    2.5100   67.5407   68.0731 H   0  0  0  0  0  0  0  0  0  0  0  0
    0.9364   70.1324   67.6355 H   0  0  0  0  0  0  0  0  0  0  0  0
    1.4700   67.6673   65.1040 H   0  0  0  0  0  0  0  0  0  0  0  0
    0.9278   69.4103   64.9215 H   0  0  0  0  0  0  0  0  0  0  0  0
    1.0879   67.9975   62.7894 H   0  0  0  0  0  0  0  0  0  0  0  0
    1.8833   69.6168   62.8092 H   0  0  0  0  0  0  0  0  0  0  0  0
    3.2839   66.9493   63.3213 H   0  0  0  0  0  0  0  0  0  0  0  0
    3.3288   67.8739   61.7809 H   0  0  0  0  0  0  0  0  0  0  0  0
    5.3124   68.2440   63.3164 H   0  0  0  0  0  0  0  0  0  0  0  0
    4.3855   69.7421   62.8398 H   0  0  0  0  0  0  0  0  0  0  0  0
    3.1595   70.3948   69.4430 H   0  0  0  0  0  0  0  0  0  0  0  0
    5.2847   71.1077   70.5224 H   0  0  0  0  0  0  0  0  0  0  0  0
    7.4060   71.0749   69.2090 H   0  0  0  0  0  0  0  0  0  0  0  0
    7.3777   70.3474   66.8352 H   0  0  0  0  0  0  0  0  0  0  0  0
  2  1  1  0
  3  2  1  0
  5  4  2  0
  6  4  1  0
  6  3  1  0
  8  7  2  0
  9  8  1  0
 10  9  2  0
 11 10  1  0
 12  7  1  0
 12 11  2  0
 13 11  1  0
 14 13  2  0
 14  4  1  0
 15 14  1  0
 16 15  2  0
 17 15  1  0
 17 10  1  0
 19 18  1  0
 19  7  1  0
 20  1  1  0
 21 20  1  0
 22 21  1  0
 23 22  1  0
 24 23  1  0
 25 24  1  0
 26 25  1  0
 27 26  1  0
 28 27  1  0
 29 28  1  0
 30 29  1  0
 30 25  2  0
 31 30  1  0
 32 31  2  0
 33 32  1  0
 33 24  2  0
 34 33  1  0
 35 34  2  0
 36 35  1  0
 37 36  2  0
 37 32  1  0
  1 38  1  0
  1 39  1  0
  2 40  1  0
  2 41  1  0
  3 42  1  0
  3 43  1  0
  6 44  1  0
  8 45  1  0
  9 46  1  0
 12 47  1  0
 13 48  1  0
 18 49  1  0
 18 50  1  0
 18 51  1  0
 20 52  1  0
 20 53  1  0
 21 54  1  0
 21 55  1  0
 22 56  1  0
 22 57  1  0
 23 58  1  0
 26 59  1  0
 26 60  1  0
 27 61  1  0
 27 62  1  0
 28 63  1  0
 28 64  1  0
 29 65  1  0
 29 66  1  0
 34 67  1  0
 35 68  1  0
 36 69  1  0
 37 70  1  0
M  END
>  <score>  (8) 
-11.123

$$$$
=
     RDKit          3D

 70 74  0  0  0  0  0  0  0  0999 V2000
   -1.4600   66.9170   67.2740 C   0  0  0  0  0  0  0  0  0  0  0  0
   -1.1790   66.9860   68.7770 C   0  0  0  0  0  0  0  0  0  0  0  0
    0.2340   66.5400   69.1520 C   0  0  0  0  0  0  0  0  0  0  0  0
    1.2890   64.5980   70.2610 C   0  0  0  0  0  0  0  0  0  0  0  0
    2.3350   64.7270   69.6290 O   0  0  0  0  0  0  0  0  0  0  0  0
    0.2070   65.4190   70.0670 N   0  0  0  0  0  0  0  0  0  0  0  0
    2.1660   58.9900   72.7040 C   0  0  0  0  0  0  0  0  0  0  0  0
    1.4120   59.1830   73.8650 C   0  0  0  0  0  0  0  0  0  0  0  0
    0.7790   60.4080   74.0930 C   0  0  0  0  0  0  0  0  0  0  0  0
    0.9080   61.4250   73.1540 C   0  0  0  0  0  0  0  0  0  0  0  0
    1.6520   61.2560   71.9950 C   0  0  0  0  0  0  0  0  0  0  0  0
    2.2820   60.0300   71.7730 C   0  0  0  0  0  0  0  0  0  0  0  0
    1.7460   62.3600   71.0540 C   0  0  0  0  0  0  0  0  0  0  0  0
    1.1270   63.5280   71.2960 C   0  0  0  0  0  0  0  0  0  0  0  0
    0.3360   63.7150   72.5340 C   0  0  0  0  0  0  0  0  0  0  0  0
   -0.2350   64.7740   72.7880 O   0  0  0  0  0  0  0  0  0  0  0  0
    0.2590   62.6420   73.4170 O   0  0  0  0  0  0  0  0  0  0  0  0
    3.1790   57.6850   70.9930 C   0  0  0  0  0  0  0  0  0  0  0  0
    2.8330   57.8460   72.3620 O   0  0  0  0  0  0  0  0  0  0  0  0
   -0.2730   67.3610   66.4140 C   0  0  0  0  0  0  0  0  0  0  0  0
   -0.2210   68.8880   66.2920 C   0  0  0  0  0  0  0  0  0  0  0  0
    1.0580   69.4910   66.8800 C   0  0  0  0  0  0  0  0  0  0  0  0
    2.1190   68.4740   66.9360 N   0  0  0  0  0  0  0  0  0  0  0  0
    3.3250   68.9420   66.3300 C   0  0  0  0  0  0  0  0  0  0  0  0
    4.2490   69.7140   67.0660 C   0  0  0  0  0  0  0  0  0  0  0  0
    4.0510   70.0160   68.5330 C   0  0  0  0  0  0  0  0  0  0  0  0
    5.2810   70.5970   69.2300 C   0  0  0  0  0  0  0  0  0  0  0  0
    5.9170   71.6810   68.3760 C   0  0  0  0  0  0  0  0  0  0  0  0
    6.3900   71.0820   67.0590 C   0  0  0  0  0  0  0  0  0  0  0  0
    5.3370   70.2520   66.3690 C   0  0  0  0  0  0  0  0  0  0  0  0
    5.5530   70.0440   65.0490 N   0  0  0  0  0  0  0  0  0  0  0  0
    4.6830   69.2970   64.3570 C   0  0  0  0  0  0  0  0  0  0  0  0
    3.5430   68.7170   64.9440 C   0  0  0  0  0  0  0  0  0  0  0  0
    2.6880   67.9300   64.1340 C   0  0  0  0  0  0  0  0  0  0  0  0
    2.9480   67.7360   62.7780 C   0  0  0  0  0  0  0  0  0  0  0  0
    4.0690   68.3210   62.2100 C   0  0  0  0  0  0  0  0  0  0  0  0
    4.9220   69.0910   63.0040 C   0  0  0  0  0  0  0  0  0  0  0  0
   -1.7107   65.8782   67.0132 H   0  0  0  0  0  0  0  0  0  0  0  0
   -2.2895   67.6088   67.0659 H   0  0  0  0  0  0  0  0  0  0  0  0
   -1.3163   68.0254   69.1099 H   0  0  0  0  0  0  0  0  0  0  0  0
   -1.8789   66.2953   69.2700 H   0  0  0  0  0  0  0  0  0  0  0  0
    0.7704   66.2438   68.2385 H   0  0  0  0  0  0  0  0  0  0  0  0
    0.7428   67.3800   69.6475 H   0  0  0  0  0  0  0  0  0  0  0  0
   -0.6582   65.2302   70.5930 H   0  0  0  0  0  0  0  0  0  0  0  0
    1.3167   58.3700   74.5999 H   0  0  0  0  0  0  0  0  0  0  0  0
    0.1852   60.5657   75.0054 H   0  0  0  0  0  0  0  0  0  0  0  0
    2.8748   59.8795   70.8587 H   0  0  0  0  0  0  0  0  0  0  0  0
    2.3319   62.2377   70.1311 H   0  0  0  0  0  0  0  0  0  0  0  0
    4.1740   57.2220   70.9183 H   0  0  0  0  0  0  0  0  0  0  0  0
    2.4365   57.0399   70.5006 H   0  0  0  0  0  0  0  0  0  0  0  0
    3.1943   58.6685   70.5006 H   0  0  0  0  0  0  0  0  0  0  0  0
    0.6592   67.0056   66.8773 H   0  0  0  0  0  0  0  0  0  0  0  0
   -0.3916   66.9338   65.4073 H   0  0  0  0  0  0  0  0  0  0  0  0
   -0.2780   69.1569   65.2269 H   0  0  0  0  0  0  0  0  0  0  0  0
   -1.0692   69.2933   66.8633 H   0  0  0  0  0  0  0  0  0  0  0  0
    1.3895   70.3277   66.2475 H   0  0  0  0  0  0  0  0  0  0  0  0
    0.8505   69.8501   67.8988 H   0  0  0  0  0  0  0  0  0  0  0  0
    2.0066   67.5416   67.3590 H   0  0  0  0  0  0  0  0  0  0  0  0
    3.2282   70.7400   68.6271 H   0  0  0  0  0  0  0  0  0  0  0  0
    3.8359   69.0558   69.0248 H   0  0  0  0  0  0  0  0  0  0  0  0
    4.9793   71.0282   70.1959 H   0  0  0  0  0  0  0  0  0  0  0  0
    6.0142   69.7918   69.3853 H   0  0  0  0  0  0  0  0  0  0  0  0
    5.1770   72.4696   68.1746 H   0  0  0  0  0  0  0  0  0  0  0  0
    6.7765   72.1105   68.9115 H   0  0  0  0  0  0  0  0  0  0  0  0
    6.6832   71.9025   66.3876 H   0  0  0  0  0  0  0  0  0  0  0  0
    7.2327   70.4135   67.2891 H   0  0  0  0  0  0  0  0  0  0  0  0
    1.8002   67.4620   64.5843 H   0  0  0  0  0  0  0  0  0  0  0  0
    2.2699   67.1244   62.1647 H   0  0  0  0  0  0  0  0  0  0  0  0
    4.2854   68.1797   61.1408 H   0  0  0  0  0  0  0  0  0  0  0  0
    5.8103   69.5484   62.5439 H   0  0  0  0  0  0  0  0  0  0  0  0
  2  1  1  0
  3  2  1  0
  5  4  2  0
  6  4  1  0
  6  3  1  0
  8  7  2  0
  9  8  1  0
 10  9  2  0
 11 10  1  0
 12  7  1  0
 12 11  2  0
 13 11  1  0
 14 13  2  0
 14  4  1  0
 15 14  1  0
 16 15  2  0
 17 15  1  0
 17 10  1  0
 19 18  1  0
 19  7  1  0
 20  1  1  0
 21 20  1  0
 22 21  1  0
 23 22  1  0
 24 23  1  0
 25 24  1  0
 26 25  1  0
 27 26  1  0
 28 27  1  0
 29 28  1  0
 30 29  1  0
 30 25  2  0
 31 30  1  0
 32 31  2  0
 33 32  1  0
 33 24  2  0
 34 33  1  0
 35 34  2  0
 36 35  1  0
 37 36  2  0
 37 32  1  0
  1 38  1  0
  1 39  1  0
  2 40  1  0
  2 41  1  0
  3 42  1  0
  3 43  1  0
  6 44  1  0
  8 45  1  0
  9 46  1  0
 12 47  1  0
 13 48  1  0
 18 49  1  0
 18 50  1  0
 18 51  1  0
 20 52  1  0
 20 53  1  0
 21 54  1  0
 21 55  1  0
 22 56  1  0
 22 57  1  0
 23 58  1  0
 26 59  1  0
 26 60  1  0
 27 61  1  0
 27 62  1  0
 28 63  1  0
 28 64  1  0
 29 65  1  0
 29 66  1  0
 34 67  1  0
 35 68  1  0
 36 69  1  0
 37 70  1  0
M  END
>  <score>  (9) 
-10.848

$$$$
