=
     RDKit          3D

 43 45  0  0  0  0  0  0  0  0999 V2000
    1.4170   66.3470   69.6490 N   0  0  0  0  0  4  0  0  0  0  0  0
    0.4990   66.8290   68.8380 C   0  0  0  0  0  0  0  0  0  0  0  0
    0.8820   68.2950   67.9810 S   0  0  0  0  0  0  0  0  0  0  0  0
   -0.8170   68.4420   67.2540 C   0  0  2  0  0  0  0  0  0  0  0  0
   -1.4930   67.1450   67.6610 C   0  0  0  0  0  0  0  0  0  0  0  0
   -2.5580   66.6780   67.3230 O   0  0  0  0  0  0  0  0  0  0  0  0
   -0.7080   66.3880   68.5700 N   0  0  0  0  0  0  0  0  0  0  0  0
    2.2760   62.9300   70.6580 C   0  0  0  0  0  0  0  0  0  0  0  0
    1.3550   62.7020   71.6790 C   0  0  0  0  0  0  0  0  0  0  0  0
    0.4160   63.6800   72.0070 C   0  0  0  0  0  0  0  0  0  0  0  0
    0.4120   64.9060   71.3380 C   0  0  0  0  0  0  0  0  0  0  0  0
    1.3610   65.1790   70.3480 C   0  0  0  0  0  0  0  0  0  0  0  0
    2.2670   64.1690   70.0010 C   0  0  0  0  0  0  0  0  0  0  0  0
    4.9660   62.3040   71.1170 C   0  0  0  0  0  0  0  0  0  0  0  0
    3.5200   61.7480   70.1710 S   0  0  0  0  0  0  0  0  0  0  0  0
   -0.7620   68.5950   65.7390 C   0  0  0  0  0  0  0  0  0  0  0  0
    0.5510   68.0430   65.2160 C   0  0  0  0  0  0  0  0  0  0  0  0
    0.8160   66.8530   65.3400 O   0  0  0  0  0  0  0  0  0  0  0  0
    1.3320   69.0140   64.6200 N   0  0  0  0  0  0  0  0  0  0  0  0
    2.6130   68.8470   64.0480 C   0  0  0  0  0  0  0  0  0  0  0  0
    2.8410   68.6270   62.6840 C   0  0  0  0  0  0  0  0  0  0  0  0
    4.1440   68.4680   62.1950 C   0  0  0  0  0  0  0  0  0  0  0  0
    5.2210   68.5290   63.0690 C   0  0  0  0  0  0  0  0  0  0  0  0
    5.0050   68.7460   64.4220 C   0  0  0  0  0  0  0  0  0  0  0  0
    3.7110   68.9050   64.9160 C   0  0  0  0  0  0  0  0  0  0  0  0
    6.0390   68.8050   65.2720 F   0  0  0  0  0  0  0  0  0  0  0  0
    6.4650   68.3750   62.5980 F   0  0  0  0  0  0  0  0  0  0  0  0
    2.2689   66.9136   69.7678 H   0  0  0  0  0  0  0  0  0  0  0  0
   -1.3582   69.3309   67.6104 H   0  0  0  0  0  0  0  0  0  0  0  0
   -1.0713   65.5266   69.0022 H   0  0  0  0  0  0  0  0  0  0  0  0
    1.3686   61.7486   72.2274 H   0  0  0  0  0  0  0  0  0  0  0  0
   -0.3248   63.4847   72.7963 H   0  0  0  0  0  0  0  0  0  0  0  0
   -0.3442   65.6633   71.5921 H   0  0  0  0  0  0  0  0  0  0  0  0
    2.9900   64.3522   69.1925 H   0  0  0  0  0  0  0  0  0  0  0  0
    4.7536   62.2223   72.1932 H   0  0  0  0  0  0  0  0  0  0  0  0
    5.8327   61.6750   70.8655 H   0  0  0  0  0  0  0  0  0  0  0  0
    5.1880   63.3516   70.8655 H   0  0  0  0  0  0  0  0  0  0  0  0
   -1.5976   68.0421   65.2852 H   0  0  0  0  0  0  0  0  0  0  0  0
   -0.8387   69.6608   65.4777 H   0  0  0  0  0  0  0  0  0  0  0  0
    0.9369   69.9647   64.5892 H   0  0  0  0  0  0  0  0  0  0  0  0
    1.9889   68.5786   61.9900 H   0  0  0  0  0  0  0  0  0  0  0  0
    4.3134   68.2954   61.1219 H   0  0  0  0  0  0  0  0  0  0  0  0
    3.5517   69.0765   65.9908 H   0  0  0  0  0  0  0  0  0  0  0  0
  2  1  2  0
  3  2  1  0
  4  3  1  0
  5  4  1  0
  6  5  2  0
  7  5  1  0
  7  2  1  0
  9  8  2  0
 10  9  1  0
 11 10  2  0
 12 11  1  0
 12  1  1  0
 13 12  2  0
 13  8  1  0
 15  8  1  0
 15 14  1  0
 16  4  1  0
 17 16  1  0
 18 17  2  0
 19 17  1  0
 20 19  1  0
 21 20  2  0
 22 21  1  0
 23 22  2  0
 24 23  1  0
 25 24  2  0
 25 20  1  0
 26 24  1  0
 27 23  1  0
  1 28  1  0
  4 29  1  1
  7 30  1  0
  9 31  1  0
 10 32  1  0
 11 33  1  0
 13 34  1  0
 14 35  1  0
 14 36  1  0
 14 37  1  0
 16 38  1  0
 16 39  1  0
 19 40  1  0
 21 41  1  0
 22 42  1  0
 25 43  1  0
M  CHG  1   1   1
M  END
>  <score>  (1) 
-10.315

$$$$
=
     RDKit          3D

 43 45  0  0  0  0  0  0  0  0999 V2000
    1.4310   66.6960   69.7190 N   0  0  0  0  0  4  0  0  0  0  0  0
    0.6400   67.1410   68.7650 C   0  0  0  0  0  0  0  0  0  0  0  0
    1.1280   68.5920   67.9370 S   0  0  0  0  0  0  0  0  0  0  0  0
   -0.4430   68.6890   66.9560 C   0  0  2  0  0  0  0  0  0  0  0  0
   -1.1530   67.3900   67.2910 C   0  0  0  0  0  0  0  0  0  0  0  0
   -2.1480   66.8960   66.8080 O   0  0  0  0  0  0  0  0  0  0  0  0
   -0.5060   66.6710   68.3290 N   0  0  0  0  0  0  0  0  0  0  0  0
    2.1580   63.3090   70.9170 C   0  0  0  0  0  0  0  0  0  0  0  0
    1.1100   63.1010   71.8130 C   0  0  0  0  0  0  0  0  0  0  0  0
    0.1330   64.0810   71.9900 C   0  0  0  0  0  0  0  0  0  0  0  0
    0.2150   65.2910   71.2960 C   0  0  0  0  0  0  0  0  0  0  0  0
    1.2860   65.5450   70.4340 C   0  0  0  0  0  0  0  0  0  0  0  0
    2.2330   64.5320   70.2350 C   0  0  0  0  0  0  0  0  0  0  0  0
    4.9290   63.1840   70.5400 C   0  0  0  0  0  0  0  0  0  0  0  0
    3.4580   62.1230   70.6280 S   0  0  0  0  0  0  0  0  0  0  0  0
   -0.1590   68.8060   65.4640 C   0  0  0  0  0  0  0  0  0  0  0  0
    1.2560   68.3400   65.1730 C   0  0  0  0  0  0  0  0  0  0  0  0
    2.1930   69.1260   65.2420 O   0  0  0  0  0  0  0  0  0  0  0  0
    1.3140   66.9970   64.8540 N   0  0  0  0  0  0  0  0  0  0  0  0
    2.4640   66.2500   64.5130 C   0  0  0  0  0  0  0  0  0  0  0  0
    3.3660   66.6140   63.5050 C   0  0  0  0  0  0  0  0  0  0  0  0
    4.4820   65.8160   63.2260 C   0  0  0  0  0  0  0  0  0  0  0  0
    4.6990   64.6530   63.9540 C   0  0  0  0  0  0  0  0  0  0  0  0
    3.8110   64.2850   64.9530 C   0  0  0  0  0  0  0  0  0  0  0  0
    2.6970   65.0730   65.2370 C   0  0  0  0  0  0  0  0  0  0  0  0
    4.0120   63.1640   65.6590 F   0  0  0  0  0  0  0  0  0  0  0  0
    5.7680   63.8920   63.6820 F   0  0  0  0  0  0  0  0  0  0  0  0
    2.2470   67.2807   69.9496 H   0  0  0  0  0  0  0  0  0  0  0  0
   -1.0463   69.5756   67.2011 H   0  0  0  0  0  0  0  0  0  0  0  0
   -0.9188   65.8144   68.7248 H   0  0  0  0  0  0  0  0  0  0  0  0
    1.0534   62.1613   72.3820 H   0  0  0  0  0  0  0  0  0  0  0  0
   -0.7054   63.9004   72.6788 H   0  0  0  0  0  0  0  0  0  0  0  0
   -0.5698   66.0502   71.4290 H   0  0  0  0  0  0  0  0  0  0  0  0
    3.0566   64.7003   69.5255 H   0  0  0  0  0  0  0  0  0  0  0  0
    5.2668   63.4276   71.5581 H   0  0  0  0  0  0  0  0  0  0  0  0
    5.7311   62.6551   70.0043 H   0  0  0  0  0  0  0  0  0  0  0  0
    4.6802   64.1120   70.0043 H   0  0  0  0  0  0  0  0  0  0  0  0
   -0.8716   68.1806   64.9063 H   0  0  0  0  0  0  0  0  0  0  0  0
   -0.2670   69.8560   65.1545 H   0  0  0  0  0  0  0  0  0  0  0  0
    0.4210   66.4839   64.8661 H   0  0  0  0  0  0  0  0  0  0  0  0
    3.1960   67.5348   62.9277 H   0  0  0  0  0  0  0  0  0  0  0  0
    5.1851   66.1092   62.4325 H   0  0  0  0  0  0  0  0  0  0  0  0
    1.9990   64.7703   66.0314 H   0  0  0  0  0  0  0  0  0  0  0  0
  2  1  2  0
  3  2  1  0
  4  3  1  0
  5  4  1  0
  6  5  2  0
  7  5  1  0
  7  2  1  0
  9  8  2  0
 10  9  1  0
 11 10  2  0
 12 11  1  0
 12  1  1  0
 13 12  2  0
 13  8  1  0
 15  8  1  0
 15 14  1  0
 16  4  1  0
 17 16  1  0
 18 17  2  0
 19 17  1  0
 20 19  1  0
 21 20  2  0
 22 21  1  0
 23 22  2  0
 24 23  1  0
 25 24  2  0
 25 20  1  0
 26 24  1  0
 27 23  1  0
  1 28  1  0
  4 29  1  1
  7 30  1  0
  9 31  1  0
 10 32  1  0
 11 33  1  0
 13 34  1  0
 14 35  1  0
 14 36  1  0
 14 37  1  0
 16 38  1  0
 16 39  1  0
 19 40  1  0
 21 41  1  0
 22 42  1  0
 25 43  1  0
M  CHG  1   1   1
M  END
>  <score>  (2) 
-9.867

$$$$
=
     RDKit          3D

 43 45  0  0  0  0  0  0  0  0999 V2000
    1.4190   65.4640   70.5170 N   0  0  0  0  0  4  0  0  0  0  0  0
    0.7010   66.1020   69.6170 C   0  0  0  0  0  0  0  0  0  0  0  0
    1.3320   67.6090   69.0170 S   0  0  0  0  0  0  0  0  0  0  0  0
   -0.1890   67.9740   68.0210 C   0  0  2  0  0  0  0  0  0  0  0  0
   -1.0120   66.7040   68.1490 C   0  0  0  0  0  0  0  0  0  0  0  0
   -2.0240   66.3670   67.5760 O   0  0  0  0  0  0  0  0  0  0  0  0
   -0.4620   65.7960   69.0900 N   0  0  0  0  0  0  0  0  0  0  0  0
    1.8530   61.9030   71.2700 C   0  0  0  0  0  0  0  0  0  0  0  0
    0.7410   61.6510   72.0720 C   0  0  0  0  0  0  0  0  0  0  0  0
   -0.1810   62.6650   72.3320 C   0  0  0  0  0  0  0  0  0  0  0  0
    0.0210   63.9490   71.8180 C   0  0  0  0  0  0  0  0  0  0  0  0
    1.1560   64.2400   71.0560 C   0  0  0  0  0  0  0  0  0  0  0  0
    2.0480   63.1980   70.7690 C   0  0  0  0  0  0  0  0  0  0  0  0
    3.8320   61.3430   69.3700 C   0  0  0  0  0  0  0  0  0  0  0  0
    3.0900   60.6770   70.8870 S   0  0  0  0  0  0  0  0  0  0  0  0
    0.1570   68.2740   66.5680 C   0  0  0  0  0  0  0  0  0  0  0  0
    1.6650   68.2720   66.3900 C   0  0  0  0  0  0  0  0  0  0  0  0
    2.2200   67.3370   65.8270 O   0  0  0  0  0  0  0  0  0  0  0  0
    2.2590   69.4050   66.9120 N   0  0  0  0  0  0  0  0  0  0  0  0
    3.6380   69.7140   66.9310 C   0  0  0  0  0  0  0  0  0  0  0  0
    4.4830   69.5990   65.8210 C   0  0  0  0  0  0  0  0  0  0  0  0
    5.8420   69.9220   65.9230 C   0  0  0  0  0  0  0  0  0  0  0  0
    6.3580   70.3610   67.1350 C   0  0  0  0  0  0  0  0  0  0  0  0
    5.5280   70.4770   68.2410 C   0  0  0  0  0  0  0  0  0  0  0  0
    4.1750   70.1560   68.1480 C   0  0  0  0  0  0  0  0  0  0  0  0
    6.0190   70.8970   69.4140 F   0  0  0  0  0  0  0  0  0  0  0  0
    7.6590   70.6670   67.2290 F   0  0  0  0  0  0  0  0  0  0  0  0
    2.2698   65.9402   70.8492 H   0  0  0  0  0  0  0  0  0  0  0  0
   -0.7277   68.8652   68.3753 H   0  0  0  0  0  0  0  0  0  0  0  0
   -0.9559   64.9302   69.3497 H   0  0  0  0  0  0  0  0  0  0  0  0
    0.5901   60.6495   72.5011 H   0  0  0  0  0  0  0  0  0  0  0  0
   -1.0703   62.4533   72.9438 H   0  0  0  0  0  0  0  0  0  0  0  0
   -0.7201   64.7377   72.0150 H   0  0  0  0  0  0  0  0  0  0  0  0
    2.9234   63.4012   70.1346 H   0  0  0  0  0  0  0  0  0  0  0  0
    4.6268   62.0564   69.6332 H   0  0  0  0  0  0  0  0  0  0  0  0
    4.2593   60.5197   68.7788 H   0  0  0  0  0  0  0  0  0  0  0  0
    3.0595   61.8565   68.7788 H   0  0  0  0  0  0  0  0  0  0  0  0
   -0.2887   67.5052   65.9198 H   0  0  0  0  0  0  0  0  0  0  0  0
   -0.2406   69.2628   66.2955 H   0  0  0  0  0  0  0  0  0  0  0  0
    1.6274   70.1009   67.3336 H   0  0  0  0  0  0  0  0  0  0  0  0
    4.0760   69.2518   64.8599 H   0  0  0  0  0  0  0  0  0  0  0  0
    6.4986   69.8282   65.0455 H   0  0  0  0  0  0  0  0  0  0  0  0
    3.5269   70.2497   69.0318 H   0  0  0  0  0  0  0  0  0  0  0  0
  2  1  2  0
  3  2  1  0
  4  3  1  0
  5  4  1  0
  6  5  2  0
  7  5  1  0
  7  2  1  0
  9  8  2  0
 10  9  1  0
 11 10  2  0
 12 11  1  0
 12  1  1  0
 13 12  2  0
 13  8  1  0
 15  8  1  0
 15 14  1  0
 16  4  1  0
 17 16  1  0
 18 17  2  0
 19 17  1  0
 20 19  1  0
 21 20  2  0
 22 21  1  0
 23 22  2  0
 24 23  1  0
 25 24  2  0
 25 20  1  0
 26 24  1  0
 27 23  1  0
  1 28  1  0
  4 29  1  1
  7 30  1  0
  9 31  1  0
 10 32  1  0
 11 33  1  0
 13 34  1  0
 14 35  1  0
 14 36  1  0
 14 37  1  0
 16 38  1  0
 16 39  1  0
 19 40  1  0
 21 41  1  0
 22 42  1  0
 25 43  1  0
M  CHG  1   1   1
M  END
>  <score>  (3) 
-9.66

$$$$
=
     RDKit          3D

 43 45  0  0  0  0  0  0  0  0999 V2000
   -0.7180   68.7770   64.7060 N   0  0  0  0  0  4  0  0  0  0  0  0
   -0.3700   68.2350   65.8550 C   0  0  0  0  0  0  0  0  0  0  0  0
   -1.6020   68.0920   67.0750 S   0  0  0  0  0  0  0  0  0  0  0  0
   -0.4150   67.4720   68.3560 C   0  0  2  0  0  0  0  0  0  0  0  0
    0.8760   67.2760   67.5810 C   0  0  0  0  0  0  0  0  0  0  0  0
    1.9170   66.7560   67.9140 O   0  0  0  0  0  0  0  0  0  0  0  0
    0.7960   67.7870   66.2600 N   0  0  0  0  0  0  0  0  0  0  0  0
    2.2460   68.5260   62.5660 C   0  0  0  0  0  0  0  0  0  0  0  0
    1.7940   69.1300   61.3940 C   0  0  0  0  0  0  0  0  0  0  0  0
    0.5050   69.6590   61.3290 C   0  0  0  0  0  0  0  0  0  0  0  0
   -0.3530   69.5590   62.4270 C   0  0  0  0  0  0  0  0  0  0  0  0
    0.0590   68.9100   63.5940 C   0  0  0  0  0  0  0  0  0  0  0  0
    1.3710   68.4240   63.6560 C   0  0  0  0  0  0  0  0  0  0  0  0
    3.5820   66.5030   63.9670 C   0  0  0  0  0  0  0  0  0  0  0  0
    3.8710   67.8130   62.7430 S   0  0  0  0  0  0  0  0  0  0  0  0
   -0.8990   66.1690   68.9790 C   0  0  0  0  0  0  0  0  0  0  0  0
    0.0890   65.7070   70.0350 C   0  0  0  0  0  0  0  0  0  0  0  0
    0.3950   66.4470   70.9620 O   0  0  0  0  0  0  0  0  0  0  0  0
    0.5440   64.4230   69.8060 N   0  0  0  0  0  0  0  0  0  0  0  0
    1.4790   63.6980   70.5790 C   0  0  0  0  0  0  0  0  0  0  0  0
    1.1310   62.8530   71.6410 C   0  0  0  0  0  0  0  0  0  0  0  0
    2.1190   62.1710   72.3610 C   0  0  0  0  0  0  0  0  0  0  0  0
    3.4560   62.3330   72.0230 C   0  0  0  0  0  0  0  0  0  0  0  0
    3.8100   63.1680   70.9740 C   0  0  0  0  0  0  0  0  0  0  0  0
    2.8320   63.8510   70.2520 C   0  0  0  0  0  0  0  0  0  0  0  0
    5.0980   63.3310   70.6420 F   0  0  0  0  0  0  0  0  0  0  0  0
    4.3980   61.6790   72.7160 F   0  0  0  0  0  0  0  0  0  0  0  0
   -1.6801   69.1390   64.6409 H   0  0  0  0  0  0  0  0  0  0  0  0
   -0.2997   68.1656   69.2019 H   0  0  0  0  0  0  0  0  0  0  0  0
    1.6203   67.8059   65.6427 H   0  0  0  0  0  0  0  0  0  0  0  0
    2.4559   69.1897   60.5175 H   0  0  0  0  0  0  0  0  0  0  0  0
    0.1627   70.1568   60.4097 H   0  0  0  0  0  0  0  0  0  0  0  0
   -1.3615   69.9949   62.3725 H   0  0  0  0  0  0  0  0  0  0  0  0
    1.7237   67.9501   64.5839 H   0  0  0  0  0  0  0  0  0  0  0  0
    3.6742   66.9211   64.9803 H   0  0  0  0  0  0  0  0  0  0  0  0
    2.5713   66.0907   63.8311 H   0  0  0  0  0  0  0  0  0  0  0  0
    4.3254   65.7037   63.8311 H   0  0  0  0  0  0  0  0  0  0  0  0
   -1.8827   66.3298   69.4444 H   0  0  0  0  0  0  0  0  0  0  0  0
   -0.9809   65.4002   68.1965 H   0  0  0  0  0  0  0  0  0  0  0  0
    0.1595   63.9409   68.9810 H   0  0  0  0  0  0  0  0  0  0  0  0
    0.0725   62.7244   71.9113 H   0  0  0  0  0  0  0  0  0  0  0  0
    1.8369   61.5084   73.1925 H   0  0  0  0  0  0  0  0  0  0  0  0
    3.1242   64.5121   69.4229 H   0  0  0  0  0  0  0  0  0  0  0  0
  2  1  2  0
  3  2  1  0
  4  3  1  0
  5  4  1  0
  6  5  2  0
  7  5  1  0
  7  2  1  0
  9  8  2  0
 10  9  1  0
 11 10  2  0
 12 11  1  0
 12  1  1  0
 13 12  2  0
 13  8  1  0
 15  8  1  0
 15 14  1  0
 16  4  1  0
 17 16  1  0
 18 17  2  0
 19 17  1  0
 20 19  1  0
 21 20  2  0
 22 21  1  0
 23 22  2  0
 24 23  1  0
 25 24  2  0
 25 20  1  0
 26 24  1  0
 27 23  1  0
  1 28  1  0
  4 29  1  1
  7 30  1  0
  9 31  1  0
 10 32  1  0
 11 33  1  0
 13 34  1  0
 14 35  1  0
 14 36  1  0
 14 37  1  0
 16 38  1  0
 16 39  1  0
 19 40  1  0
 21 41  1  0
 22 42  1  0
 25 43  1  0
M  CHG  1   1   1
M  END
>  <score>  (4) 
-8.886

$$$$
=
     RDKit          3D

 43 45  0  0  0  0  0  0  0  0999 V2000
    0.8490   67.9140   67.5570 N   0  0  0  0  0  4  0  0  0  0  0  0
    0.8730   67.0010   68.5060 C   0  0  0  0  0  0  0  0  0  0  0  0
   -0.6580   66.4600   69.1310 S   0  0  0  0  0  0  0  0  0  0  0  0
    0.1260   65.4150   70.4470 C   0  0  2  0  0  0  0  0  0  0  0  0
    1.6070   65.4830   70.1210 C   0  0  0  0  0  0  0  0  0  0  0  0
    2.5390   64.8640   70.5850 O   0  0  0  0  0  0  0  0  0  0  0  0
    1.8930   66.4230   69.0980 N   0  0  0  0  0  0  0  0  0  0  0  0
    3.9920   69.7090   66.9800 C   0  0  0  0  0  0  0  0  0  0  0  0
    4.1640   69.5330   65.6080 C   0  0  0  0  0  0  0  0  0  0  0  0
    3.2060   68.8450   64.8630 C   0  0  0  0  0  0  0  0  0  0  0  0
    2.0840   68.2990   65.4920 C   0  0  0  0  0  0  0  0  0  0  0  0
    1.9170   68.4150   66.8750 C   0  0  0  0  0  0  0  0  0  0  0  0
    2.8660   69.1470   67.5990 C   0  0  0  0  0  0  0  0  0  0  0  0
    4.1720   70.9210   69.4970 C   0  0  0  0  0  0  0  0  0  0  0  0
    5.1620   70.5650   68.0180 S   0  0  0  0  0  0  0  0  0  0  0  0
   -0.3930   63.9840   70.4030 C   0  0  0  0  0  0  0  0  0  0  0  0
    0.2110   63.1840   71.5430 C   0  0  0  0  0  0  0  0  0  0  0  0
   -0.1450   63.3850   72.6970 O   0  0  0  0  0  0  0  0  0  0  0  0
    1.1440   62.2640   71.1050 N   0  0  0  0  0  0  0  0  0  0  0  0
    1.9040   61.3750   71.8990 C   0  0  0  0  0  0  0  0  0  0  0  0
    1.3720   60.2590   72.5560 C   0  0  0  0  0  0  0  0  0  0  0  0
    2.1940   59.4280   73.3280 C   0  0  0  0  0  0  0  0  0  0  0  0
    3.5480   59.7120   73.4450 C   0  0  0  0  0  0  0  0  0  0  0  0
    4.0830   60.8160   72.7990 C   0  0  0  0  0  0  0  0  0  0  0  0
    3.2720   61.6490   72.0300 C   0  0  0  0  0  0  0  0  0  0  0  0
    5.3880   61.0980   72.9090 F   0  0  0  0  0  0  0  0  0  0  0  0
    4.3290   58.9150   74.1860 F   0  0  0  0  0  0  0  0  0  0  0  0
   -0.0760   68.2894   67.3032 H   0  0  0  0  0  0  0  0  0  0  0  0
   -0.1002   65.7684   71.4638 H   0  0  0  0  0  0  0  0  0  0  0  0
    2.8627   66.6437   68.8299 H   0  0  0  0  0  0  0  0  0  0  0  0
    5.0580   69.9379   65.1111 H   0  0  0  0  0  0  0  0  0  0  0  0
    3.3343   68.7319   63.7764 H   0  0  0  0  0  0  0  0  0  0  0  0
    1.3254   67.7732   64.8935 H   0  0  0  0  0  0  0  0  0  0  0  0
    2.7247   69.2848   68.6812 H   0  0  0  0  0  0  0  0  0  0  0  0
    4.7672   70.7070   70.3969 H   0  0  0  0  0  0  0  0  0  0  0  0
    3.8783   71.9811   69.4952 H   0  0  0  0  0  0  0  0  0  0  0  0
    3.2705   70.2907   69.4952 H   0  0  0  0  0  0  0  0  0  0  0  0
   -1.4886   63.9895   70.5008 H   0  0  0  0  0  0  0  0  0  0  0  0
   -0.1093   63.5235   69.4452 H   0  0  0  0  0  0  0  0  0  0  0  0
    1.3033   62.2212   70.0883 H   0  0  0  0  0  0  0  0  0  0  0  0
    0.2993   60.0328   72.4652 H   0  0  0  0  0  0  0  0  0  0  0  0
    1.7679   58.5527   73.8402 H   0  0  0  0  0  0  0  0  0  0  0  0
    3.7070   62.5238   71.5246 H   0  0  0  0  0  0  0  0  0  0  0  0
  2  1  2  0
  3  2  1  0
  4  3  1  0
  5  4  1  0
  6  5  2  0
  7  5  1  0
  7  2  1  0
  9  8  2  0
 10  9  1  0
 11 10  2  0
 12 11  1  0
 12  1  1  0
 13 12  2  0
 13  8  1  0
 15  8  1  0
 15 14  1  0
 16  4  1  0
 17 16  1  0
 18 17  2  0
 19 17  1  0
 20 19  1  0
 21 20  2  0
 22 21  1  0
 23 22  2  0
 24 23  1  0
 25 24  2  0
 25 20  1  0
 26 24  1  0
 27 23  1  0
  1 28  1  0
  4 29  1  1
  7 30  1  0
  9 31  1  0
 10 32  1  0
 11 33  1  0
 13 34  1  0
 14 35  1  0
 14 36  1  0
 14 37  1  0
 16 38  1  0
 16 39  1  0
 19 40  1  0
 21 41  1  0
 22 42  1  0
 25 43  1  0
M  CHG  1   1   1
M  END
>  <score>  (5) 
-8.647

$$$$
=
     RDKit          3D

 43 45  0  0  0  0  0  0  0  0999 V2000
   -0.0680   65.9970   70.0530 N   0  0  0  0  0  4  0  0  0  0  0  0
    0.8210   65.0990   70.4220 C   0  0  0  0  0  0  0  0  0  0  0  0
    0.4610   64.1550   71.8390 S   0  0  0  0  0  0  0  0  0  0  0  0
    2.1170   63.3220   71.8370 C   0  0  2  0  0  0  0  0  0  0  0  0
    2.7500   63.7890   70.5390 C   0  0  0  0  0  0  0  0  0  0  0  0
    3.7670   63.4270   69.9900 O   0  0  0  0  0  0  0  0  0  0  0  0
    1.9860   64.7970   69.8970 N   0  0  0  0  0  0  0  0  0  0  0  0
    1.2030   68.4710   67.6660 C   0  0  0  0  0  0  0  0  0  0  0  0
    0.1920   68.4750   66.7060 C   0  0  0  0  0  0  0  0  0  0  0  0
   -0.9400   67.6760   66.8750 C   0  0  0  0  0  0  0  0  0  0  0  0
   -1.0530   66.8430   67.9910 C   0  0  0  0  0  0  0  0  0  0  0  0
   -0.0280   66.7810   68.9390 C   0  0  0  0  0  0  0  0  0  0  0  0
    1.0800   67.6220   68.7760 C   0  0  0  0  0  0  0  0  0  0  0  0
    3.2470   69.0720   65.8500 C   0  0  0  0  0  0  0  0  0  0  0  0
    2.6890   69.4480   67.5370 S   0  0  0  0  0  0  0  0  0  0  0  0
    1.9770   61.8060   71.8800 C   0  0  0  0  0  0  0  0  0  0  0  0
    1.1030   61.4050   73.0550 C   0  0  0  0  0  0  0  0  0  0  0  0
    1.4350   61.6900   74.1990 O   0  0  0  0  0  0  0  0  0  0  0  0
   -0.0370   60.7310   72.6600 N   0  0  0  0  0  0  0  0  0  0  0  0
   -1.0490   60.2050   73.4930 C   0  0  0  0  0  0  0  0  0  0  0  0
   -0.9460   58.9900   74.1810 C   0  0  0  0  0  0  0  0  0  0  0  0
   -1.9980   58.5350   74.9870 C   0  0  0  0  0  0  0  0  0  0  0  0
   -3.1540   59.2950   75.1050 C   0  0  0  0  0  0  0  0  0  0  0  0
   -3.2660   60.4990   74.4270 C   0  0  0  0  0  0  0  0  0  0  0  0
   -2.2240   60.9580   73.6230 C   0  0  0  0  0  0  0  0  0  0  0  0
   -4.3790   61.2370   74.5350 F   0  0  0  0  0  0  0  0  0  0  0  0
   -4.1590   58.8550   75.8760 F   0  0  0  0  0  0  0  0  0  0  0  0
   -0.8813   66.1204   70.6729 H   0  0  0  0  0  0  0  0  0  0  0  0
    2.7236   63.5764   72.7187 H   0  0  0  0  0  0  0  0  0  0  0  0
    2.3317   65.2735   69.0518 H   0  0  0  0  0  0  0  0  0  0  0  0
    0.2867   69.1098   65.8126 H   0  0  0  0  0  0  0  0  0  0  0  0
   -1.7460   67.7023   66.1269 H   0  0  0  0  0  0  0  0  0  0  0  0
   -1.9569   66.2305   68.1247 H   0  0  0  0  0  0  0  0  0  0  0  0
    1.8738   67.6167   69.5375 H   0  0  0  0  0  0  0  0  0  0  0  0
    4.1585   68.4578   65.8936 H   0  0  0  0  0  0  0  0  0  0  0  0
    2.4583   68.5204   65.3173 H   0  0  0  0  0  0  0  0  0  0  0  0
    3.4621   70.0101   65.3173 H   0  0  0  0  0  0  0  0  0  0  0  0
    1.5160   61.4549   70.9450 H   0  0  0  0  0  0  0  0  0  0  0  0
    2.9722   61.3518   71.9950 H   0  0  0  0  0  0  0  0  0  0  0  0
   -0.1624   60.5976   71.6464 H   0  0  0  0  0  0  0  0  0  0  0  0
   -0.0307   58.3870   74.0879 H   0  0  0  0  0  0  0  0  0  0  0  0
   -1.9084   57.5793   75.5242 H   0  0  0  0  0  0  0  0  0  0  0  0
   -2.3242   61.9143   73.0888 H   0  0  0  0  0  0  0  0  0  0  0  0
  2  1  2  0
  3  2  1  0
  4  3  1  0
  5  4  1  0
  6  5  2  0
  7  5  1  0
  7  2  1  0
  9  8  2  0
 10  9  1  0
 11 10  2  0
 12 11  1  0
 12  1  1  0
 13 12  2  0
 13  8  1  0
 15  8  1  0
 15 14  1  0
 16  4  1  0
 17 16  1  0
 18 17  2  0
 19 17  1  0
 20 19  1  0
 21 20  2  0
 22 21  1  0
 23 22  2  0
 24 23  1  0
 25 24  2  0
 25 20  1  0
 26 24  1  0
 27 23  1  0
  1 28  1  0
  4 29  1  1
  7 30  1  0
  9 31  1  0
 10 32  1  0
 11 33  1  0
 13 34  1  0
 14 35  1  0
 14 36  1  0
 14 37  1  0
 16 38  1  0
 16 39  1  0
 19 40  1  0
 21 41  1  0
 22 42  1  0
 25 43  1  0
M  CHG  1   1   1
M  END
>  <score>  (6) 
-8.592

$$$$
=
     RDKit          3D

 43 45  0  0  0  0  0  0  0  0999 V2000
    0.3050   60.4240   73.3320 N   0  0  0  0  0  4  0  0  0  0  0  0
    0.8080   61.2240   72.4160 C   0  0  0  0  0  0  0  0  0  0  0  0
    0.0410   62.7700   72.1990 S   0  0  0  0  0  0  0  0  0  0  0  0
    1.0940   63.2100   70.7380 C   0  0  2  0  0  0  0  0  0  0  0  0
    2.1130   62.0860   70.6820 C   0  0  0  0  0  0  0  0  0  0  0  0
    3.1100   61.9680   70.0060 O   0  0  0  0  0  0  0  0  0  0  0  0
    1.8150   61.0400   71.5930 N   0  0  0  0  0  0  0  0  0  0  0  0
    2.4800   58.0070   75.0250 C   0  0  0  0  0  0  0  0  0  0  0  0
    1.9380   56.7970   74.5940 C   0  0  0  0  0  0  0  0  0  0  0  0
    0.8650   56.7860   73.7030 C   0  0  0  0  0  0  0  0  0  0  0  0
    0.3040   57.9880   73.2610 C   0  0  0  0  0  0  0  0  0  0  0  0
    0.7950   59.2130   73.7210 C   0  0  0  0  0  0  0  0  0  0  0  0
    1.9010   59.2050   74.5810 C   0  0  0  0  0  0  0  0  0  0  0  0
    3.2470   59.3690   77.3470 C   0  0  0  0  0  0  0  0  0  0  0  0
    3.8440   58.1250   76.1680 S   0  0  0  0  0  0  0  0  0  0  0  0
    1.7630   64.5660   70.9240 C   0  0  0  0  0  0  0  0  0  0  0  0
    0.8270   65.6680   70.4610 C   0  0  0  0  0  0  0  0  0  0  0  0
   -0.0420   66.0980   71.2100 O   0  0  0  0  0  0  0  0  0  0  0  0
    1.0940   66.0790   69.1690 N   0  0  0  0  0  0  0  0  0  0  0  0
    0.4060   67.0660   68.4280 C   0  0  0  0  0  0  0  0  0  0  0  0
    0.9700   68.2850   68.0320 C   0  0  0  0  0  0  0  0  0  0  0  0
    0.2190   69.2130   67.3000 C   0  0  0  0  0  0  0  0  0  0  0  0
   -1.0970   68.9260   66.9650 C   0  0  0  0  0  0  0  0  0  0  0  0
   -1.6650   67.7220   67.3540 C   0  0  0  0  0  0  0  0  0  0  0  0
   -0.9240   66.7920   68.0830 C   0  0  0  0  0  0  0  0  0  0  0  0
   -2.9350   67.4380   67.0360 F   0  0  0  0  0  0  0  0  0  0  0  0
   -1.8120   69.8180   66.2670 F   0  0  0  0  0  0  0  0  0  0  0  0
   -0.5505   60.7476   73.8056 H   0  0  0  0  0  0  0  0  0  0  0  0
    0.5158   63.3034   69.8069 H   0  0  0  0  0  0  0  0  0  0  0  0
    2.3667   60.1704   71.6084 H   0  0  0  0  0  0  0  0  0  0  0  0
    2.3580   55.8477   74.9579 H   0  0  0  0  0  0  0  0  0  0  0  0
    0.4586   55.8280   73.3467 H   0  0  0  0  0  0  0  0  0  0  0  0
   -0.5309   57.9694   72.5451 H   0  0  0  0  0  0  0  0  0  0  0  0
    2.3261   60.1625   74.9165 H   0  0  0  0  0  0  0  0  0  0  0  0
    3.4179   59.0129   78.3737 H   0  0  0  0  0  0  0  0  0  0  0  0
    3.7904   60.3126   77.1910 H   0  0  0  0  0  0  0  0  0  0  0  0
    2.1709   59.5354   77.1910 H   0  0  0  0  0  0  0  0  0  0  0  0
    2.0021   64.7126   71.9876 H   0  0  0  0  0  0  0  0  0  0  0  0
    2.6874   64.6001   70.3287 H   0  0  0  0  0  0  0  0  0  0  0  0
    1.8812   65.6148   68.6938 H   0  0  0  0  0  0  0  0  0  0  0  0
    2.0121   68.5156   68.2982 H   0  0  0  0  0  0  0  0  0  0  0  0
    0.6710   70.1671   66.9912 H   0  0  0  0  0  0  0  0  0  0  0  0
   -1.3850   65.8409   68.3879 H   0  0  0  0  0  0  0  0  0  0  0  0
  2  1  2  0
  3  2  1  0
  4  3  1  0
  5  4  1  0
  6  5  2  0
  7  5  1  0
  7  2  1  0
  9  8  2  0
 10  9  1  0
 11 10  2  0
 12 11  1  0
 12  1  1  0
 13 12  2  0
 13  8  1  0
 15  8  1  0
 15 14  1  0
 16  4  1  0
 17 16  1  0
 18 17  2  0
 19 17  1  0
 20 19  1  0
 21 20  2  0
 22 21  1  0
 23 22  2  0
 24 23  1  0
 25 24  2  0
 25 20  1  0
 26 24  1  0
 27 23  1  0
  1 28  1  0
  4 29  1  6
  7 30  1  0
  9 31  1  0
 10 32  1  0
 11 33  1  0
 13 34  1  0
 14 35  1  0
 14 36  1  0
 14 37  1  0
 16 38  1  0
 16 39  1  0
 19 40  1  0
 21 41  1  0
 22 42  1  0
 25 43  1  0
M  CHG  1   1   1
M  END
>  <score>  (7) 
-8.559

$$$$
=
     RDKit          3D

 43 45  0  0  0  0  0  0  0  0999 V2000
    0.9400   67.9230   67.4030 N   0  0  0  0  0  4  0  0  0  0  0  0
    0.9190   67.0500   68.3880 C   0  0  0  0  0  0  0  0  0  0  0  0
   -0.6390   66.4860   68.9200 S   0  0  0  0  0  0  0  0  0  0  0  0
    0.0720   65.5190   70.3320 C   0  0  2  0  0  0  0  0  0  0  0  0
    1.5710   65.6190   70.1140 C   0  0  0  0  0  0  0  0  0  0  0  0
    2.4830   65.0480   70.6700 O   0  0  0  0  0  0  0  0  0  0  0  0
    1.9070   66.5270   69.0760 N   0  0  0  0  0  0  0  0  0  0  0  0
    3.4620   68.4060   64.7870 C   0  0  0  0  0  0  0  0  0  0  0  0
    4.2950   69.3550   65.3760 C   0  0  0  0  0  0  0  0  0  0  0  0
    4.0360   69.8100   66.6690 C   0  0  0  0  0  0  0  0  0  0  0  0
    2.9230   69.3410   67.3710 C   0  0  0  0  0  0  0  0  0  0  0  0
    2.0430   68.4290   66.7810 C   0  0  0  0  0  0  0  0  0  0  0  0
    2.3420   67.9510   65.4990 C   0  0  0  0  0  0  0  0  0  0  0  0
    4.8310   68.9980   62.4170 C   0  0  0  0  0  0  0  0  0  0  0  0
    3.7030   67.7700   63.1380 S   0  0  0  0  0  0  0  0  0  0  0  0
   -0.4030   64.0710   70.3090 C   0  0  0  0  0  0  0  0  0  0  0  0
    0.2050   63.3140   71.4760 C   0  0  0  0  0  0  0  0  0  0  0  0
   -0.1250   63.5790   72.6260 O   0  0  0  0  0  0  0  0  0  0  0  0
    1.1090   62.3530   71.0680 N   0  0  0  0  0  0  0  0  0  0  0  0
    1.8650   61.4870   71.8900 C   0  0  0  0  0  0  0  0  0  0  0  0
    1.3270   60.3930   72.5800 C   0  0  0  0  0  0  0  0  0  0  0  0
    2.1440   59.5830   73.3790 C   0  0  0  0  0  0  0  0  0  0  0  0
    3.4990   59.8660   73.4910 C   0  0  0  0  0  0  0  0  0  0  0  0
    4.0390   60.9480   72.8120 C   0  0  0  0  0  0  0  0  0  0  0  0
    3.2330   61.7590   72.0150 C   0  0  0  0  0  0  0  0  0  0  0  0
    5.3450   61.2280   72.9160 F   0  0  0  0  0  0  0  0  0  0  0  0
    4.2760   59.0900   74.2580 F   0  0  0  0  0  0  0  0  0  0  0  0
    0.0266   68.2595   67.0664 H   0  0  0  0  0  0  0  0  0  0  0  0
   -0.2395   65.9054   71.3137 H   0  0  0  0  0  0  0  0  0  0  0  0
    2.8876   66.7661   68.8707 H   0  0  0  0  0  0  0  0  0  0  0  0
    5.1594   69.7466   64.8197 H   0  0  0  0  0  0  0  0  0  0  0  0
    4.7110   70.5412   67.1378 H   0  0  0  0  0  0  0  0  0  0  0  0
    2.7375   69.6923   68.3967 H   0  0  0  0  0  0  0  0  0  0  0  0
    1.6825   67.2004   65.0390 H   0  0  0  0  0  0  0  0  0  0  0  0
    5.3371   69.5490   63.2234 H   0  0  0  0  0  0  0  0  0  0  0  0
    5.5809   68.4867   61.7955 H   0  0  0  0  0  0  0  0  0  0  0  0
    4.2580   69.7019   61.7955 H   0  0  0  0  0  0  0  0  0  0  0  0
   -1.4999   64.0448   70.3879 H   0  0  0  0  0  0  0  0  0  0  0  0
   -0.0889   63.5997   69.3660 H   0  0  0  0  0  0  0  0  0  0  0  0
    1.2476   62.2568   70.0519 H   0  0  0  0  0  0  0  0  0  0  0  0
    0.2537   60.1681   72.4936 H   0  0  0  0  0  0  0  0  0  0  0  0
    1.7135   58.7251   73.9163 H   0  0  0  0  0  0  0  0  0  0  0  0
    3.6728   62.6153   71.4826 H   0  0  0  0  0  0  0  0  0  0  0  0
  2  1  2  0
  3  2  1  0
  4  3  1  0
  5  4  1  0
  6  5  2  0
  7  5  1  0
  7  2  1  0
  9  8  2  0
 10  9  1  0
 11 10  2  0
 12 11  1  0
 12  1  1  0
 13 12  2  0
 13  8  1  0
 15  8  1  0
 15 14  1  0
 16  4  1  0
 17 16  1  0
 18 17  2  0
 19 17  1  0
 20 19  1  0
 21 20  2  0
 22 21  1  0
 23 22  2  0
 24 23  1  0
 25 24  2  0
 25 20  1  0
 26 24  1  0
 27 23  1  0
  1 28  1  0
  4 29  1  1
  7 30  1  0
  9 31  1  0
 10 32  1  0
 11 33  1  0
 13 34  1  0
 14 35  1  0
 14 36  1  0
 14 37  1  0
 16 38  1  0
 16 39  1  0
 19 40  1  0
 21 41  1  0
 22 42  1  0
 25 43  1  0
M  CHG  1   1   1
M  END
>  <score>  (8) 
-8.497

$$$$
=
     RDKit          3D

 43 45  0  0  0  0  0  0  0  0999 V2000
   -4.7700   60.0520   74.8670 N   0  0  0  0  0  4  0  0  0  0  0  0
   -3.5130   60.3220   74.5840 C   0  0  0  0  0  0  0  0  0  0  0  0
   -2.3190   59.1510   75.0640 S   0  0  0  0  0  0  0  0  0  0  0  0
   -0.8990   60.2250   74.5450 C   0  0  2  0  0  0  0  0  0  0  0  0
   -1.5730   61.3960   73.8520 C   0  0  0  0  0  0  0  0  0  0  0  0
   -1.0960   62.3040   73.2090 O   0  0  0  0  0  0  0  0  0  0  0  0
   -2.9850   61.3710   73.9980 N   0  0  0  0  0  0  0  0  0  0  0  0
   -7.2490   62.7490   74.9680 C   0  0  0  0  0  0  0  0  0  0  0  0
   -8.0980   62.3850   73.9240 C   0  0  0  0  0  0  0  0  0  0  0  0
   -7.8650   61.2110   73.2070 C   0  0  0  0  0  0  0  0  0  0  0  0
   -6.7610   60.4100   73.5080 C   0  0  0  0  0  0  0  0  0  0  0  0
   -5.8650   60.7830   74.5140 C   0  0  0  0  0  0  0  0  0  0  0  0
   -6.1390   61.9410   75.2520 C   0  0  0  0  0  0  0  0  0  0  0  0
   -7.2950   65.5340   74.6810 C   0  0  0  0  0  0  0  0  0  0  0  0
   -7.4580   64.2320   75.9360 S   0  0  0  0  0  0  0  0  0  0  0  0
    0.0440   59.4840   73.6050 C   0  0  0  0  0  0  0  0  0  0  0  0
    1.3110   60.2960   73.4060 C   0  0  0  0  0  0  0  0  0  0  0  0
    2.1160   60.4220   74.3200 O   0  0  0  0  0  0  0  0  0  0  0  0
    1.4060   60.8200   72.1310 N   0  0  0  0  0  0  0  0  0  0  0  0
    2.4420   61.6340   71.6180 C   0  0  0  0  0  0  0  0  0  0  0  0
    2.2590   62.9490   71.1740 C   0  0  0  0  0  0  0  0  0  0  0  0
    3.3380   63.6890   70.6760 C   0  0  0  0  0  0  0  0  0  0  0  0
    4.6010   63.1160   70.6200 C   0  0  0  0  0  0  0  0  0  0  0  0
    4.7920   61.8140   71.0570 C   0  0  0  0  0  0  0  0  0  0  0  0
    3.7230   61.0690   71.5540 C   0  0  0  0  0  0  0  0  0  0  0  0
    6.0070   61.2530   71.0040 F   0  0  0  0  0  0  0  0  0  0  0  0
    5.6310   63.8280   70.1410 F   0  0  0  0  0  0  0  0  0  0  0  0
   -4.9448   59.1968   75.4137 H   0  0  0  0  0  0  0  0  0  0  0  0
   -0.2694   60.5386   75.3907 H   0  0  0  0  0  0  0  0  0  0  0  0
   -3.5720   62.1458   73.6574 H   0  0  0  0  0  0  0  0  0  0  0  0
   -8.9541   63.0252   73.6647 H   0  0  0  0  0  0  0  0  0  0  0  0
   -8.5533   60.9151   72.4016 H   0  0  0  0  0  0  0  0  0  0  0  0
   -6.5952   59.4775   72.9485 H   0  0  0  0  0  0  0  0  0  0  0  0
   -5.4665   62.2238   76.0752 H   0  0  0  0  0  0  0  0  0  0  0  0
   -7.1730   66.5082   75.1770 H   0  0  0  0  0  0  0  0  0  0  0  0
   -6.4154   65.3297   74.0528 H   0  0  0  0  0  0  0  0  0  0  0  0
   -8.1978   65.5529   74.0528 H   0  0  0  0  0  0  0  0  0  0  0  0
    0.3006   58.5068   74.0401 H   0  0  0  0  0  0  0  0  0  0  0  0
   -0.4510   59.3375   72.6336 H   0  0  0  0  0  0  0  0  0  0  0  0
    0.6380   60.5927   71.4834 H   0  0  0  0  0  0  0  0  0  0  0  0
    1.2588   63.4047   71.2168 H   0  0  0  0  0  0  0  0  0  0  0  0
    3.1853   64.7219   70.3300 H   0  0  0  0  0  0  0  0  0  0  0  0
    3.8854   60.0363   71.8963 H   0  0  0  0  0  0  0  0  0  0  0  0
  2  1  2  0
  3  2  1  0
  4  3  1  0
  5  4  1  0
  6  5  2  0
  7  5  1  0
  7  2  1  0
  9  8  2  0
 10  9  1  0
 11 10  2  0
 12 11  1  0
 12  1  1  0
 13 12  2  0
 13  8  1  0
 15  8  1  0
 15 14  1  0
 16  4  1  0
 17 16  1  0
 18 17  2  0
 19 17  1  0
 20 19  1  0
 21 20  2  0
 22 21  1  0
 23 22  2  0
 24 23  1  0
 25 24  2  0
 25 20  1  0
 26 24  1  0
 27 23  1  0
  1 28  1  0
  4 29  1  1
  7 30  1  0
  9 31  1  0
 10 32  1  0
 11 33  1  0
 13 34  1  0
 14 35  1  0
 14 36  1  0
 14 37  1  0
 16 38  1  0
 16 39  1  0
 19 40  1  0
 21 41  1  0
 22 42  1  0
 25 43  1  0
M  CHG  1   1   1
M  END
>  <score>  (9) 
-8.249

$$$$
