=
     RDKit          3D

 50 52  0  0  0  0  0  0  0  0999 V2000
   -0.4650   67.4920   68.3970 C   0  0  0  0  0  0  0  0  0  0  0  0
    0.9440   68.1140   68.4460 C   0  0  0  0  0  0  0  0  0  0  0  0
    1.6940   67.9210   67.1390 C   0  0  0  0  0  0  0  0  0  0  0  0
    0.9570   68.6190   66.0090 N   0  0  0  0  0  4  0  0  0  0  0  0
   -0.5520   68.6380   66.1570 C   0  0  0  0  0  0  0  0  0  0  0  0
   -1.0180   67.4410   66.9650 C   0  0  0  0  0  0  0  0  0  0  0  0
   -0.5110   66.0870   69.0300 C   0  0  0  0  0  0  0  0  0  0  0  0
    0.0440   66.0880   70.3470 O   0  0  0  0  0  0  0  0  0  0  0  0
    2.3310   62.7710   71.2240 C   0  0  0  0  0  0  0  0  0  0  0  0
    1.1880   63.0480   71.9730 C   0  0  0  0  0  0  0  0  0  0  0  0
    0.4270   64.1770   71.6660 C   0  0  0  0  0  0  0  0  0  0  0  0
    0.8410   64.9960   70.6280 C   0  0  0  0  0  0  0  0  0  0  0  0
    1.9390   64.7580   69.8800 N   0  0  0  0  0  0  0  0  0  0  0  0
    2.6630   63.6540   70.2000 C   0  0  0  0  0  0  0  0  0  0  0  0
    3.2140   61.6120   71.4630 C   0  0  0  0  0  0  0  0  0  0  0  0
    4.0210   61.6070   72.3840 O   0  0  0  0  0  0  0  0  0  0  0  0
    4.2120   59.7160   70.3320 N   0  0  0  0  0  0  0  0  0  0  0  0
    3.1420   60.3860   70.6070 C   0  0  0  0  0  0  0  0  0  0  0  0
    3.8600   58.6290   69.5230 O   0  0  0  0  0  0  0  0  0  0  0  0
    1.3970   68.1300   64.6410 C   0  0  0  0  0  0  0  0  0  0  0  0
    2.7700   68.6090   64.2520 C   0  0  0  0  0  0  0  0  0  0  0  0
    3.2020   68.5390   62.9180 C   0  0  0  0  0  0  0  0  0  0  0  0
    4.4860   68.9610   62.5660 C   0  0  0  0  0  0  0  0  0  0  0  0
    5.3530   69.4560   63.5400 C   0  0  0  0  0  0  0  0  0  0  0  0
    4.9310   69.5330   64.8630 C   0  0  0  0  0  0  0  0  0  0  0  0
    3.6490   69.1150   65.2230 C   0  0  0  0  0  0  0  0  0  0  0  0
    5.9940   70.1390   66.0710 Cl  0  0  0  0  0  0  0  0  0  0  0  0
   -1.1069   68.1540   68.9967 H   0  0  0  0  0  0  0  0  0  0  0  0
    0.8503   69.1915   68.6465 H   0  0  0  0  0  0  0  0  0  0  0  0
    1.5116   67.6104   69.2424 H   0  0  0  0  0  0  0  0  0  0  0  0
    2.7042   68.3463   67.2325 H   0  0  0  0  0  0  0  0  0  0  0  0
    1.7609   66.8458   66.9165 H   0  0  0  0  0  0  0  0  0  0  0  0
    1.2396   69.6065   66.0856 H   0  0  0  0  0  0  0  0  0  0  0  0
   -0.8544   69.5624   66.6708 H   0  0  0  0  0  0  0  0  0  0  0  0
   -1.0097   68.5947   65.1577 H   0  0  0  0  0  0  0  0  0  0  0  0
   -2.1173   67.4398   67.0041 H   0  0  0  0  0  0  0  0  0  0  0  0
   -0.6477   66.5260   66.4796 H   0  0  0  0  0  0  0  0  0  0  0  0
   -1.5577   65.7530   69.0834 H   0  0  0  0  0  0  0  0  0  0  0  0
    0.0855   65.4067   68.4044 H   0  0  0  0  0  0  0  0  0  0  0  0
    0.8892   62.3837   72.7972 H   0  0  0  0  0  0  0  0  0  0  0  0
   -0.4835   64.4119   72.2369 H   0  0  0  0  0  0  0  0  0  0  0  0
    3.5692   63.4443   69.6127 H   0  0  0  0  0  0  0  0  0  0  0  0
    2.1718   60.0533   70.2095 H   0  0  0  0  0  0  0  0  0  0  0  0
    4.5564   57.9986   69.2104 H   0  0  0  0  0  0  0  0  0  0  0  0
    1.3995   67.0300   64.6474 H   0  0  0  0  0  0  0  0  0  0  0  0
    0.6884   68.5380   63.9052 H   0  0  0  0  0  0  0  0  0  0  0  0
    2.5242   68.1489   62.1444 H   0  0  0  0  0  0  0  0  0  0  0  0
    4.8144   68.9028   61.5178 H   0  0  0  0  0  0  0  0  0  0  0  0
    6.3658   69.7840   63.2631 H   0  0  0  0  0  0  0  0  0  0  0  0
    3.3257   69.1823   66.2723 H   0  0  0  0  0  0  0  0  0  0  0  0
  2  1  1  0
  3  2  1  0
  4  3  1  0
  5  4  1  0
  6  5  1  0
  6  1  1  0
  7  1  1  0
  8  7  1  0
 10  9  2  0
 11 10  1  0
 12 11  2  0
 12  8  1  0
 13 12  1  0
 14 13  2  0
 14  9  1  0
 15  9  1  0
 16 15  2  0
 18 17  2  0
 18 15  1  0
 19 17  1  0
 20  4  1  0
 21 20  1  0
 22 21  2  0
 23 22  1  0
 24 23  2  0
 25 24  1  0
 26 25  2  0
 26 21  1  0
 27 25  1  0
  1 28  1  0
  2 29  1  0
  2 30  1  0
  3 31  1  0
  3 32  1  0
  4 33  1  0
  5 34  1  0
  5 35  1  0
  6 36  1  0
  6 37  1  0
  7 38  1  0
  7 39  1  0
 10 40  1  0
 11 41  1  0
 14 42  1  0
 18 43  1  0
 19 44  1  0
 20 45  1  0
 20 46  1  0
 22 47  1  0
 23 48  1  0
 24 49  1  0
 26 50  1  0
M  CHG  1   4   1
M  END
>  <score>  (1) 
-9.913

$$$$
=
     RDKit          3D

 50 52  0  0  0  0  0  0  0  0999 V2000
   -0.1900   66.8300   69.1910 C   0  0  0  0  0  0  0  0  0  0  0  0
    1.1510   67.5650   68.9980 C   0  0  0  0  0  0  0  0  0  0  0  0
    1.5440   67.6510   67.5330 C   0  0  0  0  0  0  0  0  0  0  0  0
    0.5050   68.4460   66.7620 N   0  0  0  0  0  4  0  0  0  0  0  0
   -0.9140   68.3010   67.2810 C   0  0  0  0  0  0  0  0  0  0  0  0
   -1.0930   66.9530   67.9560 C   0  0  0  0  0  0  0  0  0  0  0  0
    0.0010   65.3450   69.5590 C   0  0  0  0  0  0  0  0  0  0  0  0
    0.9730   65.1820   70.5940 O   0  0  0  0  0  0  0  0  0  0  0  0
    3.0440   61.6220   70.3950 C   0  0  0  0  0  0  0  0  0  0  0  0
    2.0690   61.8080   71.3750 C   0  0  0  0  0  0  0  0  0  0  0  0
    1.3800   63.0210   71.4310 C   0  0  0  0  0  0  0  0  0  0  0  0
    1.6970   64.0090   70.5130 C   0  0  0  0  0  0  0  0  0  0  0  0
    2.6310   63.8630   69.5500 N   0  0  0  0  0  0  0  0  0  0  0  0
    3.2880   62.6750   69.5180 C   0  0  0  0  0  0  0  0  0  0  0  0
    3.8390   60.3870   70.2460 C   0  0  0  0  0  0  0  0  0  0  0  0
    4.9290   60.3960   69.6860 O   0  0  0  0  0  0  0  0  0  0  0  0
    3.7820   57.9660   70.2940 N   0  0  0  0  0  0  0  0  0  0  0  0
    3.3600   59.0790   70.7940 C   0  0  0  0  0  0  0  0  0  0  0  0
    3.1800   56.9090   70.9880 O   0  0  0  0  0  0  0  0  0  0  0  0
    0.5970   68.2220   65.2640 C   0  0  0  0  0  0  0  0  0  0  0  0
    1.9450   67.7210   64.8200 C   0  0  0  0  0  0  0  0  0  0  0  0
    2.9430   68.6180   64.4060 C   0  0  0  0  0  0  0  0  0  0  0  0
    4.1830   68.1470   63.9700 C   0  0  0  0  0  0  0  0  0  0  0  0
    4.4420   66.7770   63.9400 C   0  0  0  0  0  0  0  0  0  0  0  0
    3.4600   65.8810   64.3520 C   0  0  0  0  0  0  0  0  0  0  0  0
    2.2180   66.3440   64.7910 C   0  0  0  0  0  0  0  0  0  0  0  0
    3.7690   64.1900   64.3170 Cl  0  0  0  0  0  0  0  0  0  0  0  0
   -0.6866   67.3273   70.0372 H   0  0  0  0  0  0  0  0  0  0  0  0
    1.0594   68.5840   69.4021 H   0  0  0  0  0  0  0  0  0  0  0  0
    1.9303   66.9971   69.5273 H   0  0  0  0  0  0  0  0  0  0  0  0
    2.5212   68.1487   67.4467 H   0  0  0  0  0  0  0  0  0  0  0  0
    1.6043   66.6352   67.1152 H   0  0  0  0  0  0  0  0  0  0  0  0
    0.7491   69.4309   66.9387 H   0  0  0  0  0  0  0  0  0  0  0  0
   -1.1180   69.1008   68.0081 H   0  0  0  0  0  0  0  0  0  0  0  0
   -1.6135   68.3733   66.4351 H   0  0  0  0  0  0  0  0  0  0  0  0
   -2.1427   66.8428   68.2659 H   0  0  0  0  0  0  0  0  0  0  0  0
   -0.8166   66.1643   67.2408 H   0  0  0  0  0  0  0  0  0  0  0  0
   -0.9601   64.9359   69.9038 H   0  0  0  0  0  0  0  0  0  0  0  0
    0.3562   64.8112   68.6652 H   0  0  0  0  0  0  0  0  0  0  0  0
    1.8454   61.0077   72.0958 H   0  0  0  0  0  0  0  0  0  0  0  0
    0.6008   63.1889   72.1891 H   0  0  0  0  0  0  0  0  0  0  0  0
    4.0628   62.5359   68.7497 H   0  0  0  0  0  0  0  0  0  0  0  0
    2.6435   59.0660   71.6285 H   0  0  0  0  0  0  0  0  0  0  0  0
    3.3865   55.9730   70.7404 H   0  0  0  0  0  0  0  0  0  0  0  0
   -0.1636   67.4822   64.9740 H   0  0  0  0  0  0  0  0  0  0  0  0
    0.4341   69.1952   64.7778 H   0  0  0  0  0  0  0  0  0  0  0  0
    2.7463   69.7001   64.4253 H   0  0  0  0  0  0  0  0  0  0  0  0
    4.9580   68.8587   63.6492 H   0  0  0  0  0  0  0  0  0  0  0  0
    5.4176   66.4064   63.5924 H   0  0  0  0  0  0  0  0  0  0  0  0
    1.4499   65.6267   65.1156 H   0  0  0  0  0  0  0  0  0  0  0  0
  2  1  1  0
  3  2  1  0
  4  3  1  0
  5  4  1  0
  6  5  1  0
  6  1  1  0
  7  1  1  0
  8  7  1  0
 10  9  2  0
 11 10  1  0
 12 11  2  0
 12  8  1  0
 13 12  1  0
 14 13  2  0
 14  9  1  0
 15  9  1  0
 16 15  2  0
 18 17  2  0
 18 15  1  0
 19 17  1  0
 20  4  1  0
 21 20  1  0
 22 21  2  0
 23 22  1  0
 24 23  2  0
 25 24  1  0
 26 25  2  0
 26 21  1  0
 27 25  1  0
  1 28  1  0
  2 29  1  0
  2 30  1  0
  3 31  1  0
  3 32  1  0
  4 33  1  0
  5 34  1  0
  5 35  1  0
  6 36  1  0
  6 37  1  0
  7 38  1  0
  7 39  1  0
 10 40  1  0
 11 41  1  0
 14 42  1  0
 18 43  1  0
 19 44  1  0
 20 45  1  0
 20 46  1  0
 22 47  1  0
 23 48  1  0
 24 49  1  0
 26 50  1  0
M  CHG  1   4   1
M  END
>  <score>  (2) 
-9.354

$$$$
=
     RDKit          3D

 50 52  0  0  0  0  0  0  0  0999 V2000
    0.7360   67.7090   68.6130 C   0  0  0  0  0  0  0  0  0  0  0  0
    1.6940   68.7930   68.0830 C   0  0  0  0  0  0  0  0  0  0  0  0
    1.9960   68.6080   66.6050 C   0  0  0  0  0  0  0  0  0  0  0  0
    0.7190   68.7310   65.7940 N   0  0  0  0  0  4  0  0  0  0  0  0
   -0.5290   68.2350   66.5000 C   0  0  0  0  0  0  0  0  0  0  0  0
   -0.1700   67.1540   67.5040 C   0  0  0  0  0  0  0  0  0  0  0  0
    1.4820   66.5550   69.3110 C   0  0  0  0  0  0  0  0  0  0  0  0
    0.5750   65.6520   69.9470 O   0  0  0  0  0  0  0  0  0  0  0  0
    2.2590   62.2160   71.4800 C   0  0  0  0  0  0  0  0  0  0  0  0
    0.8780   62.4000   71.5350 C   0  0  0  0  0  0  0  0  0  0  0  0
    0.3240   63.5710   71.0150 C   0  0  0  0  0  0  0  0  0  0  0  0
    1.1710   64.5220   70.4690 C   0  0  0  0  0  0  0  0  0  0  0  0
    2.5110   64.3760   70.3960 N   0  0  0  0  0  0  0  0  0  0  0  0
    3.0250   63.2290   70.9100 C   0  0  0  0  0  0  0  0  0  0  0  0
    2.9550   61.0230   72.0040 C   0  0  0  0  0  0  0  0  0  0  0  0
    3.2670   60.9360   73.1850 O   0  0  0  0  0  0  0  0  0  0  0  0
    3.4120   60.0210   69.8460 N   0  0  0  0  0  0  0  0  0  0  0  0
    3.2820   59.8590   71.1210 C   0  0  0  0  0  0  0  0  0  0  0  0
    3.7160   58.7820   69.2690 O   0  0  0  0  0  0  0  0  0  0  0  0
    0.8600   68.1530   64.3980 C   0  0  0  0  0  0  0  0  0  0  0  0
    2.1530   67.4100   64.1900 C   0  0  0  0  0  0  0  0  0  0  0  0
    3.2180   68.0050   63.4950 C   0  0  0  0  0  0  0  0  0  0  0  0
    4.4060   67.3020   63.2830 C   0  0  0  0  0  0  0  0  0  0  0  0
    4.5450   65.9990   63.7600 C   0  0  0  0  0  0  0  0  0  0  0  0
    3.4950   65.4040   64.4530 C   0  0  0  0  0  0  0  0  0  0  0  0
    2.3060   66.1000   64.6720 C   0  0  0  0  0  0  0  0  0  0  0  0
    3.6570   63.7970   65.0440 Cl  0  0  0  0  0  0  0  0  0  0  0  0
    0.1045   68.2067   69.3637 H   0  0  0  0  0  0  0  0  0  0  0  0
    1.2312   69.7799   68.2307 H   0  0  0  0  0  0  0  0  0  0  0  0
    2.6407   68.7124   68.6374 H   0  0  0  0  0  0  0  0  0  0  0  0
    2.7096   69.3794   66.2798 H   0  0  0  0  0  0  0  0  0  0  0  0
    2.4285   67.6089   66.4475 H   0  0  0  0  0  0  0  0  0  0  0  0
    0.5753   69.7458   65.6914 H   0  0  0  0  0  0  0  0  0  0  0  0
   -1.0068   69.0748   67.0258 H   0  0  0  0  0  0  0  0  0  0  0  0
   -1.2204   67.8161   65.7540 H   0  0  0  0  0  0  0  0  0  0  0  0
   -1.0932   66.7628   67.9564 H   0  0  0  0  0  0  0  0  0  0  0  0
    0.3715   66.3541   66.9778 H   0  0  0  0  0  0  0  0  0  0  0  0
    2.0682   66.0034   68.5612 H   0  0  0  0  0  0  0  0  0  0  0  0
    2.1375   66.9853   70.0825 H   0  0  0  0  0  0  0  0  0  0  0  0
    0.2320   61.6307   71.9833 H   0  0  0  0  0  0  0  0  0  0  0  0
   -0.7634   63.7355   71.0382 H   0  0  0  0  0  0  0  0  0  0  0  0
    4.1158   63.0916   70.8737 H   0  0  0  0  0  0  0  0  0  0  0  0
    3.4124   58.8592   71.5608 H   0  0  0  0  0  0  0  0  0  0  0  0
    3.8521   58.7115   68.2909 H   0  0  0  0  0  0  0  0  0  0  0  0
    0.0256   67.4583   64.2216 H   0  0  0  0  0  0  0  0  0  0  0  0
    0.8518   68.9973   63.6929 H   0  0  0  0  0  0  0  0  0  0  0  0
    3.1160   69.0321   63.1148 H   0  0  0  0  0  0  0  0  0  0  0  0
    5.2347   67.7776   62.7380 H   0  0  0  0  0  0  0  0  0  0  0  0
    5.4796   65.4445   63.5894 H   0  0  0  0  0  0  0  0  0  0  0  0
    1.4847   65.6205   65.2247 H   0  0  0  0  0  0  0  0  0  0  0  0
  2  1  1  0
  3  2  1  0
  4  3  1  0
  5  4  1  0
  6  5  1  0
  6  1  1  0
  7  1  1  0
  8  7  1  0
 10  9  2  0
 11 10  1  0
 12 11  2  0
 12  8  1  0
 13 12  1  0
 14 13  2  0
 14  9  1  0
 15  9  1  0
 16 15  2  0
 18 17  2  0
 18 15  1  0
 19 17  1  0
 20  4  1  0
 21 20  1  0
 22 21  2  0
 23 22  1  0
 24 23  2  0
 25 24  1  0
 26 25  2  0
 26 21  1  0
 27 25  1  0
  1 28  1  0
  2 29  1  0
  2 30  1  0
  3 31  1  0
  3 32  1  0
  4 33  1  0
  5 34  1  0
  5 35  1  0
  6 36  1  0
  6 37  1  0
  7 38  1  0
  7 39  1  0
 10 40  1  0
 11 41  1  0
 14 42  1  0
 18 43  1  0
 19 44  1  0
 20 45  1  0
 20 46  1  0
 22 47  1  0
 23 48  1  0
 24 49  1  0
 26 50  1  0
M  CHG  1   4   1
M  END
>  <score>  (3) 
-9.302

$$$$
=
     RDKit          3D

 50 52  0  0  0  0  0  0  0  0999 V2000
    0.1530   63.5630   72.5110 C   0  0  0  0  0  0  0  0  0  0  0  0
   -0.5830   62.2100   72.4700 C   0  0  0  0  0  0  0  0  0  0  0  0
    0.3840   61.0410   72.3800 C   0  0  0  0  0  0  0  0  0  0  0  0
    1.2740   61.0070   73.6110 N   0  0  0  0  0  4  0  0  0  0  0  0
    1.6000   62.3700   74.1920 C   0  0  0  0  0  0  0  0  0  0  0  0
    1.5630   63.4290   73.1050 C   0  0  0  0  0  0  0  0  0  0  0  0
    0.2250   64.2350   71.1260 C   0  0  0  0  0  0  0  0  0  0  0  0
    0.1640   65.6590   71.2300 O   0  0  0  0  0  0  0  0  0  0  0  0
    0.5300   67.6270   67.6260 C   0  0  0  0  0  0  0  0  0  0  0  0
    1.5400   67.7300   68.5830 C   0  0  0  0  0  0  0  0  0  0  0  0
    1.3990   67.0610   69.8000 C   0  0  0  0  0  0  0  0  0  0  0  0
    0.2480   66.3220   70.0220 C   0  0  0  0  0  0  0  0  0  0  0  0
   -0.7470   66.1970   69.1190 N   0  0  0  0  0  0  0  0  0  0  0  0
   -0.5860   66.8590   67.9440 C   0  0  0  0  0  0  0  0  0  0  0  0
    0.5690   68.2960   66.3100 C   0  0  0  0  0  0  0  0  0  0  0  0
    1.6220   68.7000   65.8320 O   0  0  0  0  0  0  0  0  0  0  0  0
   -0.5940   68.6720   64.2180 N   0  0  0  0  0  0  0  0  0  0  0  0
   -0.6720   68.4840   65.4940 C   0  0  0  0  0  0  0  0  0  0  0  0
   -1.8900   68.8170   63.7090 O   0  0  0  0  0  0  0  0  0  0  0  0
    2.5130   60.1560   73.4070 C   0  0  0  0  0  0  0  0  0  0  0  0
    3.1340   60.3260   72.0450 C   0  0  0  0  0  0  0  0  0  0  0  0
    3.1660   59.2580   71.1340 C   0  0  0  0  0  0  0  0  0  0  0  0
    3.7660   59.4130   69.8820 C   0  0  0  0  0  0  0  0  0  0  0  0
    4.3410   60.6330   69.5260 C   0  0  0  0  0  0  0  0  0  0  0  0
    4.3100   61.6970   70.4220 C   0  0  0  0  0  0  0  0  0  0  0  0
    3.7110   61.5510   71.6750 C   0  0  0  0  0  0  0  0  0  0  0  0
    5.0180   63.2030   69.9930 Cl  0  0  0  0  0  0  0  0  0  0  0  0
   -0.4433   64.2110   73.1703 H   0  0  0  0  0  0  0  0  0  0  0  0
   -1.1843   62.1044   73.3851 H   0  0  0  0  0  0  0  0  0  0  0  0
   -1.2197   62.1954   71.5731 H   0  0  0  0  0  0  0  0  0  0  0  0
   -0.1849   60.1017   72.3157 H   0  0  0  0  0  0  0  0  0  0  0  0
    1.0112   61.1593   71.4841 H   0  0  0  0  0  0  0  0  0  0  0  0
    0.7016   60.5452   74.3320 H   0  0  0  0  0  0  0  0  0  0  0  0
    0.8610   62.6200   74.9674 H   0  0  0  0  0  0  0  0  0  0  0  0
    2.6092   62.3406   74.6285 H   0  0  0  0  0  0  0  0  0  0  0  0
    1.8651   64.3955   73.5347 H   0  0  0  0  0  0  0  0  0  0  0  0
    2.2532   63.1299   72.3024 H   0  0  0  0  0  0  0  0  0  0  0  0
    1.1708   63.9524   70.6405 H   0  0  0  0  0  0  0  0  0  0  0  0
   -0.6369   63.8954   70.5329 H   0  0  0  0  0  0  0  0  0  0  0  0
    2.4381   68.3321   68.3806 H   0  0  0  0  0  0  0  0  0  0  0  0
    2.1854   67.1192   70.5670 H   0  0  0  0  0  0  0  0  0  0  0  0
   -1.3890   66.7832   67.1961 H   0  0  0  0  0  0  0  0  0  0  0  0
   -1.6566   68.4619   65.9839 H   0  0  0  0  0  0  0  0  0  0  0  0
   -2.0272   68.9700   62.7406 H   0  0  0  0  0  0  0  0  0  0  0  0
    3.2573   60.4347   74.1675 H   0  0  0  0  0  0  0  0  0  0  0  0
    2.2043   59.1039   73.4957 H   0  0  0  0  0  0  0  0  0  0  0  0
    2.7155   58.2926   71.4081 H   0  0  0  0  0  0  0  0  0  0  0  0
    3.7851   58.5706   69.1749 H   0  0  0  0  0  0  0  0  0  0  0  0
    4.8167   60.7533   68.5415 H   0  0  0  0  0  0  0  0  0  0  0  0
    3.6912   62.3994   72.3749 H   0  0  0  0  0  0  0  0  0  0  0  0
  2  1  1  0
  3  2  1  0
  4  3  1  0
  5  4  1  0
  6  5  1  0
  6  1  1  0
  7  1  1  0
  8  7  1  0
 10  9  2  0
 11 10  1  0
 12 11  2  0
 12  8  1  0
 13 12  1  0
 14 13  2  0
 14  9  1  0
 15  9  1  0
 16 15  2  0
 18 17  2  0
 18 15  1  0
 19 17  1  0
 20  4  1  0
 21 20  1  0
 22 21  2  0
 23 22  1  0
 24 23  2  0
 25 24  1  0
 26 25  2  0
 26 21  1  0
 27 25  1  0
  1 28  1  0
  2 29  1  0
  2 30  1  0
  3 31  1  0
  3 32  1  0
  4 33  1  0
  5 34  1  0
  5 35  1  0
  6 36  1  0
  6 37  1  0
  7 38  1  0
  7 39  1  0
 10 40  1  0
 11 41  1  0
 14 42  1  0
 18 43  1  0
 19 44  1  0
 20 45  1  0
 20 46  1  0
 22 47  1  0
 23 48  1  0
 24 49  1  0
 26 50  1  0
M  CHG  1   4   1
M  END
>  <score>  (4) 
-9.112

$$$$
=
     RDKit          3D

 50 52  0  0  0  0  0  0  0  0999 V2000
    4.3150   62.5760   70.1190 C   0  0  0  0  0  0  0  0  0  0  0  0
    3.1780   61.8890   69.3370 C   0  0  0  0  0  0  0  0  0  0  0  0
    1.8350   62.0570   70.0270 C   0  0  0  0  0  0  0  0  0  0  0  0
    1.4710   63.5290   70.1070 N   0  0  0  0  0  4  0  0  0  0  0  0
    2.6560   64.4650   70.2590 C   0  0  0  0  0  0  0  0  0  0  0  0
    3.8010   63.7550   70.9580 C   0  0  0  0  0  0  0  0  0  0  0  0
    5.0920   61.5900   71.0140 C   0  0  0  0  0  0  0  0  0  0  0  0
    4.8980   60.2380   70.5960 O   0  0  0  0  0  0  0  0  0  0  0  0
    2.6000   58.0690   73.2450 C   0  0  0  0  0  0  0  0  0  0  0  0
    3.3880   59.1230   73.7060 C   0  0  0  0  0  0  0  0  0  0  0  0
    4.1640   59.8450   72.7970 C   0  0  0  0  0  0  0  0  0  0  0  0
    4.1330   59.4800   71.4610 C   0  0  0  0  0  0  0  0  0  0  0  0
    3.3800   58.4690   70.9780 N   0  0  0  0  0  0  0  0  0  0  0  0
    2.6360   57.7820   71.8840 C   0  0  0  0  0  0  0  0  0  0  0  0
    1.7480   57.2340   74.1140 C   0  0  0  0  0  0  0  0  0  0  0  0
    1.1250   57.7200   75.0510 O   0  0  0  0  0  0  0  0  0  0  0  0
    2.5660   54.9540   74.1020 N   0  0  0  0  0  0  0  0  0  0  0  0
    1.5870   55.7660   73.8730 C   0  0  0  0  0  0  0  0  0  0  0  0
    2.1470   53.6540   73.7940 O   0  0  0  0  0  0  0  0  0  0  0  0
    0.3850   63.8040   71.1290 C   0  0  0  0  0  0  0  0  0  0  0  0
    0.4860   62.9330   72.3530 C   0  0  0  0  0  0  0  0  0  0  0  0
    1.4390   63.2030   73.3480 C   0  0  0  0  0  0  0  0  0  0  0  0
    1.5470   62.3770   74.4690 C   0  0  0  0  0  0  0  0  0  0  0  0
    0.7050   61.2740   74.6100 C   0  0  0  0  0  0  0  0  0  0  0  0
   -0.2450   61.0020   73.6310 C   0  0  0  0  0  0  0  0  0  0  0  0
   -0.3600   61.8240   72.5080 C   0  0  0  0  0  0  0  0  0  0  0  0
   -1.2850   59.6430   73.7960 Cl  0  0  0  0  0  0  0  0  0  0  0  0
    5.0106   62.9646   69.3606 H   0  0  0  0  0  0  0  0  0  0  0  0
    3.1194   62.3319   68.3318 H   0  0  0  0  0  0  0  0  0  0  0  0
    3.4020   60.8134   69.2835 H   0  0  0  0  0  0  0  0  0  0  0  0
    1.0626   61.5216   69.4554 H   0  0  0  0  0  0  0  0  0  0  0  0
    1.8990   61.6457   71.0452 H   0  0  0  0  0  0  0  0  0  0  0  0
    1.0799   63.7492   69.1799 H   0  0  0  0  0  0  0  0  0  0  0  0
    2.9875   64.7956   69.2636 H   0  0  0  0  0  0  0  0  0  0  0  0
    2.3515   65.3332   70.8620 H   0  0  0  0  0  0  0  0  0  0  0  0
    4.6230   64.4686   71.1164 H   0  0  0  0  0  0  0  0  0  0  0  0
    3.4358   63.3662   71.9200 H   0  0  0  0  0  0  0  0  0  0  0  0
    6.1644   61.8296   70.9624 H   0  0  0  0  0  0  0  0  0  0  0  0
    4.7171   61.6898   72.0433 H   0  0  0  0  0  0  0  0  0  0  0  0
    3.3982   59.3830   74.7748 H   0  0  0  0  0  0  0  0  0  0  0  0
    4.7871   60.6862   73.1348 H   0  0  0  0  0  0  0  0  0  0  0  0
    2.0228   56.9453   71.5180 H   0  0  0  0  0  0  0  0  0  0  0  0
    0.6293   55.3755   73.4985 H   0  0  0  0  0  0  0  0  0  0  0  0
    2.7698   52.8930   73.9085 H   0  0  0  0  0  0  0  0  0  0  0  0
    0.4581   64.8560   71.4419 H   0  0  0  0  0  0  0  0  0  0  0  0
   -0.5791   63.5810   70.6486 H   0  0  0  0  0  0  0  0  0  0  0  0
    2.1057   64.0717   73.2439 H   0  0  0  0  0  0  0  0  0  0  0  0
    2.2977   62.5968   75.2424 H   0  0  0  0  0  0  0  0  0  0  0  0
    0.7918   60.6220   75.4917 H   0  0  0  0  0  0  0  0  0  0  0  0
   -1.1170   61.6013   71.7416 H   0  0  0  0  0  0  0  0  0  0  0  0
  2  1  1  0
  3  2  1  0
  4  3  1  0
  5  4  1  0
  6  5  1  0
  6  1  1  0
  7  1  1  0
  8  7  1  0
 10  9  2  0
 11 10  1  0
 12 11  2  0
 12  8  1  0
 13 12  1  0
 14 13  2  0
 14  9  1  0
 15  9  1  0
 16 15  2  0
 18 17  2  0
 18 15  1  0
 19 17  1  0
 20  4  1  0
 21 20  1  0
 22 21  2  0
 23 22  1  0
 24 23  2  0
 25 24  1  0
 26 25  2  0
 26 21  1  0
 27 25  1  0
  1 28  1  0
  2 29  1  0
  2 30  1  0
  3 31  1  0
  3 32  1  0
  4 33  1  0
  5 34  1  0
  5 35  1  0
  6 36  1  0
  6 37  1  0
  7 38  1  0
  7 39  1  0
 10 40  1  0
 11 41  1  0
 14 42  1  0
 18 43  1  0
 19 44  1  0
 20 45  1  0
 20 46  1  0
 22 47  1  0
 23 48  1  0
 24 49  1  0
 26 50  1  0
M  CHG  1   4   1
M  END
>  <score>  (5) 
-8.946

$$$$
=
     RDKit          3D

 50 52  0  0  0  0  0  0  0  0999 V2000
    0.5340   67.2770   67.9600 C   0  0  0  0  0  0  0  0  0  0  0  0
    0.3490   68.7820   67.6900 C   0  0  0  0  0  0  0  0  0  0  0  0
    1.5650   69.3890   67.0090 C   0  0  0  0  0  0  0  0  0  0  0  0
    1.7840   68.7350   65.6570 N   0  0  0  0  0  4  0  0  0  0  0  0
    1.3820   67.2740   65.5890 C   0  0  0  0  0  0  0  0  0  0  0  0
    1.5030   66.6310   66.9590 C   0  0  0  0  0  0  0  0  0  0  0  0
    0.9970   66.9900   69.4020 C   0  0  0  0  0  0  0  0  0  0  0  0
    0.2120   65.9640   70.0110 O   0  0  0  0  0  0  0  0  0  0  0  0
    2.4410   62.6940   71.1690 C   0  0  0  0  0  0  0  0  0  0  0  0
    3.0800   63.8670   70.7670 C   0  0  0  0  0  0  0  0  0  0  0  0
    2.3110   64.9630   70.3740 C   0  0  0  0  0  0  0  0  0  0  0  0
    0.9310   64.8460   70.3850 C   0  0  0  0  0  0  0  0  0  0  0  0
    0.2780   63.7280   70.7710 N   0  0  0  0  0  0  0  0  0  0  0  0
    1.0500   62.6760   71.1470 C   0  0  0  0  0  0  0  0  0  0  0  0
    3.1510   61.4720   71.5970 C   0  0  0  0  0  0  0  0  0  0  0  0
    3.7680   61.4330   72.6550 O   0  0  0  0  0  0  0  0  0  0  0  0
    4.1820   59.4890   70.6630 N   0  0  0  0  0  0  0  0  0  0  0  0
    3.1250   60.2240   70.7720 C   0  0  0  0  0  0  0  0  0  0  0  0
    3.8810   58.3960   69.8420 O   0  0  0  0  0  0  0  0  0  0  0  0
    3.1810   68.9750   65.1160 C   0  0  0  0  0  0  0  0  0  0  0  0
    4.1290   69.5310   66.1450 C   0  0  0  0  0  0  0  0  0  0  0  0
    5.5010   69.6440   65.8690 C   0  0  0  0  0  0  0  0  0  0  0  0
    6.3800   70.1370   66.8360 C   0  0  0  0  0  0  0  0  0  0  0  0
    5.9020   70.5220   68.0880 C   0  0  0  0  0  0  0  0  0  0  0  0
    4.5430   70.4170   68.3680 C   0  0  0  0  0  0  0  0  0  0  0  0
    3.6570   69.9280   67.4060 C   0  0  0  0  0  0  0  0  0  0  0  0
    3.9440   70.8880   69.9090 Cl  0  0  0  0  0  0  0  0  0  0  0  0
   -0.4594   66.8236   67.8273 H   0  0  0  0  0  0  0  0  0  0  0  0
   -0.5286   68.9218   67.0417 H   0  0  0  0  0  0  0  0  0  0  0  0
    0.2118   69.2877   68.6572 H   0  0  0  0  0  0  0  0  0  0  0  0
    1.4035   70.4681   66.8696 H   0  0  0  0  0  0  0  0  0  0  0  0
    2.4517   69.2223   67.6383 H   0  0  0  0  0  0  0  0  0  0  0  0
    1.1260   69.2163   65.0274 H   0  0  0  0  0  0  0  0  0  0  0  0
    0.3402   67.1998   65.2438 H   0  0  0  0  0  0  0  0  0  0  0  0
    2.0489   66.7512   64.8877 H   0  0  0  0  0  0  0  0  0  0  0  0
    1.2707   65.5591   66.8746 H   0  0  0  0  0  0  0  0  0  0  0  0
    2.5306   66.7762   67.3238 H   0  0  0  0  0  0  0  0  0  0  0  0
    2.0493   66.6703   69.3822 H   0  0  0  0  0  0  0  0  0  0  0  0
    0.8776   67.9108   69.9918 H   0  0  0  0  0  0  0  0  0  0  0  0
    4.1783   63.9273   70.7599 H   0  0  0  0  0  0  0  0  0  0  0  0
    2.7915   65.9018   70.0615 H   0  0  0  0  0  0  0  0  0  0  0  0
    0.5427   61.7495   71.4541 H   0  0  0  0  0  0  0  0  0  0  0  0
    2.1997   59.9303   70.2548 H   0  0  0  0  0  0  0  0  0  0  0  0
    4.5761   57.7195   69.6439 H   0  0  0  0  0  0  0  0  0  0  0  0
    3.5834   68.0186   64.7508 H   0  0  0  0  0  0  0  0  0  0  0  0
    3.0963   69.7218   64.3128 H   0  0  0  0  0  0  0  0  0  0  0  0
    5.8864   69.3421   64.8840 H   0  0  0  0  0  0  0  0  0  0  0  0
    7.4530   70.2218   66.6091 H   0  0  0  0  0  0  0  0  0  0  0  0
    6.5955   70.9067   68.8503 H   0  0  0  0  0  0  0  0  0  0  0  0
    2.5842   69.8535   67.6373 H   0  0  0  0  0  0  0  0  0  0  0  0
  2  1  1  0
  3  2  1  0
  4  3  1  0
  5  4  1  0
  6  5  1  0
  6  1  1  0
  7  1  1  0
  8  7  1  0
 10  9  2  0
 11 10  1  0
 12 11  2  0
 12  8  1  0
 13 12  1  0
 14 13  2  0
 14  9  1  0
 15  9  1  0
 16 15  2  0
 18 17  2  0
 18 15  1  0
 19 17  1  0
 20  4  1  0
 21 20  1  0
 22 21  2  0
 23 22  1  0
 24 23  2  0
 25 24  1  0
 26 25  2  0
 26 21  1  0
 27 25  1  0
  1 28  1  0
  2 29  1  0
  2 30  1  0
  3 31  1  0
  3 32  1  0
  4 33  1  0
  5 34  1  0
  5 35  1  0
  6 36  1  0
  6 37  1  0
  7 38  1  0
  7 39  1  0
 10 40  1  0
 11 41  1  0
 14 42  1  0
 18 43  1  0
 19 44  1  0
 20 45  1  0
 20 46  1  0
 22 47  1  0
 23 48  1  0
 24 49  1  0
 26 50  1  0
M  CHG  1   4   1
M  END
>  <score>  (6) 
-8.859

$$$$
=
     RDKit          3D

 50 52  0  0  0  0  0  0  0  0999 V2000
    3.7710   59.0480   71.3160 C   0  0  0  0  0  0  0  0  0  0  0  0
    3.3880   59.5590   69.9140 C   0  0  0  0  0  0  0  0  0  0  0  0
    3.2510   61.0720   69.8790 C   0  0  0  0  0  0  0  0  0  0  0  0
    4.5800   61.7220   70.2230 N   0  0  0  0  0  4  0  0  0  0  0  0
    5.4270   60.9420   71.2110 C   0  0  0  0  0  0  0  0  0  0  0  0
    4.5430   60.1060   72.1180 C   0  0  0  0  0  0  0  0  0  0  0  0
    2.5480   58.5650   72.1210 C   0  0  0  0  0  0  0  0  0  0  0  0
    2.6630   58.9040   73.5040 O   0  0  0  0  0  0  0  0  0  0  0  0
   -0.7260   60.7060   75.0070 C   0  0  0  0  0  0  0  0  0  0  0  0
   -0.7000   60.2640   73.6850 C   0  0  0  0  0  0  0  0  0  0  0  0
    0.4570   59.6600   73.1900 C   0  0  0  0  0  0  0  0  0  0  0  0
    1.5500   59.5290   74.0310 C   0  0  0  0  0  0  0  0  0  0  0  0
    1.5600   59.9410   75.3160 N   0  0  0  0  0  0  0  0  0  0  0  0
    0.4230   60.5270   75.7720 C   0  0  0  0  0  0  0  0  0  0  0  0
   -1.8900   61.3640   75.6350 C   0  0  0  0  0  0  0  0  0  0  0  0
   -2.9080   60.7370   75.9020 O   0  0  0  0  0  0  0  0  0  0  0  0
   -1.1530   63.6490   75.3080 N   0  0  0  0  0  0  0  0  0  0  0  0
   -1.8650   62.8170   75.9940 C   0  0  0  0  0  0  0  0  0  0  0  0
   -1.3130   64.9280   75.8560 O   0  0  0  0  0  0  0  0  0  0  0  0
    4.4280   63.1790   70.6180 C   0  0  0  0  0  0  0  0  0  0  0  0
    3.0340   63.5310   71.0660 C   0  0  0  0  0  0  0  0  0  0  0  0
    2.4500   62.8840   72.1670 C   0  0  0  0  0  0  0  0  0  0  0  0
    1.1480   63.1970   72.5630 C   0  0  0  0  0  0  0  0  0  0  0  0
    0.4140   64.1560   71.8650 C   0  0  0  0  0  0  0  0  0  0  0  0
    0.9870   64.8040   70.7760 C   0  0  0  0  0  0  0  0  0  0  0  0
    2.2890   64.4990   70.3750 C   0  0  0  0  0  0  0  0  0  0  0  0
    0.0890   65.9860   69.9090 Cl  0  0  0  0  0  0  0  0  0  0  0  0
    4.4304   58.1830   71.1518 H   0  0  0  0  0  0  0  0  0  0  0  0
    4.1680   59.2562   69.2000 H   0  0  0  0  0  0  0  0  0  0  0  0
    2.4142   59.1227   69.6470 H   0  0  0  0  0  0  0  0  0  0  0  0
    2.9416   61.3865   68.8713 H   0  0  0  0  0  0  0  0  0  0  0  0
    2.4955   61.3833   70.6154 H   0  0  0  0  0  0  0  0  0  0  0  0
    5.1153   61.6985   69.3433 H   0  0  0  0  0  0  0  0  0  0  0  0
    6.1104   60.2796   70.6594 H   0  0  0  0  0  0  0  0  0  0  0  0
    6.0025   61.6498   71.8257 H   0  0  0  0  0  0  0  0  0  0  0  0
    5.1716   59.6014   72.8665 H   0  0  0  0  0  0  0  0  0  0  0  0
    3.8169   60.7714   72.6079 H   0  0  0  0  0  0  0  0  0  0  0  0
    1.6422   59.0363   71.7118 H   0  0  0  0  0  0  0  0  0  0  0  0
    2.4917   57.4696   72.0382 H   0  0  0  0  0  0  0  0  0  0  0  0
   -1.5815   60.3898   73.0392 H   0  0  0  0  0  0  0  0  0  0  0  0
    0.5000   59.2954   72.1531 H   0  0  0  0  0  0  0  0  0  0  0  0
    0.4091   60.8831   76.8127 H   0  0  0  0  0  0  0  0  0  0  0  0
   -2.4568   63.1790   76.8477 H   0  0  0  0  0  0  0  0  0  0  0  0
   -0.8386   65.7002   75.4575 H   0  0  0  0  0  0  0  0  0  0  0  0
    5.1242   63.3919   71.4426 H   0  0  0  0  0  0  0  0  0  0  0  0
    4.6464   63.7837   69.7254 H   0  0  0  0  0  0  0  0  0  0  0  0
    3.0221   62.1254   72.7213 H   0  0  0  0  0  0  0  0  0  0  0  0
    0.6999   62.6858   73.4278 H   0  0  0  0  0  0  0  0  0  0  0  0
   -0.6133   64.3986   72.1745 H   0  0  0  0  0  0  0  0  0  0  0  0
    2.7329   65.0197   69.5137 H   0  0  0  0  0  0  0  0  0  0  0  0
  2  1  1  0
  3  2  1  0
  4  3  1  0
  5  4  1  0
  6  5  1  0
  6  1  1  0
  7  1  1  0
  8  7  1  0
 10  9  2  0
 11 10  1  0
 12 11  2  0
 12  8  1  0
 13 12  1  0
 14 13  2  0
 14  9  1  0
 15  9  1  0
 16 15  2  0
 18 17  2  0
 18 15  1  0
 19 17  1  0
 20  4  1  0
 21 20  1  0
 22 21  2  0
 23 22  1  0
 24 23  2  0
 25 24  1  0
 26 25  2  0
 26 21  1  0
 27 25  1  0
  1 28  1  0
  2 29  1  0
  2 30  1  0
  3 31  1  0
  3 32  1  0
  4 33  1  0
  5 34  1  0
  5 35  1  0
  6 36  1  0
  6 37  1  0
  7 38  1  0
  7 39  1  0
 10 40  1  0
 11 41  1  0
 14 42  1  0
 18 43  1  0
 19 44  1  0
 20 45  1  0
 20 46  1  0
 22 47  1  0
 23 48  1  0
 24 49  1  0
 26 50  1  0
M  CHG  1   4   1
M  END
>  <score>  (7) 
-8.61

$$$$
=
     RDKit          3D

 50 52  0  0  0  0  0  0  0  0999 V2000
    0.3780   58.6020   75.2570 C   0  0  0  0  0  0  0  0  0  0  0  0
    0.4180   58.2270   73.7630 C   0  0  0  0  0  0  0  0  0  0  0  0
    1.6420   58.8010   73.0680 C   0  0  0  0  0  0  0  0  0  0  0  0
    2.9060   58.2320   73.6860 N   0  0  0  0  0  4  0  0  0  0  0  0
    2.8030   57.9310   75.1690 C   0  0  0  0  0  0  0  0  0  0  0  0
    1.7840   58.8460   75.8230 C   0  0  0  0  0  0  0  0  0  0  0  0
   -0.5220   59.8230   75.5330 C   0  0  0  0  0  0  0  0  0  0  0  0
    0.2410   61.0280   75.6170 O   0  0  0  0  0  0  0  0  0  0  0  0
    0.7240   63.0390   72.0510 C   0  0  0  0  0  0  0  0  0  0  0  0
    1.7270   63.0840   73.0180 C   0  0  0  0  0  0  0  0  0  0  0  0
    1.5460   62.4010   74.2220 C   0  0  0  0  0  0  0  0  0  0  0  0
    0.3640   61.7070   74.4210 C   0  0  0  0  0  0  0  0  0  0  0  0
   -0.6260   61.6380   73.5060 N   0  0  0  0  0  0  0  0  0  0  0  0
   -0.4260   62.3130   72.3450 C   0  0  0  0  0  0  0  0  0  0  0  0
    0.8030   63.7280   70.7470 C   0  0  0  0  0  0  0  0  0  0  0  0
    0.9030   63.0990   69.7000 O   0  0  0  0  0  0  0  0  0  0  0  0
    1.4640   65.8510   69.7850 N   0  0  0  0  0  0  0  0  0  0  0  0
    0.7370   65.2200   70.6460 C   0  0  0  0  0  0  0  0  0  0  0  0
    1.2070   67.2220   69.9050 O   0  0  0  0  0  0  0  0  0  0  0  0
    4.1370   59.0510   73.3480 C   0  0  0  0  0  0  0  0  0  0  0  0
    4.0430   59.7430   72.0140 C   0  0  0  0  0  0  0  0  0  0  0  0
    3.6680   59.0320   70.8630 C   0  0  0  0  0  0  0  0  0  0  0  0
    3.6070   59.6720   69.6230 C   0  0  0  0  0  0  0  0  0  0  0  0
    3.9220   61.0270   69.5170 C   0  0  0  0  0  0  0  0  0  0  0  0
    4.2910   61.7390   70.6540 C   0  0  0  0  0  0  0  0  0  0  0  0
    4.3520   61.1070   71.8970 C   0  0  0  0  0  0  0  0  0  0  0  0
    4.6830   63.4090   70.5320 Cl  0  0  0  0  0  0  0  0  0  0  0  0
   -0.0605   57.7355   75.7737 H   0  0  0  0  0  0  0  0  0  0  0  0
    0.4383   57.1310   73.6717 H   0  0  0  0  0  0  0  0  0  0  0  0
   -0.4768   58.6481   73.2814 H   0  0  0  0  0  0  0  0  0  0  0  0
    1.6098   58.5403   71.9998 H   0  0  0  0  0  0  0  0  0  0  0  0
    1.6438   59.8947   73.1859 H   0  0  0  0  0  0  0  0  0  0  0  0
    3.0206   57.3111   73.2391 H   0  0  0  0  0  0  0  0  0  0  0  0
    2.4920   56.8848   75.3061 H   0  0  0  0  0  0  0  0  0  0  0  0
    3.7847   58.0968   75.6366 H   0  0  0  0  0  0  0  0  0  0  0  0
    1.7732   58.6554   76.9063 H   0  0  0  0  0  0  0  0  0  0  0  0
    2.0675   59.8886   75.6165 H   0  0  0  0  0  0  0  0  0  0  0  0
   -1.2536   59.9194   74.7172 H   0  0  0  0  0  0  0  0  0  0  0  0
   -1.0284   59.6674   76.4970 H   0  0  0  0  0  0  0  0  0  0  0  0
    2.6512   63.6516   72.8344 H   0  0  0  0  0  0  0  0  0  0  0  0
    2.3264   62.4137   74.9971 H   0  0  0  0  0  0  0  0  0  0  0  0
   -1.2241   62.2841   71.5885 H   0  0  0  0  0  0  0  0  0  0  0  0
    0.0645   65.7830   71.3099 H   0  0  0  0  0  0  0  0  0  0  0  0
    1.6780   67.8670   69.3199 H   0  0  0  0  0  0  0  0  0  0  0  0
    4.2740   59.8140   74.1284 H   0  0  0  0  0  0  0  0  0  0  0  0
    4.9874   58.3552   73.2954 H   0  0  0  0  0  0  0  0  0  0  0  0
    3.4204   57.9629   70.9383 H   0  0  0  0  0  0  0  0  0  0  0  0
    3.3098   59.1062   68.7277 H   0  0  0  0  0  0  0  0  0  0  0  0
    3.8789   61.5298   68.5396 H   0  0  0  0  0  0  0  0  0  0  0  0
    4.6436   61.6807   72.7891 H   0  0  0  0  0  0  0  0  0  0  0  0
  2  1  1  0
  3  2  1  0
  4  3  1  0
  5  4  1  0
  6  5  1  0
  6  1  1  0
  7  1  1  0
  8  7  1  0
 10  9  2  0
 11 10  1  0
 12 11  2  0
 12  8  1  0
 13 12  1  0
 14 13  2  0
 14  9  1  0
 15  9  1  0
 16 15  2  0
 18 17  2  0
 18 15  1  0
 19 17  1  0
 20  4  1  0
 21 20  1  0
 22 21  2  0
 23 22  1  0
 24 23  2  0
 25 24  1  0
 26 25  2  0
 26 21  1  0
 27 25  1  0
  1 28  1  0
  2 29  1  0
  2 30  1  0
  3 31  1  0
  3 32  1  0
  4 33  1  0
  5 34  1  0
  5 35  1  0
  6 36  1  0
  6 37  1  0
  7 38  1  0
  7 39  1  0
 10 40  1  0
 11 41  1  0
 14 42  1  0
 18 43  1  0
 19 44  1  0
 20 45  1  0
 20 46  1  0
 22 47  1  0
 23 48  1  0
 24 49  1  0
 26 50  1  0
M  CHG  1   4   1
M  END
>  <score>  (8) 
-8.598

$$$$
=
     RDKit          3D

 50 52  0  0  0  0  0  0  0  0999 V2000
    0.4160   61.4520   74.2730 C   0  0  0  0  0  0  0  0  0  0  0  0
    0.0600   60.1030   73.6200 C   0  0  0  0  0  0  0  0  0  0  0  0
    1.2560   59.4790   72.9200 C   0  0  0  0  0  0  0  0  0  0  0  0
    2.3550   59.1900   73.9280 N   0  0  0  0  0  4  0  0  0  0  0  0
    2.4300   60.1740   75.0800 C   0  0  0  0  0  0  0  0  0  0  0  0
    1.9030   61.5310   74.6490 C   0  0  0  0  0  0  0  0  0  0  0  0
    0.0320   62.6540   73.3890 C   0  0  0  0  0  0  0  0  0  0  0  0
    1.1690   63.4590   73.0740 O   0  0  0  0  0  0  0  0  0  0  0  0
    0.6110   66.0410   69.9080 C   0  0  0  0  0  0  0  0  0  0  0  0
    1.6830   65.1490   69.9000 C   0  0  0  0  0  0  0  0  0  0  0  0
    1.8600   64.2850   70.9810 C   0  0  0  0  0  0  0  0  0  0  0  0
    0.9670   64.3500   72.0380 C   0  0  0  0  0  0  0  0  0  0  0  0
   -0.0840   65.1970   72.0790 N   0  0  0  0  0  0  0  0  0  0  0  0
   -0.2330   66.0280   71.0150 C   0  0  0  0  0  0  0  0  0  0  0  0
    0.3300   67.0040   68.8250 C   0  0  0  0  0  0  0  0  0  0  0  0
    1.0540   67.9730   68.6310 O   0  0  0  0  0  0  0  0  0  0  0  0
   -2.0020   67.2730   68.2250 N   0  0  0  0  0  0  0  0  0  0  0  0
   -0.8350   66.8240   67.9020 C   0  0  0  0  0  0  0  0  0  0  0  0
   -2.8970   66.9710   67.1910 O   0  0  0  0  0  0  0  0  0  0  0  0
    3.7030   58.9690   73.2680 C   0  0  0  0  0  0  0  0  0  0  0  0
    3.8420   59.6770   71.9470 C   0  0  0  0  0  0  0  0  0  0  0  0
    3.4910   59.0360   70.7490 C   0  0  0  0  0  0  0  0  0  0  0  0
    3.6460   59.6880   69.5240 C   0  0  0  0  0  0  0  0  0  0  0  0
    4.1530   60.9860   69.4800 C   0  0  0  0  0  0  0  0  0  0  0  0
    4.4990   61.6310   70.6630 C   0  0  0  0  0  0  0  0  0  0  0  0
    4.3460   60.9870   71.8920 C   0  0  0  0  0  0  0  0  0  0  0  0
    5.1270   63.2310   70.6190 Cl  0  0  0  0  0  0  0  0  0  0  0  0
   -0.1815   61.5060   75.1950 H   0  0  0  0  0  0  0  0  0  0  0  0
   -0.2954   59.4133   74.3997 H   0  0  0  0  0  0  0  0  0  0  0  0
   -0.7198   60.2846   72.8658 H   0  0  0  0  0  0  0  0  0  0  0  0
    0.9470   58.5395   72.4385 H   0  0  0  0  0  0  0  0  0  0  0  0
    1.6364   60.1791   72.1617 H   0  0  0  0  0  0  0  0  0  0  0  0
    2.0792   58.2986   74.3641 H   0  0  0  0  0  0  0  0  0  0  0  0
    1.8240   59.7988   75.9178 H   0  0  0  0  0  0  0  0  0  0  0  0
    3.4795   60.2803   75.3920 H   0  0  0  0  0  0  0  0  0  0  0  0
    2.0269   62.2442   75.4772 H   0  0  0  0  0  0  0  0  0  0  0  0
    2.4698   61.8619   73.7662 H   0  0  0  0  0  0  0  0  0  0  0  0
   -0.4122   62.2821   72.4540 H   0  0  0  0  0  0  0  0  0  0  0  0
   -0.6859   63.2748   73.9450 H   0  0  0  0  0  0  0  0  0  0  0  0
    2.3815   65.1269   69.0505 H   0  0  0  0  0  0  0  0  0  0  0  0
    2.6925   63.5661   70.9937 H   0  0  0  0  0  0  0  0  0  0  0  0
   -1.0746   66.7362   71.0289 H   0  0  0  0  0  0  0  0  0  0  0  0
   -0.6959   66.3056   66.9418 H   0  0  0  0  0  0  0  0  0  0  0  0
   -3.8468   67.2406   67.2639 H   0  0  0  0  0  0  0  0  0  0  0  0
    4.4879   59.3364   73.9454 H   0  0  0  0  0  0  0  0  0  0  0  0
    3.7968   57.8908   73.0714 H   0  0  0  0  0  0  0  0  0  0  0  0
    3.0906   58.0118   70.7752 H   0  0  0  0  0  0  0  0  0  0  0  0
    3.3673   59.1761   68.5911 H   0  0  0  0  0  0  0  0  0  0  0  0
    4.2788   61.4977   68.5144 H   0  0  0  0  0  0  0  0  0  0  0  0
    4.6212   61.5075   72.8212 H   0  0  0  0  0  0  0  0  0  0  0  0
  2  1  1  0
  3  2  1  0
  4  3  1  0
  5  4  1  0
  6  5  1  0
  6  1  1  0
  7  1  1  0
  8  7  1  0
 10  9  2  0
 11 10  1  0
 12 11  2  0
 12  8  1  0
 13 12  1  0
 14 13  2  0
 14  9  1  0
 15  9  1  0
 16 15  2  0
 18 17  2  0
 18 15  1  0
 19 17  1  0
 20  4  1  0
 21 20  1  0
 22 21  2  0
 23 22  1  0
 24 23  2  0
 25 24  1  0
 26 25  2  0
 26 21  1  0
 27 25  1  0
  1 28  1  0
  2 29  1  0
  2 30  1  0
  3 31  1  0
  3 32  1  0
  4 33  1  0
  5 34  1  0
  5 35  1  0
  6 36  1  0
  6 37  1  0
  7 38  1  0
  7 39  1  0
 10 40  1  0
 11 41  1  0
 14 42  1  0
 18 43  1  0
 19 44  1  0
 20 45  1  0
 20 46  1  0
 22 47  1  0
 23 48  1  0
 24 49  1  0
 26 50  1  0
M  CHG  1   4   1
M  END
>  <score>  (9) 
-8.584

$$$$
