=
     RDKit          3D

 41 43  0  0  0  0  0  0  0  0999 V2000
    1.6680   62.0980   72.6430 C   0  0  0  0  0  0  0  0  0  0  0  0
    0.9150   63.2110   72.7680 C   0  0  0  0  0  0  0  0  0  0  0  0
    0.0480   63.5810   73.9250 C   0  0  0  0  0  0  0  0  0  0  0  0
    1.0290   64.0300   71.5520 C   0  0  0  0  0  0  0  0  0  0  0  0
    0.3620   65.1820   71.3560 C   0  0  0  0  0  0  0  0  0  0  0  0
    1.9620   63.3280   70.6520 C   0  0  0  0  0  0  0  0  0  0  0  0
    2.3250   62.1460   71.3270 C   0  0  0  0  0  0  0  0  0  0  0  0
    3.1900   61.2300   70.7460 C   0  0  0  0  0  0  0  0  0  0  0  0
    3.7030   61.5220   69.4870 C   0  0  0  0  0  0  0  0  0  0  0  0
    4.5500   60.6650   68.9000 F   0  0  0  0  0  0  0  0  0  0  0  0
    3.3650   62.7010   68.8150 C   0  0  0  0  0  0  0  0  0  0  0  0
    2.4850   63.6170   69.3980 C   0  0  0  0  0  0  0  0  0  0  0  0
    0.3750   66.0090   70.1510 C   0  0  0  0  0  0  0  0  0  0  0  0
   -0.7180   65.9850   69.2770 C   0  0  0  0  0  0  0  0  0  0  0  0
   -0.7110   66.7660   68.1210 C   0  0  0  0  0  0  0  0  0  0  0  0
    0.3910   67.5780   67.8270 C   0  0  0  0  0  0  0  0  0  0  0  0
    1.4760   67.6150   68.7100 C   0  0  0  0  0  0  0  0  0  0  0  0
    1.4690   66.8310   69.8670 C   0  0  0  0  0  0  0  0  0  0  0  0
    0.3900   68.5670   66.3150 S   0  0  0  0  0  3  0  0  0  0  0  0
   -1.3780   68.9600   66.3140 C   0  0  0  0  0  0  0  0  0  0  0  0
    0.6640   67.5310   65.0470 O   0  0  0  0  0  1  0  0  0  0  0  0
    1.8950   60.9880   73.6210 C   0  0  0  0  0  0  0  0  0  0  0  0
    1.7300   58.7250   72.9470 O   0  0  0  0  0  1  0  0  0  0  0  0
    1.0660   59.7500   73.2750 C   0  0  0  0  0  0  0  0  0  0  0  0
   -0.1890   59.9140   73.3150 O   0  0  0  0  0  0  0  0  0  0  0  0
    0.5745   63.3563   74.8643 H   0  0  0  0  0  0  0  0  0  0  0  0
   -0.1822   64.6558   73.8817 H   0  0  0  0  0  0  0  0  0  0  0  0
   -0.8873   63.0036   73.8817 H   0  0  0  0  0  0  0  0  0  0  0  0
   -0.2587   65.5391   72.1910 H   0  0  0  0  0  0  0  0  0  0  0  0
    3.4621   60.2998   71.2662 H   0  0  0  0  0  0  0  0  0  0  0  0
    3.7936   62.9083   67.8234 H   0  0  0  0  0  0  0  0  0  0  0  0
    2.2127   64.5459   68.8756 H   0  0  0  0  0  0  0  0  0  0  0  0
   -1.5859   65.3479   69.5025 H   0  0  0  0  0  0  0  0  0  0  0  0
   -1.5736   66.7438   67.4387 H   0  0  0  0  0  0  0  0  0  0  0  0
    2.3375   68.2635   68.4927 H   0  0  0  0  0  0  0  0  0  0  0  0
    2.3263   66.8610   70.5555 H   0  0  0  0  0  0  0  0  0  0  0  0
   -1.7365   69.0397   67.3509 H   0  0  0  0  0  0  0  0  0  0  0  0
   -1.5408   69.9162   65.7953 H   0  0  0  0  0  0  0  0  0  0  0  0
   -1.9305   68.1628   65.7953 H   0  0  0  0  0  0  0  0  0  0  0  0
    2.9611   60.7171   73.6115 H   0  0  0  0  0  0  0  0  0  0  0  0
    1.5863   61.3399   74.6164 H   0  0  0  0  0  0  0  0  0  0  0  0
  2  1  2  0
  3  2  1  0
  4  2  1  0
  5  4  2  0
  6  4  1  0
  7  6  2  0
  7  1  1  0
  8  7  1  0
  9  8  2  0
 10  9  1  0
 11  9  1  0
 12 11  2  0
 12  6  1  0
 13  5  1  0
 14 13  2  0
 15 14  1  0
 16 15  2  0
 17 16  1  0
 18 17  2  0
 18 13  1  0
 19 16  1  0
 20 19  1  0
 19 21  1  6
 22  1  1  0
 24 23  1  0
 24 22  1  0
 25 24  2  0
  3 26  1  0
  3 27  1  0
  3 28  1  0
  5 29  1  0
  8 30  1  0
 11 31  1  0
 12 32  1  0
 14 33  1  0
 15 34  1  0
 17 35  1  0
 18 36  1  0
 20 37  1  0
 20 38  1  0
 20 39  1  0
 22 40  1  0
 22 41  1  0
M  CHG  3  19   1  21  -1  23  -1
M  END
>  <score>  (1) 
-9.187

$$$$
=
     RDKit          3D

 41 43  0  0  0  0  0  0  0  0999 V2000
    5.4640   70.0530   67.4260 C   0  0  0  0  0  0  0  0  0  0  0  0
    4.4640   70.0880   68.3330 C   0  0  0  0  0  0  0  0  0  0  0  0
    4.5840   70.4050   69.7870 C   0  0  0  0  0  0  0  0  0  0  0  0
    3.1930   69.7200   67.6910 C   0  0  0  0  0  0  0  0  0  0  0  0
    2.0210   69.6230   68.3430 C   0  0  0  0  0  0  0  0  0  0  0  0
    3.4910   69.4750   66.2680 C   0  0  0  0  0  0  0  0  0  0  0  0
    4.8800   69.6660   66.1320 C   0  0  0  0  0  0  0  0  0  0  0  0
    5.5080   69.4930   64.9060 C   0  0  0  0  0  0  0  0  0  0  0  0
    4.7220   69.1470   63.8130 C   0  0  0  0  0  0  0  0  0  0  0  0
    5.2920   68.9820   62.6110 F   0  0  0  0  0  0  0  0  0  0  0  0
    3.3390   68.9730   63.9310 C   0  0  0  0  0  0  0  0  0  0  0  0
    2.7120   69.1370   65.1690 C   0  0  0  0  0  0  0  0  0  0  0  0
    0.7390   69.1980   67.7850 C   0  0  0  0  0  0  0  0  0  0  0  0
   -0.2000   70.1560   67.3870 C   0  0  0  0  0  0  0  0  0  0  0  0
   -1.4300   69.7590   66.8590 C   0  0  0  0  0  0  0  0  0  0  0  0
   -1.7320   68.3990   66.7260 C   0  0  0  0  0  0  0  0  0  0  0  0
   -0.7850   67.4410   67.1080 C   0  0  0  0  0  0  0  0  0  0  0  0
    0.4450   67.8400   67.6370 C   0  0  0  0  0  0  0  0  0  0  0  0
   -3.3360   67.9040   66.0590 S   0  0  0  0  0  3  0  0  0  0  0  0
   -3.2030   68.7970   64.4890 C   0  0  0  0  0  0  0  0  0  0  0  0
   -4.5030   68.6670   66.9600 O   0  0  0  0  0  1  0  0  0  0  0  0
    6.9140   70.3760   67.5980 C   0  0  0  0  0  0  0  0  0  0  0  0
    7.9740   71.6280   69.3050 O   0  0  0  0  0  1  0  0  0  0  0  0
    7.1160   71.6770   68.3770 C   0  0  0  0  0  0  0  0  0  0  0  0
    6.3660   72.6360   68.0280 O   0  0  0  0  0  0  0  0  0  0  0  0
    4.2559   69.5383   70.3795 H   0  0  0  0  0  0  0  0  0  0  0  0
    5.6322   70.6372   70.0264 H   0  0  0  0  0  0  0  0  0  0  0  0
    3.9523   71.2731   70.0264 H   0  0  0  0  0  0  0  0  0  0  0  0
    2.0280   69.8921   69.4096 H   0  0  0  0  0  0  0  0  0  0  0  0
    6.5951   69.6258   64.8026 H   0  0  0  0  0  0  0  0  0  0  0  0
    2.7428   68.7061   63.0459 H   0  0  0  0  0  0  0  0  0  0  0  0
    1.6252   69.0014   65.2709 H   0  0  0  0  0  0  0  0  0  0  0  0
    0.0318   71.2263   67.4905 H   0  0  0  0  0  0  0  0  0  0  0  0
   -2.1635   70.5170   66.5468 H   0  0  0  0  0  0  0  0  0  0  0  0
   -1.0102   66.3707   66.9912 H   0  0  0  0  0  0  0  0  0  0  0  0
    1.1841   67.0829   67.9379 H   0  0  0  0  0  0  0  0  0  0  0  0
   -3.0436   69.8670   64.6881 H   0  0  0  0  0  0  0  0  0  0  0  0
   -2.3539   68.4009   63.9126 H   0  0  0  0  0  0  0  0  0  0  0  0
   -4.1306   68.6655   63.9126 H   0  0  0  0  0  0  0  0  0  0  0  0
    7.3997   69.5543   68.1446 H   0  0  0  0  0  0  0  0  0  0  0  0
    7.3577   70.5022   66.5994 H   0  0  0  0  0  0  0  0  0  0  0  0
  2  1  2  0
  3  2  1  0
  4  2  1  0
  5  4  2  0
  6  4  1  0
  7  6  2  0
  7  1  1  0
  8  7  1  0
  9  8  2  0
 10  9  1  0
 11  9  1  0
 12 11  2  0
 12  6  1  0
 13  5  1  0
 14 13  2  0
 15 14  1  0
 16 15  2  0
 17 16  1  0
 18 17  2  0
 18 13  1  0
 19 16  1  0
 20 19  1  0
 19 21  1  1
 22  1  1  0
 24 23  1  0
 24 22  1  0
 25 24  2  0
  3 26  1  0
  3 27  1  0
  3 28  1  0
  5 29  1  0
  8 30  1  0
 11 31  1  0
 12 32  1  0
 14 33  1  0
 15 34  1  0
 17 35  1  0
 18 36  1  0
 20 37  1  0
 20 38  1  0
 20 39  1  0
 22 40  1  0
 22 41  1  0
M  CHG  3  19   1  21  -1  23  -1
M  END
>  <score>  (2) 
-8.894

$$$$
=
     RDKit          3D

 41 43  0  0  0  0  0  0  0  0999 V2000
    2.7330   61.2090   70.9860 C   0  0  0  0  0  0  0  0  0  0  0  0
    2.2120   60.3380   71.8770 C   0  0  0  0  0  0  0  0  0  0  0  0
    2.6570   58.9360   72.1250 C   0  0  0  0  0  0  0  0  0  0  0  0
    1.0760   60.9590   72.5750 C   0  0  0  0  0  0  0  0  0  0  0  0
    0.3220   60.3280   73.4940 C   0  0  0  0  0  0  0  0  0  0  0  0
    0.9510   62.3300   72.0500 C   0  0  0  0  0  0  0  0  0  0  0  0
    1.9570   62.4560   71.0720 C   0  0  0  0  0  0  0  0  0  0  0  0
    2.1110   63.6340   70.3540 C   0  0  0  0  0  0  0  0  0  0  0  0
    1.2570   64.6920   70.6430 C   0  0  0  0  0  0  0  0  0  0  0  0
    1.3830   65.8480   69.9760 F   0  0  0  0  0  0  0  0  0  0  0  0
    0.2670   64.5860   71.6250 C   0  0  0  0  0  0  0  0  0  0  0  0
    0.1070   63.3950   72.3380 C   0  0  0  0  0  0  0  0  0  0  0  0
   -0.8580   60.8580   74.1750 C   0  0  0  0  0  0  0  0  0  0  0  0
   -2.1320   60.6250   73.6450 C   0  0  0  0  0  0  0  0  0  0  0  0
   -3.2630   61.1340   74.2850 C   0  0  0  0  0  0  0  0  0  0  0  0
   -3.1300   61.8810   75.4610 C   0  0  0  0  0  0  0  0  0  0  0  0
   -1.8570   62.0980   76.0000 C   0  0  0  0  0  0  0  0  0  0  0  0
   -0.7240   61.5900   75.3580 C   0  0  0  0  0  0  0  0  0  0  0  0
   -4.6050   62.5470   76.2640 S   0  0  0  0  0  3  0  0  0  0  0  0
   -5.7830   61.3560   75.5750 C   0  0  0  0  0  0  0  0  0  0  0  0
   -4.9270   64.0180   75.5640 O   0  0  0  0  0  1  0  0  0  0  0  0
    3.9070   61.0450   70.0730 C   0  0  0  0  0  0  0  0  0  0  0  0
    6.0160   60.5150   71.0080 O   0  0  0  0  0  1  0  0  0  0  0  0
    5.2130   61.4590   70.7510 C   0  0  0  0  0  0  0  0  0  0  0  0
    5.3160   62.6930   71.0160 O   0  0  0  0  0  0  0  0  0  0  0  0
    2.7142   58.7557   73.2086 H   0  0  0  0  0  0  0  0  0  0  0  0
    1.9364   58.2375   71.6746 H   0  0  0  0  0  0  0  0  0  0  0  0
    3.6485   58.7809   71.6746 H   0  0  0  0  0  0  0  0  0  0  0  0
    0.6258   59.3051   73.7610 H   0  0  0  0  0  0  0  0  0  0  0  0
    2.8861   63.7275   69.5791 H   0  0  0  0  0  0  0  0  0  0  0  0
   -0.3884   65.4436   71.8370 H   0  0  0  0  0  0  0  0  0  0  0  0
   -0.6705   63.3028   73.1106 H   0  0  0  0  0  0  0  0  0  0  0  0
   -2.2424   60.0387   72.7208 H   0  0  0  0  0  0  0  0  0  0  0  0
   -4.2619   60.9475   73.8639 H   0  0  0  0  0  0  0  0  0  0  0  0
   -1.7475   62.6707   76.9327 H   0  0  0  0  0  0  0  0  0  0  0  0
    0.2745   61.7666   75.7845 H   0  0  0  0  0  0  0  0  0  0  0  0
   -6.2989   60.8344   76.3947 H   0  0  0  0  0  0  0  0  0  0  0  0
   -6.5213   61.8867   74.9560 H   0  0  0  0  0  0  0  0  0  0  0  0
   -5.2442   60.6236   74.9560 H   0  0  0  0  0  0  0  0  0  0  0  0
    3.9803   59.9893   69.7728 H   0  0  0  0  0  0  0  0  0  0  0  0
    3.7542   61.6941   69.1981 H   0  0  0  0  0  0  0  0  0  0  0  0
  2  1  2  0
  3  2  1  0
  4  2  1  0
  5  4  2  0
  6  4  1  0
  7  6  2  0
  7  1  1  0
  8  7  1  0
  9  8  2  0
 10  9  1  0
 11  9  1  0
 12 11  2  0
 12  6  1  0
 13  5  1  0
 14 13  2  0
 15 14  1  0
 16 15  2  0
 17 16  1  0
 18 17  2  0
 18 13  1  0
 19 16  1  0
 20 19  1  0
 19 21  1  6
 22  1  1  0
 24 23  1  0
 24 22  1  0
 25 24  2  0
  3 26  1  0
  3 27  1  0
  3 28  1  0
  5 29  1  0
  8 30  1  0
 11 31  1  0
 12 32  1  0
 14 33  1  0
 15 34  1  0
 17 35  1  0
 18 36  1  0
 20 37  1  0
 20 38  1  0
 20 39  1  0
 22 40  1  0
 22 41  1  0
M  CHG  3  19   1  21  -1  23  -1
M  END
>  <score>  (3) 
-8.552

$$$$
=
     RDKit          3D

 41 43  0  0  0  0  0  0  0  0999 V2000
    1.8920   62.8930   71.6910 C   0  0  0  0  0  0  0  0  0  0  0  0
    1.2100   62.4500   72.7690 C   0  0  0  0  0  0  0  0  0  0  0  0
    0.4110   63.2730   73.7230 C   0  0  0  0  0  0  0  0  0  0  0  0
    1.3920   60.9980   72.9130 C   0  0  0  0  0  0  0  0  0  0  0  0
    0.8700   60.2700   73.9170 C   0  0  0  0  0  0  0  0  0  0  0  0
    2.2430   60.5620   71.7910 C   0  0  0  0  0  0  0  0  0  0  0  0
    2.5500   61.7330   71.0700 C   0  0  0  0  0  0  0  0  0  0  0  0
    3.3630   61.6850   69.9460 C   0  0  0  0  0  0  0  0  0  0  0  0
    3.8470   60.4470   69.5410 C   0  0  0  0  0  0  0  0  0  0  0  0
    4.6260   60.3620   68.4530 F   0  0  0  0  0  0  0  0  0  0  0  0
    3.5330   59.2750   70.2370 C   0  0  0  0  0  0  0  0  0  0  0  0
    2.7240   59.3270   71.3750 C   0  0  0  0  0  0  0  0  0  0  0  0
    1.0660   58.8420   74.1600 C   0  0  0  0  0  0  0  0  0  0  0  0
    2.1720   58.4060   74.8990 C   0  0  0  0  0  0  0  0  0  0  0  0
    2.3700   57.0440   75.1300 C   0  0  0  0  0  0  0  0  0  0  0  0
    1.4650   56.1050   74.6220 C   0  0  0  0  0  0  0  0  0  0  0  0
    0.3500   56.5430   73.8990 C   0  0  0  0  0  0  0  0  0  0  0  0
    0.1520   57.9070   73.6670 C   0  0  0  0  0  0  0  0  0  0  0  0
    1.7490   54.3460   74.9150 S   0  0  0  0  0  3  0  0  0  0  0  0
    0.2600   53.7430   74.0770 C   0  0  0  0  0  0  0  0  0  0  0  0
    1.5410   54.0750   76.5390 O   0  0  0  0  0  1  0  0  0  0  0  0
    1.9840   64.2750   71.1270 C   0  0  0  0  0  0  0  0  0  0  0  0
    0.3290   65.9300   70.7690 O   0  0  0  0  0  1  0  0  0  0  0  0
    0.6540   64.7310   70.5260 C   0  0  0  0  0  0  0  0  0  0  0  0
    0.0140   63.8400   69.8950 O   0  0  0  0  0  0  0  0  0  0  0  0
    0.6766   62.9995   74.7548 H   0  0  0  0  0  0  0  0  0  0  0  0
    0.6281   64.3388   73.5588 H   0  0  0  0  0  0  0  0  0  0  0  0
   -0.6607   63.0876   73.5588 H   0  0  0  0  0  0  0  0  0  0  0  0
    0.2275   60.8065   74.6307 H   0  0  0  0  0  0  0  0  0  0  0  0
    3.6169   62.6006   69.3918 H   0  0  0  0  0  0  0  0  0  0  0  0
    3.9246   58.3085   69.8870 H   0  0  0  0  0  0  0  0  0  0  0  0
    2.4736   58.4104   71.9292 H   0  0  0  0  0  0  0  0  0  0  0  0
    2.8875   59.1395   75.2990 H   0  0  0  0  0  0  0  0  0  0  0  0
    3.2399   56.7075   75.7131 H   0  0  0  0  0  0  0  0  0  0  0  0
   -0.3737   55.8108   73.5116 H   0  0  0  0  0  0  0  0  0  0  0  0
   -0.7249   58.2451   73.0953 H   0  0  0  0  0  0  0  0  0  0  0  0
   -0.4859   53.4409   74.8269 H   0  0  0  0  0  0  0  0  0  0  0  0
   -0.1562   54.5435   73.4477 H   0  0  0  0  0  0  0  0  0  0  0  0
    0.5181   52.8785   73.4477 H   0  0  0  0  0  0  0  0  0  0  0  0
    2.2686   64.9698   71.9309 H   0  0  0  0  0  0  0  0  0  0  0  0
    2.7377   64.2686   70.3258 H   0  0  0  0  0  0  0  0  0  0  0  0
  2  1  2  0
  3  2  1  0
  4  2  1  0
  5  4  2  0
  6  4  1  0
  7  6  2  0
  7  1  1  0
  8  7  1  0
  9  8  2  0
 10  9  1  0
 11  9  1  0
 12 11  2  0
 12  6  1  0
 13  5  1  0
 14 13  2  0
 15 14  1  0
 16 15  2  0
 17 16  1  0
 18 17  2  0
 18 13  1  0
 19 16  1  0
 20 19  1  0
 19 21  1  1
 22  1  1  0
 24 23  1  0
 24 22  1  0
 25 24  2  0
  3 26  1  0
  3 27  1  0
  3 28  1  0
  5 29  1  0
  8 30  1  0
 11 31  1  0
 12 32  1  0
 14 33  1  0
 15 34  1  0
 17 35  1  0
 18 36  1  0
 20 37  1  0
 20 38  1  0
 20 39  1  0
 22 40  1  0
 22 41  1  0
M  CHG  3  19   1  21  -1  23  -1
M  END
>  <score>  (4) 
-8.345

$$$$
=
     RDKit          3D

 41 43  0  0  0  0  0  0  0  0999 V2000
    1.2940   65.0470   70.7800 C   0  0  0  0  0  0  0  0  0  0  0  0
    0.5270   64.7530   71.8510 C   0  0  0  0  0  0  0  0  0  0  0  0
   -0.3440   65.6940   72.6140 C   0  0  0  0  0  0  0  0  0  0  0  0
    0.6940   63.3370   72.2110 C   0  0  0  0  0  0  0  0  0  0  0  0
    0.0920   62.7520   73.2630 C   0  0  0  0  0  0  0  0  0  0  0  0
    1.6310   62.7560   71.2330 C   0  0  0  0  0  0  0  0  0  0  0  0
    1.9980   63.8170   70.3820 C   0  0  0  0  0  0  0  0  0  0  0  0
    2.8980   63.6200   69.3440 C   0  0  0  0  0  0  0  0  0  0  0  0
    3.4100   62.3420   69.1560 C   0  0  0  0  0  0  0  0  0  0  0  0
    4.2730   62.1130   68.1560 F   0  0  0  0  0  0  0  0  0  0  0  0
    3.0390   61.2760   69.9820 C   0  0  0  0  0  0  0  0  0  0  0  0
    2.1410   61.4800   71.0340 C   0  0  0  0  0  0  0  0  0  0  0  0
    0.2640   61.3740   73.7190 C   0  0  0  0  0  0  0  0  0  0  0  0
   -0.6230   60.3810   73.2890 C   0  0  0  0  0  0  0  0  0  0  0  0
   -0.4690   59.0640   73.7250 C   0  0  0  0  0  0  0  0  0  0  0  0
    0.5740   58.7290   74.5960 C   0  0  0  0  0  0  0  0  0  0  0  0
    1.4710   59.7190   75.0110 C   0  0  0  0  0  0  0  0  0  0  0  0
    1.3160   61.0380   74.5750 C   0  0  0  0  0  0  0  0  0  0  0  0
    0.7450   57.0230   75.1640 S   0  0  0  0  0  3  0  0  0  0  0  0
    2.4720   57.1440   75.6960 C   0  0  0  0  0  0  0  0  0  0  0  0
    0.7130   56.0490   73.8200 O   0  0  0  0  0  1  0  0  0  0  0  0
    1.4350   66.3380   70.0370 C   0  0  0  0  0  0  0  0  0  0  0  0
   -0.6010   65.6480   69.0440 O   0  0  0  0  0  1  0  0  0  0  0  0
    0.2690   66.5660   69.0730 C   0  0  0  0  0  0  0  0  0  0  0  0
    0.3370   67.6280   68.3870 O   0  0  0  0  0  0  0  0  0  0  0  0
   -0.1978   65.5360   73.6927 H   0  0  0  0  0  0  0  0  0  0  0  0
   -0.0790   66.7299   72.3559 H   0  0  0  0  0  0  0  0  0  0  0  0
   -1.3973   65.5098   72.3559 H   0  0  0  0  0  0  0  0  0  0  0  0
   -0.6037   63.3777   73.8414 H   0  0  0  0  0  0  0  0  0  0  0  0
    3.1973   64.4515   68.6891 H   0  0  0  0  0  0  0  0  0  0  0  0
    3.4552   60.2736   69.8033 H   0  0  0  0  0  0  0  0  0  0  0  0
    1.8450   60.6478   71.6897 H   0  0  0  0  0  0  0  0  0  0  0  0
   -1.4447   60.6392   72.6048 H   0  0  0  0  0  0  0  0  0  0  0  0
   -1.1691   58.2875   73.3832 H   0  0  0  0  0  0  0  0  0  0  0  0
    2.3018   59.4584   75.6832 H   0  0  0  0  0  0  0  0  0  0  0  0
    2.0233   61.8126   74.9063 H   0  0  0  0  0  0  0  0  0  0  0  0
    2.5177   57.1472   76.7950 H   0  0  0  0  0  0  0  0  0  0  0  0
    3.0364   56.2832   75.3080 H   0  0  0  0  0  0  0  0  0  0  0  0
    2.9108   58.0751   75.3080 H   0  0  0  0  0  0  0  0  0  0  0  0
    1.4654   67.1650   70.7617 H   0  0  0  0  0  0  0  0  0  0  0  0
    2.3634   66.2955   69.4485 H   0  0  0  0  0  0  0  0  0  0  0  0
  2  1  2  0
  3  2  1  0
  4  2  1  0
  5  4  2  0
  6  4  1  0
  7  6  2  0
  7  1  1  0
  8  7  1  0
  9  8  2  0
 10  9  1  0
 11  9  1  0
 12 11  2  0
 12  6  1  0
 13  5  1  0
 14 13  2  0
 15 14  1  0
 16 15  2  0
 17 16  1  0
 18 17  2  0
 18 13  1  0
 19 16  1  0
 20 19  1  0
 19 21  1  6
 22  1  1  0
 24 23  1  0
 24 22  1  0
 25 24  2  0
  3 26  1  0
  3 27  1  0
  3 28  1  0
  5 29  1  0
  8 30  1  0
 11 31  1  0
 12 32  1  0
 14 33  1  0
 15 34  1  0
 17 35  1  0
 18 36  1  0
 20 37  1  0
 20 38  1  0
 20 39  1  0
 22 40  1  0
 22 41  1  0
M  CHG  3  19   1  21  -1  23  -1
M  END
>  <score>  (5) 
-7.797

$$$$
=
     RDKit          3D

 41 43  0  0  0  0  0  0  0  0999 V2000
    2.6120   61.1300   71.1050 C   0  0  0  0  0  0  0  0  0  0  0  0
    1.7550   62.0950   71.4980 C   0  0  0  0  0  0  0  0  0  0  0  0
    1.7810   63.5330   71.1000 C   0  0  0  0  0  0  0  0  0  0  0  0
    0.7720   61.5370   72.4390 C   0  0  0  0  0  0  0  0  0  0  0  0
   -0.1900   62.2620   73.0400 C   0  0  0  0  0  0  0  0  0  0  0  0
    1.0820   60.1030   72.5790 C   0  0  0  0  0  0  0  0  0  0  0  0
    2.2160   59.8790   71.7730 C   0  0  0  0  0  0  0  0  0  0  0  0
    2.7940   58.6200   71.6880 C   0  0  0  0  0  0  0  0  0  0  0  0
    2.2090   57.5830   72.4050 C   0  0  0  0  0  0  0  0  0  0  0  0
    2.7340   56.3510   72.3380 F   0  0  0  0  0  0  0  0  0  0  0  0
    1.0720   57.7890   73.1940 C   0  0  0  0  0  0  0  0  0  0  0  0
    0.4990   59.0600   73.2860 C   0  0  0  0  0  0  0  0  0  0  0  0
   -1.1520   61.7900   74.0340 C   0  0  0  0  0  0  0  0  0  0  0  0
   -0.9050   61.9940   75.3960 C   0  0  0  0  0  0  0  0  0  0  0  0
   -1.8160   61.5400   76.3510 C   0  0  0  0  0  0  0  0  0  0  0  0
   -2.9820   60.8770   75.9530 C   0  0  0  0  0  0  0  0  0  0  0  0
   -3.2370   60.6900   74.5900 C   0  0  0  0  0  0  0  0  0  0  0  0
   -2.3240   61.1430   73.6330 C   0  0  0  0  0  0  0  0  0  0  0  0
   -4.1390   60.2810   77.2050 S   0  0  0  0  0  3  0  0  0  0  0  0
   -4.8840   58.9670   76.2040 C   0  0  0  0  0  0  0  0  0  0  0  0
   -5.2940   61.4560   77.4100 O   0  0  0  0  0  1  0  0  0  0  0  0
    3.7530   61.2060   70.1400 C   0  0  0  0  0  0  0  0  0  0  0  0
    5.8540   60.5740   71.0280 O   0  0  0  0  0  1  0  0  0  0  0  0
    5.0670   61.5470   70.8430 C   0  0  0  0  0  0  0  0  0  0  0  0
    5.1910   62.7570   71.1970 O   0  0  0  0  0  0  0  0  0  0  0  0
    1.7924   64.1629   72.0017 H   0  0  0  0  0  0  0  0  0  0  0  0
    2.6829   63.7318   70.5024 H   0  0  0  0  0  0  0  0  0  0  0  0
    0.8869   63.7643   70.5024 H   0  0  0  0  0  0  0  0  0  0  0  0
   -0.2594   63.3215   72.7526 H   0  0  0  0  0  0  0  0  0  0  0  0
    3.6886   58.4480   71.0714 H   0  0  0  0  0  0  0  0  0  0  0  0
    0.6273   56.9467   73.7442 H   0  0  0  0  0  0  0  0  0  0  0  0
   -0.3943   59.2305   73.9049 H   0  0  0  0  0  0  0  0  0  0  0  0
    0.0103   62.5140   75.7152 H   0  0  0  0  0  0  0  0  0  0  0  0
   -1.6166   61.7040   77.4203 H   0  0  0  0  0  0  0  0  0  0  0  0
   -4.1600   60.1843   74.2700 H   0  0  0  0  0  0  0  0  0  0  0  0
   -2.5284   60.9900   72.5631 H   0  0  0  0  0  0  0  0  0  0  0  0
   -5.3173   58.2028   76.8659 H   0  0  0  0  0  0  0  0  0  0  0  0
   -5.6748   59.3933   75.5692 H   0  0  0  0  0  0  0  0  0  0  0  0
   -4.1122   58.5073   75.5692 H   0  0  0  0  0  0  0  0  0  0  0  0
    3.8598   60.2335   69.6371 H   0  0  0  0  0  0  0  0  0  0  0  0
    3.5356   62.0036   69.4144 H   0  0  0  0  0  0  0  0  0  0  0  0
  2  1  2  0
  3  2  1  0
  4  2  1  0
  5  4  2  0
  6  4  1  0
  7  6  2  0
  7  1  1  0
  8  7  1  0
  9  8  2  0
 10  9  1  0
 11  9  1  0
 12 11  2  0
 12  6  1  0
 13  5  1  0
 14 13  2  0
 15 14  1  0
 16 15  2  0
 17 16  1  0
 18 17  2  0
 18 13  1  0
 19 16  1  0
 20 19  1  0
 19 21  1  6
 22  1  1  0
 24 23  1  0
 24 22  1  0
 25 24  2  0
  3 26  1  0
  3 27  1  0
  3 28  1  0
  5 29  1  0
  8 30  1  0
 11 31  1  0
 12 32  1  0
 14 33  1  0
 15 34  1  0
 17 35  1  0
 18 36  1  0
 20 37  1  0
 20 38  1  0
 20 39  1  0
 22 40  1  0
 22 41  1  0
M  CHG  3  19   1  21  -1  23  -1
M  END
>  <score>  (6) 
-7.702

$$$$
=
     RDKit          3D

 41 43  0  0  0  0  0  0  0  0999 V2000
    2.3560   61.5580   70.6020 C   0  0  0  0  0  0  0  0  0  0  0  0
    2.9030   60.3430   70.8180 C   0  0  0  0  0  0  0  0  0  0  0  0
    3.5190   59.4440   69.7980 C   0  0  0  0  0  0  0  0  0  0  0  0
    2.7760   59.9840   72.2380 C   0  0  0  0  0  0  0  0  0  0  0  0
    3.1900   58.8130   72.7580 C   0  0  0  0  0  0  0  0  0  0  0  0
    2.1130   61.1170   72.9070 C   0  0  0  0  0  0  0  0  0  0  0  0
    1.8500   62.0570   71.8910 C   0  0  0  0  0  0  0  0  0  0  0  0
    1.2040   63.2530   72.1750 C   0  0  0  0  0  0  0  0  0  0  0  0
    0.8450   63.5050   73.4940 C   0  0  0  0  0  0  0  0  0  0  0  0
    0.2300   64.6540   73.8060 F   0  0  0  0  0  0  0  0  0  0  0  0
    1.1180   62.5880   74.5140 C   0  0  0  0  0  0  0  0  0  0  0  0
    1.7570   61.3800   74.2230 C   0  0  0  0  0  0  0  0  0  0  0  0
    3.0350   58.3630   74.1390 C   0  0  0  0  0  0  0  0  0  0  0  0
    1.8930   57.6460   74.5150 C   0  0  0  0  0  0  0  0  0  0  0  0
    1.7340   57.2190   75.8340 C   0  0  0  0  0  0  0  0  0  0  0  0
    2.7150   57.5060   76.7900 C   0  0  0  0  0  0  0  0  0  0  0  0
    3.8650   58.2070   76.4090 C   0  0  0  0  0  0  0  0  0  0  0  0
    4.0230   58.6360   75.0890 C   0  0  0  0  0  0  0  0  0  0  0  0
    2.4820   56.9610   78.4960 S   0  0  0  0  0  3  0  0  0  0  0  0
    2.3870   58.6090   79.2400 C   0  0  0  0  0  0  0  0  0  0  0  0
    3.9110   56.2780   78.9960 O   0  0  0  0  0  1  0  0  0  0  0  0
    2.2720   62.3520   69.3370 C   0  0  0  0  0  0  0  0  0  0  0  0
    4.4360   63.1440   69.8820 O   0  0  0  0  0  1  0  0  0  0  0  0
    3.6360   62.9130   68.9300 C   0  0  0  0  0  0  0  0  0  0  0  0
    3.7840   63.1220   67.6900 O   0  0  0  0  0  0  0  0  0  0  0  0
    4.0709   58.6386   70.3046 H   0  0  0  0  0  0  0  0  0  0  0  0
    2.7291   59.0078   69.1689 H   0  0  0  0  0  0  0  0  0  0  0  0
    4.2109   60.0231   69.1689 H   0  0  0  0  0  0  0  0  0  0  0  0
    3.6989   58.1220   72.0699 H   0  0  0  0  0  0  0  0  0  0  0  0
    0.9828   63.9797   71.3794 H   0  0  0  0  0  0  0  0  0  0  0  0
    0.8284   62.8187   75.5498 H   0  0  0  0  0  0  0  0  0  0  0  0
    1.9734   60.6529   75.0195 H   0  0  0  0  0  0  0  0  0  0  0  0
    1.1182   57.4184   73.7681 H   0  0  0  0  0  0  0  0  0  0  0  0
    0.8349   56.6551   76.1232 H   0  0  0  0  0  0  0  0  0  0  0  0
    4.6475   58.4210   77.1519 H   0  0  0  0  0  0  0  0  0  0  0  0
    4.9272   59.1900   74.7966 H   0  0  0  0  0  0  0  0  0  0  0  0
    2.3923   58.5173   80.3362 H   0  0  0  0  0  0  0  0  0  0  0  0
    3.2522   59.2071   78.9179 H   0  0  0  0  0  0  0  0  0  0  0  0
    1.4588   59.1038   78.9179 H   0  0  0  0  0  0  0  0  0  0  0  0
    1.8993   61.7017   68.5319 H   0  0  0  0  0  0  0  0  0  0  0  0
    1.5900   63.1981   69.5076 H   0  0  0  0  0  0  0  0  0  0  0  0
  2  1  2  0
  3  2  1  0
  4  2  1  0
  5  4  2  0
  6  4  1  0
  7  6  2  0
  7  1  1  0
  8  7  1  0
  9  8  2  0
 10  9  1  0
 11  9  1  0
 12 11  2  0
 12  6  1  0
 13  5  1  0
 14 13  2  0
 15 14  1  0
 16 15  2  0
 17 16  1  0
 18 17  2  0
 18 13  1  0
 19 16  1  0
 20 19  1  0
 19 21  1  1
 22  1  1  0
 24 23  1  0
 24 22  1  0
 25 24  2  0
  3 26  1  0
  3 27  1  0
  3 28  1  0
  5 29  1  0
  8 30  1  0
 11 31  1  0
 12 32  1  0
 14 33  1  0
 15 34  1  0
 17 35  1  0
 18 36  1  0
 20 37  1  0
 20 38  1  0
 20 39  1  0
 22 40  1  0
 22 41  1  0
M  CHG  3  19   1  21  -1  23  -1
M  END
>  <score>  (7) 
-7.597

$$$$
=
     RDKit          3D

 41 43  0  0  0  0  0  0  0  0999 V2000
    2.7190   61.3830   71.1470 C   0  0  0  0  0  0  0  0  0  0  0  0
    1.8160   61.9770   71.9560 C   0  0  0  0  0  0  0  0  0  0  0  0
    1.5400   63.4390   72.0720 C   0  0  0  0  0  0  0  0  0  0  0  0
    1.1340   60.9610   72.7730 C   0  0  0  0  0  0  0  0  0  0  0  0
    0.2070   61.2440   73.7070 C   0  0  0  0  0  0  0  0  0  0  0  0
    1.6840   59.6530   72.3740 C   0  0  0  0  0  0  0  0  0  0  0  0
    2.6600   59.9340   71.3960 C   0  0  0  0  0  0  0  0  0  0  0  0
    3.3980   58.9140   70.8120 C   0  0  0  0  0  0  0  0  0  0  0  0
    3.1320   57.6070   71.2040 C   0  0  0  0  0  0  0  0  0  0  0  0
    3.8190   56.5960   70.6530 F   0  0  0  0  0  0  0  0  0  0  0  0
    2.1540   57.3150   72.1590 C   0  0  0  0  0  0  0  0  0  0  0  0
    1.4200   58.3440   72.7540 C   0  0  0  0  0  0  0  0  0  0  0  0
   -0.4580   60.2970   74.5990 C   0  0  0  0  0  0  0  0  0  0  0  0
   -1.6630   59.7010   74.2100 C   0  0  0  0  0  0  0  0  0  0  0  0
   -2.3080   58.8010   75.0590 C   0  0  0  0  0  0  0  0  0  0  0  0
   -1.7540   58.4890   76.3060 C   0  0  0  0  0  0  0  0  0  0  0  0
   -0.5400   59.0710   76.6860 C   0  0  0  0  0  0  0  0  0  0  0  0
    0.1060   59.9740   75.8360 C   0  0  0  0  0  0  0  0  0  0  0  0
   -2.6130   57.3360   77.3980 S   0  0  0  0  0  3  0  0  0  0  0  0
   -4.0130   56.9980   76.3000 C   0  0  0  0  0  0  0  0  0  0  0  0
   -3.1970   58.2130   78.6820 O   0  0  0  0  0  1  0  0  0  0  0  0
    3.6240   61.9930   70.1240 C   0  0  0  0  0  0  0  0  0  0  0  0
    5.5960   61.6290   71.3830 O   0  0  0  0  0  1  0  0  0  0  0  0
    4.9270   62.4950   70.7480 C   0  0  0  0  0  0  0  0  0  0  0  0
    5.1590   63.7300   70.5910 O   0  0  0  0  0  0  0  0  0  0  0  0
    1.4871   63.7190   73.1345 H   0  0  0  0  0  0  0  0  0  0  0  0
    2.3473   64.0044   71.5835 H   0  0  0  0  0  0  0  0  0  0  0  0
    0.5822   63.6712   71.5835 H   0  0  0  0  0  0  0  0  0  0  0  0
   -0.0805   62.3008   73.8097 H   0  0  0  0  0  0  0  0  0  0  0  0
    4.1710   59.1334   70.0607 H   0  0  0  0  0  0  0  0  0  0  0  0
    1.9614   56.2700   72.4434 H   0  0  0  0  0  0  0  0  0  0  0  0
    0.6497   58.1220   73.5072 H   0  0  0  0  0  0  0  0  0  0  0  0
   -2.1032   59.9429   73.2314 H   0  0  0  0  0  0  0  0  0  0  0  0
   -3.2546   58.3353   74.7475 H   0  0  0  0  0  0  0  0  0  0  0  0
   -0.0916   58.8171   77.6578 H   0  0  0  0  0  0  0  0  0  0  0  0
    1.0591   60.4305   76.1414 H   0  0  0  0  0  0  0  0  0  0  0  0
   -4.9077   56.7820   76.9024 H   0  0  0  0  0  0  0  0  0  0  0  0
   -4.2016   57.8764   75.6653 H   0  0  0  0  0  0  0  0  0  0  0  0
   -3.7801   56.1303   75.6653 H   0  0  0  0  0  0  0  0  0  0  0  0
    3.8621   61.2361   69.3622 H   0  0  0  0  0  0  0  0  0  0  0  0
    3.1047   62.8533   69.6765 H   0  0  0  0  0  0  0  0  0  0  0  0
  2  1  2  0
  3  2  1  0
  4  2  1  0
  5  4  2  0
  6  4  1  0
  7  6  2  0
  7  1  1  0
  8  7  1  0
  9  8  2  0
 10  9  1  0
 11  9  1  0
 12 11  2  0
 12  6  1  0
 13  5  1  0
 14 13  2  0
 15 14  1  0
 16 15  2  0
 17 16  1  0
 18 17  2  0
 18 13  1  0
 19 16  1  0
 20 19  1  0
 19 21  1  1
 22  1  1  0
 24 23  1  0
 24 22  1  0
 25 24  2  0
  3 26  1  0
  3 27  1  0
  3 28  1  0
  5 29  1  0
  8 30  1  0
 11 31  1  0
 12 32  1  0
 14 33  1  0
 15 34  1  0
 17 35  1  0
 18 36  1  0
 20 37  1  0
 20 38  1  0
 20 39  1  0
 22 40  1  0
 22 41  1  0
M  CHG  3  19   1  21  -1  23  -1
M  END
>  <score>  (8) 
-7.592

$$$$
=
     RDKit          3D

 41 43  0  0  0  0  0  0  0  0999 V2000
    2.6680   60.8270   71.1220 C   0  0  0  0  0  0  0  0  0  0  0  0
    2.8730   59.4940   71.1880 C   0  0  0  0  0  0  0  0  0  0  0  0
    3.7360   58.6740   70.2890 C   0  0  0  0  0  0  0  0  0  0  0  0
    2.0740   58.9200   72.2820 C   0  0  0  0  0  0  0  0  0  0  0  0
    2.0330   57.6070   72.5750 C   0  0  0  0  0  0  0  0  0  0  0  0
    1.3610   60.0400   72.9220 C   0  0  0  0  0  0  0  0  0  0  0  0
    1.7220   61.1890   72.1890 C   0  0  0  0  0  0  0  0  0  0  0  0
    1.2050   62.4350   72.5160 C   0  0  0  0  0  0  0  0  0  0  0  0
    0.3390   62.5200   73.5990 C   0  0  0  0  0  0  0  0  0  0  0  0
   -0.1710   63.7090   73.9500 F   0  0  0  0  0  0  0  0  0  0  0  0
   -0.0130   61.3900   74.3450 C   0  0  0  0  0  0  0  0  0  0  0  0
    0.5000   60.1350   74.0070 C   0  0  0  0  0  0  0  0  0  0  0  0
    1.2130   56.9620   73.5980 C   0  0  0  0  0  0  0  0  0  0  0  0
   -0.0810   56.5300   73.2850 C   0  0  0  0  0  0  0  0  0  0  0  0
   -0.8730   55.9190   74.2590 C   0  0  0  0  0  0  0  0  0  0  0  0
   -0.3790   55.7370   75.5550 C   0  0  0  0  0  0  0  0  0  0  0  0
    0.9210   56.1540   75.8630 C   0  0  0  0  0  0  0  0  0  0  0  0
    1.7140   56.7660   74.8880 C   0  0  0  0  0  0  0  0  0  0  0  0
   -1.4260   54.9620   76.8060 S   0  0  0  0  0  3  0  0  0  0  0  0
   -0.3110   53.5910   77.2030 C   0  0  0  0  0  0  0  0  0  0  0  0
   -2.7380   54.3160   76.0210 O   0  0  0  0  0  1  0  0  0  0  0  0
    3.2770   61.8370   70.2020 C   0  0  0  0  0  0  0  0  0  0  0  0
    4.9680   63.4950   70.2300 O   0  0  0  0  0  1  0  0  0  0  0  0
    4.5580   62.4350   70.7860 C   0  0  0  0  0  0  0  0  0  0  0  0
    5.0810   61.7710   71.7300 O   0  0  0  0  0  0  0  0  0  0  0  0
    4.4012   58.0419   70.8956 H   0  0  0  0  0  0  0  0  0  0  0  0
    3.1029   58.0366   69.6542 H   0  0  0  0  0  0  0  0  0  0  0  0
    4.3402   59.3388   69.6542 H   0  0  0  0  0  0  0  0  0  0  0  0
    2.6858   56.9500   71.9816 H   0  0  0  0  0  0  0  0  0  0  0  0
    1.4732   63.3293   71.9344 H   0  0  0  0  0  0  0  0  0  0  0  0
   -0.6964   61.4899   75.2011 H   0  0  0  0  0  0  0  0  0  0  0  0
    0.2276   59.2416   74.5880 H   0  0  0  0  0  0  0  0  0  0  0  0
   -0.4754   56.6724   72.2680 H   0  0  0  0  0  0  0  0  0  0  0  0
   -1.8885   55.5797   74.0065 H   0  0  0  0  0  0  0  0  0  0  0  0
    1.3203   55.9996   76.8763 H   0  0  0  0  0  0  0  0  0  0  0  0
    2.7342   57.0939   75.1365 H   0  0  0  0  0  0  0  0  0  0  0  0
   -0.2287   53.4898   78.2952 H   0  0  0  0  0  0  0  0  0  0  0  0
   -0.7104   52.6586   76.7774 H   0  0  0  0  0  0  0  0  0  0  0  0
    0.6832   53.7920   76.7774 H   0  0  0  0  0  0  0  0  0  0  0  0
    3.5152   61.3496   69.2451 H   0  0  0  0  0  0  0  0  0  0  0  0
    2.5521   62.6521   70.0597 H   0  0  0  0  0  0  0  0  0  0  0  0
  2  1  2  0
  3  2  1  0
  4  2  1  0
  5  4  2  0
  6  4  1  0
  7  6  2  0
  7  1  1  0
  8  7  1  0
  9  8  2  0
 10  9  1  0
 11  9  1  0
 12 11  2  0
 12  6  1  0
 13  5  1  0
 14 13  2  0
 15 14  1  0
 16 15  2  0
 17 16  1  0
 18 17  2  0
 18 13  1  0
 19 16  1  0
 20 19  1  0
 19 21  1  6
 22  1  1  0
 24 23  1  0
 24 22  1  0
 25 24  2  0
  3 26  1  0
  3 27  1  0
  3 28  1  0
  5 29  1  0
  8 30  1  0
 11 31  1  0
 12 32  1  0
 14 33  1  0
 15 34  1  0
 17 35  1  0
 18 36  1  0
 20 37  1  0
 20 38  1  0
 20 39  1  0
 22 40  1  0
 22 41  1  0
M  CHG  3  19   1  21  -1  23  -1
M  END
>  <score>  (9) 
-7.399

$$$$
