=
     RDKit          3D

 63 66  0  0  0  0  0  0  0  0999 V2000
    0.4200   64.4990   69.9330 C   0  0  0  0  0  0  0  0  0  0  0  0
    0.2290   66.0360   69.9010 C   0  0  1  0  0  0  0  0  0  0  0  0
    1.4960   66.9010   69.7520 C   0  0  0  0  0  0  0  0  0  0  0  0
    1.8440   67.1080   68.2890 C   0  0  0  0  0  0  0  0  0  0  0  0
    0.7550   67.9770   67.6070 N   0  0  2  0  0  4  0  0  0  0  0  0
   -0.6200   67.8030   68.2920 C   0  0  0  0  0  0  0  0  0  0  0  0
   -0.7950   66.3750   68.7900 C   0  0  0  0  0  0  0  0  0  0  0  0
    0.6620   67.5590   66.1390 C   0  0  0  0  0  0  0  0  0  0  0  0
   -0.3880   66.4370   71.1320 O   0  0  0  0  0  0  0  0  0  0  0  0
    1.1970   69.4690   67.6890 C   0  0  0  0  0  0  0  0  0  0  0  0
    2.6830   69.7360   67.6970 C   0  0  0  0  0  0  0  0  0  0  0  0
    3.3150   70.2650   68.8330 C   0  0  0  0  0  0  0  0  0  0  0  0
    4.6870   70.5200   68.8290 C   0  0  0  0  0  0  0  0  0  0  0  0
    5.4470   70.2430   67.6950 C   0  0  0  0  0  0  0  0  0  0  0  0
    4.8370   69.7020   66.5660 C   0  0  0  0  0  0  0  0  0  0  0  0
    3.4660   69.4450   66.5670 C   0  0  0  0  0  0  0  0  0  0  0  0
    1.5560   64.0110   70.8130 C   0  0  0  0  0  0  0  0  0  0  0  0
    2.7120   64.3250   70.5150 O   0  0  0  0  0  0  0  0  0  0  0  0
   -0.3700   58.9390   73.9110 C   0  0  0  0  0  0  0  0  0  0  0  0
    0.7730   59.4360   73.2730 C   0  0  0  0  0  0  0  0  0  0  0  0
    0.7400   60.7160   72.7420 C   0  0  0  0  0  0  0  0  0  0  0  0
    2.0600   61.5390   71.8990 S   0  0  0  0  0  0  0  0  0  0  0  0
    1.2110   63.1550   72.0200 C   0  0  2  0  0  0  0  0  0  0  0  0
   -0.2890   62.8430   72.1430 C   0  0  0  0  0  0  0  0  0  0  0  0
   -0.4020   61.5110   72.8290 C   0  0  0  0  0  0  0  0  0  0  0  0
   -1.5500   61.0260   73.4470 C   0  0  0  0  0  0  0  0  0  0  0  0
   -1.5380   59.7380   73.9990 C   0  0  0  0  0  0  0  0  0  0  0  0
   -0.2560   56.5640   73.6360 C   0  0  0  0  0  0  0  0  0  0  0  0
   -0.4570   57.6910   74.4770 O   0  0  0  0  0  0  0  0  0  0  0  0
   -2.6090   59.1610   74.6340 O   0  0  0  0  0  0  0  0  0  0  0  0
   -3.7840   59.9400   74.8000 C   0  0  0  0  0  0  0  0  0  0  0  0
   -0.5135   64.0469   70.2993 H   0  0  0  0  0  0  0  0  0  0  0  0
    0.6771   64.2002   68.9061 H   0  0  0  0  0  0  0  0  0  0  0  0
    1.3207   67.8799   70.2221 H   0  0  0  0  0  0  0  0  0  0  0  0
    2.3337   66.3830   70.2418 H   0  0  0  0  0  0  0  0  0  0  0  0
    2.8167   67.6161   68.2135 H   0  0  0  0  0  0  0  0  0  0  0  0
    1.8959   66.1308   67.7865 H   0  0  0  0  0  0  0  0  0  0  0  0
   -0.6887   68.4941   69.1450 H   0  0  0  0  0  0  0  0  0  0  0  0
   -1.4108   68.0220   67.5594 H   0  0  0  0  0  0  0  0  0  0  0  0
   -1.8120   66.2582   69.1926 H   0  0  0  0  0  0  0  0  0  0  0  0
   -0.6293   65.6904   67.9451 H   0  0  0  0  0  0  0  0  0  0  0  0
    0.4235   66.4869   66.0774 H   0  0  0  0  0  0  0  0  0  0  0  0
   -0.1289   68.1397   65.6418 H   0  0  0  0  0  0  0  0  0  0  0  0
    1.6245   67.7496   65.6418 H   0  0  0  0  0  0  0  0  0  0  0  0
    0.1418   66.0927   71.8942 H   0  0  0  0  0  0  0  0  0  0  0  0
    0.7690   69.9917   66.8209 H   0  0  0  0  0  0  0  0  0  0  0  0
    0.8338   69.8251   68.6643 H   0  0  0  0  0  0  0  0  0  0  0  0
    2.7233   70.4806   69.7349 H   0  0  0  0  0  0  0  0  0  0  0  0
    5.1695   70.9408   69.7235 H   0  0  0  0  0  0  0  0  0  0  0  0
    6.5271   70.4512   67.6913 H   0  0  0  0  0  0  0  0  0  0  0  0
    5.4373   69.4770   65.6721 H   0  0  0  0  0  0  0  0  0  0  0  0
    2.9930   69.0101   65.6742 H   0  0  0  0  0  0  0  0  0  0  0  0
    1.6817   58.8211   73.1945 H   0  0  0  0  0  0  0  0  0  0  0  0
    1.5301   63.7410   72.8946 H   0  0  0  0  0  0  0  0  0  0  0  0
   -0.7894   63.6197   72.7399 H   0  0  0  0  0  0  0  0  0  0  0  0
   -0.7689   62.8187   71.1535 H   0  0  0  0  0  0  0  0  0  0  0  0
   -2.4567   61.6463   73.5018 H   0  0  0  0  0  0  0  0  0  0  0  0
   -0.0963   55.6686   74.2547 H   0  0  0  0  0  0  0  0  0  0  0  0
   -1.1422   56.4176   73.0010 H   0  0  0  0  0  0  0  0  0  0  0  0
    0.6262   56.7330   73.0010 H   0  0  0  0  0  0  0  0  0  0  0  0
   -3.9864   60.0742   75.8729 H   0  0  0  0  0  0  0  0  0  0  0  0
   -3.6418   60.9233   74.3279 H   0  0  0  0  0  0  0  0  0  0  0  0
   -4.6343   59.4262   74.3279 H   0  0  0  0  0  0  0  0  0  0  0  0
  2  1  1  0
  3  2  1  0
  4  3  1  0
  5  4  1  0
  6  5  1  0
  7  6  1  0
  7  2  1  0
  5  8  1  6
  2  9  1  1
 10  5  1  0
 11 10  1  0
 12 11  2  0
 13 12  1  0
 14 13  2  0
 15 14  1  0
 16 15  2  0
 16 11  1  0
 17  1  1  0
 18 17  2  0
 20 19  2  0
 21 20  1  0
 22 21  1  0
 23 17  1  0
 23 22  1  0
 24 23  1  0
 25 24  1  0
 25 21  2  0
 26 25  1  0
 27 19  1  0
 27 26  2  0
 29 28  1  0
 29 19  1  0
 30 27  1  0
 31 30  1  0
  1 32  1  0
  1 33  1  0
  3 34  1  0
  3 35  1  0
  4 36  1  0
  4 37  1  0
  6 38  1  0
  6 39  1  0
  7 40  1  0
  7 41  1  0
  8 42  1  0
  8 43  1  0
  8 44  1  0
  9 45  1  0
 10 46  1  0
 10 47  1  0
 12 48  1  0
 13 49  1  0
 14 50  1  0
 15 51  1  0
 16 52  1  0
 20 53  1  0
 23 54  1  1
 24 55  1  0
 24 56  1  0
 26 57  1  0
 28 58  1  0
 28 59  1  0
 28 60  1  0
 31 61  1  0
 31 62  1  0
 31 63  1  0
M  CHG  1   5   1
M  END
>  <score>  (1) 
-9.14

$$$$
=
     RDKit          3D

 63 66  0  0  0  0  0  0  0  0999 V2000
    0.4250   64.4560   69.9770 C   0  0  0  0  0  0  0  0  0  0  0  0
    0.2240   65.9910   69.9530 C   0  0  1  0  0  0  0  0  0  0  0  0
    1.4840   66.8660   69.8010 C   0  0  0  0  0  0  0  0  0  0  0  0
    1.8240   67.0800   68.3380 C   0  0  0  0  0  0  0  0  0  0  0  0
    0.7260   67.9450   67.6640 N   0  0  2  0  0  4  0  0  0  0  0  0
   -0.6450   67.7590   68.3550 C   0  0  0  0  0  0  0  0  0  0  0  0
   -0.8070   66.3280   68.8480 C   0  0  0  0  0  0  0  0  0  0  0  0
    0.6290   67.5320   66.1950 C   0  0  0  0  0  0  0  0  0  0  0  0
   -0.3910   66.3830   71.1880 O   0  0  0  0  0  0  0  0  0  0  0  0
    1.1580   69.4390   67.7510 C   0  0  0  0  0  0  0  0  0  0  0  0
    2.6420   69.7190   67.7170 C   0  0  0  0  0  0  0  0  0  0  0  0
    3.3990   69.4540   66.5660 C   0  0  0  0  0  0  0  0  0  0  0  0
    4.7720   69.7040   66.5450 C   0  0  0  0  0  0  0  0  0  0  0  0
    5.4040   70.2310   67.6690 C   0  0  0  0  0  0  0  0  0  0  0  0
    4.6630   70.5170   68.8120 C   0  0  0  0  0  0  0  0  0  0  0  0
    3.2900   70.2670   68.8360 C   0  0  0  0  0  0  0  0  0  0  0  0
    1.8540   63.9990   70.2120 C   0  0  0  0  0  0  0  0  0  0  0  0
    2.6130   63.9130   69.2430 O   0  0  0  0  0  0  0  0  0  0  0  0
    2.6630   60.4650   75.3000 C   0  0  0  0  0  0  0  0  0  0  0  0
    3.2650   60.7130   74.0610 C   0  0  0  0  0  0  0  0  0  0  0  0
    2.7210   61.6850   73.2360 C   0  0  0  0  0  0  0  0  0  0  0  0
    3.3140   62.1610   71.6380 S   0  0  0  0  0  0  0  0  0  0  0  0
    2.2760   63.6670   71.6330 C   0  0  2  0  0  0  0  0  0  0  0  0
    1.0950   63.3770   72.5730 C   0  0  0  0  0  0  0  0  0  0  0  0
    1.5920   62.4130   73.6120 C   0  0  0  0  0  0  0  0  0  0  0  0
    0.9750   62.1670   74.8350 C   0  0  0  0  0  0  0  0  0  0  0  0
    1.5120   61.1960   75.6900 C   0  0  0  0  0  0  0  0  0  0  0  0
    3.6460   58.3190   75.6950 C   0  0  0  0  0  0  0  0  0  0  0  0
    3.1110   59.5320   76.2030 O   0  0  0  0  0  0  0  0  0  0  0  0
    0.9890   60.8740   76.9180 O   0  0  0  0  0  0  0  0  0  0  0  0
   -0.2520   60.1860   76.9530 C   0  0  0  0  0  0  0  0  0  0  0  0
   -0.2020   64.0424   70.7806 H   0  0  0  0  0  0  0  0  0  0  0  0
    0.1474   64.0941   68.9760 H   0  0  0  0  0  0  0  0  0  0  0  0
    1.3034   67.8421   70.2749 H   0  0  0  0  0  0  0  0  0  0  0  0
    2.3277   66.3527   70.2854 H   0  0  0  0  0  0  0  0  0  0  0  0
    2.7932   67.5943   68.2598 H   0  0  0  0  0  0  0  0  0  0  0  0
    1.8798   66.1050   67.8318 H   0  0  0  0  0  0  0  0  0  0  0  0
   -0.7145   68.4463   69.2110 H   0  0  0  0  0  0  0  0  0  0  0  0
   -1.4410   67.9756   67.6274 H   0  0  0  0  0  0  0  0  0  0  0  0
   -1.8213   66.2022   69.2545 H   0  0  0  0  0  0  0  0  0  0  0  0
   -0.6395   65.6484   67.9994 H   0  0  0  0  0  0  0  0  0  0  0  0
    0.3779   66.4630   66.1305 H   0  0  0  0  0  0  0  0  0  0  0  0
   -0.1547   68.1233   65.6989 H   0  0  0  0  0  0  0  0  0  0  0  0
    1.5940   67.7126   65.6989 H   0  0  0  0  0  0  0  0  0  0  0  0
    0.1452   66.0412   71.9468 H   0  0  0  0  0  0  0  0  0  0  0  0
    0.6993   69.9686   66.9029 H   0  0  0  0  0  0  0  0  0  0  0  0
    0.8220   69.7799   68.7414 H   0  0  0  0  0  0  0  0  0  0  0  0
    2.9059   69.0454   65.6717 H   0  0  0  0  0  0  0  0  0  0  0  0
    5.3562   69.4845   65.6391 H   0  0  0  0  0  0  0  0  0  0  0  0
    6.4874   70.4209   67.6533 H   0  0  0  0  0  0  0  0  0  0  0  0
    5.1599   70.9405   69.6973 H   0  0  0  0  0  0  0  0  0  0  0  0
    2.7096   70.5016   69.7405 H   0  0  0  0  0  0  0  0  0  0  0  0
    4.1542   60.1465   73.7475 H   0  0  0  0  0  0  0  0  0  0  0  0
    2.8129   64.5570   71.9932 H   0  0  0  0  0  0  0  0  0  0  0  0
    0.7551   64.3072   73.0517 H   0  0  0  0  0  0  0  0  0  0  0  0
    0.2443   62.9545   72.0182 H   0  0  0  0  0  0  0  0  0  0  0  0
    0.0755   62.7289   75.1270 H   0  0  0  0  0  0  0  0  0  0  0  0
    3.9339   57.6662   76.5322 H   0  0  0  0  0  0  0  0  0  0  0  0
    2.8875   57.8130   75.0796 H   0  0  0  0  0  0  0  0  0  0  0  0
    4.5311   58.5379   75.0796 H   0  0  0  0  0  0  0  0  0  0  0  0
   -0.5502   60.0207   77.9988 H   0  0  0  0  0  0  0  0  0  0  0  0
   -1.0192   60.7876   76.4437 H   0  0  0  0  0  0  0  0  0  0  0  0
   -0.1483   59.2166   76.4437 H   0  0  0  0  0  0  0  0  0  0  0  0
  2  1  1  0
  3  2  1  0
  4  3  1  0
  5  4  1  0
  6  5  1  0
  7  6  1  0
  7  2  1  0
  5  8  1  6
  2  9  1  1
 10  5  1  0
 11 10  1  0
 12 11  2  0
 13 12  1  0
 14 13  2  0
 15 14  1  0
 16 15  2  0
 16 11  1  0
 17  1  1  0
 18 17  2  0
 20 19  2  0
 21 20  1  0
 22 21  1  0
 23 17  1  0
 23 22  1  0
 24 23  1  0
 25 24  1  0
 25 21  2  0
 26 25  1  0
 27 19  1  0
 27 26  2  0
 29 28  1  0
 29 19  1  0
 30 27  1  0
 31 30  1  0
  1 32  1  0
  1 33  1  0
  3 34  1  0
  3 35  1  0
  4 36  1  0
  4 37  1  0
  6 38  1  0
  6 39  1  0
  7 40  1  0
  7 41  1  0
  8 42  1  0
  8 43  1  0
  8 44  1  0
  9 45  1  0
 10 46  1  0
 10 47  1  0
 12 48  1  0
 13 49  1  0
 14 50  1  0
 15 51  1  0
 16 52  1  0
 20 53  1  0
 23 54  1  1
 24 55  1  0
 24 56  1  0
 26 57  1  0
 28 58  1  0
 28 59  1  0
 28 60  1  0
 31 61  1  0
 31 62  1  0
 31 63  1  0
M  CHG  1   5   1
M  END
>  <score>  (2) 
-8.551

$$$$
=
     RDKit          3D

 63 66  0  0  0  0  0  0  0  0999 V2000
    0.8010   66.4790   70.0410 C   0  0  0  0  0  0  0  0  0  0  0  0
    0.5090   64.9770   70.2760 C   0  0  1  0  0  0  0  0  0  0  0  0
    1.7090   64.0090   70.2260 C   0  0  0  0  0  0  0  0  0  0  0  0
    2.3720   63.8960   71.5860 C   0  0  0  0  0  0  0  0  0  0  0  0
    1.4110   63.1960   72.5830 N   0  0  2  0  0  4  0  0  0  0  0  0
   -0.0690   63.4430   72.2110 C   0  0  0  0  0  0  0  0  0  0  0  0
   -0.2490   64.8330   71.6180 C   0  0  0  0  0  0  0  0  0  0  0  0
    1.6950   63.7450   73.9830 C   0  0  0  0  0  0  0  0  0  0  0  0
   -0.4060   64.5340   69.2650 O   0  0  0  0  0  0  0  0  0  0  0  0
    1.7100   61.6680   72.5600 C   0  0  0  0  0  0  0  0  0  0  0  0
    3.0050   61.2390   71.9140 C   0  0  0  0  0  0  0  0  0  0  0  0
    3.0200   60.6950   70.6210 C   0  0  0  0  0  0  0  0  0  0  0  0
    4.2210   60.2910   70.0340 C   0  0  0  0  0  0  0  0  0  0  0  0
    5.4210   60.4340   70.7260 C   0  0  0  0  0  0  0  0  0  0  0  0
    5.4240   60.9890   72.0020 C   0  0  0  0  0  0  0  0  0  0  0  0
    4.2260   61.3940   72.5920 C   0  0  0  0  0  0  0  0  0  0  0  0
    0.0440   67.1080   68.8850 C   0  0  0  0  0  0  0  0  0  0  0  0
   -1.1160   66.7440   68.6710 O   0  0  0  0  0  0  0  0  0  0  0  0
    4.5520   69.5070   65.2860 C   0  0  0  0  0  0  0  0  0  0  0  0
    3.4330   68.6720   65.1880 C   0  0  0  0  0  0  0  0  0  0  0  0
    2.6580   68.4570   66.3170 C   0  0  0  0  0  0  0  0  0  0  0  0
    1.2090   67.4460   66.4210 S   0  0  0  0  0  0  0  0  0  0  0  0
    0.7560   68.1540   68.0450 C   0  0  2  0  0  0  0  0  0  0  0  0
    2.0660   68.6590   68.6730 C   0  0  0  0  0  0  0  0  0  0  0  0
    2.9700   69.0510   67.5390 C   0  0  0  0  0  0  0  0  0  0  0  0
    4.0870   69.8720   67.6550 C   0  0  0  0  0  0  0  0  0  0  0  0
    4.8810   70.1110   66.5260 C   0  0  0  0  0  0  0  0  0  0  0  0
    5.6370   68.7790   63.2810 C   0  0  0  0  0  0  0  0  0  0  0  0
    5.3920   69.7980   64.2390 O   0  0  0  0  0  0  0  0  0  0  0  0
    6.0010   70.9050   66.5240 O   0  0  0  0  0  0  0  0  0  0  0  0
    6.4700   71.3970   67.7700 C   0  0  0  0  0  0  0  0  0  0  0  0
    0.5374   67.0253   70.9587 H   0  0  0  0  0  0  0  0  0  0  0  0
    1.8680   66.5473   69.7824 H   0  0  0  0  0  0  0  0  0  0  0  0
    1.3567   63.0149   69.9136 H   0  0  0  0  0  0  0  0  0  0  0  0
    2.4452   64.3995   69.5080 H   0  0  0  0  0  0  0  0  0  0  0  0
    3.2958   63.3060   71.4940 H   0  0  0  0  0  0  0  0  0  0  0  0
    2.6108   64.9032   71.9583 H   0  0  0  0  0  0  0  0  0  0  0  0
   -0.3862   62.6915   71.4730 H   0  0  0  0  0  0  0  0  0  0  0  0
   -0.6808   63.3648   73.1218 H   0  0  0  0  0  0  0  0  0  0  0  0
   -1.3204   65.0123   71.4449 H   0  0  0  0  0  0  0  0  0  0  0  0
    0.1601   65.5676   72.3272 H   0  0  0  0  0  0  0  0  0  0  0  0
    1.3271   63.0339   74.7373 H   0  0  0  0  0  0  0  0  0  0  0  0
    2.7787   63.8852   74.1090 H   0  0  0  0  0  0  0  0  0  0  0  0
    1.1833   64.7105   74.1090 H   0  0  0  0  0  0  0  0  0  0  0  0
   -1.2090   64.1452   69.6941 H   0  0  0  0  0  0  0  0  0  0  0  0
    1.7249   61.3158   73.6020 H   0  0  0  0  0  0  0  0  0  0  0  0
    0.9173   61.2283   71.9369 H   0  0  0  0  0  0  0  0  0  0  0  0
    2.0774   60.5857   70.0646 H   0  0  0  0  0  0  0  0  0  0  0  0
    4.2191   59.8587   69.0225 H   0  0  0  0  0  0  0  0  0  0  0  0
    6.3651   60.1087   70.2646 H   0  0  0  0  0  0  0  0  0  0  0  0
    6.3722   61.1087   72.5465 H   0  0  0  0  0  0  0  0  0  0  0  0
    4.2376   61.8390   73.5979 H   0  0  0  0  0  0  0  0  0  0  0  0
    3.1731   68.1947   64.2317 H   0  0  0  0  0  0  0  0  0  0  0  0
    0.0487   68.9924   67.9628 H   0  0  0  0  0  0  0  0  0  0  0  0
    1.8666   69.5289   69.3161 H   0  0  0  0  0  0  0  0  0  0  0  0
    2.5302   67.8802   69.2959 H   0  0  0  0  0  0  0  0  0  0  0  0
    4.3438   70.3284   68.6224 H   0  0  0  0  0  0  0  0  0  0  0  0
    5.8638   67.8355   63.7991 H   0  0  0  0  0  0  0  0  0  0  0  0
    4.7452   68.6461   62.6509 H   0  0  0  0  0  0  0  0  0  0  0  0
    6.4917   69.0660   62.6509 H   0  0  0  0  0  0  0  0  0  0  0  0
    5.9630   70.8651   68.5885 H   0  0  0  0  0  0  0  0  0  0  0  0
    7.5553   71.2339   67.8436 H   0  0  0  0  0  0  0  0  0  0  0  0
    6.2552   72.4733   67.8436 H   0  0  0  0  0  0  0  0  0  0  0  0
  2  1  1  0
  3  2  1  0
  4  3  1  0
  5  4  1  0
  6  5  1  0
  7  6  1  0
  7  2  1  0
  5  8  1  1
  2  9  1  6
 10  5  1  0
 11 10  1  0
 12 11  2  0
 13 12  1  0
 14 13  2  0
 15 14  1  0
 16 15  2  0
 16 11  1  0
 17  1  1  0
 18 17  2  0
 20 19  2  0
 21 20  1  0
 22 21  1  0
 23 17  1  0
 23 22  1  0
 24 23  1  0
 25 24  1  0
 25 21  2  0
 26 25  1  0
 27 19  1  0
 27 26  2  0
 29 28  1  0
 29 19  1  0
 30 27  1  0
 31 30  1  0
  1 32  1  0
  1 33  1  0
  3 34  1  0
  3 35  1  0
  4 36  1  0
  4 37  1  0
  6 38  1  0
  6 39  1  0
  7 40  1  0
  7 41  1  0
  8 42  1  0
  8 43  1  0
  8 44  1  0
  9 45  1  0
 10 46  1  0
 10 47  1  0
 12 48  1  0
 13 49  1  0
 14 50  1  0
 15 51  1  0
 16 52  1  0
 20 53  1  0
 23 54  1  6
 24 55  1  0
 24 56  1  0
 26 57  1  0
 28 58  1  0
 28 59  1  0
 28 60  1  0
 31 61  1  0
 31 62  1  0
 31 63  1  0
M  CHG  1   5   1
M  END
>  <score>  (3) 
-8.424

$$$$
=
     RDKit          3D

 63 66  0  0  0  0  0  0  0  0999 V2000
    1.2590   67.1170   69.4220 C   0  0  0  0  0  0  0  0  0  0  0  0
    0.7840   67.9080   68.1780 C   0  0  1  0  0  0  0  0  0  0  0  0
    1.8320   68.7740   67.4500 C   0  0  0  0  0  0  0  0  0  0  0  0
    2.5800   67.9610   66.4100 C   0  0  0  0  0  0  0  0  0  0  0  0
    1.6150   67.5580   65.2640 N   0  0  2  0  0  4  0  0  0  0  0  0
    0.1580   67.4390   65.7650 C   0  0  0  0  0  0  0  0  0  0  0  0
    0.1230   66.9120   67.1930 C   0  0  0  0  0  0  0  0  0  0  0  0
    2.0830   66.2160   64.6980 C   0  0  0  0  0  0  0  0  0  0  0  0
   -0.2610   68.8010   68.5860 O   0  0  0  0  0  0  0  0  0  0  0  0
    1.6990   68.6430   64.1490 C   0  0  0  0  0  0  0  0  0  0  0  0
    3.0490   68.8510   63.5050 C   0  0  0  0  0  0  0  0  0  0  0  0
    3.2300   68.6480   62.1280 C   0  0  0  0  0  0  0  0  0  0  0  0
    4.4830   68.8310   61.5420 C   0  0  0  0  0  0  0  0  0  0  0  0
    5.5680   69.2280   62.3200 C   0  0  0  0  0  0  0  0  0  0  0  0
    5.4010   69.4500   63.6830 C   0  0  0  0  0  0  0  0  0  0  0  0
    4.1490   69.2680   64.2730 C   0  0  0  0  0  0  0  0  0  0  0  0
    0.2430   66.1450   69.9920 C   0  0  0  0  0  0  0  0  0  0  0  0
   -0.9180   66.5310   70.1560 O   0  0  0  0  0  0  0  0  0  0  0  0
    3.0300   61.6600   73.3320 C   0  0  0  0  0  0  0  0  0  0  0  0
    1.8340   62.3880   73.3020 C   0  0  0  0  0  0  0  0  0  0  0  0
    1.6300   63.2970   72.2760 C   0  0  0  0  0  0  0  0  0  0  0  0
    0.2030   64.3170   72.0420 S   0  0  0  0  0  0  0  0  0  0  0  0
    0.7080   64.7400   70.3360 C   0  0  2  0  0  0  0  0  0  0  0  0
    2.2350   64.5700   70.2860 C   0  0  0  0  0  0  0  0  0  0  0  0
    2.5870   63.5020   71.2820 C   0  0  0  0  0  0  0  0  0  0  0  0
    3.7870   62.7960   71.3070 C   0  0  0  0  0  0  0  0  0  0  0  0
    4.0120   61.8650   72.3290 C   0  0  0  0  0  0  0  0  0  0  0  0
    2.3260   60.3500   75.2070 C   0  0  0  0  0  0  0  0  0  0  0  0
    3.3440   60.7310   74.2930 O   0  0  0  0  0  0  0  0  0  0  0  0
    5.1530   61.1130   72.4500 O   0  0  0  0  0  0  0  0  0  0  0  0
    5.8680   60.7940   71.2660 C   0  0  0  0  0  0  0  0  0  0  0  0
    2.1564   66.5463   69.1410 H   0  0  0  0  0  0  0  0  0  0  0  0
    1.4438   67.8638   70.2082 H   0  0  0  0  0  0  0  0  0  0  0  0
    1.3231   69.6131   66.9531 H   0  0  0  0  0  0  0  0  0  0  0  0
    2.5550   69.1466   68.1906 H   0  0  0  0  0  0  0  0  0  0  0  0
    3.4037   68.5632   65.9990 H   0  0  0  0  0  0  0  0  0  0  0  0
    2.9839   67.0526   66.8809 H   0  0  0  0  0  0  0  0  0  0  0  0
   -0.3169   68.4307   65.7340 H   0  0  0  0  0  0  0  0  0  0  0  0
   -0.3841   66.7367   65.1147 H   0  0  0  0  0  0  0  0  0  0  0  0
   -0.9241   66.7550   67.4912 H   0  0  0  0  0  0  0  0  0  0  0  0
    0.6840   65.9664   67.2275 H   0  0  0  0  0  0  0  0  0  0  0  0
    2.3215   65.5321   65.5258 H   0  0  0  0  0  0  0  0  0  0  0  0
    1.2839   65.7798   64.0806 H   0  0  0  0  0  0  0  0  0  0  0  0
    2.9801   66.3712   64.0806 H   0  0  0  0  0  0  0  0  0  0  0  0
   -0.2996   68.8340   69.5747 H   0  0  0  0  0  0  0  0  0  0  0  0
    0.9912   68.3610   63.3556 H   0  0  0  0  0  0  0  0  0  0  0  0
    1.4697   69.5935   64.6529 H   0  0  0  0  0  0  0  0  0  0  0  0
    2.3765   68.3419   61.5053 H   0  0  0  0  0  0  0  0  0  0  0  0
    4.6143   68.6614   60.4631 H   0  0  0  0  0  0  0  0  0  0  0  0
    6.5562   69.3659   61.8569 H   0  0  0  0  0  0  0  0  0  0  0  0
    6.2563   69.7693   64.2965 H   0  0  0  0  0  0  0  0  0  0  0  0
    4.0225   69.4529   65.3499 H   0  0  0  0  0  0  0  0  0  0  0  0
    1.0698   62.2409   74.0794 H   0  0  0  0  0  0  0  0  0  0  0  0
    0.2471   64.0867   69.5805 H   0  0  0  0  0  0  0  0  0  0  0  0
    2.5490   64.2647   69.2769 H   0  0  0  0  0  0  0  0  0  0  0  0
    2.7448   65.5150   70.5247 H   0  0  0  0  0  0  0  0  0  0  0  0
    4.5495   62.9675   70.5330 H   0  0  0  0  0  0  0  0  0  0  0  0
    2.6883   60.4856   76.2367 H   0  0  0  0  0  0  0  0  0  0  0  0
    1.4358   60.9758   75.0461 H   0  0  0  0  0  0  0  0  0  0  0  0
    2.0654   59.2935   75.0461 H   0  0  0  0  0  0  0  0  0  0  0  0
    6.8427   60.3591   71.5322 H   0  0  0  0  0  0  0  0  0  0  0  0
    5.2918   60.0676   70.6741 H   0  0  0  0  0  0  0  0  0  0  0  0
    6.0236   61.7080   70.6741 H   0  0  0  0  0  0  0  0  0  0  0  0
  2  1  1  0
  3  2  1  0
  4  3  1  0
  5  4  1  0
  6  5  1  0
  7  6  1  0
  7  2  1  0
  5  8  1  6
  2  9  1  1
 10  5  1  0
 11 10  1  0
 12 11  2  0
 13 12  1  0
 14 13  2  0
 15 14  1  0
 16 15  2  0
 16 11  1  0
 17  1  1  0
 18 17  2  0
 20 19  2  0
 21 20  1  0
 22 21  1  0
 23 17  1  0
 23 22  1  0
 24 23  1  0
 25 24  1  0
 25 21  2  0
 26 25  1  0
 27 19  1  0
 27 26  2  0
 29 28  1  0
 29 19  1  0
 30 27  1  0
 31 30  1  0
  1 32  1  0
  1 33  1  0
  3 34  1  0
  3 35  1  0
  4 36  1  0
  4 37  1  0
  6 38  1  0
  6 39  1  0
  7 40  1  0
  7 41  1  0
  8 42  1  0
  8 43  1  0
  8 44  1  0
  9 45  1  0
 10 46  1  0
 10 47  1  0
 12 48  1  0
 13 49  1  0
 14 50  1  0
 15 51  1  0
 16 52  1  0
 20 53  1  0
 23 54  1  6
 24 55  1  0
 24 56  1  0
 26 57  1  0
 28 58  1  0
 28 59  1  0
 28 60  1  0
 31 61  1  0
 31 62  1  0
 31 63  1  0
M  CHG  1   5   1
M  END
>  <score>  (4) 
-8.414

$$$$
=
     RDKit          3D

 63 66  0  0  0  0  0  0  0  0999 V2000
    0.2730   56.7290   73.6890 C   0  0  0  0  0  0  0  0  0  0  0  0
    1.7770   57.0430   73.5000 C   0  0  1  0  0  0  0  0  0  0  0  0
    2.2150   57.6050   72.1330 C   0  0  0  0  0  0  0  0  0  0  0  0
    2.0940   59.1180   72.1040 C   0  0  0  0  0  0  0  0  0  0  0  0
    3.1250   59.7470   73.0780 N   0  0  2  0  0  4  0  0  0  0  0  0
    3.4530   58.7940   74.2500 C   0  0  0  0  0  0  0  0  0  0  0  0
    2.2240   57.9870   74.6440 C   0  0  0  0  0  0  0  0  0  0  0  0
    2.5360   61.0520   73.6170 C   0  0  0  0  0  0  0  0  0  0  0  0
    2.5160   55.8280   73.6900 O   0  0  0  0  0  0  0  0  0  0  0  0
    4.4240   60.0620   72.2790 C   0  0  0  0  0  0  0  0  0  0  0  0
    4.3160   61.1040   71.1910 C   0  0  0  0  0  0  0  0  0  0  0  0
    4.9370   62.3550   71.3280 C   0  0  0  0  0  0  0  0  0  0  0  0
    4.8240   63.3180   70.3240 C   0  0  0  0  0  0  0  0  0  0  0  0
    4.0980   63.0410   69.1680 C   0  0  0  0  0  0  0  0  0  0  0  0
    3.4920   61.7980   69.0100 C   0  0  0  0  0  0  0  0  0  0  0  0
    3.6030   60.8330   70.0120 C   0  0  0  0  0  0  0  0  0  0  0  0
   -0.1550   56.4710   75.1220 C   0  0  0  0  0  0  0  0  0  0  0  0
    0.4040   55.5690   75.7520 O   0  0  0  0  0  0  0  0  0  0  0  0
   -5.8010   59.1170   75.5220 C   0  0  0  0  0  0  0  0  0  0  0  0
   -5.1640   57.9020   75.8020 C   0  0  0  0  0  0  0  0  0  0  0  0
   -3.8000   57.7950   75.5810 C   0  0  0  0  0  0  0  0  0  0  0  0
   -2.7980   56.3640   75.8630 S   0  0  0  0  0  0  0  0  0  0  0  0
   -1.2570   57.3370   75.7090 C   0  0  2  0  0  0  0  0  0  0  0  0
   -1.6060   58.5580   74.8420 C   0  0  0  0  0  0  0  0  0  0  0  0
   -3.0560   58.8650   75.0860 C   0  0  0  0  0  0  0  0  0  0  0  0
   -3.6770   60.0750   74.7900 C   0  0  0  0  0  0  0  0  0  0  0  0
   -5.0540   60.2100   75.0130 C   0  0  0  0  0  0  0  0  0  0  0  0
   -7.6450   59.3430   77.0300 C   0  0  0  0  0  0  0  0  0  0  0  0
   -7.1430   59.3450   75.7020 O   0  0  0  0  0  0  0  0  0  0  0  0
   -5.7680   61.3550   74.7620 O   0  0  0  0  0  0  0  0  0  0  0  0
   -5.4990   62.4960   75.5620 C   0  0  0  0  0  0  0  0  0  0  0  0
   -0.3043   57.5851   73.3097 H   0  0  0  0  0  0  0  0  0  0  0  0
    0.0833   55.7952   73.1395 H   0  0  0  0  0  0  0  0  0  0  0  0
    3.2621   57.3240   71.9471 H   0  0  0  0  0  0  0  0  0  0  0  0
    1.5601   57.1856   71.3550 H   0  0  0  0  0  0  0  0  0  0  0  0
    2.2876   59.4802   71.0836 H   0  0  0  0  0  0  0  0  0  0  0  0
    1.0788   59.4069   72.4138 H   0  0  0  0  0  0  0  0  0  0  0  0
    4.2543   58.1058   73.9430 H   0  0  0  0  0  0  0  0  0  0  0  0
    3.7763   59.3928   75.1143 H   0  0  0  0  0  0  0  0  0  0  0  0
    2.4615   57.3844   75.5331 H   0  0  0  0  0  0  0  0  0  0  0  0
    1.4029   58.6878   74.8553 H   0  0  0  0  0  0  0  0  0  0  0  0
    2.5451   61.0317   74.7168 H   0  0  0  0  0  0  0  0  0  0  0  0
    3.1383   61.9008   73.2609 H   0  0  0  0  0  0  0  0  0  0  0  0
    1.5010   61.1618   73.2609 H   0  0  0  0  0  0  0  0  0  0  0  0
    2.6217   55.6541   74.6589 H   0  0  0  0  0  0  0  0  0  0  0  0
    5.1816   60.4079   72.9976 H   0  0  0  0  0  0  0  0  0  0  0  0
    4.6771   59.1264   71.7588 H   0  0  0  0  0  0  0  0  0  0  0  0
    5.5181   62.5787   72.2348 H   0  0  0  0  0  0  0  0  0  0  0  0
    5.3092   64.2976   70.4459 H   0  0  0  0  0  0  0  0  0  0  0  0
    4.0037   63.8037   68.3809 H   0  0  0  0  0  0  0  0  0  0  0  0
    2.9248   61.5760   68.0941 H   0  0  0  0  0  0  0  0  0  0  0  0
    3.1273   59.8504   69.8769 H   0  0  0  0  0  0  0  0  0  0  0  0
   -5.7364   57.0469   76.1908 H   0  0  0  0  0  0  0  0  0  0  0  0
   -0.8711   57.6820   76.6796 H   0  0  0  0  0  0  0  0  0  0  0  0
   -0.9834   59.4176   75.1308 H   0  0  0  0  0  0  0  0  0  0  0  0
   -1.4205   58.3516   73.7776 H   0  0  0  0  0  0  0  0  0  0  0  0
   -3.0938   60.9155   74.3858 H   0  0  0  0  0  0  0  0  0  0  0  0
   -6.8046   59.3463   77.7397 H   0  0  0  0  0  0  0  0  0  0  0  0
   -8.2633   60.2387   77.1896 H   0  0  0  0  0  0  0  0  0  0  0  0
   -8.2561   58.4424   77.1896 H   0  0  0  0  0  0  0  0  0  0  0  0
   -5.5636   62.2218   76.6253 H   0  0  0  0  0  0  0  0  0  0  0  0
   -4.4883   62.8692   75.3404 H   0  0  0  0  0  0  0  0  0  0  0  0
   -6.2366   63.2814   75.3404 H   0  0  0  0  0  0  0  0  0  0  0  0
  2  1  1  0
  3  2  1  0
  4  3  1  0
  5  4  1  0
  6  5  1  0
  7  6  1  0
  7  2  1  0
  5  8  1  1
  2  9  1  1
 10  5  1  0
 11 10  1  0
 12 11  2  0
 13 12  1  0
 14 13  2  0
 15 14  1  0
 16 15  2  0
 16 11  1  0
 17  1  1  0
 18 17  2  0
 20 19  2  0
 21 20  1  0
 22 21  1  0
 23 17  1  0
 23 22  1  0
 24 23  1  0
 25 24  1  0
 25 21  2  0
 26 25  1  0
 27 19  1  0
 27 26  2  0
 29 28  1  0
 29 19  1  0
 30 27  1  0
 31 30  1  0
  1 32  1  0
  1 33  1  0
  3 34  1  0
  3 35  1  0
  4 36  1  0
  4 37  1  0
  6 38  1  0
  6 39  1  0
  7 40  1  0
  7 41  1  0
  8 42  1  0
  8 43  1  0
  8 44  1  0
  9 45  1  0
 10 46  1  0
 10 47  1  0
 12 48  1  0
 13 49  1  0
 14 50  1  0
 15 51  1  0
 16 52  1  0
 20 53  1  0
 23 54  1  1
 24 55  1  0
 24 56  1  0
 26 57  1  0
 28 58  1  0
 28 59  1  0
 28 60  1  0
 31 61  1  0
 31 62  1  0
 31 63  1  0
M  CHG  1   5   1
M  END
>  <score>  (5) 
-8.007

$$$$
=
     RDKit          3D

 63 66  0  0  0  0  0  0  0  0999 V2000
    0.9170   60.5850   75.8590 C   0  0  0  0  0  0  0  0  0  0  0  0
    1.6130   60.9490   74.5250 C   0  0  1  0  0  0  0  0  0  0  0  0
    3.1080   60.5970   74.3890 C   0  0  0  0  0  0  0  0  0  0  0  0
    3.2870   59.1810   73.8740 C   0  0  0  0  0  0  0  0  0  0  0  0
    2.7810   59.0860   72.4100 N   0  0  2  0  0  4  0  0  0  0  0  0
    1.6640   60.1170   72.1290 C   0  0  0  0  0  0  0  0  0  0  0  0
    0.8000   60.3230   73.3650 C   0  0  0  0  0  0  0  0  0  0  0  0
    2.2520   57.6690   72.1810 C   0  0  0  0  0  0  0  0  0  0  0  0
    1.5170   62.3690   74.3420 O   0  0  0  0  0  0  0  0  0  0  0  0
    3.9860   59.3450   71.4570 C   0  0  0  0  0  0  0  0  0  0  0  0
    4.0340   60.6920   70.7770 C   0  0  0  0  0  0  0  0  0  0  0  0
    4.7970   61.7420   71.3110 C   0  0  0  0  0  0  0  0  0  0  0  0
    4.8280   62.9880   70.6830 C   0  0  0  0  0  0  0  0  0  0  0  0
    4.1080   63.1980   69.5090 C   0  0  0  0  0  0  0  0  0  0  0  0
    3.3620   62.1610   68.9570 C   0  0  0  0  0  0  0  0  0  0  0  0
    3.3280   60.9140   69.5830 C   0  0  0  0  0  0  0  0  0  0  0  0
   -0.0050   61.6540   76.4160 C   0  0  0  0  0  0  0  0  0  0  0  0
    0.4830   62.7330   76.7650 O   0  0  0  0  0  0  0  0  0  0  0  0
   -5.3740   58.7330   75.1210 C   0  0  0  0  0  0  0  0  0  0  0  0
   -4.2110   58.5520   75.8800 C   0  0  0  0  0  0  0  0  0  0  0  0
   -3.2610   59.5600   75.8970 C   0  0  0  0  0  0  0  0  0  0  0  0
   -1.7280   59.5460   76.7810 S   0  0  0  0  0  0  0  0  0  0  0  0
   -1.4880   61.3400   76.5180 C   0  0  2  0  0  0  0  0  0  0  0  0
   -2.2810   61.6970   75.2500 C   0  0  0  0  0  0  0  0  0  0  0  0
   -3.4370   60.7410   75.1750 C   0  0  0  0  0  0  0  0  0  0  0  0
   -4.5800   60.9280   74.4050 C   0  0  0  0  0  0  0  0  0  0  0  0
   -5.5600   59.9270   74.3790 C   0  0  0  0  0  0  0  0  0  0  0  0
   -7.1230   57.5090   76.2050 C   0  0  0  0  0  0  0  0  0  0  0  0
   -6.3870   57.8090   75.0280 O   0  0  0  0  0  0  0  0  0  0  0  0
   -6.7260   60.0060   73.6590 O   0  0  0  0  0  0  0  0  0  0  0  0
   -7.4340   61.2360   73.6740 C   0  0  0  0  0  0  0  0  0  0  0  0
    0.3230   59.6737   75.6960 H   0  0  0  0  0  0  0  0  0  0  0  0
    1.7206   60.4571   76.5992 H   0  0  0  0  0  0  0  0  0  0  0  0
    3.5804   61.2983   73.6855 H   0  0  0  0  0  0  0  0  0  0  0  0
    3.5780   60.6720   75.3807 H   0  0  0  0  0  0  0  0  0  0  0  0
    4.3528   58.9113   73.9102 H   0  0  0  0  0  0  0  0  0  0  0  0
    2.7080   58.4896   74.5039 H   0  0  0  0  0  0  0  0  0  0  0  0
    2.1210   61.0760   71.8437 H   0  0  0  0  0  0  0  0  0  0  0  0
    1.0304   59.7390   71.3131 H   0  0  0  0  0  0  0  0  0  0  0  0
   -0.0346   60.9929   73.1106 H   0  0  0  0  0  0  0  0  0  0  0  0
    0.4268   59.3419   73.6939 H   0  0  0  0  0  0  0  0  0  0  0  0
    2.0709   57.1839   73.1515 H   0  0  0  0  0  0  0  0  0  0  0  0
    1.3109   57.7162   71.6134 H   0  0  0  0  0  0  0  0  0  0  0  0
    2.9938   57.0880   71.6134 H   0  0  0  0  0  0  0  0  0  0  0  0
    1.4869   62.8143   75.2257 H   0  0  0  0  0  0  0  0  0  0  0  0
    4.9076   59.2365   72.0476 H   0  0  0  0  0  0  0  0  0  0  0  0
    3.8738   58.6136   70.6431 H   0  0  0  0  0  0  0  0  0  0  0  0
    5.3757   61.5815   72.2326 H   0  0  0  0  0  0  0  0  0  0  0  0
    5.4223   63.8061   71.1160 H   0  0  0  0  0  0  0  0  0  0  0  0
    4.1291   64.1825   69.0188 H   0  0  0  0  0  0  0  0  0  0  0  0
    2.7986   62.3242   68.0264 H   0  0  0  0  0  0  0  0  0  0  0  0
    2.7424   60.0967   69.1368 H   0  0  0  0  0  0  0  0  0  0  0  0
   -4.0547   57.6258   76.4525 H   0  0  0  0  0  0  0  0  0  0  0  0
   -1.8572   61.9480   77.3571 H   0  0  0  0  0  0  0  0  0  0  0  0
   -2.6492   62.7316   75.3128 H   0  0  0  0  0  0  0  0  0  0  0  0
   -1.6472   61.6196   74.3543 H   0  0  0  0  0  0  0  0  0  0  0  0
   -4.7132   61.8517   73.8228 H   0  0  0  0  0  0  0  0  0  0  0  0
   -6.5171   57.7560   77.0893 H   0  0  0  0  0  0  0  0  0  0  0  0
   -8.0500   58.1010   76.2187 H   0  0  0  0  0  0  0  0  0  0  0  0
   -7.3720   56.4376   76.2187 H   0  0  0  0  0  0  0  0  0  0  0  0
   -7.6114   61.5443   74.7149 H   0  0  0  0  0  0  0  0  0  0  0  0
   -6.8412   62.0066   73.1594 H   0  0  0  0  0  0  0  0  0  0  0  0
   -8.3980   61.1105   73.1594 H   0  0  0  0  0  0  0  0  0  0  0  0
  2  1  1  0
  3  2  1  0
  4  3  1  0
  5  4  1  0
  6  5  1  0
  7  6  1  0
  7  2  1  0
  5  8  1  6
  2  9  1  6
 10  5  1  0
 11 10  1  0
 12 11  2  0
 13 12  1  0
 14 13  2  0
 15 14  1  0
 16 15  2  0
 16 11  1  0
 17  1  1  0
 18 17  2  0
 20 19  2  0
 21 20  1  0
 22 21  1  0
 23 17  1  0
 23 22  1  0
 24 23  1  0
 25 24  1  0
 25 21  2  0
 26 25  1  0
 27 19  1  0
 27 26  2  0
 29 28  1  0
 29 19  1  0
 30 27  1  0
 31 30  1  0
  1 32  1  0
  1 33  1  0
  3 34  1  0
  3 35  1  0
  4 36  1  0
  4 37  1  0
  6 38  1  0
  6 39  1  0
  7 40  1  0
  7 41  1  0
  8 42  1  0
  8 43  1  0
  8 44  1  0
  9 45  1  0
 10 46  1  0
 10 47  1  0
 12 48  1  0
 13 49  1  0
 14 50  1  0
 15 51  1  0
 16 52  1  0
 20 53  1  0
 23 54  1  1
 24 55  1  0
 24 56  1  0
 26 57  1  0
 28 58  1  0
 28 59  1  0
 28 60  1  0
 31 61  1  0
 31 62  1  0
 31 63  1  0
M  CHG  1   5   1
M  END
>  <score>  (6) 
-7.814

$$$$
=
     RDKit          3D

 63 66  0  0  0  0  0  0  0  0999 V2000
    0.4520   60.7320   75.6740 C   0  0  0  0  0  0  0  0  0  0  0  0
    1.3230   61.1300   74.4580 C   0  0  1  0  0  0  0  0  0  0  0  0
    2.8300   60.8110   74.5360 C   0  0  0  0  0  0  0  0  0  0  0  0
    3.1140   59.4070   74.0350 C   0  0  0  0  0  0  0  0  0  0  0  0
    2.8250   59.3230   72.5130 N   0  0  2  0  0  4  0  0  0  0  0  0
    1.7370   60.3350   72.0860 C   0  0  0  0  0  0  0  0  0  0  0  0
    0.7000   60.5040   73.1870 C   0  0  0  0  0  0  0  0  0  0  0  0
    2.3670   57.8990   72.1930 C   0  0  0  0  0  0  0  0  0  0  0  0
    1.2230   62.5500   74.2800 O   0  0  0  0  0  0  0  0  0  0  0  0
    4.1480   59.6210   71.7460 C   0  0  0  0  0  0  0  0  0  0  0  0
    4.1740   60.8710   70.9000 C   0  0  0  0  0  0  0  0  0  0  0  0
    4.7790   62.0470   71.3700 C   0  0  0  0  0  0  0  0  0  0  0  0
    4.7900   63.2030   70.5870 C   0  0  0  0  0  0  0  0  0  0  0  0
    4.2070   63.1950   69.3220 C   0  0  0  0  0  0  0  0  0  0  0  0
    3.6200   62.0310   68.8340 C   0  0  0  0  0  0  0  0  0  0  0  0
    3.6070   60.8750   69.6150 C   0  0  0  0  0  0  0  0  0  0  0  0
   -0.8440   60.0200   75.3300 C   0  0  0  0  0  0  0  0  0  0  0  0
   -1.7650   60.6750   74.8340 O   0  0  0  0  0  0  0  0  0  0  0  0
    1.0570   54.0760   75.6390 C   0  0  0  0  0  0  0  0  0  0  0  0
    1.1660   55.2750   76.3540 C   0  0  0  0  0  0  0  0  0  0  0  0
    0.4840   56.3910   75.8960 C   0  0  0  0  0  0  0  0  0  0  0  0
    0.4780   57.9980   76.6370 S   0  0  0  0  0  0  0  0  0  0  0  0
   -0.9430   58.5310   75.6180 C   0  0  2  0  0  0  0  0  0  0  0  0
   -0.9160   57.6580   74.3530 C   0  0  0  0  0  0  0  0  0  0  0  0
   -0.3010   56.3440   74.7440 C   0  0  0  0  0  0  0  0  0  0  0  0
   -0.4070   55.1630   74.0150 C   0  0  0  0  0  0  0  0  0  0  0  0
    0.2660   54.0200   74.4630 C   0  0  0  0  0  0  0  0  0  0  0  0
    1.2430   52.2490   77.1740 C   0  0  0  0  0  0  0  0  0  0  0  0
    1.6820   52.9060   75.9940 O   0  0  0  0  0  0  0  0  0  0  0  0
    0.2300   52.8040   73.8270 O   0  0  0  0  0  0  0  0  0  0  0  0
   -0.9080   51.9790   74.0340 C   0  0  0  0  0  0  0  0  0  0  0  0
    1.0469   60.0661   76.3164 H   0  0  0  0  0  0  0  0  0  0  0  0
    0.1644   61.6724   76.1668 H   0  0  0  0  0  0  0  0  0  0  0  0
    3.3832   61.5328   73.9172 H   0  0  0  0  0  0  0  0  0  0  0  0
    3.1495   60.8802   75.5863 H   0  0  0  0  0  0  0  0  0  0  0  0
    4.1697   59.1598   74.2203 H   0  0  0  0  0  0  0  0  0  0  0  0
    2.4672   58.6940   74.5672 H   0  0  0  0  0  0  0  0  0  0  0  0
    2.2084   61.3075   71.8812 H   0  0  0  0  0  0  0  0  0  0  0  0
    1.2362   59.9568   71.1826 H   0  0  0  0  0  0  0  0  0  0  0  0
   -0.1050   61.1593   72.8230 H   0  0  0  0  0  0  0  0  0  0  0  0
    0.3065   59.5104   73.4476 H   0  0  0  0  0  0  0  0  0  0  0  0
    2.1908   57.3511   73.1304 H   0  0  0  0  0  0  0  0  0  0  0  0
    1.4354   57.9359   71.6092 H   0  0  0  0  0  0  0  0  0  0  0  0
    3.1454   57.3859   71.6092 H   0  0  0  0  0  0  0  0  0  0  0  0
    1.1919   62.9922   75.1652 H   0  0  0  0  0  0  0  0  0  0  0  0
    4.9532   59.7056   72.4906 H   0  0  0  0  0  0  0  0  0  0  0  0
    4.2645   58.7888   71.0361 H   0  0  0  0  0  0  0  0  0  0  0  0
    5.2489   62.0581   72.3645 H   0  0  0  0  0  0  0  0  0  0  0  0
    5.2597   64.1212   70.9696 H   0  0  0  0  0  0  0  0  0  0  0  0
    4.2105   64.1082   68.7088 H   0  0  0  0  0  0  0  0  0  0  0  0
    3.1661   62.0226   67.8320 H   0  0  0  0  0  0  0  0  0  0  0  0
    3.1477   59.9568   69.2201 H   0  0  0  0  0  0  0  0  0  0  0  0
    1.7823   55.3301   77.2635 H   0  0  0  0  0  0  0  0  0  0  0  0
   -1.9080   58.3961   76.1285 H   0  0  0  0  0  0  0  0  0  0  0  0
   -1.9387   57.5010   73.9796 H   0  0  0  0  0  0  0  0  0  0  0  0
   -0.3369   58.1416   73.5525 H   0  0  0  0  0  0  0  0  0  0  0  0
   -1.0126   55.1281   73.0974 H   0  0  0  0  0  0  0  0  0  0  0  0
    1.6084   52.7959   78.0557 H   0  0  0  0  0  0  0  0  0  0  0  0
    0.1435   52.2201   77.1901 H   0  0  0  0  0  0  0  0  0  0  0  0
    1.6371   51.2221   77.1901 H   0  0  0  0  0  0  0  0  0  0  0  0
   -1.0794   51.8548   75.1134 H   0  0  0  0  0  0  0  0  0  0  0  0
   -1.7900   52.4489   73.5744 H   0  0  0  0  0  0  0  0  0  0  0  0
   -0.7357   50.9946   73.5744 H   0  0  0  0  0  0  0  0  0  0  0  0
  2  1  1  0
  3  2  1  0
  4  3  1  0
  5  4  1  0
  6  5  1  0
  7  6  1  0
  7  2  1  0
  5  8  1  1
  2  9  1  6
 10  5  1  0
 11 10  1  0
 12 11  2  0
 13 12  1  0
 14 13  2  0
 15 14  1  0
 16 15  2  0
 16 11  1  0
 17  1  1  0
 18 17  2  0
 20 19  2  0
 21 20  1  0
 22 21  1  0
 23 17  1  0
 23 22  1  0
 24 23  1  0
 25 24  1  0
 25 21  2  0
 26 25  1  0
 27 19  1  0
 27 26  2  0
 29 28  1  0
 29 19  1  0
 30 27  1  0
 31 30  1  0
  1 32  1  0
  1 33  1  0
  3 34  1  0
  3 35  1  0
  4 36  1  0
  4 37  1  0
  6 38  1  0
  6 39  1  0
  7 40  1  0
  7 41  1  0
  8 42  1  0
  8 43  1  0
  8 44  1  0
  9 45  1  0
 10 46  1  0
 10 47  1  0
 12 48  1  0
 13 49  1  0
 14 50  1  0
 15 51  1  0
 16 52  1  0
 20 53  1  0
 23 54  1  1
 24 55  1  0
 24 56  1  0
 26 57  1  0
 28 58  1  0
 28 59  1  0
 28 60  1  0
 31 61  1  0
 31 62  1  0
 31 63  1  0
M  CHG  1   5   1
M  END
>  <score>  (7) 
-7.764

$$$$
=
     RDKit          3D

 63 66  0  0  0  0  0  0  0  0999 V2000
    3.0440   58.6020   74.2360 C   0  0  0  0  0  0  0  0  0  0  0  0
    2.7570   58.8890   72.7410 C   0  0  1  0  0  0  0  0  0  0  0  0
    1.8780   60.1120   72.4140 C   0  0  0  0  0  0  0  0  0  0  0  0
    2.7200   61.3700   72.2950 C   0  0  0  0  0  0  0  0  0  0  0  0
    3.6410   61.2700   71.0510 N   0  0  2  0  0  4  0  0  0  0  0  0
    3.9890   59.8000   70.7200 C   0  0  0  0  0  0  0  0  0  0  0  0
    4.1110   58.9780   71.9950 C   0  0  0  0  0  0  0  0  0  0  0  0
    4.9210   62.0550   71.3430 C   0  0  0  0  0  0  0  0  0  0  0  0
    2.0840   57.7500   72.1870 O   0  0  0  0  0  0  0  0  0  0  0  0
    2.9050   61.9200   69.8420 C   0  0  0  0  0  0  0  0  0  0  0  0
    2.0480   63.1270   70.1390 C   0  0  0  0  0  0  0  0  0  0  0  0
    0.6880   62.9850   70.4580 C   0  0  0  0  0  0  0  0  0  0  0  0
   -0.1000   64.1070   70.7210 C   0  0  0  0  0  0  0  0  0  0  0  0
    0.4600   65.3810   70.6780 C   0  0  0  0  0  0  0  0  0  0  0  0
    1.8110   65.5360   70.3820 C   0  0  0  0  0  0  0  0  0  0  0  0
    2.6020   64.4180   70.1180 C   0  0  0  0  0  0  0  0  0  0  0  0
    2.0530   57.6750   74.9140 C   0  0  0  0  0  0  0  0  0  0  0  0
    2.3050   56.4670   74.9540 O   0  0  0  0  0  0  0  0  0  0  0  0
   -3.2840   60.9220   75.0050 C   0  0  0  0  0  0  0  0  0  0  0  0
   -2.8040   59.6590   74.6380 C   0  0  0  0  0  0  0  0  0  0  0  0
   -1.4710   59.3580   74.8680 C   0  0  0  0  0  0  0  0  0  0  0  0
   -0.6560   57.8340   74.4880 S   0  0  0  0  0  0  0  0  0  0  0  0
    0.7930   58.2820   75.5090 C   0  0  2  0  0  0  0  0  0  0  0  0
    0.8200   59.8180   75.5650 C   0  0  0  0  0  0  0  0  0  0  0  0
   -0.6050   60.2820   75.4500 C   0  0  0  0  0  0  0  0  0  0  0  0
   -1.0640   61.5470   75.8070 C   0  0  0  0  0  0  0  0  0  0  0  0
   -2.4100   61.8720   75.5920 C   0  0  0  0  0  0  0  0  0  0  0  0
   -5.5200   60.3900   74.3370 C   0  0  0  0  0  0  0  0  0  0  0  0
   -4.5820   61.3350   74.8300 O   0  0  0  0  0  0  0  0  0  0  0  0
   -2.9710   63.0840   75.9080 O   0  0  0  0  0  0  0  0  0  0  0  0
   -2.1730   64.0220   76.6140 C   0  0  0  0  0  0  0  0  0  0  0  0
    4.0426   58.1467   74.3102 H   0  0  0  0  0  0  0  0  0  0  0  0
    2.9643   59.5687   74.7548 H   0  0  0  0  0  0  0  0  0  0  0  0
    1.3569   59.9363   71.4613 H   0  0  0  0  0  0  0  0  0  0  0  0
    1.1529   60.2510   73.2294 H   0  0  0  0  0  0  0  0  0  0  0  0
    2.0592   62.2432   72.1909 H   0  0  0  0  0  0  0  0  0  0  0  0
    3.3392   61.4793   73.1975 H   0  0  0  0  0  0  0  0  0  0  0  0
    3.1947   59.3736   70.0897 H   0  0  0  0  0  0  0  0  0  0  0  0
    4.9517   59.7746   70.1884 H   0  0  0  0  0  0  0  0  0  0  0  0
    4.4442   57.9623   71.7356 H   0  0  0  0  0  0  0  0  0  0  0  0
    4.8391   59.4705   72.6563 H   0  0  0  0  0  0  0  0  0  0  0  0
    5.0591   62.1397   72.4310 H   0  0  0  0  0  0  0  0  0  0  0  0
    5.7817   61.5293   70.9040 H   0  0  0  0  0  0  0  0  0  0  0  0
    4.8427   63.0605   70.9040 H   0  0  0  0  0  0  0  0  0  0  0  0
    1.7458   57.1776   72.9205 H   0  0  0  0  0  0  0  0  0  0  0  0
    3.6689   62.2252   69.1117 H   0  0  0  0  0  0  0  0  0  0  0  0
    2.2060   61.1509   69.4816 H   0  0  0  0  0  0  0  0  0  0  0  0
    0.2397   61.9814   70.5010 H   0  0  0  0  0  0  0  0  0  0  0  0
   -1.1660   63.9842   70.9628 H   0  0  0  0  0  0  0  0  0  0  0  0
   -0.1647   66.2641   70.8778 H   0  0  0  0  0  0  0  0  0  0  0  0
    2.2557   66.5418   70.3562 H   0  0  0  0  0  0  0  0  0  0  0  0
    3.6704   64.5483   69.8910 H   0  0  0  0  0  0  0  0  0  0  0  0
   -3.4732   58.9187   74.1753 H   0  0  0  0  0  0  0  0  0  0  0  0
    0.7324   57.8844   76.5328 H   0  0  0  0  0  0  0  0  0  0  0  0
    1.2520   60.1546   76.5190 H   0  0  0  0  0  0  0  0  0  0  0  0
    1.4365   60.2317   74.7533 H   0  0  0  0  0  0  0  0  0  0  0  0
   -0.3782   62.2826   76.2526 H   0  0  0  0  0  0  0  0  0  0  0  0
   -6.0159   59.8904   75.1823 H   0  0  0  0  0  0  0  0  0  0  0  0
   -6.2728   60.9065   73.7234 H   0  0  0  0  0  0  0  0  0  0  0  0
   -4.9980   59.6410   73.7234 H   0  0  0  0  0  0  0  0  0  0  0  0
   -2.3011   63.8714   77.6961 H   0  0  0  0  0  0  0  0  0  0  0  0
   -1.1157   63.8787   76.3465 H   0  0  0  0  0  0  0  0  0  0  0  0
   -2.4838   65.0427   76.3465 H   0  0  0  0  0  0  0  0  0  0  0  0
  2  1  1  0
  3  2  1  0
  4  3  1  0
  5  4  1  0
  6  5  1  0
  7  6  1  0
  7  2  1  0
  5  8  1  1
  2  9  1  6
 10  5  1  0
 11 10  1  0
 12 11  2  0
 13 12  1  0
 14 13  2  0
 15 14  1  0
 16 15  2  0
 16 11  1  0
 17  1  1  0
 18 17  2  0
 20 19  2  0
 21 20  1  0
 22 21  1  0
 23 17  1  0
 23 22  1  0
 24 23  1  0
 25 24  1  0
 25 21  2  0
 26 25  1  0
 27 19  1  0
 27 26  2  0
 29 28  1  0
 29 19  1  0
 30 27  1  0
 31 30  1  0
  1 32  1  0
  1 33  1  0
  3 34  1  0
  3 35  1  0
  4 36  1  0
  4 37  1  0
  6 38  1  0
  6 39  1  0
  7 40  1  0
  7 41  1  0
  8 42  1  0
  8 43  1  0
  8 44  1  0
  9 45  1  0
 10 46  1  0
 10 47  1  0
 12 48  1  0
 13 49  1  0
 14 50  1  0
 15 51  1  0
 16 52  1  0
 20 53  1  0
 23 54  1  1
 24 55  1  0
 24 56  1  0
 26 57  1  0
 28 58  1  0
 28 59  1  0
 28 60  1  0
 31 61  1  0
 31 62  1  0
 31 63  1  0
M  CHG  1   5   1
M  END
>  <score>  (8) 
-7.645

$$$$
=
     RDKit          3D

 63 66  0  0  0  0  0  0  0  0999 V2000
   -1.6660   59.5880   74.3280 C   0  0  0  0  0  0  0  0  0  0  0  0
   -2.8200   59.8910   75.3150 C   0  0  1  0  0  0  0  0  0  0  0  0
   -3.8380   60.9720   74.9000 C   0  0  0  0  0  0  0  0  0  0  0  0
   -4.9600   60.3720   74.0720 C   0  0  0  0  0  0  0  0  0  0  0  0
   -5.8130   59.4210   74.9530 N   0  0  2  0  0  4  0  0  0  0  0  0
   -4.9750   58.8030   76.0960 C   0  0  0  0  0  0  0  0  0  0  0  0
   -3.5430   58.5600   75.6400 C   0  0  0  0  0  0  0  0  0  0  0  0
   -6.3680   58.3130   74.0570 C   0  0  0  0  0  0  0  0  0  0  0  0
   -2.2470   60.3330   76.5530 O   0  0  0  0  0  0  0  0  0  0  0  0
   -6.9950   60.2380   75.5520 C   0  0  0  0  0  0  0  0  0  0  0  0
   -7.4480   61.4490   74.7720 C   0  0  0  0  0  0  0  0  0  0  0  0
   -8.2200   61.3090   73.6080 C   0  0  0  0  0  0  0  0  0  0  0  0
   -8.6260   62.4320   72.8850 C   0  0  0  0  0  0  0  0  0  0  0  0
   -8.2740   63.7080   73.3190 C   0  0  0  0  0  0  0  0  0  0  0  0
   -7.5230   63.8630   74.4810 C   0  0  0  0  0  0  0  0  0  0  0  0
   -7.1160   62.7430   75.2060 C   0  0  0  0  0  0  0  0  0  0  0  0
   -0.2710   59.8050   74.8850 C   0  0  0  0  0  0  0  0  0  0  0  0
    0.1010   59.1110   75.8350 O   0  0  0  0  0  0  0  0  0  0  0  0
    1.3230   64.2280   70.7700 C   0  0  0  0  0  0  0  0  0  0  0  0
    0.5420   64.0660   71.9210 C   0  0  0  0  0  0  0  0  0  0  0  0
    0.5400   62.8360   72.5590 C   0  0  0  0  0  0  0  0  0  0  0  0
   -0.3660   62.4100   74.0180 S   0  0  0  0  0  0  0  0  0  0  0  0
    0.5990   60.8740   74.2440 C   0  0  2  0  0  0  0  0  0  0  0  0
    1.1220   60.4870   72.8520 C   0  0  0  0  0  0  0  0  0  0  0  0
    1.2920   61.7640   72.0790 C   0  0  0  0  0  0  0  0  0  0  0  0
    2.0610   61.9060   70.9290 C   0  0  0  0  0  0  0  0  0  0  0  0
    2.0860   63.1430   70.2710 C   0  0  0  0  0  0  0  0  0  0  0  0
    0.2550   66.2230   69.9880 C   0  0  0  0  0  0  0  0  0  0  0  0
    1.4090   65.3970   70.0540 O   0  0  0  0  0  0  0  0  0  0  0  0
    2.8110   63.3970   69.1330 O   0  0  0  0  0  0  0  0  0  0  0  0
    3.7000   62.3910   68.6720 C   0  0  0  0  0  0  0  0  0  0  0  0
   -1.7497   58.5359   74.0181 H   0  0  0  0  0  0  0  0  0  0  0  0
   -1.7786   60.2990   73.4963 H   0  0  0  0  0  0  0  0  0  0  0  0
   -4.2640   61.4313   75.8042 H   0  0  0  0  0  0  0  0  0  0  0  0
   -3.3190   61.7279   74.2923 H   0  0  0  0  0  0  0  0  0  0  0  0
   -5.5979   61.1789   73.6822 H   0  0  0  0  0  0  0  0  0  0  0  0
   -4.5293   59.8028   73.2350 H   0  0  0  0  0  0  0  0  0  0  0  0
   -4.9693   59.4921   76.9534 H   0  0  0  0  0  0  0  0  0  0  0  0
   -5.4234   57.8407   76.3840 H   0  0  0  0  0  0  0  0  0  0  0  0
   -2.9954   58.0415   76.4408 H   0  0  0  0  0  0  0  0  0  0  0  0
   -3.5696   57.9483   74.7262 H   0  0  0  0  0  0  0  0  0  0  0  0
   -6.7732   57.5040   74.6826 H   0  0  0  0  0  0  0  0  0  0  0  0
   -7.1680   58.7212   73.4219 H   0  0  0  0  0  0  0  0  0  0  0  0
   -5.5620   57.9167   73.4219 H   0  0  0  0  0  0  0  0  0  0  0  0
   -2.7532   59.9425   77.3089 H   0  0  0  0  0  0  0  0  0  0  0  0
   -7.8561   59.5597   75.6437 H   0  0  0  0  0  0  0  0  0  0  0  0
   -6.6176   60.6341   76.5063 H   0  0  0  0  0  0  0  0  0  0  0  0
   -8.5077   60.3051   73.2624 H   0  0  0  0  0  0  0  0  0  0  0  0
   -9.2251   62.3090   71.9707 H   0  0  0  0  0  0  0  0  0  0  0  0
   -8.5889   64.5917   72.7446 H   0  0  0  0  0  0  0  0  0  0  0  0
   -7.2501   64.8705   74.8280 H   0  0  0  0  0  0  0  0  0  0  0  0
   -6.5291   62.8745   76.1270 H   0  0  0  0  0  0  0  0  0  0  0  0
   -0.0591   64.9003   72.3116 H   0  0  0  0  0  0  0  0  0  0  0  0
    1.4521   61.0030   74.9264 H   0  0  0  0  0  0  0  0  0  0  0  0
    2.0876   59.9677   72.9416 H   0  0  0  0  0  0  0  0  0  0  0  0
    0.4214   59.8088   72.3428 H   0  0  0  0  0  0  0  0  0  0  0  0
    2.6429   61.0572   70.5404 H   0  0  0  0  0  0  0  0  0  0  0  0
   -0.0820   66.4642   71.0069 H   0  0  0  0  0  0  0  0  0  0  0  0
    0.4995   67.1525   69.4530 H   0  0  0  0  0  0  0  0  0  0  0  0
   -0.5460   65.6918   69.4530 H   0  0  0  0  0  0  0  0  0  0  0  0
    4.1527   61.8788   69.5338 H   0  0  0  0  0  0  0  0  0  0  0  0
    3.1451   61.6626   68.0625 H   0  0  0  0  0  0  0  0  0  0  0  0
    4.4911   62.8521   68.0625 H   0  0  0  0  0  0  0  0  0  0  0  0
  2  1  1  0
  3  2  1  0
  4  3  1  0
  5  4  1  0
  6  5  1  0
  7  6  1  0
  7  2  1  0
  5  8  1  6
  2  9  1  1
 10  5  1  0
 11 10  1  0
 12 11  2  0
 13 12  1  0
 14 13  2  0
 15 14  1  0
 16 15  2  0
 16 11  1  0
 17  1  1  0
 18 17  2  0
 20 19  2  0
 21 20  1  0
 22 21  1  0
 23 17  1  0
 23 22  1  0
 24 23  1  0
 25 24  1  0
 25 21  2  0
 26 25  1  0
 27 19  1  0
 27 26  2  0
 29 28  1  0
 29 19  1  0
 30 27  1  0
 31 30  1  0
  1 32  1  0
  1 33  1  0
  3 34  1  0
  3 35  1  0
  4 36  1  0
  4 37  1  0
  6 38  1  0
  6 39  1  0
  7 40  1  0
  7 41  1  0
  8 42  1  0
  8 43  1  0
  8 44  1  0
  9 45  1  0
 10 46  1  0
 10 47  1  0
 12 48  1  0
 13 49  1  0
 14 50  1  0
 15 51  1  0
 16 52  1  0
 20 53  1  0
 23 54  1  1
 24 55  1  0
 24 56  1  0
 26 57  1  0
 28 58  1  0
 28 59  1  0
 28 60  1  0
 31 61  1  0
 31 62  1  0
 31 63  1  0
M  CHG  1   5   1
M  END
>  <score>  (9) 
-7.54

$$$$
