=
     RDKit          3D

 33 33  0  0  0  0  0  0  0  0999 V2000
   -0.7440   67.3540   67.4360 C   0  0  1  0  0  0  0  0  0  0  0  0
   -0.3460   66.6230   66.2630 O   0  0  0  0  0  0  0  0  0  0  0  0
    0.9760   66.9700   65.8580 C   0  0  2  0  0  0  0  0  0  0  0  0
    0.9480   68.3900   65.2160 C   0  0  1  0  0  0  0  0  0  0  0  0
   -0.1840   69.2470   65.8370 C   0  0  2  0  0  0  0  0  0  0  0  0
   -0.4310   68.8650   67.3050 C   0  0  2  0  0  0  0  0  0  0  0  0
    2.2510   69.0580   65.3230 N   0  0  0  0  0  0  0  0  0  0  0  0
    3.2160   68.9130   64.3620 C   0  0  0  0  0  0  0  0  0  0  0  0
    2.9590   68.2880   63.3290 O   0  0  0  0  0  0  0  0  0  0  0  0
    4.4500   69.5040   64.6000 N   0  0  0  0  0  0  0  0  0  0  0  0
    5.4860   69.4050   63.5900 C   0  0  0  0  0  0  0  0  0  0  0  0
    4.8900   70.1440   65.8840 N   0  0  0  0  0  0  0  0  0  0  0  0
    4.5130   69.5800   66.9140 O   0  0  0  0  0  0  0  0  0  0  0  0
    1.4390   65.9870   64.9400 O   0  0  0  0  0  0  0  0  0  0  0  0
    0.7680   69.1570   68.0450 O   0  0  0  0  0  0  0  0  0  0  0  0
   -1.3930   69.1260   65.0770 O   0  0  0  0  0  0  0  0  0  0  0  0
   -2.2410   67.0980   67.6530 C   0  0  0  0  0  0  0  0  0  0  0  0
   -3.0150   68.2530   67.3520 O   0  0  0  0  0  0  0  0  0  0  0  0
   -0.1719   67.0079   68.3095 H   0  0  0  0  0  0  0  0  0  0  0  0
    1.6639   66.9960   66.7160 H   0  0  0  0  0  0  0  0  0  0  0  0
    0.7360   68.2725   64.1430 H   0  0  0  0  0  0  0  0  0  0  0  0
    0.1407   70.2976   65.8083 H   0  0  0  0  0  0  0  0  0  0  0  0
   -1.2898   69.4335   67.6914 H   0  0  0  0  0  0  0  0  0  0  0  0
    2.4445   69.6513   66.1424 H   0  0  0  0  0  0  0  0  0  0  0  0
    6.4669   69.3113   64.0789 H   0  0  0  0  0  0  0  0  0  0  0  0
    5.3030   68.5203   62.9625 H   0  0  0  0  0  0  0  0  0  0  0  0
    5.4739   70.3084   62.9625 H   0  0  0  0  0  0  0  0  0  0  0  0
    1.8031   65.2140   65.4400 H   0  0  0  0  0  0  0  0  0  0  0  0
    0.5766   69.1104   69.0152 H   0  0  0  0  0  0  0  0  0  0  0  0
   -2.1639   69.0488   65.6933 H   0  0  0  0  0  0  0  0  0  0  0  0
   -2.5611   66.2727   67.0000 H   0  0  0  0  0  0  0  0  0  0  0  0
   -2.3983   66.8425   68.7113 H   0  0  0  0  0  0  0  0  0  0  0  0
   -3.3045   68.6850   68.1944 H   0  0  0  0  0  0  0  0  0  0  0  0
  2  1  1  0
  3  2  1  0
  4  3  1  0
  5  4  1  0
  6  5  1  0
  6  1  1  0
  7  4  1  0
  8  7  1  0
  9  8  2  0
 10  8  1  0
 11 10  1  0
 12 10  1  0
 13 12  2  0
 14  3  1  0
 15  6  1  0
 16  5  1  0
 17  1  1  0
 18 17  1  0
  1 19  1  1
  3 20  1  1
  4 21  1  6
  5 22  1  1
  6 23  1  1
  7 24  1  0
 11 25  1  0
 11 26  1  0
 11 27  1  0
 14 28  1  0
 15 29  1  0
 16 30  1  0
 17 31  1  0
 17 32  1  0
 18 33  1  0
M  END
>  <score>  (1) 
-7.414

$$$$
=
     RDKit          3D

 33 33  0  0  0  0  0  0  0  0999 V2000
    3.8220   67.3710   62.7540 C   0  0  1  0  0  0  0  0  0  0  0  0
    3.8950   66.5720   63.9470 O   0  0  0  0  0  0  0  0  0  0  0  0
    2.6480   66.5520   64.6370 C   0  0  2  0  0  0  0  0  0  0  0  0
    2.4340   67.9330   65.3280 C   0  0  1  0  0  0  0  0  0  0  0  0
    3.1350   69.0580   64.5250 C   0  0  2  0  0  0  0  0  0  0  0  0
    3.1530   68.7420   63.0220 C   0  0  2  0  0  0  0  0  0  0  0  0
    1.0090   68.2220   65.5300 N   0  0  0  0  0  0  0  0  0  0  0  0
    0.2790   67.5970   66.5060 C   0  0  0  0  0  0  0  0  0  0  0  0
    0.8450   66.8460   67.3050 O   0  0  0  0  0  0  0  0  0  0  0  0
   -1.0830   67.8640   66.5550 N   0  0  0  0  0  0  0  0  0  0  0  0
   -1.8850   67.2520   67.5970 C   0  0  0  0  0  0  0  0  0  0  0  0
   -1.8700   68.6360   65.5370 N   0  0  0  0  0  0  0  0  0  0  0  0
   -1.4230   68.6090   64.3880 O   0  0  0  0  0  0  0  0  0  0  0  0
    2.6730   65.4900   65.5830 O   0  0  0  0  0  0  0  0  0  0  0  0
    1.7890   68.6910   62.5650 O   0  0  0  0  0  0  0  0  0  0  0  0
    4.4670   69.2760   65.0070 O   0  0  0  0  0  0  0  0  0  0  0  0
    5.2490   67.5280   62.2150 C   0  0  0  0  0  0  0  0  0  0  0  0
    5.5830   68.8980   62.0180 O   0  0  0  0  0  0  0  0  0  0  0  0
    3.1893   66.8738   62.0040 H   0  0  0  0  0  0  0  0  0  0  0  0
    1.8103   66.3820   63.9446 H   0  0  0  0  0  0  0  0  0  0  0  0
    2.8955   67.8883   66.3255 H   0  0  0  0  0  0  0  0  0  0  0  0
    2.5559   69.9816   64.6720 H   0  0  0  0  0  0  0  0  0  0  0  0
    3.7254   69.5178   62.4924 H   0  0  0  0  0  0  0  0  0  0  0  0
    0.5461   68.9127   64.9220 H   0  0  0  0  0  0  0  0  0  0  0  0
   -1.4954   67.5493   68.5818 H   0  0  0  0  0  0  0  0  0  0  0  0
   -2.9288   67.5853   67.4997 H   0  0  0  0  0  0  0  0  0  0  0  0
   -1.8391   66.1573   67.4997 H   0  0  0  0  0  0  0  0  0  0  0  0
    2.6642   65.8642   66.4995 H   0  0  0  0  0  0  0  0  0  0  0  0
    1.1802   68.6682   63.3453 H   0  0  0  0  0  0  0  0  0  0  0  0
    4.4639   69.2755   65.9970 H   0  0  0  0  0  0  0  0  0  0  0  0
    5.9540   67.0880   62.9356 H   0  0  0  0  0  0  0  0  0  0  0  0
    5.3106   67.0140   61.2444 H   0  0  0  0  0  0  0  0  0  0  0  0
    5.6910   69.3410   62.8967 H   0  0  0  0  0  0  0  0  0  0  0  0
  2  1  1  0
  3  2  1  0
  4  3  1  0
  5  4  1  0
  6  5  1  0
  6  1  1  0
  7  4  1  0
  8  7  1  0
  9  8  2  0
 10  8  1  0
 11 10  1  0
 12 10  1  0
 13 12  2  0
 14  3  1  0
 15  6  1  0
 16  5  1  0
 17  1  1  0
 18 17  1  0
  1 19  1  6
  3 20  1  6
  4 21  1  1
  5 22  1  6
  6 23  1  6
  7 24  1  0
 11 25  1  0
 11 26  1  0
 11 27  1  0
 14 28  1  0
 15 29  1  0
 16 30  1  0
 17 31  1  0
 17 32  1  0
 18 33  1  0
M  END
>  <score>  (2) 
-6.749

$$$$
=
     RDKit          3D

 33 33  0  0  0  0  0  0  0  0999 V2000
   -1.7050   68.1520   67.5890 C   0  0  1  0  0  0  0  0  0  0  0  0
   -0.7900   67.0540   67.7520 O   0  0  0  0  0  0  0  0  0  0  0  0
    0.4930   67.5040   68.1800 C   0  0  2  0  0  0  0  0  0  0  0  0
    1.2100   68.1930   66.9800 C   0  0  1  0  0  0  0  0  0  0  0  0
    0.1740   68.8330   66.0210 C   0  0  2  0  0  0  0  0  0  0  0  0
   -1.0700   69.3130   66.7840 C   0  0  2  0  0  0  0  0  0  0  0  0
    2.2040   69.1740   67.4330 N   0  0  0  0  0  0  0  0  0  0  0  0
    3.4410   69.2660   66.8540 C   0  0  0  0  0  0  0  0  0  0  0  0
    3.7030   68.5810   65.8610 O   0  0  0  0  0  0  0  0  0  0  0  0
    4.3460   70.1560   67.4160 N   0  0  0  0  0  0  0  0  0  0  0  0
    5.6540   70.3110   66.8100 C   0  0  0  0  0  0  0  0  0  0  0  0
    4.1640   70.9060   68.7040 N   0  0  0  0  0  0  0  0  0  0  0  0
    3.8780   70.2160   69.6850 O   0  0  0  0  0  0  0  0  0  0  0  0
    1.2270   66.3840   68.6580 O   0  0  0  0  0  0  0  0  0  0  0  0
   -0.6560   70.3430   67.7000 O   0  0  0  0  0  0  0  0  0  0  0  0
   -0.1960   67.9180   64.9830 O   0  0  0  0  0  0  0  0  0  0  0  0
   -2.9650   67.6060   66.9070 C   0  0  0  0  0  0  0  0  0  0  0  0
   -3.8600   68.6550   66.5510 O   0  0  0  0  0  0  0  0  0  0  0  0
   -1.9633   68.5781   68.5697 H   0  0  0  0  0  0  0  0  0  0  0  0
    0.4084   68.2381   68.9948 H   0  0  0  0  0  0  0  0  0  0  0  0
    1.7572   67.4185   66.4226 H   0  0  0  0  0  0  0  0  0  0  0  0
    0.6484   69.7105   65.5573 H   0  0  0  0  0  0  0  0  0  0  0  0
   -1.8160   69.6888   66.0683 H   0  0  0  0  0  0  0  0  0  0  0  0
    1.9642   69.8099   68.2070 H   0  0  0  0  0  0  0  0  0  0  0  0
    6.4152   70.4012   67.5989 H   0  0  0  0  0  0  0  0  0  0  0  0
    5.8753   69.4328   66.1857 H   0  0  0  0  0  0  0  0  0  0  0  0
    5.6639   71.2166   66.1857 H   0  0  0  0  0  0  0  0  0  0  0  0
    1.2254   66.3865   69.6480 H   0  0  0  0  0  0  0  0  0  0  0  0
   -0.7826   70.0280   68.6300 H   0  0  0  0  0  0  0  0  0  0  0  0
   -0.5348   67.0801   65.3870 H   0  0  0  0  0  0  0  0  0  0  0  0
   -2.6720   67.0616   65.9972 H   0  0  0  0  0  0  0  0  0  0  0  0
   -3.4789   66.9378   67.6137 H   0  0  0  0  0  0  0  0  0  0  0  0
   -4.2188   69.0756   67.3723 H   0  0  0  0  0  0  0  0  0  0  0  0
  2  1  1  0
  3  2  1  0
  4  3  1  0
  5  4  1  0
  6  5  1  0
  6  1  1  0
  7  4  1  0
  8  7  1  0
  9  8  2  0
 10  8  1  0
 11 10  1  0
 12 10  1  0
 13 12  2  0
 14  3  1  0
 15  6  1  0
 16  5  1  0
 17  1  1  0
 18 17  1  0
  1 19  1  1
  3 20  1  1
  4 21  1  6
  5 22  1  6
  6 23  1  6
  7 24  1  0
 11 25  1  0
 11 26  1  0
 11 27  1  0
 14 28  1  0
 15 29  1  0
 16 30  1  0
 17 31  1  0
 17 32  1  0
 18 33  1  0
M  END
>  <score>  (3) 
-6.558

$$$$
=
     RDKit          3D

 33 33  0  0  0  0  0  0  0  0999 V2000
   -1.0160   68.1630   66.6220 C   0  0  1  0  0  0  0  0  0  0  0  0
   -0.6640   69.0570   67.6930 O   0  0  0  0  0  0  0  0  0  0  0  0
    0.6100   69.6580   67.4710 C   0  0  2  0  0  0  0  0  0  0  0  0
    1.7190   68.5920   67.7200 C   0  0  1  0  0  0  0  0  0  0  0  0
    1.1930   67.1720   67.3910 C   0  0  2  0  0  0  0  0  0  0  0  0
    0.1510   67.2100   66.2630 C   0  0  2  0  0  0  0  0  0  0  0  0
    2.9440   68.9010   66.9720 N   0  0  0  0  0  0  0  0  0  0  0  0
    3.9150   69.7170   67.4870 C   0  0  0  0  0  0  0  0  0  0  0  0
    3.8160   70.1290   68.6460 O   0  0  0  0  0  0  0  0  0  0  0  0
    4.9910   70.0290   66.6650 N   0  0  0  0  0  0  0  0  0  0  0  0
    6.0590   70.8600   67.1850 C   0  0  0  0  0  0  0  0  0  0  0  0
    5.1120   69.7000   65.2060 N   0  0  0  0  0  0  0  0  0  0  0  0
    4.0450   69.5760   64.5990 O   0  0  0  0  0  0  0  0  0  0  0  0
    0.7420   70.7690   68.3500 O   0  0  0  0  0  0  0  0  0  0  0  0
    0.8040   67.7000   65.0760 O   0  0  0  0  0  0  0  0  0  0  0  0
    0.6450   66.5460   68.5580 O   0  0  0  0  0  0  0  0  0  0  0  0
   -2.2680   67.3930   67.0560 C   0  0  0  0  0  0  0  0  0  0  0  0
   -3.3540   68.2750   67.3240 O   0  0  0  0  0  0  0  0  0  0  0  0
   -1.2246   68.7346   65.7056 H   0  0  0  0  0  0  0  0  0  0  0  0
    0.7086   70.0180   66.4363 H   0  0  0  0  0  0  0  0  0  0  0  0
    1.9816   68.6184   68.7879 H   0  0  0  0  0  0  0  0  0  0  0  0
    2.0486   66.5738   67.0443 H   0  0  0  0  0  0  0  0  0  0  0  0
   -0.2590   66.2010   66.1089 H   0  0  0  0  0  0  0  0  0  0  0  0
    3.0762   68.4932   66.0354 H   0  0  0  0  0  0  0  0  0  0  0  0
    6.0355   70.8417   68.2846 H   0  0  0  0  0  0  0  0  0  0  0  0
    7.0275   70.4756   66.8325 H   0  0  0  0  0  0  0  0  0  0  0  0
    5.9244   71.8933   66.8325 H   0  0  0  0  0  0  0  0  0  0  0  0
    0.7046   70.4541   69.2878 H   0  0  0  0  0  0  0  0  0  0  0  0
    1.5687   68.2738   65.3330 H   0  0  0  0  0  0  0  0  0  0  0  0
    1.0194   66.9737   69.3685 H   0  0  0  0  0  0  0  0  0  0  0  0
   -2.5591   66.7009   66.2521 H   0  0  0  0  0  0  0  0  0  0  0  0
   -2.0332   66.8426   67.9790 H   0  0  0  0  0  0  0  0  0  0  0  0
   -3.4693   68.3686   68.3028 H   0  0  0  0  0  0  0  0  0  0  0  0
  2  1  1  0
  3  2  1  0
  4  3  1  0
  5  4  1  0
  6  5  1  0
  6  1  1  0
  7  4  1  0
  8  7  1  0
  9  8  2  0
 10  8  1  0
 11 10  1  0
 12 10  1  0
 13 12  2  0
 14  3  1  0
 15  6  1  0
 16  5  1  0
 17  1  1  0
 18 17  1  0
  1 19  1  6
  3 20  1  6
  4 21  1  1
  5 22  1  6
  6 23  1  6
  7 24  1  0
 11 25  1  0
 11 26  1  0
 11 27  1  0
 14 28  1  0
 15 29  1  0
 16 30  1  0
 17 31  1  0
 17 32  1  0
 18 33  1  0
M  END
>  <score>  (4) 
-6.528

$$$$
=
     RDKit          3D

 33 33  0  0  0  0  0  0  0  0999 V2000
   -0.9280   67.1350   67.0260 C   0  0  1  0  0  0  0  0  0  0  0  0
   -1.0950   67.9970   65.8870 O   0  0  0  0  0  0  0  0  0  0  0  0
    0.1450   68.2280   65.2230 C   0  0  2  0  0  0  0  0  0  0  0  0
    1.0060   69.1980   66.0890 C   0  0  1  0  0  0  0  0  0  0  0  0
    0.6720   69.0260   67.5920 C   0  0  2  0  0  0  0  0  0  0  0  0
    0.2630   67.5790   67.9110 C   0  0  2  0  0  0  0  0  0  0  0  0
    2.4400   69.0250   65.8300 N   0  0  0  0  0  0  0  0  0  0  0  0
    3.3900   69.5510   66.6640 C   0  0  0  0  0  0  0  0  0  0  0  0
    3.0440   70.1010   67.7140 O   0  0  0  0  0  0  0  0  0  0  0  0
    4.7190   69.4190   66.2840 N   0  0  0  0  0  0  0  0  0  0  0  0
    5.7570   69.9300   67.1580 C   0  0  0  0  0  0  0  0  0  0  0  0
    5.2130   68.9070   64.9630 N   0  0  0  0  0  0  0  0  0  0  0  0
    4.8730   69.5650   63.9770 O   0  0  0  0  0  0  0  0  0  0  0  0
   -0.1270   68.7730   63.9370 O   0  0  0  0  0  0  0  0  0  0  0  0
    1.3910   66.7300   67.6330 O   0  0  0  0  0  0  0  0  0  0  0  0
   -0.3560   69.9380   67.9960 O   0  0  0  0  0  0  0  0  0  0  0  0
   -2.2490   67.1380   67.8040 C   0  0  0  0  0  0  0  0  0  0  0  0
   -3.1550   68.1070   67.2880 O   0  0  0  0  0  0  0  0  0  0  0  0
   -0.6878   66.1135   66.6960 H   0  0  0  0  0  0  0  0  0  0  0  0
    0.7096   67.2930   65.0928 H   0  0  0  0  0  0  0  0  0  0  0  0
    0.7522   70.2286   65.8003 H   0  0  0  0  0  0  0  0  0  0  0  0
    1.5839   69.2559   68.1625 H   0  0  0  0  0  0  0  0  0  0  0  0
   -0.0419   67.5089   68.9656 H   0  0  0  0  0  0  0  0  0  0  0  0
    2.7395   68.4943   64.9996 H   0  0  0  0  0  0  0  0  0  0  0  0
    5.4586   69.7831   68.2065 H   0  0  0  0  0  0  0  0  0  0  0  0
    6.6966   69.3915   66.9653 H   0  0  0  0  0  0  0  0  0  0  0  0
    5.9032   71.0031   66.9653 H   0  0  0  0  0  0  0  0  0  0  0  0
   -0.5668   69.6542   64.0383 H   0  0  0  0  0  0  0  0  0  0  0  0
    1.7938   66.4268   68.4850 H   0  0  0  0  0  0  0  0  0  0  0  0
   -0.3959   69.9734   68.9846 H   0  0  0  0  0  0  0  0  0  0  0  0
   -2.7100   66.1420   67.7297 H   0  0  0  0  0  0  0  0  0  0  0  0
   -2.0321   67.3914   68.8522 H   0  0  0  0  0  0  0  0  0  0  0  0
   -3.5961   68.5788   68.0383 H   0  0  0  0  0  0  0  0  0  0  0  0
  2  1  1  0
  3  2  1  0
  4  3  1  0
  5  4  1  0
  6  5  1  0
  6  1  1  0
  7  4  1  0
  8  7  1  0
  9  8  2  0
 10  8  1  0
 11 10  1  0
 12 10  1  0
 13 12  2  0
 14  3  1  0
 15  6  1  0
 16  5  1  0
 17  1  1  0
 18 17  1  0
  1 19  1  6
  3 20  1  6
  4 21  1  6
  5 22  1  1
  6 23  1  1
  7 24  1  0
 11 25  1  0
 11 26  1  0
 11 27  1  0
 14 28  1  0
 15 29  1  0
 16 30  1  0
 17 31  1  0
 17 32  1  0
 18 33  1  0
M  END
>  <score>  (5) 
-6.067

$$$$
=
     RDKit          3D

 33 33  0  0  0  0  0  0  0  0999 V2000
    3.1960   61.7450   69.7930 C   0  0  1  0  0  0  0  0  0  0  0  0
    3.9280   60.5220   69.6080 O   0  0  0  0  0  0  0  0  0  0  0  0
    3.3760   59.4620   70.3850 C   0  0  2  0  0  0  0  0  0  0  0  0
    3.7390   59.6940   71.8830 C   0  0  1  0  0  0  0  0  0  0  0  0
    3.8790   61.2080   72.1810 C   0  0  2  0  0  0  0  0  0  0  0  0
    2.9420   62.0410   71.2920 C   0  0  2  0  0  0  0  0  0  0  0  0
    2.7690   59.0550   72.7800 N   0  0  0  0  0  0  0  0  0  0  0  0
    3.1230   58.6150   74.0270 C   0  0  0  0  0  0  0  0  0  0  0  0
    4.2570   58.8460   74.4570 O   0  0  0  0  0  0  0  0  0  0  0  0
    2.1610   57.9360   74.7630 N   0  0  0  0  0  0  0  0  0  0  0  0
    2.4850   57.4870   76.1040 C   0  0  0  0  0  0  0  0  0  0  0  0
    0.8210   57.4820   74.2610 N   0  0  0  0  0  0  0  0  0  0  0  0
    0.8410   56.8110   73.2270 O   0  0  0  0  0  0  0  0  0  0  0  0
    3.8980   58.2300   69.9020 O   0  0  0  0  0  0  0  0  0  0  0  0
    1.5870   61.6740   71.6150 O   0  0  0  0  0  0  0  0  0  0  0  0
    5.2360   61.6380   72.0180 O   0  0  0  0  0  0  0  0  0  0  0  0
    3.9940   62.8670   69.1180 C   0  0  0  0  0  0  0  0  0  0  0  0
    3.5640   63.0780   67.7780 O   0  0  0  0  0  0  0  0  0  0  0  0
    2.1998   61.6623   69.3340 H   0  0  0  0  0  0  0  0  0  0  0  0
    2.2797   59.4327   70.3001 H   0  0  0  0  0  0  0  0  0  0  0  0
    4.7122   59.2181   72.0738 H   0  0  0  0  0  0  0  0  0  0  0  0
    3.5862   61.3681   73.2292 H   0  0  0  0  0  0  0  0  0  0  0  0
    3.1229   63.1112   71.4709 H   0  0  0  0  0  0  0  0  0  0  0  0
    1.7964   58.9344   72.4630 H   0  0  0  0  0  0  0  0  0  0  0  0
    2.0060   58.1509   76.8387 H   0  0  0  0  0  0  0  0  0  0  0  0
    2.1190   56.4593   76.2450 H   0  0  0  0  0  0  0  0  0  0  0  0
    3.5757   57.5104   76.2450 H   0  0  0  0  0  0  0  0  0  0  0  0
    4.1427   57.6524   70.6679 H   0  0  0  0  0  0  0  0  0  0  0  0
    1.4786   61.6446   72.5986 H   0  0  0  0  0  0  0  0  0  0  0  0
    5.6498   61.7691   72.9078 H   0  0  0  0  0  0  0  0  0  0  0  0
    3.8559   63.7972   69.6886 H   0  0  0  0  0  0  0  0  0  0  0  0
    5.0540   62.5738   69.0987 H   0  0  0  0  0  0  0  0  0  0  0  0
    2.6752   63.5141   67.7814 H   0  0  0  0  0  0  0  0  0  0  0  0
  2  1  1  0
  3  2  1  0
  4  3  1  0
  5  4  1  0
  6  5  1  0
  6  1  1  0
  7  4  1  0
  8  7  1  0
  9  8  2  0
 10  8  1  0
 11 10  1  0
 12 10  1  0
 13 12  2  0
 14  3  1  0
 15  6  1  0
 16  5  1  0
 17  1  1  0
 18 17  1  0
  1 19  1  6
  3 20  1  1
  4 21  1  6
  5 22  1  1
  6 23  1  6
  7 24  1  0
 11 25  1  0
 11 26  1  0
 11 27  1  0
 14 28  1  0
 15 29  1  0
 16 30  1  0
 17 31  1  0
 17 32  1  0
 18 33  1  0
M  END
>  <score>  (6) 
-5.595

$$$$
=
     RDKit          3D

 33 33  0  0  0  0  0  0  0  0999 V2000
    3.8680   62.3520   71.1850 C   0  0  1  0  0  0  0  0  0  0  0  0
    2.5400   61.8080   71.0880 O   0  0  0  0  0  0  0  0  0  0  0  0
    2.2770   60.8870   72.1450 C   0  0  2  0  0  0  0  0  0  0  0  0
    3.0600   59.5680   71.8700 C   0  0  1  0  0  0  0  0  0  0  0  0
    4.3580   59.8620   71.0750 C   0  0  2  0  0  0  0  0  0  0  0  0
    4.9250   61.2460   71.4240 C   0  0  2  0  0  0  0  0  0  0  0  0
    3.3420   58.8370   73.1110 N   0  0  0  0  0  0  0  0  0  0  0  0
    2.4670   57.9100   73.6140 C   0  0  0  0  0  0  0  0  0  0  0  0
    1.4630   57.6030   72.9650 O   0  0  0  0  0  0  0  0  0  0  0  0
    2.7750   57.3430   74.8430 N   0  0  0  0  0  0  0  0  0  0  0  0
    1.8950   56.3300   75.3930 C   0  0  0  0  0  0  0  0  0  0  0  0
    3.8840   57.7680   75.7610 N   0  0  0  0  0  0  0  0  0  0  0  0
    3.7960   58.9160   76.2040 O   0  0  0  0  0  0  0  0  0  0  0  0
    0.8740   60.6620   72.2080 O   0  0  0  0  0  0  0  0  0  0  0  0
    5.2820   61.2380   72.8190 O   0  0  0  0  0  0  0  0  0  0  0  0
    4.1290   59.7560   69.6640 O   0  0  0  0  0  0  0  0  0  0  0  0
    4.1400   63.1340   69.8940 C   0  0  0  0  0  0  0  0  0  0  0  0
    3.3150   62.6800   68.8270 O   0  0  0  0  0  0  0  0  0  0  0  0
    3.9408   63.0226   72.0539 H   0  0  0  0  0  0  0  0  0  0  0  0
    2.6097   61.2856   73.1147 H   0  0  0  0  0  0  0  0  0  0  0  0
    2.4223   58.9170   71.2538 H   0  0  0  0  0  0  0  0  0  0  0  0
    5.1026   59.1059   71.3647 H   0  0  0  0  0  0  0  0  0  0  0  0
    5.7971   61.4548   70.7870 H   0  0  0  0  0  0  0  0  0  0  0  0
    4.2194   59.0254   73.6165 H   0  0  0  0  0  0  0  0  0  0  0  0
    1.9305   56.3708   76.4917 H   0  0  0  0  0  0  0  0  0  0  0  0
    0.8655   56.5144   75.0523 H   0  0  0  0  0  0  0  0  0  0  0  0
    2.2216   55.3364   75.0523 H   0  0  0  0  0  0  0  0  0  0  0  0
    0.5893   60.6163   73.1551 H   0  0  0  0  0  0  0  0  0  0  0  0
    4.4598   61.2564   73.3702 H   0  0  0  0  0  0  0  0  0  0  0  0
    3.2425   59.3456   69.5035 H   0  0  0  0  0  0  0  0  0  0  0  0
    3.9388   64.2006   70.0728 H   0  0  0  0  0  0  0  0  0  0  0  0
    5.1909   62.9767   69.6095 H   0  0  0  0  0  0  0  0  0  0  0  0
    2.5106   62.2373   69.1972 H   0  0  0  0  0  0  0  0  0  0  0  0
  2  1  1  0
  3  2  1  0
  4  3  1  0
  5  4  1  0
  6  5  1  0
  6  1  1  0
  7  4  1  0
  8  7  1  0
  9  8  2  0
 10  8  1  0
 11 10  1  0
 12 10  1  0
 13 12  2  0
 14  3  1  0
 15  6  1  0
 16  5  1  0
 17  1  1  0
 18 17  1  0
  1 19  1  1
  3 20  1  1
  4 21  1  6
  5 22  1  1
  6 23  1  6
  7 24  1  0
 11 25  1  0
 11 26  1  0
 11 27  1  0
 14 28  1  0
 15 29  1  0
 16 30  1  0
 17 31  1  0
 17 32  1  0
 18 33  1  0
M  END
>  <score>  (7) 
-5.47

$$$$
=
     RDKit          3D

 33 33  0  0  0  0  0  0  0  0999 V2000
    0.8030   54.1240   74.7420 C   0  0  1  0  0  0  0  0  0  0  0  0
    0.0830   55.3610   74.8800 O   0  0  0  0  0  0  0  0  0  0  0  0
    0.4970   56.3160   73.9060 C   0  0  2  0  0  0  0  0  0  0  0  0
    1.9070   56.8540   74.2960 C   0  0  1  0  0  0  0  0  0  0  0  0
    2.7070   55.7740   75.0670 C   0  0  2  0  0  0  0  0  0  0  0  0
    2.3270   54.3600   74.6020 C   0  0  2  0  0  0  0  0  0  0  0  0
    2.6450   57.3380   73.1230 N   0  0  0  0  0  0  0  0  0  0  0  0
    3.2020   58.5880   73.0890 C   0  0  0  0  0  0  0  0  0  0  0  0
    3.1750   59.2970   74.1000 O   0  0  0  0  0  0  0  0  0  0  0  0
    3.7950   58.9920   71.9000 N   0  0  0  0  0  0  0  0  0  0  0  0
    4.4300   60.2940   71.8340 C   0  0  0  0  0  0  0  0  0  0  0  0
    3.7370   58.2610   70.5900 N   0  0  0  0  0  0  0  0  0  0  0  0
    3.9650   58.9460   69.5900 O   0  0  0  0  0  0  0  0  0  0  0  0
   -0.4690   57.3590   73.8580 O   0  0  0  0  0  0  0  0  0  0  0  0
    2.6910   54.2390   73.2140 O   0  0  0  0  0  0  0  0  0  0  0  0
    2.5140   55.9050   76.4810 O   0  0  0  0  0  0  0  0  0  0  0  0
    0.4690   53.2570   75.9620 C   0  0  0  0  0  0  0  0  0  0  0  0
    1.6270   52.9940   76.7460 O   0  0  0  0  0  0  0  0  0  0  0  0
    0.4971   53.6089   73.8195 H   0  0  0  0  0  0  0  0  0  0  0  0
    0.5692   55.8622   72.9065 H   0  0  0  0  0  0  0  0  0  0  0  0
    1.7684   57.7168   74.9641 H   0  0  0  0  0  0  0  0  0  0  0  0
    3.7731   55.9307   74.8458 H   0  0  0  0  0  0  0  0  0  0  0  0
    2.8522   53.6179   75.2213 H   0  0  0  0  0  0  0  0  0  0  0  0
    2.7463   56.7211   72.3044 H   0  0  0  0  0  0  0  0  0  0  0  0
    4.6113   60.6656   72.8533 H   0  0  0  0  0  0  0  0  0  0  0  0
    5.3875   60.2083   71.2993 H   0  0  0  0  0  0  0  0  0  0  0  0
    3.7730   60.9957   71.2993 H   0  0  0  0  0  0  0  0  0  0  0  0
   -0.7145   57.6241   74.7797 H   0  0  0  0  0  0  0  0  0  0  0  0
    3.6281   53.9275   73.1446 H   0  0  0  0  0  0  0  0  0  0  0  0
    3.2315   55.4180   76.9585 H   0  0  0  0  0  0  0  0  0  0  0  0
   -0.2713   53.7830   76.5827 H   0  0  0  0  0  0  0  0  0  0  0  0
    0.0681   52.2970   75.6046 H   0  0  0  0  0  0  0  0  0  0  0  0
    1.3941   53.0469   77.7067 H   0  0  0  0  0  0  0  0  0  0  0  0
  2  1  1  0
  3  2  1  0
  4  3  1  0
  5  4  1  0
  6  5  1  0
  6  1  1  0
  7  4  1  0
  8  7  1  0
  9  8  2  0
 10  8  1  0
 11 10  1  0
 12 10  1  0
 13 12  2  0
 14  3  1  0
 15  6  1  0
 16  5  1  0
 17  1  1  0
 18 17  1  0
  1 19  1  6
  3 20  1  6
  4 21  1  1
  5 22  1  1
  6 23  1  1
  7 24  1  0
 11 25  1  0
 11 26  1  0
 11 27  1  0
 14 28  1  0
 15 29  1  0
 16 30  1  0
 17 31  1  0
 17 32  1  0
 18 33  1  0
M  END
>  <score>  (8) 
-5.296

$$$$
=
     RDKit          3D

 33 33  0  0  0  0  0  0  0  0999 V2000
    1.7240   57.3770   72.6640 C   0  0  1  0  0  0  0  0  0  0  0  0
    1.2160   58.4360   73.4940 O   0  0  0  0  0  0  0  0  0  0  0  0
    1.1740   59.6750   72.7890 C   0  0  2  0  0  0  0  0  0  0  0  0
    2.6290   60.2140   72.6350 C   0  0  1  0  0  0  0  0  0  0  0  0
    3.6410   59.0420   72.5750 C   0  0  2  0  0  0  0  0  0  0  0  0
    3.0160   57.7990   71.9230 C   0  0  2  0  0  0  0  0  0  0  0  0
    2.7580   61.0990   71.4710 N   0  0  0  0  0  0  0  0  0  0  0  0
    2.4350   62.4280   71.5380 C   0  0  0  0  0  0  0  0  0  0  0  0
    2.1220   62.9270   72.6220 O   0  0  0  0  0  0  0  0  0  0  0  0
    2.4960   63.1610   70.3590 N   0  0  0  0  0  0  0  0  0  0  0  0
    2.1990   64.5800   70.3940 C   0  0  0  0  0  0  0  0  0  0  0  0
    2.7160   62.6040   68.9830 N   0  0  0  0  0  0  0  0  0  0  0  0
    3.8110   62.0700   68.7950 O   0  0  0  0  0  0  0  0  0  0  0  0
    0.3530   60.5800   73.5160 O   0  0  0  0  0  0  0  0  0  0  0  0
    2.6830   58.1350   70.5630 O   0  0  0  0  0  0  0  0  0  0  0  0
    4.1360   58.7260   73.8820 O   0  0  0  0  0  0  0  0  0  0  0  0
    1.9540   56.1570   73.5640 C   0  0  0  0  0  0  0  0  0  0  0  0
    2.7320   56.4930   74.7070 O   0  0  0  0  0  0  0  0  0  0  0  0
    0.9975   57.1315   71.8754 H   0  0  0  0  0  0  0  0  0  0  0  0
    0.7468   59.5492   71.7832 H   0  0  0  0  0  0  0  0  0  0  0  0
    2.8620   60.8191   73.5236 H   0  0  0  0  0  0  0  0  0  0  0  0
    4.4873   59.3657   71.9513 H   0  0  0  0  0  0  0  0  0  0  0  0
    3.7308   56.9642   71.9680 H   0  0  0  0  0  0  0  0  0  0  0  0
    3.1004   60.7102   70.5807 H   0  0  0  0  0  0  0  0  0  0  0  0
    2.1290   64.9143   71.4396 H   0  0  0  0  0  0  0  0  0  0  0  0
    3.0004   65.1350   69.8845 H   0  0  0  0  0  0  0  0  0  0  0  0
    1.2422   64.7670   69.8845 H   0  0  0  0  0  0  0  0  0  0  0  0
    0.4831   60.4366   74.4869 H   0  0  0  0  0  0  0  0  0  0  0  0
    1.9861   58.8382   70.5580 H   0  0  0  0  0  0  0  0  0  0  0  0
    3.5324   59.1113   74.5656 H   0  0  0  0  0  0  0  0  0  0  0  0
    0.9798   55.7687   73.8960 H   0  0  0  0  0  0  0  0  0  0  0  0
    2.5005   55.3982   72.9847 H   0  0  0  0  0  0  0  0  0  0  0  0
    2.2241   56.2737   75.5280 H   0  0  0  0  0  0  0  0  0  0  0  0
  2  1  1  0
  3  2  1  0
  4  3  1  0
  5  4  1  0
  6  5  1  0
  6  1  1  0
  7  4  1  0
  8  7  1  0
  9  8  2  0
 10  8  1  0
 11 10  1  0
 12 10  1  0
 13 12  2  0
 14  3  1  0
 15  6  1  0
 16  5  1  0
 17  1  1  0
 18 17  1  0
  1 19  1  6
  3 20  1  6
  4 21  1  1
  5 22  1  6
  6 23  1  6
  7 24  1  0
 11 25  1  0
 11 26  1  0
 11 27  1  0
 14 28  1  0
 15 29  1  0
 16 30  1  0
 17 31  1  0
 17 32  1  0
 18 33  1  0
M  END
>  <score>  (9) 
-5.194

$$$$
