=
     RDKit          3D

 46 50  0  0  0  0  0  0  0  0999 V2000
    3.4030   69.1940   66.3120 C   0  0  0  0  0  0  0  0  0  0  0  0
    3.3340   68.9400   64.9160 C   0  0  0  0  0  0  0  0  0  0  0  0
    2.2330   68.3280   64.2680 C   0  0  0  0  0  0  0  0  0  0  0  0
    2.2310   68.0970   62.8910 C   0  0  0  0  0  0  0  0  0  0  0  0
    3.3270   68.4730   62.1260 C   0  0  0  0  0  0  0  0  0  0  0  0
    4.4200   69.0850   62.7380 C   0  0  0  0  0  0  0  0  0  0  0  0
    4.4360   69.3250   64.1220 C   0  0  0  0  0  0  0  0  0  0  0  0
    5.5430   69.9470   64.7230 C   0  0  0  0  0  0  0  0  0  0  0  0
    5.5930   70.2110   66.1010 C   0  0  0  0  0  0  0  0  0  0  0  0
    4.5100   69.8390   66.9250 C   0  0  0  0  0  0  0  0  0  0  0  0
    4.5960   70.1350   68.3070 C   0  0  0  0  0  0  0  0  0  0  0  0
    5.7160   70.7640   68.8520 C   0  0  0  0  0  0  0  0  0  0  0  0
    6.7780   71.1140   68.0300 C   0  0  0  0  0  0  0  0  0  0  0  0
    6.7160   70.8420   66.6640 C   0  0  0  0  0  0  0  0  0  0  0  0
    0.8200   67.2620   68.1350 C   0  0  1  0  0  0  0  0  0  0  0  0
    0.5750   68.6730   68.4060 N   0  0  0  0  0  0  0  0  0  0  0  0
    1.3800   69.4870   67.6540 N   0  0  0  0  0  0  0  0  0  0  0  0
    2.3060   68.7190   67.1660 C   0  0  0  0  0  0  0  0  0  0  0  0
    2.2180   67.2630   67.5320 C   0  0  0  0  0  0  0  0  0  0  0  0
    0.4250   63.9040   72.8860 C   0  0  0  0  0  0  0  0  0  0  0  0
    0.5030   64.7500   71.6500 C   0  0  0  0  0  0  0  0  0  0  0  0
    1.5270   64.5520   70.7180 C   0  0  0  0  0  0  0  0  0  0  0  0
    1.6170   65.3590   69.5810 C   0  0  0  0  0  0  0  0  0  0  0  0
    0.6880   66.3840   69.3540 C   0  0  0  0  0  0  0  0  0  0  0  0
   -0.3230   66.5930   70.3040 C   0  0  0  0  0  0  0  0  0  0  0  0
   -0.4130   65.7860   71.4420 C   0  0  0  0  0  0  0  0  0  0  0  0
    1.3586   68.0275   64.8640 H   0  0  0  0  0  0  0  0  0  0  0  0
    1.3633   67.6183   62.4134 H   0  0  0  0  0  0  0  0  0  0  0  0
    3.3329   68.2888   61.0416 H   0  0  0  0  0  0  0  0  0  0  0  0
    5.2841   69.3849   62.1270 H   0  0  0  0  0  0  0  0  0  0  0  0
    6.3977   70.2364   64.0940 H   0  0  0  0  0  0  0  0  0  0  0  0
    3.7594   69.8624   68.9672 H   0  0  0  0  0  0  0  0  0  0  0  0
    5.7570   70.9817   69.9295 H   0  0  0  0  0  0  0  0  0  0  0  0
    7.6661   71.6046   68.4550 H   0  0  0  0  0  0  0  0  0  0  0  0
    7.5590   71.1256   66.0167 H   0  0  0  0  0  0  0  0  0  0  0  0
    0.0707   66.8249   67.4586 H   0  0  0  0  0  0  0  0  0  0  0  0
   -0.1210   69.0172   69.0828 H   0  0  0  0  0  0  0  0  0  0  0  0
    2.2887   66.6096   66.6500 H   0  0  0  0  0  0  0  0  0  0  0  0
    3.0189   66.8870   68.1856 H   0  0  0  0  0  0  0  0  0  0  0  0
    0.4844   64.5482   73.7756 H   0  0  0  0  0  0  0  0  0  0  0  0
   -0.5277   63.3541   72.8944 H   0  0  0  0  0  0  0  0  0  0  0  0
    1.2611   63.1892   72.8944 H   0  0  0  0  0  0  0  0  0  0  0  0
    2.2671   63.7548   70.8815 H   0  0  0  0  0  0  0  0  0  0  0  0
    2.4261   65.1881   68.8556 H   0  0  0  0  0  0  0  0  0  0  0  0
   -1.0534   67.4013   70.1516 H   0  0  0  0  0  0  0  0  0  0  0  0
   -1.2096   65.9671   72.1787 H   0  0  0  0  0  0  0  0  0  0  0  0
  2  1  1  0
  3  2  2  0
  4  3  1  0
  5  4  2  0
  6  5  1  0
  7  6  2  0
  7  2  1  0
  8  7  1  0
  9  8  2  0
 10  1  2  0
 10  9  1  0
 11 10  1  0
 12 11  2  0
 13 12  1  0
 14  9  1  0
 14 13  2  0
 16 15  1  0
 17 16  1  0
 18 17  2  0
 18  1  1  0
 19 18  1  0
 19 15  1  0
 21 20  1  0
 22 21  2  0
 23 22  1  0
 24 23  2  0
 24 15  1  0
 25 24  1  0
 26 21  1  0
 26 25  2  0
  3 27  1  0
  4 28  1  0
  5 29  1  0
  6 30  1  0
  8 31  1  0
 11 32  1  0
 12 33  1  0
 13 34  1  0
 14 35  1  0
 15 36  1  6
 16 37  1  0
 19 38  1  0
 19 39  1  0
 20 40  1  0
 20 41  1  0
 20 42  1  0
 22 43  1  0
 23 44  1  0
 25 45  1  0
 26 46  1  0
M  END
>  <score>  (1) 
-11.55

$$$$
=
     RDKit          3D

 46 50  0  0  0  0  0  0  0  0999 V2000
    1.3750   62.6450   71.7620 C   0  0  0  0  0  0  0  0  0  0  0  0
    0.4370   61.7780   72.3840 C   0  0  0  0  0  0  0  0  0  0  0  0
   -0.9230   62.1040   72.6120 C   0  0  0  0  0  0  0  0  0  0  0  0
   -1.7940   61.2100   73.2390 C   0  0  0  0  0  0  0  0  0  0  0  0
   -1.3300   59.9680   73.6500 C   0  0  0  0  0  0  0  0  0  0  0  0
    0.0020   59.6200   73.4290 C   0  0  0  0  0  0  0  0  0  0  0  0
    0.8890   60.5080   72.7990 C   0  0  0  0  0  0  0  0  0  0  0  0
    2.2270   60.1400   72.5800 C   0  0  0  0  0  0  0  0  0  0  0  0
    3.1420   60.9970   71.9470 C   0  0  0  0  0  0  0  0  0  0  0  0
    2.7240   62.2750   71.5190 C   0  0  0  0  0  0  0  0  0  0  0  0
    3.6750   63.1020   70.8740 C   0  0  0  0  0  0  0  0  0  0  0  0
    4.9920   62.6840   70.6730 C   0  0  0  0  0  0  0  0  0  0  0  0
    5.3900   61.4280   71.1080 C   0  0  0  0  0  0  0  0  0  0  0  0
    4.4710   60.5900   71.7390 C   0  0  0  0  0  0  0  0  0  0  0  0
    0.9600   66.0580   70.3800 C   0  0  1  0  0  0  0  0  0  0  0  0
   -0.0250   65.9000   71.4430 N   0  0  0  0  0  0  0  0  0  0  0  0
    0.1440   64.7270   72.1280 N   0  0  0  0  0  0  0  0  0  0  0  0
    0.9450   64.0040   71.4050 C   0  0  0  0  0  0  0  0  0  0  0  0
    1.4270   64.6310   70.1270 C   0  0  0  0  0  0  0  0  0  0  0  0
   -1.2420   68.7550   65.7020 C   0  0  0  0  0  0  0  0  0  0  0  0
   -0.6590   68.0400   66.8850 C   0  0  0  0  0  0  0  0  0  0  0  0
   -1.4250   67.1180   67.6050 C   0  0  0  0  0  0  0  0  0  0  0  0
   -0.8930   66.4740   68.7250 C   0  0  0  0  0  0  0  0  0  0  0  0
    0.4150   66.7420   69.1520 C   0  0  0  0  0  0  0  0  0  0  0  0
    1.1700   67.6860   68.4400 C   0  0  0  0  0  0  0  0  0  0  0  0
    0.6380   68.3300   67.3200 C   0  0  0  0  0  0  0  0  0  0  0  0
   -1.3018   63.0844   72.2875 H   0  0  0  0  0  0  0  0  0  0  0  0
   -2.8446   61.4894   73.4066 H   0  0  0  0  0  0  0  0  0  0  0  0
   -2.0102   59.2613   74.1479 H   0  0  0  0  0  0  0  0  0  0  0  0
    0.3641   58.6333   73.7536 H   0  0  0  0  0  0  0  0  0  0  0  0
    2.5687   59.1495   72.9148 H   0  0  0  0  0  0  0  0  0  0  0  0
    3.3688   64.0984   70.5226 H   0  0  0  0  0  0  0  0  0  0  0  0
    5.7114   63.3481   70.1716 H   0  0  0  0  0  0  0  0  0  0  0  0
    6.4270   61.0943   70.9557 H   0  0  0  0  0  0  0  0  0  0  0  0
    4.7915   59.5943   72.0794 H   0  0  0  0  0  0  0  0  0  0  0  0
    1.7856   66.7270   70.6643 H   0  0  0  0  0  0  0  0  0  0  0  0
   -0.7608   66.5893   71.6536 H   0  0  0  0  0  0  0  0  0  0  0  0
    2.5199   64.5661   70.0208 H   0  0  0  0  0  0  0  0  0  0  0  0
    1.0582   64.1668   69.2005 H   0  0  0  0  0  0  0  0  0  0  0  0
   -1.9013   69.5636   66.0506 H   0  0  0  0  0  0  0  0  0  0  0  0
   -0.4300   69.1804   65.0940 H   0  0  0  0  0  0  0  0  0  0  0  0
   -1.8222   68.0453   65.0940 H   0  0  0  0  0  0  0  0  0  0  0  0
   -2.4548   66.8979   67.2871 H   0  0  0  0  0  0  0  0  0  0  0  0
   -1.5076   65.7484   69.2780 H   0  0  0  0  0  0  0  0  0  0  0  0
    2.1933   67.9220   68.7675 H   0  0  0  0  0  0  0  0  0  0  0  0
    1.2436   69.0703   66.7766 H   0  0  0  0  0  0  0  0  0  0  0  0
  2  1  1  0
  3  2  2  0
  4  3  1  0
  5  4  2  0
  6  5  1  0
  7  6  2  0
  7  2  1  0
  8  7  1  0
  9  8  2  0
 10  1  2  0
 10  9  1  0
 11 10  1  0
 12 11  2  0
 13 12  1  0
 14  9  1  0
 14 13  2  0
 16 15  1  0
 17 16  1  0
 18 17  2  0
 18  1  1  0
 19 18  1  0
 19 15  1  0
 21 20  1  0
 22 21  2  0
 23 22  1  0
 24 23  2  0
 24 15  1  0
 25 24  1  0
 26 21  1  0
 26 25  2  0
  3 27  1  0
  4 28  1  0
  5 29  1  0
  6 30  1  0
  8 31  1  0
 11 32  1  0
 12 33  1  0
 13 34  1  0
 14 35  1  0
 15 36  1  1
 16 37  1  0
 19 38  1  0
 19 39  1  0
 20 40  1  0
 20 41  1  0
 20 42  1  0
 22 43  1  0
 23 44  1  0
 25 45  1  0
 26 46  1  0
M  END
>  <score>  (2) 
-11.163

$$$$
=
     RDKit          3D

 46 50  0  0  0  0  0  0  0  0999 V2000
    1.3510   62.6730   71.8640 C   0  0  0  0  0  0  0  0  0  0  0  0
    2.6870   62.3000   71.5580 C   0  0  0  0  0  0  0  0  0  0  0  0
    3.6470   63.1680   70.9820 C   0  0  0  0  0  0  0  0  0  0  0  0
    4.9440   62.7370   70.6940 C   0  0  0  0  0  0  0  0  0  0  0  0
    5.3150   61.4290   70.9770 C   0  0  0  0  0  0  0  0  0  0  0  0
    4.3920   60.5580   71.5530 C   0  0  0  0  0  0  0  0  0  0  0  0
    3.0840   60.9780   71.8480 C   0  0  0  0  0  0  0  0  0  0  0  0
    2.1670   60.0880   72.4320 C   0  0  0  0  0  0  0  0  0  0  0  0
    0.8540   60.4720   72.7500 C   0  0  0  0  0  0  0  0  0  0  0  0
    0.4230   61.7870   72.4720 C   0  0  0  0  0  0  0  0  0  0  0  0
   -0.9050   62.1360   72.8200 C   0  0  0  0  0  0  0  0  0  0  0  0
   -1.7740   61.2150   73.4070 C   0  0  0  0  0  0  0  0  0  0  0  0
   -1.3380   59.9230   73.6650 C   0  0  0  0  0  0  0  0  0  0  0  0
   -0.0320   59.5550   73.3400 C   0  0  0  0  0  0  0  0  0  0  0  0
    0.8860   66.0680   70.4560 C   0  0  1  0  0  0  0  0  0  0  0  0
   -0.1350   65.8820   71.4800 N   0  0  0  0  0  0  0  0  0  0  0  0
    0.0440   64.7170   72.1750 N   0  0  0  0  0  0  0  0  0  0  0  0
    0.8940   64.0170   71.4860 C   0  0  0  0  0  0  0  0  0  0  0  0
    1.4070   64.6560   70.2250 C   0  0  0  0  0  0  0  0  0  0  0  0
   -1.2110   68.6900   65.6880 C   0  0  0  0  0  0  0  0  0  0  0  0
   -0.6550   67.9940   66.8940 C   0  0  0  0  0  0  0  0  0  0  0  0
   -1.4360   67.0810   67.6100 C   0  0  0  0  0  0  0  0  0  0  0  0
   -0.9290   66.4550   68.7520 C   0  0  0  0  0  0  0  0  0  0  0  0
    0.3680   66.7330   69.2050 C   0  0  0  0  0  0  0  0  0  0  0  0
    1.1380   67.6670   68.4970 C   0  0  0  0  0  0  0  0  0  0  0  0
    0.6310   68.2930   67.3550 C   0  0  0  0  0  0  0  0  0  0  0  0
    3.3641   64.2067   70.7560 H   0  0  0  0  0  0  0  0  0  0  0  0
    5.6692   63.4313   70.2445 H   0  0  0  0  0  0  0  0  0  0  0  0
    6.3332   61.0818   70.7475 H   0  0  0  0  0  0  0  0  0  0  0  0
    4.6925   59.5246   71.7805 H   0  0  0  0  0  0  0  0  0  0  0  0
    2.4875   59.0579   72.6469 H   0  0  0  0  0  0  0  0  0  0  0  0
   -1.2602   63.1582   72.6227 H   0  0  0  0  0  0  0  0  0  0  0  0
   -2.8013   61.5123   73.6643 H   0  0  0  0  0  0  0  0  0  0  0  0
   -2.0196   59.1917   74.1240 H   0  0  0  0  0  0  0  0  0  0  0  0
    0.3095   58.5305   73.5491 H   0  0  0  0  0  0  0  0  0  0  0  0
    1.6790   66.7622   70.7710 H   0  0  0  0  0  0  0  0  0  0  0  0
   -0.8999   66.5482   71.6589 H   0  0  0  0  0  0  0  0  0  0  0  0
    2.5048   64.6249   70.1621 H   0  0  0  0  0  0  0  0  0  0  0  0
    1.0903   64.1788   69.2859 H   0  0  0  0  0  0  0  0  0  0  0  0
   -1.8676   69.5120   66.0093 H   0  0  0  0  0  0  0  0  0  0  0  0
   -0.3849   69.0949   65.0850 H   0  0  0  0  0  0  0  0  0  0  0  0
   -1.7884   67.9738   65.0850 H   0  0  0  0  0  0  0  0  0  0  0  0
   -2.4577   66.8538   67.2715 H   0  0  0  0  0  0  0  0  0  0  0  0
   -1.5547   65.7362   69.3014 H   0  0  0  0  0  0  0  0  0  0  0  0
    2.1530   67.9098   68.8446 H   0  0  0  0  0  0  0  0  0  0  0  0
    1.2479   69.0262   66.8148 H   0  0  0  0  0  0  0  0  0  0  0  0
  2  1  1  0
  3  2  2  0
  4  3  1  0
  5  4  2  0
  6  5  1  0
  7  6  2  0
  7  2  1  0
  8  7  1  0
  9  8  2  0
 10  1  2  0
 10  9  1  0
 11 10  1  0
 12 11  2  0
 13 12  1  0
 14  9  1  0
 14 13  2  0
 16 15  1  0
 17 16  1  0
 18 17  2  0
 18  1  1  0
 19 18  1  0
 19 15  1  0
 21 20  1  0
 22 21  2  0
 23 22  1  0
 24 23  2  0
 24 15  1  0
 25 24  1  0
 26 21  1  0
 26 25  2  0
  3 27  1  0
  4 28  1  0
  5 29  1  0
  6 30  1  0
  8 31  1  0
 11 32  1  0
 12 33  1  0
 13 34  1  0
 14 35  1  0
 15 36  1  1
 16 37  1  0
 19 38  1  0
 19 39  1  0
 20 40  1  0
 20 41  1  0
 20 42  1  0
 22 43  1  0
 23 44  1  0
 25 45  1  0
 26 46  1  0
M  END
>  <score>  (3) 
-11.049

$$$$
=
     RDKit          3D

 46 50  0  0  0  0  0  0  0  0999 V2000
    0.8870   64.2780   71.2660 C   0  0  0  0  0  0  0  0  0  0  0  0
    0.4440   64.5610   72.5850 C   0  0  0  0  0  0  0  0  0  0  0  0
   -0.3120   65.7020   72.9480 C   0  0  0  0  0  0  0  0  0  0  0  0
   -0.7080   65.9290   74.2670 C   0  0  0  0  0  0  0  0  0  0  0  0
   -0.3620   65.0200   75.2580 C   0  0  0  0  0  0  0  0  0  0  0  0
    0.3730   63.8830   74.9260 C   0  0  0  0  0  0  0  0  0  0  0  0
    0.7790   63.6410   73.6020 C   0  0  0  0  0  0  0  0  0  0  0  0
    1.5160   62.4890   73.2840 C   0  0  0  0  0  0  0  0  0  0  0  0
    1.9320   62.2090   71.9730 C   0  0  0  0  0  0  0  0  0  0  0  0
    1.6160   63.1060   70.9310 C   0  0  0  0  0  0  0  0  0  0  0  0
    2.0440   62.7790   69.6210 C   0  0  0  0  0  0  0  0  0  0  0  0
    2.7670   61.6150   69.3570 C   0  0  0  0  0  0  0  0  0  0  0  0
    3.0790   60.7460   70.3950 C   0  0  0  0  0  0  0  0  0  0  0  0
    2.6620   61.0410   71.6930 C   0  0  0  0  0  0  0  0  0  0  0  0
    0.7940   67.2170   69.0120 C   0  0  1  0  0  0  0  0  0  0  0  0
   -0.2920   66.3320   68.6110 N   0  0  0  0  0  0  0  0  0  0  0  0
   -0.4470   65.2850   69.4800 N   0  0  0  0  0  0  0  0  0  0  0  0
    0.6260   65.2670   70.2120 C   0  0  0  0  0  0  0  0  0  0  0  0
    1.6420   66.3360   69.9200 C   0  0  0  0  0  0  0  0  0  0  0  0
    3.8530   69.4470   64.5770 C   0  0  0  0  0  0  0  0  0  0  0  0
    3.0390   68.8880   65.7050 C   0  0  0  0  0  0  0  0  0  0  0  0
    3.0830   69.4790   66.9730 C   0  0  0  0  0  0  0  0  0  0  0  0
    2.3480   68.9410   68.0330 C   0  0  0  0  0  0  0  0  0  0  0  0
    1.5570   67.7990   67.8490 C   0  0  0  0  0  0  0  0  0  0  0  0
    1.5350   67.1970   66.5810 C   0  0  0  0  0  0  0  0  0  0  0  0
    2.2700   67.7350   65.5220 C   0  0  0  0  0  0  0  0  0  0  0  0
   -0.5943   66.4276   72.1710 H   0  0  0  0  0  0  0  0  0  0  0  0
   -1.2926   66.8256   74.5208 H   0  0  0  0  0  0  0  0  0  0  0  0
   -0.6665   65.1963   76.3002 H   0  0  0  0  0  0  0  0  0  0  0  0
    0.6399   63.1628   75.7135 H   0  0  0  0  0  0  0  0  0  0  0  0
    1.7755   61.7839   74.0874 H   0  0  0  0  0  0  0  0  0  0  0  0
    1.8005   63.4592   68.7915 H   0  0  0  0  0  0  0  0  0  0  0  0
    3.0888   61.3863   68.3303 H   0  0  0  0  0  0  0  0  0  0  0  0
    3.6525   59.8291   70.1941 H   0  0  0  0  0  0  0  0  0  0  0  0
    2.9085   60.3481   72.5110 H   0  0  0  0  0  0  0  0  0  0  0  0
    0.4344   68.1228   69.5221 H   0  0  0  0  0  0  0  0  0  0  0  0
   -0.8739   66.4767   67.7735 H   0  0  0  0  0  0  0  0  0  0  0  0
    1.9596   66.8649   70.8307 H   0  0  0  0  0  0  0  0  0  0  0  0
    2.5923   65.9854   69.4911 H   0  0  0  0  0  0  0  0  0  0  0  0
    4.6953   70.0255   64.9842 H   0  0  0  0  0  0  0  0  0  0  0  0
    4.2389   68.6225   63.9596 H   0  0  0  0  0  0  0  0  0  0  0  0
    3.2220   70.1032   63.9596 H   0  0  0  0  0  0  0  0  0  0  0  0
    3.7011   70.3741   67.1366 H   0  0  0  0  0  0  0  0  0  0  0  0
    2.3909   69.4193   69.0227 H   0  0  0  0  0  0  0  0  0  0  0  0
    0.9321   66.2912   66.4195 H   0  0  0  0  0  0  0  0  0  0  0  0
    2.2435   67.2476   64.5363 H   0  0  0  0  0  0  0  0  0  0  0  0
  2  1  1  0
  3  2  2  0
  4  3  1  0
  5  4  2  0
  6  5  1  0
  7  6  2  0
  7  2  1  0
  8  7  1  0
  9  8  2  0
 10  1  2  0
 10  9  1  0
 11 10  1  0
 12 11  2  0
 13 12  1  0
 14  9  1  0
 14 13  2  0
 16 15  1  0
 17 16  1  0
 18 17  2  0
 18  1  1  0
 19 18  1  0
 19 15  1  0
 21 20  1  0
 22 21  2  0
 23 22  1  0
 24 23  2  0
 24 15  1  0
 25 24  1  0
 26 21  1  0
 26 25  2  0
  3 27  1  0
  4 28  1  0
  5 29  1  0
  6 30  1  0
  8 31  1  0
 11 32  1  0
 12 33  1  0
 13 34  1  0
 14 35  1  0
 15 36  1  1
 16 37  1  0
 19 38  1  0
 19 39  1  0
 20 40  1  0
 20 41  1  0
 20 42  1  0
 22 43  1  0
 23 44  1  0
 25 45  1  0
 26 46  1  0
M  END
>  <score>  (4) 
-10.825

$$$$
=
     RDKit          3D

 46 50  0  0  0  0  0  0  0  0999 V2000
    0.9610   64.2510   71.2820 C   0  0  0  0  0  0  0  0  0  0  0  0
    1.6840   63.0760   70.9480 C   0  0  0  0  0  0  0  0  0  0  0  0
    2.2160   62.8020   69.6640 C   0  0  0  0  0  0  0  0  0  0  0  0
    2.9100   61.6200   69.3960 C   0  0  0  0  0  0  0  0  0  0  0  0
    3.0930   60.6840   70.4040 C   0  0  0  0  0  0  0  0  0  0  0  0
    2.5880   60.9330   71.6800 C   0  0  0  0  0  0  0  0  0  0  0  0
    1.8880   62.1180   71.9640 C   0  0  0  0  0  0  0  0  0  0  0  0
    1.3890   62.3560   73.2550 C   0  0  0  0  0  0  0  0  0  0  0  0
    0.6920   63.5300   73.5810 C   0  0  0  0  0  0  0  0  0  0  0  0
    0.4690   64.5090   72.5890 C   0  0  0  0  0  0  0  0  0  0  0  0
   -0.2270   65.6850   72.9630 C   0  0  0  0  0  0  0  0  0  0  0  0
   -0.6950   65.8750   74.2640 C   0  0  0  0  0  0  0  0  0  0  0  0
   -0.4760   64.8990   75.2260 C   0  0  0  0  0  0  0  0  0  0  0  0
    0.2140   63.7350   74.8860 C   0  0  0  0  0  0  0  0  0  0  0  0
    0.7650   67.1500   68.9840 C   0  0  1  0  0  0  0  0  0  0  0  0
   -0.3070   66.2340   68.6140 N   0  0  0  0  0  0  0  0  0  0  0  0
   -0.4240   65.1980   69.5020 N   0  0  0  0  0  0  0  0  0  0  0  0
    0.6610   65.2170   70.2170 C   0  0  0  0  0  0  0  0  0  0  0  0
    1.6470   66.3040   69.8910 C   0  0  0  0  0  0  0  0  0  0  0  0
    3.7000   69.3760   64.4630 C   0  0  0  0  0  0  0  0  0  0  0  0
    2.9170   68.8170   65.6140 C   0  0  0  0  0  0  0  0  0  0  0  0
    2.9650   69.4320   66.8700 C   0  0  0  0  0  0  0  0  0  0  0  0
    2.2600   68.8950   67.9500 C   0  0  0  0  0  0  0  0  0  0  0  0
    1.4950   67.7290   67.7980 C   0  0  0  0  0  0  0  0  0  0  0  0
    1.4700   67.1050   66.5420 C   0  0  0  0  0  0  0  0  0  0  0  0
    2.1760   67.6420   65.4620 C   0  0  0  0  0  0  0  0  0  0  0  0
    2.0791   63.5383   68.8583 H   0  0  0  0  0  0  0  0  0  0  0  0
    3.3103   61.4316   68.3889 H   0  0  0  0  0  0  0  0  0  0  0  0
    3.6344   59.7490   70.1974 H   0  0  0  0  0  0  0  0  0  0  0  0
    2.7401   60.1900   72.4768 H   0  0  0  0  0  0  0  0  0  0  0  0
    1.5495   61.5980   74.0358 H   0  0  0  0  0  0  0  0  0  0  0  0
   -0.4027   66.4672   72.2098 H   0  0  0  0  0  0  0  0  0  0  0  0
   -1.2361   66.7961   74.5263 H   0  0  0  0  0  0  0  0  0  0  0  0
   -0.8449   65.0425   76.2523 H   0  0  0  0  0  0  0  0  0  0  0  0
    0.3866   62.9651   75.6524 H   0  0  0  0  0  0  0  0  0  0  0  0
    0.3938   68.0554   69.4865 H   0  0  0  0  0  0  0  0  0  0  0  0
   -0.9051   66.3519   67.7838 H   0  0  0  0  0  0  0  0  0  0  0  0
    1.9671   66.8548   70.7877 H   0  0  0  0  0  0  0  0  0  0  0  0
    2.5980   65.9681   69.4518 H   0  0  0  0  0  0  0  0  0  0  0  0
    4.5390   69.9750   64.8468 H   0  0  0  0  0  0  0  0  0  0  0  0
    4.0894   68.5505   63.8491 H   0  0  0  0  0  0  0  0  0  0  0  0
    3.0457   70.0124   63.8491 H   0  0  0  0  0  0  0  0  0  0  0  0
    3.5624   70.3453   67.0080 H   0  0  0  0  0  0  0  0  0  0  0  0
    2.3053   69.3919   68.9303 H   0  0  0  0  0  0  0  0  0  0  0  0
    0.8877   66.1818   66.4054 H   0  0  0  0  0  0  0  0  0  0  0  0
    2.1482   67.1363   64.4856 H   0  0  0  0  0  0  0  0  0  0  0  0
  2  1  1  0
  3  2  2  0
  4  3  1  0
  5  4  2  0
  6  5  1  0
  7  6  2  0
  7  2  1  0
  8  7  1  0
  9  8  2  0
 10  1  2  0
 10  9  1  0
 11 10  1  0
 12 11  2  0
 13 12  1  0
 14  9  1  0
 14 13  2  0
 16 15  1  0
 17 16  1  0
 18 17  2  0
 18  1  1  0
 19 18  1  0
 19 15  1  0
 21 20  1  0
 22 21  2  0
 23 22  1  0
 24 23  2  0
 24 15  1  0
 25 24  1  0
 26 21  1  0
 26 25  2  0
  3 27  1  0
  4 28  1  0
  5 29  1  0
  6 30  1  0
  8 31  1  0
 11 32  1  0
 12 33  1  0
 13 34  1  0
 14 35  1  0
 15 36  1  1
 16 37  1  0
 19 38  1  0
 19 39  1  0
 20 40  1  0
 20 41  1  0
 20 42  1  0
 22 43  1  0
 23 44  1  0
 25 45  1  0
 26 46  1  0
M  END
>  <score>  (5) 
-10.711

$$$$
=
     RDKit          3D

 46 50  0  0  0  0  0  0  0  0999 V2000
    3.5310   69.1230   66.2500 C   0  0  0  0  0  0  0  0  0  0  0  0
    4.6190   69.8190   66.8410 C   0  0  0  0  0  0  0  0  0  0  0  0
    4.7490   70.0690   68.2290 C   0  0  0  0  0  0  0  0  0  0  0  0
    5.8400   70.7700   68.7470 C   0  0  0  0  0  0  0  0  0  0  0  0
    6.8300   71.2350   67.8920 C   0  0  0  0  0  0  0  0  0  0  0  0
    6.7310   70.9940   66.5230 C   0  0  0  0  0  0  0  0  0  0  0  0
    5.6390   70.2900   65.9870 C   0  0  0  0  0  0  0  0  0  0  0  0
    5.5560   70.0510   64.6060 C   0  0  0  0  0  0  0  0  0  0  0  0
    4.4860   69.3450   64.0340 C   0  0  0  0  0  0  0  0  0  0  0  0
    3.4480   68.8600   64.8570 C   0  0  0  0  0  0  0  0  0  0  0  0
    2.3940   68.1420   64.2410 C   0  0  0  0  0  0  0  0  0  0  0  0
    2.3640   67.9250   62.8620 C   0  0  0  0  0  0  0  0  0  0  0  0
    3.3880   68.4170   62.0650 C   0  0  0  0  0  0  0  0  0  0  0  0
    4.4420   69.1200   62.6470 C   0  0  0  0  0  0  0  0  0  0  0  0
    0.8570   67.3270   68.0810 C   0  0  1  0  0  0  0  0  0  0  0  0
    0.6970   68.7470   68.3680 N   0  0  0  0  0  0  0  0  0  0  0  0
    1.5410   69.5200   67.6160 N   0  0  0  0  0  0  0  0  0  0  0  0
    2.4160   68.7040   67.1110 C   0  0  0  0  0  0  0  0  0  0  0  0
    2.2470   67.2520   67.4650 C   0  0  0  0  0  0  0  0  0  0  0  0
    0.3050   63.9630   72.8120 C   0  0  0  0  0  0  0  0  0  0  0  0
    0.4240   64.8090   71.5800 C   0  0  0  0  0  0  0  0  0  0  0  0
    1.5010   64.6400   70.7030 C   0  0  0  0  0  0  0  0  0  0  0  0
    1.6290   65.4480   69.5710 C   0  0  0  0  0  0  0  0  0  0  0  0
    0.6850   66.4470   69.2940 C   0  0  0  0  0  0  0  0  0  0  0  0
   -0.3800   66.6280   70.1890 C   0  0  0  0  0  0  0  0  0  0  0  0
   -0.5080   65.8190   71.3210 C   0  0  0  0  0  0  0  0  0  0  0  0
    3.9718   69.7021   68.9155 H   0  0  0  0  0  0  0  0  0  0  0  0
    5.9148   70.9532   69.8291 H   0  0  0  0  0  0  0  0  0  0  0  0
    7.6895   71.7917   68.2937 H   0  0  0  0  0  0  0  0  0  0  0  0
    7.5206   71.3608   65.8507 H   0  0  0  0  0  0  0  0  0  0  0  0
    6.3550   70.4291   63.9513 H   0  0  0  0  0  0  0  0  0  0  0  0
    1.5789   67.7455   64.8643 H   0  0  0  0  0  0  0  0  0  0  0  0
    1.5318   67.3662   62.4091 H   0  0  0  0  0  0  0  0  0  0  0  0
    3.3682   68.2529   60.9775 H   0  0  0  0  0  0  0  0  0  0  0  0
    5.2524   69.5049   62.0105 H   0  0  0  0  0  0  0  0  0  0  0  0
    0.0780   66.9410   67.4071 H   0  0  0  0  0  0  0  0  0  0  0  0
    0.0285   69.1243   69.0548 H   0  0  0  0  0  0  0  0  0  0  0  0
    2.2717   66.6037   66.5767 H   0  0  0  0  0  0  0  0  0  0  0  0
    3.0305   66.8238   68.1075 H   0  0  0  0  0  0  0  0  0  0  0  0
    0.3946   64.6000   73.7043 H   0  0  0  0  0  0  0  0  0  0  0  0
   -0.6728   63.4592   72.8178 H   0  0  0  0  0  0  0  0  0  0  0  0
    1.1059   63.2090   72.8178 H   0  0  0  0  0  0  0  0  0  0  0  0
    2.2535   63.8640   70.9068 H   0  0  0  0  0  0  0  0  0  0  0  0
    2.4795   65.2990   68.8895 H   0  0  0  0  0  0  0  0  0  0  0  0
   -1.1231   67.4161   69.9973 H   0  0  0  0  0  0  0  0  0  0  0  0
   -1.3479   65.9777   72.0134 H   0  0  0  0  0  0  0  0  0  0  0  0
  2  1  1  0
  3  2  2  0
  4  3  1  0
  5  4  2  0
  6  5  1  0
  7  6  2  0
  7  2  1  0
  8  7  1  0
  9  8  2  0
 10  1  2  0
 10  9  1  0
 11 10  1  0
 12 11  2  0
 13 12  1  0
 14  9  1  0
 14 13  2  0
 16 15  1  0
 17 16  1  0
 18 17  2  0
 18  1  1  0
 19 18  1  0
 19 15  1  0
 21 20  1  0
 22 21  2  0
 23 22  1  0
 24 23  2  0
 24 15  1  0
 25 24  1  0
 26 21  1  0
 26 25  2  0
  3 27  1  0
  4 28  1  0
  5 29  1  0
  6 30  1  0
  8 31  1  0
 11 32  1  0
 12 33  1  0
 13 34  1  0
 14 35  1  0
 15 36  1  6
 16 37  1  0
 19 38  1  0
 19 39  1  0
 20 40  1  0
 20 41  1  0
 20 42  1  0
 22 43  1  0
 23 44  1  0
 25 45  1  0
 26 46  1  0
M  END
>  <score>  (6) 
-10.676

$$$$
=
     RDKit          3D

 46 50  0  0  0  0  0  0  0  0999 V2000
    1.8790   62.6490   72.2820 C   0  0  0  0  0  0  0  0  0  0  0  0
    1.4090   63.8390   71.6650 C   0  0  0  0  0  0  0  0  0  0  0  0
    0.1710   64.4600   71.9630 C   0  0  0  0  0  0  0  0  0  0  0  0
   -0.2390   65.6250   71.3120 C   0  0  0  0  0  0  0  0  0  0  0  0
    0.5780   66.2020   70.3500 C   0  0  0  0  0  0  0  0  0  0  0  0
    1.8060   65.6160   70.0440 C   0  0  0  0  0  0  0  0  0  0  0  0
    2.2320   64.4440   70.6910 C   0  0  0  0  0  0  0  0  0  0  0  0
    3.4740   63.8690   70.3750 C   0  0  0  0  0  0  0  0  0  0  0  0
    3.9380   62.7030   71.0050 C   0  0  0  0  0  0  0  0  0  0  0  0
    3.1410   62.0720   71.9820 C   0  0  0  0  0  0  0  0  0  0  0  0
    3.6520   60.9050   72.6020 C   0  0  0  0  0  0  0  0  0  0  0  0
    4.8990   60.3800   72.2570 C   0  0  0  0  0  0  0  0  0  0  0  0
    5.6660   61.0070   71.2850 C   0  0  0  0  0  0  0  0  0  0  0  0
    5.1890   62.1620   70.6660 C   0  0  0  0  0  0  0  0  0  0  0  0
   -0.7570   60.6880   73.9950 C   0  0  1  0  0  0  0  0  0  0  0  0
    0.0210   61.3590   75.0280 N   0  0  0  0  0  0  0  0  0  0  0  0
    0.9280   62.2370   74.4980 N   0  0  0  0  0  0  0  0  0  0  0  0
    0.9970   61.9570   73.2310 C   0  0  0  0  0  0  0  0  0  0  0  0
    0.1120   60.8390   72.7540 C   0  0  0  0  0  0  0  0  0  0  0  0
   -1.9350   55.1400   75.3470 C   0  0  0  0  0  0  0  0  0  0  0  0
   -1.6550   56.5650   74.9750 C   0  0  0  0  0  0  0  0  0  0  0  0
   -0.5190   56.8930   74.2270 C   0  0  0  0  0  0  0  0  0  0  0  0
   -0.2410   58.2240   73.9050 C   0  0  0  0  0  0  0  0  0  0  0  0
   -1.0900   59.2560   74.3290 C   0  0  0  0  0  0  0  0  0  0  0  0
   -2.2150   58.9230   75.0990 C   0  0  0  0  0  0  0  0  0  0  0  0
   -2.4920   57.5920   75.4210 C   0  0  0  0  0  0  0  0  0  0  0  0
   -0.4833   64.0133   72.7261 H   0  0  0  0  0  0  0  0  0  0  0  0
   -1.2070   66.0843   71.5609 H   0  0  0  0  0  0  0  0  0  0  0  0
    0.2584   67.1177   69.8310 H   0  0  0  0  0  0  0  0  0  0  0  0
    2.4517   66.0792   69.2834 H   0  0  0  0  0  0  0  0  0  0  0  0
    4.1031   64.3473   69.6098 H   0  0  0  0  0  0  0  0  0  0  0  0
    3.0520   60.4005   73.3736 H   0  0  0  0  0  0  0  0  0  0  0  0
    5.2723   59.4724   72.7540 H   0  0  0  0  0  0  0  0  0  0  0  0
    6.6463   60.5945   71.0040 H   0  0  0  0  0  0  0  0  0  0  0  0
    5.8028   62.6576   69.8994 H   0  0  0  0  0  0  0  0  0  0  0  0
   -1.7563   61.1290   73.8645 H   0  0  0  0  0  0  0  0  0  0  0  0
   -0.0973   61.1925   76.0375 H   0  0  0  0  0  0  0  0  0  0  0  0
   -0.4760   61.1253   71.8695 H   0  0  0  0  0  0  0  0  0  0  0  0
    0.6323   59.9279   72.4234 H   0  0  0  0  0  0  0  0  0  0  0  0
   -1.9539   55.0440   76.4426 H   0  0  0  0  0  0  0  0  0  0  0  0
   -2.9096   54.8384   74.9357 H   0  0  0  0  0  0  0  0  0  0  0  0
   -1.1470   54.4920   74.9357 H   0  0  0  0  0  0  0  0  0  0  0  0
    0.1608   56.0967   73.8897 H   0  0  0  0  0  0  0  0  0  0  0  0
    0.6538   58.4647   73.3123 H   0  0  0  0  0  0  0  0  0  0  0  0
   -2.8865   59.7191   75.4531 H   0  0  0  0  0  0  0  0  0  0  0  0
   -3.3755   57.3503   76.0301 H   0  0  0  0  0  0  0  0  0  0  0  0
  2  1  1  0
  3  2  2  0
  4  3  1  0
  5  4  2  0
  6  5  1  0
  7  6  2  0
  7  2  1  0
  8  7  1  0
  9  8  2  0
 10  1  2  0
 10  9  1  0
 11 10  1  0
 12 11  2  0
 13 12  1  0
 14  9  1  0
 14 13  2  0
 16 15  1  0
 17 16  1  0
 18 17  2  0
 18  1  1  0
 19 18  1  0
 19 15  1  0
 21 20  1  0
 22 21  2  0
 23 22  1  0
 24 23  2  0
 24 15  1  0
 25 24  1  0
 26 21  1  0
 26 25  2  0
  3 27  1  0
  4 28  1  0
  5 29  1  0
  6 30  1  0
  8 31  1  0
 11 32  1  0
 12 33  1  0
 13 34  1  0
 14 35  1  0
 15 36  1  6
 16 37  1  0
 19 38  1  0
 19 39  1  0
 20 40  1  0
 20 41  1  0
 20 42  1  0
 22 43  1  0
 23 44  1  0
 25 45  1  0
 26 46  1  0
M  END
>  <score>  (7) 
-10.217

$$$$
=
     RDKit          3D

 46 50  0  0  0  0  0  0  0  0999 V2000
    0.5040   67.6690   67.6960 C   0  0  0  0  0  0  0  0  0  0  0  0
    0.5640   66.7250   68.7560 C   0  0  0  0  0  0  0  0  0  0  0  0
    1.7430   66.3990   69.4710 C   0  0  0  0  0  0  0  0  0  0  0  0
    1.7390   65.4540   70.4980 C   0  0  0  0  0  0  0  0  0  0  0  0
    0.5560   64.8120   70.8400 C   0  0  0  0  0  0  0  0  0  0  0  0
   -0.6200   65.1210   70.1590 C   0  0  0  0  0  0  0  0  0  0  0  0
   -0.6310   66.0710   69.1240 C   0  0  0  0  0  0  0  0  0  0  0  0
   -1.8260   66.3750   68.4500 C   0  0  0  0  0  0  0  0  0  0  0  0
   -1.8790   67.3230   67.4160 C   0  0  0  0  0  0  0  0  0  0  0  0
   -0.7030   67.9960   67.0230 C   0  0  0  0  0  0  0  0  0  0  0  0
   -0.8030   68.9540   65.9840 C   0  0  0  0  0  0  0  0  0  0  0  0
   -2.0180   69.2250   65.3530 C   0  0  0  0  0  0  0  0  0  0  0  0
   -3.1650   68.5470   65.7450 C   0  0  0  0  0  0  0  0  0  0  0  0
   -3.0950   67.6050   66.7710 C   0  0  0  0  0  0  0  0  0  0  0  0
    3.4020   69.8730   67.0130 C   0  0  1  0  0  0  0  0  0  0  0  0
    3.5150   68.7240   66.1240 N   0  0  0  0  0  0  0  0  0  0  0  0
    2.4090   67.9190   66.1830 N   0  0  0  0  0  0  0  0  0  0  0  0
    1.7530   68.2920   67.2410 C   0  0  0  0  0  0  0  0  0  0  0  0
    2.3530   69.4280   68.0230 C   0  0  0  0  0  0  0  0  0  0  0  0
    8.4580   71.3390   69.5210 C   0  0  0  0  0  0  0  0  0  0  0  0
    7.1560   70.9930   68.8640 C   0  0  0  0  0  0  0  0  0  0  0  0
    5.9780   70.9210   69.6170 C   0  0  0  0  0  0  0  0  0  0  0  0
    4.7690   70.5700   69.0110 C   0  0  0  0  0  0  0  0  0  0  0  0
    4.7120   70.2780   67.6410 C   0  0  0  0  0  0  0  0  0  0  0  0
    5.9000   70.3290   66.8960 C   0  0  0  0  0  0  0  0  0  0  0  0
    7.1090   70.6800   67.5020 C   0  0  0  0  0  0  0  0  0  0  0  0
    2.6851   66.9034   69.2101 H   0  0  0  0  0  0  0  0  0  0  0  0
    2.6698   65.2185   71.0348 H   0  0  0  0  0  0  0  0  0  0  0  0
    0.5472   64.0626   71.6452 H   0  0  0  0  0  0  0  0  0  0  0  0
   -1.5552   64.6126   70.4365 H   0  0  0  0  0  0  0  0  0  0  0  0
   -2.7494   65.8534   68.7420 H   0  0  0  0  0  0  0  0  0  0  0  0
    0.0992   69.4976   65.6668 H   0  0  0  0  0  0  0  0  0  0  0  0
   -2.0670   69.9730   64.5480 H   0  0  0  0  0  0  0  0  0  0  0  0
   -4.1247   68.7522   65.2482 H   0  0  0  0  0  0  0  0  0  0  0  0
   -4.0072   67.0738   67.0805 H   0  0  0  0  0  0  0  0  0  0  0  0
    3.1111   70.7914   66.4820 H   0  0  0  0  0  0  0  0  0  0  0  0
    4.3304   68.5392   65.5224 H   0  0  0  0  0  0  0  0  0  0  0  0
    1.6185   70.2195   68.2328 H   0  0  0  0  0  0  0  0  0  0  0  0
    2.7333   69.1698   69.0223 H   0  0  0  0  0  0  0  0  0  0  0  0
    8.3372   71.3069   70.6139 H   0  0  0  0  0  0  0  0  0  0  0  0
    9.2269   70.6140   69.2156 H   0  0  0  0  0  0  0  0  0  0  0  0
    8.7655   72.3500   69.2156 H   0  0  0  0  0  0  0  0  0  0  0  0
    6.0044   71.1425   70.6941 H   0  0  0  0  0  0  0  0  0  0  0  0
    3.8514   70.5222   69.6158 H   0  0  0  0  0  0  0  0  0  0  0  0
    5.8792   70.0899   65.8225 H   0  0  0  0  0  0  0  0  0  0  0  0
    8.0311   70.7104   66.9030 H   0  0  0  0  0  0  0  0  0  0  0  0
  2  1  1  0
  3  2  2  0
  4  3  1  0
  5  4  2  0
  6  5  1  0
  7  6  2  0
  7  2  1  0
  8  7  1  0
  9  8  2  0
 10  1  2  0
 10  9  1  0
 11 10  1  0
 12 11  2  0
 13 12  1  0
 14  9  1  0
 14 13  2  0
 16 15  1  0
 17 16  1  0
 18 17  2  0
 18  1  1  0
 19 18  1  0
 19 15  1  0
 21 20  1  0
 22 21  2  0
 23 22  1  0
 24 23  2  0
 24 15  1  0
 25 24  1  0
 26 21  1  0
 26 25  2  0
  3 27  1  0
  4 28  1  0
  5 29  1  0
  6 30  1  0
  8 31  1  0
 11 32  1  0
 12 33  1  0
 13 34  1  0
 14 35  1  0
 15 36  1  6
 16 37  1  0
 19 38  1  0
 19 39  1  0
 20 40  1  0
 20 41  1  0
 20 42  1  0
 22 43  1  0
 23 44  1  0
 25 45  1  0
 26 46  1  0
M  END
>  <score>  (8) 
-10.111

$$$$
=
     RDKit          3D

 46 50  0  0  0  0  0  0  0  0999 V2000
    1.7780   62.6030   72.1800 C   0  0  0  0  0  0  0  0  0  0  0  0
    3.0240   61.9690   71.9300 C   0  0  0  0  0  0  0  0  0  0  0  0
    3.4300   60.7430   72.5150 C   0  0  0  0  0  0  0  0  0  0  0  0
    4.6750   60.1760   72.2360 C   0  0  0  0  0  0  0  0  0  0  0  0
    5.5450   60.8160   71.3640 C   0  0  0  0  0  0  0  0  0  0  0  0
    5.1660   62.0180   70.7680 C   0  0  0  0  0  0  0  0  0  0  0  0
    3.9170   62.6000   71.0390 C   0  0  0  0  0  0  0  0  0  0  0  0
    3.5490   63.8100   70.4260 C   0  0  0  0  0  0  0  0  0  0  0  0
    2.3070   64.4190   70.6650 C   0  0  0  0  0  0  0  0  0  0  0  0
    1.3900   63.8150   71.5520 C   0  0  0  0  0  0  0  0  0  0  0  0
    0.1430   64.4560   71.7540 C   0  0  0  0  0  0  0  0  0  0  0  0
   -0.1760   65.6540   71.1130 C   0  0  0  0  0  0  0  0  0  0  0  0
    0.7410   66.2410   70.2510 C   0  0  0  0  0  0  0  0  0  0  0  0
    1.9720   65.6260   70.0280 C   0  0  0  0  0  0  0  0  0  0  0  0
   -0.9520   60.9080   74.0240 C   0  0  1  0  0  0  0  0  0  0  0  0
   -0.0850   61.5310   75.0150 N   0  0  0  0  0  0  0  0  0  0  0  0
    0.8740   62.3180   74.4350 N   0  0  0  0  0  0  0  0  0  0  0  0
    0.8750   62.0070   73.1740 C   0  0  0  0  0  0  0  0  0  0  0  0
   -0.1170   60.9590   72.7510 C   0  0  0  0  0  0  0  0  0  0  0  0
   -2.5550   55.5150   75.5570 C   0  0  0  0  0  0  0  0  0  0  0  0
   -2.1630   56.9000   75.1360 C   0  0  0  0  0  0  0  0  0  0  0  0
   -0.9460   57.1260   74.4860 C   0  0  0  0  0  0  0  0  0  0  0  0
   -0.5660   58.4210   74.1200 C   0  0  0  0  0  0  0  0  0  0  0  0
   -1.3940   59.5160   74.4010 C   0  0  0  0  0  0  0  0  0  0  0  0
   -2.6030   59.2860   75.0750 C   0  0  0  0  0  0  0  0  0  0  0  0
   -2.9820   57.9910   75.4400 C   0  0  0  0  0  0  0  0  0  0  0  0
    2.7475   60.2259   73.2055 H   0  0  0  0  0  0  0  0  0  0  0  0
    4.9656   59.2248   72.7059 H   0  0  0  0  0  0  0  0  0  0  0  0
    6.5292   60.3767   71.1442 H   0  0  0  0  0  0  0  0  0  0  0  0
    5.8569   62.5189   70.0739 H   0  0  0  0  0  0  0  0  0  0  0  0
    4.2564   64.2950   69.7373 H   0  0  0  0  0  0  0  0  0  0  0  0
   -0.5918   63.9984   72.4326 H   0  0  0  0  0  0  0  0  0  0  0  0
   -1.1509   66.1318   71.2901 H   0  0  0  0  0  0  0  0  0  0  0  0
    0.4970   67.1874   69.7462 H   0  0  0  0  0  0  0  0  0  0  0  0
    2.6934   66.0935   69.3417 H   0  0  0  0  0  0  0  0  0  0  0  0
   -1.9141   61.4304   73.9170 H   0  0  0  0  0  0  0  0  0  0  0  0
   -0.1818   61.3956   76.0315 H   0  0  0  0  0  0  0  0  0  0  0  0
   -0.7089   61.2767   71.8800 H   0  0  0  0  0  0  0  0  0  0  0  0
    0.3124   60.0006   72.4237 H   0  0  0  0  0  0  0  0  0  0  0  0
   -2.5716   55.4565   76.6553 H   0  0  0  0  0  0  0  0  0  0  0  0
   -3.5547   55.2809   75.1622 H   0  0  0  0  0  0  0  0  0  0  0  0
   -1.8263   54.7917   75.1622 H   0  0  0  0  0  0  0  0  0  0  0  0
   -0.2821   56.2784   74.2607 H   0  0  0  0  0  0  0  0  0  0  0  0
    0.3931   58.5818   73.6060 H   0  0  0  0  0  0  0  0  0  0  0  0
   -3.2597   60.1341   75.3188 H   0  0  0  0  0  0  0  0  0  0  0  0
   -3.9320   57.8293   75.9705 H   0  0  0  0  0  0  0  0  0  0  0  0
  2  1  1  0
  3  2  2  0
  4  3  1  0
  5  4  2  0
  6  5  1  0
  7  6  2  0
  7  2  1  0
  8  7  1  0
  9  8  2  0
 10  1  2  0
 10  9  1  0
 11 10  1  0
 12 11  2  0
 13 12  1  0
 14  9  1  0
 14 13  2  0
 16 15  1  0
 17 16  1  0
 18 17  2  0
 18  1  1  0
 19 18  1  0
 19 15  1  0
 21 20  1  0
 22 21  2  0
 23 22  1  0
 24 23  2  0
 24 15  1  0
 25 24  1  0
 26 21  1  0
 26 25  2  0
  3 27  1  0
  4 28  1  0
  5 29  1  0
  6 30  1  0
  8 31  1  0
 11 32  1  0
 12 33  1  0
 13 34  1  0
 14 35  1  0
 15 36  1  6
 16 37  1  0
 19 38  1  0
 19 39  1  0
 20 40  1  0
 20 41  1  0
 20 42  1  0
 22 43  1  0
 23 44  1  0
 25 45  1  0
 26 46  1  0
M  END
>  <score>  (9) 
-9.96

$$$$
