=
     RDKit          3D

 31 31  0  0  0  0  0  0  0  0999 V2000
    3.6950   68.5960   63.3530 C   0  0  0  0  0  0  0  0  0  0  0  0
    2.2650   68.6800   62.5020 S   0  0  0  0  0  0  0  0  0  0  0  0
    3.8860   69.3870   64.4480 N   0  0  0  0  0  0  0  0  0  0  0  0
    3.4530   69.1560   65.8150 C   0  0  0  0  0  0  0  0  0  0  0  0
    4.4270   69.7610   66.7880 C   0  0  0  0  0  0  0  0  0  0  0  0
    5.7830   69.8860   66.4540 C   0  0  0  0  0  0  0  0  0  0  0  0
    6.6900   70.4200   67.3710 C   0  0  0  0  0  0  0  0  0  0  0  0
    6.2530   70.8260   68.6310 C   0  0  0  0  0  0  0  0  0  0  0  0
    4.9100   70.6960   68.9770 C   0  0  0  0  0  0  0  0  0  0  0  0
    4.0000   70.1610   68.0620 C   0  0  0  0  0  0  0  0  0  0  0  0
    4.9840   67.4990   62.9120 S   0  0  0  0  0  0  0  0  0  0  0  0
    4.0330   65.9330   62.9620 C   0  0  0  0  0  0  0  0  0  0  0  0
    3.7530   65.5290   64.4050 C   0  0  1  0  0  0  0  0  0  0  0  0
    2.2840   65.7470   64.7480 N   0  0  0  0  0  4  0  0  0  0  0  0
    4.0750   64.0170   64.4800 C   0  0  0  0  0  0  0  0  0  0  0  0
    4.6280   63.4970   63.4890 O   0  0  0  0  0  0  0  0  0  0  0  0
    3.6910   63.5560   65.6050 O   0  0  0  0  0  1  0  0  0  0  0  0
    4.4046   70.2616   64.2840 H   0  0  0  0  0  0  0  0  0  0  0  0
    2.4633   69.6129   65.9628 H   0  0  0  0  0  0  0  0  0  0  0  0
    3.4018   68.0716   65.9924 H   0  0  0  0  0  0  0  0  0  0  0  0
    6.1342   69.5613   65.4634 H   0  0  0  0  0  0  0  0  0  0  0  0
    7.7511   70.5206   67.0990 H   0  0  0  0  0  0  0  0  0  0  0  0
    6.9684   71.2488   69.3517 H   0  0  0  0  0  0  0  0  0  0  0  0
    4.5656   71.0150   69.9718 H   0  0  0  0  0  0  0  0  0  0  0  0
    2.9420   70.0529   68.3429 H   0  0  0  0  0  0  0  0  0  0  0  0
    3.0789   66.0710   62.4323 H   0  0  0  0  0  0  0  0  0  0  0  0
    4.6226   65.1411   62.4770 H   0  0  0  0  0  0  0  0  0  0  0  0
    4.3519   66.1246   65.1097 H   0  0  0  0  0  0  0  0  0  0  0  0
    2.1693   65.7640   65.7714 H   0  0  0  0  0  0  0  0  0  0  0  0
    1.9685   66.6440   64.3522 H   0  0  0  0  0  0  0  0  0  0  0  0
    1.7216   64.9803   64.3522 H   0  0  0  0  0  0  0  0  0  0  0  0
  2  1  2  0
  3  1  1  0
  4  3  1  0
  5  4  1  0
  6  5  2  0
  7  6  1  0
  8  7  2  0
  9  8  1  0
 10  9  2  0
 10  5  1  0
 11  1  1  0
 12 11  1  0
 13 12  1  0
 14 13  1  0
 15 13  1  0
 16 15  2  0
 17 15  1  0
  3 18  1  0
  4 19  1  0
  4 20  1  0
  6 21  1  0
  7 22  1  0
  8 23  1  0
  9 24  1  0
 10 25  1  0
 12 26  1  0
 12 27  1  0
 13 28  1  1
 14 29  1  0
 14 30  1  0
 14 31  1  0
M  CHG  2  14   1  17  -1
M  END
>  <score>  (1) 
-7.732

$$$$
=
     RDKit          3D

 31 31  0  0  0  0  0  0  0  0999 V2000
    2.4820   68.7070   63.8490 C   0  0  0  0  0  0  0  0  0  0  0  0
    3.3380   68.4010   62.4510 S   0  0  0  0  0  0  0  0  0  0  0  0
    3.1460   68.9930   65.0060 N   0  0  0  0  0  0  0  0  0  0  0  0
    4.5770   69.1170   65.2190 C   0  0  0  0  0  0  0  0  0  0  0  0
    4.8620   69.7150   66.5690 C   0  0  0  0  0  0  0  0  0  0  0  0
    3.8330   69.8800   67.5070 C   0  0  0  0  0  0  0  0  0  0  0  0
    4.0930   70.4630   68.7480 C   0  0  0  0  0  0  0  0  0  0  0  0
    5.3830   70.8930   69.0610 C   0  0  0  0  0  0  0  0  0  0  0  0
    6.4100   70.7440   68.1320 C   0  0  0  0  0  0  0  0  0  0  0  0
    6.1520   70.1620   66.8900 C   0  0  0  0  0  0  0  0  0  0  0  0
    0.7350   68.7030   63.8970 S   0  0  0  0  0  0  0  0  0  0  0  0
    0.5150   68.4420   65.6970 C   0  0  0  0  0  0  0  0  0  0  0  0
   -0.9070   68.8010   66.1140 C   0  0  1  0  0  0  0  0  0  0  0  0
   -1.8240   68.8600   64.8990 N   0  0  0  0  0  4  0  0  0  0  0  0
   -1.3660   67.6520   67.0440 C   0  0  0  0  0  0  0  0  0  0  0  0
   -0.5490   66.7380   67.2760 O   0  0  0  0  0  0  0  0  0  0  0  0
   -2.5650   67.8650   67.4210 O   0  0  0  0  0  1  0  0  0  0  0  0
    2.5552   69.1402   65.8368 H   0  0  0  0  0  0  0  0  0  0  0  0
    5.0388   68.1203   65.1605 H   0  0  0  0  0  0  0  0  0  0  0  0
    4.9948   69.7764   64.4440 H   0  0  0  0  0  0  0  0  0  0  0  0
    2.8133   69.5475   67.2629 H   0  0  0  0  0  0  0  0  0  0  0  0
    3.2806   70.5836   69.4798 H   0  0  0  0  0  0  0  0  0  0  0  0
    5.5887   71.3492   70.0406 H   0  0  0  0  0  0  0  0  0  0  0  0
    7.4263   71.0857   68.3777 H   0  0  0  0  0  0  0  0  0  0  0  0
    6.9658   70.0532   66.1580 H   0  0  0  0  0  0  0  0  0  0  0  0
    0.7077   67.3859   65.9367 H   0  0  0  0  0  0  0  0  0  0  0  0
    1.2209   69.0869   66.2409 H   0  0  0  0  0  0  0  0  0  0  0  0
   -0.9427   69.7841   66.6063 H   0  0  0  0  0  0  0  0  0  0  0  0
   -2.8036   68.9230   65.2109 H   0  0  0  0  0  0  0  0  0  0  0  0
   -1.5902   69.6877   64.3323 H   0  0  0  0  0  0  0  0  0  0  0  0
   -1.6982   68.0092   64.3323 H   0  0  0  0  0  0  0  0  0  0  0  0
  2  1  2  0
  3  1  1  0
  4  3  1  0
  5  4  1  0
  6  5  2  0
  7  6  1  0
  8  7  2  0
  9  8  1  0
 10  9  2  0
 10  5  1  0
 11  1  1  0
 12 11  1  0
 13 12  1  0
 14 13  1  0
 15 13  1  0
 16 15  2  0
 17 15  1  0
  3 18  1  0
  4 19  1  0
  4 20  1  0
  6 21  1  0
  7 22  1  0
  8 23  1  0
  9 24  1  0
 10 25  1  0
 12 26  1  0
 12 27  1  0
 13 28  1  1
 14 29  1  0
 14 30  1  0
 14 31  1  0
M  CHG  2  14   1  17  -1
M  END
>  <score>  (2) 
-7.67

$$$$
=
     RDKit          3D

 31 31  0  0  0  0  0  0  0  0999 V2000
    1.2340   68.5000   65.3680 C   0  0  0  0  0  0  0  0  0  0  0  0
   -0.1370   68.3380   66.3010 S   0  0  0  0  0  0  0  0  0  0  0  0
    2.3810   68.9920   65.9190 N   0  0  0  0  0  0  0  0  0  0  0  0
    2.6140   69.4180   67.2880 C   0  0  0  0  0  0  0  0  0  0  0  0
    4.0320   69.8860   67.4630 C   0  0  0  0  0  0  0  0  0  0  0  0
    4.9680   69.7230   66.4330 C   0  0  0  0  0  0  0  0  0  0  0  0
    6.2920   70.1310   66.6080 C   0  0  0  0  0  0  0  0  0  0  0  0
    6.6930   70.6990   67.8170 C   0  0  0  0  0  0  0  0  0  0  0  0
    5.7730   70.8560   68.8520 C   0  0  0  0  0  0  0  0  0  0  0  0
    4.4490   70.4480   68.6780 C   0  0  0  0  0  0  0  0  0  0  0  0
    1.2790   68.0380   63.6820 S   0  0  0  0  0  0  0  0  0  0  0  0
    2.9470   68.6750   63.2730 C   0  0  0  0  0  0  0  0  0  0  0  0
    3.4750   68.0020   62.0100 C   0  0  1  0  0  0  0  0  0  0  0  0
    3.7140   69.0320   60.9130 N   0  0  0  0  0  4  0  0  0  0  0  0
    4.8280   67.3680   62.4160 C   0  0  0  0  0  0  0  0  0  0  0  0
    4.8620   66.1300   62.5630 O   0  0  0  0  0  0  0  0  0  0  0  0
    5.7080   68.2840   62.5310 O   0  0  0  0  0  1  0  0  0  0  0  0
    3.1861   69.0717   65.2816 H   0  0  0  0  0  0  0  0  0  0  0  0
    1.9284   70.2431   67.5314 H   0  0  0  0  0  0  0  0  0  0  0  0
    2.4368   68.5650   67.9596 H   0  0  0  0  0  0  0  0  0  0  0  0
    4.6576   69.2704   65.4797 H   0  0  0  0  0  0  0  0  0  0  0  0
    7.0188   70.0044   65.7921 H   0  0  0  0  0  0  0  0  0  0  0  0
    7.7353   71.0230   67.9536 H   0  0  0  0  0  0  0  0  0  0  0  0
    6.0900   71.3015   69.8065 H   0  0  0  0  0  0  0  0  0  0  0  0
    3.7280   70.5683   69.5000 H   0  0  0  0  0  0  0  0  0  0  0  0
    2.8906   69.7612   63.1090 H   0  0  0  0  0  0  0  0  0  0  0  0
    3.6289   68.4551   64.1077 H   0  0  0  0  0  0  0  0  0  0  0  0
    2.7592   67.2619   61.6229 H   0  0  0  0  0  0  0  0  0  0  0  0
    3.9259   69.9452   61.3397 H   0  0  0  0  0  0  0  0  0  0  0  0
    4.5081   68.7335   60.3288 H   0  0  0  0  0  0  0  0  0  0  0  0
    2.8696   69.1136   60.3288 H   0  0  0  0  0  0  0  0  0  0  0  0
  2  1  2  0
  3  1  1  0
  4  3  1  0
  5  4  1  0
  6  5  2  0
  7  6  1  0
  8  7  2  0
  9  8  1  0
 10  9  2  0
 10  5  1  0
 11  1  1  0
 12 11  1  0
 13 12  1  0
 14 13  1  0
 15 13  1  0
 16 15  2  0
 17 15  1  0
  3 18  1  0
  4 19  1  0
  4 20  1  0
  6 21  1  0
  7 22  1  0
  8 23  1  0
  9 24  1  0
 10 25  1  0
 12 26  1  0
 12 27  1  0
 13 28  1  6
 14 29  1  0
 14 30  1  0
 14 31  1  0
M  CHG  2  14   1  17  -1
M  END
>  <score>  (3) 
-7.51

$$$$
=
     RDKit          3D

 31 31  0  0  0  0  0  0  0  0999 V2000
    1.3900   68.1480   66.8190 C   0  0  0  0  0  0  0  0  0  0  0  0
    0.3030   67.5140   67.9110 S   0  0  0  0  0  0  0  0  0  0  0  0
    1.9600   69.3660   67.0510 N   0  0  0  0  0  0  0  0  0  0  0  0
    2.6240   69.8370   68.2540 C   0  0  0  0  0  0  0  0  0  0  0  0
    4.0750   70.1210   67.9820 C   0  0  0  0  0  0  0  0  0  0  0  0
    4.6420   69.8050   66.7390 C   0  0  0  0  0  0  0  0  0  0  0  0
    5.9970   70.0410   66.4990 C   0  0  0  0  0  0  0  0  0  0  0  0
    6.7980   70.5890   67.5000 C   0  0  0  0  0  0  0  0  0  0  0  0
    6.2470   70.8960   68.7420 C   0  0  0  0  0  0  0  0  0  0  0  0
    4.8930   70.6600   68.9850 C   0  0  0  0  0  0  0  0  0  0  0  0
    1.8650   67.2950   65.3680 S   0  0  0  0  0  0  0  0  0  0  0  0
    1.7710   68.6950   64.1890 C   0  0  0  0  0  0  0  0  0  0  0  0
    0.7680   68.3890   63.0830 C   0  0  1  0  0  0  0  0  0  0  0  0
   -0.5860   69.0130   63.3980 N   0  0  0  0  0  4  0  0  0  0  0  0
    1.3480   69.0490   61.8080 C   0  0  0  0  0  0  0  0  0  0  0  0
    0.6020   69.8190   61.1690 O   0  0  0  0  0  0  0  0  0  0  0  0
    2.5490   68.6590   61.6370 O   0  0  0  0  0  1  0  0  0  0  0  0
    1.9133   70.0384   66.2722 H   0  0  0  0  0  0  0  0  0  0  0  0
    2.1340   70.7591   68.5997 H   0  0  0  0  0  0  0  0  0  0  0  0
    2.5545   69.0562   69.0257 H   0  0  0  0  0  0  0  0  0  0  0  0
    4.0150   69.3682   65.9477 H   0  0  0  0  0  0  0  0  0  0  0  0
    6.4329   69.7944   65.5196 H   0  0  0  0  0  0  0  0  0  0  0  0
    7.8645   70.7788   67.3091 H   0  0  0  0  0  0  0  0  0  0  0  0
    6.8801   71.3252   69.5326 H   0  0  0  0  0  0  0  0  0  0  0  0
    4.4649   70.8984   69.9698 H   0  0  0  0  0  0  0  0  0  0  0  0
    1.4537   69.6010   64.7261 H   0  0  0  0  0  0  0  0  0  0  0  0
    2.7627   68.8512   63.7394 H   0  0  0  0  0  0  0  0  0  0  0  0
    0.6174   67.3053   62.9691 H   0  0  0  0  0  0  0  0  0  0  0  0
   -0.7088   69.0696   64.4191 H   0  0  0  0  0  0  0  0  0  0  0  0
   -0.6302   69.9594   62.9939 H   0  0  0  0  0  0  0  0  0  0  0  0
   -1.3342   68.4318   62.9939 H   0  0  0  0  0  0  0  0  0  0  0  0
  2  1  2  0
  3  1  1  0
  4  3  1  0
  5  4  1  0
  6  5  2  0
  7  6  1  0
  8  7  2  0
  9  8  1  0
 10  9  2  0
 10  5  1  0
 11  1  1  0
 12 11  1  0
 13 12  1  0
 14 13  1  0
 15 13  1  0
 16 15  2  0
 17 15  1  0
  3 18  1  0
  4 19  1  0
  4 20  1  0
  6 21  1  0
  7 22  1  0
  8 23  1  0
  9 24  1  0
 10 25  1  0
 12 26  1  0
 12 27  1  0
 13 28  1  6
 14 29  1  0
 14 30  1  0
 14 31  1  0
M  CHG  2  14   1  17  -1
M  END
>  <score>  (4) 
-7.468

$$$$
=
     RDKit          3D

 31 31  0  0  0  0  0  0  0  0999 V2000
    2.9010   68.3320   64.0410 C   0  0  0  0  0  0  0  0  0  0  0  0
    2.8100   68.3530   62.3770 S   0  0  0  0  0  0  0  0  0  0  0  0
    3.6020   69.3010   64.6990 N   0  0  0  0  0  0  0  0  0  0  0  0
    4.9970   69.2870   65.1060 C   0  0  0  0  0  0  0  0  0  0  0  0
    5.1480   69.8390   66.4970 C   0  0  0  0  0  0  0  0  0  0  0  0
    6.4070   70.2240   66.9770 C   0  0  0  0  0  0  0  0  0  0  0  0
    6.5500   70.7080   68.2790 C   0  0  0  0  0  0  0  0  0  0  0  0
    5.4370   70.8050   69.1140 C   0  0  0  0  0  0  0  0  0  0  0  0
    4.1830   70.4140   68.6500 C   0  0  0  0  0  0  0  0  0  0  0  0
    4.0380   69.9290   67.3490 C   0  0  0  0  0  0  0  0  0  0  0  0
    2.1040   67.1130   65.0080 S   0  0  0  0  0  0  0  0  0  0  0  0
    0.7800   68.1590   65.7220 C   0  0  0  0  0  0  0  0  0  0  0  0
    0.6300   67.8780   67.2140 C   0  0  1  0  0  0  0  0  0  0  0  0
    0.6100   69.1800   68.0050 N   0  0  0  0  0  4  0  0  0  0  0  0
   -0.7380   67.1690   67.3640 C   0  0  0  0  0  0  0  0  0  0  0  0
   -1.6120   67.4180   66.5090 O   0  0  0  0  0  0  0  0  0  0  0  0
   -0.7170   66.4200   68.3950 O   0  0  0  0  0  1  0  0  0  0  0  0
    3.0738   70.1524   64.9380 H   0  0  0  0  0  0  0  0  0  0  0  0
    5.3693   68.2521   65.0853 H   0  0  0  0  0  0  0  0  0  0  0  0
    5.5756   69.9134   64.4111 H   0  0  0  0  0  0  0  0  0  0  0  0
    7.2885   70.1444   66.3238 H   0  0  0  0  0  0  0  0  0  0  0  0
    7.5410   71.0129   68.6463 H   0  0  0  0  0  0  0  0  0  0  0  0
    5.5493   71.1900   70.1383 H   0  0  0  0  0  0  0  0  0  0  0  0
    3.3058   70.4875   69.3097 H   0  0  0  0  0  0  0  0  0  0  0  0
    3.0466   69.6154   66.9900 H   0  0  0  0  0  0  0  0  0  0  0  0
    1.0365   69.2187   65.5763 H   0  0  0  0  0  0  0  0  0  0  0  0
   -0.1697   67.9283   65.2172 H   0  0  0  0  0  0  0  0  0  0  0  0
    1.4652   67.2705   67.5926 H   0  0  0  0  0  0  0  0  0  0  0  0
    0.6132   68.9693   69.0132 H   0  0  0  0  0  0  0  0  0  0  0  0
    1.4425   69.7384   67.7683 H   0  0  0  0  0  0  0  0  0  0  0  0
   -0.2393   69.7125   67.7683 H   0  0  0  0  0  0  0  0  0  0  0  0
  2  1  2  0
  3  1  1  0
  4  3  1  0
  5  4  1  0
  6  5  2  0
  7  6  1  0
  8  7  2  0
  9  8  1  0
 10  9  2  0
 10  5  1  0
 11  1  1  0
 12 11  1  0
 13 12  1  0
 14 13  1  0
 15 13  1  0
 16 15  2  0
 17 15  1  0
  3 18  1  0
  4 19  1  0
  4 20  1  0
  6 21  1  0
  7 22  1  0
  8 23  1  0
  9 24  1  0
 10 25  1  0
 12 26  1  0
 12 27  1  0
 13 28  1  1
 14 29  1  0
 14 30  1  0
 14 31  1  0
M  CHG  2  14   1  17  -1
M  END
>  <score>  (5) 
-7.458

$$$$
=
     RDKit          3D

 31 31  0  0  0  0  0  0  0  0999 V2000
    1.0770   68.6360   67.5470 C   0  0  0  0  0  0  0  0  0  0  0  0
    1.1010   67.4530   68.7210 S   0  0  0  0  0  0  0  0  0  0  0  0
    1.8470   69.7540   67.6880 N   0  0  0  0  0  0  0  0  0  0  0  0
    2.7710   70.0840   68.7600 C   0  0  0  0  0  0  0  0  0  0  0  0
    4.1720   70.2120   68.2300 C   0  0  0  0  0  0  0  0  0  0  0  0
    5.1890   70.7550   69.0290 C   0  0  0  0  0  0  0  0  0  0  0  0
    6.4820   70.9010   68.5250 C   0  0  0  0  0  0  0  0  0  0  0  0
    6.7700   70.5130   67.2170 C   0  0  0  0  0  0  0  0  0  0  0  0
    5.7640   69.9830   66.4110 C   0  0  0  0  0  0  0  0  0  0  0  0
    4.4700   69.8370   66.9130 C   0  0  0  0  0  0  0  0  0  0  0  0
    0.1070   68.4990   66.0990 S   0  0  0  0  0  0  0  0  0  0  0  0
    1.4580   68.5730   64.8620 C   0  0  0  0  0  0  0  0  0  0  0  0
    2.2980   67.3020   64.9190 C   0  0  1  0  0  0  0  0  0  0  0  0
    1.4070   66.0670   64.8760 N   0  0  0  0  0  4  0  0  0  0  0  0
    3.1830   67.3360   63.6490 C   0  0  0  0  0  0  0  0  0  0  0  0
    2.8960   68.1750   62.7710 O   0  0  0  0  0  0  0  0  0  0  0  0
    4.0920   66.4470   63.7420 O   0  0  0  0  0  1  0  0  0  0  0  0
    1.7622   70.4544   66.9376 H   0  0  0  0  0  0  0  0  0  0  0  0
    2.4688   71.0378   69.2170 H   0  0  0  0  0  0  0  0  0  0  0  0
    2.7473   69.2789   69.5091 H   0  0  0  0  0  0  0  0  0  0  0  0
    4.9658   71.0678   70.0597 H   0  0  0  0  0  0  0  0  0  0  0  0
    7.2749   71.3226   69.1602 H   0  0  0  0  0  0  0  0  0  0  0  0
    7.7903   70.6251   66.8216 H   0  0  0  0  0  0  0  0  0  0  0  0
    5.9902   69.6795   65.3782 H   0  0  0  0  0  0  0  0  0  0  0  0
    3.6783   69.4246   66.2703 H   0  0  0  0  0  0  0  0  0  0  0  0
    1.0241   68.6764   63.8565 H   0  0  0  0  0  0  0  0  0  0  0  0
    2.1009   69.4371   65.0857 H   0  0  0  0  0  0  0  0  0  0  0  0
    2.8884   67.2549   65.8459 H   0  0  0  0  0  0  0  0  0  0  0  0
    1.1902   65.7665   65.8370 H   0  0  0  0  0  0  0  0  0  0  0  0
    0.5322   66.2918   64.3810 H   0  0  0  0  0  0  0  0  0  0  0  0
    1.8962   65.3077   64.3810 H   0  0  0  0  0  0  0  0  0  0  0  0
  2  1  2  0
  3  1  1  0
  4  3  1  0
  5  4  1  0
  6  5  2  0
  7  6  1  0
  8  7  2  0
  9  8  1  0
 10  9  2  0
 10  5  1  0
 11  1  1  0
 12 11  1  0
 13 12  1  0
 14 13  1  0
 15 13  1  0
 16 15  2  0
 17 15  1  0
  3 18  1  0
  4 19  1  0
  4 20  1  0
  6 21  1  0
  7 22  1  0
  8 23  1  0
  9 24  1  0
 10 25  1  0
 12 26  1  0
 12 27  1  0
 13 28  1  1
 14 29  1  0
 14 30  1  0
 14 31  1  0
M  CHG  2  14   1  17  -1
M  END
>  <score>  (6) 
-7.192

$$$$
=
     RDKit          3D

 31 31  0  0  0  0  0  0  0  0999 V2000
    2.6480   69.4450   67.9680 C   0  0  0  0  0  0  0  0  0  0  0  0
    3.3630   70.4870   69.0550 S   0  0  0  0  0  0  0  0  0  0  0  0
    2.9880   69.4970   66.6480 N   0  0  0  0  0  0  0  0  0  0  0  0
    4.3150   69.4900   66.0570 C   0  0  0  0  0  0  0  0  0  0  0  0
    4.2330   69.2440   64.5760 C   0  0  0  0  0  0  0  0  0  0  0  0
    3.0400   68.7930   63.9930 C   0  0  0  0  0  0  0  0  0  0  0  0
    2.9750   68.5360   62.6220 C   0  0  0  0  0  0  0  0  0  0  0  0
    4.1040   68.7200   61.8230 C   0  0  0  0  0  0  0  0  0  0  0  0
    5.2970   69.1560   62.3940 C   0  0  0  0  0  0  0  0  0  0  0  0
    5.3640   69.4130   63.7650 C   0  0  0  0  0  0  0  0  0  0  0  0
    1.4720   68.2470   68.4550 S   0  0  0  0  0  0  0  0  0  0  0  0
    0.6470   68.0050   66.8370 C   0  0  0  0  0  0  0  0  0  0  0  0
   -0.6400   67.2060   67.0130 C   0  0  1  0  0  0  0  0  0  0  0  0
   -0.6590   66.5120   68.3700 N   0  0  0  0  0  4  0  0  0  0  0  0
   -1.7820   68.2490   66.9590 C   0  0  0  0  0  0  0  0  0  0  0  0
   -1.5450   69.3330   66.3890 O   0  0  0  0  0  0  0  0  0  0  0  0
   -2.8140   67.7780   67.5400 O   0  0  0  0  0  1  0  0  0  0  0  0
    2.2020   69.5478   65.9843 H   0  0  0  0  0  0  0  0  0  0  0  0
    4.7956   70.4632   66.2358 H   0  0  0  0  0  0  0  0  0  0  0  0
    4.9046   68.6841   66.5184 H   0  0  0  0  0  0  0  0  0  0  0  0
    2.1492   68.6406   64.6201 H   0  0  0  0  0  0  0  0  0  0  0  0
    2.0335   68.1884   62.1718 H   0  0  0  0  0  0  0  0  0  0  0  0
    4.0517   68.5207   60.7425 H   0  0  0  0  0  0  0  0  0  0  0  0
    6.1877   69.2981   61.7643 H   0  0  0  0  0  0  0  0  0  0  0  0
    6.3109   69.7504   64.2117 H   0  0  0  0  0  0  0  0  0  0  0  0
    0.4081   68.9863   66.4012 H   0  0  0  0  0  0  0  0  0  0  0  0
    1.3236   67.4508   66.1698 H   0  0  0  0  0  0  0  0  0  0  0  0
   -0.7377   66.4299   66.2396 H   0  0  0  0  0  0  0  0  0  0  0  0
   -0.6396   67.2199   69.1180 H   0  0  0  0  0  0  0  0  0  0  0  0
   -1.5158   65.9466   68.4545 H   0  0  0  0  0  0  0  0  0  0  0  0
    0.1656   65.9006   68.4545 H   0  0  0  0  0  0  0  0  0  0  0  0
  2  1  2  0
  3  1  1  0
  4  3  1  0
  5  4  1  0
  6  5  2  0
  7  6  1  0
  8  7  2  0
  9  8  1  0
 10  9  2  0
 10  5  1  0
 11  1  1  0
 12 11  1  0
 13 12  1  0
 14 13  1  0
 15 13  1  0
 16 15  2  0
 17 15  1  0
  3 18  1  0
  4 19  1  0
  4 20  1  0
  6 21  1  0
  7 22  1  0
  8 23  1  0
  9 24  1  0
 10 25  1  0
 12 26  1  0
 12 27  1  0
 13 28  1  6
 14 29  1  0
 14 30  1  0
 14 31  1  0
M  CHG  2  14   1  17  -1
M  END
>  <score>  (7) 
-6.916

$$$$
=
     RDKit          3D

 31 31  0  0  0  0  0  0  0  0999 V2000
    4.5710   69.4680   65.9870 C   0  0  0  0  0  0  0  0  0  0  0  0
    5.6660   70.2250   66.9890 S   0  0  0  0  0  0  0  0  0  0  0  0
    3.2510   69.4210   66.3300 N   0  0  0  0  0  0  0  0  0  0  0  0
    2.6660   69.1940   67.6400 C   0  0  0  0  0  0  0  0  0  0  0  0
    1.3320   68.5120   67.5140 C   0  0  0  0  0  0  0  0  0  0  0  0
    0.8810   67.6370   68.5130 C   0  0  0  0  0  0  0  0  0  0  0  0
   -0.3440   66.9820   68.3790 C   0  0  0  0  0  0  0  0  0  0  0  0
   -1.1260   67.1890   67.2440 C   0  0  0  0  0  0  0  0  0  0  0  0
   -0.6830   68.0470   66.2400 C   0  0  0  0  0  0  0  0  0  0  0  0
    0.5420   68.7030   66.3710 C   0  0  0  0  0  0  0  0  0  0  0  0
    5.0400   68.7340   64.4710 S   0  0  0  0  0  0  0  0  0  0  0  0
    3.4890   67.8250   64.1200 C   0  0  0  0  0  0  0  0  0  0  0  0
    3.6520   66.3480   64.4620 C   0  0  1  0  0  0  0  0  0  0  0  0
    2.2930   65.6920   64.6720 N   0  0  0  0  0  4  0  0  0  0  0  0
    4.3390   65.7120   63.2290 C   0  0  0  0  0  0  0  0  0  0  0  0
    5.0380   64.6960   63.4190 O   0  0  0  0  0  0  0  0  0  0  0  0
    4.0460   66.3850   62.1870 O   0  0  0  0  0  1  0  0  0  0  0  0
    2.5826   69.5653   65.5598 H   0  0  0  0  0  0  0  0  0  0  0  0
    3.3416   68.5595   68.2324 H   0  0  0  0  0  0  0  0  0  0  0  0
    2.5219   70.1649   68.1366 H   0  0  0  0  0  0  0  0  0  0  0  0
    1.4970   67.4659   69.4082 H   0  0  0  0  0  0  0  0  0  0  0  0
   -0.6927   66.3017   69.1699 H   0  0  0  0  0  0  0  0  0  0  0  0
   -2.0930   66.6748   67.1411 H   0  0  0  0  0  0  0  0  0  0  0  0
   -1.2992   68.2077   65.3431 H   0  0  0  0  0  0  0  0  0  0  0  0
    0.8902   69.3744   65.5723 H   0  0  0  0  0  0  0  0  0  0  0  0
    2.6746   68.2498   64.7252 H   0  0  0  0  0  0  0  0  0  0  0  0
    3.2528   67.9205   63.0499 H   0  0  0  0  0  0  0  0  0  0  0  0
    4.2332   66.2148   65.3864 H   0  0  0  0  0  0  0  0  0  0  0  0
    2.1073   65.6024   65.6811 H   0  0  0  0  0  0  0  0  0  0  0  0
    1.5609   66.2725   64.2384 H   0  0  0  0  0  0  0  0  0  0  0  0
    2.2921   64.7577   64.2384 H   0  0  0  0  0  0  0  0  0  0  0  0
  2  1  2  0
  3  1  1  0
  4  3  1  0
  5  4  1  0
  6  5  2  0
  7  6  1  0
  8  7  2  0
  9  8  1  0
 10  9  2  0
 10  5  1  0
 11  1  1  0
 12 11  1  0
 13 12  1  0
 14 13  1  0
 15 13  1  0
 16 15  2  0
 17 15  1  0
  3 18  1  0
  4 19  1  0
  4 20  1  0
  6 21  1  0
  7 22  1  0
  8 23  1  0
  9 24  1  0
 10 25  1  0
 12 26  1  0
 12 27  1  0
 13 28  1  1
 14 29  1  0
 14 30  1  0
 14 31  1  0
M  CHG  2  14   1  17  -1
M  END
>  <score>  (8) 
-6.482

$$$$
=
     RDKit          3D

 31 31  0  0  0  0  0  0  0  0999 V2000
    4.5460   69.8260   66.8590 C   0  0  0  0  0  0  0  0  0  0  0  0
    5.2410   70.5960   68.1640 S   0  0  0  0  0  0  0  0  0  0  0  0
    3.2490   69.4110   66.9230 N   0  0  0  0  0  0  0  0  0  0  0  0
    2.3090   69.5520   68.0220 C   0  0  0  0  0  0  0  0  0  0  0  0
    1.1080   68.6720   67.8090 C   0  0  0  0  0  0  0  0  0  0  0  0
    0.1970   68.9460   66.7800 C   0  0  0  0  0  0  0  0  0  0  0  0
   -0.9320   68.1450   66.6030 C   0  0  0  0  0  0  0  0  0  0  0  0
   -1.1650   67.0670   67.4560 C   0  0  0  0  0  0  0  0  0  0  0  0
   -0.2710   66.7920   68.4890 C   0  0  0  0  0  0  0  0  0  0  0  0
    0.8580   67.5930   68.6690 C   0  0  0  0  0  0  0  0  0  0  0  0
    5.4150   69.5410   65.3690 S   0  0  0  0  0  0  0  0  0  0  0  0
    4.0160   68.9360   64.3530 C   0  0  0  0  0  0  0  0  0  0  0  0
    4.3740   68.9940   62.8710 C   0  0  1  0  0  0  0  0  0  0  0  0
    5.8350   68.6200   62.6570 N   0  0  0  0  0  4  0  0  0  0  0  0
    3.4730   67.9370   62.1880 C   0  0  0  0  0  0  0  0  0  0  0  0
    4.0010   66.8530   61.8650 O   0  0  0  0  0  0  0  0  0  0  0  0
    2.2890   68.3970   62.0750 O   0  0  0  0  0  1  0  0  0  0  0  0
    2.8886   68.9358   66.0832 H   0  0  0  0  0  0  0  0  0  0  0  0
    2.8052   69.2651   68.9609 H   0  0  0  0  0  0  0  0  0  0  0  0
    1.9764   70.5993   68.0714 H   0  0  0  0  0  0  0  0  0  0  0  0
    0.3730   69.7983   66.1072 H   0  0  0  0  0  0  0  0  0  0  0  0
   -1.6390   68.3644   65.7894 H   0  0  0  0  0  0  0  0  0  0  0  0
   -2.0535   66.4343   67.3137 H   0  0  0  0  0  0  0  0  0  0  0  0
   -0.4552   65.9427   69.1634 H   0  0  0  0  0  0  0  0  0  0  0  0
    1.5562   67.3763   69.4909 H   0  0  0  0  0  0  0  0  0  0  0  0
    3.7886   67.8963   64.6310 H   0  0  0  0  0  0  0  0  0  0  0  0
    3.1392   69.5750   64.5346 H   0  0  0  0  0  0  0  0  0  0  0  0
    4.2251   70.0048   62.4636 H   0  0  0  0  0  0  0  0  0  0  0  0
    6.2965   68.5019   63.5702 H   0  0  0  0  0  0  0  0  0  0  0  0
    5.8897   67.7379   62.1280 H   0  0  0  0  0  0  0  0  0  0  0  0
    6.3068   69.3673   62.1280 H   0  0  0  0  0  0  0  0  0  0  0  0
  2  1  2  0
  3  1  1  0
  4  3  1  0
  5  4  1  0
  6  5  2  0
  7  6  1  0
  8  7  2  0
  9  8  1  0
 10  9  2  0
 10  5  1  0
 11  1  1  0
 12 11  1  0
 13 12  1  0
 14 13  1  0
 15 13  1  0
 16 15  2  0
 17 15  1  0
  3 18  1  0
  4 19  1  0
  4 20  1  0
  6 21  1  0
  7 22  1  0
  8 23  1  0
  9 24  1  0
 10 25  1  0
 12 26  1  0
 12 27  1  0
 13 28  1  6
 14 29  1  0
 14 30  1  0
 14 31  1  0
M  CHG  2  14   1  17  -1
M  END
>  <score>  (9) 
-6.395

$$$$
