=
     RDKit          3D

 34 34  0  0  0  0  0  0  0  0999 V2000
    3.4090   67.8450   64.1810 C   0  0  0  0  0  0  0  0  0  0  0  0
    2.8850   66.5960   64.8850 C   0  0  0  0  0  0  0  0  0  0  0  0
    1.9580   66.6000   65.6920 O   0  0  0  0  0  0  0  0  0  0  0  0
    3.5310   65.4240   64.6180 N   0  0  0  0  0  0  0  0  0  0  0  0
    4.1520   65.1540   63.4420 C   0  0  0  0  0  0  0  0  0  0  0  0
    4.3400   64.0030   63.0650 O   0  0  0  0  0  0  0  0  0  0  0  0
    4.4910   66.2190   62.6710 N   0  0  0  0  0  0  0  0  0  0  0  0
    4.0310   67.4950   62.8300 C   0  0  0  0  0  0  0  0  0  0  0  0
    4.1830   68.3090   61.9210 O   0  0  0  0  0  0  0  0  0  0  0  0
    1.0960   68.2910   63.0080 C   0  0  0  0  0  0  0  0  0  0  0  0
    2.2150   68.8140   63.9050 C   0  0  0  0  0  0  0  0  0  0  0  0
    4.4860   68.5330   65.0700 C   0  0  0  0  0  0  0  0  0  0  0  0
    3.9700   69.4960   66.1540 C   0  0  0  0  0  0  0  0  0  0  0  0
    4.9980   69.8660   67.2440 C   0  0  0  0  0  0  0  0  0  0  0  0
    6.1850   70.6550   66.6880 C   0  0  0  0  0  0  0  0  0  0  0  0
    4.3650   70.6110   68.4180 C   0  0  0  0  0  0  0  0  0  0  0  0
    3.5483   64.7019   65.3522 H   0  0  0  0  0  0  0  0  0  0  0  0
    5.1522   66.0499   61.8996 H   0  0  0  0  0  0  0  0  0  0  0  0
    0.2751   67.9073   63.6317 H   0  0  0  0  0  0  0  0  0  0  0  0
    0.7230   69.1081   62.3730 H   0  0  0  0  0  0  0  0  0  0  0  0
    1.4835   67.4807   62.3730 H   0  0  0  0  0  0  0  0  0  0  0  0
    2.6239   69.7195   63.4330 H   0  0  0  0  0  0  0  0  0  0  0  0
    1.7446   68.9770   64.8859 H   0  0  0  0  0  0  0  0  0  0  0  0
    5.0599   67.7407   65.5728 H   0  0  0  0  0  0  0  0  0  0  0  0
    5.0746   69.1579   64.3823 H   0  0  0  0  0  0  0  0  0  0  0  0
    3.6482   70.4245   65.6598 H   0  0  0  0  0  0  0  0  0  0  0  0
    3.1537   68.9684   66.6691 H   0  0  0  0  0  0  0  0  0  0  0  0
    5.3806   68.9067   67.6225 H   0  0  0  0  0  0  0  0  0  0  0  0
    6.7834   71.0527   67.5209 H   0  0  0  0  0  0  0  0  0  0  0  0
    6.8097   69.9918   66.0717 H   0  0  0  0  0  0  0  0  0  0  0  0
    5.8154   71.4878   66.0717 H   0  0  0  0  0  0  0  0  0  0  0  0
    4.7291   70.1825   69.3634 H   0  0  0  0  0  0  0  0  0  0  0  0
    4.6395   71.6750   68.3679 H   0  0  0  0  0  0  0  0  0  0  0  0
    3.2706   70.5119   68.3679 H   0  0  0  0  0  0  0  0  0  0  0  0
  2  1  1  0
  3  2  2  0
  4  2  1  0
  5  4  1  0
  6  5  2  0
  7  5  1  0
  8  7  1  0
  8  1  1  0
  9  8  2  0
 11 10  1  0
 11  1  1  0
 12  1  1  0
 13 12  1  0
 14 13  1  0
 15 14  1  0
 16 14  1  0
  4 17  1  0
  7 18  1  0
 10 19  1  0
 10 20  1  0
 10 21  1  0
 11 22  1  0
 11 23  1  0
 12 24  1  0
 12 25  1  0
 13 26  1  0
 13 27  1  0
 14 28  1  0
 15 29  1  0
 15 30  1  0
 15 31  1  0
 16 32  1  0
 16 33  1  0
 16 34  1  0
M  END
>  <score>  (1) 
-8.214

$$$$
=
     RDKit          3D

 34 34  0  0  0  0  0  0  0  0999 V2000
    3.3160   68.0540   64.2900 C   0  0  0  0  0  0  0  0  0  0  0  0
    3.0330   68.6080   62.8960 C   0  0  0  0  0  0  0  0  0  0  0  0
    3.9000   68.8180   62.0510 O   0  0  0  0  0  0  0  0  0  0  0  0
    1.7350   68.9200   62.6110 N   0  0  0  0  0  0  0  0  0  0  0  0
    0.6680   68.2900   63.1650 C   0  0  0  0  0  0  0  0  0  0  0  0
   -0.4260   68.2740   62.6100 O   0  0  0  0  0  0  0  0  0  0  0  0
    0.8870   67.6200   64.3250 N   0  0  0  0  0  0  0  0  0  0  0  0
    2.1100   67.2920   64.8360 C   0  0  0  0  0  0  0  0  0  0  0  0
    2.1840   66.4560   65.7340 O   0  0  0  0  0  0  0  0  0  0  0  0
    4.2810   65.7840   63.3740 C   0  0  0  0  0  0  0  0  0  0  0  0
    4.5050   67.0440   64.2070 C   0  0  0  0  0  0  0  0  0  0  0  0
    3.6540   69.2260   65.2580 C   0  0  0  0  0  0  0  0  0  0  0  0
    5.1460   69.4880   65.5270 C   0  0  0  0  0  0  0  0  0  0  0  0
    5.5010   69.8130   66.9940 C   0  0  0  0  0  0  0  0  0  0  0  0
    6.5170   70.9500   67.1130 C   0  0  0  0  0  0  0  0  0  0  0  0
    4.2660   70.1080   67.8440 C   0  0  0  0  0  0  0  0  0  0  0  0
    1.5549   69.6773   61.9365 H   0  0  0  0  0  0  0  0  0  0  0  0
    0.0589   67.3343   64.8667 H   0  0  0  0  0  0  0  0  0  0  0  0
    4.1282   64.9244   64.0432 H   0  0  0  0  0  0  0  0  0  0  0  0
    3.3924   65.9172   62.7394 H   0  0  0  0  0  0  0  0  0  0  0  0
    5.1610   65.6027   62.7394 H   0  0  0  0  0  0  0  0  0  0  0  0
    4.7443   66.7267   65.2327 H   0  0  0  0  0  0  0  0  0  0  0  0
    5.3106   67.5892   63.6934 H   0  0  0  0  0  0  0  0  0  0  0  0
    3.2252   70.1451   64.8321 H   0  0  0  0  0  0  0  0  0  0  0  0
    3.2312   68.9310   66.2297 H   0  0  0  0  0  0  0  0  0  0  0  0
    5.7081   68.5898   65.2315 H   0  0  0  0  0  0  0  0  0  0  0  0
    5.4096   70.3823   64.9432 H   0  0  0  0  0  0  0  0  0  0  0  0
    5.9707   68.9010   67.3911 H   0  0  0  0  0  0  0  0  0  0  0  0
    6.7068   71.1624   68.1755 H   0  0  0  0  0  0  0  0  0  0  0  0
    7.4572   70.6542   66.6246 H   0  0  0  0  0  0  0  0  0  0  0  0
    6.1177   71.8511   66.6246 H   0  0  0  0  0  0  0  0  0  0  0  0
    4.5308   70.0448   68.9098 H   0  0  0  0  0  0  0  0  0  0  0  0
    3.8977   71.1194   67.6171 H   0  0  0  0  0  0  0  0  0  0  0  0
    3.4804   69.3722   67.6171 H   0  0  0  0  0  0  0  0  0  0  0  0
  2  1  1  0
  3  2  2  0
  4  2  1  0
  5  4  1  0
  6  5  2  0
  7  5  1  0
  8  7  1  0
  8  1  1  0
  9  8  2  0
 11 10  1  0
 11  1  1  0
 12  1  1  0
 13 12  1  0
 14 13  1  0
 15 14  1  0
 16 14  1  0
  4 17  1  0
  7 18  1  0
 10 19  1  0
 10 20  1  0
 10 21  1  0
 11 22  1  0
 11 23  1  0
 12 24  1  0
 12 25  1  0
 13 26  1  0
 13 27  1  0
 14 28  1  0
 15 29  1  0
 15 30  1  0
 15 31  1  0
 16 32  1  0
 16 33  1  0
 16 34  1  0
M  END
>  <score>  (2) 
-8.138

$$$$
=
     RDKit          3D

 34 34  0  0  0  0  0  0  0  0999 V2000
    2.9630   67.9810   63.7450 C   0  0  0  0  0  0  0  0  0  0  0  0
    4.1910   67.6880   62.8860 C   0  0  0  0  0  0  0  0  0  0  0  0
    5.1040   66.9400   63.2260 O   0  0  0  0  0  0  0  0  0  0  0  0
    4.2750   68.3440   61.6920 N   0  0  0  0  0  0  0  0  0  0  0  0
    3.1960   68.7380   60.9690 C   0  0  0  0  0  0  0  0  0  0  0  0
    3.2680   68.9220   59.7590 O   0  0  0  0  0  0  0  0  0  0  0  0
    2.0190   68.8480   61.6360 N   0  0  0  0  0  0  0  0  0  0  0  0
    1.7590   68.3470   62.8790 C   0  0  0  0  0  0  0  0  0  0  0  0
    0.5950   68.2630   63.2640 O   0  0  0  0  0  0  0  0  0  0  0  0
    2.0780   66.9000   65.9750 C   0  0  0  0  0  0  0  0  0  0  0  0
    2.5840   66.6960   64.5490 C   0  0  0  0  0  0  0  0  0  0  0  0
    3.2710   69.1650   64.7090 C   0  0  0  0  0  0  0  0  0  0  0  0
    4.7550   69.4600   64.9850 C   0  0  0  0  0  0  0  0  0  0  0  0
    5.1300   69.5980   66.4760 C   0  0  0  0  0  0  0  0  0  0  0  0
    6.1780   70.6850   66.7180 C   0  0  0  0  0  0  0  0  0  0  0  0
    3.9100   69.8230   67.3680 C   0  0  0  0  0  0  0  0  0  0  0  0
    5.2118   68.5522   61.3178 H   0  0  0  0  0  0  0  0  0  0  0  0
    1.2559   69.3532   61.1634 H   0  0  0  0  0  0  0  0  0  0  0  0
    2.8548   66.5868   66.6880 H   0  0  0  0  0  0  0  0  0  0  0  0
    1.8431   67.9631   66.1322 H   0  0  0  0  0  0  0  0  0  0  0  0
    1.1715   66.2971   66.1322 H   0  0  0  0  0  0  0  0  0  0  0  0
    3.4800   66.0601   64.6017 H   0  0  0  0  0  0  0  0  0  0  0  0
    1.7368   66.2548   64.0035 H   0  0  0  0  0  0  0  0  0  0  0  0
    2.8252   70.0726   64.2759 H   0  0  0  0  0  0  0  0  0  0  0  0
    2.8493   68.8658   65.6799 H   0  0  0  0  0  0  0  0  0  0  0  0
    5.3504   68.6392   64.5586 H   0  0  0  0  0  0  0  0  0  0  0  0
    4.9631   70.4375   64.5255 H   0  0  0  0  0  0  0  0  0  0  0  0
    5.5770   68.6330   66.7571 H   0  0  0  0  0  0  0  0  0  0  0  0
    6.3154   70.8275   67.8000 H   0  0  0  0  0  0  0  0  0  0  0  0
    7.1328   70.3813   66.2640 H   0  0  0  0  0  0  0  0  0  0  0  0
    5.8397   71.6281   66.2640 H   0  0  0  0  0  0  0  0  0  0  0  0
    4.2126   69.7672   68.4241 H   0  0  0  0  0  0  0  0  0  0  0  0
    3.4824   70.8151   67.1610 H   0  0  0  0  0  0  0  0  0  0  0  0
    3.1566   69.0486   67.1610 H   0  0  0  0  0  0  0  0  0  0  0  0
  2  1  1  0
  3  2  2  0
  4  2  1  0
  5  4  1  0
  6  5  2  0
  7  5  1  0
  8  7  1  0
  8  1  1  0
  9  8  2  0
 11 10  1  0
 11  1  1  0
 12  1  1  0
 13 12  1  0
 14 13  1  0
 15 14  1  0
 16 14  1  0
  4 17  1  0
  7 18  1  0
 10 19  1  0
 10 20  1  0
 10 21  1  0
 11 22  1  0
 11 23  1  0
 12 24  1  0
 12 25  1  0
 13 26  1  0
 13 27  1  0
 14 28  1  0
 15 29  1  0
 15 30  1  0
 15 31  1  0
 16 32  1  0
 16 33  1  0
 16 34  1  0
M  END
>  <score>  (3) 
-7.832

$$$$
=
     RDKit          3D

 34 34  0  0  0  0  0  0  0  0999 V2000
    0.9110   68.1180   66.5900 C   0  0  0  0  0  0  0  0  0  0  0  0
    1.4850   67.2650   65.4620 C   0  0  0  0  0  0  0  0  0  0  0  0
    2.2220   66.2980   65.6400 O   0  0  0  0  0  0  0  0  0  0  0  0
    1.1790   67.6450   64.1880 N   0  0  0  0  0  0  0  0  0  0  0  0
    0.0330   68.2860   63.8450 C   0  0  0  0  0  0  0  0  0  0  0  0
   -0.4130   68.2360   62.7040 O   0  0  0  0  0  0  0  0  0  0  0  0
   -0.6340   68.9230   64.8410 N   0  0  0  0  0  0  0  0  0  0  0  0
   -0.4150   68.7560   66.1790 C   0  0  0  0  0  0  0  0  0  0  0  0
   -1.2500   69.1670   66.9820 O   0  0  0  0  0  0  0  0  0  0  0  0
    1.3350   67.5670   69.1280 C   0  0  0  0  0  0  0  0  0  0  0  0
    0.6240   67.2060   67.8260 C   0  0  0  0  0  0  0  0  0  0  0  0
    1.9210   69.2450   66.9580 C   0  0  0  0  0  0  0  0  0  0  0  0
    3.2590   69.2440   66.1980 C   0  0  0  0  0  0  0  0  0  0  0  0
    4.5040   69.5340   67.0630 C   0  0  0  0  0  0  0  0  0  0  0  0
    5.6300   70.1940   66.2660 C   0  0  0  0  0  0  0  0  0  0  0  0
    4.1750   70.3590   68.3070 C   0  0  0  0  0  0  0  0  0  0  0  0
    1.8576   67.4330   63.4427 H   0  0  0  0  0  0  0  0  0  0  0  0
   -1.3686   69.5898   64.5640 H   0  0  0  0  0  0  0  0  0  0  0  0
    0.7172   67.2533   69.9823 H   0  0  0  0  0  0  0  0  0  0  0  0
    2.3067   67.0531   69.1699 H   0  0  0  0  0  0  0  0  0  0  0  0
    1.4934   68.6547   69.1699 H   0  0  0  0  0  0  0  0  0  0  0  0
    0.9195   66.1807   67.5587 H   0  0  0  0  0  0  0  0  0  0  0  0
   -0.4475   67.3368   68.0375 H   0  0  0  0  0  0  0  0  0  0  0  0
    1.4289   70.2100   66.7668 H   0  0  0  0  0  0  0  0  0  0  0  0
    2.1846   69.0667   68.0110 H   0  0  0  0  0  0  0  0  0  0  0  0
    3.3879   68.2539   65.7365 H   0  0  0  0  0  0  0  0  0  0  0  0
    3.1965   70.0635   65.4669 H   0  0  0  0  0  0  0  0  0  0  0  0
    4.8627   68.5500   67.3993 H   0  0  0  0  0  0  0  0  0  0  0  0
    6.3663   70.6256   66.9600 H   0  0  0  0  0  0  0  0  0  0  0  0
    6.1210   69.4407   65.6323 H   0  0  0  0  0  0  0  0  0  0  0  0
    5.2127   70.9904   65.6323 H   0  0  0  0  0  0  0  0  0  0  0  0
    4.4087   69.7729   69.2080 H   0  0  0  0  0  0  0  0  0  0  0  0
    4.7740   71.2816   68.3041 H   0  0  0  0  0  0  0  0  0  0  0  0
    3.1055   70.6162   68.3041 H   0  0  0  0  0  0  0  0  0  0  0  0
  2  1  1  0
  3  2  2  0
  4  2  1  0
  5  4  1  0
  6  5  2  0
  7  5  1  0
  8  7  1  0
  8  1  1  0
  9  8  2  0
 11 10  1  0
 11  1  1  0
 12  1  1  0
 13 12  1  0
 14 13  1  0
 15 14  1  0
 16 14  1  0
  4 17  1  0
  7 18  1  0
 10 19  1  0
 10 20  1  0
 10 21  1  0
 11 22  1  0
 11 23  1  0
 12 24  1  0
 12 25  1  0
 13 26  1  0
 13 27  1  0
 14 28  1  0
 15 29  1  0
 15 30  1  0
 15 31  1  0
 16 32  1  0
 16 33  1  0
 16 34  1  0
M  END
>  <score>  (4) 
-7.576

$$$$
=
     RDKit          3D

 34 34  0  0  0  0  0  0  0  0999 V2000
    2.8680   62.4910   70.5220 C   0  0  0  0  0  0  0  0  0  0  0  0
    3.2240   61.9170   69.1530 C   0  0  0  0  0  0  0  0  0  0  0  0
    3.4720   62.6030   68.1640 O   0  0  0  0  0  0  0  0  0  0  0  0
    3.2160   60.5570   69.0370 N   0  0  0  0  0  0  0  0  0  0  0  0
    3.4910   59.7100   70.0610 C   0  0  0  0  0  0  0  0  0  0  0  0
    3.8920   58.5690   69.8590 O   0  0  0  0  0  0  0  0  0  0  0  0
    3.3680   60.2090   71.3180 N   0  0  0  0  0  0  0  0  0  0  0  0
    3.2640   61.5310   71.6420 C   0  0  0  0  0  0  0  0  0  0  0  0
    3.4360   61.8810   72.8080 O   0  0  0  0  0  0  0  0  0  0  0  0
    5.1870   63.7220   70.6890 C   0  0  0  0  0  0  0  0  0  0  0  0
    3.6640   63.8170   70.7430 C   0  0  0  0  0  0  0  0  0  0  0  0
    1.3340   62.7490   70.5980 C   0  0  0  0  0  0  0  0  0  0  0  0
    0.8710   63.8760   71.5380 C   0  0  0  0  0  0  0  0  0  0  0  0
    0.0020   63.4190   72.7290 C   0  0  0  0  0  0  0  0  0  0  0  0
   -0.4560   61.9660   72.5970 C   0  0  0  0  0  0  0  0  0  0  0  0
    0.6890   63.6430   74.0750 C   0  0  0  0  0  0  0  0  0  0  0  0
    2.9880   60.1499   68.1188 H   0  0  0  0  0  0  0  0  0  0  0  0
    3.3518   59.5316   72.0938 H   0  0  0  0  0  0  0  0  0  0  0  0
    5.5893   63.6969   71.7125 H   0  0  0  0  0  0  0  0  0  0  0  0
    5.4785   62.8039   70.1578 H   0  0  0  0  0  0  0  0  0  0  0  0
    5.5903   64.5967   70.1578 H   0  0  0  0  0  0  0  0  0  0  0  0
    3.3898   64.2088   71.7336 H   0  0  0  0  0  0  0  0  0  0  0  0
    3.3855   64.4644   69.8984 H   0  0  0  0  0  0  0  0  0  0  0  0
    0.9864   62.9961   69.5840 H   0  0  0  0  0  0  0  0  0  0  0  0
    0.9050   61.8269   71.0172 H   0  0  0  0  0  0  0  0  0  0  0  0
    1.7658   64.3737   71.9401 H   0  0  0  0  0  0  0  0  0  0  0  0
    0.2362   64.5392   70.9320 H   0  0  0  0  0  0  0  0  0  0  0  0
   -0.8939   64.0565   72.6999 H   0  0  0  0  0  0  0  0  0  0  0  0
   -0.5927   61.5322   73.5986 H   0  0  0  0  0  0  0  0  0  0  0  0
   -1.4090   61.9303   72.0487 H   0  0  0  0  0  0  0  0  0  0  0  0
    0.3042   61.3903   72.0487 H   0  0  0  0  0  0  0  0  0  0  0  0
   -0.0148   63.4135   74.8886 H   0  0  0  0  0  0  0  0  0  0  0  0
    1.5667   62.9845   74.1528 H   0  0  0  0  0  0  0  0  0  0  0  0
    1.0098   64.6923   74.1528 H   0  0  0  0  0  0  0  0  0  0  0  0
  2  1  1  0
  3  2  2  0
  4  2  1  0
  5  4  1  0
  6  5  2  0
  7  5  1  0
  8  7  1  0
  8  1  1  0
  9  8  2  0
 11 10  1  0
 11  1  1  0
 12  1  1  0
 13 12  1  0
 14 13  1  0
 15 14  1  0
 16 14  1  0
  4 17  1  0
  7 18  1  0
 10 19  1  0
 10 20  1  0
 10 21  1  0
 11 22  1  0
 11 23  1  0
 12 24  1  0
 12 25  1  0
 13 26  1  0
 13 27  1  0
 14 28  1  0
 15 29  1  0
 15 30  1  0
 15 31  1  0
 16 32  1  0
 16 33  1  0
 16 34  1  0
M  END
>  <score>  (5) 
-6.764

$$$$
=
     RDKit          3D

 34 34  0  0  0  0  0  0  0  0999 V2000
    3.8560   60.7570   71.1250 C   0  0  0  0  0  0  0  0  0  0  0  0
    3.9240   59.9330   69.8420 C   0  0  0  0  0  0  0  0  0  0  0  0
    4.3810   60.3520   68.7810 O   0  0  0  0  0  0  0  0  0  0  0  0
    3.3990   58.6740   69.8910 N   0  0  0  0  0  0  0  0  0  0  0  0
    3.3660   57.9140   71.0150 C   0  0  0  0  0  0  0  0  0  0  0  0
    3.3000   56.6900   70.9600 O   0  0  0  0  0  0  0  0  0  0  0  0
    3.4810   58.5660   72.2000 N   0  0  0  0  0  0  0  0  0  0  0  0
    3.8960   59.8580   72.3590 C   0  0  0  0  0  0  0  0  0  0  0  0
    4.2250   60.2510   73.4770 O   0  0  0  0  0  0  0  0  0  0  0  0
    4.9050   63.1360   70.7230 C   0  0  0  0  0  0  0  0  0  0  0  0
    5.1010   61.6970   71.1950 C   0  0  0  0  0  0  0  0  0  0  0  0
    2.5370   61.5840   71.1460 C   0  0  0  0  0  0  0  0  0  0  0  0
    1.4320   61.0930   72.0970 C   0  0  0  0  0  0  0  0  0  0  0  0
    0.3570   62.1440   72.4500 C   0  0  0  0  0  0  0  0  0  0  0  0
    0.1670   63.1820   71.3440 C   0  0  0  0  0  0  0  0  0  0  0  0
   -0.9820   61.5100   72.8240 C   0  0  0  0  0  0  0  0  0  0  0  0
    3.0054   58.2781   69.0254 H   0  0  0  0  0  0  0  0  0  0  0  0
    3.2344   58.0421   73.0519 H   0  0  0  0  0  0  0  0  0  0  0  0
    4.8147   63.7991   71.5960 H   0  0  0  0  0  0  0  0  0  0  0  0
    5.7695   63.4439   70.1165 H   0  0  0  0  0  0  0  0  0  0  0  0
    3.9896   63.2015   70.1165 H   0  0  0  0  0  0  0  0  0  0  0  0
    5.8918   61.2485   70.5757 H   0  0  0  0  0  0  0  0  0  0  0  0
    5.3423   61.7756   72.2653 H   0  0  0  0  0  0  0  0  0  0  0  0
    2.7932   62.6139   71.4354 H   0  0  0  0  0  0  0  0  0  0  0  0
    2.1155   61.4839   70.1349 H   0  0  0  0  0  0  0  0  0  0  0  0
    0.9293   60.2374   71.6224 H   0  0  0  0  0  0  0  0  0  0  0  0
    1.9327   60.8374   73.0425 H   0  0  0  0  0  0  0  0  0  0  0  0
    0.7396   62.6673   73.3387 H   0  0  0  0  0  0  0  0  0  0  0  0
   -0.0137   64.1691   71.7946 H   0  0  0  0  0  0  0  0  0  0  0  0
    1.0724   63.2236   70.7208 H   0  0  0  0  0  0  0  0  0  0  0  0
   -0.6945   62.9002   70.7208 H   0  0  0  0  0  0  0  0  0  0  0  0
   -1.0739   61.4665   73.9193 H   0  0  0  0  0  0  0  0  0  0  0  0
   -1.8024   62.1153   72.4110 H   0  0  0  0  0  0  0  0  0  0  0  0
   -1.0337   60.4918   72.4110 H   0  0  0  0  0  0  0  0  0  0  0  0
  2  1  1  0
  3  2  2  0
  4  2  1  0
  5  4  1  0
  6  5  2  0
  7  5  1  0
  8  7  1  0
  8  1  1  0
  9  8  2  0
 11 10  1  0
 11  1  1  0
 12  1  1  0
 13 12  1  0
 14 13  1  0
 15 14  1  0
 16 14  1  0
  4 17  1  0
  7 18  1  0
 10 19  1  0
 10 20  1  0
 10 21  1  0
 11 22  1  0
 11 23  1  0
 12 24  1  0
 12 25  1  0
 13 26  1  0
 13 27  1  0
 14 28  1  0
 15 29  1  0
 15 30  1  0
 15 31  1  0
 16 32  1  0
 16 33  1  0
 16 34  1  0
M  END
>  <score>  (6) 
-6.75

$$$$
=
     RDKit          3D

 34 34  0  0  0  0  0  0  0  0999 V2000
    1.9020   68.4220   65.9770 C   0  0  0  0  0  0  0  0  0  0  0  0
    1.3920   66.9940   65.7980 C   0  0  0  0  0  0  0  0  0  0  0  0
    2.0700   66.0740   65.3470 O   0  0  0  0  0  0  0  0  0  0  0  0
    0.0880   66.7630   66.1270 N   0  0  0  0  0  0  0  0  0  0  0  0
   -0.5870   67.4580   67.0780 C   0  0  0  0  0  0  0  0  0  0  0  0
   -1.5640   66.9840   67.6470 O   0  0  0  0  0  0  0  0  0  0  0  0
   -0.0840   68.6720   67.4210 N   0  0  0  0  0  0  0  0  0  0  0  0
    1.1620   69.1340   67.1070 C   0  0  0  0  0  0  0  0  0  0  0  0
    1.6050   70.1180   67.6960 O   0  0  0  0  0  0  0  0  0  0  0  0
    4.2820   69.5400   65.8870 C   0  0  0  0  0  0  0  0  0  0  0  0
    3.4140   68.3790   66.3660 C   0  0  0  0  0  0  0  0  0  0  0  0
    1.6940   69.2200   64.6550 C   0  0  0  0  0  0  0  0  0  0  0  0
    1.8090   68.4210   63.3450 C   0  0  0  0  0  0  0  0  0  0  0  0
    3.1670   68.5410   62.6220 C   0  0  0  0  0  0  0  0  0  0  0  0
    4.0440   67.3030   62.8130 C   0  0  0  0  0  0  0  0  0  0  0  0
    3.0140   68.8630   61.1360 C   0  0  0  0  0  0  0  0  0  0  0  0
   -0.4138   66.0173   65.6241 H   0  0  0  0  0  0  0  0  0  0  0  0
   -0.6949   69.2981   67.9648 H   0  0  0  0  0  0  0  0  0  0  0  0
    4.6853   70.0794   66.7567 H   0  0  0  0  0  0  0  0  0  0  0  0
    5.1124   69.1507   65.2796 H   0  0  0  0  0  0  0  0  0  0  0  0
    3.6737   70.2263   65.2796 H   0  0  0  0  0  0  0  0  0  0  0  0
    3.8382   67.4530   65.9505 H   0  0  0  0  0  0  0  0  0  0  0  0
    3.4303   68.4418   67.4641 H   0  0  0  0  0  0  0  0  0  0  0  0
    0.6885   69.6648   64.6879 H   0  0  0  0  0  0  0  0  0  0  0  0
    2.5160   69.9502   64.6235 H   0  0  0  0  0  0  0  0  0  0  0  0
    1.6394   67.3593   63.5774 H   0  0  0  0  0  0  0  0  0  0  0  0
    1.0592   68.8450   62.6608 H   0  0  0  0  0  0  0  0  0  0  0  0
    3.6778   69.3910   63.0981 H   0  0  0  0  0  0  0  0  0  0  0  0
    4.1794   67.1119   63.8878 H   0  0  0  0  0  0  0  0  0  0  0  0
    3.5588   66.4341   62.3443 H   0  0  0  0  0  0  0  0  0  0  0  0
    5.0246   67.4725   62.3443 H   0  0  0  0  0  0  0  0  0  0  0  0
    2.5445   69.8511   61.0214 H   0  0  0  0  0  0  0  0  0  0  0  0
    4.0049   68.8703   60.6585 H   0  0  0  0  0  0  0  0  0  0  0  0
    2.3825   68.0994   60.6585 H   0  0  0  0  0  0  0  0  0  0  0  0
  2  1  1  0
  3  2  2  0
  4  2  1  0
  5  4  1  0
  6  5  2  0
  7  5  1  0
  8  7  1  0
  8  1  1  0
  9  8  2  0
 11 10  1  0
 11  1  1  0
 12  1  1  0
 13 12  1  0
 14 13  1  0
 15 14  1  0
 16 14  1  0
  4 17  1  0
  7 18  1  0
 10 19  1  0
 10 20  1  0
 10 21  1  0
 11 22  1  0
 11 23  1  0
 12 24  1  0
 12 25  1  0
 13 26  1  0
 13 27  1  0
 14 28  1  0
 15 29  1  0
 15 30  1  0
 15 31  1  0
 16 32  1  0
 16 33  1  0
 16 34  1  0
M  END
>  <score>  (7) 
-6.581

$$$$
=
     RDKit          3D

 34 34  0  0  0  0  0  0  0  0999 V2000
    1.3330   61.9130   72.5940 C   0  0  0  0  0  0  0  0  0  0  0  0
   -0.0080   62.6270   72.7500 C   0  0  0  0  0  0  0  0  0  0  0  0
   -1.0340   62.2970   72.1620 O   0  0  0  0  0  0  0  0  0  0  0  0
   -0.0290   63.7210   73.5660 N   0  0  0  0  0  0  0  0  0  0  0  0
    0.7930   63.8820   74.6350 C   0  0  0  0  0  0  0  0  0  0  0  0
    0.4920   64.6160   75.5700 O   0  0  0  0  0  0  0  0  0  0  0  0
    1.9290   63.1390   74.6510 N   0  0  0  0  0  0  0  0  0  0  0  0
    2.1870   62.0630   73.8500 C   0  0  0  0  0  0  0  0  0  0  0  0
    3.1130   61.3070   74.1370 O   0  0  0  0  0  0  0  0  0  0  0  0
    0.2630   59.6710   73.4630 C   0  0  0  0  0  0  0  0  0  0  0  0
    1.0760   60.3860   72.3860 C   0  0  0  0  0  0  0  0  0  0  0  0
    2.1060   62.5130   71.3820 C   0  0  0  0  0  0  0  0  0  0  0  0
    2.8750   61.5180   70.4960 C   0  0  0  0  0  0  0  0  0  0  0  0
    4.3760   61.8300   70.3130 C   0  0  0  0  0  0  0  0  0  0  0  0
    4.6800   63.3260   70.4070 C   0  0  0  0  0  0  0  0  0  0  0  0
    5.2600   61.0430   71.2790 C   0  0  0  0  0  0  0  0  0  0  0  0
   -0.7076   64.4677   73.3590 H   0  0  0  0  0  0  0  0  0  0  0  0
    2.6592   63.4099   75.3251 H   0  0  0  0  0  0  0  0  0  0  0  0
    0.6170   59.9823   74.4568 H   0  0  0  0  0  0  0  0  0  0  0  0
   -0.7999   59.9322   73.3540 H   0  0  0  0  0  0  0  0  0  0  0  0
    0.3863   58.5834   73.3540 H   0  0  0  0  0  0  0  0  0  0  0  0
    2.0555   59.8892   72.3239 H   0  0  0  0  0  0  0  0  0  0  0  0
    0.4659   60.3188   71.4731 H   0  0  0  0  0  0  0  0  0  0  0  0
    1.3757   63.0327   70.7443 H   0  0  0  0  0  0  0  0  0  0  0  0
    2.8751   63.1649   71.8219 H   0  0  0  0  0  0  0  0  0  0  0  0
    2.7871   60.5195   70.9490 H   0  0  0  0  0  0  0  0  0  0  0  0
    2.4234   61.5857   69.4953 H   0  0  0  0  0  0  0  0  0  0  0  0
    4.6208   61.5021   69.2920 H   0  0  0  0  0  0  0  0  0  0  0  0
    4.7402   63.6222   71.4647 H   0  0  0  0  0  0  0  0  0  0  0  0
    5.6394   63.5370   69.9120 H   0  0  0  0  0  0  0  0  0  0  0  0
    3.8791   63.8947   69.9120 H   0  0  0  0  0  0  0  0  0  0  0  0
    4.9824   61.2902   72.3143 H   0  0  0  0  0  0  0  0  0  0  0  0
    5.1198   59.9653   71.1091 H   0  0  0  0  0  0  0  0  0  0  0  0
    6.3143   61.3069   71.1091 H   0  0  0  0  0  0  0  0  0  0  0  0
  2  1  1  0
  3  2  2  0
  4  2  1  0
  5  4  1  0
  6  5  2  0
  7  5  1  0
  8  7  1  0
  8  1  1  0
  9  8  2  0
 11 10  1  0
 11  1  1  0
 12  1  1  0
 13 12  1  0
 14 13  1  0
 15 14  1  0
 16 14  1  0
  4 17  1  0
  7 18  1  0
 10 19  1  0
 10 20  1  0
 10 21  1  0
 11 22  1  0
 11 23  1  0
 12 24  1  0
 12 25  1  0
 13 26  1  0
 13 27  1  0
 14 28  1  0
 15 29  1  0
 15 30  1  0
 15 31  1  0
 16 32  1  0
 16 33  1  0
 16 34  1  0
M  END
>  <score>  (8) 
-6.456

$$$$
=
     RDKit          3D

 34 34  0  0  0  0  0  0  0  0999 V2000
    3.3400   62.1840   71.2230 C   0  0  0  0  0  0  0  0  0  0  0  0
    2.4580   62.6940   72.3600 C   0  0  0  0  0  0  0  0  0  0  0  0
    2.6670   62.4610   73.5480 O   0  0  0  0  0  0  0  0  0  0  0  0
    1.3530   63.4120   72.0050 N   0  0  0  0  0  0  0  0  0  0  0  0
    1.2740   64.1730   70.8840 C   0  0  0  0  0  0  0  0  0  0  0  0
    0.4890   65.1110   70.7990 O   0  0  0  0  0  0  0  0  0  0  0  0
    2.1560   63.8920   69.8900 N   0  0  0  0  0  0  0  0  0  0  0  0
    3.2720   63.1150   70.0140 C   0  0  0  0  0  0  0  0  0  0  0  0
    4.1340   63.1550   69.1370 O   0  0  0  0  0  0  0  0  0  0  0  0
    5.6480   60.9250   71.3220 C   0  0  0  0  0  0  0  0  0  0  0  0
    4.8260   62.1540   71.7040 C   0  0  0  0  0  0  0  0  0  0  0  0
    2.8690   60.7630   70.7930 C   0  0  0  0  0  0  0  0  0  0  0  0
    2.1430   59.9270   71.8620 C   0  0  0  0  0  0  0  0  0  0  0  0
    2.7750   58.5500   72.1570 C   0  0  0  0  0  0  0  0  0  0  0  0
    1.7930   57.5860   72.8240 C   0  0  0  0  0  0  0  0  0  0  0  0
    3.3910   57.9100   70.9140 C   0  0  0  0  0  0  0  0  0  0  0  0
    0.5307   63.3741   72.6242 H   0  0  0  0  0  0  0  0  0  0  0  0
    1.9668   64.2999   68.9633 H   0  0  0  0  0  0  0  0  0  0  0  0
    5.9896   60.4143   72.2344 H   0  0  0  0  0  0  0  0  0  0  0  0
    5.0267   60.2384   70.7282 H   0  0  0  0  0  0  0  0  0  0  0  0
    6.5198   61.2370   70.7282 H   0  0  0  0  0  0  0  0  0  0  0  0
    4.8220   62.2238   72.8018 H   0  0  0  0  0  0  0  0  0  0  0  0
    5.3121   62.9967   71.1906 H   0  0  0  0  0  0  0  0  0  0  0  0
    2.1846   60.8817   69.9400 H   0  0  0  0  0  0  0  0  0  0  0  0
    3.7907   60.2074   70.5656 H   0  0  0  0  0  0  0  0  0  0  0  0
    2.1331   60.5050   72.7979 H   0  0  0  0  0  0  0  0  0  0  0  0
    1.1387   59.7238   71.4620 H   0  0  0  0  0  0  0  0  0  0  0  0
    3.5887   58.7473   72.8705 H   0  0  0  0  0  0  0  0  0  0  0  0
    1.8803   57.6717   73.9172 H   0  0  0  0  0  0  0  0  0  0  0  0
    0.7670   57.8373   72.5173 H   0  0  0  0  0  0  0  0  0  0  0  0
    2.0253   56.5555   72.5173 H   0  0  0  0  0  0  0  0  0  0  0  0
    4.1240   57.1485   71.2187 H   0  0  0  0  0  0  0  0  0  0  0  0
    2.5992   57.4375   70.3142 H   0  0  0  0  0  0  0  0  0  0  0  0
    3.8934   58.6832   70.3142 H   0  0  0  0  0  0  0  0  0  0  0  0
  2  1  1  0
  3  2  2  0
  4  2  1  0
  5  4  1  0
  6  5  2  0
  7  5  1  0
  8  7  1  0
  8  1  1  0
  9  8  2  0
 11 10  1  0
 11  1  1  0
 12  1  1  0
 13 12  1  0
 14 13  1  0
 15 14  1  0
 16 14  1  0
  4 17  1  0
  7 18  1  0
 10 19  1  0
 10 20  1  0
 10 21  1  0
 11 22  1  0
 11 23  1  0
 12 24  1  0
 12 25  1  0
 13 26  1  0
 13 27  1  0
 14 28  1  0
 15 29  1  0
 15 30  1  0
 15 31  1  0
 16 32  1  0
 16 33  1  0
 16 34  1  0
M  END
>  <score>  (9) 
-6.393

$$$$
