=
     RDKit          3D

 51 56  0  0  0  0  0  0  0  0999 V2000
    1.1170   57.0440   73.6000 C   0  0  0  0  0  0  0  0  0  0  0  0
    1.3980   55.9920   74.4600 C   0  0  0  0  0  0  0  0  0  0  0  0
    1.9690   54.7940   74.1540 O   0  0  0  0  0  0  0  0  0  0  0  0
    2.0030   54.1420   75.4390 C   0  0  0  0  0  0  0  0  0  0  0  0
    1.4520   54.9520   76.4920 O   0  0  0  0  0  0  0  0  0  0  0  0
    1.1050   56.0730   75.8040 C   0  0  0  0  0  0  0  0  0  0  0  0
    0.5080   57.1790   76.3670 C   0  0  0  0  0  0  0  0  0  0  0  0
    0.1950   58.2560   75.5290 C   0  0  0  0  0  0  0  0  0  0  0  0
    0.5320   58.2140   74.1490 C   0  0  0  0  0  0  0  0  0  0  0  0
    0.2710   59.4140   73.2430 C   0  0  2  0  0  0  0  0  0  0  0  0
    1.5870   60.0950   72.7960 C   0  0  0  0  0  0  0  0  0  0  0  0
    1.3190   61.3290   71.9600 C   0  0  0  0  0  0  0  0  0  0  0  0
    0.2020   62.1120   72.2950 C   0  0  0  0  0  0  0  0  0  0  0  0
   -0.6630   61.6690   73.3970 C   0  0  0  0  0  0  0  0  0  0  0  0
   -0.6050   60.4750   73.8830 N   0  0  0  0  0  4  0  0  0  0  0  0
   -1.4280   60.0760   75.0610 C   0  0  0  0  0  0  0  0  0  0  0  0
   -0.5020   59.4630   76.1010 C   0  0  0  0  0  0  0  0  0  0  0  0
   -0.0910   63.3100   71.6420 C   0  0  0  0  0  0  0  0  0  0  0  0
    0.7480   63.7500   70.6200 C   0  0  0  0  0  0  0  0  0  0  0  0
    1.8780   62.9830   70.2770 C   0  0  0  0  0  0  0  0  0  0  0  0
    2.1670   61.7670   70.9250 C   0  0  0  0  0  0  0  0  0  0  0  0
    3.4000   61.0120   70.5050 C   0  0  0  0  0  0  0  0  0  0  0  0
    3.8100   61.3940   69.2010 O   0  0  0  0  0  0  0  0  0  0  0  0
    3.9190   62.8060   69.1240 C   0  0  0  0  0  0  0  0  0  0  0  0
    2.6700   63.4720   69.2690 O   0  0  0  0  0  0  0  0  0  0  0  0
    2.6820   57.1310   71.7920 C   0  0  0  0  0  0  0  0  0  0  0  0
    1.3340   57.0830   72.2510 O   0  0  0  0  0  0  0  0  0  0  0  0
    0.5770   64.9120   69.9160 O   0  0  0  0  0  0  0  0  0  0  0  0
    0.2260   66.0890   70.6300 C   0  0  0  0  0  0  0  0  0  0  0  0
    1.4243   53.2088   75.3746 H   0  0  0  0  0  0  0  0  0  0  0  0
    3.0582   53.9529   75.6856 H   0  0  0  0  0  0  0  0  0  0  0  0
    0.2837   57.2151   77.4433 H   0  0  0  0  0  0  0  0  0  0  0  0
   -0.2589   58.9929   72.3759 H   0  0  0  0  0  0  0  0  0  0  0  0
    2.1597   60.3860   73.6889 H   0  0  0  0  0  0  0  0  0  0  0  0
    2.1539   59.3795   72.1822 H   0  0  0  0  0  0  0  0  0  0  0  0
   -1.3858   62.3805   73.8229 H   0  0  0  0  0  0  0  0  0  0  0  0
   -1.9283   60.9603   75.4826 H   0  0  0  0  0  0  0  0  0  0  0  0
   -2.1960   59.3485   74.7595 H   0  0  0  0  0  0  0  0  0  0  0  0
   -1.0913   59.1603   76.9791 H   0  0  0  0  0  0  0  0  0  0  0  0
    0.2523   60.2081   76.3941 H   0  0  0  0  0  0  0  0  0  0  0  0
   -0.9735   63.8999   71.9305 H   0  0  0  0  0  0  0  0  0  0  0  0
    4.2125   61.2263   71.2149 H   0  0  0  0  0  0  0  0  0  0  0  0
    3.1678   59.9368   70.4988 H   0  0  0  0  0  0  0  0  0  0  0  0
    4.5932   63.1489   69.9227 H   0  0  0  0  0  0  0  0  0  0  0  0
    4.3064   63.0505   68.1239 H   0  0  0  0  0  0  0  0  0  0  0  0
    3.3628   57.1552   72.6557 H   0  0  0  0  0  0  0  0  0  0  0  0
    2.8939   56.2398   71.1830 H   0  0  0  0  0  0  0  0  0  0  0  0
    2.8300   58.0350   71.1830 H   0  0  0  0  0  0  0  0  0  0  0  0
    0.2844   65.8933   71.7109 H   0  0  0  0  0  0  0  0  0  0  0  0
    0.9216   66.8992   70.3660 H   0  0  0  0  0  0  0  0  0  0  0  0
   -0.7998   66.3858   70.3660 H   0  0  0  0  0  0  0  0  0  0  0  0
  2  1  2  0
  3  2  1  0
  4  3  1  0
  5  4  1  0
  6  2  1  0
  6  5  1  0
  7  6  2  0
  8  7  1  0
  9  8  2  0
  9  1  1  0
 10  9  1  0
 11 10  1  0
 12 11  1  0
 13 12  2  0
 14 13  1  0
 15 10  1  0
 15 14  2  0
 16 15  1  0
 17  8  1  0
 17 16  1  0
 18 13  1  0
 19 18  2  0
 20 19  1  0
 21 20  2  0
 21 12  1  0
 22 21  1  0
 23 22  1  0
 24 23  1  0
 25 24  1  0
 25 20  1  0
 27 26  1  0
 27  1  1  0
 28 19  1  0
 29 28  1  0
  4 30  1  0
  4 31  1  0
  7 32  1  0
 10 33  1  6
 11 34  1  0
 11 35  1  0
 14 36  1  0
 16 37  1  0
 16 38  1  0
 17 39  1  0
 17 40  1  0
 18 41  1  0
 22 42  1  0
 22 43  1  0
 24 44  1  0
 24 45  1  0
 26 46  1  0
 26 47  1  0
 26 48  1  0
 29 49  1  0
 29 50  1  0
 29 51  1  0
M  CHG  1  15   1
M  END
>  <score>  (1) 
-8.707

$$$$
=
     RDKit          3D

 51 56  0  0  0  0  0  0  0  0999 V2000
    3.1040   58.7110   75.6020 C   0  0  0  0  0  0  0  0  0  0  0  0
    3.7600   58.0590   76.6370 C   0  0  0  0  0  0  0  0  0  0  0  0
    4.4400   56.8800   76.5810 O   0  0  0  0  0  0  0  0  0  0  0  0
    4.8920   56.7310   77.9420 C   0  0  0  0  0  0  0  0  0  0  0  0
    4.4760   57.8150   78.7910 O   0  0  0  0  0  0  0  0  0  0  0  0
    3.7860   58.5870   77.9090 C   0  0  0  0  0  0  0  0  0  0  0  0
    3.1580   59.7690   78.2330 C   0  0  0  0  0  0  0  0  0  0  0  0
    2.4720   60.4500   77.2190 C   0  0  0  0  0  0  0  0  0  0  0  0
    2.4730   59.9470   75.8900 C   0  0  0  0  0  0  0  0  0  0  0  0
    1.8000   60.7230   74.7600 C   0  0  2  0  0  0  0  0  0  0  0  0
    2.8320   61.3050   73.7660 C   0  0  0  0  0  0  0  0  0  0  0  0
    2.1630   62.1360   72.6910 C   0  0  0  0  0  0  0  0  0  0  0  0
    1.0390   62.8940   73.0610 C   0  0  0  0  0  0  0  0  0  0  0  0
    0.5520   62.8030   74.4440 C   0  0  0  0  0  0  0  0  0  0  0  0
    0.9310   61.8680   75.2480 N   0  0  0  0  0  4  0  0  0  0  0  0
    0.4940   61.8480   76.6740 C   0  0  0  0  0  0  0  0  0  0  0  0
    1.7330   61.7210   77.5480 C   0  0  0  0  0  0  0  0  0  0  0  0
    0.3960   63.7540   72.1700 C   0  0  0  0  0  0  0  0  0  0  0  0
    0.8790   63.8690   70.8670 C   0  0  0  0  0  0  0  0  0  0  0  0
    2.0100   63.1240   70.4820 C   0  0  0  0  0  0  0  0  0  0  0  0
    2.6510   62.2440   71.3750 C   0  0  0  0  0  0  0  0  0  0  0  0
    3.8600   61.4920   70.8870 C   0  0  0  0  0  0  0  0  0  0  0  0
    3.8750   61.4180   69.4700 O   0  0  0  0  0  0  0  0  0  0  0  0
    3.7160   62.7150   68.9180 C   0  0  0  0  0  0  0  0  0  0  0  0
    2.4420   63.2860   69.1900 O   0  0  0  0  0  0  0  0  0  0  0  0
    2.0600   57.2350   74.0350 C   0  0  0  0  0  0  0  0  0  0  0  0
    2.9830   58.2860   74.3090 O   0  0  0  0  0  0  0  0  0  0  0  0
    0.3450   64.6870   69.9070 O   0  0  0  0  0  0  0  0  0  0  0  0
    0.3140   66.0860   70.1540 C   0  0  0  0  0  0  0  0  0  0  0  0
    4.4853   55.7923   78.3463 H   0  0  0  0  0  0  0  0  0  0  0  0
    5.9919   56.7269   77.9263 H   0  0  0  0  0  0  0  0  0  0  0  0
    3.1940   60.1668   79.2579 H   0  0  0  0  0  0  0  0  0  0  0  0
    1.1609   59.9802   74.2603 H   0  0  0  0  0  0  0  0  0  0  0  0
    3.5411   61.9394   74.3181 H   0  0  0  0  0  0  0  0  0  0  0  0
    3.3518   60.4666   73.2793 H   0  0  0  0  0  0  0  0  0  0  0  0
   -0.1606   63.5584   74.8066 H   0  0  0  0  0  0  0  0  0  0  0  0
   -0.0372   62.7809   76.9140 H   0  0  0  0  0  0  0  0  0  0  0  0
   -0.1854   61.0014   76.8518 H   0  0  0  0  0  0  0  0  0  0  0  0
    1.4315   61.7029   78.6057 H   0  0  0  0  0  0  0  0  0  0  0  0
    2.3943   62.5800   77.3613 H   0  0  0  0  0  0  0  0  0  0  0  0
   -0.4814   64.3343   72.4916 H   0  0  0  0  0  0  0  0  0  0  0  0
    4.7681   62.0095   71.2298 H   0  0  0  0  0  0  0  0  0  0  0  0
    3.8234   60.4695   71.2910 H   0  0  0  0  0  0  0  0  0  0  0  0
    4.4911   63.3720   69.3394 H   0  0  0  0  0  0  0  0  0  0  0  0
    3.8056   62.6193   67.8258 H   0  0  0  0  0  0  0  0  0  0  0  0
    1.6910   56.8148   74.9823 H   0  0  0  0  0  0  0  0  0  0  0  0
    1.2135   57.6322   73.4556 H   0  0  0  0  0  0  0  0  0  0  0  0
    2.5632   56.4469   73.4556 H   0  0  0  0  0  0  0  0  0  0  0  0
    0.3100   66.2668   71.2390 H   0  0  0  0  0  0  0  0  0  0  0  0
    1.2019   66.5570   69.7071 H   0  0  0  0  0  0  0  0  0  0  0  0
   -0.5939   66.5172   69.7071 H   0  0  0  0  0  0  0  0  0  0  0  0
  2  1  2  0
  3  2  1  0
  4  3  1  0
  5  4  1  0
  6  2  1  0
  6  5  1  0
  7  6  2  0
  8  7  1  0
  9  8  2  0
  9  1  1  0
 10  9  1  0
 11 10  1  0
 12 11  1  0
 13 12  2  0
 14 13  1  0
 15 10  1  0
 15 14  2  0
 16 15  1  0
 17  8  1  0
 17 16  1  0
 18 13  1  0
 19 18  2  0
 20 19  1  0
 21 20  2  0
 21 12  1  0
 22 21  1  0
 23 22  1  0
 24 23  1  0
 25 24  1  0
 25 20  1  0
 27 26  1  0
 27  1  1  0
 28 19  1  0
 29 28  1  0
  4 30  1  0
  4 31  1  0
  7 32  1  0
 10 33  1  6
 11 34  1  0
 11 35  1  0
 14 36  1  0
 16 37  1  0
 16 38  1  0
 17 39  1  0
 17 40  1  0
 18 41  1  0
 22 42  1  0
 22 43  1  0
 24 44  1  0
 24 45  1  0
 26 46  1  0
 26 47  1  0
 26 48  1  0
 29 49  1  0
 29 50  1  0
 29 51  1  0
M  CHG  1  15   1
M  END
>  <score>  (2) 
-8.588

$$$$
=
     RDKit          3D

 51 56  0  0  0  0  0  0  0  0999 V2000
    2.9620   61.2040   72.6720 C   0  0  0  0  0  0  0  0  0  0  0  0
    3.5680   62.1190   71.8230 C   0  0  0  0  0  0  0  0  0  0  0  0
    4.9000   62.2840   71.5880 O   0  0  0  0  0  0  0  0  0  0  0  0
    4.9030   63.3590   70.6280 C   0  0  0  0  0  0  0  0  0  0  0  0
    3.5820   63.8250   70.3050 O   0  0  0  0  0  0  0  0  0  0  0  0
    2.8200   63.0080   71.0820 C   0  0  0  0  0  0  0  0  0  0  0  0
    1.4460   63.0570   71.1500 C   0  0  0  0  0  0  0  0  0  0  0  0
    0.7970   62.1600   72.0080 C   0  0  0  0  0  0  0  0  0  0  0  0
    1.5460   61.2020   72.7440 C   0  0  0  0  0  0  0  0  0  0  0  0
    0.8440   60.1650   73.6180 C   0  0  2  0  0  0  0  0  0  0  0  0
    0.9710   58.7380   73.0340 C   0  0  0  0  0  0  0  0  0  0  0  0
    0.2100   57.7260   73.8640 C   0  0  0  0  0  0  0  0  0  0  0  0
   -0.9990   58.1420   74.4470 C   0  0  0  0  0  0  0  0  0  0  0  0
   -1.4300   59.5340   74.2600 C   0  0  0  0  0  0  0  0  0  0  0  0
   -0.6320   60.4510   73.8270 N   0  0  0  0  0  4  0  0  0  0  0  0
   -1.1150   61.8350   73.5580 C   0  0  0  0  0  0  0  0  0  0  0  0
   -0.7020   62.2160   72.1440 C   0  0  0  0  0  0  0  0  0  0  0  0
   -1.8180   57.2690   75.1650 C   0  0  0  0  0  0  0  0  0  0  0  0
   -1.4280   55.9390   75.3130 C   0  0  0  0  0  0  0  0  0  0  0  0
   -0.2240   55.5030   74.7270 C   0  0  0  0  0  0  0  0  0  0  0  0
    0.6100   56.3860   74.0160 C   0  0  0  0  0  0  0  0  0  0  0  0
    1.8750   55.8370   73.4120 C   0  0  0  0  0  0  0  0  0  0  0  0
    2.2700   54.6380   74.0610 O   0  0  0  0  0  0  0  0  0  0  0  0
    1.1820   53.7290   74.0960 C   0  0  0  0  0  0  0  0  0  0  0  0
    0.1000   54.1810   74.9010 O   0  0  0  0  0  0  0  0  0  0  0  0
    4.3890   59.2920   72.8530 C   0  0  0  0  0  0  0  0  0  0  0  0
    3.5840   60.2900   73.4750 O   0  0  0  0  0  0  0  0  0  0  0  0
   -2.1500   54.9840   75.9800 O   0  0  0  0  0  0  0  0  0  0  0  0
   -3.1530   55.4100   76.8910 C   0  0  0  0  0  0  0  0  0  0  0  0
    5.4795   64.1987   71.0434 H   0  0  0  0  0  0  0  0  0  0  0  0
    5.3521   62.9724   69.7013 H   0  0  0  0  0  0  0  0  0  0  0  0
    0.8746   63.7792   70.5484 H   0  0  0  0  0  0  0  0  0  0  0  0
    1.3584   60.2306   74.5881 H   0  0  0  0  0  0  0  0  0  0  0  0
    0.5691   58.7343   72.0100 H   0  0  0  0  0  0  0  0  0  0  0  0
    2.0346   58.4574   73.0398 H   0  0  0  0  0  0  0  0  0  0  0  0
   -2.4696   59.8041   74.4975 H   0  0  0  0  0  0  0  0  0  0  0  0
   -2.2107   61.8712   73.6485 H   0  0  0  0  0  0  0  0  0  0  0  0
   -0.6790   62.5374   74.2836 H   0  0  0  0  0  0  0  0  0  0  0  0
   -1.0488   63.2370   71.9266 H   0  0  0  0  0  0  0  0  0  0  0  0
   -1.1539   61.5073   71.4344 H   0  0  0  0  0  0  0  0  0  0  0  0
   -2.7592   57.6261   75.6084 H   0  0  0  0  0  0  0  0  0  0  0  0
    1.7036   55.6291   72.3455 H   0  0  0  0  0  0  0  0  0  0  0  0
    2.6746   56.5822   73.5358 H   0  0  0  0  0  0  0  0  0  0  0  0
    0.8161   53.5819   73.0691 H   0  0  0  0  0  0  0  0  0  0  0  0
    1.5519   52.7934   74.5408 H   0  0  0  0  0  0  0  0  0  0  0  0
    4.8803   58.6829   73.6261 H   0  0  0  0  0  0  0  0  0  0  0  0
    3.7550   58.6475   72.2264 H   0  0  0  0  0  0  0  0  0  0  0  0
    5.1531   59.7753   72.2264 H   0  0  0  0  0  0  0  0  0  0  0  0
   -2.7997   55.2599   77.9218 H   0  0  0  0  0  0  0  0  0  0  0  0
   -3.3669   56.4767   76.7283 H   0  0  0  0  0  0  0  0  0  0  0  0
   -4.0692   54.8233   76.7283 H   0  0  0  0  0  0  0  0  0  0  0  0
  2  1  2  0
  3  2  1  0
  4  3  1  0
  5  4  1  0
  6  2  1  0
  6  5  1  0
  7  6  2  0
  8  7  1  0
  9  8  2  0
  9  1  1  0
 10  9  1  0
 11 10  1  0
 12 11  1  0
 13 12  2  0
 14 13  1  0
 15 10  1  0
 15 14  2  0
 16 15  1  0
 17  8  1  0
 17 16  1  0
 18 13  1  0
 19 18  2  0
 20 19  1  0
 21 20  2  0
 21 12  1  0
 22 21  1  0
 23 22  1  0
 24 23  1  0
 25 24  1  0
 25 20  1  0
 27 26  1  0
 27  1  1  0
 28 19  1  0
 29 28  1  0
  4 30  1  0
  4 31  1  0
  7 32  1  0
 10 33  1  1
 11 34  1  0
 11 35  1  0
 14 36  1  0
 16 37  1  0
 16 38  1  0
 17 39  1  0
 17 40  1  0
 18 41  1  0
 22 42  1  0
 22 43  1  0
 24 44  1  0
 24 45  1  0
 26 46  1  0
 26 47  1  0
 26 48  1  0
 29 49  1  0
 29 50  1  0
 29 51  1  0
M  CHG  1  15   1
M  END
>  <score>  (3) 
-8.478

$$$$
=
     RDKit          3D

 51 56  0  0  0  0  0  0  0  0999 V2000
   -1.1860   58.8170   75.5000 C   0  0  0  0  0  0  0  0  0  0  0  0
   -2.1800   58.0140   76.0390 C   0  0  0  0  0  0  0  0  0  0  0  0
   -3.1250   58.3600   76.9590 O   0  0  0  0  0  0  0  0  0  0  0  0
   -3.8580   57.1290   77.1130 C   0  0  0  0  0  0  0  0  0  0  0  0
   -3.3440   56.0660   76.2910 O   0  0  0  0  0  0  0  0  0  0  0  0
   -2.3150   56.6950   75.6640 C   0  0  0  0  0  0  0  0  0  0  0  0
   -1.4730   56.0950   74.7550 C   0  0  0  0  0  0  0  0  0  0  0  0
   -0.4460   56.8680   74.1980 C   0  0  0  0  0  0  0  0  0  0  0  0
   -0.3190   58.2430   74.5360 C   0  0  0  0  0  0  0  0  0  0  0  0
    0.7440   59.1150   73.8730 C   0  0  2  0  0  0  0  0  0  0  0  0
    0.1190   60.1590   72.9170 C   0  0  0  0  0  0  0  0  0  0  0  0
    1.1820   60.9700   72.2060 C   0  0  0  0  0  0  0  0  0  0  0  0
    2.3710   60.3120   71.8480 C   0  0  0  0  0  0  0  0  0  0  0  0
    2.5350   58.9010   72.2210 C   0  0  0  0  0  0  0  0  0  0  0  0
    1.7720   58.3230   73.0870 N   0  0  0  0  0  4  0  0  0  0  0  0
    1.8990   56.8670   73.3820 C   0  0  0  0  0  0  0  0  0  0  0  0
    0.5240   56.2310   73.2370 C   0  0  0  0  0  0  0  0  0  0  0  0
    3.3810   60.9440   71.1220 C   0  0  0  0  0  0  0  0  0  0  0  0
    3.2120   62.2730   70.7360 C   0  0  0  0  0  0  0  0  0  0  0  0
    2.0220   62.9440   71.0770 C   0  0  0  0  0  0  0  0  0  0  0  0
    1.0090   62.3130   71.8230 C   0  0  0  0  0  0  0  0  0  0  0  0
   -0.2360   63.0990   72.1380 C   0  0  0  0  0  0  0  0  0  0  0  0
    0.0080   64.4940   72.0540 O   0  0  0  0  0  0  0  0  0  0  0  0
    0.6110   64.8050   70.8090 C   0  0  0  0  0  0  0  0  0  0  0  0
    1.9110   64.2470   70.6620 O   0  0  0  0  0  0  0  0  0  0  0  0
   -0.3490   60.4150   77.0710 C   0  0  0  0  0  0  0  0  0  0  0  0
   -0.9300   60.1250   75.8030 O   0  0  0  0  0  0  0  0  0  0  0  0
    4.1210   62.9960   70.0100 O   0  0  0  0  0  0  0  0  0  0  0  0
    5.2450   63.5400   70.6860 C   0  0  0  0  0  0  0  0  0  0  0  0
   -3.8026   56.8167   78.1663 H   0  0  0  0  0  0  0  0  0  0  0  0
   -4.8943   57.3196   76.7972 H   0  0  0  0  0  0  0  0  0  0  0  0
   -1.6028   55.0394   74.4742 H   0  0  0  0  0  0  0  0  0  0  0  0
    1.2495   59.6156   74.7119 H   0  0  0  0  0  0  0  0  0  0  0  0
   -0.4920   59.6355   72.1669 H   0  0  0  0  0  0  0  0  0  0  0  0
   -0.4970   60.8473   73.5143 H   0  0  0  0  0  0  0  0  0  0  0  0
    3.3362   58.3162   71.7457 H   0  0  0  0  0  0  0  0  0  0  0  0
    2.6005   56.4032   72.6730 H   0  0  0  0  0  0  0  0  0  0  0  0
    2.2810   56.7179   74.4027 H   0  0  0  0  0  0  0  0  0  0  0  0
    0.5964   55.1549   73.4532 H   0  0  0  0  0  0  0  0  0  0  0  0
    0.1639   56.3832   72.2088 H   0  0  0  0  0  0  0  0  0  0  0  0
    4.2998   60.4001   70.8573 H   0  0  0  0  0  0  0  0  0  0  0  0
   -1.0238   62.8278   71.4198 H   0  0  0  0  0  0  0  0  0  0  0  0
   -0.5509   62.8597   73.1644 H   0  0  0  0  0  0  0  0  0  0  0  0
   -0.0295   64.4166   70.0034 H   0  0  0  0  0  0  0  0  0  0  0  0
    0.7170   65.8988   70.7609 H   0  0  0  0  0  0  0  0  0  0  0  0
   -1.0254   60.0774   77.8701 H   0  0  0  0  0  0  0  0  0  0  0  0
    0.6146   59.8922   77.1610 H   0  0  0  0  0  0  0  0  0  0  0  0
   -0.1876   61.4994   77.1610 H   0  0  0  0  0  0  0  0  0  0  0  0
    5.0908   63.4654   71.7726 H   0  0  0  0  0  0  0  0  0  0  0  0
    6.1487   62.9796   70.4045 H   0  0  0  0  0  0  0  0  0  0  0  0
    5.3662   64.5965   70.4045 H   0  0  0  0  0  0  0  0  0  0  0  0
  2  1  2  0
  3  2  1  0
  4  3  1  0
  5  4  1  0
  6  2  1  0
  6  5  1  0
  7  6  2  0
  8  7  1  0
  9  8  2  0
  9  1  1  0
 10  9  1  0
 11 10  1  0
 12 11  1  0
 13 12  2  0
 14 13  1  0
 15 10  1  0
 15 14  2  0
 16 15  1  0
 17  8  1  0
 17 16  1  0
 18 13  1  0
 19 18  2  0
 20 19  1  0
 21 20  2  0
 21 12  1  0
 22 21  1  0
 23 22  1  0
 24 23  1  0
 25 24  1  0
 25 20  1  0
 27 26  1  0
 27  1  1  0
 28 19  1  0
 29 28  1  0
  4 30  1  0
  4 31  1  0
  7 32  1  0
 10 33  1  1
 11 34  1  0
 11 35  1  0
 14 36  1  0
 16 37  1  0
 16 38  1  0
 17 39  1  0
 17 40  1  0
 18 41  1  0
 22 42  1  0
 22 43  1  0
 24 44  1  0
 24 45  1  0
 26 46  1  0
 26 47  1  0
 26 48  1  0
 29 49  1  0
 29 50  1  0
 29 51  1  0
M  CHG  1  15   1
M  END
>  <score>  (4) 
-8.255

$$$$
=
     RDKit          3D

 51 56  0  0  0  0  0  0  0  0999 V2000
   -4.3120   62.2330   75.5100 C   0  0  0  0  0  0  0  0  0  0  0  0
   -5.6450   62.5600   75.7180 C   0  0  0  0  0  0  0  0  0  0  0  0
   -6.1710   63.7890   75.9820 O   0  0  0  0  0  0  0  0  0  0  0  0
   -7.5780   63.4940   76.0890 C   0  0  0  0  0  0  0  0  0  0  0  0
   -7.8750   62.1010   75.8910 O   0  0  0  0  0  0  0  0  0  0  0  0
   -6.6310   61.5990   75.6680 C   0  0  0  0  0  0  0  0  0  0  0  0
   -6.3580   60.2700   75.4300 C   0  0  0  0  0  0  0  0  0  0  0  0
   -5.0230   59.8970   75.2310 C   0  0  0  0  0  0  0  0  0  0  0  0
   -3.9960   60.8800   75.2300 C   0  0  0  0  0  0  0  0  0  0  0  0
   -2.5480   60.4970   74.9320 C   0  0  2  0  0  0  0  0  0  0  0  0
   -2.0760   61.0520   73.5670 C   0  0  0  0  0  0  0  0  0  0  0  0
   -0.6650   60.6060   73.2430 C   0  0  0  0  0  0  0  0  0  0  0  0
   -0.2820   59.3160   73.6480 C   0  0  0  0  0  0  0  0  0  0  0  0
   -1.2450   58.4980   74.3970 C   0  0  0  0  0  0  0  0  0  0  0  0
   -2.3070   58.9990   74.9310 N   0  0  0  0  0  4  0  0  0  0  0  0
   -3.3160   58.1340   75.6080 C   0  0  0  0  0  0  0  0  0  0  0  0
   -4.6820   58.4450   75.0160 C   0  0  0  0  0  0  0  0  0  0  0  0
    0.9660   58.7770   73.3310 C   0  0  0  0  0  0  0  0  0  0  0  0
    1.8670   59.5380   72.5900 C   0  0  0  0  0  0  0  0  0  0  0  0
    1.4960   60.8290   72.1670 C   0  0  0  0  0  0  0  0  0  0  0  0
    0.2440   61.3810   72.4980 C   0  0  0  0  0  0  0  0  0  0  0  0
   -0.0790   62.7640   71.9990 C   0  0  0  0  0  0  0  0  0  0  0  0
    1.1060   63.4810   71.6870 O   0  0  0  0  0  0  0  0  0  0  0  0
    1.9240   62.7100   70.8230 C   0  0  0  0  0  0  0  0  0  0  0  0
    2.4230   61.5260   71.4340 O   0  0  0  0  0  0  0  0  0  0  0  0
   -2.8480   63.5930   76.8270 C   0  0  0  0  0  0  0  0  0  0  0  0
   -3.2410   63.0810   75.5560 O   0  0  0  0  0  0  0  0  0  0  0  0
    3.1120   59.1170   72.2050 O   0  0  0  0  0  0  0  0  0  0  0  0
    3.2050   58.0660   71.2530 C   0  0  0  0  0  0  0  0  0  0  0  0
   -7.9227   63.7872   77.0916 H   0  0  0  0  0  0  0  0  0  0  0  0
   -8.0941   64.0570   75.2974 H   0  0  0  0  0  0  0  0  0  0  0  0
   -7.1652   59.5234   75.3972 H   0  0  0  0  0  0  0  0  0  0  0  0
   -1.9703   60.9477   75.7524 H   0  0  0  0  0  0  0  0  0  0  0  0
   -2.7545   60.6903   72.7804 H   0  0  0  0  0  0  0  0  0  0  0  0
   -2.0867   62.1507   73.6194 H   0  0  0  0  0  0  0  0  0  0  0  0
   -1.0538   57.4203   74.5064 H   0  0  0  0  0  0  0  0  0  0  0  0
   -3.0703   57.0748   75.4413 H   0  0  0  0  0  0  0  0  0  0  0  0
   -3.3179   58.3283   76.6907 H   0  0  0  0  0  0  0  0  0  0  0  0
   -5.4415   57.8170   75.5047 H   0  0  0  0  0  0  0  0  0  0  0  0
   -4.6614   58.2368   73.9361 H   0  0  0  0  0  0  0  0  0  0  0  0
    1.2347   57.7632   73.6625 H   0  0  0  0  0  0  0  0  0  0  0  0
   -0.7001   62.6844   71.0946 H   0  0  0  0  0  0  0  0  0  0  0  0
   -0.6186   63.3053   72.7901 H   0  0  0  0  0  0  0  0  0  0  0  0
    1.3309   62.4254   69.9414 H   0  0  0  0  0  0  0  0  0  0  0  0
    2.7917   63.3302   70.5539 H   0  0  0  0  0  0  0  0  0  0  0  0
   -3.3099   62.9912   77.6235 H   0  0  0  0  0  0  0  0  0  0  0  0
   -1.7529   63.5446   76.9191 H   0  0  0  0  0  0  0  0  0  0  0  0
   -3.1779   64.6383   76.9191 H   0  0  0  0  0  0  0  0  0  0  0  0
    3.2902   57.1028   71.7774 H   0  0  0  0  0  0  0  0  0  0  0  0
    2.3037   58.0617   70.6224 H   0  0  0  0  0  0  0  0  0  0  0  0
    4.0930   58.2200   70.6224 H   0  0  0  0  0  0  0  0  0  0  0  0
  2  1  2  0
  3  2  1  0
  4  3  1  0
  5  4  1  0
  6  2  1  0
  6  5  1  0
  7  6  2  0
  8  7  1  0
  9  8  2  0
  9  1  1  0
 10  9  1  0
 11 10  1  0
 12 11  1  0
 13 12  2  0
 14 13  1  0
 15 10  1  0
 15 14  2  0
 16 15  1  0
 17  8  1  0
 17 16  1  0
 18 13  1  0
 19 18  2  0
 20 19  1  0
 21 20  2  0
 21 12  1  0
 22 21  1  0
 23 22  1  0
 24 23  1  0
 25 24  1  0
 25 20  1  0
 27 26  1  0
 27  1  1  0
 28 19  1  0
 29 28  1  0
  4 30  1  0
  4 31  1  0
  7 32  1  0
 10 33  1  1
 11 34  1  0
 11 35  1  0
 14 36  1  0
 16 37  1  0
 16 38  1  0
 17 39  1  0
 17 40  1  0
 18 41  1  0
 22 42  1  0
 22 43  1  0
 24 44  1  0
 24 45  1  0
 26 46  1  0
 26 47  1  0
 26 48  1  0
 29 49  1  0
 29 50  1  0
 29 51  1  0
M  CHG  1  15   1
M  END
>  <score>  (5) 
-8.149

$$$$
=
     RDKit          3D

 51 56  0  0  0  0  0  0  0  0999 V2000
    1.2310   62.8190   72.1790 C   0  0  0  0  0  0  0  0  0  0  0  0
    1.1510   63.9330   71.3550 C   0  0  0  0  0  0  0  0  0  0  0  0
    0.1420   64.8460   71.2830 O   0  0  0  0  0  0  0  0  0  0  0  0
    0.6280   65.7500   70.2710 C   0  0  0  0  0  0  0  0  0  0  0  0
    1.9130   65.3670   69.7500 O   0  0  0  0  0  0  0  0  0  0  0  0
    2.1620   64.2410   70.4710 C   0  0  0  0  0  0  0  0  0  0  0  0
    3.2910   63.4650   70.3390 C   0  0  0  0  0  0  0  0  0  0  0  0
    3.4030   62.3230   71.1420 C   0  0  0  0  0  0  0  0  0  0  0  0
    2.3950   62.0130   72.0940 C   0  0  0  0  0  0  0  0  0  0  0  0
    2.5450   60.8180   73.0320 C   0  0  2  0  0  0  0  0  0  0  0  0
    2.7700   61.2610   74.4980 C   0  0  0  0  0  0  0  0  0  0  0  0
    2.9940   60.0730   75.4100 C   0  0  0  0  0  0  0  0  0  0  0  0
    3.7050   58.9780   74.8900 C   0  0  0  0  0  0  0  0  0  0  0  0
    4.1460   59.0260   73.4890 C   0  0  0  0  0  0  0  0  0  0  0  0
    3.6820   59.8890   72.6490 N   0  0  0  0  0  4  0  0  0  0  0  0
    4.2110   59.9780   71.2580 C   0  0  0  0  0  0  0  0  0  0  0  0
    4.6030   61.4240   70.9900 C   0  0  0  0  0  0  0  0  0  0  0  0
    4.0350   57.8680   75.6670 C   0  0  0  0  0  0  0  0  0  0  0  0
    3.6480   57.8360   77.0060 C   0  0  0  0  0  0  0  0  0  0  0  0
    2.9430   58.9290   77.5470 C   0  0  0  0  0  0  0  0  0  0  0  0
    2.5970   60.0430   76.7600 C   0  0  0  0  0  0  0  0  0  0  0  0
    1.8520   61.1740   77.4170 C   0  0  0  0  0  0  0  0  0  0  0  0
    1.1940   60.7330   78.5950 O   0  0  0  0  0  0  0  0  0  0  0  0
    2.1130   60.0550   79.4360 C   0  0  0  0  0  0  0  0  0  0  0  0
    2.5980   58.8420   78.8720 O   0  0  0  0  0  0  0  0  0  0  0  0
   -0.8860   61.7740   72.5660 C   0  0  0  0  0  0  0  0  0  0  0  0
    0.2930   62.3910   73.0760 O   0  0  0  0  0  0  0  0  0  0  0  0
    3.9230   56.8130   77.8730 O   0  0  0  0  0  0  0  0  0  0  0  0
    5.2250   56.7360   78.4360 C   0  0  0  0  0  0  0  0  0  0  0  0
   -0.0950   65.7708   69.4422 H   0  0  0  0  0  0  0  0  0  0  0  0
    0.7424   66.7390   70.7387 H   0  0  0  0  0  0  0  0  0  0  0  0
    4.0823   63.7339   69.6237 H   0  0  0  0  0  0  0  0  0  0  0  0
    1.5944   60.2728   72.9362 H   0  0  0  0  0  0  0  0  0  0  0  0
    3.6525   61.9163   74.5417 H   0  0  0  0  0  0  0  0  0  0  0  0
    1.8695   61.7925   74.8394 H   0  0  0  0  0  0  0  0  0  0  0  0
    4.8979   58.3010   73.1442 H   0  0  0  0  0  0  0  0  0  0  0  0
    5.0918   59.3277   71.1523 H   0  0  0  0  0  0  0  0  0  0  0  0
    3.4452   59.6523   70.5387 H   0  0  0  0  0  0  0  0  0  0  0  0
    4.9951   61.5108   69.9659 H   0  0  0  0  0  0  0  0  0  0  0  0
    5.3741   61.7278   71.7132 H   0  0  0  0  0  0  0  0  0  0  0  0
    4.5938   57.0280   75.2288 H   0  0  0  0  0  0  0  0  0  0  0  0
    2.5646   61.9698   77.6794 H   0  0  0  0  0  0  0  0  0  0  0  0
    1.0955   61.5511   76.7131 H   0  0  0  0  0  0  0  0  0  0  0  0
    2.9690   60.7192   79.6260 H   0  0  0  0  0  0  0  0  0  0  0  0
    1.5790   59.7949   80.3618 H   0  0  0  0  0  0  0  0  0  0  0  0
   -1.5182   61.4432   73.4032 H   0  0  0  0  0  0  0  0  0  0  0  0
   -1.4414   62.4971   71.9506 H   0  0  0  0  0  0  0  0  0  0  0  0
   -0.6085   60.9055   71.9506 H   0  0  0  0  0  0  0  0  0  0  0  0
    5.1508   56.7404   79.5335 H   0  0  0  0  0  0  0  0  0  0  0  0
    5.7132   55.8074   78.1052 H   0  0  0  0  0  0  0  0  0  0  0  0
    5.8192   57.6006   78.1052 H   0  0  0  0  0  0  0  0  0  0  0  0
  2  1  2  0
  3  2  1  0
  4  3  1  0
  5  4  1  0
  6  2  1  0
  6  5  1  0
  7  6  2  0
  8  7  1  0
  9  8  2  0
  9  1  1  0
 10  9  1  0
 11 10  1  0
 12 11  1  0
 13 12  2  0
 14 13  1  0
 15 10  1  0
 15 14  2  0
 16 15  1  0
 17  8  1  0
 17 16  1  0
 18 13  1  0
 19 18  2  0
 20 19  1  0
 21 20  2  0
 21 12  1  0
 22 21  1  0
 23 22  1  0
 24 23  1  0
 25 24  1  0
 25 20  1  0
 27 26  1  0
 27  1  1  0
 28 19  1  0
 29 28  1  0
  4 30  1  0
  4 31  1  0
  7 32  1  0
 10 33  1  1
 11 34  1  0
 11 35  1  0
 14 36  1  0
 16 37  1  0
 16 38  1  0
 17 39  1  0
 17 40  1  0
 18 41  1  0
 22 42  1  0
 22 43  1  0
 24 44  1  0
 24 45  1  0
 26 46  1  0
 26 47  1  0
 26 48  1  0
 29 49  1  0
 29 50  1  0
 29 51  1  0
M  CHG  1  15   1
M  END
>  <score>  (6) 
-8.044

$$$$
=
     RDKit          3D

 51 56  0  0  0  0  0  0  0  0999 V2000
    2.7390   61.2290   71.4530 C   0  0  0  0  0  0  0  0  0  0  0  0
    3.0510   61.9400   70.3020 C   0  0  0  0  0  0  0  0  0  0  0  0
    3.8850   61.5660   69.2910 O   0  0  0  0  0  0  0  0  0  0  0  0
    3.7960   62.6930   68.3980 C   0  0  0  0  0  0  0  0  0  0  0  0
    2.9180   63.7240   68.8840 O   0  0  0  0  0  0  0  0  0  0  0  0
    2.5020   63.1800   70.0590 C   0  0  0  0  0  0  0  0  0  0  0  0
    1.6350   63.7910   70.9370 C   0  0  0  0  0  0  0  0  0  0  0  0
    1.3070   63.1120   72.1170 C   0  0  0  0  0  0  0  0  0  0  0  0
    1.8240   61.8120   72.3660 C   0  0  0  0  0  0  0  0  0  0  0  0
    1.4080   61.0300   73.6090 C   0  0  2  0  0  0  0  0  0  0  0  0
    0.5180   59.8140   73.2530 C   0  0  0  0  0  0  0  0  0  0  0  0
    0.0470   59.0870   74.4950 C   0  0  0  0  0  0  0  0  0  0  0  0
   -0.2420   59.8610   75.6320 C   0  0  0  0  0  0  0  0  0  0  0  0
   -0.0280   61.3130   75.5680 C   0  0  0  0  0  0  0  0  0  0  0  0
    0.6600   61.8690   74.6280 N   0  0  0  0  0  4  0  0  0  0  0  0
    0.7870   63.3510   74.5330 C   0  0  0  0  0  0  0  0  0  0  0  0
    0.3990   63.7710   73.1240 C   0  0  0  0  0  0  0  0  0  0  0  0
   -0.7570   59.3010   76.8020 C   0  0  0  0  0  0  0  0  0  0  0  0
   -0.9940   57.9290   76.8520 C   0  0  0  0  0  0  0  0  0  0  0  0
   -0.7190   57.1390   75.7180 C   0  0  0  0  0  0  0  0  0  0  0  0
   -0.1850   57.7000   74.5420 C   0  0  0  0  0  0  0  0  0  0  0  0
    0.0700   56.7880   73.3730 C   0  0  0  0  0  0  0  0  0  0  0  0
    0.1900   55.4380   73.7960 O   0  0  0  0  0  0  0  0  0  0  0  0
   -0.9250   55.0840   74.5970 C   0  0  0  0  0  0  0  0  0  0  0  0
   -0.9810   55.7970   75.8270 O   0  0  0  0  0  0  0  0  0  0  0  0
    4.5560   59.9520   72.3420 C   0  0  0  0  0  0  0  0  0  0  0  0
    3.2300   60.0090   71.8240 O   0  0  0  0  0  0  0  0  0  0  0  0
   -1.5090   57.2650   77.9330 O   0  0  0  0  0  0  0  0  0  0  0  0
   -2.8420   57.5530   78.3300 C   0  0  0  0  0  0  0  0  0  0  0  0
    4.8017   63.1198   68.2701 H   0  0  0  0  0  0  0  0  0  0  0  0
    3.3822   62.3284   67.4463 H   0  0  0  0  0  0  0  0  0  0  0  0
    1.2126   64.7828   70.7181 H   0  0  0  0  0  0  0  0  0  0  0  0
    2.3570   60.6959   74.0537 H   0  0  0  0  0  0  0  0  0  0  0  0
   -0.3595   60.1660   72.6907 H   0  0  0  0  0  0  0  0  0  0  0  0
    1.1154   59.1145   72.6499 H   0  0  0  0  0  0  0  0  0  0  0  0
   -0.4699   61.9491   76.3491 H   0  0  0  0  0  0  0  0  0  0  0  0
    0.1169   63.8298   75.2622 H   0  0  0  0  0  0  0  0  0  0  0  0
    1.8204   63.6588   74.7506 H   0  0  0  0  0  0  0  0  0  0  0  0
    0.4874   64.8637   73.0330 H   0  0  0  0  0  0  0  0  0  0  0  0
   -0.6384   63.4613   72.9294 H   0  0  0  0  0  0  0  0  0  0  0  0
   -0.9732   59.9353   77.6743 H   0  0  0  0  0  0  0  0  0  0  0  0
   -0.7672   56.8695   72.6641 H   0  0  0  0  0  0  0  0  0  0  0  0
    1.0128   57.0894   72.8932 H   0  0  0  0  0  0  0  0  0  0  0  0
   -1.8437   55.2935   74.0294 H   0  0  0  0  0  0  0  0  0  0  0  0
   -0.8251   54.0164   74.8425 H   0  0  0  0  0  0  0  0  0  0  0  0
    4.5205   59.9535   73.4414 H   0  0  0  0  0  0  0  0  0  0  0  0
    5.0470   59.0319   71.9923 H   0  0  0  0  0  0  0  0  0  0  0  0
    5.1242   60.8265   71.9923 H   0  0  0  0  0  0  0  0  0  0  0  0
   -2.9028   57.5661   79.4282 H   0  0  0  0  0  0  0  0  0  0  0  0
   -3.1381   58.5358   77.9346 H   0  0  0  0  0  0  0  0  0  0  0  0
   -3.5175   56.7801   77.9346 H   0  0  0  0  0  0  0  0  0  0  0  0
  2  1  2  0
  3  2  1  0
  4  3  1  0
  5  4  1  0
  6  2  1  0
  6  5  1  0
  7  6  2  0
  8  7  1  0
  9  8  2  0
  9  1  1  0
 10  9  1  0
 11 10  1  0
 12 11  1  0
 13 12  2  0
 14 13  1  0
 15 10  1  0
 15 14  2  0
 16 15  1  0
 17  8  1  0
 17 16  1  0
 18 13  1  0
 19 18  2  0
 20 19  1  0
 21 20  2  0
 21 12  1  0
 22 21  1  0
 23 22  1  0
 24 23  1  0
 25 24  1  0
 25 20  1  0
 27 26  1  0
 27  1  1  0
 28 19  1  0
 29 28  1  0
  4 30  1  0
  4 31  1  0
  7 32  1  0
 10 33  1  1
 11 34  1  0
 11 35  1  0
 14 36  1  0
 16 37  1  0
 16 38  1  0
 17 39  1  0
 17 40  1  0
 18 41  1  0
 22 42  1  0
 22 43  1  0
 24 44  1  0
 24 45  1  0
 26 46  1  0
 26 47  1  0
 26 48  1  0
 29 49  1  0
 29 50  1  0
 29 51  1  0
M  CHG  1  15   1
M  END
>  <score>  (7) 
-8.01

$$$$
=
     RDKit          3D

 51 56  0  0  0  0  0  0  0  0999 V2000
    2.0450   61.2040   72.1310 C   0  0  0  0  0  0  0  0  0  0  0  0
    3.3600   61.4740   71.7790 C   0  0  0  0  0  0  0  0  0  0  0  0
    3.8540   62.6070   71.2040 O   0  0  0  0  0  0  0  0  0  0  0  0
    5.2570   62.2980   71.0920 C   0  0  0  0  0  0  0  0  0  0  0  0
    5.5840   60.9910   71.5950 O   0  0  0  0  0  0  0  0  0  0  0  0
    4.3610   60.5540   71.9980 C   0  0  0  0  0  0  0  0  0  0  0  0
    4.1200   59.3180   72.5570 C   0  0  0  0  0  0  0  0  0  0  0  0
    2.8030   59.0010   72.9120 C   0  0  0  0  0  0  0  0  0  0  0  0
    1.7640   59.9540   72.7390 C   0  0  0  0  0  0  0  0  0  0  0  0
    0.3400   59.6510   73.1980 C   0  0  2  0  0  0  0  0  0  0  0  0
   -0.0670   60.5110   74.4180 C   0  0  0  0  0  0  0  0  0  0  0  0
   -1.4520   60.1520   74.9160 C   0  0  0  0  0  0  0  0  0  0  0  0
   -1.8370   58.8020   74.8470 C   0  0  0  0  0  0  0  0  0  0  0  0
   -0.9040   57.8320   74.2590 C   0  0  0  0  0  0  0  0  0  0  0  0
    0.1210   58.1940   73.5640 N   0  0  0  0  0  4  0  0  0  0  0  0
    1.1050   57.1960   73.0540 C   0  0  0  0  0  0  0  0  0  0  0  0
    2.4960   57.6400   73.4810 C   0  0  0  0  0  0  0  0  0  0  0  0
   -3.0580   58.3510   75.3500 C   0  0  0  0  0  0  0  0  0  0  0  0
   -3.9300   59.2640   75.9400 C   0  0  0  0  0  0  0  0  0  0  0  0
   -3.5550   60.6190   76.0260 C   0  0  0  0  0  0  0  0  0  0  0  0
   -2.3300   61.0790   75.5060 C   0  0  0  0  0  0  0  0  0  0  0  0
   -2.0020   62.5410   75.6480 C   0  0  0  0  0  0  0  0  0  0  0  0
   -3.1780   63.3100   75.8470 O   0  0  0  0  0  0  0  0  0  0  0  0
   -3.9370   62.7620   76.9120 C   0  0  0  0  0  0  0  0  0  0  0  0
   -4.4520   61.4680   76.6260 O   0  0  0  0  0  0  0  0  0  0  0  0
    0.9880   63.3110   72.5400 C   0  0  0  0  0  0  0  0  0  0  0  0
    0.9610   62.0160   71.9460 O   0  0  0  0  0  0  0  0  0  0  0  0
   -5.1460   58.9440   76.4820 O   0  0  0  0  0  0  0  0  0  0  0  0
   -6.0470   58.1670   75.7060 C   0  0  0  0  0  0  0  0  0  0  0  0
    5.5438   62.3477   70.0312 H   0  0  0  0  0  0  0  0  0  0  0  0
    5.8063   63.0324   71.6994 H   0  0  0  0  0  0  0  0  0  0  0  0
    4.9383   58.6011   72.7197 H   0  0  0  0  0  0  0  0  0  0  0  0
   -0.2871   59.8961   72.3281 H   0  0  0  0  0  0  0  0  0  0  0  0
    0.6578   60.3460   75.2288 H   0  0  0  0  0  0  0  0  0  0  0  0
   -0.0757   61.5663   74.1076 H   0  0  0  0  0  0  0  0  0  0  0  0
   -1.0856   56.7586   74.4168 H   0  0  0  0  0  0  0  0  0  0  0  0
    0.8840   56.2051   73.4773 H   0  0  0  0  0  0  0  0  0  0  0  0
    1.0466   57.1305   71.9575 H   0  0  0  0  0  0  0  0  0  0  0  0
    3.2379   56.9161   73.1129 H   0  0  0  0  0  0  0  0  0  0  0  0
    2.5360   57.6917   74.5791 H   0  0  0  0  0  0  0  0  0  0  0  0
   -3.3291   57.2871   75.2816 H   0  0  0  0  0  0  0  0  0  0  0  0
   -1.3331   62.6773   76.5105 H   0  0  0  0  0  0  0  0  0  0  0  0
   -1.5134   62.8815   74.7232 H   0  0  0  0  0  0  0  0  0  0  0  0
   -3.2927   62.6931   77.8009 H   0  0  0  0  0  0  0  0  0  0  0  0
   -4.7977   63.4271   77.0755 H   0  0  0  0  0  0  0  0  0  0  0  0
    0.9859   63.2120   73.6355 H   0  0  0  0  0  0  0  0  0  0  0  0
    1.8974   63.8416   72.2215 H   0  0  0  0  0  0  0  0  0  0  0  0
    0.1015   63.8790   72.2215 H   0  0  0  0  0  0  0  0  0  0  0  0
   -6.7086   57.5964   76.3743 H   0  0  0  0  0  0  0  0  0  0  0  0
   -6.6516   58.8316   75.0714 H   0  0  0  0  0  0  0  0  0  0  0  0
   -5.4785   57.4713   75.0714 H   0  0  0  0  0  0  0  0  0  0  0  0
  2  1  2  0
  3  2  1  0
  4  3  1  0
  5  4  1  0
  6  2  1  0
  6  5  1  0
  7  6  2  0
  8  7  1  0
  9  8  2  0
  9  1  1  0
 10  9  1  0
 11 10  1  0
 12 11  1  0
 13 12  2  0
 14 13  1  0
 15 10  1  0
 15 14  2  0
 16 15  1  0
 17  8  1  0
 17 16  1  0
 18 13  1  0
 19 18  2  0
 20 19  1  0
 21 20  2  0
 21 12  1  0
 22 21  1  0
 23 22  1  0
 24 23  1  0
 25 24  1  0
 25 20  1  0
 27 26  1  0
 27  1  1  0
 28 19  1  0
 29 28  1  0
  4 30  1  0
  4 31  1  0
  7 32  1  0
 10 33  1  6
 11 34  1  0
 11 35  1  0
 14 36  1  0
 16 37  1  0
 16 38  1  0
 17 39  1  0
 17 40  1  0
 18 41  1  0
 22 42  1  0
 22 43  1  0
 24 44  1  0
 24 45  1  0
 26 46  1  0
 26 47  1  0
 26 48  1  0
 29 49  1  0
 29 50  1  0
 29 51  1  0
M  CHG  1  15   1
M  END
>  <score>  (8) 
-7.374

$$$$
=
     RDKit          3D

 51 56  0  0  0  0  0  0  0  0999 V2000
    2.1570   61.2780   72.1060 C   0  0  0  0  0  0  0  0  0  0  0  0
    2.5890   62.0210   71.0170 C   0  0  0  0  0  0  0  0  0  0  0  0
    2.4240   63.3570   70.8000 O   0  0  0  0  0  0  0  0  0  0  0  0
    3.0810   63.5360   69.5300 C   0  0  0  0  0  0  0  0  0  0  0  0
    3.6240   62.3140   69.0030 O   0  0  0  0  0  0  0  0  0  0  0  0
    3.2780   61.4330   69.9800 C   0  0  0  0  0  0  0  0  0  0  0  0
    3.5630   60.0860   69.9510 C   0  0  0  0  0  0  0  0  0  0  0  0
    3.1300   59.2980   71.0250 C   0  0  0  0  0  0  0  0  0  0  0  0
    2.4600   59.8930   72.1280 C   0  0  0  0  0  0  0  0  0  0  0  0
    2.0570   59.0590   73.3410 C   0  0  2  0  0  0  0  0  0  0  0  0
    2.8950   59.4190   74.5910 C   0  0  0  0  0  0  0  0  0  0  0  0
    2.5430   58.5370   75.7700 C   0  0  0  0  0  0  0  0  0  0  0  0
    2.2180   57.1950   75.5050 C   0  0  0  0  0  0  0  0  0  0  0  0
    2.1920   56.7410   74.1080 C   0  0  0  0  0  0  0  0  0  0  0  0
    2.1830   57.5640   73.1140 N   0  0  0  0  0  4  0  0  0  0  0  0
    2.2490   57.0790   71.7060 C   0  0  0  0  0  0  0  0  0  0  0  0
    3.3820   57.8120   71.0040 C   0  0  0  0  0  0  0  0  0  0  0  0
    1.9560   56.2780   76.5230 C   0  0  0  0  0  0  0  0  0  0  0  0
    2.0150   56.6990   77.8500 C   0  0  0  0  0  0  0  0  0  0  0  0
    2.3480   58.0370   78.1350 C   0  0  0  0  0  0  0  0  0  0  0  0
    2.5990   58.9680   77.1090 C   0  0  0  0  0  0  0  0  0  0  0  0
    2.9580   60.3770   77.4990 C   0  0  0  0  0  0  0  0  0  0  0  0
    2.5170   60.6680   78.8160 O   0  0  0  0  0  0  0  0  0  0  0  0
    2.9740   59.6660   79.7100 C   0  0  0  0  0  0  0  0  0  0  0  0
    2.3990   58.3890   79.4600 O   0  0  0  0  0  0  0  0  0  0  0  0
    0.0880   62.1080   72.9750 C   0  0  0  0  0  0  0  0  0  0  0  0
    1.4470   61.7320   73.1820 O   0  0  0  0  0  0  0  0  0  0  0  0
    1.7930   55.8930   78.9350 O   0  0  0  0  0  0  0  0  0  0  0  0
    1.4420   54.5350   78.7070 C   0  0  0  0  0  0  0  0  0  0  0  0
    2.3507   63.9345   68.8103 H   0  0  0  0  0  0  0  0  0  0  0  0
    3.9207   64.2288   69.6880 H   0  0  0  0  0  0  0  0  0  0  0  0
    4.1145   59.6420   69.1092 H   0  0  0  0  0  0  0  0  0  0  0  0
    0.9973   59.3048   73.5038 H   0  0  0  0  0  0  0  0  0  0  0  0
    3.9617   59.2907   74.3549 H   0  0  0  0  0  0  0  0  0  0  0  0
    2.6761   60.4619   74.8637 H   0  0  0  0  0  0  0  0  0  0  0  0
    2.1798   55.6606   73.9018 H   0  0  0  0  0  0  0  0  0  0  0  0
    2.4419   55.9961   71.6937 H   0  0  0  0  0  0  0  0  0  0  0  0
    1.2956   57.2719   71.1924 H   0  0  0  0  0  0  0  0  0  0  0  0
    3.4461   57.4687   69.9609 H   0  0  0  0  0  0  0  0  0  0  0  0
    4.3262   57.5998   71.5269 H   0  0  0  0  0  0  0  0  0  0  0  0
    1.7057   55.2346   76.2810 H   0  0  0  0  0  0  0  0  0  0  0  0
    4.0504   60.4964   77.4508 H   0  0  0  0  0  0  0  0  0  0  0  0
    2.4636   61.0702   76.8026 H   0  0  0  0  0  0  0  0  0  0  0  0
    4.0666   59.5827   79.6132 H   0  0  0  0  0  0  0  0  0  0  0  0
    2.6715   59.9686   80.7234 H   0  0  0  0  0  0  0  0  0  0  0  0
   -0.4068   62.2449   73.9478 H   0  0  0  0  0  0  0  0  0  0  0  0
    0.0504   63.0503   72.4087 H   0  0  0  0  0  0  0  0  0  0  0  0
   -0.4286   61.3190   72.4087 H   0  0  0  0  0  0  0  0  0  0  0  0
    1.3098   54.0235   79.6718 H   0  0  0  0  0  0  0  0  0  0  0  0
    0.5027   54.4899   78.1363 H   0  0  0  0  0  0  0  0  0  0  0  0
    2.2418   54.0404   78.1363 H   0  0  0  0  0  0  0  0  0  0  0  0
  2  1  2  0
  3  2  1  0
  4  3  1  0
  5  4  1  0
  6  2  1  0
  6  5  1  0
  7  6  2  0
  8  7  1  0
  9  8  2  0
  9  1  1  0
 10  9  1  0
 11 10  1  0
 12 11  1  0
 13 12  2  0
 14 13  1  0
 15 10  1  0
 15 14  2  0
 16 15  1  0
 17  8  1  0
 17 16  1  0
 18 13  1  0
 19 18  2  0
 20 19  1  0
 21 20  2  0
 21 12  1  0
 22 21  1  0
 23 22  1  0
 24 23  1  0
 25 24  1  0
 25 20  1  0
 27 26  1  0
 27  1  1  0
 28 19  1  0
 29 28  1  0
  4 30  1  0
  4 31  1  0
  7 32  1  0
 10 33  1  1
 11 34  1  0
 11 35  1  0
 14 36  1  0
 16 37  1  0
 16 38  1  0
 17 39  1  0
 17 40  1  0
 18 41  1  0
 22 42  1  0
 22 43  1  0
 24 44  1  0
 24 45  1  0
 26 46  1  0
 26 47  1  0
 26 48  1  0
 29 49  1  0
 29 50  1  0
 29 51  1  0
M  CHG  1  15   1
M  END
>  <score>  (9) 
-7.193

$$$$
