=
     RDKit          3D

 43 45  0  0  0  0  0  0  0  0999 V2000
    0.6430   68.3990   67.3040 S   0  0  0  0  0  3  0  0  0  0  0  0
    0.4290   67.5900   68.7440 O   0  0  0  0  0  1  0  0  0  0  0  0
    6.2450   71.0690   68.3200 C   0  0  0  0  0  0  0  0  0  0  0  0
    6.4920   70.6950   66.9920 C   0  0  0  0  0  0  0  0  0  0  0  0
    5.5370   70.0240   66.2190 C   0  0  0  0  0  0  0  0  0  0  0  0
    4.3220   69.7460   66.8430 C   0  0  0  0  0  0  0  0  0  0  0  0
    4.0400   70.1030   68.1580 C   0  0  0  0  0  0  0  0  0  0  0  0
    5.0130   70.7760   68.9160 C   0  0  0  0  0  0  0  0  0  0  0  0
    2.7690   69.7110   68.5150 N   0  0  0  0  0  0  0  0  0  0  0  0
    2.2840   69.1240   67.4430 C   0  0  0  0  0  0  0  0  0  0  0  0
    3.1830   69.1200   66.4110 N   0  0  0  0  0  0  0  0  0  0  0  0
    8.0040   70.9910   69.9190 C   0  0  0  0  0  0  0  0  0  0  0  0
    7.2890   71.7160   68.9270 O   0  0  0  0  0  0  0  0  0  0  0  0
    1.0570   67.2140   65.9870 C   0  0  0  0  0  0  0  0  0  0  0  0
    0.9840   67.8520   64.6220 C   0  0  0  0  0  0  0  0  0  0  0  0
   -0.1370   68.5820   64.3870 N   0  0  0  0  0  0  0  0  0  0  0  0
   -0.2530   69.2130   63.1990 C   0  0  0  0  0  0  0  0  0  0  0  0
    0.6860   69.1380   62.1850 C   0  0  0  0  0  0  0  0  0  0  0  0
    1.7940   68.3220   62.4190 C   0  0  0  0  0  0  0  0  0  0  0  0
    1.9970   67.7020   63.6630 C   0  0  0  0  0  0  0  0  0  0  0  0
    3.2210   66.8700   63.9230 C   0  0  0  0  0  0  0  0  0  0  0  0
    0.4700   69.8670   60.8960 C   0  0  0  0  0  0  0  0  0  0  0  0
    2.7400   68.1890   61.4300 O   0  0  0  0  0  0  0  0  0  0  0  0
    3.8390   69.0690   61.6750 C   0  0  0  0  0  0  0  0  0  0  0  0
    7.4668   70.9363   66.5431 H   0  0  0  0  0  0  0  0  0  0  0  0
    5.7345   69.7323   65.1769 H   0  0  0  0  0  0  0  0  0  0  0  0
    4.8105   71.0669   69.9573 H   0  0  0  0  0  0  0  0  0  0  0  0
    3.0301   68.7175   65.4753 H   0  0  0  0  0  0  0  0  0  0  0  0
    7.6803   71.3193   70.9177 H   0  0  0  0  0  0  0  0  0  0  0  0
    7.8030   69.9157   69.8034 H   0  0  0  0  0  0  0  0  0  0  0  0
    9.0820   71.1770   69.8034 H   0  0  0  0  0  0  0  0  0  0  0  0
    2.0781   66.8397   66.1518 H   0  0  0  0  0  0  0  0  0  0  0  0
    0.3266   66.3922   66.0219 H   0  0  0  0  0  0  0  0  0  0  0  0
   -1.1504   69.8253   63.0261 H   0  0  0  0  0  0  0  0  0  0  0  0
    3.3713   66.7679   65.0079 H   0  0  0  0  0  0  0  0  0  0  0  0
    3.0890   65.8738   63.4757 H   0  0  0  0  0  0  0  0  0  0  0  0
    4.0988   67.3593   63.4757 H   0  0  0  0  0  0  0  0  0  0  0  0
    0.1633   70.9021   61.1071 H   0  0  0  0  0  0  0  0  0  0  0  0
    1.4051   69.8725   60.3167 H   0  0  0  0  0  0  0  0  0  0  0  0
   -0.3172   69.3622   60.3167 H   0  0  0  0  0  0  0  0  0  0  0  0
    3.9822   69.1837   62.7596 H   0  0  0  0  0  0  0  0  0  0  0  0
    4.7518   68.6493   61.2270 H   0  0  0  0  0  0  0  0  0  0  0  0
    3.6290   70.0514   61.2270 H   0  0  0  0  0  0  0  0  0  0  0  0
  1  2  1  1
  4  3  2  0
  5  4  1  0
  6  5  2  0
  7  6  1  0
  8  7  2  0
  8  3  1  0
  9  7  1  0
 10  9  2  0
 10  1  1  0
 11 10  1  0
 11  6  1  0
 13 12  1  0
 13  3  1  0
 14  1  1  0
 15 14  1  0
 16 15  2  0
 17 16  1  0
 18 17  2  0
 19 18  1  0
 20 19  2  0
 20 15  1  0
 21 20  1  0
 22 18  1  0
 23 19  1  0
 24 23  1  0
  4 25  1  0
  5 26  1  0
  8 27  1  0
 11 28  1  0
 12 29  1  0
 12 30  1  0
 12 31  1  0
 14 32  1  0
 14 33  1  0
 17 34  1  0
 21 35  1  0
 21 36  1  0
 21 37  1  0
 22 38  1  0
 22 39  1  0
 22 40  1  0
 24 41  1  0
 24 42  1  0
 24 43  1  0
M  CHG  2   1   1   2  -1
M  END
>  <score>  (1) 
-9.575

$$$$
=
     RDKit          3D

 43 45  0  0  0  0  0  0  0  0999 V2000
    0.5580   68.4070   66.7630 S   0  0  0  0  0  3  0  0  0  0  0  0
    0.6330   66.9080   67.4840 O   0  0  0  0  0  1  0  0  0  0  0  0
    6.0850   71.0350   68.2130 C   0  0  0  0  0  0  0  0  0  0  0  0
    6.4620   70.5750   66.9440 C   0  0  0  0  0  0  0  0  0  0  0  0
    5.5780   69.8740   66.1150 C   0  0  0  0  0  0  0  0  0  0  0  0
    4.2970   69.6580   66.6200 C   0  0  0  0  0  0  0  0  0  0  0  0
    3.8870   70.1000   67.8740 C   0  0  0  0  0  0  0  0  0  0  0  0
    4.7900   70.8010   68.6900 C   0  0  0  0  0  0  0  0  0  0  0  0
    2.5760   69.7550   68.1150 N   0  0  0  0  0  0  0  0  0  0  0  0
    2.1930   69.1110   67.0340 C   0  0  0  0  0  0  0  0  0  0  0  0
    3.1960   69.0260   66.1070 N   0  0  0  0  0  0  0  0  0  0  0  0
    7.8490   70.9370   69.8060 C   0  0  0  0  0  0  0  0  0  0  0  0
    7.0740   71.6990   68.8880 O   0  0  0  0  0  0  0  0  0  0  0  0
    0.7110   68.2320   64.9590 C   0  0  0  0  0  0  0  0  0  0  0  0
    1.8160   67.2760   64.5850 C   0  0  0  0  0  0  0  0  0  0  0  0
    1.9630   66.2120   65.4140 N   0  0  0  0  0  0  0  0  0  0  0  0
    2.9080   65.2940   65.1190 C   0  0  0  0  0  0  0  0  0  0  0  0
    3.7660   65.3840   64.0360 C   0  0  0  0  0  0  0  0  0  0  0  0
    3.6480   66.5240   63.2390 C   0  0  0  0  0  0  0  0  0  0  0  0
    2.6340   67.4720   63.4620 C   0  0  0  0  0  0  0  0  0  0  0  0
    2.4820   68.6670   62.5640 C   0  0  0  0  0  0  0  0  0  0  0  0
    4.7890   64.3210   63.7890 C   0  0  0  0  0  0  0  0  0  0  0  0
    4.4980   66.6760   62.1700 O   0  0  0  0  0  0  0  0  0  0  0  0
    5.4810   67.6740   62.4560 C   0  0  0  0  0  0  0  0  0  0  0  0
    7.4843   70.7708   66.5882 H   0  0  0  0  0  0  0  0  0  0  0  0
    5.8779   69.5136   65.1199 H   0  0  0  0  0  0  0  0  0  0  0  0
    4.4855   71.1591   69.6845 H   0  0  0  0  0  0  0  0  0  0  0  0
    3.1338   68.5679   65.1866 H   0  0  0  0  0  0  0  0  0  0  0  0
    7.5716   71.2098   70.8349 H   0  0  0  0  0  0  0  0  0  0  0  0
    7.6576   69.8656   69.6465 H   0  0  0  0  0  0  0  0  0  0  0  0
    8.9170   71.1465   69.6465 H   0  0  0  0  0  0  0  0  0  0  0  0
   -0.2398   67.8540   64.5552 H   0  0  0  0  0  0  0  0  0  0  0  0
    0.9527   69.2187   64.5372 H   0  0  0  0  0  0  0  0  0  0  0  0
    3.0022   64.4200   65.7803 H   0  0  0  0  0  0  0  0  0  0  0  0
    2.3667   69.5735   63.1763 H   0  0  0  0  0  0  0  0  0  0  0  0
    3.3750   68.7645   61.9291 H   0  0  0  0  0  0  0  0  0  0  0  0
    1.5930   68.5379   61.9291 H   0  0  0  0  0  0  0  0  0  0  0  0
    5.1585   63.9370   64.7513 H   0  0  0  0  0  0  0  0  0  0  0  0
    4.3332   63.4993   63.2170 H   0  0  0  0  0  0  0  0  0  0  0  0
    5.6275   64.7449   63.2170 H   0  0  0  0  0  0  0  0  0  0  0  0
    5.5875   67.7821   63.5455 H   0  0  0  0  0  0  0  0  0  0  0  0
    6.4458   67.3736   62.0213 H   0  0  0  0  0  0  0  0  0  0  0  0
    5.1660   68.6341   62.0213 H   0  0  0  0  0  0  0  0  0  0  0  0
  1  2  1  1
  4  3  2  0
  5  4  1  0
  6  5  2  0
  7  6  1  0
  8  7  2  0
  8  3  1  0
  9  7  1  0
 10  9  2  0
 10  1  1  0
 11 10  1  0
 11  6  1  0
 13 12  1  0
 13  3  1  0
 14  1  1  0
 15 14  1  0
 16 15  2  0
 17 16  1  0
 18 17  2  0
 19 18  1  0
 20 19  2  0
 20 15  1  0
 21 20  1  0
 22 18  1  0
 23 19  1  0
 24 23  1  0
  4 25  1  0
  5 26  1  0
  8 27  1  0
 11 28  1  0
 12 29  1  0
 12 30  1  0
 12 31  1  0
 14 32  1  0
 14 33  1  0
 17 34  1  0
 21 35  1  0
 21 36  1  0
 21 37  1  0
 22 38  1  0
 22 39  1  0
 22 40  1  0
 24 41  1  0
 24 42  1  0
 24 43  1  0
M  CHG  2   1   1   2  -1
M  END
>  <score>  (2) 
-9.293

$$$$
=
     RDKit          3D

 43 45  0  0  0  0  0  0  0  0999 V2000
   -0.1670   68.2230   67.7010 S   0  0  0  0  0  3  0  0  0  0  0  0
   -1.7870   68.0130   67.3790 O   0  0  0  0  0  1  0  0  0  0  0  0
    0.7950   63.1680   71.3170 C   0  0  0  0  0  0  0  0  0  0  0  0
    2.1270   63.6030   71.3030 C   0  0  0  0  0  0  0  0  0  0  0  0
    2.5270   64.7510   70.6100 C   0  0  0  0  0  0  0  0  0  0  0  0
    1.5250   65.4430   69.9320 C   0  0  0  0  0  0  0  0  0  0  0  0
    0.1920   65.0430   69.9230 C   0  0  0  0  0  0  0  0  0  0  0  0
   -0.1880   63.8870   70.6250 C   0  0  0  0  0  0  0  0  0  0  0  0
   -0.5790   65.9090   69.1810 N   0  0  0  0  0  0  0  0  0  0  0  0
    0.2640   66.8180   68.7400 C   0  0  0  0  0  0  0  0  0  0  0  0
    1.5420   66.5780   69.1650 N   0  0  0  0  0  0  0  0  0  0  0  0
   -0.7150   61.8540   72.6020 C   0  0  0  0  0  0  0  0  0  0  0  0
    0.5810   62.0260   72.0430 O   0  0  0  0  0  0  0  0  0  0  0  0
    0.8190   67.7170   66.2590 C   0  0  0  0  0  0  0  0  0  0  0  0
    2.1840   68.3580   66.2660 C   0  0  0  0  0  0  0  0  0  0  0  0
    2.3930   69.2570   67.2620 N   0  0  0  0  0  0  0  0  0  0  0  0
    3.6060   69.8430   67.3530 C   0  0  0  0  0  0  0  0  0  0  0  0
    4.6480   69.6120   66.4720 C   0  0  0  0  0  0  0  0  0  0  0  0
    4.3880   68.7410   65.4120 C   0  0  0  0  0  0  0  0  0  0  0  0
    3.1680   68.0520   65.3130 C   0  0  0  0  0  0  0  0  0  0  0  0
    2.9180   67.0760   64.1990 C   0  0  0  0  0  0  0  0  0  0  0  0
    5.9590   70.3120   66.6460 C   0  0  0  0  0  0  0  0  0  0  0  0
    5.3810   68.5030   64.4910 O   0  0  0  0  0  0  0  0  0  0  0  0
    5.2590   69.4020   63.3870 C   0  0  0  0  0  0  0  0  0  0  0  0
    2.8822   63.0236   71.8543 H   0  0  0  0  0  0  0  0  0  0  0  0
    3.5739   65.0885   70.6009 H   0  0  0  0  0  0  0  0  0  0  0  0
   -1.2361   63.5533   70.6311 H   0  0  0  0  0  0  0  0  0  0  0  0
    2.3706   67.1496   68.9469 H   0  0  0  0  0  0  0  0  0  0  0  0
   -0.6450   61.8633   73.6997 H   0  0  0  0  0  0  0  0  0  0  0  0
   -1.3695   62.6732   72.2694 H   0  0  0  0  0  0  0  0  0  0  0  0
   -1.1331   60.8925   72.2694 H   0  0  0  0  0  0  0  0  0  0  0  0
    0.9382   66.6236   66.2742 H   0  0  0  0  0  0  0  0  0  0  0  0
    0.2912   68.0425   65.3505 H   0  0  0  0  0  0  0  0  0  0  0  0
    3.7768   70.5485   68.1795 H   0  0  0  0  0  0  0  0  0  0  0  0
    2.6661   66.0926   64.6227 H   0  0  0  0  0  0  0  0  0  0  0  0
    2.0823   67.4332   63.5792 H   0  0  0  0  0  0  0  0  0  0  0  0
    3.8225   66.9874   63.5792 H   0  0  0  0  0  0  0  0  0  0  0  0
    6.1739   70.4267   67.7187 H   0  0  0  0  0  0  0  0  0  0  0  0
    6.7565   69.7197   66.1736 H   0  0  0  0  0  0  0  0  0  0  0  0
    5.9104   71.3042   66.1736 H   0  0  0  0  0  0  0  0  0  0  0  0
    5.1199   70.4267   63.7622 H   0  0  0  0  0  0  0  0  0  0  0  0
    6.1716   69.3565   62.7745 H   0  0  0  0  0  0  0  0  0  0  0  0
    4.3916   69.1149   62.7745 H   0  0  0  0  0  0  0  0  0  0  0  0
  1  2  1  6
  4  3  2  0
  5  4  1  0
  6  5  2  0
  7  6  1  0
  8  7  2  0
  8  3  1  0
  9  7  1  0
 10  9  2  0
 10  1  1  0
 11 10  1  0
 11  6  1  0
 13 12  1  0
 13  3  1  0
 14  1  1  0
 15 14  1  0
 16 15  2  0
 17 16  1  0
 18 17  2  0
 19 18  1  0
 20 19  2  0
 20 15  1  0
 21 20  1  0
 22 18  1  0
 23 19  1  0
 24 23  1  0
  4 25  1  0
  5 26  1  0
  8 27  1  0
 11 28  1  0
 12 29  1  0
 12 30  1  0
 12 31  1  0
 14 32  1  0
 14 33  1  0
 17 34  1  0
 21 35  1  0
 21 36  1  0
 21 37  1  0
 22 38  1  0
 22 39  1  0
 22 40  1  0
 24 41  1  0
 24 42  1  0
 24 43  1  0
M  CHG  2   1   1   2  -1
M  END
>  <score>  (3) 
-8.641

$$$$
=
     RDKit          3D

 43 45  0  0  0  0  0  0  0  0999 V2000
    0.1530   64.8980   71.1450 S   0  0  0  0  0  3  0  0  0  0  0  0
   -0.3410   65.8630   72.4100 O   0  0  0  0  0  1  0  0  0  0  0  0
   -0.2900   68.5130   66.0190 C   0  0  0  0  0  0  0  0  0  0  0  0
    0.9080   69.0640   66.4920 C   0  0  0  0  0  0  0  0  0  0  0  0
    1.5150   68.6200   67.6720 C   0  0  0  0  0  0  0  0  0  0  0  0
    0.8630   67.5950   68.3550 C   0  0  0  0  0  0  0  0  0  0  0  0
   -0.3270   67.0230   67.9160 C   0  0  0  0  0  0  0  0  0  0  0  0
   -0.9200   67.4840   66.7280 C   0  0  0  0  0  0  0  0  0  0  0  0
   -0.7470   66.0330   68.7760 N   0  0  0  0  0  0  0  0  0  0  0  0
    0.1640   66.0030   69.7240 C   0  0  0  0  0  0  0  0  0  0  0  0
    1.1520   66.9260   69.5140 N   0  0  0  0  0  0  0  0  0  0  0  0
    0.0870   68.9220   63.7060 C   0  0  0  0  0  0  0  0  0  0  0  0
   -0.7440   69.0680   64.8510 O   0  0  0  0  0  0  0  0  0  0  0  0
    1.9540   64.6530   71.2240 C   0  0  0  0  0  0  0  0  0  0  0  0
    2.3390   63.2420   70.8570 C   0  0  0  0  0  0  0  0  0  0  0  0
    2.6070   63.0410   69.5410 N   0  0  0  0  0  0  0  0  0  0  0  0
    2.9960   61.8100   69.1470 C   0  0  0  0  0  0  0  0  0  0  0  0
    3.1090   60.7220   69.9960 C   0  0  0  0  0  0  0  0  0  0  0  0
    2.7570   60.9320   71.3300 C   0  0  0  0  0  0  0  0  0  0  0  0
    2.4150   62.2100   71.8040 C   0  0  0  0  0  0  0  0  0  0  0  0
    2.0910   62.4360   73.2540 C   0  0  0  0  0  0  0  0  0  0  0  0
    3.5420   59.3910   69.4690 C   0  0  0  0  0  0  0  0  0  0  0  0
    2.8220   59.8750   72.2070 O   0  0  0  0  0  0  0  0  0  0  0  0
    4.1350   59.7710   72.7610 C   0  0  0  0  0  0  0  0  0  0  0  0
    1.3865   69.8710   65.9178 H   0  0  0  0  0  0  0  0  0  0  0  0
    2.4553   69.0561   68.0403 H   0  0  0  0  0  0  0  0  0  0  0  0
   -1.8602   67.0449   66.3630 H   0  0  0  0  0  0  0  0  0  0  0  0
    1.9685   67.0887   70.1204 H   0  0  0  0  0  0  0  0  0  0  0  0
    1.1235   68.7399   64.0260 H   0  0  0  0  0  0  0  0  0  0  0  0
   -0.2653   68.0720   63.1032 H   0  0  0  0  0  0  0  0  0  0  0  0
    0.0455   69.8412   63.1032 H   0  0  0  0  0  0  0  0  0  0  0  0
    2.4400   65.3490   70.5244 H   0  0  0  0  0  0  0  0  0  0  0  0
    2.2818   64.8414   72.2570 H   0  0  0  0  0  0  0  0  0  0  0  0
    3.2386   61.6618   68.0844 H   0  0  0  0  0  0  0  0  0  0  0  0
    2.8326   61.9187   73.8804 H   0  0  0  0  0  0  0  0  0  0  0  0
    2.1154   63.5140   73.4715 H   0  0  0  0  0  0  0  0  0  0  0  0
    1.0878   62.0407   73.4715 H   0  0  0  0  0  0  0  0  0  0  0  0
    3.7612   58.7172   70.3104 H   0  0  0  0  0  0  0  0  0  0  0  0
    2.7375   58.9606   68.8545 H   0  0  0  0  0  0  0  0  0  0  0  0
    4.4457   59.5163   68.8545 H   0  0  0  0  0  0  0  0  0  0  0  0
    4.0711   59.7761   73.8591 H   0  0  0  0  0  0  0  0  0  0  0  0
    4.6014   58.8331   72.4252 H   0  0  0  0  0  0  0  0  0  0  0  0
    4.7433   60.6238   72.4252 H   0  0  0  0  0  0  0  0  0  0  0  0
  1  2  1  1
  4  3  2  0
  5  4  1  0
  6  5  2  0
  7  6  1  0
  8  7  2  0
  8  3  1  0
  9  7  1  0
 10  9  2  0
 10  1  1  0
 11 10  1  0
 11  6  1  0
 13 12  1  0
 13  3  1  0
 14  1  1  0
 15 14  1  0
 16 15  2  0
 17 16  1  0
 18 17  2  0
 19 18  1  0
 20 19  2  0
 20 15  1  0
 21 20  1  0
 22 18  1  0
 23 19  1  0
 24 23  1  0
  4 25  1  0
  5 26  1  0
  8 27  1  0
 11 28  1  0
 12 29  1  0
 12 30  1  0
 12 31  1  0
 14 32  1  0
 14 33  1  0
 17 34  1  0
 21 35  1  0
 21 36  1  0
 21 37  1  0
 22 38  1  0
 22 39  1  0
 22 40  1  0
 24 41  1  0
 24 42  1  0
 24 43  1  0
M  CHG  2   1   1   2  -1
M  END
>  <score>  (4) 
-8.606

$$$$
=
     RDKit          3D

 43 45  0  0  0  0  0  0  0  0999 V2000
    3.6610   67.9860   63.4400 S   0  0  0  0  0  3  0  0  0  0  0  0
    2.7100   69.1210   62.6800 O   0  0  0  0  0  1  0  0  0  0  0  0
    6.4080   70.9790   68.2400 C   0  0  0  0  0  0  0  0  0  0  0  0
    5.1240   70.9400   68.7990 C   0  0  0  0  0  0  0  0  0  0  0  0
    4.0410   70.3560   68.1310 C   0  0  0  0  0  0  0  0  0  0  0  0
    4.3090   69.8120   66.8760 C   0  0  0  0  0  0  0  0  0  0  0  0
    5.5710   69.8310   66.2900 C   0  0  0  0  0  0  0  0  0  0  0  0
    6.6440   70.4220   66.9770 C   0  0  0  0  0  0  0  0  0  0  0  0
    5.5520   69.2230   65.0550 N   0  0  0  0  0  0  0  0  0  0  0  0
    4.3040   68.8430   64.8860 C   0  0  0  0  0  0  0  0  0  0  0  0
    3.5180   69.1770   65.9560 N   0  0  0  0  0  0  0  0  0  0  0  0
    7.8770   70.8240   70.1050 C   0  0  0  0  0  0  0  0  0  0  0  0
    7.3480   71.5890   69.0290 O   0  0  0  0  0  0  0  0  0  0  0  0
    2.6130   66.8120   64.3510 C   0  0  0  0  0  0  0  0  0  0  0  0
    1.3010   67.4360   64.7570 C   0  0  0  0  0  0  0  0  0  0  0  0
    0.6030   68.0170   63.7480 N   0  0  0  0  0  0  0  0  0  0  0  0
   -0.5990   68.5630   64.0310 C   0  0  0  0  0  0  0  0  0  0  0  0
   -1.1550   68.6000   65.2980 C   0  0  0  0  0  0  0  0  0  0  0  0
   -0.3880   68.0650   66.3330 C   0  0  0  0  0  0  0  0  0  0  0  0
    0.8360   67.4220   66.0800 C   0  0  0  0  0  0  0  0  0  0  0  0
    1.6280   66.8000   67.1950 C   0  0  0  0  0  0  0  0  0  0  0  0
   -2.4930   69.2330   65.5200 C   0  0  0  0  0  0  0  0  0  0  0  0
   -0.8830   68.1060   67.6150 O   0  0  0  0  0  0  0  0  0  0  0  0
   -1.6770   66.9470   67.8770 C   0  0  0  0  0  0  0  0  0  0  0  0
    4.9617   71.3818   69.7932 H   0  0  0  0  0  0  0  0  0  0  0  0
    3.0338   70.3280   68.5724 H   0  0  0  0  0  0  0  0  0  0  0  0
    7.6496   70.4469   66.5319 H   0  0  0  0  0  0  0  0  0  0  0  0
    2.5107   68.9848   66.0520 H   0  0  0  0  0  0  0  0  0  0  0  0
    7.5671   71.2721   71.0606 H   0  0  0  0  0  0  0  0  0  0  0  0
    7.4978   69.7933   70.0433 H   0  0  0  0  0  0  0  0  0  0  0  0
    8.9752   70.8149   70.0433 H   0  0  0  0  0  0  0  0  0  0  0  0
    2.4107   65.9420   63.7091 H   0  0  0  0  0  0  0  0  0  0  0  0
    3.1476   66.5115   65.2642 H   0  0  0  0  0  0  0  0  0  0  0  0
   -1.1721   69.0060   63.2031 H   0  0  0  0  0  0  0  0  0  0  0  0
    1.2160   67.1236   68.1622 H   0  0  0  0  0  0  0  0  0  0  0  0
    1.5692   65.7042   67.1195 H   0  0  0  0  0  0  0  0  0  0  0  0
    2.6787   67.1169   67.1195 H   0  0  0  0  0  0  0  0  0  0  0  0
   -2.6817   69.3223   66.6000 H   0  0  0  0  0  0  0  0  0  0  0  0
   -2.5062   70.2328   65.0616 H   0  0  0  0  0  0  0  0  0  0  0  0
   -3.2744   68.6091   65.0616 H   0  0  0  0  0  0  0  0  0  0  0  0
   -1.7733   66.8065   68.9637 H   0  0  0  0  0  0  0  0  0  0  0  0
   -2.6754   67.0788   67.4345 H   0  0  0  0  0  0  0  0  0  0  0  0
   -1.1935   66.0636   67.4345 H   0  0  0  0  0  0  0  0  0  0  0  0
  1  2  1  6
  4  3  2  0
  5  4  1  0
  6  5  2  0
  7  6  1  0
  8  7  2  0
  8  3  1  0
  9  7  1  0
 10  9  2  0
 10  1  1  0
 11 10  1  0
 11  6  1  0
 13 12  1  0
 13  3  1  0
 14  1  1  0
 15 14  1  0
 16 15  2  0
 17 16  1  0
 18 17  2  0
 19 18  1  0
 20 19  2  0
 20 15  1  0
 21 20  1  0
 22 18  1  0
 23 19  1  0
 24 23  1  0
  4 25  1  0
  5 26  1  0
  8 27  1  0
 11 28  1  0
 12 29  1  0
 12 30  1  0
 12 31  1  0
 14 32  1  0
 14 33  1  0
 17 34  1  0
 21 35  1  0
 21 36  1  0
 21 37  1  0
 22 38  1  0
 22 39  1  0
 22 40  1  0
 24 41  1  0
 24 42  1  0
 24 43  1  0
M  CHG  2   1   1   2  -1
M  END
>  <score>  (5) 
-7.86

$$$$
=
     RDKit          3D

 43 45  0  0  0  0  0  0  0  0999 V2000
    0.0110   67.6870   68.2110 S   0  0  0  0  0  3  0  0  0  0  0  0
   -1.2080   66.9750   67.3290 O   0  0  0  0  0  1  0  0  0  0  0  0
    1.3480   63.2860   72.4990 C   0  0  0  0  0  0  0  0  0  0  0  0
    2.5360   63.1530   71.7680 C   0  0  0  0  0  0  0  0  0  0  0  0
    2.8010   63.9300   70.6340 C   0  0  0  0  0  0  0  0  0  0  0  0
    1.8160   64.8470   70.2690 C   0  0  0  0  0  0  0  0  0  0  0  0
    0.6250   65.0070   70.9710 C   0  0  0  0  0  0  0  0  0  0  0  0
    0.3790   64.2170   72.1060 C   0  0  0  0  0  0  0  0  0  0  0  0
   -0.1600   65.9810   70.3960 N   0  0  0  0  0  0  0  0  0  0  0  0
    0.5330   66.4050   69.3610 C   0  0  0  0  0  0  0  0  0  0  0  0
    1.7290   65.7510   69.2440 N   0  0  0  0  0  0  0  0  0  0  0  0
    2.4500   61.8040   73.9980 C   0  0  0  0  0  0  0  0  0  0  0  0
    1.2530   62.4470   73.5780 O   0  0  0  0  0  0  0  0  0  0  0  0
    1.5440   67.7170   67.2330 C   0  0  0  0  0  0  0  0  0  0  0  0
    1.2940   68.1850   65.8210 C   0  0  0  0  0  0  0  0  0  0  0  0
   -0.0140   68.2950   65.4740 N   0  0  0  0  0  0  0  0  0  0  0  0
   -0.3140   68.7460   64.2370 C   0  0  0  0  0  0  0  0  0  0  0  0
    0.6320   69.0730   63.2800 C   0  0  0  0  0  0  0  0  0  0  0  0
    1.9690   68.8810   63.6320 C   0  0  0  0  0  0  0  0  0  0  0  0
    2.3340   68.4830   64.9290 C   0  0  0  0  0  0  0  0  0  0  0  0
    3.7790   68.3330   65.3140 C   0  0  0  0  0  0  0  0  0  0  0  0
    0.2080   69.5590   61.9310 C   0  0  0  0  0  0  0  0  0  0  0  0
    2.9450   69.1620   62.7060 O   0  0  0  0  0  0  0  0  0  0  0  0
    3.3070   67.9770   61.9930 C   0  0  0  0  0  0  0  0  0  0  0  0
    3.2835   62.4153   72.0953 H   0  0  0  0  0  0  0  0  0  0  0  0
    3.7347   63.8230   70.0624 H   0  0  0  0  0  0  0  0  0  0  0  0
   -0.5561   64.3275   72.6746 H   0  0  0  0  0  0  0  0  0  0  0  0
    2.4383   65.9103   68.5143 H   0  0  0  0  0  0  0  0  0  0  0  0
    2.4888   61.7832   75.0971 H   0  0  0  0  0  0  0  0  0  0  0  0
    2.4685   60.7745   73.6109 H   0  0  0  0  0  0  0  0  0  0  0  0
    3.3185   62.3570   73.6109 H   0  0  0  0  0  0  0  0  0  0  0  0
    2.2604   68.3995   67.7135 H   0  0  0  0  0  0  0  0  0  0  0  0
    1.9442   66.6933   67.1899 H   0  0  0  0  0  0  0  0  0  0  0  0
   -1.3757   68.8607   63.9732 H   0  0  0  0  0  0  0  0  0  0  0  0
    3.8673   68.3238   66.4104 H   0  0  0  0  0  0  0  0  0  0  0  0
    4.1709   67.3893   64.9067 H   0  0  0  0  0  0  0  0  0  0  0  0
    4.3564   69.1760   64.9067 H   0  0  0  0  0  0  0  0  0  0  0  0
   -0.5111   70.3832   62.0475 H   0  0  0  0  0  0  0  0  0  0  0  0
    1.0884   69.9161   61.3765 H   0  0  0  0  0  0  0  0  0  0  0  0
   -0.2652   68.7352   61.3765 H   0  0  0  0  0  0  0  0  0  0  0  0
    3.5510   67.1784   62.7090 H   0  0  0  0  0  0  0  0  0  0  0  0
    2.4653   67.6580   61.3607 H   0  0  0  0  0  0  0  0  0  0  0  0
    4.1832   68.1828   61.3607 H   0  0  0  0  0  0  0  0  0  0  0  0
  1  2  1  6
  4  3  2  0
  5  4  1  0
  6  5  2  0
  7  6  1  0
  8  7  2  0
  8  3  1  0
  9  7  1  0
 10  9  2  0
 10  1  1  0
 11 10  1  0
 11  6  1  0
 13 12  1  0
 13  3  1  0
 14  1  1  0
 15 14  1  0
 16 15  2  0
 17 16  1  0
 18 17  2  0
 19 18  1  0
 20 19  2  0
 20 15  1  0
 21 20  1  0
 22 18  1  0
 23 19  1  0
 24 23  1  0
  4 25  1  0
  5 26  1  0
  8 27  1  0
 11 28  1  0
 12 29  1  0
 12 30  1  0
 12 31  1  0
 14 32  1  0
 14 33  1  0
 17 34  1  0
 21 35  1  0
 21 36  1  0
 21 37  1  0
 22 38  1  0
 22 39  1  0
 22 40  1  0
 24 41  1  0
 24 42  1  0
 24 43  1  0
M  CHG  2   1   1   2  -1
M  END
>  <score>  (6) 
-7.766

$$$$
=
     RDKit          3D

 43 45  0  0  0  0  0  0  0  0999 V2000
    2.6740   59.3290   74.2300 S   0  0  0  0  0  3  0  0  0  0  0  0
    2.6600   59.8750   75.8030 O   0  0  0  0  0  1  0  0  0  0  0  0
   -0.4960   53.9160   74.6640 C   0  0  0  0  0  0  0  0  0  0  0  0
    0.7430   53.3430   74.3460 C   0  0  0  0  0  0  0  0  0  0  0  0
    1.8860   54.1200   74.1240 C   0  0  0  0  0  0  0  0  0  0  0  0
    1.7250   55.5000   74.2370 C   0  0  0  0  0  0  0  0  0  0  0  0
    0.5120   56.1040   74.5510 C   0  0  0  0  0  0  0  0  0  0  0  0
   -0.6230   55.3060   74.7700 C   0  0  0  0  0  0  0  0  0  0  0  0
    0.6400   57.4740   74.6000 N   0  0  0  0  0  0  0  0  0  0  0  0
    1.9040   57.7050   74.3180 C   0  0  0  0  0  0  0  0  0  0  0  0
    2.5970   56.5460   74.0910 N   0  0  0  0  0  0  0  0  0  0  0  0
   -2.6300   53.4430   75.6030 C   0  0  0  0  0  0  0  0  0  0  0  0
   -1.5070   53.0080   74.8470 O   0  0  0  0  0  0  0  0  0  0  0  0
    1.3430   60.1320   73.2870 C   0  0  0  0  0  0  0  0  0  0  0  0
    1.8780   60.8570   72.0770 C   0  0  0  0  0  0  0  0  0  0  0  0
    3.0200   60.3420   71.5550 N   0  0  0  0  0  0  0  0  0  0  0  0
    3.5360   60.9170   70.4480 C   0  0  0  0  0  0  0  0  0  0  0  0
    2.9920   62.0260   69.8240 C   0  0  0  0  0  0  0  0  0  0  0  0
    1.8600   62.5850   70.4200 C   0  0  0  0  0  0  0  0  0  0  0  0
    1.2440   61.9830   71.5300 C   0  0  0  0  0  0  0  0  0  0  0  0
   -0.0060   62.5620   72.1300 C   0  0  0  0  0  0  0  0  0  0  0  0
    3.6360   62.6010   68.6020 C   0  0  0  0  0  0  0  0  0  0  0  0
    1.3000   63.7070   69.8560 O   0  0  0  0  0  0  0  0  0  0  0  0
    1.8720   64.8860   70.4260 C   0  0  0  0  0  0  0  0  0  0  0  0
    0.8196   52.2484   74.2685 H   0  0  0  0  0  0  0  0  0  0  0  0
    2.8568   53.6670   73.8744 H   0  0  0  0  0  0  0  0  0  0  0  0
   -1.5915   55.7639   75.0196 H   0  0  0  0  0  0  0  0  0  0  0  0
    3.5965   56.4737   73.8528 H   0  0  0  0  0  0  0  0  0  0  0  0
   -2.4054   53.3560   76.6763 H   0  0  0  0  0  0  0  0  0  0  0  0
   -2.8523   54.4923   75.3588 H   0  0  0  0  0  0  0  0  0  0  0  0
   -3.5011   52.8172   75.3588 H   0  0  0  0  0  0  0  0  0  0  0  0
    0.6274   59.3650   72.9559 H   0  0  0  0  0  0  0  0  0  0  0  0
    0.8547   60.8692   73.9413 H   0  0  0  0  0  0  0  0  0  0  0  0
    4.4460   60.4764   70.0147 H   0  0  0  0  0  0  0  0  0  0  0  0
    0.0647   62.5292   73.2272 H   0  0  0  0  0  0  0  0  0  0  0  0
   -0.1214   63.6053   71.8010 H   0  0  0  0  0  0  0  0  0  0  0  0
   -0.8764   61.9754   71.8010 H   0  0  0  0  0  0  0  0  0  0  0  0
    4.4256   63.3060   68.9010 H   0  0  0  0  0  0  0  0  0  0  0  0
    4.0761   61.7899   68.0033 H   0  0  0  0  0  0  0  0  0  0  0  0
    2.8797   63.1298   68.0033 H   0  0  0  0  0  0  0  0  0  0  0  0
    1.8382   64.8163   71.5233 H   0  0  0  0  0  0  0  0  0  0  0  0
    2.9171   64.9826   70.0967 H   0  0  0  0  0  0  0  0  0  0  0  0
    1.3010   65.7666   70.0967 H   0  0  0  0  0  0  0  0  0  0  0  0
  1  2  1  1
  4  3  2  0
  5  4  1  0
  6  5  2  0
  7  6  1  0
  8  7  2  0
  8  3  1  0
  9  7  1  0
 10  9  2  0
 10  1  1  0
 11 10  1  0
 11  6  1  0
 13 12  1  0
 13  3  1  0
 14  1  1  0
 15 14  1  0
 16 15  2  0
 17 16  1  0
 18 17  2  0
 19 18  1  0
 20 19  2  0
 20 15  1  0
 21 20  1  0
 22 18  1  0
 23 19  1  0
 24 23  1  0
  4 25  1  0
  5 26  1  0
  8 27  1  0
 11 28  1  0
 12 29  1  0
 12 30  1  0
 12 31  1  0
 14 32  1  0
 14 33  1  0
 17 34  1  0
 21 35  1  0
 21 36  1  0
 21 37  1  0
 22 38  1  0
 22 39  1  0
 22 40  1  0
 24 41  1  0
 24 42  1  0
 24 43  1  0
M  CHG  2   1   1   2  -1
M  END
>  <score>  (7) 
-7.442

$$$$
=
     RDKit          3D

 43 45  0  0  0  0  0  0  0  0999 V2000
    4.1980   59.8260   72.4760 S   0  0  0  0  0  3  0  0  0  0  0  0
    4.1900   61.1850   73.4390 O   0  0  0  0  0  1  0  0  0  0  0  0
    0.9340   55.8800   76.1260 C   0  0  0  0  0  0  0  0  0  0  0  0
    0.4650   55.3810   74.9040 C   0  0  0  0  0  0  0  0  0  0  0  0
    0.8790   55.9130   73.6760 C   0  0  0  0  0  0  0  0  0  0  0  0
    1.7870   56.9690   73.7350 C   0  0  0  0  0  0  0  0  0  0  0  0
    2.2740   57.4900   74.9300 C   0  0  0  0  0  0  0  0  0  0  0  0
    1.8460   56.9420   76.1500 C   0  0  0  0  0  0  0  0  0  0  0  0
    3.1560   58.5220   74.6960 N   0  0  0  0  0  0  0  0  0  0  0  0
    3.2040   58.6330   73.3860 C   0  0  0  0  0  0  0  0  0  0  0  0
    2.3960   57.7200   72.7650 N   0  0  0  0  0  0  0  0  0  0  0  0
   -0.5670   54.2510   76.9940 C   0  0  0  0  0  0  0  0  0  0  0  0
    0.4240   55.2440   77.2280 O   0  0  0  0  0  0  0  0  0  0  0  0
    3.0360   60.0430   71.0940 C   0  0  0  0  0  0  0  0  0  0  0  0
    2.5150   61.4570   71.0220 C   0  0  0  0  0  0  0  0  0  0  0  0
    3.2490   62.3040   70.2560 N   0  0  0  0  0  0  0  0  0  0  0  0
    2.8200   63.5760   70.1150 C   0  0  0  0  0  0  0  0  0  0  0  0
    1.6910   64.0870   70.7320 C   0  0  0  0  0  0  0  0  0  0  0  0
    0.9930   63.2210   71.5750 C   0  0  0  0  0  0  0  0  0  0  0  0
    1.3570   61.8690   71.6980 C   0  0  0  0  0  0  0  0  0  0  0  0
    0.5650   60.9310   72.5660 C   0  0  0  0  0  0  0  0  0  0  0  0
    1.2940   65.5140   70.5230 C   0  0  0  0  0  0  0  0  0  0  0  0
   -0.1180   63.6900   72.2350 O   0  0  0  0  0  0  0  0  0  0  0  0
    0.2310   64.1060   73.5570 C   0  0  0  0  0  0  0  0  0  0  0  0
   -0.2505   54.5455   74.9088 H   0  0  0  0  0  0  0  0  0  0  0  0
    0.5081   55.5192   72.7182 H   0  0  0  0  0  0  0  0  0  0  0  0
    2.2197   57.3391   77.1053 H   0  0  0  0  0  0  0  0  0  0  0  0
    2.2684   57.6159   71.7483 H   0  0  0  0  0  0  0  0  0  0  0  0
   -0.9430   53.8742   77.9566 H   0  0  0  0  0  0  0  0  0  0  0  0
   -1.3979   54.6898   76.4222 H   0  0  0  0  0  0  0  0  0  0  0  0
   -0.1265   53.4209   76.4222 H   0  0  0  0  0  0  0  0  0  0  0  0
    3.5527   59.8048   70.1526 H   0  0  0  0  0  0  0  0  0  0  0  0
    2.1812   59.3696   71.2548 H   0  0  0  0  0  0  0  0  0  0  0  0
    3.4039   64.2486   69.4695 H   0  0  0  0  0  0  0  0  0  0  0  0
    0.7581   61.1597   73.6245 H   0  0  0  0  0  0  0  0  0  0  0  0
   -0.5075   61.0529   72.3543 H   0  0  0  0  0  0  0  0  0  0  0  0
    0.8650   59.8941   72.3543 H   0  0  0  0  0  0  0  0  0  0  0  0
    1.1579   66.0034   71.4987 H   0  0  0  0  0  0  0  0  0  0  0  0
    2.0814   66.0347   69.9583 H   0  0  0  0  0  0  0  0  0  0  0  0
    0.3508   65.5533   69.9583 H   0  0  0  0  0  0  0  0  0  0  0  0
   -0.2960   63.4778   74.2902 H   0  0  0  0  0  0  0  0  0  0  0  0
    1.3169   64.0029   73.6992 H   0  0  0  0  0  0  0  0  0  0  0  0
   -0.0592   65.1575   73.6992 H   0  0  0  0  0  0  0  0  0  0  0  0
  1  2  1  1
  4  3  2  0
  5  4  1  0
  6  5  2  0
  7  6  1  0
  8  7  2  0
  8  3  1  0
  9  7  1  0
 10  9  2  0
 10  1  1  0
 11 10  1  0
 11  6  1  0
 13 12  1  0
 13  3  1  0
 14  1  1  0
 15 14  1  0
 16 15  2  0
 17 16  1  0
 18 17  2  0
 19 18  1  0
 20 19  2  0
 20 15  1  0
 21 20  1  0
 22 18  1  0
 23 19  1  0
 24 23  1  0
  4 25  1  0
  5 26  1  0
  8 27  1  0
 11 28  1  0
 12 29  1  0
 12 30  1  0
 12 31  1  0
 14 32  1  0
 14 33  1  0
 17 34  1  0
 21 35  1  0
 21 36  1  0
 21 37  1  0
 22 38  1  0
 22 39  1  0
 22 40  1  0
 24 41  1  0
 24 42  1  0
 24 43  1  0
M  CHG  2   1   1   2  -1
M  END
>  <score>  (8) 
-7.056

$$$$
=
     RDKit          3D

 43 45  0  0  0  0  0  0  0  0999 V2000
    3.1520   59.1320   74.0610 S   0  0  0  0  0  3  0  0  0  0  0  0
    2.3940   60.1920   75.0980 O   0  0  0  0  0  1  0  0  0  0  0  0
    1.0990   53.6610   76.3860 C   0  0  0  0  0  0  0  0  0  0  0  0
    1.0950   53.2670   75.0410 C   0  0  0  0  0  0  0  0  0  0  0  0
    1.4810   54.1340   74.0120 C   0  0  0  0  0  0  0  0  0  0  0  0
    1.8730   55.4150   74.3980 C   0  0  0  0  0  0  0  0  0  0  0  0
    1.8910   55.8410   75.7220 C   0  0  0  0  0  0  0  0  0  0  0  0
    1.4990   54.9550   76.7400 C   0  0  0  0  0  0  0  0  0  0  0  0
    2.3230   57.1450   75.8160 N   0  0  0  0  0  0  0  0  0  0  0  0
    2.5600   57.5110   74.5760 C   0  0  0  0  0  0  0  0  0  0  0  0
    2.3030   56.5030   73.6870 N   0  0  0  0  0  0  0  0  0  0  0  0
    1.4090   52.5790   78.4810 C   0  0  0  0  0  0  0  0  0  0  0  0
    0.6890   52.6880   77.2600 O   0  0  0  0  0  0  0  0  0  0  0  0
    2.3180   59.1470   72.4450 C   0  0  0  0  0  0  0  0  0  0  0  0
    2.1800   60.5480   71.9040 C   0  0  0  0  0  0  0  0  0  0  0  0
    1.0020   61.1610   72.1850 N   0  0  0  0  0  0  0  0  0  0  0  0
    0.8230   62.4310   71.7640 C   0  0  0  0  0  0  0  0  0  0  0  0
    1.7560   63.1450   71.0310 C   0  0  0  0  0  0  0  0  0  0  0  0
    2.9290   62.4710   70.6890 C   0  0  0  0  0  0  0  0  0  0  0  0
    3.1940   61.1740   71.1630 C   0  0  0  0  0  0  0  0  0  0  0  0
    4.4840   60.4790   70.8350 C   0  0  0  0  0  0  0  0  0  0  0  0
    1.4700   64.5490   70.6010 C   0  0  0  0  0  0  0  0  0  0  0  0
    3.8740   63.1250   69.9350 O   0  0  0  0  0  0  0  0  0  0  0  0
    3.7070   62.8120   68.5510 C   0  0  0  0  0  0  0  0  0  0  0  0
    0.7787   52.2448   74.7861 H   0  0  0  0  0  0  0  0  0  0  0  0
    1.4753   53.8218   72.9572 H   0  0  0  0  0  0  0  0  0  0  0  0
    1.5063   55.2718   77.7934 H   0  0  0  0  0  0  0  0  0  0  0  0
    2.4135   56.5538   72.6642 H   0  0  0  0  0  0  0  0  0  0  0  0
    0.7140   52.6842   79.3271 H   0  0  0  0  0  0  0  0  0  0  0  0
    1.9006   51.5962   78.5303 H   0  0  0  0  0  0  0  0  0  0  0  0
    2.1695   53.3723   78.5303 H   0  0  0  0  0  0  0  0  0  0  0  0
    2.9052   58.5464   71.7347 H   0  0  0  0  0  0  0  0  0  0  0  0
    1.3094   58.7275   72.5746 H   0  0  0  0  0  0  0  0  0  0  0  0
   -0.1235   62.9301   72.0192 H   0  0  0  0  0  0  0  0  0  0  0  0
    4.9984   60.2018   71.7670 H   0  0  0  0  0  0  0  0  0  0  0  0
    4.2733   59.5723   70.2489 H   0  0  0  0  0  0  0  0  0  0  0  0
    5.1253   61.1537   70.2489 H   0  0  0  0  0  0  0  0  0  0  0  0
    1.3404   65.1852   71.4889 H   0  0  0  0  0  0  0  0  0  0  0  0
    2.3097   64.9264   69.9989 H   0  0  0  0  0  0  0  0  0  0  0  0
    0.5496   64.5678   69.9989 H   0  0  0  0  0  0  0  0  0  0  0  0
    3.1912   61.8453   68.4533 H   0  0  0  0  0  0  0  0  0  0  0  0
    3.1082   63.5976   68.0671 H   0  0  0  0  0  0  0  0  0  0  0  0
    4.6930   62.7521   68.0671 H   0  0  0  0  0  0  0  0  0  0  0  0
  1  2  1  1
  4  3  2  0
  5  4  1  0
  6  5  2  0
  7  6  1  0
  8  7  2  0
  8  3  1  0
  9  7  1  0
 10  9  2  0
 10  1  1  0
 11 10  1  0
 11  6  1  0
 13 12  1  0
 13  3  1  0
 14  1  1  0
 15 14  1  0
 16 15  2  0
 17 16  1  0
 18 17  2  0
 19 18  1  0
 20 19  2  0
 20 15  1  0
 21 20  1  0
 22 18  1  0
 23 19  1  0
 24 23  1  0
  4 25  1  0
  5 26  1  0
  8 27  1  0
 11 28  1  0
 12 29  1  0
 12 30  1  0
 12 31  1  0
 14 32  1  0
 14 33  1  0
 17 34  1  0
 21 35  1  0
 21 36  1  0
 21 37  1  0
 22 38  1  0
 22 39  1  0
 22 40  1  0
 24 41  1  0
 24 42  1  0
 24 43  1  0
M  CHG  2   1   1   2  -1
M  END
>  <score>  (9) 
-6.748

$$$$
