=
     RDKit          3D

 15 14  0  0  0  0  0  0  0  0999 V2000
    6.2490   70.2340   67.1660 C   0  0  0  0  0  0  0  0  0  0  0  0
    4.3630   69.4880   65.5610 C   0  0  0  0  0  0  0  0  0  0  0  0
    4.8020   69.8740   66.9500 C   0  0  0  0  0  0  0  0  0  0  0  0
    3.9990   69.9090   67.8840 O   0  0  0  0  0  0  0  0  0  0  0  0
    6.4860   71.3110   68.1890 C   0  0  0  0  0  0  0  0  0  0  0  0
    5.9930   72.4340   68.0940 O   0  0  0  0  0  0  0  0  0  0  0  0
    7.3180   70.9290   69.3850 C   0  0  0  0  0  0  0  0  0  0  0  0
    6.7816   69.3287   67.4928 H   0  0  0  0  0  0  0  0  0  0  0  0
    6.6152   70.6315   66.2079 H   0  0  0  0  0  0  0  0  0  0  0  0
    3.5383   68.7629   65.6253 H   0  0  0  0  0  0  0  0  0  0  0  0
    4.0221   70.3842   65.0219 H   0  0  0  0  0  0  0  0  0  0  0  0
    5.2082   69.0352   65.0219 H   0  0  0  0  0  0  0  0  0  0  0  0
    6.7721   71.1796   70.3065 H   0  0  0  0  0  0  0  0  0  0  0  0
    7.5200   69.8480   69.3610 H   0  0  0  0  0  0  0  0  0  0  0  0
    8.2695   71.4804   69.3610 H   0  0  0  0  0  0  0  0  0  0  0  0
  3  2  1  0
  3  1  1  0
  4  3  2  0
  5  1  1  0
  6  5  2  0
  7  5  1  0
  1  8  1  0
  1  9  1  0
  2 10  1  0
  2 11  1  0
  2 12  1  0
  7 13  1  0
  7 14  1  0
  7 15  1  0
M  END
>  <score>  (1) 
-5.218

$$$$
=
     RDKit          3D

 15 14  0  0  0  0  0  0  0  0999 V2000
    6.3480   70.3100   67.0900 C   0  0  0  0  0  0  0  0  0  0  0  0
    7.3310   70.9220   69.4030 C   0  0  0  0  0  0  0  0  0  0  0  0
    6.5230   71.3190   68.1950 C   0  0  0  0  0  0  0  0  0  0  0  0
    6.0030   72.4350   68.1170 O   0  0  0  0  0  0  0  0  0  0  0  0
    4.9270   69.8810   66.8460 C   0  0  0  0  0  0  0  0  0  0  0  0
    4.0750   69.8750   67.7330 O   0  0  0  0  0  0  0  0  0  0  0  0
    4.5730   69.5090   65.4300 C   0  0  0  0  0  0  0  0  0  0  0  0
    6.7369   70.7503   66.1600 H   0  0  0  0  0  0  0  0  0  0  0  0
    6.8937   69.4083   67.4051 H   0  0  0  0  0  0  0  0  0  0  0  0
    6.7813   71.1921   70.3167 H   0  0  0  0  0  0  0  0  0  0  0  0
    7.5048   69.8359   69.3871 H   0  0  0  0  0  0  0  0  0  0  0  0
    8.2969   71.4481   69.3871 H   0  0  0  0  0  0  0  0  0  0  0  0
    3.8147   68.7122   65.4389 H   0  0  0  0  0  0  0  0  0  0  0  0
    4.1722   70.3907   64.9085 H   0  0  0  0  0  0  0  0  0  0  0  0
    5.4735   69.1524   64.9085 H   0  0  0  0  0  0  0  0  0  0  0  0
  3  2  1  0
  3  1  1  0
  4  3  2  0
  5  1  1  0
  6  5  2  0
  7  5  1  0
  1  8  1  0
  1  9  1  0
  2 10  1  0
  2 11  1  0
  2 12  1  0
  7 13  1  0
  7 14  1  0
  7 15  1  0
M  END
>  <score>  (2) 
-5.197

$$$$
=
     RDKit          3D

 15 14  0  0  0  0  0  0  0  0999 V2000
    2.9210   61.3410   69.8650 C   0  0  0  0  0  0  0  0  0  0  0  0
    4.6380   63.2430   70.2170 C   0  0  0  0  0  0  0  0  0  0  0  0
    3.6930   62.5070   69.3040 C   0  0  0  0  0  0  0  0  0  0  0  0
    3.5430   62.8550   68.1310 O   0  0  0  0  0  0  0  0  0  0  0  0
    3.7280   60.0870   70.0650 C   0  0  0  0  0  0  0  0  0  0  0  0
    4.0090   59.3260   69.1410 O   0  0  0  0  0  0  0  0  0  0  0  0
    4.2350   59.8320   71.4610 C   0  0  0  0  0  0  0  0  0  0  0  0
    2.5081   61.6411   70.8394 H   0  0  0  0  0  0  0  0  0  0  0  0
    2.1474   61.0960   69.1223 H   0  0  0  0  0  0  0  0  0  0  0  0
    4.3721   63.0359   71.2641 H   0  0  0  0  0  0  0  0  0  0  0  0
    5.6679   62.9067   70.0269 H   0  0  0  0  0  0  0  0  0  0  0  0
    4.5642   64.3239   70.0269 H   0  0  0  0  0  0  0  0  0  0  0  0
    3.5001   60.2016   72.1912 H   0  0  0  0  0  0  0  0  0  0  0  0
    4.3839   58.7517   71.6054 H   0  0  0  0  0  0  0  0  0  0  0  0
    5.1911   60.3565   71.6054 H   0  0  0  0  0  0  0  0  0  0  0  0
  3  2  1  0
  3  1  1  0
  4  3  2  0
  5  1  1  0
  6  5  2  0
  7  5  1  0
  1  8  1  0
  1  9  1  0
  2 10  1  0
  2 11  1  0
  2 12  1  0
  7 13  1  0
  7 14  1  0
  7 15  1  0
M  END
>  <score>  (3) 
-4.104

$$$$
=
     RDKit          3D

 15 14  0  0  0  0  0  0  0  0999 V2000
    3.8050   66.3530   64.4060 C   0  0  0  0  0  0  0  0  0  0  0  0
    2.2530   67.9560   65.7130 C   0  0  0  0  0  0  0  0  0  0  0  0
    2.4320   66.6820   64.9300 C   0  0  0  0  0  0  0  0  0  0  0  0
    1.4840   65.9180   64.7340 O   0  0  0  0  0  0  0  0  0  0  0  0
    3.9660   64.9470   63.8950 C   0  0  0  0  0  0  0  0  0  0  0  0
    4.0940   64.6860   62.7000 O   0  0  0  0  0  0  0  0  0  0  0  0
    4.0230   63.8590   64.9360 C   0  0  0  0  0  0  0  0  0  0  0  0
    4.0311   67.0447   63.5811 H   0  0  0  0  0  0  0  0  0  0  0  0
    4.4934   66.4531   65.2581 H   0  0  0  0  0  0  0  0  0  0  0  0
    2.2844   67.7322   66.7895 H   0  0  0  0  0  0  0  0  0  0  0  0
    3.0613   68.6581   65.4607 H   0  0  0  0  0  0  0  0  0  0  0  0
    1.2825   68.4082   65.4607 H   0  0  0  0  0  0  0  0  0  0  0  0
    3.9994   64.3097   65.9391 H   0  0  0  0  0  0  0  0  0  0  0  0
    3.1587   63.1895   64.8144 H   0  0  0  0  0  0  0  0  0  0  0  0
    4.9525   63.2835   64.8144 H   0  0  0  0  0  0  0  0  0  0  0  0
  3  2  1  0
  3  1  1  0
  4  3  2  0
  5  1  1  0
  6  5  2  0
  7  5  1  0
  1  8  1  0
  1  9  1  0
  2 10  1  0
  2 11  1  0
  2 12  1  0
  7 13  1  0
  7 14  1  0
  7 15  1  0
M  END
>  <score>  (4) 
-4.049

$$$$
=
     RDKit          3D

 15 14  0  0  0  0  0  0  0  0999 V2000
    3.6840   68.0550   62.8030 C   0  0  0  0  0  0  0  0  0  0  0  0
    3.7640   69.2080   65.1170 C   0  0  0  0  0  0  0  0  0  0  0  0
    4.3530   69.0240   63.7430 C   0  0  0  0  0  0  0  0  0  0  0  0
    5.3490   69.6600   63.3880 O   0  0  0  0  0  0  0  0  0  0  0  0
    2.7190   68.6820   61.8330 C   0  0  0  0  0  0  0  0  0  0  0  0
    3.0470   69.0180   60.6960 O   0  0  0  0  0  0  0  0  0  0  0  0
    1.2960   68.8280   62.3040 C   0  0  0  0  0  0  0  0  0  0  0  0
    4.4672   67.5433   62.2243 H   0  0  0  0  0  0  0  0  0  0  0  0
    3.0928   67.3722   63.4308 H   0  0  0  0  0  0  0  0  0  0  0  0
    4.5236   68.9707   65.8764 H   0  0  0  0  0  0  0  0  0  0  0  0
    3.4369   70.2511   65.2390 H   0  0  0  0  0  0  0  0  0  0  0  0
    2.9013   68.5366   65.2390 H   0  0  0  0  0  0  0  0  0  0  0  0
    1.2722   68.8304   63.4037 H   0  0  0  0  0  0  0  0  0  0  0  0
    0.8799   69.7736   61.9261 H   0  0  0  0  0  0  0  0  0  0  0  0
    0.6965   67.9866   61.9261 H   0  0  0  0  0  0  0  0  0  0  0  0
  3  2  1  0
  3  1  1  0
  4  3  2  0
  5  1  1  0
  6  5  2  0
  7  5  1  0
  1  8  1  0
  1  9  1  0
  2 10  1  0
  2 11  1  0
  2 12  1  0
  7 13  1  0
  7 14  1  0
  7 15  1  0
M  END
>  <score>  (5) 
-4.022

$$$$
=
     RDKit          3D

 15 14  0  0  0  0  0  0  0  0999 V2000
    1.2820   68.5260   64.4360 C   0  0  0  0  0  0  0  0  0  0  0  0
    2.5710   66.3180   64.8210 C   0  0  0  0  0  0  0  0  0  0  0  0
    1.3690   67.1800   65.1060 C   0  0  0  0  0  0  0  0  0  0  0  0
    0.4710   66.7900   65.8550 O   0  0  0  0  0  0  0  0  0  0  0  0
    0.6970   68.5040   63.0490 C   0  0  0  0  0  0  0  0  0  0  0  0
   -0.4750   68.2030   62.8290 O   0  0  0  0  0  0  0  0  0  0  0  0
    1.6110   68.9320   61.9300 C   0  0  0  0  0  0  0  0  0  0  0  0
    0.6559   69.1796   65.0611 H   0  0  0  0  0  0  0  0  0  0  0  0
    2.3158   68.8868   64.3304 H   0  0  0  0  0  0  0  0  0  0  0  0
    3.0230   65.9938   65.7700 H   0  0  0  0  0  0  0  0  0  0  0  0
    2.2604   65.4355   64.2424 H   0  0  0  0  0  0  0  0  0  0  0  0
    3.3073   66.8952   64.2424 H   0  0  0  0  0  0  0  0  0  0  0  0
    2.5308   69.3627   62.3523 H   0  0  0  0  0  0  0  0  0  0  0  0
    1.8656   68.0595   61.3104 H   0  0  0  0  0  0  0  0  0  0  0  0
    1.1038   69.6862   61.3104 H   0  0  0  0  0  0  0  0  0  0  0  0
  3  2  1  0
  3  1  1  0
  4  3  2  0
  5  1  1  0
  6  5  2  0
  7  5  1  0
  1  8  1  0
  1  9  1  0
  2 10  1  0
  2 11  1  0
  2 12  1  0
  7 13  1  0
  7 14  1  0
  7 15  1  0
M  END
>  <score>  (6) 
-3.989

$$$$
=
     RDKit          3D

 15 14  0  0  0  0  0  0  0  0999 V2000
    2.3540   68.3520   64.7310 C   0  0  0  0  0  0  0  0  0  0  0  0
    4.5890   69.4520   65.4240 C   0  0  0  0  0  0  0  0  0  0  0  0
    3.1790   69.0570   65.7760 C   0  0  0  0  0  0  0  0  0  0  0  0
    2.7140   69.2900   66.8940 O   0  0  0  0  0  0  0  0  0  0  0  0
    1.9880   66.9320   65.0690 C   0  0  0  0  0  0  0  0  0  0  0  0
    0.9040   66.6260   65.5630 O   0  0  0  0  0  0  0  0  0  0  0  0
    3.0030   65.8760   64.7150 C   0  0  0  0  0  0  0  0  0  0  0  0
    1.4233   68.9208   64.5886 H   0  0  0  0  0  0  0  0  0  0  0  0
    2.9762   68.3045   63.8251 H   0  0  0  0  0  0  0  0  0  0  0  0
    5.1657   69.6136   66.3467 H   0  0  0  0  0  0  0  0  0  0  0  0
    5.0579   68.6506   64.8341 H   0  0  0  0  0  0  0  0  0  0  0  0
    4.5733   70.3803   64.8341 H   0  0  0  0  0  0  0  0  0  0  0  0
    3.4188   65.4434   65.6369 H   0  0  0  0  0  0  0  0  0  0  0  0
    2.5180   65.0845   64.1248 H   0  0  0  0  0  0  0  0  0  0  0  0
    3.8131   66.3293   64.1248 H   0  0  0  0  0  0  0  0  0  0  0  0
  3  2  1  0
  3  1  1  0
  4  3  2  0
  5  1  1  0
  6  5  2  0
  7  5  1  0
  1  8  1  0
  1  9  1  0
  2 10  1  0
  2 11  1  0
  2 12  1  0
  7 13  1  0
  7 14  1  0
  7 15  1  0
M  END
>  <score>  (7) 
-3.936

$$$$
=
     RDKit          3D

 15 14  0  0  0  0  0  0  0  0999 V2000
    2.2920   67.5050   65.9560 C   0  0  0  0  0  0  0  0  0  0  0  0
    0.6070   68.7950   67.4350 C   0  0  0  0  0  0  0  0  0  0  0  0
    0.8930   67.6530   66.4960 C   0  0  0  0  0  0  0  0  0  0  0  0
    0.0110   66.8490   66.1870 O   0  0  0  0  0  0  0  0  0  0  0  0
    2.7950   68.6900   65.1760 C   0  0  0  0  0  0  0  0  0  0  0  0
    2.2360   69.1000   64.1600 O   0  0  0  0  0  0  0  0  0  0  0  0
    3.9990   69.3990   65.7380 C   0  0  0  0  0  0  0  0  0  0  0  0
    2.9713   67.3408   66.8055 H   0  0  0  0  0  0  0  0  0  0  0  0
    2.2652   66.6596   65.2528 H   0  0  0  0  0  0  0  0  0  0  0  0
    0.6945   68.4458   68.4744 H   0  0  0  0  0  0  0  0  0  0  0  0
    1.3300   69.6049   67.2582 H   0  0  0  0  0  0  0  0  0  0  0  0
   -0.4124   69.1685   67.2582 H   0  0  0  0  0  0  0  0  0  0  0  0
    3.9586   69.3752   66.8370 H   0  0  0  0  0  0  0  0  0  0  0  0
    4.9146   68.8959   65.3937 H   0  0  0  0  0  0  0  0  0  0  0  0
    4.0031   70.4437   65.3937 H   0  0  0  0  0  0  0  0  0  0  0  0
  3  2  1  0
  3  1  1  0
  4  3  2  0
  5  1  1  0
  6  5  2  0
  7  5  1  0
  1  8  1  0
  1  9  1  0
  2 10  1  0
  2 11  1  0
  2 12  1  0
  7 13  1  0
  7 14  1  0
  7 15  1  0
M  END
>  <score>  (8) 
-3.846

$$$$
=
     RDKit          3D

 15 14  0  0  0  0  0  0  0  0999 V2000
    5.0050   69.2170   63.6050 C   0  0  0  0  0  0  0  0  0  0  0  0
    4.9240   69.7020   66.1440 C   0  0  0  0  0  0  0  0  0  0  0  0
    4.2030   69.3300   64.8750 C   0  0  0  0  0  0  0  0  0  0  0  0
    2.9900   69.1090   64.8760 O   0  0  0  0  0  0  0  0  0  0  0  0
    4.3380   68.4370   62.5050 C   0  0  0  0  0  0  0  0  0  0  0  0
    3.6550   68.9730   61.6330 O   0  0  0  0  0  0  0  0  0  0  0  0
    4.5950   66.9530   62.4840 C   0  0  0  0  0  0  0  0  0  0  0  0
    5.2018   70.2333   63.2330 H   0  0  0  0  0  0  0  0  0  0  0  0
    5.9204   68.6651   63.8649 H   0  0  0  0  0  0  0  0  0  0  0  0
    4.3230   69.3919   67.0116 H   0  0  0  0  0  0  0  0  0  0  0  0
    5.8996   69.1947   66.1736 H   0  0  0  0  0  0  0  0  0  0  0  0
    5.0760   70.7911   66.1736 H   0  0  0  0  0  0  0  0  0  0  0  0
    4.6600   66.5775   63.5159 H   0  0  0  0  0  0  0  0  0  0  0  0
    3.7714   66.4456   61.9604 H   0  0  0  0  0  0  0  0  0  0  0  0
    5.5413   66.7521   61.9604 H   0  0  0  0  0  0  0  0  0  0  0  0
  3  2  1  0
  3  1  1  0
  4  3  2  0
  5  1  1  0
  6  5  2  0
  7  5  1  0
  1  8  1  0
  1  9  1  0
  2 10  1  0
  2 11  1  0
  2 12  1  0
  7 13  1  0
  7 14  1  0
  7 15  1  0
M  END
>  <score>  (9) 
-3.817

$$$$
