=
     RDKit          3D

 22 24  0  0  0  0  0  0  0  0999 V2000
    3.3680   68.3680   60.7020 Cl  0  0  0  0  0  0  0  0  0  0  0  0
    3.2630   68.6990   62.3950 C   0  0  0  0  0  0  0  0  0  0  0  0
    4.4380   69.0660   63.0580 C   0  0  0  0  0  0  0  0  0  0  0  0
    4.4030   69.3420   64.4230 C   0  0  0  0  0  0  0  0  0  0  0  0
    5.5820   69.6990   65.0270 O   0  0  0  0  0  0  0  0  0  0  0  0
    5.5030   69.9610   66.3720 C   0  0  0  0  0  0  0  0  0  0  0  0
    6.6780   70.3270   67.0250 C   0  0  0  0  0  0  0  0  0  0  0  0
    6.6510   70.6060   68.3960 C   0  0  0  0  0  0  0  0  0  0  0  0
    8.1370   71.0540   69.1520 Cl  0  0  0  0  0  0  0  0  0  0  0  0
    5.4440   70.5170   69.1040 C   0  0  0  0  0  0  0  0  0  0  0  0
    4.2690   70.1510   68.4410 C   0  0  0  0  0  0  0  0  0  0  0  0
    4.3040   69.8740   67.0760 C   0  0  0  0  0  0  0  0  0  0  0  0
    3.1250   69.5180   66.4720 O   0  0  0  0  0  0  0  0  0  0  0  0
    3.2040   69.2550   65.1270 C   0  0  0  0  0  0  0  0  0  0  0  0
    2.0290   68.8890   64.4740 C   0  0  0  0  0  0  0  0  0  0  0  0
    2.0570   68.6100   63.1030 C   0  0  0  0  0  0  0  0  0  0  0  0
    0.5700   68.1630   62.3460 Cl  0  0  0  0  0  0  0  0  0  0  0  0
    5.3390   70.8480   70.7970 Cl  0  0  0  0  0  0  0  0  0  0  0  0
    5.3858   69.1365   62.5042 H   0  0  0  0  0  0  0  0  0  0  0  0
    7.6225   70.3963   66.4655 H   0  0  0  0  0  0  0  0  0  0  0  0
    3.3209   70.0820   68.9945 H   0  0  0  0  0  0  0  0  0  0  0  0
    1.0843   68.8197   65.0332 H   0  0  0  0  0  0  0  0  0  0  0  0
  2  1  1  0
  3  2  2  0
  4  3  1  0
  5  4  1  0
  6  5  1  0
  7  6  2  0
  8  7  1  0
  9  8  1  0
 10  8  2  0
 11 10  1  0
 12 11  2  0
 12  6  1  0
 13 12  1  0
 14  4  2  0
 14 13  1  0
 15 14  1  0
 16 15  2  0
 16  2  1  0
 17 16  1  0
 18 10  1  0
  3 19  1  0
  7 20  1  0
 11 21  1  0
 15 22  1  0
M  END
>  <score>  (1) 
-7.799

$$$$
=
     RDKit          3D

 22 24  0  0  0  0  0  0  0  0999 V2000
    0.6030   67.9680   62.3880 Cl  0  0  0  0  0  0  0  0  0  0  0  0
    2.0750   68.4990   63.1200 C   0  0  0  0  0  0  0  0  0  0  0  0
    2.0630   68.7480   64.4950 C   0  0  0  0  0  0  0  0  0  0  0  0
    3.2270   69.1790   65.1290 C   0  0  0  0  0  0  0  0  0  0  0  0
    3.1640   69.4090   66.4800 O   0  0  0  0  0  0  0  0  0  0  0  0
    4.3310   69.8320   67.0640 C   0  0  0  0  0  0  0  0  0  0  0  0
    4.3110   70.0780   68.4360 C   0  0  0  0  0  0  0  0  0  0  0  0
    5.4760   70.5100   69.0790 C   0  0  0  0  0  0  0  0  0  0  0  0
    5.3920   70.7980   70.7800 Cl  0  0  0  0  0  0  0  0  0  0  0  0
    6.6550   70.6940   68.3440 C   0  0  0  0  0  0  0  0  0  0  0  0
    6.6680   70.4440   66.9680 C   0  0  0  0  0  0  0  0  0  0  0  0
    5.5040   70.0140   66.3340 C   0  0  0  0  0  0  0  0  0  0  0  0
    5.5670   69.7830   64.9830 O   0  0  0  0  0  0  0  0  0  0  0  0
    4.3990   69.3610   64.3990 C   0  0  0  0  0  0  0  0  0  0  0  0
    4.4190   69.1150   63.0270 C   0  0  0  0  0  0  0  0  0  0  0  0
    3.2550   68.6830   62.3840 C   0  0  0  0  0  0  0  0  0  0  0  0
    3.3390   68.3930   60.6840 Cl  0  0  0  0  0  0  0  0  0  0  0  0
    8.1280   71.2250   69.0750 Cl  0  0  0  0  0  0  0  0  0  0  0  0
    1.1390   68.6045   65.0744 H   0  0  0  0  0  0  0  0  0  0  0  0
    3.3840   69.9332   69.0101 H   0  0  0  0  0  0  0  0  0  0  0  0
    7.5925   70.5861   66.3891 H   0  0  0  0  0  0  0  0  0  0  0  0
    5.3461   69.2601   62.4530 H   0  0  0  0  0  0  0  0  0  0  0  0
  2  1  1  0
  3  2  2  0
  4  3  1  0
  5  4  1  0
  6  5  1  0
  7  6  2  0
  8  7  1  0
  9  8  1  0
 10  8  2  0
 11 10  1  0
 12 11  2  0
 12  6  1  0
 13 12  1  0
 14  4  2  0
 14 13  1  0
 15 14  1  0
 16 15  2  0
 16  2  1  0
 17 16  1  0
 18 10  1  0
  3 19  1  0
  7 20  1  0
 11 21  1  0
 15 22  1  0
M  END
>  <score>  (2) 
-7.768

$$$$
=
     RDKit          3D

 22 24  0  0  0  0  0  0  0  0999 V2000
    3.7210   62.6110   68.2840 Cl  0  0  0  0  0  0  0  0  0  0  0  0
    3.8670   61.8970   69.8510 C   0  0  0  0  0  0  0  0  0  0  0  0
    3.1250   60.7410   70.1080 C   0  0  0  0  0  0  0  0  0  0  0  0
    3.2100   60.1310   71.3580 C   0  0  0  0  0  0  0  0  0  0  0  0
    2.4630   58.9970   71.5610 O   0  0  0  0  0  0  0  0  0  0  0  0
    2.5750   58.4290   72.8050 C   0  0  0  0  0  0  0  0  0  0  0  0
    1.8330   57.2760   73.0540 C   0  0  0  0  0  0  0  0  0  0  0  0
    1.9130   56.6570   74.3060 C   0  0  0  0  0  0  0  0  0  0  0  0
    0.9710   55.2320   74.5580 Cl  0  0  0  0  0  0  0  0  0  0  0  0
    2.7380   57.1980   75.3030 C   0  0  0  0  0  0  0  0  0  0  0  0
    3.4810   58.3550   75.0450 C   0  0  0  0  0  0  0  0  0  0  0  0
    3.3950   58.9650   73.7950 C   0  0  0  0  0  0  0  0  0  0  0  0
    4.1430   60.0980   73.5920 O   0  0  0  0  0  0  0  0  0  0  0  0
    4.0300   60.6670   72.3480 C   0  0  0  0  0  0  0  0  0  0  0  0
    4.7720   61.8200   72.0990 C   0  0  0  0  0  0  0  0  0  0  0  0
    4.6910   62.4380   70.8470 C   0  0  0  0  0  0  0  0  0  0  0  0
    5.6340   63.8630   70.5950 Cl  0  0  0  0  0  0  0  0  0  0  0  0
    2.8840   56.4850   76.8700 Cl  0  0  0  0  0  0  0  0  0  0  0  0
    2.4773   60.3149   69.3277 H   0  0  0  0  0  0  0  0  0  0  0  0
    1.1873   56.8545   72.2696 H   0  0  0  0  0  0  0  0  0  0  0  0
    4.1296   58.7809   75.8247 H   0  0  0  0  0  0  0  0  0  0  0  0
    5.4180   62.2418   72.8830 H   0  0  0  0  0  0  0  0  0  0  0  0
  2  1  1  0
  3  2  2  0
  4  3  1  0
  5  4  1  0
  6  5  1  0
  7  6  2  0
  8  7  1  0
  9  8  1  0
 10  8  2  0
 11 10  1  0
 12 11  2  0
 12  6  1  0
 13 12  1  0
 14  4  2  0
 14 13  1  0
 15 14  1  0
 16 15  2  0
 16  2  1  0
 17 16  1  0
 18 10  1  0
  3 19  1  0
  7 20  1  0
 11 21  1  0
 15 22  1  0
M  END
>  <score>  (3) 
-7.335

$$$$
=
     RDKit          3D

 22 24  0  0  0  0  0  0  0  0999 V2000
    5.6480   63.8290   70.6450 Cl  0  0  0  0  0  0  0  0  0  0  0  0
    4.6790   62.4140   70.8550 C   0  0  0  0  0  0  0  0  0  0  0  0
    4.7320   61.7700   72.0950 C   0  0  0  0  0  0  0  0  0  0  0  0
    3.9690   60.6240   72.3100 C   0  0  0  0  0  0  0  0  0  0  0  0
    4.0560   60.0290   73.5440 O   0  0  0  0  0  0  0  0  0  0  0  0
    3.2880   58.9040   73.7140 C   0  0  0  0  0  0  0  0  0  0  0  0
    3.3470   58.2680   74.9520 C   0  0  0  0  0  0  0  0  0  0  0  0
    2.5830   57.1180   75.1770 C   0  0  0  0  0  0  0  0  0  0  0  0
    2.6950   56.3710   76.7300 Cl  0  0  0  0  0  0  0  0  0  0  0  0
    1.7640   56.6110   74.1580 C   0  0  0  0  0  0  0  0  0  0  0  0
    1.7100   57.2560   72.9180 C   0  0  0  0  0  0  0  0  0  0  0  0
    2.4740   58.4010   72.7020 C   0  0  0  0  0  0  0  0  0  0  0  0
    2.3860   58.9960   71.4690 O   0  0  0  0  0  0  0  0  0  0  0  0
    3.1540   60.1210   71.2990 C   0  0  0  0  0  0  0  0  0  0  0  0
    3.0960   60.7570   70.0600 C   0  0  0  0  0  0  0  0  0  0  0  0
    3.8600   61.9070   69.8360 C   0  0  0  0  0  0  0  0  0  0  0  0
    3.7460   62.6540   68.2830 Cl  0  0  0  0  0  0  0  0  0  0  0  0
    0.7950   55.1960   74.3680 Cl  0  0  0  0  0  0  0  0  0  0  0  0
    5.3727   62.1660   72.8967 H   0  0  0  0  0  0  0  0  0  0  0  0
    3.9912   58.6682   75.7488 H   0  0  0  0  0  0  0  0  0  0  0  0
    1.0675   56.8612   72.1172 H   0  0  0  0  0  0  0  0  0  0  0  0
    2.4527   60.3566   69.2626 H   0  0  0  0  0  0  0  0  0  0  0  0
  2  1  1  0
  3  2  2  0
  4  3  1  0
  5  4  1  0
  6  5  1  0
  7  6  2  0
  8  7  1  0
  9  8  1  0
 10  8  2  0
 11 10  1  0
 12 11  2  0
 12  6  1  0
 13 12  1  0
 14  4  2  0
 14 13  1  0
 15 14  1  0
 16 15  2  0
 16  2  1  0
 17 16  1  0
 18 10  1  0
  3 19  1  0
  7 20  1  0
 11 21  1  0
 15 22  1  0
M  END
>  <score>  (4) 
-7.325

$$$$
=
     RDKit          3D

 22 24  0  0  0  0  0  0  0  0999 V2000
   -4.0450   59.2650   75.2140 Cl  0  0  0  0  0  0  0  0  0  0  0  0
   -2.5190   59.5790   74.4660 C   0  0  0  0  0  0  0  0  0  0  0  0
   -2.3400   60.8240   73.8560 C   0  0  0  0  0  0  0  0  0  0  0  0
   -1.1270   61.1220   73.2390 C   0  0  0  0  0  0  0  0  0  0  0  0
   -0.9990   62.3570   72.6550 O   0  0  0  0  0  0  0  0  0  0  0  0
    0.2110   62.6090   72.0590 C   0  0  0  0  0  0  0  0  0  0  0  0
    0.3820   63.8530   71.4540 C   0  0  0  0  0  0  0  0  0  0  0  0
    1.5980   64.1590   70.8330 C   0  0  0  0  0  0  0  0  0  0  0  0
    1.7530   65.7140   70.0990 Cl  0  0  0  0  0  0  0  0  0  0  0  0
    2.6360   63.2160   70.8220 C   0  0  0  0  0  0  0  0  0  0  0  0
    2.4560   61.9710   71.4330 C   0  0  0  0  0  0  0  0  0  0  0  0
    1.2430   61.6730   72.0490 C   0  0  0  0  0  0  0  0  0  0  0  0
    1.1160   60.4380   72.6330 O   0  0  0  0  0  0  0  0  0  0  0  0
   -0.0940   60.1860   73.2290 C   0  0  0  0  0  0  0  0  0  0  0  0
   -0.2660   58.9420   73.8340 C   0  0  0  0  0  0  0  0  0  0  0  0
   -1.4810   58.6360   74.4550 C   0  0  0  0  0  0  0  0  0  0  0  0
   -1.6370   57.0810   75.1890 Cl  0  0  0  0  0  0  0  0  0  0  0  0
    4.1610   63.5300   70.0740 Cl  0  0  0  0  0  0  0  0  0  0  0  0
   -3.1531   61.5649   73.8631 H   0  0  0  0  0  0  0  0  0  0  0  0
   -0.4344   64.5901   71.4647 H   0  0  0  0  0  0  0  0  0  0  0  0
    3.2691   61.2302   71.4271 H   0  0  0  0  0  0  0  0  0  0  0  0
    0.5501   58.2046   73.8230 H   0  0  0  0  0  0  0  0  0  0  0  0
  2  1  1  0
  3  2  2  0
  4  3  1  0
  5  4  1  0
  6  5  1  0
  7  6  2  0
  8  7  1  0
  9  8  1  0
 10  8  2  0
 11 10  1  0
 12 11  2  0
 12  6  1  0
 13 12  1  0
 14  4  2  0
 14 13  1  0
 15 14  1  0
 16 15  2  0
 16  2  1  0
 17 16  1  0
 18 10  1  0
  3 19  1  0
  7 20  1  0
 11 21  1  0
 15 22  1  0
M  END
>  <score>  (5) 
-7.291

$$$$
=
     RDKit          3D

 22 24  0  0  0  0  0  0  0  0999 V2000
    4.2980   63.4600   70.1880 Cl  0  0  0  0  0  0  0  0  0  0  0  0
    2.7450   63.1730   70.8900 C   0  0  0  0  0  0  0  0  0  0  0  0
    2.5350   61.9430   71.5200 C   0  0  0  0  0  0  0  0  0  0  0  0
    1.2980   61.6660   72.0990 C   0  0  0  0  0  0  0  0  0  0  0  0
    1.1430   60.4460   72.7060 O   0  0  0  0  0  0  0  0  0  0  0  0
   -0.0900   60.2140   73.2630 C   0  0  0  0  0  0  0  0  0  0  0  0
   -0.2920   58.9860   73.8900 C   0  0  0  0  0  0  0  0  0  0  0  0
   -1.5300   58.7010   74.4740 C   0  0  0  0  0  0  0  0  0  0  0  0
   -1.7230   57.1640   75.2360 Cl  0  0  0  0  0  0  0  0  0  0  0  0
   -2.5610   59.6500   74.4270 C   0  0  0  0  0  0  0  0  0  0  0  0
   -2.3510   60.8810   73.7980 C   0  0  0  0  0  0  0  0  0  0  0  0
   -1.1150   61.1570   73.2180 C   0  0  0  0  0  0  0  0  0  0  0  0
   -0.9590   62.3790   72.6120 O   0  0  0  0  0  0  0  0  0  0  0  0
    0.2740   62.6090   72.0540 C   0  0  0  0  0  0  0  0  0  0  0  0
    0.4760   63.8380   71.4270 C   0  0  0  0  0  0  0  0  0  0  0  0
    1.7140   64.1220   70.8430 C   0  0  0  0  0  0  0  0  0  0  0  0
    1.9070   65.6600   70.0820 Cl  0  0  0  0  0  0  0  0  0  0  0  0
   -4.1140   59.3640   75.1280 Cl  0  0  0  0  0  0  0  0  0  0  0  0
    3.3425   61.1971   71.5586 H   0  0  0  0  0  0  0  0  0  0  0  0
    0.5192   58.2439   73.9253 H   0  0  0  0  0  0  0  0  0  0  0  0
   -3.1579   61.6278   73.7614 H   0  0  0  0  0  0  0  0  0  0  0  0
   -0.3349   64.5805   71.3921 H   0  0  0  0  0  0  0  0  0  0  0  0
  2  1  1  0
  3  2  2  0
  4  3  1  0
  5  4  1  0
  6  5  1  0
  7  6  2  0
  8  7  1  0
  9  8  1  0
 10  8  2  0
 11 10  1  0
 12 11  2  0
 12  6  1  0
 13 12  1  0
 14  4  2  0
 14 13  1  0
 15 14  1  0
 16 15  2  0
 16  2  1  0
 17 16  1  0
 18 10  1  0
  3 19  1  0
  7 20  1  0
 11 21  1  0
 15 22  1  0
M  END
>  <score>  (6) 
-7.279

$$$$
=
     RDKit          3D

 22 24  0  0  0  0  0  0  0  0999 V2000
    1.8790   65.6540   70.1570 Cl  0  0  0  0  0  0  0  0  0  0  0  0
    1.6980   64.1060   70.9020 C   0  0  0  0  0  0  0  0  0  0  0  0
    0.4650   63.8100   71.4910 C   0  0  0  0  0  0  0  0  0  0  0  0
    0.2720   62.5740   72.1050 C   0  0  0  0  0  0  0  0  0  0  0  0
   -0.9550   62.3320   72.6680 O   0  0  0  0  0  0  0  0  0  0  0  0
   -1.1020   61.1030   73.2620 C   0  0  0  0  0  0  0  0  0  0  0  0
   -2.3340   60.8150   73.8470 C   0  0  0  0  0  0  0  0  0  0  0  0
   -2.5350   59.5770   74.4640 C   0  0  0  0  0  0  0  0  0  0  0  0
   -4.0810   59.2760   75.1720 Cl  0  0  0  0  0  0  0  0  0  0  0  0
   -1.5000   58.6310   74.4910 C   0  0  0  0  0  0  0  0  0  0  0  0
   -0.2670   58.9270   73.9010 C   0  0  0  0  0  0  0  0  0  0  0  0
   -0.0740   60.1630   73.2890 C   0  0  0  0  0  0  0  0  0  0  0  0
    1.1530   60.4050   72.7240 O   0  0  0  0  0  0  0  0  0  0  0  0
    1.3000   61.6340   72.1320 C   0  0  0  0  0  0  0  0  0  0  0  0
    2.5320   61.9220   71.5460 C   0  0  0  0  0  0  0  0  0  0  0  0
    2.7330   63.1610   70.9290 C   0  0  0  0  0  0  0  0  0  0  0  0
    4.2790   63.4610   70.2200 Cl  0  0  0  0  0  0  0  0  0  0  0  0
   -1.6810   57.0830   75.2360 Cl  0  0  0  0  0  0  0  0  0  0  0  0
   -0.3491   64.5495   71.4698 H   0  0  0  0  0  0  0  0  0  0  0  0
   -3.1443   61.5586   73.8232 H   0  0  0  0  0  0  0  0  0  0  0  0
    0.5466   58.1869   73.9203 H   0  0  0  0  0  0  0  0  0  0  0  0
    3.3421   61.1782   71.5688 H   0  0  0  0  0  0  0  0  0  0  0  0
  2  1  1  0
  3  2  2  0
  4  3  1  0
  5  4  1  0
  6  5  1  0
  7  6  2  0
  8  7  1  0
  9  8  1  0
 10  8  2  0
 11 10  1  0
 12 11  2  0
 12  6  1  0
 13 12  1  0
 14  4  2  0
 14 13  1  0
 15 14  1  0
 16 15  2  0
 16  2  1  0
 17 16  1  0
 18 10  1  0
  3 19  1  0
  7 20  1  0
 11 21  1  0
 15 22  1  0
M  END
>  <score>  (7) 
-7.26

$$$$
=
     RDKit          3D

 22 24  0  0  0  0  0  0  0  0999 V2000
    1.9410   64.8120   70.5740 Cl  0  0  0  0  0  0  0  0  0  0  0  0
    2.1460   63.1500   71.0010 C   0  0  0  0  0  0  0  0  0  0  0  0
    1.1320   62.5430   71.7480 C   0  0  0  0  0  0  0  0  0  0  0  0
    1.2530   61.2050   72.1160 C   0  0  0  0  0  0  0  0  0  0  0  0
    0.2310   60.6540   72.8480 O   0  0  0  0  0  0  0  0  0  0  0  0
    0.3910   59.3340   73.1890 C   0  0  0  0  0  0  0  0  0  0  0  0
   -0.6230   58.7360   73.9340 C   0  0  0  0  0  0  0  0  0  0  0  0
   -0.5090   57.3930   74.3060 C   0  0  0  0  0  0  0  0  0  0  0  0
   -1.7970   56.7040   75.2280 Cl  0  0  0  0  0  0  0  0  0  0  0  0
    0.6230   56.6560   73.9300 C   0  0  0  0  0  0  0  0  0  0  0  0
    1.6360   57.2630   73.1820 C   0  0  0  0  0  0  0  0  0  0  0  0
    1.5150   58.6010   72.8150 C   0  0  0  0  0  0  0  0  0  0  0  0
    2.5360   59.1510   72.0810 O   0  0  0  0  0  0  0  0  0  0  0  0
    2.3770   60.4710   71.7410 C   0  0  0  0  0  0  0  0  0  0  0  0
    3.3920   61.0700   70.9970 C   0  0  0  0  0  0  0  0  0  0  0  0
    3.2770   62.4130   70.6240 C   0  0  0  0  0  0  0  0  0  0  0  0
    4.5650   63.1010   69.7010 Cl  0  0  0  0  0  0  0  0  0  0  0  0
    0.8270   54.9940   74.3560 Cl  0  0  0  0  0  0  0  0  0  0  0  0
    0.2429   63.1193   72.0437 H   0  0  0  0  0  0  0  0  0  0  0  0
   -1.5091   59.3176   74.2282 H   0  0  0  0  0  0  0  0  0  0  0  0
    2.5245   56.6866   72.8847 H   0  0  0  0  0  0  0  0  0  0  0  0
    4.2793   60.4893   70.7046 H   0  0  0  0  0  0  0  0  0  0  0  0
  2  1  1  0
  3  2  2  0
  4  3  1  0
  5  4  1  0
  6  5  1  0
  7  6  2  0
  8  7  1  0
  9  8  1  0
 10  8  2  0
 11 10  1  0
 12 11  2  0
 12  6  1  0
 13 12  1  0
 14  4  2  0
 14 13  1  0
 15 14  1  0
 16 15  2  0
 16  2  1  0
 17 16  1  0
 18 10  1  0
  3 19  1  0
  7 20  1  0
 11 21  1  0
 15 22  1  0
M  END
>  <score>  (8) 
-6.943

$$$$
=
     RDKit          3D

 22 24  0  0  0  0  0  0  0  0999 V2000
    4.9130   63.4540   70.2480 Cl  0  0  0  0  0  0  0  0  0  0  0  0
    3.5550   62.6680   70.9710 C   0  0  0  0  0  0  0  0  0  0  0  0
    3.7300   61.3560   71.4230 C   0  0  0  0  0  0  0  0  0  0  0  0
    2.6630   60.6820   72.0120 C   0  0  0  0  0  0  0  0  0  0  0  0
    2.8850   59.3970   72.4400 O   0  0  0  0  0  0  0  0  0  0  0  0
    1.8080   58.7690   73.0140 C   0  0  0  0  0  0  0  0  0  0  0  0
    1.9900   57.4620   73.4620 C   0  0  0  0  0  0  0  0  0  0  0  0
    0.9240   56.7780   74.0550 C   0  0  0  0  0  0  0  0  0  0  0  0
    1.2080   55.1620   74.5920 Cl  0  0  0  0  0  0  0  0  0  0  0  0
   -0.3200   57.4080   74.1960 C   0  0  0  0  0  0  0  0  0  0  0  0
   -0.4950   58.7200   73.7450 C   0  0  0  0  0  0  0  0  0  0  0  0
    0.5720   59.3950   73.1550 C   0  0  0  0  0  0  0  0  0  0  0  0
    0.3490   60.6800   72.7280 O   0  0  0  0  0  0  0  0  0  0  0  0
    1.4260   61.3080   72.1530 C   0  0  0  0  0  0  0  0  0  0  0  0
    1.2440   62.6150   71.7050 C   0  0  0  0  0  0  0  0  0  0  0  0
    2.3100   63.2980   71.1120 C   0  0  0  0  0  0  0  0  0  0  0  0
    2.0270   64.9150   70.5760 Cl  0  0  0  0  0  0  0  0  0  0  0  0
   -1.6780   56.6220   74.9200 Cl  0  0  0  0  0  0  0  0  0  0  0  0
    4.7053   60.8591   71.3138 H   0  0  0  0  0  0  0  0  0  0  0  0
    2.9677   56.9706   73.3497 H   0  0  0  0  0  0  0  0  0  0  0  0
   -1.4701   59.2169   73.8554 H   0  0  0  0  0  0  0  0  0  0  0  0
    0.2665   63.1068   71.8174 H   0  0  0  0  0  0  0  0  0  0  0  0
  2  1  1  0
  3  2  2  0
  4  3  1  0
  5  4  1  0
  6  5  1  0
  7  6  2  0
  8  7  1  0
  9  8  1  0
 10  8  2  0
 11 10  1  0
 12 11  2  0
 12  6  1  0
 13 12  1  0
 14  4  2  0
 14 13  1  0
 15 14  1  0
 16 15  2  0
 16  2  1  0
 17 16  1  0
 18 10  1  0
  3 19  1  0
  7 20  1  0
 11 21  1  0
 15 22  1  0
M  END
>  <score>  (9) 
-6.932

$$$$
