=
     RDKit          3D

 28 29  0  0  0  0  0  0  0  0999 V2000
    2.7240   68.7200   65.3780 C   0  0  2  0  0  0  0  0  0  0  0  0
    3.2620   67.5050   64.6010 C   0  0  0  0  0  0  0  0  0  0  0  0
    2.9890   66.2350   65.1730 C   0  0  0  0  0  0  0  0  0  0  0  0
    3.4170   65.0440   64.5830 C   0  0  0  0  0  0  0  0  0  0  0  0
    4.1270   65.0830   63.3920 C   0  0  0  0  0  0  0  0  0  0  0  0
    4.3910   66.3110   62.7950 C   0  0  0  0  0  0  0  0  0  0  0  0
    3.9600   67.5120   63.3830 C   0  0  0  0  0  0  0  0  0  0  0  0
    4.3180   68.9330   62.4810 Cl  0  0  0  0  0  0  0  0  0  0  0  0
    3.7740   69.3590   66.2970 C   0  0  0  0  0  0  0  0  0  0  0  0
    5.0890   69.5430   65.8310 C   0  0  0  0  0  0  0  0  0  0  0  0
    6.0600   70.1320   66.6450 C   0  0  0  0  0  0  0  0  0  0  0  0
    5.7270   70.5480   67.9310 C   0  0  0  0  0  0  0  0  0  0  0  0
    4.4320   70.3800   68.4080 C   0  0  0  0  0  0  0  0  0  0  0  0
    3.4590   69.7890   67.5960 C   0  0  0  0  0  0  0  0  0  0  0  0
    6.9230   71.2740   68.9320 Cl  0  0  0  0  0  0  0  0  0  0  0  0
    0.9040   67.6250   67.2820 Cl  0  0  0  0  0  0  0  0  0  0  0  0
    1.2800   68.7720   65.9700 C   0  0  0  0  0  0  0  0  0  0  0  0
    0.0070   68.7460   64.7180 Cl  0  0  0  0  0  0  0  0  0  0  0  0
    2.5218   69.3506   64.4996 H   0  0  0  0  0  0  0  0  0  0  0  0
    2.4206   66.1874   66.1136 H   0  0  0  0  0  0  0  0  0  0  0  0
    3.1921   64.0790   65.0606 H   0  0  0  0  0  0  0  0  0  0  0  0
    4.4779   64.1514   62.9241 H   0  0  0  0  0  0  0  0  0  0  0  0
    4.9467   66.3425   61.8462 H   0  0  0  0  0  0  0  0  0  0  0  0
    5.3556   69.2194   64.8141 H   0  0  0  0  0  0  0  0  0  0  0  0
    7.0854   70.2667   66.2704 H   0  0  0  0  0  0  0  0  0  0  0  0
    4.1728   70.7120   69.4242 H   0  0  0  0  0  0  0  0  0  0  0  0
    2.4360   69.6596   67.9790 H   0  0  0  0  0  0  0  0  0  0  0  0
    1.2786   69.7566   66.4605 H   0  0  0  0  0  0  0  0  0  0  0  0
  2  1  1  0
  3  2  2  0
  4  3  1  0
  5  4  2  0
  6  5  1  0
  7  6  2  0
  7  2  1  0
  8  7  1  0
  9  1  1  0
 10  9  2  0
 11 10  1  0
 12 11  2  0
 13 12  1  0
 14 13  2  0
 14  9  1  0
 15 12  1  0
 17  1  1  0
 17 16  1  0
 18 17  1  0
  1 19  1  6
  3 20  1  0
  4 21  1  0
  5 22  1  0
  6 23  1  0
 10 24  1  0
 11 25  1  0
 13 26  1  0
 14 27  1  0
 17 28  1  0
M  END
>  <score>  (1) 
-9.676

$$$$
=
     RDKit          3D

 28 29  0  0  0  0  0  0  0  0999 V2000
    3.0530   67.6750   64.7530 C   0  0  2  0  0  0  0  0  0  0  0  0
    1.9620   68.3290   63.8870 C   0  0  0  0  0  0  0  0  0  0  0  0
    2.3360   68.6430   62.5540 C   0  0  0  0  0  0  0  0  0  0  0  0
    1.4530   69.2420   61.6540 C   0  0  0  0  0  0  0  0  0  0  0  0
    0.1590   69.5410   62.0540 C   0  0  0  0  0  0  0  0  0  0  0  0
   -0.2450   69.2250   63.3480 C   0  0  0  0  0  0  0  0  0  0  0  0
    0.6390   68.6200   64.2570 C   0  0  0  0  0  0  0  0  0  0  0  0
   -0.0410   68.2430   65.7920 Cl  0  0  0  0  0  0  0  0  0  0  0  0
    3.8400   68.6890   65.5950 C   0  0  0  0  0  0  0  0  0  0  0  0
    3.3060   69.1470   66.8140 C   0  0  0  0  0  0  0  0  0  0  0  0
    4.0090   70.0620   67.6030 C   0  0  0  0  0  0  0  0  0  0  0  0
    5.2530   70.5240   67.1860 C   0  0  0  0  0  0  0  0  0  0  0  0
    5.8010   70.0800   65.9880 C   0  0  0  0  0  0  0  0  0  0  0  0
    5.0990   69.1670   65.1960 C   0  0  0  0  0  0  0  0  0  0  0  0
    6.1180   71.6500   68.1590 Cl  0  0  0  0  0  0  0  0  0  0  0  0
    4.6000   66.6170   62.6030 Cl  0  0  0  0  0  0  0  0  0  0  0  0
    3.9310   66.4860   64.2500 C   0  0  0  0  0  0  0  0  0  0  0  0
    3.1640   64.8930   64.5000 Cl  0  0  0  0  0  0  0  0  0  0  0  0
    2.3745   67.0744   65.3766 H   0  0  0  0  0  0  0  0  0  0  0  0
    3.3566   68.4062   62.2189 H   0  0  0  0  0  0  0  0  0  0  0  0
    1.7823   69.4761   60.6309 H   0  0  0  0  0  0  0  0  0  0  0  0
   -0.5409   70.0230   61.3556 H   0  0  0  0  0  0  0  0  0  0  0  0
   -1.2737   69.4528   63.6642 H   0  0  0  0  0  0  0  0  0  0  0  0
    2.3245   68.7808   67.1496 H   0  0  0  0  0  0  0  0  0  0  0  0
    3.5793   70.4160   68.5517 H   0  0  0  0  0  0  0  0  0  0  0  0
    6.7860   70.4468   65.6637 H   0  0  0  0  0  0  0  0  0  0  0  0
    5.5376   68.8188   64.2492 H   0  0  0  0  0  0  0  0  0  0  0  0
    4.8090   66.5673   64.9076 H   0  0  0  0  0  0  0  0  0  0  0  0
  2  1  1  0
  3  2  2  0
  4  3  1  0
  5  4  2  0
  6  5  1  0
  7  6  2  0
  7  2  1  0
  8  7  1  0
  9  1  1  0
 10  9  2  0
 11 10  1  0
 12 11  2  0
 13 12  1  0
 14 13  2  0
 14  9  1  0
 15 12  1  0
 17  1  1  0
 17 16  1  0
 18 17  1  0
  1 19  1  1
  3 20  1  0
  4 21  1  0
  5 22  1  0
  6 23  1  0
 10 24  1  0
 11 25  1  0
 13 26  1  0
 14 27  1  0
 17 28  1  0
M  END
>  <score>  (2) 
-9.192

$$$$
=
     RDKit          3D

 28 29  0  0  0  0  0  0  0  0999 V2000
    2.7980   69.1420   65.9860 C   0  0  2  0  0  0  0  0  0  0  0  0
    3.1660   68.6760   64.5660 C   0  0  0  0  0  0  0  0  0  0  0  0
    4.4470   68.0810   64.4250 C   0  0  0  0  0  0  0  0  0  0  0  0
    4.9200   67.6140   63.1970 C   0  0  0  0  0  0  0  0  0  0  0  0
    4.1220   67.7180   62.0670 C   0  0  0  0  0  0  0  0  0  0  0  0
    2.8520   68.2760   62.1790 C   0  0  0  0  0  0  0  0  0  0  0  0
    2.3700   68.7440   63.4120 C   0  0  0  0  0  0  0  0  0  0  0  0
    0.7590   69.3470   63.3820 Cl  0  0  0  0  0  0  0  0  0  0  0  0
    3.9970   69.6960   66.7670 C   0  0  0  0  0  0  0  0  0  0  0  0
    3.8450   70.0510   68.1210 C   0  0  0  0  0  0  0  0  0  0  0  0
    4.9250   70.5470   68.8550 C   0  0  0  0  0  0  0  0  0  0  0  0
    6.1690   70.6900   68.2480 C   0  0  0  0  0  0  0  0  0  0  0  0
    6.3420   70.3390   66.9130 C   0  0  0  0  0  0  0  0  0  0  0  0
    5.2630   69.8440   66.1760 C   0  0  0  0  0  0  0  0  0  0  0  0
    7.4980   71.3000   69.1540 Cl  0  0  0  0  0  0  0  0  0  0  0  0
    1.0080   66.9300   66.1900 Cl  0  0  0  0  0  0  0  0  0  0  0  0
    1.7810   68.3760   66.8900 C   0  0  0  0  0  0  0  0  0  0  0  0
    0.5640   69.4460   67.6410 Cl  0  0  0  0  0  0  0  0  0  0  0  0
    2.1120   69.9452   65.6788 H   0  0  0  0  0  0  0  0  0  0  0  0
    5.0888   67.9845   65.3131 H   0  0  0  0  0  0  0  0  0  0  0  0
    5.9218   67.1653   63.1259 H   0  0  0  0  0  0  0  0  0  0  0  0
    4.4892   67.3631   61.0927 H   0  0  0  0  0  0  0  0  0  0  0  0
    2.2145   68.3518   61.2858 H   0  0  0  0  0  0  0  0  0  0  0  0
    2.8645   69.9364   68.6064 H   0  0  0  0  0  0  0  0  0  0  0  0
    4.7923   70.8241   69.9112 H   0  0  0  0  0  0  0  0  0  0  0  0
    7.3277   70.4511   66.4378 H   0  0  0  0  0  0  0  0  0  0  0  0
    5.4064   69.5671   65.1211 H   0  0  0  0  0  0  0  0  0  0  0  0
    2.4415   67.9792   67.6750 H   0  0  0  0  0  0  0  0  0  0  0  0
  2  1  1  0
  3  2  2  0
  4  3  1  0
  5  4  2  0
  6  5  1  0
  7  6  2  0
  7  2  1  0
  8  7  1  0
  9  1  1  0
 10  9  2  0
 11 10  1  0
 12 11  2  0
 13 12  1  0
 14 13  2  0
 14  9  1  0
 15 12  1  0
 17  1  1  0
 17 16  1  0
 18 17  1  0
  1 19  1  6
  3 20  1  0
  4 21  1  0
  5 22  1  0
  6 23  1  0
 10 24  1  0
 11 25  1  0
 13 26  1  0
 14 27  1  0
 17 28  1  0
M  END
>  <score>  (3) 
-9.092

$$$$
=
     RDKit          3D

 28 29  0  0  0  0  0  0  0  0999 V2000
    2.9460   67.5560   64.6350 C   0  0  2  0  0  0  0  0  0  0  0  0
    2.0220   68.2630   63.6280 C   0  0  0  0  0  0  0  0  0  0  0  0
    0.6590   68.3690   64.0100 C   0  0  0  0  0  0  0  0  0  0  0  0
   -0.2980   68.9810   63.1980 C   0  0  0  0  0  0  0  0  0  0  0  0
    0.0790   69.5190   61.9760 C   0  0  0  0  0  0  0  0  0  0  0  0
    1.4130   69.4510   61.5830 C   0  0  0  0  0  0  0  0  0  0  0  0
    2.3790   68.8380   62.3980 C   0  0  0  0  0  0  0  0  0  0  0  0
    3.9870   68.8960   61.7880 Cl  0  0  0  0  0  0  0  0  0  0  0  0
    3.6940   68.5320   65.5530 C   0  0  0  0  0  0  0  0  0  0  0  0
    4.9970   68.9460   65.2190 C   0  0  0  0  0  0  0  0  0  0  0  0
    5.6930   69.8430   66.0340 C   0  0  0  0  0  0  0  0  0  0  0  0
    5.0940   70.3390   67.1880 C   0  0  0  0  0  0  0  0  0  0  0  0
    3.8050   69.9470   67.5330 C   0  0  0  0  0  0  0  0  0  0  0  0
    3.1070   69.0490   66.7200 C   0  0  0  0  0  0  0  0  0  0  0  0
    5.9520   71.4440   68.1900 Cl  0  0  0  0  0  0  0  0  0  0  0  0
    4.4530   66.2240   62.6120 Cl  0  0  0  0  0  0  0  0  0  0  0  0
    3.7910   66.2960   64.2650 C   0  0  0  0  0  0  0  0  0  0  0  0
    2.9860   64.7610   64.6940 Cl  0  0  0  0  0  0  0  0  0  0  0  0
    2.1529   67.0213   65.1781 H   0  0  0  0  0  0  0  0  0  0  0  0
    0.3457   67.9545   64.9796 H   0  0  0  0  0  0  0  0  0  0  0  0
   -1.3465   69.0363   63.5259 H   0  0  0  0  0  0  0  0  0  0  0  0
   -0.6686   69.9946   61.3241 H   0  0  0  0  0  0  0  0  0  0  0  0
    1.7154   69.8845   60.6183 H   0  0  0  0  0  0  0  0  0  0  0  0
    5.4731   68.5591   64.3060 H   0  0  0  0  0  0  0  0  0  0  0  0
    6.7122   70.1563   65.7638 H   0  0  0  0  0  0  0  0  0  0  0  0
    3.3349   70.3433   68.4451 H   0  0  0  0  0  0  0  0  0  0  0  0
    2.0871   68.7439   66.9971 H   0  0  0  0  0  0  0  0  0  0  0  0
    4.6747   66.4287   64.9064 H   0  0  0  0  0  0  0  0  0  0  0  0
  2  1  1  0
  3  2  2  0
  4  3  1  0
  5  4  2  0
  6  5  1  0
  7  6  2  0
  7  2  1  0
  8  7  1  0
  9  1  1  0
 10  9  2  0
 11 10  1  0
 12 11  2  0
 13 12  1  0
 14 13  2  0
 14  9  1  0
 15 12  1  0
 17  1  1  0
 17 16  1  0
 18 17  1  0
  1 19  1  1
  3 20  1  0
  4 21  1  0
  5 22  1  0
  6 23  1  0
 10 24  1  0
 11 25  1  0
 13 26  1  0
 14 27  1  0
 17 28  1  0
M  END
>  <score>  (4) 
-8.819

$$$$
=
     RDKit          3D

 28 29  0  0  0  0  0  0  0  0999 V2000
    3.2210   68.4910   66.1030 C   0  0  2  0  0  0  0  0  0  0  0  0
    3.6770   68.0750   64.6920 C   0  0  0  0  0  0  0  0  0  0  0  0
    4.2240   69.1110   63.8900 C   0  0  0  0  0  0  0  0  0  0  0  0
    4.6760   68.8850   62.5880 C   0  0  0  0  0  0  0  0  0  0  0  0
    4.6050   67.6100   62.0470 C   0  0  0  0  0  0  0  0  0  0  0  0
    4.0950   66.5690   62.8170 C   0  0  0  0  0  0  0  0  0  0  0  0
    3.6410   66.7900   64.1280 C   0  0  0  0  0  0  0  0  0  0  0  0
    3.1000   65.3830   64.9580 Cl  0  0  0  0  0  0  0  0  0  0  0  0
    1.7150   68.3010   66.3280 C   0  0  0  0  0  0  0  0  0  0  0  0
    1.2630   67.5710   67.4430 C   0  0  0  0  0  0  0  0  0  0  0  0
   -0.1040   67.3940   67.6760 C   0  0  0  0  0  0  0  0  0  0  0  0
   -1.0330   67.9480   66.7990 C   0  0  0  0  0  0  0  0  0  0  0  0
   -0.6070   68.6760   65.6940 C   0  0  0  0  0  0  0  0  0  0  0  0
    0.7600   68.8530   65.4590 C   0  0  0  0  0  0  0  0  0  0  0  0
   -2.7150   67.7300   67.0860 Cl  0  0  0  0  0  0  0  0  0  0  0  0
    5.5680   69.8110   67.0450 Cl  0  0  0  0  0  0  0  0  0  0  0  0
    3.7980   69.7380   66.8440 C   0  0  0  0  0  0  0  0  0  0  0  0
    2.9680   70.0830   68.3870 Cl  0  0  0  0  0  0  0  0  0  0  0  0
    3.8076   67.7388   66.6509 H   0  0  0  0  0  0  0  0  0  0  0  0
    4.2942   70.1260   64.3082 H   0  0  0  0  0  0  0  0  0  0  0  0
    5.0866   69.7149   61.9941 H   0  0  0  0  0  0  0  0  0  0  0  0
    4.9486   67.4233   61.0189 H   0  0  0  0  0  0  0  0  0  0  0  0
    4.0465   65.5557   62.3918 H   0  0  0  0  0  0  0  0  0  0  0  0
    1.9940   67.1345   68.1395 H   0  0  0  0  0  0  0  0  0  0  0  0
   -0.4448   66.8188   68.5495 H   0  0  0  0  0  0  0  0  0  0  0  0
   -1.3449   69.1126   65.0049 H   0  0  0  0  0  0  0  0  0  0  0  0
    1.0910   69.4311   64.5836 H   0  0  0  0  0  0  0  0  0  0  0  0
    3.5724   70.5425   66.1285 H   0  0  0  0  0  0  0  0  0  0  0  0
  2  1  1  0
  3  2  2  0
  4  3  1  0
  5  4  2  0
  6  5  1  0
  7  6  2  0
  7  2  1  0
  8  7  1  0
  9  1  1  0
 10  9  2  0
 11 10  1  0
 12 11  2  0
 13 12  1  0
 14 13  2  0
 14  9  1  0
 15 12  1  0
 17  1  1  0
 17 16  1  0
 18 17  1  0
  1 19  1  1
  3 20  1  0
  4 21  1  0
  5 22  1  0
  6 23  1  0
 10 24  1  0
 11 25  1  0
 13 26  1  0
 14 27  1  0
 17 28  1  0
M  END
>  <score>  (5) 
-8.735

$$$$
=
     RDKit          3D

 28 29  0  0  0  0  0  0  0  0999 V2000
    1.6940   68.6840   66.2530 C   0  0  2  0  0  0  0  0  0  0  0  0
    1.7310   68.6410   64.7150 C   0  0  0  0  0  0  0  0  0  0  0  0
    0.7590   69.4340   64.0520 C   0  0  0  0  0  0  0  0  0  0  0  0
    0.6680   69.4920   62.6600 C   0  0  0  0  0  0  0  0  0  0  0  0
    1.5550   68.7640   61.8810 C   0  0  0  0  0  0  0  0  0  0  0  0
    2.5340   67.9940   62.5020 C   0  0  0  0  0  0  0  0  0  0  0  0
    2.6310   67.9340   63.9020 C   0  0  0  0  0  0  0  0  0  0  0  0
    3.9350   66.9840   64.5010 Cl  0  0  0  0  0  0  0  0  0  0  0  0
    2.9430   69.3320   66.8670 C   0  0  0  0  0  0  0  0  0  0  0  0
    2.8860   69.8590   68.1700 C   0  0  0  0  0  0  0  0  0  0  0  0
    4.0130   70.4440   68.7540 C   0  0  0  0  0  0  0  0  0  0  0  0
    5.2080   70.5050   68.0440 C   0  0  0  0  0  0  0  0  0  0  0  0
    5.2870   69.9840   66.7570 C   0  0  0  0  0  0  0  0  0  0  0  0
    4.1610   69.4000   66.1710 C   0  0  0  0  0  0  0  0  0  0  0  0
    6.5950   71.2250   68.7650 Cl  0  0  0  0  0  0  0  0  0  0  0  0
   -0.5990   67.1150   66.9000 Cl  0  0  0  0  0  0  0  0  0  0  0  0
    1.1240   67.5150   67.1180 C   0  0  0  0  0  0  0  0  0  0  0  0
    1.5290   67.6630   68.8510 Cl  0  0  0  0  0  0  0  0  0  0  0  0
    0.8164   69.3418   66.3376 H   0  0  0  0  0  0  0  0  0  0  0  0
    0.0529   70.0233   64.6554 H   0  0  0  0  0  0  0  0  0  0  0  0
   -0.1045   70.1129   62.1828 H   0  0  0  0  0  0  0  0  0  0  0  0
    1.4854   68.7949   60.7836 H   0  0  0  0  0  0  0  0  0  0  0  0
    3.2439   67.4226   61.8859 H   0  0  0  0  0  0  0  0  0  0  0  0
    1.9438   69.8101   68.7356 H   0  0  0  0  0  0  0  0  0  0  0  0
    3.9554   70.8552   69.7726 H   0  0  0  0  0  0  0  0  0  0  0  0
    6.2349   70.0316   66.2010 H   0  0  0  0  0  0  0  0  0  0  0  0
    4.2293   68.9888   65.1530 H   0  0  0  0  0  0  0  0  0  0  0  0
    1.6586   66.6500   66.6985 H   0  0  0  0  0  0  0  0  0  0  0  0
  2  1  1  0
  3  2  2  0
  4  3  1  0
  5  4  2  0
  6  5  1  0
  7  6  2  0
  7  2  1  0
  8  7  1  0
  9  1  1  0
 10  9  2  0
 11 10  1  0
 12 11  2  0
 13 12  1  0
 14 13  2  0
 14  9  1  0
 15 12  1  0
 17  1  1  0
 17 16  1  0
 18 17  1  0
  1 19  1  6
  3 20  1  0
  4 21  1  0
  5 22  1  0
  6 23  1  0
 10 24  1  0
 11 25  1  0
 13 26  1  0
 14 27  1  0
 17 28  1  0
M  END
>  <score>  (6) 
-7.833

$$$$
=
     RDKit          3D

 28 29  0  0  0  0  0  0  0  0999 V2000
    2.6570   68.7020   64.7650 C   0  0  2  0  0  0  0  0  0  0  0  0
    1.1530   68.7910   64.4500 C   0  0  0  0  0  0  0  0  0  0  0  0
    0.2820   68.7210   65.5690 C   0  0  0  0  0  0  0  0  0  0  0  0
   -1.1060   68.7850   65.4370 C   0  0  0  0  0  0  0  0  0  0  0  0
   -1.6730   68.9300   64.1800 C   0  0  0  0  0  0  0  0  0  0  0  0
   -0.8440   69.0240   63.0650 C   0  0  0  0  0  0  0  0  0  0  0  0
    0.5540   68.9630   63.1920 C   0  0  0  0  0  0  0  0  0  0  0  0
    1.4270   69.1570   61.7220 Cl  0  0  0  0  0  0  0  0  0  0  0  0
    3.2500   67.3150   64.4800 C   0  0  0  0  0  0  0  0  0  0  0  0
    2.6690   66.1740   65.0640 C   0  0  0  0  0  0  0  0  0  0  0  0
    3.1840   64.9000   64.8100 C   0  0  0  0  0  0  0  0  0  0  0  0
    4.2810   64.7520   63.9670 C   0  0  0  0  0  0  0  0  0  0  0  0
    4.8660   65.8660   63.3750 C   0  0  0  0  0  0  0  0  0  0  0  0
    4.3540   67.1410   63.6290 C   0  0  0  0  0  0  0  0  0  0  0  0
    4.9140   63.1830   63.6540 Cl  0  0  0  0  0  0  0  0  0  0  0  0
    5.0840   69.4740   66.0490 Cl  0  0  0  0  0  0  0  0  0  0  0  0
    3.3040   69.4000   66.0030 C   0  0  0  0  0  0  0  0  0  0  0  0
    2.6510   68.8150   67.5590 Cl  0  0  0  0  0  0  0  0  0  0  0  0
    2.9842   69.4411   64.0189 H   0  0  0  0  0  0  0  0  0  0  0  0
    0.7158   68.6127   66.5740 H   0  0  0  0  0  0  0  0  0  0  0  0
   -1.7483   68.7206   66.3277 H   0  0  0  0  0  0  0  0  0  0  0  0
   -2.7662   68.9704   64.0647 H   0  0  0  0  0  0  0  0  0  0  0  0
   -1.2913   69.1481   62.0677 H   0  0  0  0  0  0  0  0  0  0  0  0
    1.7994   66.2863   65.7282 H   0  0  0  0  0  0  0  0  0  0  0  0
    2.7232   64.0162   65.2754 H   0  0  0  0  0  0  0  0  0  0  0  0
    5.7314   65.7435   62.7071 H   0  0  0  0  0  0  0  0  0  0  0  0
    4.8207   68.0183   63.1573 H   0  0  0  0  0  0  0  0  0  0  0  0
    2.9922   70.4444   65.8545 H   0  0  0  0  0  0  0  0  0  0  0  0
  2  1  1  0
  3  2  2  0
  4  3  1  0
  5  4  2  0
  6  5  1  0
  7  6  2  0
  7  2  1  0
  8  7  1  0
  9  1  1  0
 10  9  2  0
 11 10  1  0
 12 11  2  0
 13 12  1  0
 14 13  2  0
 14  9  1  0
 15 12  1  0
 17  1  1  0
 17 16  1  0
 18 17  1  0
  1 19  1  6
  3 20  1  0
  4 21  1  0
  5 22  1  0
  6 23  1  0
 10 24  1  0
 11 25  1  0
 13 26  1  0
 14 27  1  0
 17 28  1  0
M  END
>  <score>  (7) 
-7.813

$$$$
=
     RDKit          3D

 28 29  0  0  0  0  0  0  0  0999 V2000
    2.8340   68.0660   64.7810 C   0  0  2  0  0  0  0  0  0  0  0  0
    3.4450   66.6870   64.4720 C   0  0  0  0  0  0  0  0  0  0  0  0
    2.8610   65.5870   65.1530 C   0  0  0  0  0  0  0  0  0  0  0  0
    3.3130   64.2780   64.9770 C   0  0  0  0  0  0  0  0  0  0  0  0
    4.3600   64.0220   64.1050 C   0  0  0  0  0  0  0  0  0  0  0  0
    4.9380   65.0770   63.4060 C   0  0  0  0  0  0  0  0  0  0  0  0
    4.4860   66.3960   63.5770 C   0  0  0  0  0  0  0  0  0  0  0  0
    5.2700   67.5680   62.5910 Cl  0  0  0  0  0  0  0  0  0  0  0  0
    1.9570   68.6030   63.6410 C   0  0  0  0  0  0  0  0  0  0  0  0
    2.4910   68.7150   62.3430 C   0  0  0  0  0  0  0  0  0  0  0  0
    1.7100   69.1910   61.2870 C   0  0  0  0  0  0  0  0  0  0  0  0
    0.3860   69.5560   61.5150 C   0  0  0  0  0  0  0  0  0  0  0  0
   -0.1630   69.4470   62.7880 C   0  0  0  0  0  0  0  0  0  0  0  0
    0.6180   68.9730   63.8460 C   0  0  0  0  0  0  0  0  0  0  0  0
   -0.5760   70.1410   60.2140 Cl  0  0  0  0  0  0  0  0  0  0  0  0
    5.3970   69.1050   65.4790 Cl  0  0  0  0  0  0  0  0  0  0  0  0
    3.6170   69.1890   65.5310 C   0  0  0  0  0  0  0  0  0  0  0  0
    3.0410   69.4490   67.2010 Cl  0  0  0  0  0  0  0  0  0  0  0  0
    2.2267   67.7440   65.6398 H   0  0  0  0  0  0  0  0  0  0  0  0
    2.0242   65.7722   65.8425 H   0  0  0  0  0  0  0  0  0  0  0  0
    2.8399   63.4522   65.5285 H   0  0  0  0  0  0  0  0  0  0  0  0
    4.7299   62.9953   63.9672 H   0  0  0  0  0  0  0  0  0  0  0  0
    5.7632   64.8748   62.7073 H   0  0  0  0  0  0  0  0  0  0  0  0
    3.5357   68.4242   62.1582 H   0  0  0  0  0  0  0  0  0  0  0  0
    2.1400   69.2772   60.2782 H   0  0  0  0  0  0  0  0  0  0  0  0
   -1.2107   69.7335   62.9622 H   0  0  0  0  0  0  0  0  0  0  0  0
    0.1785   68.8889   64.8509 H   0  0  0  0  0  0  0  0  0  0  0  0
    3.3689   70.0729   64.9251 H   0  0  0  0  0  0  0  0  0  0  0  0
  2  1  1  0
  3  2  2  0
  4  3  1  0
  5  4  2  0
  6  5  1  0
  7  6  2  0
  7  2  1  0
  8  7  1  0
  9  1  1  0
 10  9  2  0
 11 10  1  0
 12 11  2  0
 13 12  1  0
 14 13  2  0
 14  9  1  0
 15 12  1  0
 17  1  1  0
 17 16  1  0
 18 17  1  0
  1 19  1  1
  3 20  1  0
  4 21  1  0
  5 22  1  0
  6 23  1  0
 10 24  1  0
 11 25  1  0
 13 26  1  0
 14 27  1  0
 17 28  1  0
M  END
>  <score>  (8) 
-7.716

$$$$
=
     RDKit          3D

 28 29  0  0  0  0  0  0  0  0999 V2000
    1.9270   60.4320   72.0270 C   0  0  2  0  0  0  0  0  0  0  0  0
    2.8650   61.5230   71.4810 C   0  0  0  0  0  0  0  0  0  0  0  0
    4.2530   61.3000   71.6790 C   0  0  0  0  0  0  0  0  0  0  0  0
    5.2230   62.2050   71.2410 C   0  0  0  0  0  0  0  0  0  0  0  0
    4.8370   63.3610   70.5800 C   0  0  0  0  0  0  0  0  0  0  0  0
    3.4850   63.5970   70.3510 C   0  0  0  0  0  0  0  0  0  0  0  0
    2.5050   62.6900   70.7870 C   0  0  0  0  0  0  0  0  0  0  0  0
    0.8890   63.1060   70.3670 Cl  0  0  0  0  0  0  0  0  0  0  0  0
    0.9090   60.9680   73.0420 C   0  0  0  0  0  0  0  0  0  0  0  0
    1.3600   61.5450   74.2450 C   0  0  0  0  0  0  0  0  0  0  0  0
    0.4520   62.0490   75.1800 C   0  0  0  0  0  0  0  0  0  0  0  0
   -0.9150   61.9880   74.9220 C   0  0  0  0  0  0  0  0  0  0  0  0
   -1.3800   61.4280   73.7370 C   0  0  0  0  0  0  0  0  0  0  0  0
   -0.4740   60.9200   72.8010 C   0  0  0  0  0  0  0  0  0  0  0  0
   -2.0310   62.6110   76.0730 Cl  0  0  0  0  0  0  0  0  0  0  0  0
    3.1400   58.0560   71.0180 Cl  0  0  0  0  0  0  0  0  0  0  0  0
    2.4150   58.9860   72.3550 C   0  0  0  0  0  0  0  0  0  0  0  0
    1.1910   58.0120   73.2160 Cl  0  0  0  0  0  0  0  0  0  0  0  0
    1.4472   60.1872   71.0679 H   0  0  0  0  0  0  0  0  0  0  0  0
    4.5757   60.3836   72.1948 H   0  0  0  0  0  0  0  0  0  0  0  0
    6.2890   62.0012   71.4199 H   0  0  0  0  0  0  0  0  0  0  0  0
    5.5924   64.0847   70.2399 H   0  0  0  0  0  0  0  0  0  0  0  0
    3.1782   64.5098   69.8193 H   0  0  0  0  0  0  0  0  0  0  0  0
    2.4392   61.5995   74.4509 H   0  0  0  0  0  0  0  0  0  0  0  0
    0.8164   62.4931   76.1181 H   0  0  0  0  0  0  0  0  0  0  0  0
   -2.4606   61.3847   73.5361 H   0  0  0  0  0  0  0  0  0  0  0  0
   -0.8483   60.4780   71.8658 H   0  0  0  0  0  0  0  0  0  0  0  0
    3.2563   59.1863   73.0348 H   0  0  0  0  0  0  0  0  0  0  0  0
  2  1  1  0
  3  2  2  0
  4  3  1  0
  5  4  2  0
  6  5  1  0
  7  6  2  0
  7  2  1  0
  8  7  1  0
  9  1  1  0
 10  9  2  0
 11 10  1  0
 12 11  2  0
 13 12  1  0
 14 13  2  0
 14  9  1  0
 15 12  1  0
 17  1  1  0
 17 16  1  0
 18 17  1  0
  1 19  1  6
  3 20  1  0
  4 21  1  0
  5 22  1  0
  6 23  1  0
 10 24  1  0
 11 25  1  0
 13 26  1  0
 14 27  1  0
 17 28  1  0
M  END
>  <score>  (9) 
-7.279

$$$$
