=
     RDKit          3D

 29 30  0  0  0  0  0  0  0  0999 V2000
    2.7230   68.8920   66.2310 C   0  0  0  0  0  0  0  0  0  0  0  0
    3.7050   69.4970   65.5370 N   0  0  0  0  0  0  0  0  0  0  0  0
    4.2560   68.7920   64.5370 C   0  0  0  0  0  0  0  0  0  0  0  0
    5.3660   69.4250   63.7570 C   0  0  0  0  0  0  0  0  0  0  0  0
    3.9080   67.5330   64.2330 N   0  0  0  0  0  0  0  0  0  0  0  0
    2.9270   66.9770   64.9710 C   0  0  0  0  0  0  0  0  0  0  0  0
    2.2350   67.6150   65.9830 C   0  0  0  0  0  0  0  0  0  0  0  0
    2.7300   65.3110   64.5910 Cl  0  0  0  0  0  0  0  0  0  0  0  0
    1.1680   67.1340   66.8210 N   0  0  0  0  0  0  0  0  0  0  0  0
   -0.1340   67.4290   66.7520 C   0  0  0  0  0  0  0  0  0  0  0  0
   -0.7190   68.3780   65.9730 N   0  0  0  0  0  4  0  0  0  0  0  0
   -2.1620   68.3980   66.2270 C   0  0  0  0  0  0  0  0  0  0  0  0
   -2.3780   67.3250   67.3010 C   0  0  0  0  0  0  0  0  0  0  0  0
   -1.0370   66.7900   67.5570 N   0  0  0  0  0  0  0  0  0  0  0  0
    3.0070   69.8570   68.3590 C   0  0  0  0  0  0  0  0  0  0  0  0
    2.1120   69.5700   67.2810 O   0  0  0  0  0  0  0  0  0  0  0  0
    6.1072   69.8477   64.4512 H   0  0  0  0  0  0  0  0  0  0  0  0
    5.8481   68.6660   63.1234 H   0  0  0  0  0  0  0  0  0  0  0  0
    4.9583   70.2264   63.1234 H   0  0  0  0  0  0  0  0  0  0  0  0
    1.4423   66.4801   67.5680 H   0  0  0  0  0  0  0  0  0  0  0  0
   -0.2241   68.9885   65.3072 H   0  0  0  0  0  0  0  0  0  0  0  0
   -2.4784   69.3853   66.5947 H   0  0  0  0  0  0  0  0  0  0  0  0
   -2.7494   68.2035   65.3175 H   0  0  0  0  0  0  0  0  0  0  0  0
   -2.8011   67.7683   68.2145 H   0  0  0  0  0  0  0  0  0  0  0  0
   -3.0856   66.5466   66.9796 H   0  0  0  0  0  0  0  0  0  0  0  0
   -0.8105   66.0495   68.2361 H   0  0  0  0  0  0  0  0  0  0  0  0
    2.4921   69.6919   69.3169 H   0  0  0  0  0  0  0  0  0  0  0  0
    3.8829   69.1947   68.2946 H   0  0  0  0  0  0  0  0  0  0  0  0
    3.3344   70.9052   68.2946 H   0  0  0  0  0  0  0  0  0  0  0  0
  2  1  2  0
  3  2  1  0
  4  3  1  0
  5  3  2  0
  6  5  1  0
  7  6  2  0
  7  1  1  0
  8  6  1  0
  9  7  1  0
 10  9  1  0
 11 10  2  0
 12 11  1  0
 13 12  1  0
 14 13  1  0
 14 10  1  0
 16 15  1  0
 16  1  1  0
  4 17  1  0
  4 18  1  0
  4 19  1  0
  9 20  1  0
 11 21  1  0
 12 22  1  0
 12 23  1  0
 13 24  1  0
 13 25  1  0
 14 26  1  0
 15 27  1  0
 15 28  1  0
 15 29  1  0
M  CHG  1  11   1
M  END
>  <score>  (1) 
-7.461

$$$$
=
     RDKit          3D

 29 30  0  0  0  0  0  0  0  0999 V2000
    2.6410   67.2650   65.3890 C   0  0  0  0  0  0  0  0  0  0  0  0
    3.6630   67.7620   64.6690 N   0  0  0  0  0  0  0  0  0  0  0  0
    4.1900   68.9200   65.0950 C   0  0  0  0  0  0  0  0  0  0  0  0
    5.3150   69.5150   64.3050 C   0  0  0  0  0  0  0  0  0  0  0  0
    3.7300   69.6040   66.1520 N   0  0  0  0  0  0  0  0  0  0  0  0
    2.6970   69.0610   66.8260 C   0  0  0  0  0  0  0  0  0  0  0  0
    2.1070   67.8470   66.5320 C   0  0  0  0  0  0  0  0  0  0  0  0
    2.1010   70.1390   68.0270 Cl  0  0  0  0  0  0  0  0  0  0  0  0
    1.0200   67.1640   67.1830 N   0  0  0  0  0  0  0  0  0  0  0  0
   -0.2920   67.3860   67.0540 C   0  0  0  0  0  0  0  0  0  0  0  0
   -0.8870   68.4190   66.3990 N   0  0  0  0  0  4  0  0  0  0  0  0
   -2.3420   68.3070   66.5280 C   0  0  0  0  0  0  0  0  0  0  0  0
   -2.5560   67.0520   67.3840 C   0  0  0  0  0  0  0  0  0  0  0  0
   -1.2020   66.5630   67.6600 N   0  0  0  0  0  0  0  0  0  0  0  0
    3.0010   65.0720   64.6140 C   0  0  0  0  0  0  0  0  0  0  0  0
    2.0500   66.0670   64.9990 O   0  0  0  0  0  0  0  0  0  0  0  0
    6.0739   69.9164   64.9928 H   0  0  0  0  0  0  0  0  0  0  0  0
    5.7685   68.7388   63.6711 H   0  0  0  0  0  0  0  0  0  0  0  0
    4.9287   70.3267   63.6711 H   0  0  0  0  0  0  0  0  0  0  0  0
    1.2868   66.4085   67.8302 H   0  0  0  0  0  0  0  0  0  0  0  0
   -0.3910   69.1650   65.8907 H   0  0  0  0  0  0  0  0  0  0  0  0
   -2.7575   69.1943   67.0281 H   0  0  0  0  0  0  0  0  0  0  0  0
   -2.8445   68.2384   65.5519 H   0  0  0  0  0  0  0  0  0  0  0  0
   -3.0772   67.3033   68.3195 H   0  0  0  0  0  0  0  0  0  0  0  0
   -3.1779   66.2998   66.8767 H   0  0  0  0  0  0  0  0  0  0  0  0
   -0.9717   65.7309   68.2217 H   0  0  0  0  0  0  0  0  0  0  0  0
    3.4380   64.6148   65.5140 H   0  0  0  0  0  0  0  0  0  0  0  0
    2.4992   64.2971   64.0158 H   0  0  0  0  0  0  0  0  0  0  0  0
    3.7977   65.5383   64.0158 H   0  0  0  0  0  0  0  0  0  0  0  0
  2  1  2  0
  3  2  1  0
  4  3  1  0
  5  3  2  0
  6  5  1  0
  7  6  2  0
  7  1  1  0
  8  6  1  0
  9  7  1  0
 10  9  1  0
 11 10  2  0
 12 11  1  0
 13 12  1  0
 14 13  1  0
 14 10  1  0
 16 15  1  0
 16  1  1  0
  4 17  1  0
  4 18  1  0
  4 19  1  0
  9 20  1  0
 11 21  1  0
 12 22  1  0
 12 23  1  0
 13 24  1  0
 13 25  1  0
 14 26  1  0
 15 27  1  0
 15 28  1  0
 15 29  1  0
M  CHG  1  11   1
M  END
>  <score>  (2) 
-7.373

$$$$
=
     RDKit          3D

 29 30  0  0  0  0  0  0  0  0999 V2000
    1.2500   68.6240   62.9150 C   0  0  0  0  0  0  0  0  0  0  0  0
    2.4040   68.3730   62.2700 N   0  0  0  0  0  0  0  0  0  0  0  0
    3.5120   68.3120   63.0230 C   0  0  0  0  0  0  0  0  0  0  0  0
    4.8180   68.0570   62.3350 C   0  0  0  0  0  0  0  0  0  0  0  0
    3.5260   68.5230   64.3470 N   0  0  0  0  0  0  0  0  0  0  0  0
    2.3410   68.7820   64.9340 C   0  0  0  0  0  0  0  0  0  0  0  0
    1.1220   68.8080   64.2860 C   0  0  0  0  0  0  0  0  0  0  0  0
    2.5470   69.2160   66.5860 Cl  0  0  0  0  0  0  0  0  0  0  0  0
   -0.1980   69.0540   64.8060 N   0  0  0  0  0  0  0  0  0  0  0  0
   -0.8330   68.4080   65.7900 C   0  0  0  0  0  0  0  0  0  0  0  0
   -0.4320   67.2670   66.4130 N   0  0  0  0  0  4  0  0  0  0  0  0
   -1.4330   66.8770   67.4090 C   0  0  0  0  0  0  0  0  0  0  0  0
   -2.5280   67.9440   67.2920 C   0  0  0  0  0  0  0  0  0  0  0  0
   -2.0470   68.8470   66.2420 N   0  0  0  0  0  0  0  0  0  0  0  0
    0.0180   69.8270   61.3090 C   0  0  0  0  0  0  0  0  0  0  0  0
    0.0650   68.7010   62.1900 O   0  0  0  0  0  0  0  0  0  0  0  0
    5.6052   67.9033   63.0878 H   0  0  0  0  0  0  0  0  0  0  0  0
    4.7318   67.1587   61.7060 H   0  0  0  0  0  0  0  0  0  0  0  0
    5.0760   68.9217   61.7060 H   0  0  0  0  0  0  0  0  0  0  0  0
   -0.7191   69.8249   64.3643 H   0  0  0  0  0  0  0  0  0  0  0  0
    0.4403   66.7564   66.2150 H   0  0  0  0  0  0  0  0  0  0  0  0
   -1.8371   65.8790   67.1838 H   0  0  0  0  0  0  0  0  0  0  0  0
   -1.0125   66.8191   68.4238 H   0  0  0  0  0  0  0  0  0  0  0  0
   -3.4866   67.4879   67.0040 H   0  0  0  0  0  0  0  0  0  0  0  0
   -2.7081   68.4658   68.2435 H   0  0  0  0  0  0  0  0  0  0  0  0
   -2.5449   69.6808   65.8987 H   0  0  0  0  0  0  0  0  0  0  0  0
   -0.0207   70.7538   61.9002 H   0  0  0  0  0  0  0  0  0  0  0  0
    0.9166   69.8340   60.6746 H   0  0  0  0  0  0  0  0  0  0  0  0
   -0.8781   69.7591   60.6746 H   0  0  0  0  0  0  0  0  0  0  0  0
  2  1  2  0
  3  2  1  0
  4  3  1  0
  5  3  2  0
  6  5  1  0
  7  6  2  0
  7  1  1  0
  8  6  1  0
  9  7  1  0
 10  9  1  0
 11 10  2  0
 12 11  1  0
 13 12  1  0
 14 13  1  0
 14 10  1  0
 16 15  1  0
 16  1  1  0
  4 17  1  0
  4 18  1  0
  4 19  1  0
  9 20  1  0
 11 21  1  0
 12 22  1  0
 12 23  1  0
 13 24  1  0
 13 25  1  0
 14 26  1  0
 15 27  1  0
 15 28  1  0
 15 29  1  0
M  CHG  1  11   1
M  END
>  <score>  (3) 
-7.146

$$$$
=
     RDKit          3D

 29 30  0  0  0  0  0  0  0  0999 V2000
    3.7570   68.8830   65.5240 C   0  0  0  0  0  0  0  0  0  0  0  0
    5.0400   69.2300   65.7340 N   0  0  0  0  0  0  0  0  0  0  0  0
    5.3140   69.8500   66.8920 C   0  0  0  0  0  0  0  0  0  0  0  0
    6.7280   70.2710   67.1480 C   0  0  0  0  0  0  0  0  0  0  0  0
    4.3850   70.1650   67.8060 N   0  0  0  0  0  0  0  0  0  0  0  0
    3.1150   69.8020   67.5340 C   0  0  0  0  0  0  0  0  0  0  0  0
    2.7110   69.1040   66.4130 C   0  0  0  0  0  0  0  0  0  0  0  0
    2.0220   70.4400   68.7000 Cl  0  0  0  0  0  0  0  0  0  0  0  0
    1.4010   68.6500   66.0270 N   0  0  0  0  0  0  0  0  0  0  0  0
    0.5170   67.9590   66.7540 C   0  0  0  0  0  0  0  0  0  0  0  0
    0.7260   67.3880   67.9710 N   0  0  0  0  0  4  0  0  0  0  0  0
   -0.4910   66.6950   68.4020 C   0  0  0  0  0  0  0  0  0  0  0  0
   -1.4820   66.9080   67.2510 C   0  0  0  0  0  0  0  0  0  0  0  0
   -0.7380   67.7070   66.2720 N   0  0  0  0  0  0  0  0  0  0  0  0
    4.0490   68.7920   63.1910 C   0  0  0  0  0  0  0  0  0  0  0  0
    3.4070   68.2380   64.3420 O   0  0  0  0  0  0  0  0  0  0  0  0
    6.9043   70.3235   68.2325 H   0  0  0  0  0  0  0  0  0  0  0  0
    7.4155   69.5386   66.6998 H   0  0  0  0  0  0  0  0  0  0  0  0
    6.9029   71.2602   66.6998 H   0  0  0  0  0  0  0  0  0  0  0  0
    1.1071   68.8876   65.0688 H   0  0  0  0  0  0  0  0  0  0  0  0
    1.6043   67.4355   68.5069 H   0  0  0  0  0  0  0  0  0  0  0  0
   -0.2953   65.6232   68.5533 H   0  0  0  0  0  0  0  0  0  0  0  0
   -0.8735   67.0778   69.3597 H   0  0  0  0  0  0  0  0  0  0  0  0
   -1.7865   65.9445   66.8163 H   0  0  0  0  0  0  0  0  0  0  0  0
   -2.4070   67.4038   67.5806 H   0  0  0  0  0  0  0  0  0  0  0  0
   -1.1031   68.0280   65.3640 H   0  0  0  0  0  0  0  0  0  0  0  0
    4.8458   69.4796   63.5109 H   0  0  0  0  0  0  0  0  0  0  0  0
    4.4844   67.9814   62.5882 H   0  0  0  0  0  0  0  0  0  0  0  0
    3.3108   69.3413   62.5882 H   0  0  0  0  0  0  0  0  0  0  0  0
  2  1  2  0
  3  2  1  0
  4  3  1  0
  5  3  2  0
  6  5  1  0
  7  6  2  0
  7  1  1  0
  8  6  1  0
  9  7  1  0
 10  9  1  0
 11 10  2  0
 12 11  1  0
 13 12  1  0
 14 13  1  0
 14 10  1  0
 16 15  1  0
 16  1  1  0
  4 17  1  0
  4 18  1  0
  4 19  1  0
  9 20  1  0
 11 21  1  0
 12 22  1  0
 12 23  1  0
 13 24  1  0
 13 25  1  0
 14 26  1  0
 15 27  1  0
 15 28  1  0
 15 29  1  0
M  CHG  1  11   1
M  END
>  <score>  (4) 
-7.091

$$$$
=
     RDKit          3D

 29 30  0  0  0  0  0  0  0  0999 V2000
    1.4720   68.5870   66.6780 C   0  0  0  0  0  0  0  0  0  0  0  0
    0.3400   68.1980   67.2930 N   0  0  0  0  0  0  0  0  0  0  0  0
   -0.7430   68.0410   66.5170 C   0  0  0  0  0  0  0  0  0  0  0  0
   -2.0260   67.6310   67.1730 C   0  0  0  0  0  0  0  0  0  0  0  0
   -0.7570   68.2860   65.1990 N   0  0  0  0  0  0  0  0  0  0  0  0
    0.4040   68.6840   64.6420 C   0  0  0  0  0  0  0  0  0  0  0  0
    1.6030   68.8210   65.3140 C   0  0  0  0  0  0  0  0  0  0  0  0
    0.1810   69.1400   62.9970 Cl  0  0  0  0  0  0  0  0  0  0  0  0
    2.8980   69.2180   64.8270 N   0  0  0  0  0  0  0  0  0  0  0  0
    3.6490   68.6230   63.8950 C   0  0  0  0  0  0  0  0  0  0  0  0
    3.4270   67.4130   63.3130 N   0  0  0  0  0  4  0  0  0  0  0  0
    4.5080   67.1180   62.3690 C   0  0  0  0  0  0  0  0  0  0  0  0
    5.4480   68.3260   62.4720 C   0  0  0  0  0  0  0  0  0  0  0  0
    4.8120   69.2000   63.4630 N   0  0  0  0  0  0  0  0  0  0  0  0
    2.5360   69.8570   68.3500 C   0  0  0  0  0  0  0  0  0  0  0  0
    2.6300   68.7690   67.4270 O   0  0  0  0  0  0  0  0  0  0  0  0
   -1.9074   67.6689   68.2659 H   0  0  0  0  0  0  0  0  0  0  0  0
   -2.8297   68.3171   66.8674 H   0  0  0  0  0  0  0  0  0  0  0  0
   -2.2829   66.6060   66.8674 H   0  0  0  0  0  0  0  0  0  0  0  0
    3.2964   70.0683   65.2503 H   0  0  0  0  0  0  0  0  0  0  0  0
    2.6229   66.7991   63.5064 H   0  0  0  0  0  0  0  0  0  0  0  0
    5.0310   66.1930   62.6534 H   0  0  0  0  0  0  0  0  0  0  0  0
    4.1381   66.9619   61.3449 H   0  0  0  0  0  0  0  0  0  0  0  0
    6.4466   68.0142   62.8120 H   0  0  0  0  0  0  0  0  0  0  0  0
    5.5943   68.8271   61.5037 H   0  0  0  0  0  0  0  0  0  0  0  0
    5.1826   70.1060   63.7835 H   0  0  0  0  0  0  0  0  0  0  0  0
    2.5695   69.4690   69.3788 H   0  0  0  0  0  0  0  0  0  0  0  0
    3.3779   70.5468   68.1907 H   0  0  0  0  0  0  0  0  0  0  0  0
    1.5883   70.3922   68.1907 H   0  0  0  0  0  0  0  0  0  0  0  0
  2  1  2  0
  3  2  1  0
  4  3  1  0
  5  3  2  0
  6  5  1  0
  7  6  2  0
  7  1  1  0
  8  6  1  0
  9  7  1  0
 10  9  1  0
 11 10  2  0
 12 11  1  0
 13 12  1  0
 14 13  1  0
 14 10  1  0
 16 15  1  0
 16  1  1  0
  4 17  1  0
  4 18  1  0
  4 19  1  0
  9 20  1  0
 11 21  1  0
 12 22  1  0
 12 23  1  0
 13 24  1  0
 13 25  1  0
 14 26  1  0
 15 27  1  0
 15 28  1  0
 15 29  1  0
M  CHG  1  11   1
M  END
>  <score>  (5) 
-6.834

$$$$
=
     RDKit          3D

 29 30  0  0  0  0  0  0  0  0999 V2000
    1.9650   67.6160   65.7900 C   0  0  0  0  0  0  0  0  0  0  0  0
    0.8120   66.9860   66.0820 N   0  0  0  0  0  0  0  0  0  0  0  0
    0.0230   67.5680   66.9980 C   0  0  0  0  0  0  0  0  0  0  0  0
   -1.2570   66.8820   67.3630 C   0  0  0  0  0  0  0  0  0  0  0  0
    0.3420   68.6980   67.6450 N   0  0  0  0  0  0  0  0  0  0  0  0
    1.5140   69.2770   67.3190 C   0  0  0  0  0  0  0  0  0  0  0  0
    2.3850   68.8170   66.3500 C   0  0  0  0  0  0  0  0  0  0  0  0
    1.8680   70.5990   68.3610 Cl  0  0  0  0  0  0  0  0  0  0  0  0
    3.6450   69.3540   65.9060 N   0  0  0  0  0  0  0  0  0  0  0  0
    4.6550   69.8170   66.6500 C   0  0  0  0  0  0  0  0  0  0  0  0
    4.6500   70.0320   67.9930 N   0  0  0  0  0  4  0  0  0  0  0  0
    5.9470   70.5760   68.4060 C   0  0  0  0  0  0  0  0  0  0  0  0
    6.7500   70.6840   67.1030 C   0  0  0  0  0  0  0  0  0  0  0  0
    5.8370   70.1870   66.0690 N   0  0  0  0  0  0  0  0  0  0  0  0
    2.6860   65.6460   64.7240 C   0  0  0  0  0  0  0  0  0  0  0  0
    2.8280   67.0630   64.8490 O   0  0  0  0  0  0  0  0  0  0  0  0
   -1.3476   66.8334   68.4582 H   0  0  0  0  0  0  0  0  0  0  0  0
   -2.1061   67.4459   66.9495 H   0  0  0  0  0  0  0  0  0  0  0  0
   -1.2576   65.8627   66.9495 H   0  0  0  0  0  0  0  0  0  0  0  0
    3.7862   69.3855   64.8862 H   0  0  0  0  0  0  0  0  0  0  0  0
    3.8573   69.8419   68.6226 H   0  0  0  0  0  0  0  0  0  0  0  0
    5.8237   71.5657   68.8700 H   0  0  0  0  0  0  0  0  0  0  0  0
    6.4469   69.9437   69.1545 H   0  0  0  0  0  0  0  0  0  0  0  0
    7.0309   71.7288   66.9045 H   0  0  0  0  0  0  0  0  0  0  0  0
    7.6898   70.1137   67.1415 H   0  0  0  0  0  0  0  0  0  0  0  0
    6.0517   70.1260   65.0635 H   0  0  0  0  0  0  0  0  0  0  0  0
    2.6405   65.1923   65.7251 H   0  0  0  0  0  0  0  0  0  0  0  0
    1.7604   65.4172   64.1754 H   0  0  0  0  0  0  0  0  0  0  0  0
    3.5478   65.2381   64.1754 H   0  0  0  0  0  0  0  0  0  0  0  0
  2  1  2  0
  3  2  1  0
  4  3  1  0
  5  3  2  0
  6  5  1  0
  7  6  2  0
  7  1  1  0
  8  6  1  0
  9  7  1  0
 10  9  1  0
 11 10  2  0
 12 11  1  0
 13 12  1  0
 14 13  1  0
 14 10  1  0
 16 15  1  0
 16  1  1  0
  4 17  1  0
  4 18  1  0
  4 19  1  0
  9 20  1  0
 11 21  1  0
 12 22  1  0
 12 23  1  0
 13 24  1  0
 13 25  1  0
 14 26  1  0
 15 27  1  0
 15 28  1  0
 15 29  1  0
M  CHG  1  11   1
M  END
>  <score>  (6) 
-6.726

$$$$
=
     RDKit          3D

 29 30  0  0  0  0  0  0  0  0999 V2000
   -0.6500   67.6180   66.9720 C   0  0  0  0  0  0  0  0  0  0  0  0
   -0.3820   66.9550   68.1110 N   0  0  0  0  0  0  0  0  0  0  0  0
    0.8210   67.1730   68.6650 C   0  0  0  0  0  0  0  0  0  0  0  0
    1.1620   66.4340   69.9220 C   0  0  0  0  0  0  0  0  0  0  0  0
    1.7550   67.9710   68.1280 N   0  0  0  0  0  0  0  0  0  0  0  0
    1.4320   68.5990   66.9800 C   0  0  0  0  0  0  0  0  0  0  0  0
    0.2090   68.5120   66.3430 C   0  0  0  0  0  0  0  0  0  0  0  0
    2.7890   69.4260   66.3190 Cl  0  0  0  0  0  0  0  0  0  0  0  0
   -0.2530   69.1430   65.1350 N   0  0  0  0  0  0  0  0  0  0  0  0
    0.2810   69.0750   63.9100 C   0  0  0  0  0  0  0  0  0  0  0  0
    1.4750   68.5220   63.5670 N   0  0  0  0  0  4  0  0  0  0  0  0
    1.6960   68.6890   62.1280 C   0  0  0  0  0  0  0  0  0  0  0  0
    0.4590   69.4520   61.6360 C   0  0  0  0  0  0  0  0  0  0  0  0
   -0.3540   69.6440   62.8400 N   0  0  0  0  0  0  0  0  0  0  0  0
   -2.9670   67.3340   67.2690 C   0  0  0  0  0  0  0  0  0  0  0  0
   -1.8790   67.4350   66.3470 O   0  0  0  0  0  0  0  0  0  0  0  0
    0.8808   67.0435   70.7934 H   0  0  0  0  0  0  0  0  0  0  0  0
    0.6124   65.4815   69.9480 H   0  0  0  0  0  0  0  0  0  0  0  0
    2.2434   66.2341   69.9480 H   0  0  0  0  0  0  0  0  0  0  0  0
   -1.1017   69.7197   65.2246 H   0  0  0  0  0  0  0  0  0  0  0  0
    2.1239   68.0574   64.2181 H   0  0  0  0  0  0  0  0  0  0  0  0
    2.6113   69.2694   61.9399 H   0  0  0  0  0  0  0  0  0  0  0  0
    1.8279   67.7274   61.6104 H   0  0  0  0  0  0  0  0  0  0  0  0
    0.7466   70.4210   61.2020 H   0  0  0  0  0  0  0  0  0  0  0  0
   -0.0821   68.9090   60.8471 H   0  0  0  0  0  0  0  0  0  0  0  0
   -1.2610   70.1308   62.8752 H   0  0  0  0  0  0  0  0  0  0  0  0
   -2.5801   67.3699   68.2981 H   0  0  0  0  0  0  0  0  0  0  0  0
   -3.6620   68.1715   67.1092 H   0  0  0  0  0  0  0  0  0  0  0  0
   -3.4960   66.3829   67.1092 H   0  0  0  0  0  0  0  0  0  0  0  0
  2  1  2  0
  3  2  1  0
  4  3  1  0
  5  3  2  0
  6  5  1  0
  7  6  2  0
  7  1  1  0
  8  6  1  0
  9  7  1  0
 10  9  1  0
 11 10  2  0
 12 11  1  0
 13 12  1  0
 14 13  1  0
 14 10  1  0
 16 15  1  0
 16  1  1  0
  4 17  1  0
  4 18  1  0
  4 19  1  0
  9 20  1  0
 11 21  1  0
 12 22  1  0
 12 23  1  0
 13 24  1  0
 13 25  1  0
 14 26  1  0
 15 27  1  0
 15 28  1  0
 15 29  1  0
M  CHG  1  11   1
M  END
>  <score>  (7) 
-6.706

$$$$
=
     RDKit          3D

 29 30  0  0  0  0  0  0  0  0999 V2000
    1.7830   63.7060   70.2920 C   0  0  0  0  0  0  0  0  0  0  0  0
    1.5630   62.5000   70.8460 N   0  0  0  0  0  0  0  0  0  0  0  0
    0.6510   62.4460   71.8280 C   0  0  0  0  0  0  0  0  0  0  0  0
    0.3970   61.1230   72.4830 C   0  0  0  0  0  0  0  0  0  0  0  0
   -0.0050   63.5180   72.2960 N   0  0  0  0  0  0  0  0  0  0  0  0
    0.2660   64.7010   71.7090 C   0  0  0  0  0  0  0  0  0  0  0  0
    1.1320   64.8820   70.6480 C   0  0  0  0  0  0  0  0  0  0  0  0
   -0.5020   65.9980   72.5390 Cl  0  0  0  0  0  0  0  0  0  0  0  0
    1.4860   66.0810   69.9360 N   0  0  0  0  0  0  0  0  0  0  0  0
    0.7420   66.7780   69.0700 C   0  0  0  0  0  0  0  0  0  0  0  0
   -0.4600   66.4160   68.5460 N   0  0  0  0  0  4  0  0  0  0  0  0
   -0.9170   67.4490   67.6120 C   0  0  0  0  0  0  0  0  0  0  0  0
    0.2010   68.4990   67.6230 C   0  0  0  0  0  0  0  0  0  0  0  0
    1.1900   67.9690   68.5670 N   0  0  0  0  0  0  0  0  0  0  0  0
    3.4340   62.6180   69.0170 C   0  0  0  0  0  0  0  0  0  0  0  0
    2.7180   63.8290   69.2700 O   0  0  0  0  0  0  0  0  0  0  0  0
    0.4203   61.2445   73.5760 H   0  0  0  0  0  0  0  0  0  0  0  0
   -0.5900   60.7458   72.1770 H   0  0  0  0  0  0  0  0  0  0  0  0
    1.1741   60.4071   72.1770 H   0  0  0  0  0  0  0  0  0  0  0  0
    2.4311   66.4489   70.1157 H   0  0  0  0  0  0  0  0  0  0  0  0
   -0.9701   65.5499   68.7708 H   0  0  0  0  0  0  0  0  0  0  0  0
   -1.0475   67.0306   66.6031 H   0  0  0  0  0  0  0  0  0  0  0  0
   -1.8907   67.8720   67.9001 H   0  0  0  0  0  0  0  0  0  0  0  0
    0.6403   68.6103   66.6207 H   0  0  0  0  0  0  0  0  0  0  0  0
   -0.1629   69.4958   67.9127 H   0  0  0  0  0  0  0  0  0  0  0  0
    2.0818   68.4220   68.8128 H   0  0  0  0  0  0  0  0  0  0  0  0
    3.7111   62.1494   69.9728 H   0  0  0  0  0  0  0  0  0  0  0  0
    2.7978   61.9293   68.4417 H   0  0  0  0  0  0  0  0  0  0  0  0
    4.3441   62.8435   68.4417 H   0  0  0  0  0  0  0  0  0  0  0  0
  2  1  2  0
  3  2  1  0
  4  3  1  0
  5  3  2  0
  6  5  1  0
  7  6  2  0
  7  1  1  0
  8  6  1  0
  9  7  1  0
 10  9  1  0
 11 10  2  0
 12 11  1  0
 13 12  1  0
 14 13  1  0
 14 10  1  0
 16 15  1  0
 16  1  1  0
  4 17  1  0
  4 18  1  0
  4 19  1  0
  9 20  1  0
 11 21  1  0
 12 22  1  0
 12 23  1  0
 13 24  1  0
 13 25  1  0
 14 26  1  0
 15 27  1  0
 15 28  1  0
 15 29  1  0
M  CHG  1  11   1
M  END
>  <score>  (8) 
-6.609

$$$$
=
     RDKit          3D

 29 30  0  0  0  0  0  0  0  0999 V2000
    1.8170   67.1600   65.4510 C   0  0  0  0  0  0  0  0  0  0  0  0
    0.5690   66.8050   65.8080 N   0  0  0  0  0  0  0  0  0  0  0  0
   -0.0090   67.5320   66.7770 C   0  0  0  0  0  0  0  0  0  0  0  0
   -1.3900   67.1510   67.2150 C   0  0  0  0  0  0  0  0  0  0  0  0
    0.6000   68.5430   67.4130 N   0  0  0  0  0  0  0  0  0  0  0  0
    1.8530   68.8430   67.0200 C   0  0  0  0  0  0  0  0  0  0  0  0
    2.5360   68.2180   65.9940 C   0  0  0  0  0  0  0  0  0  0  0  0
    2.5640   70.0230   68.0510 Cl  0  0  0  0  0  0  0  0  0  0  0  0
    3.8570   68.4610   65.4780 N   0  0  0  0  0  0  0  0  0  0  0  0
    4.2140   68.7490   64.2220 C   0  0  0  0  0  0  0  0  0  0  0  0
    3.4210   68.7160   63.1170 N   0  0  0  0  0  4  0  0  0  0  0  0
    4.2140   69.0680   61.9360 C   0  0  0  0  0  0  0  0  0  0  0  0
    5.6290   69.3030   62.4790 C   0  0  0  0  0  0  0  0  0  0  0  0
    5.5100   69.0680   63.9210 N   0  0  0  0  0  0  0  0  0  0  0  0
    2.9370   65.1670   64.8940 C   0  0  0  0  0  0  0  0  0  0  0  0
    2.4710   66.4450   64.4540 O   0  0  0  0  0  0  0  0  0  0  0  0
   -1.4357   67.1384   68.3140 H   0  0  0  0  0  0  0  0  0  0  0  0
   -2.1130   67.8832   66.8263 H   0  0  0  0  0  0  0  0  0  0  0  0
   -1.6353   66.1516   66.8263 H   0  0  0  0  0  0  0  0  0  0  0  0
    4.6246   68.4062   66.1626 H   0  0  0  0  0  0  0  0  0  0  0  0
    2.4184   68.4801   63.1114 H   0  0  0  0  0  0  0  0  0  0  0  0
    4.2096   68.2456   61.2055 H   0  0  0  0  0  0  0  0  0  0  0  0
    3.8154   69.9494   61.4123 H   0  0  0  0  0  0  0  0  0  0  0  0
    6.3415   68.5972   62.0271 H   0  0  0  0  0  0  0  0  0  0  0  0
    6.0046   70.3108   62.2481 H   0  0  0  0  0  0  0  0  0  0  0  0
    6.2810   69.1328   64.6009 H   0  0  0  0  0  0  0  0  0  0  0  0
    2.9472   65.1391   65.9936 H   0  0  0  0  0  0  0  0  0  0  0  0
    2.2674   64.3816   64.5135 H   0  0  0  0  0  0  0  0  0  0  0  0
    3.9550   64.9970   64.5135 H   0  0  0  0  0  0  0  0  0  0  0  0
  2  1  2  0
  3  2  1  0
  4  3  1  0
  5  3  2  0
  6  5  1  0
  7  6  2  0
  7  1  1  0
  8  6  1  0
  9  7  1  0
 10  9  1  0
 11 10  2  0
 12 11  1  0
 13 12  1  0
 14 13  1  0
 14 10  1  0
 16 15  1  0
 16  1  1  0
  4 17  1  0
  4 18  1  0
  4 19  1  0
  9 20  1  0
 11 21  1  0
 12 22  1  0
 12 23  1  0
 13 24  1  0
 13 25  1  0
 14 26  1  0
 15 27  1  0
 15 28  1  0
 15 29  1  0
M  CHG  1  11   1
M  END
>  <score>  (9) 
-6.489

$$$$
