=
     RDKit          3D

 58 61  0  0  0  0  0  0  0  0999 V2000
    2.5940   68.9060   66.9310 N   0  0  0  0  0  0  0  0  0  0  0  0
    3.6280   69.6640   67.5670 C   0  0  0  0  0  0  0  0  0  0  0  0
    3.4550   70.3210   68.7980 C   0  0  0  0  0  0  0  0  0  0  0  0
    4.4960   71.0370   69.4000 C   0  0  0  0  0  0  0  0  0  0  0  0
    5.7360   71.1250   68.7810 C   0  0  0  0  0  0  0  0  0  0  0  0
    5.9380   70.5010   67.5570 C   0  0  0  0  0  0  0  0  0  0  0  0
    4.8980   69.7830   66.9510 C   0  0  0  0  0  0  0  0  0  0  0  0
    5.2570   68.9540   65.4110 S   0  0  0  0  0  0  0  0  0  0  0  0
    3.6230   68.9370   64.6930 C   0  0  0  0  0  0  0  0  0  0  0  0
    2.4650   68.9130   65.5060 C   0  0  0  0  0  0  0  0  0  0  0  0
    1.2250   68.9260   64.8410 C   0  0  0  0  0  0  0  0  0  0  0  0
    1.1240   68.9110   63.4350 C   0  0  0  0  0  0  0  0  0  0  0  0
    2.2900   68.9070   62.6680 C   0  0  0  0  0  0  0  0  0  0  0  0
    3.5330   68.9240   63.2940 C   0  0  0  0  0  0  0  0  0  0  0  0
   -0.2420   68.9380   62.7790 C   0  0  0  0  0  0  0  0  0  0  0  0
   -0.3940   67.8990   61.9100 F   0  0  0  0  0  0  0  0  0  0  0  0
   -0.4710   70.0670   62.0600 F   0  0  0  0  0  0  0  0  0  0  0  0
   -1.2500   68.8310   63.6800 F   0  0  0  0  0  0  0  0  0  0  0  0
    1.3910   68.5620   67.7340 C   0  0  0  0  0  0  0  0  0  0  0  0
    1.4110   67.0900   68.1860 C   0  0  0  0  0  0  0  0  0  0  0  0
    0.6920   66.8630   69.5170 C   0  0  0  0  0  0  0  0  0  0  0  0
    1.3480   62.9400   71.1910 N   0  0  0  0  0  4  0  0  0  0  0  0
    0.2310   63.7600   71.8450 C   0  0  0  0  0  0  0  0  0  0  0  0
    0.2010   65.2390   71.3770 C   0  0  0  0  0  0  0  0  0  0  0  0
    0.8680   65.4330   70.0250 N   0  0  0  0  0  4  0  0  0  0  0  0
    2.3310   64.9860   70.0280 C   0  0  0  0  0  0  0  0  0  0  0  0
    2.5990   63.7670   70.9540 C   0  0  0  0  0  0  0  0  0  0  0  0
    1.6080   61.6730   72.0050 C   0  0  0  0  0  0  0  0  0  0  0  0
    2.9290   61.7160   72.7850 C   0  0  0  0  0  0  0  0  0  0  0  0
    2.6340   62.0690   74.1230 O   0  0  0  0  0  0  0  0  0  0  0  0
    2.4776   70.2710   69.3002 H   0  0  0  0  0  0  0  0  0  0  0  0
    4.3312   71.5325   70.3682 H   0  0  0  0  0  0  0  0  0  0  0  0
    6.5536   71.6858   69.2576 H   0  0  0  0  0  0  0  0  0  0  0  0
    6.9176   70.5705   67.0614 H   0  0  0  0  0  0  0  0  0  0  0  0
    0.3022   68.9487   65.4392 H   0  0  0  0  0  0  0  0  0  0  0  0
    2.2267   68.8904   61.5699 H   0  0  0  0  0  0  0  0  0  0  0  0
    4.4505   68.9273   62.6872 H   0  0  0  0  0  0  0  0  0  0  0  0
    1.3594   69.2079   68.6238 H   0  0  0  0  0  0  0  0  0  0  0  0
    0.5023   68.7157   67.1042 H   0  0  0  0  0  0  0  0  0  0  0  0
    0.9198   66.4796   67.4138 H   0  0  0  0  0  0  0  0  0  0  0  0
    2.4636   66.8040   68.3280 H   0  0  0  0  0  0  0  0  0  0  0  0
    1.1008   67.5585   70.2648 H   0  0  0  0  0  0  0  0  0  0  0  0
   -0.3823   67.0374   69.3573 H   0  0  0  0  0  0  0  0  0  0  0  0
    1.0385   62.6472   70.2532 H   0  0  0  0  0  0  0  0  0  0  0  0
   -0.7346   63.2954   71.5963 H   0  0  0  0  0  0  0  0  0  0  0  0
    0.4218   63.7648   72.9283 H   0  0  0  0  0  0  0  0  0  0  0  0
   -0.8470   65.5651   71.3038 H   0  0  0  0  0  0  0  0  0  0  0  0
    0.7584   65.8353   72.1144 H   0  0  0  0  0  0  0  0  0  0  0  0
    0.3865   64.8152   69.3561 H   0  0  0  0  0  0  0  0  0  0  0  0
    2.6150   64.7134   69.0008 H   0  0  0  0  0  0  0  0  0  0  0  0
    2.9276   65.8258   70.4137 H   0  0  0  0  0  0  0  0  0  0  0  0
    3.3625   63.1281   70.4863 H   0  0  0  0  0  0  0  0  0  0  0  0
    2.9391   64.1508   71.9271 H   0  0  0  0  0  0  0  0  0  0  0  0
    0.7833   61.5421   72.7211 H   0  0  0  0  0  0  0  0  0  0  0  0
    1.6750   60.8360   71.2945 H   0  0  0  0  0  0  0  0  0  0  0  0
    3.4116   60.7279   72.7571 H   0  0  0  0  0  0  0  0  0  0  0  0
    3.6139   62.4512   72.3374 H   0  0  0  0  0  0  0  0  0  0  0  0
    3.1312   61.4740   74.7385 H   0  0  0  0  0  0  0  0  0  0  0  0
  2  1  1  0
  3  2  2  0
  4  3  1  0
  5  4  2  0
  6  5  1  0
  7  2  1  0
  7  6  2  0
  8  7  1  0
  9  8  1  0
 10  9  2  0
 10  1  1  0
 11 10  1  0
 12 11  2  0
 13 12  1  0
 14 13  2  0
 14  9  1  0
 15 12  1  0
 16 15  1  0
 17 15  1  0
 18 15  1  0
 19  1  1  0
 20 19  1  0
 21 20  1  0
 23 22  1  0
 24 23  1  0
 25 24  1  0
 25 21  1  0
 26 25  1  0
 27 26  1  0
 27 22  1  0
 28 22  1  0
 29 28  1  0
 30 29  1  0
  3 31  1  0
  4 32  1  0
  5 33  1  0
  6 34  1  0
 11 35  1  0
 13 36  1  0
 14 37  1  0
 19 38  1  0
 19 39  1  0
 20 40  1  0
 20 41  1  0
 21 42  1  0
 21 43  1  0
 22 44  1  0
 23 45  1  0
 23 46  1  0
 24 47  1  0
 24 48  1  0
 25 49  1  0
 26 50  1  0
 26 51  1  0
 27 52  1  0
 27 53  1  0
 28 54  1  0
 28 55  1  0
 29 56  1  0
 29 57  1  0
 30 58  1  0
M  CHG  2  22   1  25   1
M  END
>  <score>  (1) 
-9.776

$$$$
=
     RDKit          3D

 58 61  0  0  0  0  0  0  0  0999 V2000
    1.4970   62.1350   72.0700 N   0  0  0  0  0  0  0  0  0  0  0  0
    2.3470   61.8290   70.9610 C   0  0  0  0  0  0  0  0  0  0  0  0
    2.5410   62.7010   69.8750 C   0  0  0  0  0  0  0  0  0  0  0  0
    3.3960   62.3760   68.8160 C   0  0  0  0  0  0  0  0  0  0  0  0
    4.0740   61.1650   68.8090 C   0  0  0  0  0  0  0  0  0  0  0  0
    3.8960   60.2720   69.8590 C   0  0  0  0  0  0  0  0  0  0  0  0
    3.0400   60.5940   70.9210 C   0  0  0  0  0  0  0  0  0  0  0  0
    2.9160   59.4230   72.2630 S   0  0  0  0  0  0  0  0  0  0  0  0
    1.2720   59.8070   72.8430 C   0  0  0  0  0  0  0  0  0  0  0  0
    0.7270   61.1050   72.6970 C   0  0  0  0  0  0  0  0  0  0  0  0
   -0.5860   61.2950   73.1640 C   0  0  0  0  0  0  0  0  0  0  0  0
   -1.3170   60.2690   73.7980 C   0  0  0  0  0  0  0  0  0  0  0  0
   -0.7330   59.0100   73.9480 C   0  0  0  0  0  0  0  0  0  0  0  0
    0.5530   58.7790   73.4690 C   0  0  0  0  0  0  0  0  0  0  0  0
   -2.7320   60.5350   74.2700 C   0  0  0  0  0  0  0  0  0  0  0  0
   -3.4230   61.2830   73.3650 F   0  0  0  0  0  0  0  0  0  0  0  0
   -2.7890   61.2160   75.4430 F   0  0  0  0  0  0  0  0  0  0  0  0
   -3.4430   59.3920   74.4410 F   0  0  0  0  0  0  0  0  0  0  0  0
    1.0290   63.5380   72.2200 C   0  0  0  0  0  0  0  0  0  0  0  0
    0.3600   64.0550   70.9330 C   0  0  0  0  0  0  0  0  0  0  0  0
    0.3110   65.5820   70.8570 C   0  0  0  0  0  0  0  0  0  0  0  0
    0.3400   67.2690   66.8850 N   0  0  0  0  0  4  0  0  0  0  0  0
    1.4990   67.6940   67.7920 C   0  0  0  0  0  0  0  0  0  0  0  0
    1.3110   67.2630   69.2700 C   0  0  0  0  0  0  0  0  0  0  0  0
    0.3630   66.0840   69.4140 N   0  0  0  0  0  4  0  0  0  0  0  0
   -1.0260   66.3820   68.8460 C   0  0  0  0  0  0  0  0  0  0  0  0
   -0.9950   67.3160   67.6050 C   0  0  0  0  0  0  0  0  0  0  0  0
    0.3600   68.0920   65.5960 C   0  0  0  0  0  0  0  0  0  0  0  0
   -0.9510   68.8490   65.3430 C   0  0  0  0  0  0  0  0  0  0  0  0
   -1.1740   68.8760   63.9450 O   0  0  0  0  0  0  0  0  0  0  0  0
    2.0073   63.6627   69.8575 H   0  0  0  0  0  0  0  0  0  0  0  0
    3.5314   63.0838   67.9850 H   0  0  0  0  0  0  0  0  0  0  0  0
    4.7484   60.9134   67.9772 H   0  0  0  0  0  0  0  0  0  0  0  0
    4.4286   59.3095   69.8565 H   0  0  0  0  0  0  0  0  0  0  0  0
   -1.0596   62.2788   73.0300 H   0  0  0  0  0  0  0  0  0  0  0  0
   -1.2890   58.2010   74.4445 H   0  0  0  0  0  0  0  0  0  0  0  0
    1.0081   57.7840   73.5822 H   0  0  0  0  0  0  0  0  0  0  0  0
    0.3016   63.5852   73.0438 H   0  0  0  0  0  0  0  0  0  0  0  0
    1.9037   64.1710   72.4303 H   0  0  0  0  0  0  0  0  0  0  0  0
    0.9262   63.6789   70.0682 H   0  0  0  0  0  0  0  0  0  0  0  0
   -0.6784   63.6920   70.9331 H   0  0  0  0  0  0  0  0  0  0  0  0
   -0.6231   65.9312   71.3213 H   0  0  0  0  0  0  0  0  0  0  0  0
    1.1900   65.9776   71.3869 H   0  0  0  0  0  0  0  0  0  0  0  0
    0.4684   66.2810   66.6238 H   0  0  0  0  0  0  0  0  0  0  0  0
    2.4254   67.2395   67.4109 H   0  0  0  0  0  0  0  0  0  0  0  0
    1.5394   68.7931   67.7757 H   0  0  0  0  0  0  0  0  0  0  0  0
    2.2907   66.9809   69.6830 H   0  0  0  0  0  0  0  0  0  0  0  0
    0.8737   68.1132   69.8140 H   0  0  0  0  0  0  0  0  0  0  0  0
    0.7433   65.3161   68.8425 H   0  0  0  0  0  0  0  0  0  0  0  0
   -1.4958   65.4308   68.5554 H   0  0  0  0  0  0  0  0  0  0  0  0
   -1.5943   66.9022   69.6311 H   0  0  0  0  0  0  0  0  0  0  0  0
   -1.7853   67.0034   66.9066 H   0  0  0  0  0  0  0  0  0  0  0  0
   -1.1540   68.3469   67.9543 H   0  0  0  0  0  0  0  0  0  0  0  0
    1.1793   68.8231   65.6604 H   0  0  0  0  0  0  0  0  0  0  0  0
    0.4988   67.3894   64.7611 H   0  0  0  0  0  0  0  0  0  0  0  0
   -1.7833   68.3334   65.8445 H   0  0  0  0  0  0  0  0  0  0  0  0
   -0.8859   69.8724   65.7409 H   0  0  0  0  0  0  0  0  0  0  0  0
   -2.1409   68.9931   63.7673 H   0  0  0  0  0  0  0  0  0  0  0  0
  2  1  1  0
  3  2  2  0
  4  3  1  0
  5  4  2  0
  6  5  1  0
  7  2  1  0
  7  6  2  0
  8  7  1  0
  9  8  1  0
 10  9  2  0
 10  1  1  0
 11 10  1  0
 12 11  2  0
 13 12  1  0
 14 13  2  0
 14  9  1  0
 15 12  1  0
 16 15  1  0
 17 15  1  0
 18 15  1  0
 19  1  1  0
 20 19  1  0
 21 20  1  0
 23 22  1  0
 24 23  1  0
 25 24  1  0
 25 21  1  0
 26 25  1  0
 27 26  1  0
 27 22  1  0
 28 22  1  0
 29 28  1  0
 30 29  1  0
  3 31  1  0
  4 32  1  0
  5 33  1  0
  6 34  1  0
 11 35  1  0
 13 36  1  0
 14 37  1  0
 19 38  1  0
 19 39  1  0
 20 40  1  0
 20 41  1  0
 21 42  1  0
 21 43  1  0
 22 44  1  0
 23 45  1  0
 23 46  1  0
 24 47  1  0
 24 48  1  0
 25 49  1  0
 26 50  1  0
 26 51  1  0
 27 52  1  0
 27 53  1  0
 28 54  1  0
 28 55  1  0
 29 56  1  0
 29 57  1  0
 30 58  1  0
M  CHG  2  22   1  25   1
M  END
>  <score>  (2) 
-8.498

$$$$
=
     RDKit          3D

 58 61  0  0  0  0  0  0  0  0999 V2000
    0.7840   63.2100   72.6110 N   0  0  0  0  0  0  0  0  0  0  0  0
    0.1030   63.2430   73.8690 C   0  0  0  0  0  0  0  0  0  0  0  0
   -0.0560   64.4160   74.6280 C   0  0  0  0  0  0  0  0  0  0  0  0
   -0.7470   64.4150   75.8450 C   0  0  0  0  0  0  0  0  0  0  0  0
   -1.2890   63.2380   76.3420 C   0  0  0  0  0  0  0  0  0  0  0  0
   -1.1390   62.0560   75.6260 C   0  0  0  0  0  0  0  0  0  0  0  0
   -0.4480   62.0540   74.4060 C   0  0  0  0  0  0  0  0  0  0  0  0
   -0.3550   60.5100   73.5150 S   0  0  0  0  0  0  0  0  0  0  0  0
    1.1620   60.7750   72.6140 C   0  0  0  0  0  0  0  0  0  0  0  0
    1.5820   62.0780   72.2510 C   0  0  0  0  0  0  0  0  0  0  0  0
    2.8050   62.1800   71.5650 C   0  0  0  0  0  0  0  0  0  0  0  0
    3.5630   61.0460   71.2020 C   0  0  0  0  0  0  0  0  0  0  0  0
    3.1010   59.7770   71.5550 C   0  0  0  0  0  0  0  0  0  0  0  0
    1.9090   59.6420   72.2600 C   0  0  0  0  0  0  0  0  0  0  0  0
    4.8800   61.2240   70.4730 C   0  0  0  0  0  0  0  0  0  0  0  0
    5.1890   62.5430   70.3260 F   0  0  0  0  0  0  0  0  0  0  0  0
    4.8770   60.6960   69.2220 F   0  0  0  0  0  0  0  0  0  0  0  0
    5.9180   60.6600   71.1390 F   0  0  0  0  0  0  0  0  0  0  0  0
    1.0830   64.5060   71.9480 C   0  0  0  0  0  0  0  0  0  0  0  0
    0.2930   64.6700   70.6360 C   0  0  0  0  0  0  0  0  0  0  0  0
   -0.0150   66.1300   70.3020 C   0  0  0  0  0  0  0  0  0  0  0  0
    0.2970   67.2310   66.1410 N   0  0  0  0  0  4  0  0  0  0  0  0
    1.4590   67.6800   67.0330 C   0  0  0  0  0  0  0  0  0  0  0  0
    1.1850   67.4800   68.5470 C   0  0  0  0  0  0  0  0  0  0  0  0
    0.1290   66.4170   68.8080 N   0  0  0  0  0  4  0  0  0  0  0  0
   -1.2080   66.7490   68.1420 C   0  0  0  0  0  0  0  0  0  0  0  0
   -1.0520   67.4920   66.7870 C   0  0  0  0  0  0  0  0  0  0  0  0
    0.4340   67.8590   64.7540 C   0  0  0  0  0  0  0  0  0  0  0  0
   -0.5210   69.0390   64.5290 C   0  0  0  0  0  0  0  0  0  0  0  0
   -1.3940   68.6960   63.4690 O   0  0  0  0  0  0  0  0  0  0  0  0
    0.3735   65.3579   74.2559 H   0  0  0  0  0  0  0  0  0  0  0  0
   -0.8611   65.3517   76.4104 H   0  0  0  0  0  0  0  0  0  0  0  0
   -1.8343   63.2405   77.2973 H   0  0  0  0  0  0  0  0  0  0  0  0
   -1.5635   61.1198   76.0176 H   0  0  0  0  0  0  0  0  0  0  0  0
    3.1844   63.1784   71.3020 H   0  0  0  0  0  0  0  0  0  0  0  0
    3.6792   58.8838   71.2759 H   0  0  0  0  0  0  0  0  0  0  0  0
    1.5505   58.6408   72.5413 H   0  0  0  0  0  0  0  0  0  0  0  0
    0.8148   65.3259   72.6305 H   0  0  0  0  0  0  0  0  0  0  0  0
    2.1561   64.5287   71.7074 H   0  0  0  0  0  0  0  0  0  0  0  0
    0.8848   64.2399   69.8145 H   0  0  0  0  0  0  0  0  0  0  0  0
   -0.6689   64.1521   70.7644 H   0  0  0  0  0  0  0  0  0  0  0  0
   -1.0471   66.3547   70.6091 H   0  0  0  0  0  0  0  0  0  0  0  0
    0.7064   66.7618   70.8409 H   0  0  0  0  0  0  0  0  0  0  0  0
    0.3442   66.2088   66.0239 H   0  0  0  0  0  0  0  0  0  0  0  0
    2.3526   67.0993   66.7605 H   0  0  0  0  0  0  0  0  0  0  0  0
    1.5982   68.7585   66.8674 H   0  0  0  0  0  0  0  0  0  0  0  0
    2.1211   67.1767   69.0387 H   0  0  0  0  0  0  0  0  0  0  0  0
    0.8097   68.4325   68.9493 H   0  0  0  0  0  0  0  0  0  0  0  0
    0.4562   65.5467   68.3648 H   0  0  0  0  0  0  0  0  0  0  0  0
   -1.7523   65.8097   67.9644 H   0  0  0  0  0  0  0  0  0  0  0  0
   -1.7522   67.4215   68.8214 H   0  0  0  0  0  0  0  0  0  0  0  0
   -1.8438   67.1518   66.1034 H   0  0  0  0  0  0  0  0  0  0  0  0
   -1.1288   68.5716   66.9834 H   0  0  0  0  0  0  0  0  0  0  0  0
    1.4670   68.2169   64.6325 H   0  0  0  0  0  0  0  0  0  0  0  0
    0.1765   67.0842   64.0169 H   0  0  0  0  0  0  0  0  0  0  0  0
   -1.1010   69.2301   65.4439 H   0  0  0  0  0  0  0  0  0  0  0  0
    0.0455   69.9484   64.2799 H   0  0  0  0  0  0  0  0  0  0  0  0
   -2.2481   68.3604   63.8404 H   0  0  0  0  0  0  0  0  0  0  0  0
  2  1  1  0
  3  2  2  0
  4  3  1  0
  5  4  2  0
  6  5  1  0
  7  2  1  0
  7  6  2  0
  8  7  1  0
  9  8  1  0
 10  9  2  0
 10  1  1  0
 11 10  1  0
 12 11  2  0
 13 12  1  0
 14 13  2  0
 14  9  1  0
 15 12  1  0
 16 15  1  0
 17 15  1  0
 18 15  1  0
 19  1  1  0
 20 19  1  0
 21 20  1  0
 23 22  1  0
 24 23  1  0
 25 24  1  0
 25 21  1  0
 26 25  1  0
 27 26  1  0
 27 22  1  0
 28 22  1  0
 29 28  1  0
 30 29  1  0
  3 31  1  0
  4 32  1  0
  5 33  1  0
  6 34  1  0
 11 35  1  0
 13 36  1  0
 14 37  1  0
 19 38  1  0
 19 39  1  0
 20 40  1  0
 20 41  1  0
 21 42  1  0
 21 43  1  0
 22 44  1  0
 23 45  1  0
 23 46  1  0
 24 47  1  0
 24 48  1  0
 25 49  1  0
 26 50  1  0
 26 51  1  0
 27 52  1  0
 27 53  1  0
 28 54  1  0
 28 55  1  0
 29 56  1  0
 29 57  1  0
 30 58  1  0
M  CHG  2  22   1  25   1
M  END
>  <score>  (3) 
-8.441

$$$$
=
     RDKit          3D

 58 61  0  0  0  0  0  0  0  0999 V2000
    1.4140   60.0900   72.8970 N   0  0  0  0  0  0  0  0  0  0  0  0
    1.6490   59.0670   73.8690 C   0  0  0  0  0  0  0  0  0  0  0  0
    1.3850   59.2320   75.2400 C   0  0  0  0  0  0  0  0  0  0  0  0
    1.6080   58.2020   76.1610 C   0  0  0  0  0  0  0  0  0  0  0  0
    2.1120   56.9800   75.7360 C   0  0  0  0  0  0  0  0  0  0  0  0
    2.3980   56.7850   74.3900 C   0  0  0  0  0  0  0  0  0  0  0  0
    2.1760   57.8160   73.4660 C   0  0  0  0  0  0  0  0  0  0  0  0
    2.5070   57.4650   71.7470 S   0  0  0  0  0  0  0  0  0  0  0  0
    2.8780   59.1130   71.1720 C   0  0  0  0  0  0  0  0  0  0  0  0
    2.3050   60.2520   71.7890 C   0  0  0  0  0  0  0  0  0  0  0  0
    2.6830   61.5060   71.2760 C   0  0  0  0  0  0  0  0  0  0  0  0
    3.5460   61.6380   70.1680 C   0  0  0  0  0  0  0  0  0  0  0  0
    4.0680   60.4900   69.5700 C   0  0  0  0  0  0  0  0  0  0  0  0
    3.7390   59.2340   70.0720 C   0  0  0  0  0  0  0  0  0  0  0  0
    3.9230   63.0190   69.6700 C   0  0  0  0  0  0  0  0  0  0  0  0
    5.1240   63.4160   70.1770 F   0  0  0  0  0  0  0  0  0  0  0  0
    3.0300   63.9800   70.0200 F   0  0  0  0  0  0  0  0  0  0  0  0
    4.0460   63.0650   68.3200 F   0  0  0  0  0  0  0  0  0  0  0  0
    0.5970   61.2620   73.3050 C   0  0  0  0  0  0  0  0  0  0  0  0
   -0.8910   61.0680   72.9580 C   0  0  0  0  0  0  0  0  0  0  0  0
   -1.7620   60.8050   74.1870 C   0  0  0  0  0  0  0  0  0  0  0  0
   -3.1300   64.3160   76.2910 N   0  0  0  0  0  4  0  0  0  0  0  0
   -1.6440   63.9840   76.4550 C   0  0  0  0  0  0  0  0  0  0  0  0
   -1.2590   62.5910   75.8900 C   0  0  0  0  0  0  0  0  0  0  0  0
   -2.2410   62.1030   74.8370 N   0  0  0  0  0  4  0  0  0  0  0  0
   -3.6690   61.9970   75.3760 C   0  0  0  0  0  0  0  0  0  0  0  0
   -4.0080   63.0860   76.4310 C   0  0  0  0  0  0  0  0  0  0  0  0
   -3.5190   65.4470   77.2430 C   0  0  0  0  0  0  0  0  0  0  0  0
   -4.0420   66.6940   76.5180 C   0  0  0  0  0  0  0  0  0  0  0  0
   -3.2930   66.8510   75.3270 O   0  0  0  0  0  0  0  0  0  0  0  0
    0.9931   60.1954   75.5981 H   0  0  0  0  0  0  0  0  0  0  0  0
    1.3831   58.3612   77.2259 H   0  0  0  0  0  0  0  0  0  0  0  0
    2.2840   56.1706   76.4608 H   0  0  0  0  0  0  0  0  0  0  0  0
    2.7995   55.8194   74.0487 H   0  0  0  0  0  0  0  0  0  0  0  0
    2.2920   62.4155   71.7556 H   0  0  0  0  0  0  0  0  0  0  0  0
    4.7389   60.5777   68.7027 H   0  0  0  0  0  0  0  0  0  0  0  0
    4.1570   58.3311   69.6029 H   0  0  0  0  0  0  0  0  0  0  0  0
    0.6941   61.4033   74.3916 H   0  0  0  0  0  0  0  0  0  0  0  0
    0.9644   62.1430   72.7584 H   0  0  0  0  0  0  0  0  0  0  0  0
   -1.2557   61.9774   72.4580 H   0  0  0  0  0  0  0  0  0  0  0  0
   -0.9645   60.1840   72.3075 H   0  0  0  0  0  0  0  0  0  0  0  0
   -2.6393   60.2160   73.8812 H   0  0  0  0  0  0  0  0  0  0  0  0
   -1.1543   60.2597   74.9241 H   0  0  0  0  0  0  0  0  0  0  0  0
   -3.2905   64.6517   75.3306 H   0  0  0  0  0  0  0  0  0  0  0  0
   -1.0553   64.7492   75.9278 H   0  0  0  0  0  0  0  0  0  0  0  0
   -1.4316   63.9673   77.5342 H   0  0  0  0  0  0  0  0  0  0  0  0
   -0.2588   62.6573   75.4370 H   0  0  0  0  0  0  0  0  0  0  0  0
   -1.2762   61.8737   76.7237 H   0  0  0  0  0  0  0  0  0  0  0  0
   -2.2720   62.8175   74.0958 H   0  0  0  0  0  0  0  0  0  0  0  0
   -4.3689   62.0969   74.5333 H   0  0  0  0  0  0  0  0  0  0  0  0
   -3.7584   61.0204   75.8743 H   0  0  0  0  0  0  0  0  0  0  0  0
   -5.0590   63.3853   76.3054 H   0  0  0  0  0  0  0  0  0  0  0  0
   -3.8293   62.6564   77.4278 H   0  0  0  0  0  0  0  0  0  0  0  0
   -4.3053   65.0801   77.9191 H   0  0  0  0  0  0  0  0  0  0  0  0
   -2.6104   65.7426   77.7881 H   0  0  0  0  0  0  0  0  0  0  0  0
   -5.1073   66.5661   76.2755 H   0  0  0  0  0  0  0  0  0  0  0  0
   -3.9351   67.5823   77.1578 H   0  0  0  0  0  0  0  0  0  0  0  0
   -2.3499   67.0487   75.5539 H   0  0  0  0  0  0  0  0  0  0  0  0
  2  1  1  0
  3  2  2  0
  4  3  1  0
  5  4  2  0
  6  5  1  0
  7  2  1  0
  7  6  2  0
  8  7  1  0
  9  8  1  0
 10  9  2  0
 10  1  1  0
 11 10  1  0
 12 11  2  0
 13 12  1  0
 14 13  2  0
 14  9  1  0
 15 12  1  0
 16 15  1  0
 17 15  1  0
 18 15  1  0
 19  1  1  0
 20 19  1  0
 21 20  1  0
 23 22  1  0
 24 23  1  0
 25 24  1  0
 25 21  1  0
 26 25  1  0
 27 26  1  0
 27 22  1  0
 28 22  1  0
 29 28  1  0
 30 29  1  0
  3 31  1  0
  4 32  1  0
  5 33  1  0
  6 34  1  0
 11 35  1  0
 13 36  1  0
 14 37  1  0
 19 38  1  0
 19 39  1  0
 20 40  1  0
 20 41  1  0
 21 42  1  0
 21 43  1  0
 22 44  1  0
 23 45  1  0
 23 46  1  0
 24 47  1  0
 24 48  1  0
 25 49  1  0
 26 50  1  0
 26 51  1  0
 27 52  1  0
 27 53  1  0
 28 54  1  0
 28 55  1  0
 29 56  1  0
 29 57  1  0
 30 58  1  0
M  CHG  2  22   1  25   1
M  END
>  <score>  (4) 
-7.85

$$$$
=
     RDKit          3D

 58 61  0  0  0  0  0  0  0  0999 V2000
    1.0590   61.3500   73.0580 N   0  0  0  0  0  0  0  0  0  0  0  0
    2.0560   60.5690   73.7240 C   0  0  0  0  0  0  0  0  0  0  0  0
    2.0230   60.2910   75.1010 C   0  0  0  0  0  0  0  0  0  0  0  0
    3.0060   59.5060   75.7160 C   0  0  0  0  0  0  0  0  0  0  0  0
    4.0550   58.9860   74.9710 C   0  0  0  0  0  0  0  0  0  0  0  0
    4.1280   59.2520   73.6090 C   0  0  0  0  0  0  0  0  0  0  0  0
    3.1460   60.0380   72.9910 C   0  0  0  0  0  0  0  0  0  0  0  0
    3.2750   60.2800   71.2270 S   0  0  0  0  0  0  0  0  0  0  0  0
    2.4380   61.8500   71.0780 C   0  0  0  0  0  0  0  0  0  0  0  0
    1.4250   62.2300   71.9900 C   0  0  0  0  0  0  0  0  0  0  0  0
    0.8470   63.4980   71.8000 C   0  0  0  0  0  0  0  0  0  0  0  0
    1.2090   64.3390   70.7270 C   0  0  0  0  0  0  0  0  0  0  0  0
    2.1930   63.9150   69.8320 C   0  0  0  0  0  0  0  0  0  0  0  0
    2.8070   62.6790   70.0090 C   0  0  0  0  0  0  0  0  0  0  0  0
    0.5560   65.6990   70.5840 C   0  0  0  0  0  0  0  0  0  0  0  0
   -0.1030   66.0540   71.7230 F   0  0  0  0  0  0  0  0  0  0  0  0
   -0.3630   65.7520   69.5850 F   0  0  0  0  0  0  0  0  0  0  0  0
    1.4590   66.6820   70.3440 F   0  0  0  0  0  0  0  0  0  0  0  0
   -0.2030   61.6350   73.7890 C   0  0  0  0  0  0  0  0  0  0  0  0
   -1.2460   60.5220   73.5780 C   0  0  0  0  0  0  0  0  0  0  0  0
   -1.5620   59.7480   74.8580 C   0  0  0  0  0  0  0  0  0  0  0  0
    0.0650   55.7560   74.6580 N   0  0  0  0  0  4  0  0  0  0  0  0
    0.5200   56.7120   73.5500 C   0  0  0  0  0  0  0  0  0  0  0  0
   -0.2760   58.0430   73.5230 C   0  0  0  0  0  0  0  0  0  0  0  0
   -0.9140   58.3640   74.8650 N   0  0  0  0  0  4  0  0  0  0  0  0
   -1.8750   57.2680   75.3290 C   0  0  0  0  0  0  0  0  0  0  0  0
   -1.4300   55.8410   74.9060 C   0  0  0  0  0  0  0  0  0  0  0  0
    0.5460   54.3380   74.3500 C   0  0  0  0  0  0  0  0  0  0  0  0
    2.0590   54.1600   74.5350 C   0  0  0  0  0  0  0  0  0  0  0  0
    2.6400   54.0130   73.2530 O   0  0  0  0  0  0  0  0  0  0  0  0
    1.2044   60.7003   75.7112 H   0  0  0  0  0  0  0  0  0  0  0  0
    2.9464   59.3005   76.7950 H   0  0  0  0  0  0  0  0  0  0  0  0
    4.8242   58.3669   75.4558 H   0  0  0  0  0  0  0  0  0  0  0  0
    4.9588   58.8445   73.0143 H   0  0  0  0  0  0  0  0  0  0  0  0
    0.0856   63.8462   72.5135 H   0  0  0  0  0  0  0  0  0  0  0  0
    2.4827   64.5576   68.9875 H   0  0  0  0  0  0  0  0  0  0  0  0
    3.5866   62.3502   69.3061 H   0  0  0  0  0  0  0  0  0  0  0  0
    0.0180   61.7177   74.8634 H   0  0  0  0  0  0  0  0  0  0  0  0
   -0.6206   62.5752   73.3995 H   0  0  0  0  0  0  0  0  0  0  0  0
   -2.1752   60.9785   73.2061 H   0  0  0  0  0  0  0  0  0  0  0  0
   -0.8224   59.8068   72.8575 H   0  0  0  0  0  0  0  0  0  0  0  0
   -1.1879   60.3196   75.7202 H   0  0  0  0  0  0  0  0  0  0  0  0
   -2.6523   59.6129   74.9129 H   0  0  0  0  0  0  0  0  0  0  0  0
    0.5005   56.0449   75.5456 H   0  0  0  0  0  0  0  0  0  0  0  0
    1.5840   56.9445   73.7046 H   0  0  0  0  0  0  0  0  0  0  0  0
    0.3416   56.2061   72.5896 H   0  0  0  0  0  0  0  0  0  0  0  0
    0.4101   58.8595   73.2537 H   0  0  0  0  0  0  0  0  0  0  0  0
   -1.0842   57.9356   72.7846 H   0  0  0  0  0  0  0  0  0  0  0  0
   -0.1575   58.3903   75.5635 H   0  0  0  0  0  0  0  0  0  0  0  0
   -1.9401   57.3024   76.4265 H   0  0  0  0  0  0  0  0  0  0  0  0
   -2.8460   57.4619   74.8499 H   0  0  0  0  0  0  0  0  0  0  0  0
   -1.6969   55.1350   75.7062 H   0  0  0  0  0  0  0  0  0  0  0  0
   -1.9428   55.5926   73.9651 H   0  0  0  0  0  0  0  0  0  0  0  0
    0.0268   53.6389   75.0221 H   0  0  0  0  0  0  0  0  0  0  0  0
    0.3200   54.1384   73.2921 H   0  0  0  0  0  0  0  0  0  0  0  0
    2.4805   55.0432   75.0372 H   0  0  0  0  0  0  0  0  0  0  0  0
    2.2677   53.2749   75.1539 H   0  0  0  0  0  0  0  0  0  0  0  0
    3.5952   53.7713   73.3493 H   0  0  0  0  0  0  0  0  0  0  0  0
  2  1  1  0
  3  2  2  0
  4  3  1  0
  5  4  2  0
  6  5  1  0
  7  2  1  0
  7  6  2  0
  8  7  1  0
  9  8  1  0
 10  9  2  0
 10  1  1  0
 11 10  1  0
 12 11  2  0
 13 12  1  0
 14 13  2  0
 14  9  1  0
 15 12  1  0
 16 15  1  0
 17 15  1  0
 18 15  1  0
 19  1  1  0
 20 19  1  0
 21 20  1  0
 23 22  1  0
 24 23  1  0
 25 24  1  0
 25 21  1  0
 26 25  1  0
 27 26  1  0
 27 22  1  0
 28 22  1  0
 29 28  1  0
 30 29  1  0
  3 31  1  0
  4 32  1  0
  5 33  1  0
  6 34  1  0
 11 35  1  0
 13 36  1  0
 14 37  1  0
 19 38  1  0
 19 39  1  0
 20 40  1  0
 20 41  1  0
 21 42  1  0
 21 43  1  0
 22 44  1  0
 23 45  1  0
 23 46  1  0
 24 47  1  0
 24 48  1  0
 25 49  1  0
 26 50  1  0
 26 51  1  0
 27 52  1  0
 27 53  1  0
 28 54  1  0
 28 55  1  0
 29 56  1  0
 29 57  1  0
 30 58  1  0
M  CHG  2  22   1  25   1
M  END
>  <score>  (5) 
-7.813

$$$$
=
     RDKit          3D

 58 61  0  0  0  0  0  0  0  0999 V2000
    1.3460   60.2760   72.9570 N   0  0  0  0  0  0  0  0  0  0  0  0
    1.5150   59.2570   73.9470 C   0  0  0  0  0  0  0  0  0  0  0  0
    1.2070   59.4440   75.3060 C   0  0  0  0  0  0  0  0  0  0  0  0
    1.3670   58.4170   76.2440 C   0  0  0  0  0  0  0  0  0  0  0  0
    1.8490   57.1770   75.8500 C   0  0  0  0  0  0  0  0  0  0  0  0
    2.1770   56.9590   74.5170 C   0  0  0  0  0  0  0  0  0  0  0  0
    2.0180   57.9860   73.5760 C   0  0  0  0  0  0  0  0  0  0  0  0
    2.4000   57.6080   71.8730 S   0  0  0  0  0  0  0  0  0  0  0  0
    2.8400   59.2380   71.2960 C   0  0  0  0  0  0  0  0  0  0  0  0
    2.2810   60.3990   71.8810 C   0  0  0  0  0  0  0  0  0  0  0  0
    2.7140   61.6360   71.3690 C   0  0  0  0  0  0  0  0  0  0  0  0
    3.6190   61.7310   70.2920 C   0  0  0  0  0  0  0  0  0  0  0  0
    4.1280   60.5620   69.7250 C   0  0  0  0  0  0  0  0  0  0  0  0
    3.7430   59.3210   70.2260 C   0  0  0  0  0  0  0  0  0  0  0  0
    4.0550   63.0950   69.7950 C   0  0  0  0  0  0  0  0  0  0  0  0
    5.2930   63.4200   70.2640 F   0  0  0  0  0  0  0  0  0  0  0  0
    3.2290   64.0990   70.1840 F   0  0  0  0  0  0  0  0  0  0  0  0
    4.1350   63.1490   68.4420 F   0  0  0  0  0  0  0  0  0  0  0  0
    0.5500   61.4760   73.3250 C   0  0  0  0  0  0  0  0  0  0  0  0
   -0.9490   61.2740   73.0400 C   0  0  0  0  0  0  0  0  0  0  0  0
   -1.8230   61.4520   74.2820 C   0  0  0  0  0  0  0  0  0  0  0  0
   -5.2000   58.7830   74.6000 N   0  0  0  0  0  4  0  0  0  0  0  0
   -5.5320   60.2780   74.6360 C   0  0  0  0  0  0  0  0  0  0  0  0
   -4.2800   61.1830   74.7680 C   0  0  0  0  0  0  0  0  0  0  0  0
   -3.0140   60.4930   74.2850 N   0  0  0  0  0  4  0  0  0  0  0  0
   -2.7260   59.2020   75.0530 C   0  0  0  0  0  0  0  0  0  0  0  0
   -4.0110   58.4410   75.4800 C   0  0  0  0  0  0  0  0  0  0  0  0
   -6.4480   57.9630   74.9270 C   0  0  0  0  0  0  0  0  0  0  0  0
   -6.7790   57.9380   76.4250 C   0  0  0  0  0  0  0  0  0  0  0  0
   -6.7270   56.5920   76.8600 O   0  0  0  0  0  0  0  0  0  0  0  0
    0.8308   60.4220   75.6408 H   0  0  0  0  0  0  0  0  0  0  0  0
    1.1093   58.5941   77.2986 H   0  0  0  0  0  0  0  0  0  0  0  0
    1.9709   56.3709   76.5885 H   0  0  0  0  0  0  0  0  0  0  0  0
    2.5621   55.9787   74.1998 H   0  0  0  0  0  0  0  0  0  0  0  0
    2.3330   62.5616   71.8251 H   0  0  0  0  0  0  0  0  0  0  0  0
    4.8330   60.6207   68.8827 H   0  0  0  0  0  0  0  0  0  0  0  0
    4.1492   58.4011   69.7802 H   0  0  0  0  0  0  0  0  0  0  0  0
    0.6849   61.6780   74.3979 H   0  0  0  0  0  0  0  0  0  0  0  0
    0.9037   62.3218   72.7172 H   0  0  0  0  0  0  0  0  0  0  0  0
   -1.2635   62.0067   72.2822 H   0  0  0  0  0  0  0  0  0  0  0  0
   -1.0808   60.2393   72.6906 H   0  0  0  0  0  0  0  0  0  0  0  0
   -1.2119   61.2624   75.1767 H   0  0  0  0  0  0  0  0  0  0  0  0
   -2.2140   62.4802   74.2785 H   0  0  0  0  0  0  0  0  0  0  0  0
   -4.9077   58.5325   73.6447 H   0  0  0  0  0  0  0  0  0  0  0  0
   -6.0563   60.5414   73.7055 H   0  0  0  0  0  0  0  0  0  0  0  0
   -6.1539   60.4515   75.5266 H   0  0  0  0  0  0  0  0  0  0  0  0
   -4.4368   62.0928   74.1700 H   0  0  0  0  0  0  0  0  0  0  0  0
   -4.1476   61.4199   75.8340 H   0  0  0  0  0  0  0  0  0  0  0  0
   -3.1748   60.2099   73.3078 H   0  0  0  0  0  0  0  0  0  0  0  0
   -2.1256   58.5405   74.4111 H   0  0  0  0  0  0  0  0  0  0  0  0
   -2.1928   59.4826   75.9733 H   0  0  0  0  0  0  0  0  0  0  0  0
   -3.8207   57.3596   75.4136 H   0  0  0  0  0  0  0  0  0  0  0  0
   -4.2553   58.7424   76.5093 H   0  0  0  0  0  0  0  0  0  0  0  0
   -7.3027   58.3967   74.3872 H   0  0  0  0  0  0  0  0  0  0  0  0
   -6.2480   56.9261   74.6189 H   0  0  0  0  0  0  0  0  0  0  0  0
   -6.0437   58.5388   76.9802 H   0  0  0  0  0  0  0  0  0  0  0  0
   -7.7791   58.3598   76.6034 H   0  0  0  0  0  0  0  0  0  0  0  0
   -6.7260   56.5648   77.8496 H   0  0  0  0  0  0  0  0  0  0  0  0
  2  1  1  0
  3  2  2  0
  4  3  1  0
  5  4  2  0
  6  5  1  0
  7  2  1  0
  7  6  2  0
  8  7  1  0
  9  8  1  0
 10  9  2  0
 10  1  1  0
 11 10  1  0
 12 11  2  0
 13 12  1  0
 14 13  2  0
 14  9  1  0
 15 12  1  0
 16 15  1  0
 17 15  1  0
 18 15  1  0
 19  1  1  0
 20 19  1  0
 21 20  1  0
 23 22  1  0
 24 23  1  0
 25 24  1  0
 25 21  1  0
 26 25  1  0
 27 26  1  0
 27 22  1  0
 28 22  1  0
 29 28  1  0
 30 29  1  0
  3 31  1  0
  4 32  1  0
  5 33  1  0
  6 34  1  0
 11 35  1  0
 13 36  1  0
 14 37  1  0
 19 38  1  0
 19 39  1  0
 20 40  1  0
 20 41  1  0
 21 42  1  0
 21 43  1  0
 22 44  1  0
 23 45  1  0
 23 46  1  0
 24 47  1  0
 24 48  1  0
 25 49  1  0
 26 50  1  0
 26 51  1  0
 27 52  1  0
 27 53  1  0
 28 54  1  0
 28 55  1  0
 29 56  1  0
 29 57  1  0
 30 58  1  0
M  CHG  2  22   1  25   1
M  END
>  <score>  (6) 
-7.548

$$$$
=
     RDKit          3D

 58 61  0  0  0  0  0  0  0  0999 V2000
    0.7010   61.7990   73.2090 N   0  0  0  0  0  0  0  0  0  0  0  0
    1.1210   62.7450   72.2200 C   0  0  0  0  0  0  0  0  0  0  0  0
    0.2880   63.7650   71.7290 C   0  0  0  0  0  0  0  0  0  0  0  0
    0.7390   64.6860   70.7760 C   0  0  0  0  0  0  0  0  0  0  0  0
    2.0330   64.6050   70.2800 C   0  0  0  0  0  0  0  0  0  0  0  0
    2.8800   63.6000   70.7320 C   0  0  0  0  0  0  0  0  0  0  0  0
    2.4310   62.6770   71.6870 C   0  0  0  0  0  0  0  0  0  0  0  0
    3.5990   61.4570   72.2650 S   0  0  0  0  0  0  0  0  0  0  0  0
    2.4700   60.1530   72.7220 C   0  0  0  0  0  0  0  0  0  0  0  0
    1.1500   60.4410   73.1460 C   0  0  0  0  0  0  0  0  0  0  0  0
    0.3310   59.3410   73.4590 C   0  0  0  0  0  0  0  0  0  0  0  0
    0.8040   58.0130   73.4100 C   0  0  0  0  0  0  0  0  0  0  0  0
    2.1200   57.7720   73.0140 C   0  0  0  0  0  0  0  0  0  0  0  0
    2.9480   58.8360   72.6680 C   0  0  0  0  0  0  0  0  0  0  0  0
   -0.1320   56.8690   73.7490 C   0  0  0  0  0  0  0  0  0  0  0  0
    0.4530   55.9910   74.6110 F   0  0  0  0  0  0  0  0  0  0  0  0
   -0.5060   56.1420   72.6650 F   0  0  0  0  0  0  0  0  0  0  0  0
   -1.2690   57.2950   74.3520 F   0  0  0  0  0  0  0  0  0  0  0  0
   -0.5560   62.0790   73.9490 C   0  0  0  0  0  0  0  0  0  0  0  0
   -0.2930   62.3170   75.4480 C   0  0  0  0  0  0  0  0  0  0  0  0
   -1.5660   62.2640   76.2940 C   0  0  0  0  0  0  0  0  0  0  0  0
   -4.8640   60.0840   74.5620 N   0  0  0  0  0  4  0  0  0  0  0  0
   -5.1980   61.4850   75.0840 C   0  0  0  0  0  0  0  0  0  0  0  0
   -4.0520   62.1220   75.9110 C   0  0  0  0  0  0  0  0  0  0  0  0
   -2.6950   61.5200   75.5820 N   0  0  0  0  0  4  0  0  0  0  0  0
   -2.6530   60.0100   75.8300 C   0  0  0  0  0  0  0  0  0  0  0  0
   -4.0040   59.3020   75.5390 C   0  0  0  0  0  0  0  0  0  0  0  0
   -6.1490   59.3540   74.1710 C   0  0  0  0  0  0  0  0  0  0  0  0
   -6.1930   57.9020   74.6650 C   0  0  0  0  0  0  0  0  0  0  0  0
   -6.6940   57.0990   73.6120 O   0  0  0  0  0  0  0  0  0  0  0  0
   -0.7437   63.8415   72.1027 H   0  0  0  0  0  0  0  0  0  0  0  0
    0.0645   65.4779   70.4184 H   0  0  0  0  0  0  0  0  0  0  0  0
    2.3859   65.3319   69.5337 H   0  0  0  0  0  0  0  0  0  0  0  0
    3.9051   63.5286   70.3395 H   0  0  0  0  0  0  0  0  0  0  0  0
   -0.7136   59.5226   73.7519 H   0  0  0  0  0  0  0  0  0  0  0  0
    2.5030   56.7416   72.9753 H   0  0  0  0  0  0  0  0  0  0  0  0
    3.9832   58.6425   72.3504 H   0  0  0  0  0  0  0  0  0  0  0  0
   -1.0283   62.9765   73.5229 H   0  0  0  0  0  0  0  0  0  0  0  0
   -1.2143   61.2032   73.8509 H   0  0  0  0  0  0  0  0  0  0  0  0
    0.4004   61.5433   75.8093 H   0  0  0  0  0  0  0  0  0  0  0  0
    0.1290   63.3275   75.5516 H   0  0  0  0  0  0  0  0  0  0  0  0
   -1.3426   61.7493   77.2401 H   0  0  0  0  0  0  0  0  0  0  0  0
   -1.8990   63.2971   76.4725 H   0  0  0  0  0  0  0  0  0  0  0  0
   -4.2896   60.1750   73.7119 H   0  0  0  0  0  0  0  0  0  0  0  0
   -5.4110   62.1363   74.2235 H   0  0  0  0  0  0  0  0  0  0  0  0
   -6.0651   61.3845   75.7534 H   0  0  0  0  0  0  0  0  0  0  0  0
   -4.0206   63.2008   75.6985 H   0  0  0  0  0  0  0  0  0  0  0  0
   -4.2568   61.9260   76.9739 H   0  0  0  0  0  0  0  0  0  0  0  0
   -2.5439   61.6441   74.5707 H   0  0  0  0  0  0  0  0  0  0  0  0
   -1.8816   59.5708   75.1803 H   0  0  0  0  0  0  0  0  0  0  0  0
   -2.4303   59.8611   76.8969 H   0  0  0  0  0  0  0  0  0  0  0  0
   -3.7987   58.3087   75.1134 H   0  0  0  0  0  0  0  0  0  0  0  0
   -4.5558   59.2256   76.4875 H   0  0  0  0  0  0  0  0  0  0  0  0
   -7.0039   59.8959   74.6016 H   0  0  0  0  0  0  0  0  0  0  0  0
   -6.1883   59.3269   73.0720 H   0  0  0  0  0  0  0  0  0  0  0  0
   -5.1809   57.5697   74.9393 H   0  0  0  0  0  0  0  0  0  0  0  0
   -6.8390   57.8183   75.5514 H   0  0  0  0  0  0  0  0  0  0  0  0
   -7.1782   56.3229   73.9905 H   0  0  0  0  0  0  0  0  0  0  0  0
  2  1  1  0
  3  2  2  0
  4  3  1  0
  5  4  2  0
  6  5  1  0
  7  2  1  0
  7  6  2  0
  8  7  1  0
  9  8  1  0
 10  9  2  0
 10  1  1  0
 11 10  1  0
 12 11  2  0
 13 12  1  0
 14 13  2  0
 14  9  1  0
 15 12  1  0
 16 15  1  0
 17 15  1  0
 18 15  1  0
 19  1  1  0
 20 19  1  0
 21 20  1  0
 23 22  1  0
 24 23  1  0
 25 24  1  0
 25 21  1  0
 26 25  1  0
 27 26  1  0
 27 22  1  0
 28 22  1  0
 29 28  1  0
 30 29  1  0
  3 31  1  0
  4 32  1  0
  5 33  1  0
  6 34  1  0
 11 35  1  0
 13 36  1  0
 14 37  1  0
 19 38  1  0
 19 39  1  0
 20 40  1  0
 20 41  1  0
 21 42  1  0
 21 43  1  0
 22 44  1  0
 23 45  1  0
 23 46  1  0
 24 47  1  0
 24 48  1  0
 25 49  1  0
 26 50  1  0
 26 51  1  0
 27 52  1  0
 27 53  1  0
 28 54  1  0
 28 55  1  0
 29 56  1  0
 29 57  1  0
 30 58  1  0
M  CHG  2  22   1  25   1
M  END
>  <score>  (7) 
-7.537

$$$$
=
     RDKit          3D

 58 61  0  0  0  0  0  0  0  0999 V2000
    0.8160   61.5180   73.1050 N   0  0  0  0  0  0  0  0  0  0  0  0
    1.7680   60.7100   73.8040 C   0  0  0  0  0  0  0  0  0  0  0  0
    1.7060   60.4690   75.1880 C   0  0  0  0  0  0  0  0  0  0  0  0
    2.6440   59.6560   75.8350 C   0  0  0  0  0  0  0  0  0  0  0  0
    3.6770   59.0700   75.1170 C   0  0  0  0  0  0  0  0  0  0  0  0
    3.7790   59.2980   73.7490 C   0  0  0  0  0  0  0  0  0  0  0  0
    2.8410   60.1110   73.0990 C   0  0  0  0  0  0  0  0  0  0  0  0
    3.0020   60.3020   71.3310 S   0  0  0  0  0  0  0  0  0  0  0  0
    2.2400   61.9030   71.1320 C   0  0  0  0  0  0  0  0  0  0  0  0
    1.2350   62.3530   72.0210 C   0  0  0  0  0  0  0  0  0  0  0  0
    0.7170   63.6410   71.7910 C   0  0  0  0  0  0  0  0  0  0  0  0
    1.1300   64.4360   70.7020 C   0  0  0  0  0  0  0  0  0  0  0  0
    2.1050   63.9450   69.8320 C   0  0  0  0  0  0  0  0  0  0  0  0
    2.6590   62.6870   70.0470 C   0  0  0  0  0  0  0  0  0  0  0  0
    0.5420   65.8200   70.5160 C   0  0  0  0  0  0  0  0  0  0  0  0
   -0.3590   65.8410   69.4940 F   0  0  0  0  0  0  0  0  0  0  0  0
    1.4720   66.7640   70.2190 F   0  0  0  0  0  0  0  0  0  0  0  0
   -0.1220   66.2510   71.6170 F   0  0  0  0  0  0  0  0  0  0  0  0
   -0.4410   61.8790   73.8120 C   0  0  0  0  0  0  0  0  0  0  0  0
   -1.6490   61.1010   73.2580 C   0  0  0  0  0  0  0  0  0  0  0  0
   -2.4290   60.3570   74.3430 C   0  0  0  0  0  0  0  0  0  0  0  0
   -6.4800   61.7010   74.9850 N   0  0  0  0  0  4  0  0  0  0  0  0
   -5.3830   62.6230   75.5280 C   0  0  0  0  0  0  0  0  0  0  0  0
   -3.9710   61.9830   75.4930 C   0  0  0  0  0  0  0  0  0  0  0  0
   -3.8640   60.8680   74.4660 N   0  0  0  0  0  4  0  0  0  0  0  0
   -4.8680   59.7420   74.7230 C   0  0  0  0  0  0  0  0  0  0  0  0
   -6.2140   60.2430   75.3140 C   0  0  0  0  0  0  0  0  0  0  0  0
   -7.8500   62.1870   75.4580 C   0  0  0  0  0  0  0  0  0  0  0  0
   -8.9780   61.8730   74.4660 C   0  0  0  0  0  0  0  0  0  0  0  0
   -9.8130   60.8930   75.0530 O   0  0  0  0  0  0  0  0  0  0  0  0
    0.9001   60.9310   75.7771 H   0  0  0  0  0  0  0  0  0  0  0  0
    2.5619   59.4807   76.9178 H   0  0  0  0  0  0  0  0  0  0  0  0
    4.4109   58.4288   75.6271 H   0  0  0  0  0  0  0  0  0  0  0  0
    4.5980   58.8390   73.1758 H   0  0  0  0  0  0  0  0  0  0  0  0
   -0.0365   64.0417   72.4850 H   0  0  0  0  0  0  0  0  0  0  0  0
    2.4352   64.5526   68.9766 H   0  0  0  0  0  0  0  0  0  0  0  0
    3.4302   62.3049   69.3620 H   0  0  0  0  0  0  0  0  0  0  0  0
   -0.3278   61.6475   74.8814 H   0  0  0  0  0  0  0  0  0  0  0  0
   -0.6247   62.9527   73.6587 H   0  0  0  0  0  0  0  0  0  0  0  0
   -2.3273   61.8122   72.7639 H   0  0  0  0  0  0  0  0  0  0  0  0
   -1.2616   60.3478   72.5561 H   0  0  0  0  0  0  0  0  0  0  0  0
   -2.4532   59.2862   74.0925 H   0  0  0  0  0  0  0  0  0  0  0  0
   -1.9228   60.5283   75.3045 H   0  0  0  0  0  0  0  0  0  0  0  0
   -6.4740   61.7487   73.9561 H   0  0  0  0  0  0  0  0  0  0  0  0
   -5.3657   63.5402   74.9210 H   0  0  0  0  0  0  0  0  0  0  0  0
   -5.6218   62.8279   76.5820 H   0  0  0  0  0  0  0  0  0  0  0  0
   -3.2360   62.7629   75.2451 H   0  0  0  0  0  0  0  0  0  0  0  0
   -3.7771   61.5455   76.4835 H   0  0  0  0  0  0  0  0  0  0  0  0
   -4.1183   61.2706   73.5527 H   0  0  0  0  0  0  0  0  0  0  0  0
   -5.0731   59.2327   73.7698 H   0  0  0  0  0  0  0  0  0  0  0  0
   -4.4174   59.0664   75.4650 H   0  0  0  0  0  0  0  0  0  0  0  0
   -7.0307   59.6325   74.9014 H   0  0  0  0  0  0  0  0  0  0  0  0
   -6.1566   60.1498   76.4085 H   0  0  0  0  0  0  0  0  0  0  0  0
   -8.0819   61.7001   76.4167 H   0  0  0  0  0  0  0  0  0  0  0  0
   -7.7937   63.2814   75.5535 H   0  0  0  0  0  0  0  0  0  0  0  0
   -9.5589   62.7841   74.2599 H   0  0  0  0  0  0  0  0  0  0  0  0
   -8.5620   61.5035   73.5171 H   0  0  0  0  0  0  0  0  0  0  0  0
   -9.7566   60.9592   76.0392 H   0  0  0  0  0  0  0  0  0  0  0  0
  2  1  1  0
  3  2  2  0
  4  3  1  0
  5  4  2  0
  6  5  1  0
  7  2  1  0
  7  6  2  0
  8  7  1  0
  9  8  1  0
 10  9  2  0
 10  1  1  0
 11 10  1  0
 12 11  2  0
 13 12  1  0
 14 13  2  0
 14  9  1  0
 15 12  1  0
 16 15  1  0
 17 15  1  0
 18 15  1  0
 19  1  1  0
 20 19  1  0
 21 20  1  0
 23 22  1  0
 24 23  1  0
 25 24  1  0
 25 21  1  0
 26 25  1  0
 27 26  1  0
 27 22  1  0
 28 22  1  0
 29 28  1  0
 30 29  1  0
  3 31  1  0
  4 32  1  0
  5 33  1  0
  6 34  1  0
 11 35  1  0
 13 36  1  0
 14 37  1  0
 19 38  1  0
 19 39  1  0
 20 40  1  0
 20 41  1  0
 21 42  1  0
 21 43  1  0
 22 44  1  0
 23 45  1  0
 23 46  1  0
 24 47  1  0
 24 48  1  0
 25 49  1  0
 26 50  1  0
 26 51  1  0
 27 52  1  0
 27 53  1  0
 28 54  1  0
 28 55  1  0
 29 56  1  0
 29 57  1  0
 30 58  1  0
M  CHG  2  22   1  25   1
M  END
>  <score>  (8) 
-7.452

$$$$
=
     RDKit          3D

 58 61  0  0  0  0  0  0  0  0999 V2000
    1.5920   61.5810   72.4460 N   0  0  0  0  0  0  0  0  0  0  0  0
    2.5170   62.1120   71.4920 C   0  0  0  0  0  0  0  0  0  0  0  0
    2.1340   62.9590   70.4380 C   0  0  0  0  0  0  0  0  0  0  0  0
    3.0700   63.4760   69.5340 C   0  0  0  0  0  0  0  0  0  0  0  0
    4.4140   63.1510   69.6540 C   0  0  0  0  0  0  0  0  0  0  0  0
    4.8270   62.3040   70.6760 C   0  0  0  0  0  0  0  0  0  0  0  0
    3.8920   61.7850   71.5820 C   0  0  0  0  0  0  0  0  0  0  0  0
    4.5110   60.7580   72.9050 S   0  0  0  0  0  0  0  0  0  0  0  0
    3.0650   59.7580   73.2090 C   0  0  0  0  0  0  0  0  0  0  0  0
    1.7630   60.2550   72.9570 C   0  0  0  0  0  0  0  0  0  0  0  0
    0.6920   59.3780   73.2060 C   0  0  0  0  0  0  0  0  0  0  0  0
    0.8850   58.0830   73.7310 C   0  0  0  0  0  0  0  0  0  0  0  0
    2.1820   57.6400   73.9910 C   0  0  0  0  0  0  0  0  0  0  0  0
    3.2670   58.4710   73.7280 C   0  0  0  0  0  0  0  0  0  0  0  0
   -0.3110   57.1810   73.9670 C   0  0  0  0  0  0  0  0  0  0  0  0
   -0.1530   56.4360   75.0960 F   0  0  0  0  0  0  0  0  0  0  0  0
   -0.5250   56.2980   72.9590 F   0  0  0  0  0  0  0  0  0  0  0  0
   -1.4610   57.8820   74.1300 F   0  0  0  0  0  0  0  0  0  0  0  0
    0.2300   62.1730   72.4980 C   0  0  0  0  0  0  0  0  0  0  0  0
    0.1300   63.2780   73.5650 C   0  0  0  0  0  0  0  0  0  0  0  0
   -0.3920   62.7670   74.9080 C   0  0  0  0  0  0  0  0  0  0  0  0
    2.6040   61.6310   77.8000 N   0  0  0  0  0  4  0  0  0  0  0  0
    1.8710   60.4720   77.1160 C   0  0  0  0  0  0  0  0  0  0  0  0
    0.6470   60.9270   76.2800 C   0  0  0  0  0  0  0  0  0  0  0  0
    0.7450   62.3840   75.8550 N   0  0  0  0  0  4  0  0  0  0  0  0
    0.8590   63.3320   77.0510 C   0  0  0  0  0  0  0  0  0  0  0  0
    1.6510   62.7270   78.2410 C   0  0  0  0  0  0  0  0  0  0  0  0
    3.4780   61.0970   78.9350 C   0  0  0  0  0  0  0  0  0  0  0  0
    3.3540   59.5800   79.1300 C   0  0  0  0  0  0  0  0  0  0  0  0
    4.5790   58.9890   78.7410 O   0  0  0  0  0  0  0  0  0  0  0  0
    1.0725   63.2224   70.3203 H   0  0  0  0  0  0  0  0  0  0  0  0
    2.7385   64.1431   68.7246 H   0  0  0  0  0  0  0  0  0  0  0  0
    5.1479   63.5612   68.9447 H   0  0  0  0  0  0  0  0  0  0  0  0
    5.8905   62.0404   70.7739 H   0  0  0  0  0  0  0  0  0  0  0  0
   -0.3317   59.7136   72.9836 H   0  0  0  0  0  0  0  0  0  0  0  0
    2.3472   56.6339   74.4039 H   0  0  0  0  0  0  0  0  0  0  0  0
    4.2888   58.1163   73.9284 H   0  0  0  0  0  0  0  0  0  0  0  0
   -0.0091   62.6042   71.5147 H   0  0  0  0  0  0  0  0  0  0  0  0
   -0.4806   61.3759   72.7621 H   0  0  0  0  0  0  0  0  0  0  0  0
    1.1306   63.7082   73.7187 H   0  0  0  0  0  0  0  0  0  0  0  0
   -0.5871   64.0265   73.1969 H   0  0  0  0  0  0  0  0  0  0  0  0
   -0.9954   63.5572   75.3786 H   0  0  0  0  0  0  0  0  0  0  0  0
   -0.9946   61.8665   74.7184 H   0  0  0  0  0  0  0  0  0  0  0  0
    3.2286   62.0792   77.1145 H   0  0  0  0  0  0  0  0  0  0  0  0
    2.5778   59.9577   76.4483 H   0  0  0  0  0  0  0  0  0  0  0  0
    1.4946   59.8110   77.9106 H   0  0  0  0  0  0  0  0  0  0  0  0
    0.5818   60.2997   75.3788 H   0  0  0  0  0  0  0  0  0  0  0  0
   -0.2481   60.8208   76.9104 H   0  0  0  0  0  0  0  0  0  0  0  0
    1.6230   62.4893   75.3269 H   0  0  0  0  0  0  0  0  0  0  0  0
    1.3696   64.2491   76.7221 H   0  0  0  0  0  0  0  0  0  0  0  0
   -0.1625   63.5312   77.4073 H   0  0  0  0  0  0  0  0  0  0  0  0
    2.2312   63.5274   78.7234 H   0  0  0  0  0  0  0  0  0  0  0  0
    0.9250   62.2820   78.9373 H   0  0  0  0  0  0  0  0  0  0  0  0
    4.5279   61.3361   78.7101 H   0  0  0  0  0  0  0  0  0  0  0  0
    3.1357   61.5754   79.8645 H   0  0  0  0  0  0  0  0  0  0  0  0
    3.1496   59.3547   80.1871 H   0  0  0  0  0  0  0  0  0  0  0  0
    2.5274   59.1824   78.5228 H   0  0  0  0  0  0  0  0  0  0  0  0
    5.0959   58.7396   79.5477 H   0  0  0  0  0  0  0  0  0  0  0  0
  2  1  1  0
  3  2  2  0
  4  3  1  0
  5  4  2  0
  6  5  1  0
  7  2  1  0
  7  6  2  0
  8  7  1  0
  9  8  1  0
 10  9  2  0
 10  1  1  0
 11 10  1  0
 12 11  2  0
 13 12  1  0
 14 13  2  0
 14  9  1  0
 15 12  1  0
 16 15  1  0
 17 15  1  0
 18 15  1  0
 19  1  1  0
 20 19  1  0
 21 20  1  0
 23 22  1  0
 24 23  1  0
 25 24  1  0
 25 21  1  0
 26 25  1  0
 27 26  1  0
 27 22  1  0
 28 22  1  0
 29 28  1  0
 30 29  1  0
  3 31  1  0
  4 32  1  0
  5 33  1  0
  6 34  1  0
 11 35  1  0
 13 36  1  0
 14 37  1  0
 19 38  1  0
 19 39  1  0
 20 40  1  0
 20 41  1  0
 21 42  1  0
 21 43  1  0
 22 44  1  0
 23 45  1  0
 23 46  1  0
 24 47  1  0
 24 48  1  0
 25 49  1  0
 26 50  1  0
 26 51  1  0
 27 52  1  0
 27 53  1  0
 28 54  1  0
 28 55  1  0
 29 56  1  0
 29 57  1  0
 30 58  1  0
M  CHG  2  22   1  25   1
M  END
>  <score>  (9) 
-7.395

$$$$
