=
     RDKit          3D

113119  0  0  0  0  0  0  0  0999 V2000
   -4.7650   59.0250   75.9120 C   0  0  1  0  0  0  0  0  0  0  0  0
   -5.3320   60.5070   75.7540 C   0  0  0  0  0  0  0  0  0  0  0  0
   -5.9950   60.7440   74.7240 O   0  0  0  0  0  0  0  0  0  0  0  0
   -5.1050   61.6990   76.7880 C   0  0  2  0  0  0  0  0  0  0  0  0
   -5.2760   61.1780   78.2380 C   0  0  0  0  0  0  0  0  0  0  0  0
   -6.3760   62.6370   76.5350 C   0  0  2  0  0  0  0  0  0  0  0  0
   -6.5350   63.7660   77.5490 C   0  0  0  0  0  0  0  0  0  0  0  0
   -5.2680   64.5740   77.7250 C   0  0  2  0  0  0  0  0  0  0  0  0
   -3.9030   64.0730   77.1540 C   0  0  2  0  0  0  0  0  0  0  0  0
   -3.8340   62.6950   76.4050 C   0  0  1  0  0  0  0  0  0  0  0  0
   -2.2520   62.2850   76.3450 C   0  0  1  0  0  0  0  0  0  0  0  0
   -2.0000   60.7870   76.4480 C   0  0  1  0  0  0  0  0  0  0  0  0
   -2.4600   59.9500   75.1650 C   0  0  0  0  0  0  0  0  0  0  0  0
   -3.2320   58.8560   75.8880 C   0  0  0  0  0  0  0  0  0  0  0  0
   -2.4890   58.0750   76.7380 C   0  0  0  0  0  0  0  0  0  0  0  0
   -2.9980   56.8490   77.4440 C   0  0  0  0  0  0  0  0  0  0  0  0
   -1.0970   58.5830   77.2780 C   0  0  2  0  0  0  0  0  0  0  0  0
   -0.7100   60.0940   76.9200 C   0  0  0  0  0  0  0  0  0  0  0  0
   -3.1490   60.6690   73.9710 C   0  0  0  0  0  0  0  0  0  0  0  0
   -1.2830   59.3010   74.3250 C   0  0  0  0  0  0  0  0  0  0  0  0
   -3.4790   64.0640   78.6470 C   0  0  0  0  0  0  0  0  0  0  0  0
   -4.7870   64.4540   79.0910 O   0  0  0  0  0  0  0  0  0  0  0  0
   -2.7920   60.5810   77.6580 O   0  0  0  0  0  0  0  0  0  0  0  0
   -7.5970   61.8860   76.5980 O   0  0  0  0  0  0  0  0  0  0  0  0
   -0.0780   57.6610   76.8750 O   0  0  0  0  0  0  0  0  0  0  0  0
    1.0920   57.7240   77.5750 C   0  0  0  0  0  0  0  0  0  0  0  0
    1.1750   57.7480   78.7970 O   0  0  0  0  0  0  0  0  0  0  0  0
    2.2860   57.7030   76.6160 C   0  0  2  0  0  0  0  0  0  0  0  0
    3.1720   58.8220   76.7850 O   0  0  0  0  0  0  0  0  0  0  0  0
    1.8050   57.5990   75.1430 C   0  0  2  0  0  0  0  0  0  0  0  0
    1.3880   56.1810   74.7540 C   0  0  0  0  0  0  0  0  0  0  0  0
    2.2380   55.1090   75.0780 C   0  0  0  0  0  0  0  0  0  0  0  0
    1.9090   53.8010   74.7190 C   0  0  0  0  0  0  0  0  0  0  0  0
    0.7280   53.5420   74.0280 C   0  0  0  0  0  0  0  0  0  0  0  0
   -0.1230   54.5920   73.6940 C   0  0  0  0  0  0  0  0  0  0  0  0
    0.2040   55.9020   74.0510 C   0  0  0  0  0  0  0  0  0  0  0  0
    2.7420   58.1690   74.1780 N   0  0  0  0  0  0  0  0  0  0  0  0
    2.2950   58.9800   73.1540 C   0  0  0  0  0  0  0  0  0  0  0  0
    1.1090   59.2170   72.9550 O   0  0  0  0  0  0  0  0  0  0  0  0
    3.3440   59.6120   72.3080 C   0  0  0  0  0  0  0  0  0  0  0  0
    3.2900   59.5700   70.9080 C   0  0  0  0  0  0  0  0  0  0  0  0
    4.2960   60.1780   70.1530 C   0  0  0  0  0  0  0  0  0  0  0  0
    5.3500   60.8340   70.7900 C   0  0  0  0  0  0  0  0  0  0  0  0
    5.3990   60.8920   72.1830 C   0  0  0  0  0  0  0  0  0  0  0  0
    4.3950   60.2860   72.9410 C   0  0  0  0  0  0  0  0  0  0  0  0
   -1.6790   62.8540   75.1520 O   0  0  0  0  0  0  0  0  0  0  0  0
   -0.3680   63.1930   75.2170 C   0  0  0  0  0  0  0  0  0  0  0  0
    0.2110   63.5800   76.2190 O   0  0  0  0  0  0  0  0  0  0  0  0
    0.2810   63.0320   73.8890 C   0  0  0  0  0  0  0  0  0  0  0  0
    1.6540   63.2400   73.6930 C   0  0  0  0  0  0  0  0  0  0  0  0
    2.2140   63.0700   72.4250 C   0  0  0  0  0  0  0  0  0  0  0  0
    1.4090   62.6940   71.3500 C   0  0  0  0  0  0  0  0  0  0  0  0
    0.0440   62.4880   71.5380 C   0  0  0  0  0  0  0  0  0  0  0  0
   -0.5200   62.6560   72.8040 C   0  0  0  0  0  0  0  0  0  0  0  0
   -3.1400   65.0720   76.4000 O   0  0  0  0  0  0  0  0  0  0  0  0
   -3.6570   66.3310   76.3560 C   0  0  0  0  0  0  0  0  0  0  0  0
   -3.3490   67.2430   77.1090 O   0  0  0  0  0  0  0  0  0  0  0  0
   -4.6310   66.4530   75.2260 C   0  0  0  0  0  0  0  0  0  0  0  0
   -5.3320   58.4200   77.0800 O   0  0  0  0  0  0  0  0  0  0  0  0
   -7.3210   58.0230   78.2450 C   0  0  0  0  0  0  0  0  0  0  0  0
   -6.5930   57.9320   76.9390 C   0  0  0  0  0  0  0  0  0  0  0  0
   -7.0730   57.4830   75.9100 O   0  0  0  0  0  0  0  0  0  0  0  0
   -5.0820   58.5054   74.9958 H   0  0  0  0  0  0  0  0  0  0  0  0
   -5.0139   61.9764   78.9478 H   0  0  0  0  0  0  0  0  0  0  0  0
   -6.3211   60.8740   78.3975 H   0  0  0  0  0  0  0  0  0  0  0  0
   -4.6143   60.3138   78.3975 H   0  0  0  0  0  0  0  0  0  0  0  0
   -6.1911   63.0626   75.5377 H   0  0  0  0  0  0  0  0  0  0  0  0
   -7.3359   64.4373   77.2058 H   0  0  0  0  0  0  0  0  0  0  0  0
   -6.7761   63.3094   78.5203 H   0  0  0  0  0  0  0  0  0  0  0  0
   -5.6334   65.5062   77.2694 H   0  0  0  0  0  0  0  0  0  0  0  0
   -4.0852   62.6521   75.3349 H   0  0  0  0  0  0  0  0  0  0  0  0
   -1.7555   62.7005   77.2343 H   0  0  0  0  0  0  0  0  0  0  0  0
   -2.9354   56.9998   78.5318 H   0  0  0  0  0  0  0  0  0  0  0  0
   -4.0450   56.6695   77.1584 H   0  0  0  0  0  0  0  0  0  0  0  0
   -2.3860   55.9808   77.1584 H   0  0  0  0  0  0  0  0  0  0  0  0
   -1.1885   58.6111   78.3738 H   0  0  0  0  0  0  0  0  0  0  0  0
   -0.3111   60.6031   77.8098 H   0  0  0  0  0  0  0  0  0  0  0  0
    0.0631   60.1273   76.1382 H   0  0  0  0  0  0  0  0  0  0  0  0
   -3.8625   61.4136   74.3537 H   0  0  0  0  0  0  0  0  0  0  0  0
   -2.3875   61.1725   73.3573 H   0  0  0  0  0  0  0  0  0  0  0  0
   -3.6844   59.9296   73.3573 H   0  0  0  0  0  0  0  0  0  0  0  0
   -0.5294   58.8855   75.0101 H   0  0  0  0  0  0  0  0  0  0  0  0
   -1.6850   58.4971   73.6909 H   0  0  0  0  0  0  0  0  0  0  0  0
   -0.8177   60.0701   73.6909 H   0  0  0  0  0  0  0  0  0  0  0  0
   -3.1707   63.0721   79.0092 H   0  0  0  0  0  0  0  0  0  0  0  0
   -2.6105   64.6635   78.9575 H   0  0  0  0  0  0  0  0  0  0  0  0
   -2.2227   60.7291   78.4543 H   0  0  0  0  0  0  0  0  0  0  0  0
   -7.8429   61.7348   77.5450 H   0  0  0  0  0  0  0  0  0  0  0  0
    2.8706   56.8063   76.8691 H   0  0  0  0  0  0  0  0  0  0  0  0
    3.3073   58.9929   77.7507 H   0  0  0  0  0  0  0  0  0  0  0  0
    0.9020   58.2256   75.0986 H   0  0  0  0  0  0  0  0  0  0  0  0
    3.1744   55.3037   75.6214 H   0  0  0  0  0  0  0  0  0  0  0  0
    2.5838   52.9732   74.9824 H   0  0  0  0  0  0  0  0  0  0  0  0
    0.4683   52.5107   73.7469 H   0  0  0  0  0  0  0  0  0  0  0  0
   -1.0557   54.3892   73.1473 H   0  0  0  0  0  0  0  0  0  0  0  0
   -0.4733   56.7249   73.7786 H   0  0  0  0  0  0  0  0  0  0  0  0
    3.7477   57.9635   74.2625 H   0  0  0  0  0  0  0  0  0  0  0  0
    2.4564   59.0588   70.4043 H   0  0  0  0  0  0  0  0  0  0  0  0
    4.2571   60.1395   69.0544 H   0  0  0  0  0  0  0  0  0  0  0  0
    6.1438   61.3063   70.1927 H   0  0  0  0  0  0  0  0  0  0  0  0
    6.2275   61.4145   72.6836 H   0  0  0  0  0  0  0  0  0  0  0  0
    4.4301   60.3384   74.0392 H   0  0  0  0  0  0  0  0  0  0  0  0
    2.2907   63.5375   74.5392 H   0  0  0  0  0  0  0  0  0  0  0  0
    3.2913   63.2329   72.2739 H   0  0  0  0  0  0  0  0  0  0  0  0
    1.8524   62.5599   70.3523 H   0  0  0  0  0  0  0  0  0  0  0  0
   -0.5896   62.1929   70.6886 H   0  0  0  0  0  0  0  0  0  0  0  0
   -1.5980   62.4923   72.9496 H   0  0  0  0  0  0  0  0  0  0  0  0
   -5.6465   66.5802   75.6293 H   0  0  0  0  0  0  0  0  0  0  0  0
   -4.3695   67.3254   74.6091 H   0  0  0  0  0  0  0  0  0  0  0  0
   -4.5928   65.5431   74.6091 H   0  0  0  0  0  0  0  0  0  0  0  0
   -6.6020   57.9331   79.0726 H   0  0  0  0  0  0  0  0  0  0  0  0
   -7.8364   58.9926   78.3107 H   0  0  0  0  0  0  0  0  0  0  0  0
   -8.0592   57.2101   78.3107 H   0  0  0  0  0  0  0  0  0  0  0  0
  2  1  1  0
  3  2  2  0
  4  2  1  0
  4  5  1  1
  6  4  1  0
  7  6  1  0
  8  7  1  0
  9  8  1  0
 10  9  1  0
 10  4  1  0
 11 10  1  0
 12 11  1  0
 13 12  1  0
 14  1  1  0
 14 13  1  0
 15 14  2  0
 16 15  1  0
 17 15  1  0
 18 17  1  0
 18 12  1  0
 19 13  1  0
 20 13  1  0
 21  9  1  0
 22 21  1  0
 22  8  1  0
 12 23  1  1
 24  6  1  0
 25 17  1  0
 26 25  1  0
 27 26  2  0
 28 26  1  0
 29 28  1  0
 30 28  1  0
 31 30  1  0
 32 31  2  0
 33 32  1  0
 34 33  2  0
 35 34  1  0
 36 35  2  0
 36 31  1  0
 37 30  1  0
 38 37  1  0
 39 38  2  0
 40 38  1  0
 41 40  2  0
 42 41  1  0
 43 42  2  0
 44 43  1  0
 45 40  1  0
 45 44  2  0
 46 11  1  0
 47 46  1  0
 48 47  2  0
 49 47  1  0
 50 49  2  0
 51 50  1  0
 52 51  2  0
 53 52  1  0
 54 53  2  0
 54 49  1  0
  9 55  1  6
 56 55  1  0
 57 56  2  0
 58 56  1  0
 59  1  1  0
 61 60  1  0
 61 59  1  0
 62 61  2  0
  1 63  1  6
  5 64  1  0
  5 65  1  0
  5 66  1  0
  6 67  1  6
  7 68  1  0
  7 69  1  0
  8 70  1  6
 10 71  1  6
 11 72  1  1
 16 73  1  0
 16 74  1  0
 16 75  1  0
 17 76  1  1
 18 77  1  0
 18 78  1  0
 19 79  1  0
 19 80  1  0
 19 81  1  0
 20 82  1  0
 20 83  1  0
 20 84  1  0
 21 85  1  0
 21 86  1  0
 23 87  1  0
 24 88  1  0
 28 89  1  1
 29 90  1  0
 30 91  1  1
 32 92  1  0
 33 93  1  0
 34 94  1  0
 35 95  1  0
 36 96  1  0
 37 97  1  0
 41 98  1  0
 42 99  1  0
 43100  1  0
 44101  1  0
 45102  1  0
 50103  1  0
 51104  1  0
 52105  1  0
 53106  1  0
 54107  1  0
 58108  1  0
 58109  1  0
 58110  1  0
 60111  1  0
 60112  1  0
 60113  1  0
M  END
>  <score>  (1) 
-8.25

$$$$
=
     RDKit          3D

113119  0  0  0  0  0  0  0  0999 V2000
    1.8130   58.0360   73.0440 C   0  0  1  0  0  0  0  0  0  0  0  0
    1.9460   57.1940   74.3910 C   0  0  0  0  0  0  0  0  0  0  0  0
    1.4100   56.0680   74.4010 O   0  0  0  0  0  0  0  0  0  0  0  0
    2.6890   57.6800   75.7160 C   0  0  2  0  0  0  0  0  0  0  0  0
    4.0230   58.3760   75.3470 C   0  0  0  0  0  0  0  0  0  0  0  0
    3.1200   56.3050   76.4090 C   0  0  2  0  0  0  0  0  0  0  0  0
    4.0460   56.4700   77.6090 C   0  0  0  0  0  0  0  0  0  0  0  0
    3.5210   57.4660   78.6200 C   0  0  2  0  0  0  0  0  0  0  0  0
    2.3300   58.4170   78.2750 C   0  0  2  0  0  0  0  0  0  0  0  0
    1.6800   58.3590   76.8460 C   0  0  1  0  0  0  0  0  0  0  0  0
    0.8110   59.7340   76.6830 C   0  0  1  0  0  0  0  0  0  0  0  0
    0.7950   60.2880   75.2650 C   0  0  1  0  0  0  0  0  0  0  0  0
   -0.0440   59.4110   74.2230 C   0  0  0  0  0  0  0  0  0  0  0  0
    0.9950   59.3430   73.1140 C   0  0  0  0  0  0  0  0  0  0  0  0
    1.3460   60.5490   72.5620 C   0  0  0  0  0  0  0  0  0  0  0  0
    2.2360   60.7190   71.3620 C   0  0  0  0  0  0  0  0  0  0  0  0
    1.0710   61.8930   73.3400 C   0  0  2  0  0  0  0  0  0  0  0  0
    0.5360   61.7440   74.8400 C   0  0  0  0  0  0  0  0  0  0  0  0
   -0.7160   58.0850   74.6830 C   0  0  0  0  0  0  0  0  0  0  0  0
   -1.3640   60.0950   73.6730 C   0  0  0  0  0  0  0  0  0  0  0  0
    3.3820   59.5340   78.5040 C   0  0  0  0  0  0  0  0  0  0  0  0
    4.4370   58.5870   78.7350 O   0  0  0  0  0  0  0  0  0  0  0  0
    2.2440   60.2800   75.0800 O   0  0  0  0  0  0  0  0  0  0  0  0
    3.8240   55.4580   75.4890 O   0  0  0  0  0  0  0  0  0  0  0  0
    0.2120   62.7210   72.5470 O   0  0  0  0  0  0  0  0  0  0  0  0
   -0.0080   63.9810   73.0250 C   0  0  0  0  0  0  0  0  0  0  0  0
   -0.4750   64.2390   74.1280 O   0  0  0  0  0  0  0  0  0  0  0  0
    0.4640   65.0240   72.0080 C   0  0  2  0  0  0  0  0  0  0  0  0
   -0.3400   66.2140   71.9960 O   0  0  0  0  0  0  0  0  0  0  0  0
    0.5500   64.4040   70.5860 C   0  0  2  0  0  0  0  0  0  0  0  0
    1.9580   63.9260   70.2310 C   0  0  0  0  0  0  0  0  0  0  0  0
    2.1420   63.1500   69.0740 C   0  0  0  0  0  0  0  0  0  0  0  0
    3.4060   62.6710   68.7260 C   0  0  0  0  0  0  0  0  0  0  0  0
    4.5070   62.9560   69.5290 C   0  0  0  0  0  0  0  0  0  0  0  0
    4.3430   63.7200   70.6830 C   0  0  0  0  0  0  0  0  0  0  0  0
    3.0790   64.1990   71.0340 C   0  0  0  0  0  0  0  0  0  0  0  0
   -0.0090   65.2560   69.5390 N   0  0  0  0  0  0  0  0  0  0  0  0
    0.5400   66.4930   69.2670 C   0  0  0  0  0  0  0  0  0  0  0  0
    1.4680   66.9710   69.9100 O   0  0  0  0  0  0  0  0  0  0  0  0
   -0.0220   67.2210   68.0970 C   0  0  0  0  0  0  0  0  0  0  0  0
   -1.3830   67.1530   67.7670 C   0  0  0  0  0  0  0  0  0  0  0  0
   -1.8670   67.8530   66.6600 C   0  0  0  0  0  0  0  0  0  0  0  0
   -1.0010   68.6260   65.8870 C   0  0  0  0  0  0  0  0  0  0  0  0
    0.3500   68.7100   66.2210 C   0  0  0  0  0  0  0  0  0  0  0  0
    0.8390   68.0120   67.3280 C   0  0  0  0  0  0  0  0  0  0  0  0
   -0.5160   59.4980   77.1930 O   0  0  0  0  0  0  0  0  0  0  0  0
   -1.1670   60.5730   77.6970 C   0  0  0  0  0  0  0  0  0  0  0  0
   -0.7630   61.2810   78.6060 O   0  0  0  0  0  0  0  0  0  0  0  0
   -2.4590   60.7820   76.9900 C   0  0  0  0  0  0  0  0  0  0  0  0
   -3.3720   59.7410   76.7690 C   0  0  0  0  0  0  0  0  0  0  0  0
   -4.5730   59.9940   76.1030 C   0  0  0  0  0  0  0  0  0  0  0  0
   -4.8680   61.2810   75.6550 C   0  0  0  0  0  0  0  0  0  0  0  0
   -3.9640   62.3200   75.8710 C   0  0  0  0  0  0  0  0  0  0  0  0
   -2.7620   62.0720   76.5360 C   0  0  0  0  0  0  0  0  0  0  0  0
    1.2710   58.4790   79.2850 O   0  0  0  0  0  0  0  0  0  0  0  0
    0.8980   57.2990   79.8540 C   0  0  0  0  0  0  0  0  0  0  0  0
    1.5010   56.7310   80.7520 O   0  0  0  0  0  0  0  0  0  0  0  0
   -0.3820   56.8130   79.2480 C   0  0  0  0  0  0  0  0  0  0  0  0
    3.1150   58.2720   72.4980 O   0  0  0  0  0  0  0  0  0  0  0  0
    2.6630   56.4040   71.1650 C   0  0  0  0  0  0  0  0  0  0  0  0
    3.3490   57.7310   71.2730 C   0  0  0  0  0  0  0  0  0  0  0  0
    4.0170   58.2380   70.3850 O   0  0  0  0  0  0  0  0  0  0  0  0
    1.2073   57.4036   72.3783 H   0  0  0  0  0  0  0  0  0  0  0  0
    4.5577   58.6550   76.2669 H   0  0  0  0  0  0  0  0  0  0  0  0
    4.6447   57.6873   74.7560 H   0  0  0  0  0  0  0  0  0  0  0  0
    3.8138   59.2799   74.7560 H   0  0  0  0  0  0  0  0  0  0  0  0
    2.1657   55.8696   76.7402 H   0  0  0  0  0  0  0  0  0  0  0  0
    4.1590   55.4937   78.1030 H   0  0  0  0  0  0  0  0  0  0  0  0
    5.0080   56.8514   77.2360 H   0  0  0  0  0  0  0  0  0  0  0  0
    3.3067   56.7478   79.4251 H   0  0  0  0  0  0  0  0  0  0  0  0
    0.8994   57.6118   76.6401 H   0  0  0  0  0  0  0  0  0  0  0  0
    1.3030   60.5228   77.2710 H   0  0  0  0  0  0  0  0  0  0  0  0
    3.2660   60.9157   71.6943 H   0  0  0  0  0  0  0  0  0  0  0  0
    2.2151   59.8006   70.7569 H   0  0  0  0  0  0  0  0  0  0  0  0
    1.8780   61.5650   70.7569 H   0  0  0  0  0  0  0  0  0  0  0  0
    2.0531   62.3679   73.4810 H   0  0  0  0  0  0  0  0  0  0  0  0
    1.0767   62.4338   75.5046 H   0  0  0  0  0  0  0  0  0  0  0  0
   -0.5350   61.9874   74.9018 H   0  0  0  0  0  0  0  0  0  0  0  0
   -0.7358   58.0460   75.7821 H   0  0  0  0  0  0  0  0  0  0  0  0
   -1.7448   58.0418   74.2960 H   0  0  0  0  0  0  0  0  0  0  0  0
   -0.1425   57.2298   74.2960 H   0  0  0  0  0  0  0  0  0  0  0  0
   -1.9888   60.4188   74.5184 H   0  0  0  0  0  0  0  0  0  0  0  0
   -1.0964   60.9679   73.0594 H   0  0  0  0  0  0  0  0  0  0  0  0
   -1.9228   59.3730   73.0594 H   0  0  0  0  0  0  0  0  0  0  0  0
    3.5477   60.1680   77.6205 H   0  0  0  0  0  0  0  0  0  0  0  0
    3.1832   60.3052   79.2628 H   0  0  0  0  0  0  0  0  0  0  0  0
    2.6895   60.2775   75.9641 H   0  0  0  0  0  0  0  0  0  0  0  0
    4.3684   54.8031   75.9938 H   0  0  0  0  0  0  0  0  0  0  0  0
    1.4691   65.3352   72.3289 H   0  0  0  0  0  0  0  0  0  0  0  0
   -0.5291   66.4939   72.9266 H   0  0  0  0  0  0  0  0  0  0  0  0
   -0.0931   63.5127   70.6307 H   0  0  0  0  0  0  0  0  0  0  0  0
    1.2783   62.9169   68.4340 H   0  0  0  0  0  0  0  0  0  0  0  0
    3.5325   62.0671   67.8154 H   0  0  0  0  0  0  0  0  0  0  0  0
    5.5031   62.5794   69.2535 H   0  0  0  0  0  0  0  0  0  0  0  0
    5.2115   63.9463   71.3191 H   0  0  0  0  0  0  0  0  0  0  0  0
    2.9592   64.7969   71.9495 H   0  0  0  0  0  0  0  0  0  0  0  0
   -0.8222   64.9299   68.9975 H   0  0  0  0  0  0  0  0  0  0  0  0
   -2.0686   66.5490   68.3794 H   0  0  0  0  0  0  0  0  0  0  0  0
   -2.9335   67.7946   66.3971 H   0  0  0  0  0  0  0  0  0  0  0  0
   -1.3848   69.1707   65.0118 H   0  0  0  0  0  0  0  0  0  0  0  0
    1.0301   69.3252   65.6136 H   0  0  0  0  0  0  0  0  0  0  0  0
    1.9034   68.0844   67.5958 H   0  0  0  0  0  0  0  0  0  0  0  0
   -3.1420   58.7244   77.1205 H   0  0  0  0  0  0  0  0  0  0  0  0
   -5.2881   59.1760   75.9314 H   0  0  0  0  0  0  0  0  0  0  0  0
   -5.8150   61.4767   75.1306 H   0  0  0  0  0  0  0  0  0  0  0  0
   -4.1978   63.3351   75.5175 H   0  0  0  0  0  0  0  0  0  0  0  0
   -2.0497   62.8932   76.7042 H   0  0  0  0  0  0  0  0  0  0  0  0
   -1.0879   56.5450   80.0480 H   0  0  0  0  0  0  0  0  0  0  0  0
   -0.8181   57.6081   78.6254 H   0  0  0  0  0  0  0  0  0  0  0  0
   -0.1804   55.9288   78.6254 H   0  0  0  0  0  0  0  0  0  0  0  0
    2.4607   56.0127   72.1730 H   0  0  0  0  0  0  0  0  0  0  0  0
    1.7144   56.5248   70.6214 H   0  0  0  0  0  0  0  0  0  0  0  0
    3.3101   55.6999   70.6214 H   0  0  0  0  0  0  0  0  0  0  0  0
  2  1  1  0
  3  2  2  0
  4  2  1  0
  4  5  1  6
  6  4  1  0
  7  6  1  0
  8  7  1  0
  9  8  1  0
 10  9  1  0
 10  4  1  0
 11 10  1  0
 12 11  1  0
 13 12  1  0
 14  1  1  0
 14 13  1  0
 15 14  2  0
 16 15  1  0
 17 15  1  0
 18 17  1  0
 18 12  1  0
 19 13  1  0
 20 13  1  0
 21  9  1  0
 22 21  1  0
 22  8  1  0
 12 23  1  6
 24  6  1  0
 25 17  1  0
 26 25  1  0
 27 26  2  0
 28 26  1  0
 29 28  1  0
 30 28  1  0
 31 30  1  0
 32 31  2  0
 33 32  1  0
 34 33  2  0
 35 34  1  0
 36 35  2  0
 36 31  1  0
 37 30  1  0
 38 37  1  0
 39 38  2  0
 40 38  1  0
 41 40  2  0
 42 41  1  0
 43 42  2  0
 44 43  1  0
 45 40  1  0
 45 44  2  0
 46 11  1  0
 47 46  1  0
 48 47  2  0
 49 47  1  0
 50 49  2  0
 51 50  1  0
 52 51  2  0
 53 52  1  0
 54 53  2  0
 54 49  1  0
  9 55  1  1
 56 55  1  0
 57 56  2  0
 58 56  1  0
 59  1  1  0
 61 60  1  0
 61 59  1  0
 62 61  2  0
  1 63  1  6
  5 64  1  0
  5 65  1  0
  5 66  1  0
  6 67  1  1
  7 68  1  0
  7 69  1  0
  8 70  1  1
 10 71  1  1
 11 72  1  1
 16 73  1  0
 16 74  1  0
 16 75  1  0
 17 76  1  1
 18 77  1  0
 18 78  1  0
 19 79  1  0
 19 80  1  0
 19 81  1  0
 20 82  1  0
 20 83  1  0
 20 84  1  0
 21 85  1  0
 21 86  1  0
 23 87  1  0
 24 88  1  0
 28 89  1  1
 29 90  1  0
 30 91  1  1
 32 92  1  0
 33 93  1  0
 34 94  1  0
 35 95  1  0
 36 96  1  0
 37 97  1  0
 41 98  1  0
 42 99  1  0
 43100  1  0
 44101  1  0
 45102  1  0
 50103  1  0
 51104  1  0
 52105  1  0
 53106  1  0
 54107  1  0
 58108  1  0
 58109  1  0
 58110  1  0
 60111  1  0
 60112  1  0
 60113  1  0
M  END
>  <score>  (2) 
-8.147

$$$$
=
     RDKit          3D

113119  0  0  0  0  0  0  0  0999 V2000
   -4.5720   59.1720   75.0420 C   0  0  1  0  0  0  0  0  0  0  0  0
   -5.2070   60.6340   75.0080 C   0  0  0  0  0  0  0  0  0  0  0  0
   -5.7180   60.9970   73.9300 O   0  0  0  0  0  0  0  0  0  0  0  0
   -5.2240   61.6630   76.2270 C   0  0  2  0  0  0  0  0  0  0  0  0
   -5.5800   60.9190   77.5390 C   0  0  0  0  0  0  0  0  0  0  0  0
   -6.5010   62.5710   75.9090 C   0  0  2  0  0  0  0  0  0  0  0  0
   -6.8910   63.5240   77.0350 C   0  0  0  0  0  0  0  0  0  0  0  0
   -5.7240   64.3510   77.5290 C   0  0  2  0  0  0  0  0  0  0  0  0
   -4.2560   64.0040   77.1210 C   0  0  2  0  0  0  0  0  0  0  0  0
   -3.9800   62.7610   76.2020 C   0  0  1  0  0  0  0  0  0  0  0  0
   -2.3840   62.4350   76.3420 C   0  0  1  0  0  0  0  0  0  0  0  0
   -2.0490   60.9520   76.2680 C   0  0  1  0  0  0  0  0  0  0  0  0
   -2.2480   60.3020   74.8200 C   0  0  0  0  0  0  0  0  0  0  0  0
   -3.0460   59.0770   75.2430 C   0  0  0  0  0  0  0  0  0  0  0  0
   -2.3910   58.2080   76.0800 C   0  0  0  0  0  0  0  0  0  0  0  0
   -2.9180   56.8680   76.5100 C   0  0  0  0  0  0  0  0  0  0  0  0
   -1.1370   58.6890   76.9070 C   0  0  2  0  0  0  0  0  0  0  0  0
   -0.8020   60.2520   76.8370 C   0  0  0  0  0  0  0  0  0  0  0  0
   -2.7920   61.1640   73.6450 C   0  0  0  0  0  0  0  0  0  0  0  0
   -0.9140   59.8420   74.0970 C   0  0  0  0  0  0  0  0  0  0  0  0
   -4.0680   63.7850   78.6460 C   0  0  0  0  0  0  0  0  0  0  0  0
   -5.4520   64.0440   78.9230 O   0  0  0  0  0  0  0  0  0  0  0  0
   -3.0020   60.5280   77.2910 O   0  0  0  0  0  0  0  0  0  0  0  0
   -7.6640   61.7660   75.6630 O   0  0  0  0  0  0  0  0  0  0  0  0
   -0.0070   57.8850   76.5460 O   0  0  0  0  0  0  0  0  0  0  0  0
    0.9500   57.7380   77.5080 C   0  0  0  0  0  0  0  0  0  0  0  0
    0.7260   57.4680   78.6820 O   0  0  0  0  0  0  0  0  0  0  0  0
    2.3450   57.9050   76.8980 C   0  0  2  0  0  0  0  0  0  0  0  0
    2.6790   59.2710   76.6030 O   0  0  0  0  0  0  0  0  0  0  0  0
    2.5010   57.0150   75.6350 C   0  0  2  0  0  0  0  0  0  0  0  0
    2.7920   57.8230   74.3710 C   0  0  0  0  0  0  0  0  0  0  0  0
    1.9030   57.7330   73.2860 C   0  0  0  0  0  0  0  0  0  0  0  0
    2.1440   58.4350   72.1020 C   0  0  0  0  0  0  0  0  0  0  0  0
    3.2780   59.2350   71.9830 C   0  0  0  0  0  0  0  0  0  0  0  0
    4.1720   59.3320   73.0460 C   0  0  0  0  0  0  0  0  0  0  0  0
    3.9340   58.6300   74.2300 C   0  0  0  0  0  0  0  0  0  0  0  0
    1.3950   56.0820   75.4340 N   0  0  0  0  0  0  0  0  0  0  0  0
    1.6310   54.7780   75.0500 C   0  0  0  0  0  0  0  0  0  0  0  0
    2.7500   54.3450   74.7980 O   0  0  0  0  0  0  0  0  0  0  0  0
    0.4460   53.8790   75.0020 C   0  0  0  0  0  0  0  0  0  0  0  0
   -0.6410   54.0400   75.8730 C   0  0  0  0  0  0  0  0  0  0  0  0
   -1.7330   53.1740   75.7930 C   0  0  0  0  0  0  0  0  0  0  0  0
   -1.7490   52.1540   74.8410 C   0  0  0  0  0  0  0  0  0  0  0  0
   -0.6780   52.0000   73.9610 C   0  0  0  0  0  0  0  0  0  0  0  0
    0.4160   52.8650   74.0380 C   0  0  0  0  0  0  0  0  0  0  0  0
   -1.6730   63.2060   75.3520 O   0  0  0  0  0  0  0  0  0  0  0  0
   -0.3740   63.4790   75.6220 C   0  0  0  0  0  0  0  0  0  0  0  0
    0.0630   63.8250   76.7080 O   0  0  0  0  0  0  0  0  0  0  0  0
    0.4620   63.3040   74.4050 C   0  0  0  0  0  0  0  0  0  0  0  0
    0.1160   63.8650   73.1680 C   0  0  0  0  0  0  0  0  0  0  0  0
    0.9400   63.6730   72.0560 C   0  0  0  0  0  0  0  0  0  0  0  0
    2.1090   62.9210   72.1740 C   0  0  0  0  0  0  0  0  0  0  0  0
    2.4570   62.3590   73.4010 C   0  0  0  0  0  0  0  0  0  0  0  0
    1.6370   62.5490   74.5140 C   0  0  0  0  0  0  0  0  0  0  0  0
   -3.4560   65.1390   76.6530 O   0  0  0  0  0  0  0  0  0  0  0  0
   -4.0980   66.3360   76.5440 C   0  0  0  0  0  0  0  0  0  0  0  0
   -4.0940   67.2130   77.3950 O   0  0  0  0  0  0  0  0  0  0  0  0
   -4.7780   66.4420   75.2150 C   0  0  0  0  0  0  0  0  0  0  0  0
   -5.2700   58.3710   76.0020 O   0  0  0  0  0  0  0  0  0  0  0  0
   -6.3740   57.4750   74.1450 C   0  0  0  0  0  0  0  0  0  0  0  0
   -6.4590   57.8580   75.5910 C   0  0  0  0  0  0  0  0  0  0  0  0
   -7.4550   57.7230   76.2840 O   0  0  0  0  0  0  0  0  0  0  0  0
   -4.7079   58.7844   74.0215 H   0  0  0  0  0  0  0  0  0  0  0  0
   -5.2853   61.5350   78.4014 H   0  0  0  0  0  0  0  0  0  0  0  0
   -6.6639   60.7346   77.5734 H   0  0  0  0  0  0  0  0  0  0  0  0
   -5.0435   59.9593   77.5734 H   0  0  0  0  0  0  0  0  0  0  0  0
   -6.1934   63.1518   75.0269 H   0  0  0  0  0  0  0  0  0  0  0  0
   -7.6731   64.2038   76.6659 H   0  0  0  0  0  0  0  0  0  0  0  0
   -7.2475   62.9144   77.8784 H   0  0  0  0  0  0  0  0  0  0  0  0
   -6.0773   65.3250   77.1594 H   0  0  0  0  0  0  0  0  0  0  0  0
   -4.0608   62.8716   75.1106 H   0  0  0  0  0  0  0  0  0  0  0  0
   -2.0605   62.7304   77.3510 H   0  0  0  0  0  0  0  0  0  0  0  0
   -2.9380   56.8172   77.6086 H   0  0  0  0  0  0  0  0  0  0  0  0
   -3.9367   56.7317   76.1181 H   0  0  0  0  0  0  0  0  0  0  0  0
   -2.2651   56.0742   76.1181 H   0  0  0  0  0  0  0  0  0  0  0  0
   -1.3989   58.5459   77.9657 H   0  0  0  0  0  0  0  0  0  0  0  0
   -0.5786   60.6363   77.8432 H   0  0  0  0  0  0  0  0  0  0  0  0
    0.0774   60.4380   76.2029 H   0  0  0  0  0  0  0  0  0  0  0  0
   -3.3383   62.0297   74.0476 H   0  0  0  0  0  0  0  0  0  0  0  0
   -1.9516   61.5153   73.0282 H   0  0  0  0  0  0  0  0  0  0  0  0
   -3.4707   60.5566   73.0282 H   0  0  0  0  0  0  0  0  0  0  0  0
   -0.1584   59.5815   74.8528 H   0  0  0  0  0  0  0  0  0  0  0  0
   -1.1218   58.9636   73.4683 H   0  0  0  0  0  0  0  0  0  0  0  0
   -0.5363   60.6618   73.4683 H   0  0  0  0  0  0  0  0  0  0  0  0
   -3.7525   62.7639   78.9066 H   0  0  0  0  0  0  0  0  0  0  0  0
   -3.3008   64.3677   79.1769 H   0  0  0  0  0  0  0  0  0  0  0  0
   -2.6201   60.6979   78.1884 H   0  0  0  0  0  0  0  0  0  0  0  0
   -8.0628   61.4899   76.5260 H   0  0  0  0  0  0  0  0  0  0  0  0
    3.0598   57.5728   77.6653 H   0  0  0  0  0  0  0  0  0  0  0  0
    2.8012   59.7709   77.4487 H   0  0  0  0  0  0  0  0  0  0  0  0
    3.3893   56.3983   75.8366 H   0  0  0  0  0  0  0  0  0  0  0  0
    1.0060   57.1018   73.3700 H   0  0  0  0  0  0  0  0  0  0  0  0
    1.4372   58.3557   71.2629 H   0  0  0  0  0  0  0  0  0  0  0  0
    3.4668   59.7888   71.0515 H   0  0  0  0  0  0  0  0  0  0  0  0
    5.0681   59.9631   72.9532 H   0  0  0  0  0  0  0  0  0  0  0  0
    4.6490   58.7098   75.0621 H   0  0  0  0  0  0  0  0  0  0  0  0
    0.4269   56.4017   75.5808 H   0  0  0  0  0  0  0  0  0  0  0  0
   -0.6333   54.8483   76.6190 H   0  0  0  0  0  0  0  0  0  0  0  0
   -2.5822   53.2959   76.4815 H   0  0  0  0  0  0  0  0  0  0  0  0
   -2.6084   51.4697   74.7844 H   0  0  0  0  0  0  0  0  0  0  0  0
   -0.6948   51.1987   73.2076 H   0  0  0  0  0  0  0  0  0  0  0  0
    1.2569   52.7488   73.3385 H   0  0  0  0  0  0  0  0  0  0  0  0
   -0.8059   64.4575   73.0725 H   0  0  0  0  0  0  0  0  0  0  0  0
    0.6666   64.1152   71.0866 H   0  0  0  0  0  0  0  0  0  0  0  0
    2.7568   62.7714   71.2977 H   0  0  0  0  0  0  0  0  0  0  0  0
    3.3786   61.7653   73.4921 H   0  0  0  0  0  0  0  0  0  0  0  0
    1.9144   62.1041   75.4810 H   0  0  0  0  0  0  0  0  0  0  0  0
   -5.8545   66.6098   75.3663 H   0  0  0  0  0  0  0  0  0  0  0  0
   -4.3513   67.2845   74.6509 H   0  0  0  0  0  0  0  0  0  0  0  0
   -4.6280   65.5096   74.6509 H   0  0  0  0  0  0  0  0  0  0  0  0
   -6.1363   56.4041   74.0627 H   0  0  0  0  0  0  0  0  0  0  0  0
   -7.3384   57.6752   73.6553 H   0  0  0  0  0  0  0  0  0  0  0  0
   -5.5848   58.0644   73.6553 H   0  0  0  0  0  0  0  0  0  0  0  0
  2  1  1  0
  3  2  2  0
  4  2  1  0
  4  5  1  1
  6  4  1  0
  7  6  1  0
  8  7  1  0
  9  8  1  0
 10  9  1  0
 10  4  1  0
 11 10  1  0
 12 11  1  0
 13 12  1  0
 14  1  1  0
 14 13  1  0
 15 14  2  0
 16 15  1  0
 17 15  1  0
 18 17  1  0
 18 12  1  0
 19 13  1  0
 20 13  1  0
 21  9  1  0
 22 21  1  0
 22  8  1  0
 12 23  1  1
 24  6  1  0
 25 17  1  0
 26 25  1  0
 27 26  2  0
 28 26  1  0
 29 28  1  0
 30 28  1  0
 31 30  1  0
 32 31  2  0
 33 32  1  0
 34 33  2  0
 35 34  1  0
 36 35  2  0
 36 31  1  0
 37 30  1  0
 38 37  1  0
 39 38  2  0
 40 38  1  0
 41 40  2  0
 42 41  1  0
 43 42  2  0
 44 43  1  0
 45 40  1  0
 45 44  2  0
 46 11  1  0
 47 46  1  0
 48 47  2  0
 49 47  1  0
 50 49  2  0
 51 50  1  0
 52 51  2  0
 53 52  1  0
 54 53  2  0
 54 49  1  0
  9 55  1  6
 56 55  1  0
 57 56  2  0
 58 56  1  0
 59  1  1  0
 61 60  1  0
 61 59  1  0
 62 61  2  0
  1 63  1  6
  5 64  1  0
  5 65  1  0
  5 66  1  0
  6 67  1  6
  7 68  1  0
  7 69  1  0
  8 70  1  1
 10 71  1  6
 11 72  1  1
 16 73  1  0
 16 74  1  0
 16 75  1  0
 17 76  1  1
 18 77  1  0
 18 78  1  0
 19 79  1  0
 19 80  1  0
 19 81  1  0
 20 82  1  0
 20 83  1  0
 20 84  1  0
 21 85  1  0
 21 86  1  0
 23 87  1  0
 24 88  1  0
 28 89  1  1
 29 90  1  0
 30 91  1  1
 32 92  1  0
 33 93  1  0
 34 94  1  0
 35 95  1  0
 36 96  1  0
 37 97  1  0
 41 98  1  0
 42 99  1  0
 43100  1  0
 44101  1  0
 45102  1  0
 50103  1  0
 51104  1  0
 52105  1  0
 53106  1  0
 54107  1  0
 58108  1  0
 58109  1  0
 58110  1  0
 60111  1  0
 60112  1  0
 60113  1  0
M  END
>  <score>  (3) 
-7.969

$$$$
=
     RDKit          3D

113119  0  0  0  0  0  0  0  0999 V2000
   -3.4520   63.6200   77.8530 C   0  0  1  0  0  0  0  0  0  0  0  0
   -5.0300   63.4250   77.9740 C   0  0  0  0  0  0  0  0  0  0  0  0
   -5.4980   63.3650   79.1290 O   0  0  0  0  0  0  0  0  0  0  0  0
   -6.0420   63.2850   76.7500 C   0  0  2  0  0  0  0  0  0  0  0  0
   -5.6800   64.3130   75.6480 C   0  0  0  0  0  0  0  0  0  0  0  0
   -7.4210   63.8090   77.3650 C   0  0  2  0  0  0  0  0  0  0  0  0
   -8.5380   63.9880   76.3410 C   0  0  0  0  0  0  0  0  0  0  0  0
   -8.7400   62.7620   75.4780 C   0  0  2  0  0  0  0  0  0  0  0  0
   -7.6940   61.6020   75.4640 C   0  0  2  0  0  0  0  0  0  0  0  0
   -6.3960   61.7160   76.3410 C   0  0  1  0  0  0  0  0  0  0  0  0
   -5.3550   60.5940   75.7660 C   0  0  1  0  0  0  0  0  0  0  0  0
   -3.8940   61.0170   75.8350 C   0  0  1  0  0  0  0  0  0  0  0  0
   -3.2960   61.0870   77.3170 C   0  0  0  0  0  0  0  0  0  0  0  0
   -2.6510   62.4610   77.2230 C   0  0  0  0  0  0  0  0  0  0  0  0
   -1.6510   62.5800   76.2900 C   0  0  0  0  0  0  0  0  0  0  0  0
   -0.7740   63.7890   76.1190 C   0  0  0  0  0  0  0  0  0  0  0  0
   -1.5380   61.5450   75.1060 C   0  0  2  0  0  0  0  0  0  0  0  0
   -2.7330   60.4890   74.9750 C   0  0  0  0  0  0  0  0  0  0  0  0
   -4.2070   60.7840   78.5410 C   0  0  0  0  0  0  0  0  0  0  0  0
   -2.1890   60.0020   77.6500 C   0  0  0  0  0  0  0  0  0  0  0  0
   -7.5460   61.9850   73.9680 C   0  0  0  0  0  0  0  0  0  0  0  0
   -8.4630   63.0820   74.0880 O   0  0  0  0  0  0  0  0  0  0  0  0
   -4.0740   62.3010   75.1620 O   0  0  0  0  0  0  0  0  0  0  0  0
   -7.2590   65.0920   77.9890 O   0  0  0  0  0  0  0  0  0  0  0  0
   -0.2610   60.8980   75.1750 O   0  0  0  0  0  0  0  0  0  0  0  0
    0.4930   60.9480   74.0380 C   0  0  0  0  0  0  0  0  0  0  0  0
    0.0480   60.8620   72.9000 O   0  0  0  0  0  0  0  0  0  0  0  0
    1.9660   61.1800   74.3880 C   0  0  2  0  0  0  0  0  0  0  0  0
    2.4580   62.4610   73.9620 O   0  0  0  0  0  0  0  0  0  0  0  0
    2.8510   60.0350   73.8230 C   0  0  2  0  0  0  0  0  0  0  0  0
    3.5700   60.4230   72.5320 C   0  0  0  0  0  0  0  0  0  0  0  0
    2.8970   60.2730   71.3060 C   0  0  0  0  0  0  0  0  0  0  0  0
    3.5250   60.5900   70.1010 C   0  0  0  0  0  0  0  0  0  0  0  0
    4.8360   61.0600   70.0980 C   0  0  0  0  0  0  0  0  0  0  0  0
    5.5200   61.2110   71.3020 C   0  0  0  0  0  0  0  0  0  0  0  0
    4.8940   60.8930   72.5100 C   0  0  0  0  0  0  0  0  0  0  0  0
    2.1460   58.7620   73.6860 N   0  0  0  0  0  0  0  0  0  0  0  0
    2.4190   57.7090   74.5340 C   0  0  0  0  0  0  0  0  0  0  0  0
    3.2900   57.7500   75.3950 O   0  0  0  0  0  0  0  0  0  0  0  0
    1.5530   56.5060   74.3920 C   0  0  0  0  0  0  0  0  0  0  0  0
    1.9150   55.2660   74.9370 C   0  0  0  0  0  0  0  0  0  0  0  0
    1.0720   54.1630   74.7790 C   0  0  0  0  0  0  0  0  0  0  0  0
   -0.1320   54.2960   74.0890 C   0  0  0  0  0  0  0  0  0  0  0  0
   -0.5040   55.5320   73.5600 C   0  0  0  0  0  0  0  0  0  0  0  0
    0.3350   56.6370   73.7150 C   0  0  0  0  0  0  0  0  0  0  0  0
   -5.5970   59.3520   76.4550 O   0  0  0  0  0  0  0  0  0  0  0  0
   -5.3750   58.2180   75.7470 C   0  0  0  0  0  0  0  0  0  0  0  0
   -5.9110   57.9320   74.6880 O   0  0  0  0  0  0  0  0  0  0  0  0
   -4.3810   57.3550   76.4380 C   0  0  0  0  0  0  0  0  0  0  0  0
   -3.2080   56.9090   75.8120 C   0  0  0  0  0  0  0  0  0  0  0  0
   -2.3060   56.1030   76.5090 C   0  0  0  0  0  0  0  0  0  0  0  0
   -2.5680   55.7390   77.8300 C   0  0  0  0  0  0  0  0  0  0  0  0
   -3.7320   56.1790   78.4570 C   0  0  0  0  0  0  0  0  0  0  0  0
   -4.6370   56.9840   77.7640 C   0  0  0  0  0  0  0  0  0  0  0  0
   -8.2560   60.2560   75.6060 O   0  0  0  0  0  0  0  0  0  0  0  0
   -9.0290   60.0290   76.7040 C   0  0  0  0  0  0  0  0  0  0  0  0
   -8.6060   59.8730   77.8390 O   0  0  0  0  0  0  0  0  0  0  0  0
  -10.4790   60.0350   76.3290 C   0  0  0  0  0  0  0  0  0  0  0  0
   -3.1740   64.8580   77.1890 O   0  0  0  0  0  0  0  0  0  0  0  0
   -3.9170   67.0740   77.0770 C   0  0  0  0  0  0  0  0  0  0  0  0
   -3.3560   65.9810   77.9340 C   0  0  0  0  0  0  0  0  0  0  0  0
   -3.1030   66.0960   79.1230 O   0  0  0  0  0  0  0  0  0  0  0  0
   -3.0911   63.6315   78.8921 H   0  0  0  0  0  0  0  0  0  0  0  0
   -5.3494   65.2517   76.1166 H   0  0  0  0  0  0  0  0  0  0  0  0
   -4.8697   63.9101   75.0227 H   0  0  0  0  0  0  0  0  0  0  0  0
   -6.5640   64.5068   75.0227 H   0  0  0  0  0  0  0  0  0  0  0  0
   -7.7016   63.0222   78.0807 H   0  0  0  0  0  0  0  0  0  0  0  0
   -9.4754   64.2002   76.8760 H   0  0  0  0  0  0  0  0  0  0  0  0
   -8.2516   64.8178   75.6781 H   0  0  0  0  0  0  0  0  0  0  0  0
   -9.7270   62.4760   75.8704 H   0  0  0  0  0  0  0  0  0  0  0  0
   -6.4336   61.4185   77.3993 H   0  0  0  0  0  0  0  0  0  0  0  0
   -5.5455   60.4686   74.6899 H   0  0  0  0  0  0  0  0  0  0  0  0
   -0.4908   64.1794   77.1077 H   0  0  0  0  0  0  0  0  0  0  0  0
    0.1323   63.5088   75.5621 H   0  0  0  0  0  0  0  0  0  0  0  0
   -1.3217   64.5635   75.5621 H   0  0  0  0  0  0  0  0  0  0  0  0
   -1.6316   62.1321   74.1805 H   0  0  0  0  0  0  0  0  0  0  0  0
   -3.0488   60.4038   73.9248 H   0  0  0  0  0  0  0  0  0  0  0  0
   -2.4152   59.4917   75.3131 H   0  0  0  0  0  0  0  0  0  0  0  0
   -3.6474   60.9701   79.4696 H   0  0  0  0  0  0  0  0  0  0  0  0
   -5.0923   61.4361   78.5095 H   0  0  0  0  0  0  0  0  0  0  0  0
   -4.5254   59.7316   78.5095 H   0  0  0  0  0  0  0  0  0  0  0  0
   -2.0885   59.9035   78.7410 H   0  0  0  0  0  0  0  0  0  0  0  0
   -2.4839   59.0334   77.2200 H   0  0  0  0  0  0  0  0  0  0  0  0
   -1.2265   60.3163   77.2200 H   0  0  0  0  0  0  0  0  0  0  0  0
   -6.5266   62.2938   73.6933 H   0  0  0  0  0  0  0  0  0  0  0  0
   -7.7306   61.2181   73.2013 H   0  0  0  0  0  0  0  0  0  0  0  0
   -4.1744   63.0169   75.8384 H   0  0  0  0  0  0  0  0  0  0  0  0
   -7.2726   64.9844   78.9730 H   0  0  0  0  0  0  0  0  0  0  0  0
    2.0273   61.1762   75.4863 H   0  0  0  0  0  0  0  0  0  0  0  0
    2.6702   63.0135   74.7556 H   0  0  0  0  0  0  0  0  0  0  0  0
    3.6248   59.8752   74.5883 H   0  0  0  0  0  0  0  0  0  0  0  0
    1.8619   59.9009   71.2971 H   0  0  0  0  0  0  0  0  0  0  0  0
    2.9834   60.4684   69.1513 H   0  0  0  0  0  0  0  0  0  0  0  0
    5.3298   61.3112   69.1477 H   0  0  0  0  0  0  0  0  0  0  0  0
    6.5557   61.5816   71.3018 H   0  0  0  0  0  0  0  0  0  0  0  0
    5.4442   61.0120   73.4550 H   0  0  0  0  0  0  0  0  0  0  0  0
    1.4369   58.6499   72.9474 H   0  0  0  0  0  0  0  0  0  0  0  0
    2.8612   55.1616   75.4881 H   0  0  0  0  0  0  0  0  0  0  0  0
    1.3589   53.1880   75.1998 H   0  0  0  0  0  0  0  0  0  0  0  0
   -0.7904   53.4241   73.9614 H   0  0  0  0  0  0  0  0  0  0  0  0
   -1.4574   55.6359   73.0213 H   0  0  0  0  0  0  0  0  0  0  0  0
    0.0381   57.6132   73.3040 H   0  0  0  0  0  0  0  0  0  0  0  0
   -2.9984   57.1946   74.7706 H   0  0  0  0  0  0  0  0  0  0  0  0
   -1.3868   55.7542   76.0156 H   0  0  0  0  0  0  0  0  0  0  0  0
   -1.8553   55.1043   78.3770 H   0  0  0  0  0  0  0  0  0  0  0  0
   -3.9376   55.8917   79.4987 H   0  0  0  0  0  0  0  0  0  0  0  0
   -5.5556   57.3287   78.2614 H   0  0  0  0  0  0  0  0  0  0  0  0
  -11.0936   60.0375   77.2413 H   0  0  0  0  0  0  0  0  0  0  0  0
  -10.7004   60.9341   75.7352 H   0  0  0  0  0  0  0  0  0  0  0  0
  -10.7079   59.1378   75.7352 H   0  0  0  0  0  0  0  0  0  0  0  0
   -4.3253   67.8694   77.7178 H   0  0  0  0  0  0  0  0  0  0  0  0
   -3.1198   67.4877   76.4419 H   0  0  0  0  0  0  0  0  0  0  0  0
   -4.7179   66.6675   76.4419 H   0  0  0  0  0  0  0  0  0  0  0  0
  2  1  1  0
  3  2  2  0
  4  2  1  0
  4  5  1  6
  6  4  1  0
  7  6  1  0
  8  7  1  0
  9  8  1  0
 10  9  1  0
 10  4  1  0
 11 10  1  0
 12 11  1  0
 13 12  1  0
 14  1  1  0
 14 13  1  0
 15 14  2  0
 16 15  1  0
 17 15  1  0
 18 17  1  0
 18 12  1  0
 19 13  1  0
 20 13  1  0
 21  9  1  0
 22 21  1  0
 22  8  1  0
 12 23  1  6
 24  6  1  0
 25 17  1  0
 26 25  1  0
 27 26  2  0
 28 26  1  0
 29 28  1  0
 30 28  1  0
 31 30  1  0
 32 31  2  0
 33 32  1  0
 34 33  2  0
 35 34  1  0
 36 35  2  0
 36 31  1  0
 37 30  1  0
 38 37  1  0
 39 38  2  0
 40 38  1  0
 41 40  2  0
 42 41  1  0
 43 42  2  0
 44 43  1  0
 45 40  1  0
 45 44  2  0
 46 11  1  0
 47 46  1  0
 48 47  2  0
 49 47  1  0
 50 49  2  0
 51 50  1  0
 52 51  2  0
 53 52  1  0
 54 53  2  0
 54 49  1  0
  9 55  1  6
 56 55  1  0
 57 56  2  0
 58 56  1  0
 59  1  1  0
 61 60  1  0
 61 59  1  0
 62 61  2  0
  1 63  1  1
  5 64  1  0
  5 65  1  0
  5 66  1  0
  6 67  1  1
  7 68  1  0
  7 69  1  0
  8 70  1  6
 10 71  1  1
 11 72  1  6
 16 73  1  0
 16 74  1  0
 16 75  1  0
 17 76  1  6
 18 77  1  0
 18 78  1  0
 19 79  1  0
 19 80  1  0
 19 81  1  0
 20 82  1  0
 20 83  1  0
 20 84  1  0
 21 85  1  0
 21 86  1  0
 23 87  1  0
 24 88  1  0
 28 89  1  1
 29 90  1  0
 30 91  1  1
 32 92  1  0
 33 93  1  0
 34 94  1  0
 35 95  1  0
 36 96  1  0
 37 97  1  0
 41 98  1  0
 42 99  1  0
 43100  1  0
 44101  1  0
 45102  1  0
 50103  1  0
 51104  1  0
 52105  1  0
 53106  1  0
 54107  1  0
 58108  1  0
 58109  1  0
 58110  1  0
 60111  1  0
 60112  1  0
 60113  1  0
M  END
>  <score>  (4) 
-7.801

$$$$
=
     RDKit          3D

113119  0  0  0  0  0  0  0  0999 V2000
    1.4770   58.3670   75.1690 C   0  0  1  0  0  0  0  0  0  0  0  0
    1.2190   56.7990   75.0370 C   0  0  0  0  0  0  0  0  0  0  0  0
    1.2560   56.3230   73.8850 O   0  0  0  0  0  0  0  0  0  0  0  0
    0.9060   55.8080   76.2460 C   0  0  2  0  0  0  0  0  0  0  0  0
    1.8310   56.1330   77.4460 C   0  0  0  0  0  0  0  0  0  0  0  0
    1.4240   54.3990   75.6960 C   0  0  2  0  0  0  0  0  0  0  0  0
    1.4430   53.2860   76.7380 C   0  0  0  0  0  0  0  0  0  0  0  0
    0.1260   53.1510   77.4720 C   0  0  2  0  0  0  0  0  0  0  0  0
   -0.9780   54.2510   77.3600 C   0  0  2  0  0  0  0  0  0  0  0  0
   -0.7120   55.5320   76.4920 C   0  0  1  0  0  0  0  0  0  0  0  0
   -1.8360   56.6310   76.9430 C   0  0  1  0  0  0  0  0  0  0  0  0
   -1.3380   58.0700   76.9100 C   0  0  1  0  0  0  0  0  0  0  0  0
   -1.0880   58.6480   75.4400 C   0  0  0  0  0  0  0  0  0  0  0  0
    0.2990   59.2290   75.6710 C   0  0  0  0  0  0  0  0  0  0  0  0
    0.3690   60.2310   76.6060 C   0  0  0  0  0  0  0  0  0  0  0  0
    1.5950   61.0520   76.8960 C   0  0  0  0  0  0  0  0  0  0  0  0
   -0.7760   60.4060   77.6760 C   0  0  2  0  0  0  0  0  0  0  0  0
   -1.8960   59.2630   77.7040 C   0  0  0  0  0  0  0  0  0  0  0  0
   -1.3060   57.7400   74.1960 C   0  0  0  0  0  0  0  0  0  0  0  0
   -2.0780   59.8020   74.9900 C   0  0  0  0  0  0  0  0  0  0  0  0
   -0.7440   54.3960   78.8870 C   0  0  0  0  0  0  0  0  0  0  0  0
    0.3140   53.4260   78.8860 O   0  0  0  0  0  0  0  0  0  0  0  0
   -0.1400   57.8370   77.7130 O   0  0  0  0  0  0  0  0  0  0  0  0
    2.7700   54.4940   75.2070 O   0  0  0  0  0  0  0  0  0  0  0  0
   -1.3500   61.7110   77.5340 O   0  0  0  0  0  0  0  0  0  0  0  0
   -1.0140   62.6170   78.4980 C   0  0  0  0  0  0  0  0  0  0  0  0
   -0.0890   62.4850   79.2910 O   0  0  0  0  0  0  0  0  0  0  0  0
   -1.9250   63.8450   78.4120 C   0  0  2  0  0  0  0  0  0  0  0  0
   -3.2210   63.6360   78.9950 O   0  0  0  0  0  0  0  0  0  0  0  0
   -2.0540   64.3300   76.9420 C   0  0  2  0  0  0  0  0  0  0  0  0
   -3.5060   64.5330   76.5100 C   0  0  0  0  0  0  0  0  0  0  0  0
   -4.2550   63.4170   76.0980 C   0  0  0  0  0  0  0  0  0  0  0  0
   -5.5770   63.5600   75.6700 C   0  0  0  0  0  0  0  0  0  0  0  0
   -6.1700   64.8190   75.6440 C   0  0  0  0  0  0  0  0  0  0  0  0
   -5.4420   65.9360   76.0450 C   0  0  0  0  0  0  0  0  0  0  0  0
   -4.1190   65.7960   76.4710 C   0  0  0  0  0  0  0  0  0  0  0  0
   -1.3170   63.5070   75.9860 N   0  0  0  0  0  0  0  0  0  0  0  0
   -0.5920   64.0880   74.9660 C   0  0  0  0  0  0  0  0  0  0  0  0
   -0.5700   65.2960   74.7630 O   0  0  0  0  0  0  0  0  0  0  0  0
    0.2250   63.1660   74.1300 C   0  0  0  0  0  0  0  0  0  0  0  0
    1.6270   63.1820   74.1660 C   0  0  0  0  0  0  0  0  0  0  0  0
    2.3540   62.2990   73.3650 C   0  0  0  0  0  0  0  0  0  0  0  0
    1.6890   61.3960   72.5360 C   0  0  0  0  0  0  0  0  0  0  0  0
    0.2950   61.3650   72.5100 C   0  0  0  0  0  0  0  0  0  0  0  0
   -0.4370   62.2460   73.3100 C   0  0  0  0  0  0  0  0  0  0  0  0
   -3.0100   56.4410   76.1310 O   0  0  0  0  0  0  0  0  0  0  0  0
   -4.2040   56.6130   76.7490 C   0  0  0  0  0  0  0  0  0  0  0  0
   -4.6280   55.9290   77.6670 O   0  0  0  0  0  0  0  0  0  0  0  0
   -4.9410   57.7590   76.1540 C   0  0  0  0  0  0  0  0  0  0  0  0
   -5.2860   57.8090   74.7960 C   0  0  0  0  0  0  0  0  0  0  0  0
   -5.9830   58.9080   74.2900 C   0  0  0  0  0  0  0  0  0  0  0  0
   -6.3390   59.9600   75.1340 C   0  0  0  0  0  0  0  0  0  0  0  0
   -5.9980   59.9170   76.4850 C   0  0  0  0  0  0  0  0  0  0  0  0
   -5.3010   58.8200   76.9950 C   0  0  0  0  0  0  0  0  0  0  0  0
   -2.3280   53.7510   77.0830 O   0  0  0  0  0  0  0  0  0  0  0  0
   -2.4660   52.9250   76.0090 C   0  0  0  0  0  0  0  0  0  0  0  0
   -1.8130   53.0000   74.9790 O   0  0  0  0  0  0  0  0  0  0  0  0
   -3.5070   51.8850   76.2830 C   0  0  0  0  0  0  0  0  0  0  0  0
    2.6520   58.5930   75.9550 O   0  0  0  0  0  0  0  0  0  0  0  0
    3.9470   59.0560   74.0630 C   0  0  0  0  0  0  0  0  0  0  0  0
    3.8330   58.2980   75.3500 C   0  0  0  0  0  0  0  0  0  0  0  0
    4.6820   57.5330   75.7790 O   0  0  0  0  0  0  0  0  0  0  0  0
    1.6132   58.7160   74.1347 H   0  0  0  0  0  0  0  0  0  0  0  0
    1.2922   55.9437   78.3861 H   0  0  0  0  0  0  0  0  0  0  0  0
    2.7265   55.4956   77.4019 H   0  0  0  0  0  0  0  0  0  0  0  0
    2.1310   57.1904   77.4019 H   0  0  0  0  0  0  0  0  0  0  0  0
    0.7022   54.1483   74.9047 H   0  0  0  0  0  0  0  0  0  0  0  0
    1.6634   52.3342   76.2324 H   0  0  0  0  0  0  0  0  0  0  0  0
    2.2133   53.5395   77.4812 H   0  0  0  0  0  0  0  0  0  0  0  0
   -0.1651   52.1745   77.0577 H   0  0  0  0  0  0  0  0  0  0  0  0
   -0.9001   55.4963   75.4088 H   0  0  0  0  0  0  0  0  0  0  0  0
   -2.0805   56.4579   78.0014 H   0  0  0  0  0  0  0  0  0  0  0  0
    1.7278   61.1409   77.9843 H   0  0  0  0  0  0  0  0  0  0  0  0
    2.4768   60.5616   76.4579 H   0  0  0  0  0  0  0  0  0  0  0  0
    1.4773   62.0541   76.4579 H   0  0  0  0  0  0  0  0  0  0  0  0
   -0.2926   60.2953   78.6578 H   0  0  0  0  0  0  0  0  0  0  0  0
   -2.1039   58.9626   78.7416 H   0  0  0  0  0  0  0  0  0  0  0  0
   -2.8370   59.6235   77.2630 H   0  0  0  0  0  0  0  0  0  0  0  0
   -1.5510   56.7195   74.5254 H   0  0  0  0  0  0  0  0  0  0  0  0
   -2.1339   58.1389   73.5915 H   0  0  0  0  0  0  0  0  0  0  0  0
   -0.3872   57.7195   73.5915 H   0  0  0  0  0  0  0  0  0  0  0  0
   -2.4986   60.2922   75.8804 H   0  0  0  0  0  0  0  0  0  0  0  0
   -1.5294   60.5420   74.3887 H   0  0  0  0  0  0  0  0  0  0  0  0
   -2.8928   59.3724   74.3887 H   0  0  0  0  0  0  0  0  0  0  0  0
   -0.4158   55.4023   79.1865 H   0  0  0  0  0  0  0  0  0  0  0  0
   -1.5937   54.2562   79.5714 H   0  0  0  0  0  0  0  0  0  0  0  0
   -0.3730   57.8823   78.6741 H   0  0  0  0  0  0  0  0  0  0  0  0
    3.3967   54.5382   75.9721 H   0  0  0  0  0  0  0  0  0  0  0  0
   -1.4419   64.6308   79.0112 H   0  0  0  0  0  0  0  0  0  0  0  0
   -3.1447   63.6483   79.9820 H   0  0  0  0  0  0  0  0  0  0  0  0
   -1.5716   65.3185   76.9295 H   0  0  0  0  0  0  0  0  0  0  0  0
   -3.7941   62.4183   76.1128 H   0  0  0  0  0  0  0  0  0  0  0  0
   -6.1503   62.6763   75.3530 H   0  0  0  0  0  0  0  0  0  0  0  0
   -7.2112   64.9312   75.3075 H   0  0  0  0  0  0  0  0  0  0  0  0
   -5.9099   66.9314   76.0263 H   0  0  0  0  0  0  0  0  0  0  0  0
   -3.5505   66.6857   76.7796 H   0  0  0  0  0  0  0  0  0  0  0  0
   -1.3389   62.4810   76.0745 H   0  0  0  0  0  0  0  0  0  0  0  0
    2.1531   63.8891   74.8242 H   0  0  0  0  0  0  0  0  0  0  0  0
    3.4536   62.3157   73.3879 H   0  0  0  0  0  0  0  0  0  0  0  0
    2.2652   60.7067   71.9013 H   0  0  0  0  0  0  0  0  0  0  0  0
   -0.2277   60.6476   71.8603 H   0  0  0  0  0  0  0  0  0  0  0  0
   -1.5365   62.2162   73.2951 H   0  0  0  0  0  0  0  0  0  0  0  0
   -5.0071   56.9809   74.1279 H   0  0  0  0  0  0  0  0  0  0  0  0
   -6.2518   58.9443   73.2240 H   0  0  0  0  0  0  0  0  0  0  0  0
   -6.8892   60.8241   74.7332 H   0  0  0  0  0  0  0  0  0  0  0  0
   -6.2782   60.7477   77.1495 H   0  0  0  0  0  0  0  0  0  0  0  0
   -5.0334   58.7887   78.0615 H   0  0  0  0  0  0  0  0  0  0  0  0
   -3.6277   51.7644   77.3697 H   0  0  0  0  0  0  0  0  0  0  0  0
   -4.4639   52.1985   75.8403 H   0  0  0  0  0  0  0  0  0  0  0  0
   -3.1944   50.9278   75.8403 H   0  0  0  0  0  0  0  0  0  0  0  0
    4.1074   60.1227   74.2787 H   0  0  0  0  0  0  0  0  0  0  0  0
    4.7968   58.6674   73.4826 H   0  0  0  0  0  0  0  0  0  0  0  0
    3.0205   58.9346   73.4826 H   0  0  0  0  0  0  0  0  0  0  0  0
  2  1  1  0
  3  2  2  0
  4  2  1  0
  4  5  1  1
  6  4  1  0
  7  6  1  0
  8  7  1  0
  9  8  1  0
 10  9  1  0
 10  4  1  0
 11 10  1  0
 12 11  1  0
 13 12  1  0
 14  1  1  0
 14 13  1  0
 15 14  2  0
 16 15  1  0
 17 15  1  0
 18 17  1  0
 18 12  1  0
 19 13  1  0
 20 13  1  0
 21  9  1  0
 22 21  1  0
 22  8  1  0
 12 23  1  1
 24  6  1  0
 25 17  1  0
 26 25  1  0
 27 26  2  0
 28 26  1  0
 29 28  1  0
 30 28  1  0
 31 30  1  0
 32 31  2  0
 33 32  1  0
 34 33  2  0
 35 34  1  0
 36 35  2  0
 36 31  1  0
 37 30  1  0
 38 37  1  0
 39 38  2  0
 40 38  1  0
 41 40  2  0
 42 41  1  0
 43 42  2  0
 44 43  1  0
 45 40  1  0
 45 44  2  0
 46 11  1  0
 47 46  1  0
 48 47  2  0
 49 47  1  0
 50 49  2  0
 51 50  1  0
 52 51  2  0
 53 52  1  0
 54 53  2  0
 54 49  1  0
  9 55  1  1
 56 55  1  0
 57 56  2  0
 58 56  1  0
 59  1  1  0
 61 60  1  0
 61 59  1  0
 62 61  2  0
  1 63  1  6
  5 64  1  0
  5 65  1  0
  5 66  1  0
  6 67  1  6
  7 68  1  0
  7 69  1  0
  8 70  1  1
 10 71  1  6
 11 72  1  1
 16 73  1  0
 16 74  1  0
 16 75  1  0
 17 76  1  1
 18 77  1  0
 18 78  1  0
 19 79  1  0
 19 80  1  0
 19 81  1  0
 20 82  1  0
 20 83  1  0
 20 84  1  0
 21 85  1  0
 21 86  1  0
 23 87  1  0
 24 88  1  0
 28 89  1  1
 29 90  1  0
 30 91  1  1
 32 92  1  0
 33 93  1  0
 34 94  1  0
 35 95  1  0
 36 96  1  0
 37 97  1  0
 41 98  1  0
 42 99  1  0
 43100  1  0
 44101  1  0
 45102  1  0
 50103  1  0
 51104  1  0
 52105  1  0
 53106  1  0
 54107  1  0
 58108  1  0
 58109  1  0
 58110  1  0
 60111  1  0
 60112  1  0
 60113  1  0
M  END
>  <score>  (5) 
-7.647

$$$$
=
     RDKit          3D

113119  0  0  0  0  0  0  0  0999 V2000
    1.7720   59.8750   72.2960 C   0  0  1  0  0  0  0  0  0  0  0  0
    1.7390   59.1980   73.7390 C   0  0  0  0  0  0  0  0  0  0  0  0
    1.2680   58.0450   73.8040 O   0  0  0  0  0  0  0  0  0  0  0  0
    2.2400   59.8780   75.0920 C   0  0  2  0  0  0  0  0  0  0  0  0
    3.5770   60.6210   74.8430 C   0  0  0  0  0  0  0  0  0  0  0  0
    2.6300   58.6210   76.0000 C   0  0  2  0  0  0  0  0  0  0  0  0
    3.3490   58.9810   77.2960 C   0  0  0  0  0  0  0  0  0  0  0  0
    2.6210   60.0430   78.0910 C   0  0  2  0  0  0  0  0  0  0  0  0
    1.4510   60.8640   77.4630 C   0  0  2  0  0  0  0  0  0  0  0  0
    1.0340   60.6040   75.9710 C   0  0  1  0  0  0  0  0  0  0  0  0
    0.1290   61.8880   75.5180 C   0  0  1  0  0  0  0  0  0  0  0  0
    0.3040   62.2800   74.0570 C   0  0  1  0  0  0  0  0  0  0  0  0
   -0.3160   61.2370   73.0150 C   0  0  0  0  0  0  0  0  0  0  0  0
    0.8850   61.1210   72.0880 C   0  0  0  0  0  0  0  0  0  0  0  0
    1.2530   62.2800   71.4530 C   0  0  0  0  0  0  0  0  0  0  0  0
    2.3080   62.3800   70.3870 C   0  0  0  0  0  0  0  0  0  0  0  0
    0.7900   63.6790   72.0160 C   0  0  2  0  0  0  0  0  0  0  0  0
    0.0370   63.6590   73.4280 C   0  0  0  0  0  0  0  0  0  0  0  0
   -0.9800   59.9260   73.5250 C   0  0  0  0  0  0  0  0  0  0  0  0
   -1.5680   61.7620   72.1970 C   0  0  0  0  0  0  0  0  0  0  0  0
    2.3930   62.0710   77.7100 C   0  0  0  0  0  0  0  0  0  0  0  0
    3.4480   61.2320   78.2060 O   0  0  0  0  0  0  0  0  0  0  0  0
    1.7620   62.3540   74.0910 O   0  0  0  0  0  0  0  0  0  0  0  0
    3.5130   57.7290   75.3020 O   0  0  0  0  0  0  0  0  0  0  0  0
    0.0210   64.3530   71.0120 O   0  0  0  0  0  0  0  0  0  0  0  0
    0.3600   65.6540   70.7760 C   0  0  0  0  0  0  0  0  0  0  0  0
    0.3080   66.5520   71.6080 O   0  0  0  0  0  0  0  0  0  0  0  0
    0.8640   65.8190   69.3390 C   0  0  2  0  0  0  0  0  0  0  0  0
    2.2090   65.3500   69.1500 O   0  0  0  0  0  0  0  0  0  0  0  0
    0.7250   67.2940   68.8750 C   0  0  2  0  0  0  0  0  0  0  0  0
   -0.4910   67.5220   67.9780 C   0  0  0  0  0  0  0  0  0  0  0  0
   -0.4060   68.4690   66.9430 C   0  0  0  0  0  0  0  0  0  0  0  0
   -1.5000   68.7270   66.1150 C   0  0  0  0  0  0  0  0  0  0  0  0
   -2.6990   68.0460   66.3100 C   0  0  0  0  0  0  0  0  0  0  0  0
   -2.8040   67.1070   67.3330 C   0  0  0  0  0  0  0  0  0  0  0  0
   -1.7110   66.8480   68.1630 C   0  0  0  0  0  0  0  0  0  0  0  0
    1.9430   67.8400   68.2800 N   0  0  0  0  0  0  0  0  0  0  0  0
    2.1940   69.1970   68.3050 C   0  0  0  0  0  0  0  0  0  0  0  0
    1.4040   70.0170   68.7590 O   0  0  0  0  0  0  0  0  0  0  0  0
    3.5210   69.6310   67.7890 C   0  0  0  0  0  0  0  0  0  0  0  0
    3.9180   69.3860   66.4670 C   0  0  0  0  0  0  0  0  0  0  0  0
    5.1720   69.8120   66.0250 C   0  0  0  0  0  0  0  0  0  0  0  0
    6.0280   70.4880   66.8950 C   0  0  0  0  0  0  0  0  0  0  0  0
    5.6310   70.7480   68.2060 C   0  0  0  0  0  0  0  0  0  0  0  0
    4.3770   70.3250   68.6520 C   0  0  0  0  0  0  0  0  0  0  0  0
   -1.2460   61.6160   75.8500 O   0  0  0  0  0  0  0  0  0  0  0  0
   -2.0110   62.6880   76.1730 C   0  0  0  0  0  0  0  0  0  0  0  0
   -1.5990   63.7220   76.6740 O   0  0  0  0  0  0  0  0  0  0  0  0
   -3.4360   62.4360   75.8330 C   0  0  0  0  0  0  0  0  0  0  0  0
   -4.4630   63.3180   76.1980 C   0  0  0  0  0  0  0  0  0  0  0  0
   -5.7860   63.0350   75.8500 C   0  0  0  0  0  0  0  0  0  0  0  0
   -6.0890   61.8740   75.1380 C   0  0  0  0  0  0  0  0  0  0  0  0
   -5.0720   60.9930   74.7730 C   0  0  0  0  0  0  0  0  0  0  0  0
   -3.7490   61.2720   75.1190 C   0  0  0  0  0  0  0  0  0  0  0  0
    0.2460   60.9630   78.2910 O   0  0  0  0  0  0  0  0  0  0  0  0
   -0.1810   59.8160   78.8890 C   0  0  0  0  0  0  0  0  0  0  0  0
   -0.5540   58.8140   78.2990 O   0  0  0  0  0  0  0  0  0  0  0  0
   -0.0930   59.9440   80.3780 C   0  0  0  0  0  0  0  0  0  0  0  0
    3.1290   60.1410   71.9240 O   0  0  0  0  0  0  0  0  0  0  0  0
    3.0860   57.9550   71.0920 C   0  0  0  0  0  0  0  0  0  0  0  0
    3.6440   59.3390   70.9550 C   0  0  0  0  0  0  0  0  0  0  0  0
    4.4410   59.6810   70.0970 O   0  0  0  0  0  0  0  0  0  0  0  0
    1.3114   59.1319   71.6284 H   0  0  0  0  0  0  0  0  0  0  0  0
    4.0390   60.8777   75.8077 H   0  0  0  0  0  0  0  0  0  0  0  0
    4.2568   59.9713   74.2723 H   0  0  0  0  0  0  0  0  0  0  0  0
    3.3842   61.5414   74.2723 H   0  0  0  0  0  0  0  0  0  0  0  0
    1.6598   58.1590   76.2351 H   0  0  0  0  0  0  0  0  0  0  0  0
    3.4348   58.0753   77.9143 H   0  0  0  0  0  0  0  0  0  0  0  0
    4.3364   59.3848   77.0276 H   0  0  0  0  0  0  0  0  0  0  0  0
    2.3217   59.4040   78.9349 H   0  0  0  0  0  0  0  0  0  0  0  0
    0.3350   59.7858   75.7430 H   0  0  0  0  0  0  0  0  0  0  0  0
    0.4809   62.7696   76.0738 H   0  0  0  0  0  0  0  0  0  0  0  0
    3.2976   62.4738   70.8581 H   0  0  0  0  0  0  0  0  0  0  0  0
    2.2840   61.4756   69.7614 H   0  0  0  0  0  0  0  0  0  0  0  0
    2.1145   63.2638   69.7614 H   0  0  0  0  0  0  0  0  0  0  0  0
    1.7126   64.2336   72.2425 H   0  0  0  0  0  0  0  0  0  0  0  0
    0.4309   64.4541   74.0782 H   0  0  0  0  0  0  0  0  0  0  0  0
   -1.0419   63.8321   73.3016 H   0  0  0  0  0  0  0  0  0  0  0  0
   -0.9829   59.9203   74.6250 H   0  0  0  0  0  0  0  0  0  0  0  0
   -2.0146   59.8711   73.1553 H   0  0  0  0  0  0  0  0  0  0  0  0
   -0.4121   59.0595   73.1553 H   0  0  0  0  0  0  0  0  0  0  0  0
   -2.3512   62.0904   72.8961 H   0  0  0  0  0  0  0  0  0  0  0  0
   -1.2635   62.6082   71.5636 H   0  0  0  0  0  0  0  0  0  0  0  0
   -1.9582   60.9517   71.5636 H   0  0  0  0  0  0  0  0  0  0  0  0
    2.6598   62.6142   76.7914 H   0  0  0  0  0  0  0  0  0  0  0  0
    2.0380   62.9051   78.3332 H   0  0  0  0  0  0  0  0  0  0  0  0
    2.0698   62.3696   75.0318 H   0  0  0  0  0  0  0  0  0  0  0  0
    4.0350   57.2016   75.9573 H   0  0  0  0  0  0  0  0  0  0  0  0
    0.2243   65.1812   68.7113 H   0  0  0  0  0  0  0  0  0  0  0  0
    2.6338   65.2019   70.0319 H   0  0  0  0  0  0  0  0  0  0  0  0
    0.5555   67.8631   69.8010 H   0  0  0  0  0  0  0  0  0  0  0  0
    0.5357   69.0145   66.7831 H   0  0  0  0  0  0  0  0  0  0  0  0
   -1.4148   69.4691   65.3075 H   0  0  0  0  0  0  0  0  0  0  0  0
   -3.5610   68.2493   65.6576 H   0  0  0  0  0  0  0  0  0  0  0  0
   -3.7502   66.5679   67.4878 H   0  0  0  0  0  0  0  0  0  0  0  0
   -1.8058   66.1078   68.9712 H   0  0  0  0  0  0  0  0  0  0  0  0
    2.6220   67.2048   67.8369 H   0  0  0  0  0  0  0  0  0  0  0  0
    3.2418   68.8584   65.7782 H   0  0  0  0  0  0  0  0  0  0  0  0
    5.4856   69.6144   64.9893 H   0  0  0  0  0  0  0  0  0  0  0  0
    7.0181   70.8165   66.5459 H   0  0  0  0  0  0  0  0  0  0  0  0
    6.3052   71.2860   68.8887 H   0  0  0  0  0  0  0  0  0  0  0  0
    4.0612   70.5377   69.6840 H   0  0  0  0  0  0  0  0  0  0  0  0
   -4.2266   64.2341   76.7592 H   0  0  0  0  0  0  0  0  0  0  0  0
   -6.5900   63.7284   76.1377 H   0  0  0  0  0  0  0  0  0  0  0  0
   -7.1314   61.6536   74.8644 H   0  0  0  0  0  0  0  0  0  0  0  0
   -5.3124   60.0777   74.2122 H   0  0  0  0  0  0  0  0  0  0  0  0
   -2.9486   60.5750   74.8299 H   0  0  0  0  0  0  0  0  0  0  0  0
   -0.6558   59.1254   80.8503 H   0  0  0  0  0  0  0  0  0  0  0  0
    0.9608   59.8915   80.6889 H   0  0  0  0  0  0  0  0  0  0  0  0
   -0.5194   60.9092   80.6889 H   0  0  0  0  0  0  0  0  0  0  0  0
    2.9849   57.7043   72.1583 H   0  0  0  0  0  0  0  0  0  0  0  0
    2.0987   57.9082   70.6091 H   0  0  0  0  0  0  0  0  0  0  0  0
    3.7647   57.2365   70.6091 H   0  0  0  0  0  0  0  0  0  0  0  0
  2  1  1  0
  3  2  2  0
  4  2  1  0
  4  5  1  6
  6  4  1  0
  7  6  1  0
  8  7  1  0
  9  8  1  0
 10  9  1  0
 10  4  1  0
 11 10  1  0
 12 11  1  0
 13 12  1  0
 14  1  1  0
 14 13  1  0
 15 14  2  0
 16 15  1  0
 17 15  1  0
 18 17  1  0
 18 12  1  0
 19 13  1  0
 20 13  1  0
 21  9  1  0
 22 21  1  0
 22  8  1  0
 12 23  1  6
 24  6  1  0
 25 17  1  0
 26 25  1  0
 27 26  2  0
 28 26  1  0
 29 28  1  0
 30 28  1  0
 31 30  1  0
 32 31  2  0
 33 32  1  0
 34 33  2  0
 35 34  1  0
 36 35  2  0
 36 31  1  0
 37 30  1  0
 38 37  1  0
 39 38  2  0
 40 38  1  0
 41 40  2  0
 42 41  1  0
 43 42  2  0
 44 43  1  0
 45 40  1  0
 45 44  2  0
 46 11  1  0
 47 46  1  0
 48 47  2  0
 49 47  1  0
 50 49  2  0
 51 50  1  0
 52 51  2  0
 53 52  1  0
 54 53  2  0
 54 49  1  0
  9 55  1  1
 56 55  1  0
 57 56  2  0
 58 56  1  0
 59  1  1  0
 61 60  1  0
 61 59  1  0
 62 61  2  0
  1 63  1  6
  5 64  1  0
  5 65  1  0
  5 66  1  0
  6 67  1  1
  7 68  1  0
  7 69  1  0
  8 70  1  1
 10 71  1  1
 11 72  1  1
 16 73  1  0
 16 74  1  0
 16 75  1  0
 17 76  1  1
 18 77  1  0
 18 78  1  0
 19 79  1  0
 19 80  1  0
 19 81  1  0
 20 82  1  0
 20 83  1  0
 20 84  1  0
 21 85  1  0
 21 86  1  0
 23 87  1  0
 24 88  1  0
 28 89  1  6
 29 90  1  0
 30 91  1  1
 32 92  1  0
 33 93  1  0
 34 94  1  0
 35 95  1  0
 36 96  1  0
 37 97  1  0
 41 98  1  0
 42 99  1  0
 43100  1  0
 44101  1  0
 45102  1  0
 50103  1  0
 51104  1  0
 52105  1  0
 53106  1  0
 54107  1  0
 58108  1  0
 58109  1  0
 58110  1  0
 60111  1  0
 60112  1  0
 60113  1  0
M  END
>  <score>  (6) 
-7.617

$$$$
=
     RDKit          3D

113119  0  0  0  0  0  0  0  0999 V2000
   -3.8450   64.2800   77.6890 C   0  0  1  0  0  0  0  0  0  0  0  0
   -5.0280   63.2220   77.8440 C   0  0  0  0  0  0  0  0  0  0  0  0
   -5.4590   63.0320   78.9980 O   0  0  0  0  0  0  0  0  0  0  0  0
   -5.6830   62.3870   76.6540 C   0  0  2  0  0  0  0  0  0  0  0  0
   -5.8980   63.3030   75.4230 C   0  0  0  0  0  0  0  0  0  0  0  0
   -7.1540   62.0800   77.2010 C   0  0  2  0  0  0  0  0  0  0  0  0
   -8.0920   61.4630   76.1690 C   0  0  0  0  0  0  0  0  0  0  0  0
   -7.4890   60.2600   75.4770 C   0  0  2  0  0  0  0  0  0  0  0  0
   -5.9690   59.9270   75.6120 C   0  0  2  0  0  0  0  0  0  0  0  0
   -5.0410   60.8680   76.4600 C   0  0  1  0  0  0  0  0  0  0  0  0
   -3.5060   60.5020   76.0340 C   0  0  1  0  0  0  0  0  0  0  0  0
   -2.5630   61.6970   76.0380 C   0  0  1  0  0  0  0  0  0  0  0  0
   -2.2230   62.2650   77.4940 C   0  0  0  0  0  0  0  0  0  0  0  0
   -2.4800   63.7390   77.2150 C   0  0  0  0  0  0  0  0  0  0  0  0
   -1.6660   64.3090   76.2690 C   0  0  0  0  0  0  0  0  0  0  0  0
   -1.6330   65.7740   75.9340 C   0  0  0  0  0  0  0  0  0  0  0  0
   -0.8920   63.4060   75.2330 C   0  0  2  0  0  0  0  0  0  0  0  0
   -1.2500   61.8470   75.2500 C   0  0  0  0  0  0  0  0  0  0  0  0
   -2.8810   61.6300   78.7530 C   0  0  0  0  0  0  0  0  0  0  0  0
   -0.7220   62.0680   77.9630 C   0  0  0  0  0  0  0  0  0  0  0  0
   -5.9600   60.1550   74.0780 C   0  0  0  0  0  0  0  0  0  0  0  0
   -7.3470   60.5230   74.0560 O   0  0  0  0  0  0  0  0  0  0  0  0
   -3.3980   62.5550   75.2010 O   0  0  0  0  0  0  0  0  0  0  0  0
   -7.8040   63.2790   77.6480 O   0  0  0  0  0  0  0  0  0  0  0  0
    0.5150   63.6320   75.3800 O   0  0  0  0  0  0  0  0  0  0  0  0
    1.3290   62.6400   74.9140 C   0  0  0  0  0  0  0  0  0  0  0  0
    1.6700   61.6550   75.5560 O   0  0  0  0  0  0  0  0  0  0  0  0
    1.7090   62.9090   73.4540 C   0  0  2  0  0  0  0  0  0  0  0  0
    0.5800   63.1960   72.6150 O   0  0  0  0  0  0  0  0  0  0  0  0
    2.5390   61.7300   72.8780 C   0  0  2  0  0  0  0  0  0  0  0  0
    2.9700   61.9600   71.4300 C   0  0  0  0  0  0  0  0  0  0  0  0
    3.6840   63.1280   71.1090 C   0  0  0  0  0  0  0  0  0  0  0  0
    4.0750   63.3910   69.7950 C   0  0  0  0  0  0  0  0  0  0  0  0
    3.7590   62.4930   68.7790 C   0  0  0  0  0  0  0  0  0  0  0  0
    3.0480   61.3320   69.0770 C   0  0  0  0  0  0  0  0  0  0  0  0
    2.6540   61.0680   70.3910 C   0  0  0  0  0  0  0  0  0  0  0  0
    1.9020   60.4250   73.0490 N   0  0  0  0  0  0  0  0  0  0  0  0
    2.6260   59.3400   73.4980 C   0  0  0  0  0  0  0  0  0  0  0  0
    3.8310   59.3820   73.7170 O   0  0  0  0  0  0  0  0  0  0  0  0
    1.8530   58.0950   73.7620 C   0  0  0  0  0  0  0  0  0  0  0  0
    0.5450   57.9220   73.2880 C   0  0  0  0  0  0  0  0  0  0  0  0
   -0.1430   56.7370   73.5580 C   0  0  0  0  0  0  0  0  0  0  0  0
    0.4720   55.7230   74.2920 C   0  0  0  0  0  0  0  0  0  0  0  0
    1.7780   55.8840   74.7510 C   0  0  0  0  0  0  0  0  0  0  0  0
    2.4710   57.0670   74.4820 C   0  0  0  0  0  0  0  0  0  0  0  0
   -3.0390   59.4350   76.8840 O   0  0  0  0  0  0  0  0  0  0  0  0
   -2.4530   58.3840   76.2620 C   0  0  0  0  0  0  0  0  0  0  0  0
   -2.9160   57.7810   75.3070 O   0  0  0  0  0  0  0  0  0  0  0  0
   -1.1530   58.0530   76.9060 C   0  0  0  0  0  0  0  0  0  0  0  0
   -0.0620   58.9340   76.8920 C   0  0  0  0  0  0  0  0  0  0  0  0
    1.1350   58.5750   77.5160 C   0  0  0  0  0  0  0  0  0  0  0  0
    1.2480   57.3400   78.1540 C   0  0  0  0  0  0  0  0  0  0  0  0
    0.1670   56.4600   78.1700 C   0  0  0  0  0  0  0  0  0  0  0  0
   -1.0310   56.8150   77.5480 C   0  0  0  0  0  0  0  0  0  0  0  0
   -5.6650   58.5300   75.9360 O   0  0  0  0  0  0  0  0  0  0  0  0
   -6.5880   57.8590   76.6790 C   0  0  0  0  0  0  0  0  0  0  0  0
   -7.4710   57.1470   76.2260 O   0  0  0  0  0  0  0  0  0  0  0  0
   -6.3430   58.0870   78.1390 C   0  0  0  0  0  0  0  0  0  0  0  0
   -4.2820   65.3670   76.8650 O   0  0  0  0  0  0  0  0  0  0  0  0
   -4.0970   67.2200   78.2810 C   0  0  0  0  0  0  0  0  0  0  0  0
   -5.0080   66.3290   77.4920 C   0  0  0  0  0  0  0  0  0  0  0  0
   -6.2200   66.4600   77.4330 O   0  0  0  0  0  0  0  0  0  0  0  0
   -3.6329   64.6136   78.7155 H   0  0  0  0  0  0  0  0  0  0  0  0
   -6.1372   64.3219   75.7615 H   0  0  0  0  0  0  0  0  0  0  0  0
   -4.9804   63.3239   74.8168 H   0  0  0  0  0  0  0  0  0  0  0  0
   -6.7291   62.9135   74.8168 H   0  0  0  0  0  0  0  0  0  0  0  0
   -6.9832   61.3619   78.0166 H   0  0  0  0  0  0  0  0  0  0  0  0
   -9.0166   61.1503   76.6763 H   0  0  0  0  0  0  0  0  0  0  0  0
   -8.2875   62.2251   75.4002 H   0  0  0  0  0  0  0  0  0  0  0  0
   -8.1578   59.5012   75.9095 H   0  0  0  0  0  0  0  0  0  0  0  0
   -4.9797   60.7221   77.5486 H   0  0  0  0  0  0  0  0  0  0  0  0
   -3.5112   60.1712   74.9849 H   0  0  0  0  0  0  0  0  0  0  0  0
   -1.6197   66.3624   76.8633 H   0  0  0  0  0  0  0  0  0  0  0  0
   -0.7296   65.9956   75.3468 H   0  0  0  0  0  0  0  0  0  0  0  0
   -2.5255   66.0360   75.3468 H   0  0  0  0  0  0  0  0  0  0  0  0
   -1.2379   63.7218   74.2377 H   0  0  0  0  0  0  0  0  0  0  0  0
   -1.3818   61.4782   74.2221 H   0  0  0  0  0  0  0  0  0  0  0  0
   -0.4427   61.2633   75.7164 H   0  0  0  0  0  0  0  0  0  0  0  0
   -2.4322   62.0631   79.6591 H   0  0  0  0  0  0  0  0  0  0  0  0
   -3.9616   61.8353   78.7449 H   0  0  0  0  0  0  0  0  0  0  0  0
   -2.7143   60.5427   78.7449 H   0  0  0  0  0  0  0  0  0  0  0  0
   -0.6790   62.0624   79.0621 H   0  0  0  0  0  0  0  0  0  0  0  0
   -0.3395   61.1119   77.5762 H   0  0  0  0  0  0  0  0  0  0  0  0
   -0.1057   62.8930   77.5762 H   0  0  0  0  0  0  0  0  0  0  0  0
   -5.2867   60.9643   73.7591 H   0  0  0  0  0  0  0  0  0  0  0  0
   -5.6141   59.3433   73.4212 H   0  0  0  0  0  0  0  0  0  0  0  0
   -3.9596   63.1321   75.7769 H   0  0  0  0  0  0  0  0  0  0  0  0
   -7.8149   63.2991   78.6377 H   0  0  0  0  0  0  0  0  0  0  0  0
    2.3276   63.8186   73.4573 H   0  0  0  0  0  0  0  0  0  0  0  0
   -0.2082   63.3964   73.1795 H   0  0  0  0  0  0  0  0  0  0  0  0
    3.4536   61.7069   73.4888 H   0  0  0  0  0  0  0  0  0  0  0  0
    3.9380   63.8443   71.9042 H   0  0  0  0  0  0  0  0  0  0  0  0
    4.6338   64.3094   69.5618 H   0  0  0  0  0  0  0  0  0  0  0  0
    4.0696   62.6993   67.7441 H   0  0  0  0  0  0  0  0  0  0  0  0
    2.7964   60.6218   68.2756 H   0  0  0  0  0  0  0  0  0  0  0  0
    2.0896   60.1508   70.6151 H   0  0  0  0  0  0  0  0  0  0  0  0
    0.9013   60.3146   72.8317 H   0  0  0  0  0  0  0  0  0  0  0  0
    0.0611   58.7188   72.7040 H   0  0  0  0  0  0  0  0  0  0  0  0
   -1.1714   56.6032   73.1912 H   0  0  0  0  0  0  0  0  0  0  0  0
   -0.0752   54.7938   74.5092 H   0  0  0  0  0  0  0  0  0  0  0  0
    2.2628   55.0803   75.3246 H   0  0  0  0  0  0  0  0  0  0  0  0
    3.5048   57.1903   74.8371 H   0  0  0  0  0  0  0  0  0  0  0  0
   -0.1490   59.9085   76.3892 H   0  0  0  0  0  0  0  0  0  0  0  0
    1.9897   59.2673   77.5042 H   0  0  0  0  0  0  0  0  0  0  0  0
    2.1915   57.0599   78.6453 H   0  0  0  0  0  0  0  0  0  0  0  0
    0.2581   55.4859   78.6728 H   0  0  0  0  0  0  0  0  0  0  0  0
   -1.8828   56.1191   77.5623 H   0  0  0  0  0  0  0  0  0  0  0  0
   -7.0230   57.4542   78.7281 H   0  0  0  0  0  0  0  0  0  0  0  0
   -5.3012   57.8297   78.3805 H   0  0  0  0  0  0  0  0  0  0  0  0
   -6.5249   59.1446   78.3805 H   0  0  0  0  0  0  0  0  0  0  0  0
   -4.2644   67.0562   79.3558 H   0  0  0  0  0  0  0  0  0  0  0  0
   -3.0510   66.9868   78.0331 H   0  0  0  0  0  0  0  0  0  0  0  0
   -4.3070   68.2709   78.0331 H   0  0  0  0  0  0  0  0  0  0  0  0
  2  1  1  0
  3  2  2  0
  4  2  1  0
  4  5  1  6
  6  4  1  0
  7  6  1  0
  8  7  1  0
  9  8  1  0
 10  9  1  0
 10  4  1  0
 11 10  1  0
 12 11  1  0
 13 12  1  0
 14  1  1  0
 14 13  1  0
 15 14  2  0
 16 15  1  0
 17 15  1  0
 18 17  1  0
 18 12  1  0
 19 13  1  0
 20 13  1  0
 21  9  1  0
 22 21  1  0
 22  8  1  0
 12 23  1  6
 24  6  1  0
 25 17  1  0
 26 25  1  0
 27 26  2  0
 28 26  1  0
 29 28  1  0
 30 28  1  0
 31 30  1  0
 32 31  2  0
 33 32  1  0
 34 33  2  0
 35 34  1  0
 36 35  2  0
 36 31  1  0
 37 30  1  0
 38 37  1  0
 39 38  2  0
 40 38  1  0
 41 40  2  0
 42 41  1  0
 43 42  2  0
 44 43  1  0
 45 40  1  0
 45 44  2  0
 46 11  1  0
 47 46  1  0
 48 47  2  0
 49 47  1  0
 50 49  2  0
 51 50  1  0
 52 51  2  0
 53 52  1  0
 54 53  2  0
 54 49  1  0
  9 55  1  6
 56 55  1  0
 57 56  2  0
 58 56  1  0
 59  1  1  0
 61 60  1  0
 61 59  1  0
 62 61  2  0
  1 63  1  1
  5 64  1  0
  5 65  1  0
  5 66  1  0
  6 67  1  1
  7 68  1  0
  7 69  1  0
  8 70  1  6
 10 71  1  1
 11 72  1  6
 16 73  1  0
 16 74  1  0
 16 75  1  0
 17 76  1  6
 18 77  1  0
 18 78  1  0
 19 79  1  0
 19 80  1  0
 19 81  1  0
 20 82  1  0
 20 83  1  0
 20 84  1  0
 21 85  1  0
 21 86  1  0
 23 87  1  0
 24 88  1  0
 28 89  1  1
 29 90  1  0
 30 91  1  1
 32 92  1  0
 33 93  1  0
 34 94  1  0
 35 95  1  0
 36 96  1  0
 37 97  1  0
 41 98  1  0
 42 99  1  0
 43100  1  0
 44101  1  0
 45102  1  0
 50103  1  0
 51104  1  0
 52105  1  0
 53106  1  0
 54107  1  0
 58108  1  0
 58109  1  0
 58110  1  0
 60111  1  0
 60112  1  0
 60113  1  0
M  END
>  <score>  (7) 
-7.425

$$$$
=
     RDKit          3D

113119  0  0  0  0  0  0  0  0999 V2000
    0.6160   61.3300   73.8920 C   0  0  1  0  0  0  0  0  0  0  0  0
    1.0660   59.8020   73.9680 C   0  0  0  0  0  0  0  0  0  0  0  0
    0.9670   59.1380   72.9170 O   0  0  0  0  0  0  0  0  0  0  0  0
    1.6110   59.0620   75.2720 C   0  0  2  0  0  0  0  0  0  0  0  0
    2.6020   59.9840   76.0250 C   0  0  0  0  0  0  0  0  0  0  0  0
    2.5160   57.8920   74.6650 C   0  0  2  0  0  0  0  0  0  0  0  0
    3.3450   57.1390   75.7010 C   0  0  0  0  0  0  0  0  0  0  0  0
    2.5180   56.6570   76.8720 C   0  0  2  0  0  0  0  0  0  0  0  0
    1.0610   57.1720   77.1000 C   0  0  2  0  0  0  0  0  0  0  0  0
    0.4480   58.2270   76.1110 C   0  0  1  0  0  0  0  0  0  0  0  0
   -0.8580   58.8580   76.8670 C   0  0  1  0  0  0  0  0  0  0  0  0
   -1.0970   60.3300   76.5580 C   0  0  1  0  0  0  0  0  0  0  0  0
   -1.5870   60.6190   75.0630 C   0  0  0  0  0  0  0  0  0  0  0  0
   -0.6120   61.7390   74.7310 C   0  0  0  0  0  0  0  0  0  0  0  0
   -0.7250   62.8660   75.5070 C   0  0  0  0  0  0  0  0  0  0  0  0
    0.0230   64.1490   75.2730 C   0  0  0  0  0  0  0  0  0  0  0  0
   -1.4470   62.8020   76.9070 C   0  0  2  0  0  0  0  0  0  0  0  0
   -1.8660   61.3460   77.4200 C   0  0  0  0  0  0  0  0  0  0  0  0
   -1.7330   59.4480   74.0490 C   0  0  0  0  0  0  0  0  0  0  0  0
   -3.0740   61.1530   74.9320 C   0  0  0  0  0  0  0  0  0  0  0  0
    1.6490   57.7320   78.4210 C   0  0  0  0  0  0  0  0  0  0  0  0
    2.9760   57.2890   78.0980 O   0  0  0  0  0  0  0  0  0  0  0  0
    0.2560   60.7760   76.8800 O   0  0  0  0  0  0  0  0  0  0  0  0
    3.4600   58.4050   73.7120 O   0  0  0  0  0  0  0  0  0  0  0  0
   -2.5590   63.7050   76.8990 O   0  0  0  0  0  0  0  0  0  0  0  0
   -2.9610   64.1660   78.1190 C   0  0  0  0  0  0  0  0  0  0  0  0
   -2.2140   64.6250   78.9740 O   0  0  0  0  0  0  0  0  0  0  0  0
   -4.4850   64.0780   78.2430 C   0  0  2  0  0  0  0  0  0  0  0  0
   -4.9950   62.7460   78.0760 O   0  0  0  0  0  0  0  0  0  0  0  0
   -5.1740   65.0590   77.2550 C   0  0  2  0  0  0  0  0  0  0  0  0
   -5.7450   66.2960   77.9480 C   0  0  0  0  0  0  0  0  0  0  0  0
   -4.8880   67.3740   78.2300 C   0  0  0  0  0  0  0  0  0  0  0  0
   -5.3620   68.5130   78.8850 C   0  0  0  0  0  0  0  0  0  0  0  0
   -6.6980   68.5920   79.2710 C   0  0  0  0  0  0  0  0  0  0  0  0
   -7.5600   67.5310   79.0040 C   0  0  0  0  0  0  0  0  0  0  0  0
   -7.0880   66.3910   78.3500 C   0  0  0  0  0  0  0  0  0  0  0  0
   -6.1640   64.4220   76.3890 N   0  0  0  0  0  0  0  0  0  0  0  0
   -6.2860   64.7910   75.0660 C   0  0  0  0  0  0  0  0  0  0  0  0
   -5.6340   65.6960   74.5590 O   0  0  0  0  0  0  0  0  0  0  0  0
   -7.2320   63.9890   74.2420 C   0  0  0  0  0  0  0  0  0  0  0  0
   -8.0670   64.5840   73.2850 C   0  0  0  0  0  0  0  0  0  0  0  0
   -8.9390   63.7930   72.5340 C   0  0  0  0  0  0  0  0  0  0  0  0
   -8.9750   62.4120   72.7280 C   0  0  0  0  0  0  0  0  0  0  0  0
   -8.1350   61.8150   73.6670 C   0  0  0  0  0  0  0  0  0  0  0  0
   -7.2600   62.6010   74.4200 C   0  0  0  0  0  0  0  0  0  0  0  0
   -2.0030   58.0410   76.5560 O   0  0  0  0  0  0  0  0  0  0  0  0
   -2.9980   58.0250   77.4750 C   0  0  0  0  0  0  0  0  0  0  0  0
   -2.8620   57.7500   78.6560 O   0  0  0  0  0  0  0  0  0  0  0  0
   -4.2970   58.3900   76.8490 C   0  0  0  0  0  0  0  0  0  0  0  0
   -5.1930   59.2890   77.4450 C   0  0  0  0  0  0  0  0  0  0  0  0
   -6.3980   59.6000   76.8110 C   0  0  0  0  0  0  0  0  0  0  0  0
   -6.7130   59.0190   75.5840 C   0  0  0  0  0  0  0  0  0  0  0  0
   -5.8270   58.1240   74.9870 C   0  0  0  0  0  0  0  0  0  0  0  0
   -4.6220   57.8090   75.6160 C   0  0  0  0  0  0  0  0  0  0  0  0
    0.0680   56.1280   77.3700 O   0  0  0  0  0  0  0  0  0  0  0  0
    0.0730   55.0490   76.5390 C   0  0  0  0  0  0  0  0  0  0  0  0
   -0.1800   55.0830   75.3440 O   0  0  0  0  0  0  0  0  0  0  0  0
    0.4700   53.8170   77.2910 C   0  0  0  0  0  0  0  0  0  0  0  0
    1.7390   62.1720   74.1770 O   0  0  0  0  0  0  0  0  0  0  0  0
    2.2450   63.0810   72.0810 C   0  0  0  0  0  0  0  0  0  0  0  0
    2.7010   62.2180   73.2180 C   0  0  0  0  0  0  0  0  0  0  0  0
    3.7790   61.6470   73.2620 O   0  0  0  0  0  0  0  0  0  0  0  0
    0.2631   61.4673   72.8592 H   0  0  0  0  0  0  0  0  0  0  0  0
    2.4675   59.8588   77.1095 H   0  0  0  0  0  0  0  0  0  0  0  0
    3.6329   59.7164   75.7501 H   0  0  0  0  0  0  0  0  0  0  0  0
    2.4094   61.0315   75.7501 H   0  0  0  0  0  0  0  0  0  0  0  0
    1.7855   57.2067   74.2102 H   0  0  0  0  0  0  0  0  0  0  0  0
    3.8084   56.2677   75.2151 H   0  0  0  0  0  0  0  0  0  0  0  0
    4.1005   57.8361   76.0924 H   0  0  0  0  0  0  0  0  0  0  0  0
    2.5884   55.5803   76.6580 H   0  0  0  0  0  0  0  0  0  0  0  0
   -0.0183   57.8808   75.1768 H   0  0  0  0  0  0  0  0  0  0  0  0
   -0.6695   58.8412   77.9506 H   0  0  0  0  0  0  0  0  0  0  0  0
    0.2867   64.6013   76.2404 H   0  0  0  0  0  0  0  0  0  0  0  0
    0.9407   63.9398   74.7037 H   0  0  0  0  0  0  0  0  0  0  0  0
   -0.6111   64.8445   74.7037 H   0  0  0  0  0  0  0  0  0  0  0  0
   -0.6959   63.1117   77.6486 H   0  0  0  0  0  0  0  0  0  0  0  0
   -1.5946   61.2255   78.4792 H   0  0  0  0  0  0  0  0  0  0  0  0
   -2.9520   61.1949   77.3319 H   0  0  0  0  0  0  0  0  0  0  0  0
   -1.8510   58.5013   74.5966 H   0  0  0  0  0  0  0  0  0  0  0  0
   -2.6168   59.6185   73.4167 H   0  0  0  0  0  0  0  0  0  0  0  0
   -0.8344   59.3963   73.4167 H   0  0  0  0  0  0  0  0  0  0  0  0
   -3.4986   61.3055   75.9352 H   0  0  0  0  0  0  0  0  0  0  0  0
   -3.0740   62.1073   74.3849 H   0  0  0  0  0  0  0  0  0  0  0  0
   -3.6811   60.4167   74.3849 H   0  0  0  0  0  0  0  0  0  0  0  0
    1.5615   58.8248   78.5112 H   0  0  0  0  0  0  0  0  0  0  0  0
    1.2019   57.4210   79.3767 H   0  0  0  0  0  0  0  0  0  0  0  0
    0.3663   60.8123   77.8632 H   0  0  0  0  0  0  0  0  0  0  0  0
    4.2211   58.8186   74.1913 H   0  0  0  0  0  0  0  0  0  0  0  0
   -4.7281   64.3733   79.2744 H   0  0  0  0  0  0  0  0  0  0  0  0
   -5.1510   62.3385   78.9647 H   0  0  0  0  0  0  0  0  0  0  0  0
   -4.3651   65.4027   76.5935 H   0  0  0  0  0  0  0  0  0  0  0  0
   -3.8308   67.3199   77.9311 H   0  0  0  0  0  0  0  0  0  0  0  0
   -4.6791   69.3490   79.0963 H   0  0  0  0  0  0  0  0  0  0  0  0
   -7.0713   69.4899   79.7853 H   0  0  0  0  0  0  0  0  0  0  0  0
   -8.6151   67.5912   79.3090 H   0  0  0  0  0  0  0  0  0  0  0  0
   -7.7761   65.5571   78.1471 H   0  0  0  0  0  0  0  0  0  0  0  0
   -6.7779   63.6887   76.7715 H   0  0  0  0  0  0  0  0  0  0  0  0
   -8.0351   65.6720   73.1263 H   0  0  0  0  0  0  0  0  0  0  0  0
   -9.5989   64.2598   71.7879 H   0  0  0  0  0  0  0  0  0  0  0  0
   -9.6675   61.7928   72.1389 H   0  0  0  0  0  0  0  0  0  0  0  0
   -8.1614   60.7253   73.8147 H   0  0  0  0  0  0  0  0  0  0  0  0
   -6.5914   62.1283   75.1545 H   0  0  0  0  0  0  0  0  0  0  0  0
   -4.9466   59.7498   78.4129 H   0  0  0  0  0  0  0  0  0  0  0  0
   -7.0997   60.3048   77.2810 H   0  0  0  0  0  0  0  0  0  0  0  0
   -7.6620   59.2671   75.0862 H   0  0  0  0  0  0  0  0  0  0  0  0
   -6.0779   57.6655   74.0191 H   0  0  0  0  0  0  0  0  0  0  0  0
   -3.9248   57.1022   75.1423 H   0  0  0  0  0  0  0  0  0  0  0  0
    0.4075   54.0111   78.3719 H   0  0  0  0  0  0  0  0  0  0  0  0
   -0.2077   52.9918   77.0268 H   0  0  0  0  0  0  0  0  0  0  0  0
    1.5020   53.5428   77.0268 H   0  0  0  0  0  0  0  0  0  0  0  0
    1.7658   63.9879   72.4783 H   0  0  0  0  0  0  0  0  0  0  0  0
    3.1113   63.3639   71.4650 H   0  0  0  0  0  0  0  0  0  0  0  0
    1.5231   62.5247   71.4650 H   0  0  0  0  0  0  0  0  0  0  0  0
  2  1  1  0
  3  2  2  0
  4  2  1  0
  4  5  1  1
  6  4  1  0
  7  6  1  0
  8  7  1  0
  9  8  1  0
 10  9  1  0
 10  4  1  0
 11 10  1  0
 12 11  1  0
 13 12  1  0
 14  1  1  0
 14 13  1  0
 15 14  2  0
 16 15  1  0
 17 15  1  0
 18 17  1  0
 18 12  1  0
 19 13  1  0
 20 13  1  0
 21  9  1  0
 22 21  1  0
 22  8  1  0
 12 23  1  6
 24  6  1  0
 25 17  1  0
 26 25  1  0
 27 26  2  0
 28 26  1  0
 29 28  1  0
 30 28  1  0
 31 30  1  0
 32 31  2  0
 33 32  1  0
 34 33  2  0
 35 34  1  0
 36 35  2  0
 36 31  1  0
 37 30  1  0
 38 37  1  0
 39 38  2  0
 40 38  1  0
 41 40  2  0
 42 41  1  0
 43 42  2  0
 44 43  1  0
 45 40  1  0
 45 44  2  0
 46 11  1  0
 47 46  1  0
 48 47  2  0
 49 47  1  0
 50 49  2  0
 51 50  1  0
 52 51  2  0
 53 52  1  0
 54 53  2  0
 54 49  1  0
  9 55  1  1
 56 55  1  0
 57 56  2  0
 58 56  1  0
 59  1  1  0
 61 60  1  0
 61 59  1  0
 62 61  2  0
  1 63  1  6
  5 64  1  0
  5 65  1  0
  5 66  1  0
  6 67  1  6
  7 68  1  0
  7 69  1  0
  8 70  1  1
 10 71  1  6
 11 72  1  1
 16 73  1  0
 16 74  1  0
 16 75  1  0
 17 76  1  1
 18 77  1  0
 18 78  1  0
 19 79  1  0
 19 80  1  0
 19 81  1  0
 20 82  1  0
 20 83  1  0
 20 84  1  0
 21 85  1  0
 21 86  1  0
 23 87  1  0
 24 88  1  0
 28 89  1  1
 29 90  1  0
 30 91  1  6
 32 92  1  0
 33 93  1  0
 34 94  1  0
 35 95  1  0
 36 96  1  0
 37 97  1  0
 41 98  1  0
 42 99  1  0
 43100  1  0
 44101  1  0
 45102  1  0
 50103  1  0
 51104  1  0
 52105  1  0
 53106  1  0
 54107  1  0
 58108  1  0
 58109  1  0
 58110  1  0
 60111  1  0
 60112  1  0
 60113  1  0
M  END
>  <score>  (8) 
-7.326

$$$$
=
     RDKit          3D

113119  0  0  0  0  0  0  0  0999 V2000
    1.1810   60.9830   73.5980 C   0  0  1  0  0  0  0  0  0  0  0  0
    1.6820   59.5080   73.9410 C   0  0  0  0  0  0  0  0  0  0  0  0
    1.7160   58.6960   72.9950 O   0  0  0  0  0  0  0  0  0  0  0  0
    2.1230   58.9930   75.3840 C   0  0  2  0  0  0  0  0  0  0  0  0
    2.9950   60.0670   76.0830 C   0  0  0  0  0  0  0  0  0  0  0  0
    3.1310   57.8000   75.0440 C   0  0  2  0  0  0  0  0  0  0  0  0
    3.8820   57.2490   76.2530 C   0  0  0  0  0  0  0  0  0  0  0  0
    2.9610   56.8950   77.4000 C   0  0  2  0  0  0  0  0  0  0  0  0
    1.4690   57.3570   77.4120 C   0  0  2  0  0  0  0  0  0  0  0  0
    0.9160   58.2240   76.2250 C   0  0  1  0  0  0  0  0  0  0  0  0
   -0.4830   58.8840   76.7540 C   0  0  1  0  0  0  0  0  0  0  0  0
   -0.7490   60.2820   76.2100 C   0  0  1  0  0  0  0  0  0  0  0  0
   -1.0980   60.3270   74.6500 C   0  0  0  0  0  0  0  0  0  0  0  0
   -0.1410   61.4400   74.2490 C   0  0  0  0  0  0  0  0  0  0  0  0
   -0.3770   62.6580   74.8350 C   0  0  0  0  0  0  0  0  0  0  0  0
    0.3380   63.9340   74.4860 C   0  0  0  0  0  0  0  0  0  0  0  0
   -1.2330   62.7560   76.1560 C   0  0  2  0  0  0  0  0  0  0  0  0
   -1.6420   61.3670   76.8370 C   0  0  0  0  0  0  0  0  0  0  0  0
   -1.0950   59.0170   73.8110 C   0  0  0  0  0  0  0  0  0  0  0  0
   -2.5850   60.7550   74.3020 C   0  0  0  0  0  0  0  0  0  0  0  0
    1.8980   58.1310   78.6850 C   0  0  0  0  0  0  0  0  0  0  0  0
    3.2670   57.7200   78.5560 O   0  0  0  0  0  0  0  0  0  0  0  0
    0.5450   60.8430   76.5880 O   0  0  0  0  0  0  0  0  0  0  0  0
    4.1440   58.2220   74.1190 O   0  0  0  0  0  0  0  0  0  0  0  0
   -2.3740   63.5860   75.9100 O   0  0  0  0  0  0  0  0  0  0  0  0
   -2.6750   64.4900   76.8880 C   0  0  0  0  0  0  0  0  0  0  0  0
   -2.3570   64.3780   78.0660 O   0  0  0  0  0  0  0  0  0  0  0  0
   -3.4190   65.6880   76.2910 C   0  0  2  0  0  0  0  0  0  0  0  0
   -2.7380   66.9370   76.4870 O   0  0  0  0  0  0  0  0  0  0  0  0
   -4.8700   65.7610   76.8400 C   0  0  2  0  0  0  0  0  0  0  0  0
   -5.9200   65.3870   75.7940 C   0  0  0  0  0  0  0  0  0  0  0  0
   -6.3550   64.0530   75.7120 C   0  0  0  0  0  0  0  0  0  0  0  0
   -7.2930   63.6630   74.7540 C   0  0  0  0  0  0  0  0  0  0  0  0
   -7.8100   64.5980   73.8610 C   0  0  0  0  0  0  0  0  0  0  0  0
   -7.3870   65.9230   73.9240 C   0  0  0  0  0  0  0  0  0  0  0  0
   -6.4470   66.3160   74.8800 C   0  0  0  0  0  0  0  0  0  0  0  0
   -5.1880   67.0290   77.4930 N   0  0  0  0  0  0  0  0  0  0  0  0
   -5.0660   67.1700   78.8600 C   0  0  0  0  0  0  0  0  0  0  0  0
   -4.7520   66.2480   79.6030 O   0  0  0  0  0  0  0  0  0  0  0  0
   -5.2880   68.5380   79.4040 C   0  0  0  0  0  0  0  0  0  0  0  0
   -6.5190   69.1960   79.2720 C   0  0  0  0  0  0  0  0  0  0  0  0
   -6.6830   70.4790   79.7990 C   0  0  0  0  0  0  0  0  0  0  0  0
   -5.6280   71.1030   80.4640 C   0  0  0  0  0  0  0  0  0  0  0  0
   -4.4070   70.4450   80.6120 C   0  0  0  0  0  0  0  0  0  0  0  0
   -4.2390   69.1620   80.0880 C   0  0  0  0  0  0  0  0  0  0  0  0
   -1.5580   57.9700   76.4610 O   0  0  0  0  0  0  0  0  0  0  0  0
   -2.5760   57.9330   77.3540 C   0  0  0  0  0  0  0  0  0  0  0  0
   -2.4790   57.5870   78.5210 O   0  0  0  0  0  0  0  0  0  0  0  0
   -3.8470   58.3720   76.7180 C   0  0  0  0  0  0  0  0  0  0  0  0
   -4.6160   59.4290   77.2270 C   0  0  0  0  0  0  0  0  0  0  0  0
   -5.8000   59.8030   76.5880 C   0  0  0  0  0  0  0  0  0  0  0  0
   -6.2210   59.1280   75.4430 C   0  0  0  0  0  0  0  0  0  0  0  0
   -5.4610   58.0770   74.9330 C   0  0  0  0  0  0  0  0  0  0  0  0
   -4.2770   57.6980   75.5680 C   0  0  0  0  0  0  0  0  0  0  0  0
    0.4970   56.3100   77.7390 O   0  0  0  0  0  0  0  0  0  0  0  0
    0.5970   55.1430   77.0440 C   0  0  0  0  0  0  0  0  0  0  0  0
    0.4450   55.0300   75.8370 O   0  0  0  0  0  0  0  0  0  0  0  0
    0.9590   54.0190   77.9640 C   0  0  0  0  0  0  0  0  0  0  0  0
    2.2340   61.9170   73.8590 O   0  0  0  0  0  0  0  0  0  0  0  0
    2.7270   62.5210   71.6530 C   0  0  0  0  0  0  0  0  0  0  0  0
    3.2360   61.9490   72.9410 C   0  0  0  0  0  0  0  0  0  0  0  0
    4.3820   61.5710   73.1240 O   0  0  0  0  0  0  0  0  0  0  0  0
    0.9291   60.9517   72.5277 H   0  0  0  0  0  0  0  0  0  0  0  0
    2.9065   59.9580   77.1740 H   0  0  0  0  0  0  0  0  0  0  0  0
    4.0459   59.9365   75.7855 H   0  0  0  0  0  0  0  0  0  0  0  0
    2.6514   61.0687   75.7855 H   0  0  0  0  0  0  0  0  0  0  0  0
    2.4780   57.0180   74.6292 H   0  0  0  0  0  0  0  0  0  0  0  0
    4.4266   56.3437   75.9465 H   0  0  0  0  0  0  0  0  0  0  0  0
    4.5660   58.0348   76.6061 H   0  0  0  0  0  0  0  0  0  0  0  0
    3.0960   55.8042   77.3550 H   0  0  0  0  0  0  0  0  0  0  0  0
    0.5601   57.7225   75.3129 H   0  0  0  0  0  0  0  0  0  0  0  0
   -0.4033   59.0320   77.8411 H   0  0  0  0  0  0  0  0  0  0  0  0
    0.6300   64.4551   75.4097 H   0  0  0  0  0  0  0  0  0  0  0  0
    1.2370   63.7011   73.8965 H   0  0  0  0  0  0  0  0  0  0  0  0
   -0.3300   64.5792   73.8965 H   0  0  0  0  0  0  0  0  0  0  0  0
   -0.5740   63.2096   76.9110 H   0  0  0  0  0  0  0  0  0  0  0  0
   -1.4740   61.4142   77.9231 H   0  0  0  0  0  0  0  0  0  0  0  0
   -2.7066   61.1453   76.6709 H   0  0  0  0  0  0  0  0  0  0  0  0
   -1.0930   58.1489   74.4866 H   0  0  0  0  0  0  0  0  0  0  0  0
   -1.9931   58.9858   73.1766 H   0  0  0  0  0  0  0  0  0  0  0  0
   -0.1968   58.9900   73.1766 H   0  0  0  0  0  0  0  0  0  0  0  0
   -3.1474   60.9169   75.2334 H   0  0  0  0  0  0  0  0  0  0  0  0
   -2.5710   61.6856   73.7156 H   0  0  0  0  0  0  0  0  0  0  0  0
   -3.0679   59.9594   73.7156 H   0  0  0  0  0  0  0  0  0  0  0  0
    1.7575   59.2190   78.6047 H   0  0  0  0  0  0  0  0  0  0  0  0
    1.3702   57.9355   79.6301 H   0  0  0  0  0  0  0  0  0  0  0  0
    0.6158   60.8737   77.5750 H   0  0  0  0  0  0  0  0  0  0  0  0
    4.9322   58.5504   74.6200 H   0  0  0  0  0  0  0  0  0  0  0  0
   -3.4509   65.5219   75.2041 H   0  0  0  0  0  0  0  0  0  0  0  0
   -2.6425   67.1122   77.4567 H   0  0  0  0  0  0  0  0  0  0  0  0
   -4.9096   64.9937   77.6272 H   0  0  0  0  0  0  0  0  0  0  0  0
   -5.9512   63.3064   76.4117 H   0  0  0  0  0  0  0  0  0  0  0  0
   -7.6241   62.6152   74.7046 H   0  0  0  0  0  0  0  0  0  0  0  0
   -8.5505   64.2907   73.1079 H   0  0  0  0  0  0  0  0  0  0  0  0
   -7.7941   66.6627   73.2189 H   0  0  0  0  0  0  0  0  0  0  0  0
   -6.1155   67.3642   74.9179 H   0  0  0  0  0  0  0  0  0  0  0  0
   -5.5071   67.8273   76.9258 H   0  0  0  0  0  0  0  0  0  0  0  0
   -7.3545   68.7024   78.7541 H   0  0  0  0  0  0  0  0  0  0  0  0
   -7.6464   70.9984   79.6893 H   0  0  0  0  0  0  0  0  0  0  0  0
   -5.7589   72.1159   80.8726 H   0  0  0  0  0  0  0  0  0  0  0  0
   -3.5773   70.9366   81.1411 H   0  0  0  0  0  0  0  0  0  0  0  0
   -3.2789   68.6400   80.2133 H   0  0  0  0  0  0  0  0  0  0  0  0
   -4.2862   59.9636   78.1300 H   0  0  0  0  0  0  0  0  0  0  0  0
   -6.4018   60.6319   76.9889 H   0  0  0  0  0  0  0  0  0  0  0  0
   -7.1539   59.4253   74.9417 H   0  0  0  0  0  0  0  0  0  0  0  0
   -5.7944   57.5457   74.0294 H   0  0  0  0  0  0  0  0  0  0  0  0
   -3.6798   56.8673   75.1639 H   0  0  0  0  0  0  0  0  0  0  0  0
    0.8523   54.3504   79.0075 H   0  0  0  0  0  0  0  0  0  0  0  0
    0.2905   53.1650   77.7803 H   0  0  0  0  0  0  0  0  0  0  0  0
    2.0003   53.7157   77.7803 H   0  0  0  0  0  0  0  0  0  0  0  0
    2.0098   63.3269   71.8678 H   0  0  0  0  0  0  0  0  0  0  0  0
    3.5697   62.9250   71.0728 H   0  0  0  0  0  0  0  0  0  0  0  0
    2.2278   61.7309   71.0728 H   0  0  0  0  0  0  0  0  0  0  0  0
  2  1  1  0
  3  2  2  0
  4  2  1  0
  4  5  1  1
  6  4  1  0
  7  6  1  0
  8  7  1  0
  9  8  1  0
 10  9  1  0
 10  4  1  0
 11 10  1  0
 12 11  1  0
 13 12  1  0
 14  1  1  0
 14 13  1  0
 15 14  2  0
 16 15  1  0
 17 15  1  0
 18 17  1  0
 18 12  1  0
 19 13  1  0
 20 13  1  0
 21  9  1  0
 22 21  1  0
 22  8  1  0
 12 23  1  6
 24  6  1  0
 25 17  1  0
 26 25  1  0
 27 26  2  0
 28 26  1  0
 29 28  1  0
 30 28  1  0
 31 30  1  0
 32 31  2  0
 33 32  1  0
 34 33  2  0
 35 34  1  0
 36 35  2  0
 36 31  1  0
 37 30  1  0
 38 37  1  0
 39 38  2  0
 40 38  1  0
 41 40  2  0
 42 41  1  0
 43 42  2  0
 44 43  1  0
 45 40  1  0
 45 44  2  0
 46 11  1  0
 47 46  1  0
 48 47  2  0
 49 47  1  0
 50 49  2  0
 51 50  1  0
 52 51  2  0
 53 52  1  0
 54 53  2  0
 54 49  1  0
  9 55  1  1
 56 55  1  0
 57 56  2  0
 58 56  1  0
 59  1  1  0
 61 60  1  0
 61 59  1  0
 62 61  2  0
  1 63  1  6
  5 64  1  0
  5 65  1  0
  5 66  1  0
  6 67  1  6
  7 68  1  0
  7 69  1  0
  8 70  1  1
 10 71  1  6
 11 72  1  1
 16 73  1  0
 16 74  1  0
 16 75  1  0
 17 76  1  1
 18 77  1  0
 18 78  1  0
 19 79  1  0
 19 80  1  0
 19 81  1  0
 20 82  1  0
 20 83  1  0
 20 84  1  0
 21 85  1  0
 21 86  1  0
 23 87  1  0
 24 88  1  0
 28 89  1  6
 29 90  1  0
 30 91  1  1
 32 92  1  0
 33 93  1  0
 34 94  1  0
 35 95  1  0
 36 96  1  0
 37 97  1  0
 41 98  1  0
 42 99  1  0
 43100  1  0
 44101  1  0
 45102  1  0
 50103  1  0
 51104  1  0
 52105  1  0
 53106  1  0
 54107  1  0
 58108  1  0
 58109  1  0
 58110  1  0
 60111  1  0
 60112  1  0
 60113  1  0
M  END
>  <score>  (9) 
-7.235

$$$$
