=
     RDKit          3D

 30 31  0  0  0  0  0  0  0  0999 V2000
   -0.1960   67.9390   66.5390 C   0  0  1  0  0  0  0  0  0  0  0  0
    0.3180   67.1080   65.4690 O   0  0  0  0  0  0  0  0  0  0  0  0
    1.7430   67.3540   65.3630 C   0  0  2  0  0  0  0  0  0  0  0  0
    2.1130   68.2970   66.5320 C   0  0  2  0  0  0  0  0  0  0  0  0
    0.8170   69.0530   66.7360 C   0  0  2  0  0  0  0  0  0  0  0  0
    2.0860   67.8520   64.0310 N   0  0  0  0  0  0  0  0  0  0  0  0
    1.2020   68.5670   63.2540 C   0  0  0  0  0  0  0  0  0  0  0  0
    1.5400   68.9870   62.0360 C   0  0  0  0  0  0  0  0  0  0  0  0
    2.8980   68.6300   61.5830 C   0  0  0  0  0  0  0  0  0  0  0  0
    3.7350   67.9560   62.3080 N   0  0  0  0  0  0  0  0  0  0  0  0
    3.3670   67.5420   63.5640 C   0  0  0  0  0  0  0  0  0  0  0  0
    4.1580   66.9300   64.2850 O   0  0  0  0  0  0  0  0  0  0  0  0
    3.3230   69.0200   60.3440 N   0  0  0  0  0  0  0  0  0  0  0  0
    0.7430   69.6500   68.0220 O   0  0  0  0  0  0  0  0  0  0  0  0
    3.1940   69.2030   66.3470 O   0  0  0  0  0  0  0  0  0  0  0  0
   -1.5830   68.4480   66.1620 C   0  0  0  0  0  0  0  0  0  0  0  0
   -1.7190   69.8150   66.5550 O   0  0  0  0  0  0  0  0  0  0  0  0
   -0.3201   67.3927   67.4857 H   0  0  0  0  0  0  0  0  0  0  0  0
    2.3417   66.4362   65.4591 H   0  0  0  0  0  0  0  0  0  0  0  0
    2.4906   67.7039   67.3780 H   0  0  0  0  0  0  0  0  0  0  0  0
    0.6730   69.9089   66.0603 H   0  0  0  0  0  0  0  0  0  0  0  0
    0.1998   68.7951   63.6458 H   0  0  0  0  0  0  0  0  0  0  0  0
    0.8483   69.5652   61.4058 H   0  0  0  0  0  0  0  0  0  0  0  0
    4.2701   68.7733   60.0231 H   0  0  0  0  0  0  0  0  0  0  0  0
    2.6962   69.5607   59.7311 H   0  0  0  0  0  0  0  0  0  0  0  0
    0.8298   68.9497   68.7164 H   0  0  0  0  0  0  0  0  0  0  0  0
    3.5378   69.4911   67.2295 H   0  0  0  0  0  0  0  0  0  0  0  0
   -1.7192   68.3654   65.0736 H   0  0  0  0  0  0  0  0  0  0  0  0
   -2.3445   67.8440   66.6771 H   0  0  0  0  0  0  0  0  0  0  0  0
   -1.7250   69.8752   67.5431 H   0  0  0  0  0  0  0  0  0  0  0  0
  2  1  1  0
  3  2  1  0
  4  3  1  0
  5  4  1  0
  5  1  1  0
  6  3  1  0
  7  6  1  0
  8  7  2  0
  9  8  1  0
 10  9  2  0
 11 10  1  0
 11  6  1  0
 12 11  2  0
 13  9  1  0
 14  5  1  0
 15  4  1  0
 16  1  1  0
 17 16  1  0
  1 18  1  1
  3 19  1  1
  4 20  1  1
  5 21  1  6
  7 22  1  0
  8 23  1  0
 13 24  1  0
 13 25  1  0
 14 26  1  0
 15 27  1  0
 16 28  1  0
 16 29  1  0
 17 30  1  0
M  END
>  <score>  (1) 
-7.453

$$$$
=
     RDKit          3D

 30 31  0  0  0  0  0  0  0  0999 V2000
    3.7600   67.4050   62.5520 C   0  0  1  0  0  0  0  0  0  0  0  0
    3.5810   66.8710   63.8870 O   0  0  0  0  0  0  0  0  0  0  0  0
    2.3080   67.3480   64.3880 C   0  0  2  0  0  0  0  0  0  0  0  0
    1.6350   68.1090   63.2210 C   0  0  2  0  0  0  0  0  0  0  0  0
    2.8390   68.6070   62.4480 C   0  0  2  0  0  0  0  0  0  0  0  0
    2.4900   68.1260   65.6130 N   0  0  0  0  0  0  0  0  0  0  0  0
    3.5200   69.0260   65.7750 C   0  0  0  0  0  0  0  0  0  0  0  0
    3.6690   69.7030   66.9130 C   0  0  0  0  0  0  0  0  0  0  0  0
    2.6810   69.4160   67.9700 C   0  0  0  0  0  0  0  0  0  0  0  0
    1.7100   68.5690   67.8250 N   0  0  0  0  0  0  0  0  0  0  0  0
    1.5710   67.8910   66.6400 C   0  0  0  0  0  0  0  0  0  0  0  0
    0.6360   67.1060   66.4670 O   0  0  0  0  0  0  0  0  0  0  0  0
    2.7640   70.0650   69.1700 N   0  0  0  0  0  0  0  0  0  0  0  0
    2.5110   68.9430   61.1080 O   0  0  0  0  0  0  0  0  0  0  0  0
    0.7650   69.1880   63.5370 O   0  0  0  0  0  0  0  0  0  0  0  0
    5.2290   67.7540   62.3390 C   0  0  0  0  0  0  0  0  0  0  0  0
    5.3480   69.1240   61.9500 O   0  0  0  0  0  0  0  0  0  0  0  0
    3.5021   66.6833   61.7629 H   0  0  0  0  0  0  0  0  0  0  0  0
    1.6396   66.5308   64.6968 H   0  0  0  0  0  0  0  0  0  0  0  0
    0.9393   67.4380   62.6959 H   0  0  0  0  0  0  0  0  0  0  0  0
    3.2804   69.5383   62.8325 H   0  0  0  0  0  0  0  0  0  0  0  0
    4.2311   69.1885   64.9516 H   0  0  0  0  0  0  0  0  0  0  0  0
    4.4801   70.4322   67.0556 H   0  0  0  0  0  0  0  0  0  0  0  0
    2.0762   69.8677   69.9109 H   0  0  0  0  0  0  0  0  0  0  0  0
    3.5143   70.7514   69.3334 H   0  0  0  0  0  0  0  0  0  0  0  0
    1.8195   69.6514   61.1052 H   0  0  0  0  0  0  0  0  0  0  0  0
    0.6933   69.2770   64.5204 H   0  0  0  0  0  0  0  0  0  0  0  0
    5.7830   67.5904   63.2751 H   0  0  0  0  0  0  0  0  0  0  0  0
    5.6441   67.1134   61.5469 H   0  0  0  0  0  0  0  0  0  0  0  0
    5.3975   69.6935   62.7583 H   0  0  0  0  0  0  0  0  0  0  0  0
  2  1  1  0
  3  2  1  0
  4  3  1  0
  5  4  1  0
  5  1  1  0
  6  3  1  0
  7  6  1  0
  8  7  2  0
  9  8  1  0
 10  9  2  0
 11 10  1  0
 11  6  1  0
 12 11  2  0
 13  9  1  0
 14  5  1  0
 15  4  1  0
 16  1  1  0
 17 16  1  0
  1 18  1  6
  3 19  1  1
  4 20  1  6
  5 21  1  1
  7 22  1  0
  8 23  1  0
 13 24  1  0
 13 25  1  0
 14 26  1  0
 15 27  1  0
 16 28  1  0
 16 29  1  0
 17 30  1  0
M  END
>  <score>  (2) 
-7.35

$$$$
=
     RDKit          3D

 30 31  0  0  0  0  0  0  0  0999 V2000
    0.9710   68.6180   66.1120 C   0  0  1  0  0  0  0  0  0  0  0  0
    2.3700   68.2440   66.1570 O   0  0  0  0  0  0  0  0  0  0  0  0
    2.8680   68.2270   64.7960 C   0  0  2  0  0  0  0  0  0  0  0  0
    1.7190   68.7510   63.9030 C   0  0  2  0  0  0  0  0  0  0  0  0
    0.5000   68.3320   64.6970 C   0  0  2  0  0  0  0  0  0  0  0  0
    3.3730   66.9010   64.4440 N   0  0  0  0  0  0  0  0  0  0  0  0
    2.9080   65.7480   65.0350 C   0  0  0  0  0  0  0  0  0  0  0  0
    3.4060   64.5570   64.7060 C   0  0  0  0  0  0  0  0  0  0  0  0
    4.4780   64.5620   63.6930 C   0  0  0  0  0  0  0  0  0  0  0  0
    4.9230   65.6440   63.1350 N   0  0  0  0  0  0  0  0  0  0  0  0
    4.3880   66.8590   63.4820 C   0  0  0  0  0  0  0  0  0  0  0  0
    4.7700   67.8970   62.9390 O   0  0  0  0  0  0  0  0  0  0  0  0
    5.0460   63.3820   63.3020 N   0  0  0  0  0  0  0  0  0  0  0  0
   -0.6550   69.0740   64.3340 O   0  0  0  0  0  0  0  0  0  0  0  0
    1.6340   68.2670   62.5670 O   0  0  0  0  0  0  0  0  0  0  0  0
    0.2030   67.8350   67.1710 C   0  0  0  0  0  0  0  0  0  0  0  0
   -0.6140   66.8460   66.5420 O   0  0  0  0  0  0  0  0  0  0  0  0
    0.8031   69.6809   66.3402 H   0  0  0  0  0  0  0  0  0  0  0  0
    3.7402   68.8820   64.6537 H   0  0  0  0  0  0  0  0  0  0  0  0
    1.8564   69.8268   63.7191 H   0  0  0  0  0  0  0  0  0  0  0  0
    0.1818   67.2912   64.5371 H   0  0  0  0  0  0  0  0  0  0  0  0
    2.1120   65.8111   65.7915 H   0  0  0  0  0  0  0  0  0  0  0  0
    3.0397   63.6257   65.1625 H   0  0  0  0  0  0  0  0  0  0  0  0
    5.7949   63.3803   62.5949 H   0  0  0  0  0  0  0  0  0  0  0  0
    4.7251   62.4944   63.7144 H   0  0  0  0  0  0  0  0  0  0  0  0
   -1.1242   69.3754   65.1520 H   0  0  0  0  0  0  0  0  0  0  0  0
    1.4628   67.2920   62.5795 H   0  0  0  0  0  0  0  0  0  0  0  0
    0.9152   67.3429   67.8498 H   0  0  0  0  0  0  0  0  0  0  0  0
   -0.4357   68.5251   67.7419 H   0  0  0  0  0  0  0  0  0  0  0  0
   -1.0644   66.3008   67.2348 H   0  0  0  0  0  0  0  0  0  0  0  0
  2  1  1  0
  3  2  1  0
  4  3  1  0
  5  4  1  0
  5  1  1  0
  6  3  1  0
  7  6  1  0
  8  7  2  0
  9  8  1  0
 10  9  2  0
 11 10  1  0
 11  6  1  0
 12 11  2  0
 13  9  1  0
 14  5  1  0
 15  4  1  0
 16  1  1  0
 17 16  1  0
  1 18  1  1
  3 19  1  1
  4 20  1  6
  5 21  1  1
  7 22  1  0
  8 23  1  0
 13 24  1  0
 13 25  1  0
 14 26  1  0
 15 27  1  0
 16 28  1  0
 16 29  1  0
 17 30  1  0
M  END
>  <score>  (3) 
-7.224

$$$$
=
     RDKit          3D

 30 31  0  0  0  0  0  0  0  0999 V2000
    4.5470   67.8900   63.6000 C   0  0  1  0  0  0  0  0  0  0  0  0
    3.7840   68.6210   64.5900 O   0  0  0  0  0  0  0  0  0  0  0  0
    2.9150   67.6780   65.2650 C   0  0  2  0  0  0  0  0  0  0  0  0
    3.2850   66.2770   64.7240 C   0  0  2  0  0  0  0  0  0  0  0  0
    3.7770   66.6090   63.3310 C   0  0  2  0  0  0  0  0  0  0  0  0
    1.5120   68.0560   65.1030 N   0  0  0  0  0  0  0  0  0  0  0  0
    1.0490   68.7420   64.0020 C   0  0  0  0  0  0  0  0  0  0  0  0
   -0.2320   69.0890   63.8960 C   0  0  0  0  0  0  0  0  0  0  0  0
   -1.1020   68.7060   65.0240 C   0  0  0  0  0  0  0  0  0  0  0  0
   -0.6730   68.0620   66.0650 N   0  0  0  0  0  0  0  0  0  0  0  0
    0.6500   67.7060   66.1470 C   0  0  0  0  0  0  0  0  0  0  0  0
    1.0720   67.0630   67.1100 O   0  0  0  0  0  0  0  0  0  0  0  0
   -2.4300   69.0280   64.9960 N   0  0  0  0  0  0  0  0  0  0  0  0
    4.5880   65.5760   62.7910 O   0  0  0  0  0  0  0  0  0  0  0  0
    2.2630   65.2880   64.6680 O   0  0  0  0  0  0  0  0  0  0  0  0
    4.7260   68.7560   62.3580 C   0  0  0  0  0  0  0  0  0  0  0  0
    4.0230   68.1730   61.2590 O   0  0  0  0  0  0  0  0  0  0  0  0
    5.5616   67.6362   63.9410 H   0  0  0  0  0  0  0  0  0  0  0  0
    3.0572   67.6739   66.3558 H   0  0  0  0  0  0  0  0  0  0  0  0
    3.9962   65.7932   65.4096 H   0  0  0  0  0  0  0  0  0  0  0  0
    2.9841   66.7176   62.5764 H   0  0  0  0  0  0  0  0  0  0  0  0
    1.7495   69.0077   63.1966 H   0  0  0  0  0  0  0  0  0  0  0  0
   -0.6187   69.6292   63.0193 H   0  0  0  0  0  0  0  0  0  0  0  0
   -3.0410   68.7625   65.7815 H   0  0  0  0  0  0  0  0  0  0  0  0
   -2.8198   69.5362   64.1893 H   0  0  0  0  0  0  0  0  0  0  0  0
    4.9957   65.0568   63.5288 H   0  0  0  0  0  0  0  0  0  0  0  0
    1.9997   65.0332   65.5877 H   0  0  0  0  0  0  0  0  0  0  0  0
    4.3283   69.7627   62.5538 H   0  0  0  0  0  0  0  0  0  0  0  0
    5.7960   68.8230   62.1117 H   0  0  0  0  0  0  0  0  0  0  0  0
    3.3081   67.5801   61.6018 H   0  0  0  0  0  0  0  0  0  0  0  0
  2  1  1  0
  3  2  1  0
  4  3  1  0
  5  4  1  0
  5  1  1  0
  6  3  1  0
  7  6  1  0
  8  7  2  0
  9  8  1  0
 10  9  2  0
 11 10  1  0
 11  6  1  0
 12 11  2  0
 13  9  1  0
 14  5  1  0
 15  4  1  0
 16  1  1  0
 17 16  1  0
  1 18  1  1
  3 19  1  1
  4 20  1  1
  5 21  1  6
  7 22  1  0
  8 23  1  0
 13 24  1  0
 13 25  1  0
 14 26  1  0
 15 27  1  0
 16 28  1  0
 16 29  1  0
 17 30  1  0
M  END
>  <score>  (4) 
-7.075

$$$$
=
     RDKit          3D

 30 31  0  0  0  0  0  0  0  0999 V2000
    1.5190   63.5150   72.0330 C   0  0  1  0  0  0  0  0  0  0  0  0
    2.6480   62.6730   72.3740 O   0  0  0  0  0  0  0  0  0  0  0  0
    3.2020   62.1550   71.1390 C   0  0  2  0  0  0  0  0  0  0  0  0
    2.4280   62.8410   69.9890 C   0  0  2  0  0  0  0  0  0  0  0  0
    1.0840   63.1000   70.6390 C   0  0  2  0  0  0  0  0  0  0  0  0
    3.1670   60.6930   71.1260 N   0  0  0  0  0  0  0  0  0  0  0  0
    2.3600   59.9620   71.9700 C   0  0  0  0  0  0  0  0  0  0  0  0
    2.3680   58.6300   71.9460 C   0  0  0  0  0  0  0  0  0  0  0  0
    3.2930   58.0060   70.9820 C   0  0  0  0  0  0  0  0  0  0  0  0
    4.0570   58.6870   70.1860 N   0  0  0  0  0  0  0  0  0  0  0  0
    4.0230   60.0590   70.2210 C   0  0  0  0  0  0  0  0  0  0  0  0
    4.7150   60.7280   69.4500 O   0  0  0  0  0  0  0  0  0  0  0  0
    3.3650   56.6440   70.8960 N   0  0  0  0  0  0  0  0  0  0  0  0
    0.3500   64.1090   69.9620 O   0  0  0  0  0  0  0  0  0  0  0  0
    2.2610   62.1240   68.7710 O   0  0  0  0  0  0  0  0  0  0  0  0
    0.4240   63.3430   73.0800 C   0  0  0  0  0  0  0  0  0  0  0  0
   -0.7070   62.6960   72.4930 O   0  0  0  0  0  0  0  0  0  0  0  0
    1.7689   64.5862   72.0288 H   0  0  0  0  0  0  0  0  0  0  0  0
    4.2703   62.3892   71.0215 H   0  0  0  0  0  0  0  0  0  0  0  0
    2.9946   63.7140   69.6329 H   0  0  0  0  0  0  0  0  0  0  0  0
    0.3931   62.2441   70.6260 H   0  0  0  0  0  0  0  0  0  0  0  0
    1.6984   60.4866   72.6751 H   0  0  0  0  0  0  0  0  0  0  0  0
    1.7230   58.0314   72.6060 H   0  0  0  0  0  0  0  0  0  0  0  0
    4.0097   56.2038   70.2241 H   0  0  0  0  0  0  0  0  0  0  0  0
    2.7746   56.0577   71.5031 H   0  0  0  0  0  0  0  0  0  0  0  0
   -0.0825   64.7035   70.6250 H   0  0  0  0  0  0  0  0  0  0  0  0
    2.0411   61.1798   68.9714 H   0  0  0  0  0  0  0  0  0  0  0  0
    0.8052   62.7306   73.9104 H   0  0  0  0  0  0  0  0  0  0  0  0
    0.1227   64.3313   73.4575 H   0  0  0  0  0  0  0  0  0  0  0  0
   -1.3009   62.3562   73.2085 H   0  0  0  0  0  0  0  0  0  0  0  0
  2  1  1  0
  3  2  1  0
  4  3  1  0
  5  4  1  0
  5  1  1  0
  6  3  1  0
  7  6  1  0
  8  7  2  0
  9  8  1  0
 10  9  2  0
 11 10  1  0
 11  6  1  0
 12 11  2  0
 13  9  1  0
 14  5  1  0
 15  4  1  0
 16  1  1  0
 17 16  1  0
  1 18  1  6
  3 19  1  6
  4 20  1  6
  5 21  1  1
  7 22  1  0
  8 23  1  0
 13 24  1  0
 13 25  1  0
 14 26  1  0
 15 27  1  0
 16 28  1  0
 16 29  1  0
 17 30  1  0
M  END
>  <score>  (5) 
-6.675

$$$$
=
     RDKit          3D

 30 31  0  0  0  0  0  0  0  0999 V2000
    1.2820   68.9780   67.5020 C   0  0  1  0  0  0  0  0  0  0  0  0
    0.9410   69.6600   66.2700 O   0  0  0  0  0  0  0  0  0  0  0  0
    0.5380   68.6570   65.3050 C   0  0  2  0  0  0  0  0  0  0  0  0
    0.5180   67.3060   66.0590 C   0  0  2  0  0  0  0  0  0  0  0  0
    1.5720   67.5360   67.1230 C   0  0  2  0  0  0  0  0  0  0  0  0
    1.3990   68.6960   64.1240 N   0  0  0  0  0  0  0  0  0  0  0  0
    2.7650   68.8460   64.2050 C   0  0  0  0  0  0  0  0  0  0  0  0
    3.5180   68.8990   63.1070 C   0  0  0  0  0  0  0  0  0  0  0  0
    2.7980   68.8000   61.8240 C   0  0  0  0  0  0  0  0  0  0  0  0
    1.5120   68.6610   61.7400 N   0  0  0  0  0  0  0  0  0  0  0  0
    0.7580   68.5990   62.8850 C   0  0  0  0  0  0  0  0  0  0  0  0
   -0.4620   68.4320   62.8300 O   0  0  0  0  0  0  0  0  0  0  0  0
    3.4960   68.8500   60.6500 N   0  0  0  0  0  0  0  0  0  0  0  0
    1.4360   66.6370   68.2130 O   0  0  0  0  0  0  0  0  0  0  0  0
    0.8040   66.1220   65.3240 O   0  0  0  0  0  0  0  0  0  0  0  0
    2.4700   69.6770   68.1550 C   0  0  0  0  0  0  0  0  0  0  0  0
    2.5680   69.2840   69.5250 O   0  0  0  0  0  0  0  0  0  0  0  0
    0.4704   69.0005   68.2442 H   0  0  0  0  0  0  0  0  0  0  0  0
   -0.4677   68.8387   64.8982 H   0  0  0  0  0  0  0  0  0  0  0  0
   -0.5056   67.0892   66.3986 H   0  0  0  0  0  0  0  0  0  0  0  0
    2.6064   67.3631   66.7911 H   0  0  0  0  0  0  0  0  0  0  0  0
    3.2429   68.9234   65.1927 H   0  0  0  0  0  0  0  0  0  0  0  0
    4.6113   69.0100   63.1548 H   0  0  0  0  0  0  0  0  0  0  0  0
    2.9976   68.7813   59.7512 H   0  0  0  0  0  0  0  0  0  0  0  0
    4.5204   68.9564   60.6640 H   0  0  0  0  0  0  0  0  0  0  0  0
    1.5116   67.1367   69.0643 H   0  0  0  0  0  0  0  0  0  0  0  0
    0.9836   65.3786   65.9527 H   0  0  0  0  0  0  0  0  0  0  0  0
    3.3938   69.3970   67.6276 H   0  0  0  0  0  0  0  0  0  0  0  0
    2.3272   70.7662   68.0984 H   0  0  0  0  0  0  0  0  0  0  0  0
    2.3741   70.0617   70.1061 H   0  0  0  0  0  0  0  0  0  0  0  0
  2  1  1  0
  3  2  1  0
  4  3  1  0
  5  4  1  0
  5  1  1  0
  6  3  1  0
  7  6  1  0
  8  7  2  0
  9  8  1  0
 10  9  2  0
 11 10  1  0
 11  6  1  0
 12 11  2  0
 13  9  1  0
 14  5  1  0
 15  4  1  0
 16  1  1  0
 17 16  1  0
  1 18  1  1
  3 19  1  6
  4 20  1  1
  5 21  1  6
  7 22  1  0
  8 23  1  0
 13 24  1  0
 13 25  1  0
 14 26  1  0
 15 27  1  0
 16 28  1  0
 16 29  1  0
 17 30  1  0
M  END
>  <score>  (6) 
-6.669

$$$$
=
     RDKit          3D

 30 31  0  0  0  0  0  0  0  0999 V2000
    0.3530   68.2630   67.2890 C   0  0  1  0  0  0  0  0  0  0  0  0
    1.7540   68.3250   66.9230 O   0  0  0  0  0  0  0  0  0  0  0  0
    1.8300   68.4360   65.4800 C   0  0  2  0  0  0  0  0  0  0  0  0
    0.3740   68.5770   64.9740 C   0  0  2  0  0  0  0  0  0  0  0  0
   -0.3930   67.8250   66.0420 C   0  0  2  0  0  0  0  0  0  0  0  0
    2.5790   67.3160   64.9120 N   0  0  0  0  0  0  0  0  0  0  0  0
    2.3790   66.0120   65.3060 C   0  0  0  0  0  0  0  0  0  0  0  0
    3.0950   65.0170   64.7830 C   0  0  0  0  0  0  0  0  0  0  0  0
    4.1040   65.4050   63.7790 C   0  0  0  0  0  0  0  0  0  0  0  0
    4.2990   66.6310   63.4040 N   0  0  0  0  0  0  0  0  0  0  0  0
    3.5420   67.6380   63.9500 C   0  0  0  0  0  0  0  0  0  0  0  0
    3.6860   68.8060   63.5840 O   0  0  0  0  0  0  0  0  0  0  0  0
    4.8820   64.4460   63.1960 N   0  0  0  0  0  0  0  0  0  0  0  0
   -1.7670   68.1810   66.0620 O   0  0  0  0  0  0  0  0  0  0  0  0
    0.0600   68.0680   63.6830 O   0  0  0  0  0  0  0  0  0  0  0  0
    0.1790   67.3030   68.4610 C   0  0  0  0  0  0  0  0  0  0  0  0
   -0.9400   66.4480   68.2220 O   0  0  0  0  0  0  0  0  0  0  0  0
   -0.0461   69.2308   67.6269 H   0  0  0  0  0  0  0  0  0  0  0  0
    2.3956   69.3199   65.1503 H   0  0  0  0  0  0  0  0  0  0  0  0
    0.1335   69.6412   64.8337 H   0  0  0  0  0  0  0  0  0  0  0  0
   -0.4246   66.7341   65.9044 H   0  0  0  0  0  0  0  0  0  0  0  0
    1.6154   65.7876   66.0653 H   0  0  0  0  0  0  0  0  0  0  0  0
    2.9428   63.9694   65.0819 H   0  0  0  0  0  0  0  0  0  0  0  0
    5.5878   64.7117   62.4945 H   0  0  0  0  0  0  0  0  0  0  0  0
    4.7630   63.4570   63.4578 H   0  0  0  0  0  0  0  0  0  0  0  0
   -2.0737   68.2605   66.9999 H   0  0  0  0  0  0  0  0  0  0  0  0
   -0.4575   67.2291   63.7759 H   0  0  0  0  0  0  0  0  0  0  0  0
    1.0878   66.6932   68.5720 H   0  0  0  0  0  0  0  0  0  0  0  0
    0.0061   67.8800   69.3814 H   0  0  0  0  0  0  0  0  0  0  0  0
   -1.3226   66.1557   69.0870 H   0  0  0  0  0  0  0  0  0  0  0  0
  2  1  1  0
  3  2  1  0
  4  3  1  0
  5  4  1  0
  5  1  1  0
  6  3  1  0
  7  6  1  0
  8  7  2  0
  9  8  1  0
 10  9  2  0
 11 10  1  0
 11  6  1  0
 12 11  2  0
 13  9  1  0
 14  5  1  0
 15  4  1  0
 16  1  1  0
 17 16  1  0
  1 18  1  1
  3 19  1  1
  4 20  1  6
  5 21  1  6
  7 22  1  0
  8 23  1  0
 13 24  1  0
 13 25  1  0
 14 26  1  0
 15 27  1  0
 16 28  1  0
 16 29  1  0
 17 30  1  0
M  END
>  <score>  (7) 
-6.41

$$$$
=
     RDKit          3D

 30 31  0  0  0  0  0  0  0  0999 V2000
    3.5480   66.5030   63.4050 C   0  0  1  0  0  0  0  0  0  0  0  0
    2.5480   67.1910   64.1960 O   0  0  0  0  0  0  0  0  0  0  0  0
    2.8840   68.6010   64.2060 C   0  0  2  0  0  0  0  0  0  0  0  0
    4.0900   68.7700   63.2510 C   0  0  2  0  0  0  0  0  0  0  0  0
    4.7600   67.4170   63.3640 C   0  0  2  0  0  0  0  0  0  0  0  0
    3.1020   69.0740   65.5720 N   0  0  0  0  0  0  0  0  0  0  0  0
    4.3390   69.4630   66.0340 C   0  0  0  0  0  0  0  0  0  0  0  0
    4.5070   69.8690   67.2920 C   0  0  0  0  0  0  0  0  0  0  0  0
    3.3010   69.8600   68.1410 C   0  0  0  0  0  0  0  0  0  0  0  0
    2.1330   69.4920   67.7130 N   0  0  0  0  0  0  0  0  0  0  0  0
    1.9830   69.0880   66.4100 C   0  0  0  0  0  0  0  0  0  0  0  0
    0.8760   68.7670   65.9720 O   0  0  0  0  0  0  0  0  0  0  0  0
    3.3870   70.2580   69.4450 N   0  0  0  0  0  0  0  0  0  0  0  0
    5.6180   67.1530   62.2640 O   0  0  0  0  0  0  0  0  0  0  0  0
    5.0200   69.8110   63.5240 O   0  0  0  0  0  0  0  0  0  0  0  0
    3.8420   65.1440   64.0330 C   0  0  0  0  0  0  0  0  0  0  0  0
    4.4640   64.2920   63.0690 O   0  0  0  0  0  0  0  0  0  0  0  0
    3.2158   66.2975   62.3767 H   0  0  0  0  0  0  0  0  0  0  0  0
    2.0640   69.2367   63.8406 H   0  0  0  0  0  0  0  0  0  0  0  0
    3.7330   69.0750   62.2562 H   0  0  0  0  0  0  0  0  0  0  0  0
    5.4297   67.3056   64.2295 H   0  0  0  0  0  0  0  0  0  0  0  0
    5.2029   69.4383   65.3536 H   0  0  0  0  0  0  0  0  0  0  0  0
    5.4866   70.1916   67.6744 H   0  0  0  0  0  0  0  0  0  0  0  0
    2.5472   70.2532   70.0414 H   0  0  0  0  0  0  0  0  0  0  0  0
    4.2916   70.5628   69.8318 H   0  0  0  0  0  0  0  0  0  0  0  0
    6.5086   66.8790   62.5985 H   0  0  0  0  0  0  0  0  0  0  0  0
    5.1164   69.9189   64.5034 H   0  0  0  0  0  0  0  0  0  0  0  0
    4.5156   65.2765   64.8925 H   0  0  0  0  0  0  0  0  0  0  0  0
    2.8997   64.6866   64.3690 H   0  0  0  0  0  0  0  0  0  0  0  0
    4.9789   63.5867   63.5354 H   0  0  0  0  0  0  0  0  0  0  0  0
  2  1  1  0
  3  2  1  0
  4  3  1  0
  5  4  1  0
  5  1  1  0
  6  3  1  0
  7  6  1  0
  8  7  2  0
  9  8  1  0
 10  9  2  0
 11 10  1  0
 11  6  1  0
 12 11  2  0
 13  9  1  0
 14  5  1  0
 15  4  1  0
 16  1  1  0
 17 16  1  0
  1 18  1  6
  3 19  1  6
  4 20  1  6
  5 21  1  1
  7 22  1  0
  8 23  1  0
 13 24  1  0
 13 25  1  0
 14 26  1  0
 15 27  1  0
 16 28  1  0
 16 29  1  0
 17 30  1  0
M  END
>  <score>  (8) 
-6.364

$$$$
=
     RDKit          3D

 30 31  0  0  0  0  0  0  0  0999 V2000
    4.1090   58.7320   71.4300 C   0  0  1  0  0  0  0  0  0  0  0  0
    4.3090   59.8960   70.5900 O   0  0  0  0  0  0  0  0  0  0  0  0
    4.4440   61.0500   71.4560 C   0  0  2  0  0  0  0  0  0  0  0  0
    4.4520   60.5100   72.9060 C   0  0  2  0  0  0  0  0  0  0  0  0
    3.6180   59.2540   72.7680 C   0  0  2  0  0  0  0  0  0  0  0  0
    3.4080   62.0400   71.1680 N   0  0  0  0  0  0  0  0  0  0  0  0
    2.0650   61.7790   71.3270 C   0  0  0  0  0  0  0  0  0  0  0  0
    1.1460   62.6970   71.0340 C   0  0  0  0  0  0  0  0  0  0  0  0
    1.6570   63.9840   70.5260 C   0  0  0  0  0  0  0  0  0  0  0  0
    2.9190   64.2370   70.3710 N   0  0  0  0  0  0  0  0  0  0  0  0
    3.8490   63.2780   70.6890 C   0  0  0  0  0  0  0  0  0  0  0  0
    5.0550   63.5080   70.5830 O   0  0  0  0  0  0  0  0  0  0  0  0
    0.7800   64.9800   70.1980 N   0  0  0  0  0  0  0  0  0  0  0  0
    3.8410   58.3450   73.8360 O   0  0  0  0  0  0  0  0  0  0  0  0
    3.9310   61.3440   73.9350 O   0  0  0  0  0  0  0  0  0  0  0  0
    3.1230   57.7850   70.7560 C   0  0  0  0  0  0  0  0  0  0  0  0
    3.7220   56.4980   70.5950 O   0  0  0  0  0  0  0  0  0  0  0  0
    5.0297   58.1504   71.5851 H   0  0  0  0  0  0  0  0  0  0  0  0
    5.3814   61.6006   71.2884 H   0  0  0  0  0  0  0  0  0  0  0  0
    5.4902   60.3914   73.2497 H   0  0  0  0  0  0  0  0  0  0  0  0
    2.5309   59.4168   72.8084 H   0  0  0  0  0  0  0  0  0  0  0  0
    1.7462   60.7954   71.7024 H   0  0  0  0  0  0  0  0  0  0  0  0
    0.0703   62.5069   71.1631 H   0  0  0  0  0  0  0  0  0  0  0  0
    1.1325   65.8803   69.8429 H   0  0  0  0  0  0  0  0  0  0  0  0
   -0.2333   64.8302   70.3060 H   0  0  0  0  0  0  0  0  0  0  0  0
    3.7256   58.8155   74.6994 H   0  0  0  0  0  0  0  0  0  0  0  0
    4.1677   60.9651   74.8184 H   0  0  0  0  0  0  0  0  0  0  0  0
    2.2211   57.6928   71.3789 H   0  0  0  0  0  0  0  0  0  0  0  0
    2.8515   58.1857   69.7682 H   0  0  0  0  0  0  0  0  0  0  0  0
    3.9047   56.1054   71.4852 H   0  0  0  0  0  0  0  0  0  0  0  0
  2  1  1  0
  3  2  1  0
  4  3  1  0
  5  4  1  0
  5  1  1  0
  6  3  1  0
  7  6  1  0
  8  7  2  0
  9  8  1  0
 10  9  2  0
 11 10  1  0
 11  6  1  0
 12 11  2  0
 13  9  1  0
 14  5  1  0
 15  4  1  0
 16  1  1  0
 17 16  1  0
  1 18  1  1
  3 19  1  6
  4 20  1  1
  5 21  1  6
  7 22  1  0
  8 23  1  0
 13 24  1  0
 13 25  1  0
 14 26  1  0
 15 27  1  0
 16 28  1  0
 16 29  1  0
 17 30  1  0
M  END
>  <score>  (9) 
-6.194

$$$$
