=
     RDKit          3D

 40 41  0  0  0  0  0  0  0  0999 V2000
    3.3820   65.7810   64.5710 C   0  0  2  0  0  0  0  0  0  0  0  0
    1.8800   66.1180   64.6020 C   0  0  0  0  0  0  0  0  0  0  0  0
    1.5450   67.5340   64.1180 C   0  0  0  0  0  0  0  0  0  0  0  0
    2.7020   68.5340   64.2050 C   0  0  2  0  0  0  0  0  0  0  0  0
    3.9680   68.0110   63.5000 C   0  0  0  0  0  0  0  0  0  0  0  0
    4.0430   66.4820   63.3790 C   0  0  0  0  0  0  0  0  0  0  0  0
    3.0190   68.9280   65.6560 C   0  0  0  0  0  0  0  0  0  0  0  0
    2.2540   68.6490   66.5740 O   0  0  0  0  0  0  0  0  0  0  0  0
    4.2600   69.5280   65.7820 N   0  0  0  0  0  0  0  0  0  0  0  0
    4.8770   69.9800   66.9700 C   0  0  0  0  0  0  0  0  0  0  0  0
    6.2590   70.1780   66.9380 C   0  0  0  0  0  0  0  0  0  0  0  0
    6.8960   70.6100   68.0900 C   0  0  0  0  0  0  0  0  0  0  0  0
    6.2550   70.8530   69.2500 N   0  0  0  0  0  0  0  0  0  0  0  0
    4.9190   70.6690   69.2550 C   0  0  0  0  0  0  0  0  0  0  0  0
    4.1950   70.2360   68.1550 C   0  0  0  0  0  0  0  0  0  0  0  0
    4.8680   63.7410   63.9660 C   0  0  0  0  0  0  0  0  0  0  0  0
    3.6050   64.2550   64.6460 C   0  0  1  0  0  0  0  0  0  0  0  0
    3.6650   63.8460   66.0830 N   0  0  0  0  0  4  0  0  0  0  0  0
    3.8865   66.1748   65.4656 H   0  0  0  0  0  0  0  0  0  0  0  0
    1.3515   65.3991   63.9586 H   0  0  0  0  0  0  0  0  0  0  0  0
    1.5639   66.0597   65.6540 H   0  0  0  0  0  0  0  0  0  0  0  0
    1.2266   67.4699   63.0670 H   0  0  0  0  0  0  0  0  0  0  0  0
    0.7586   67.9119   64.7879 H   0  0  0  0  0  0  0  0  0  0  0  0
    2.3667   69.4386   63.6766 H   0  0  0  0  0  0  0  0  0  0  0  0
    3.9983   68.4379   62.4867 H   0  0  0  0  0  0  0  0  0  0  0  0
    4.8221   68.3182   64.1214 H   0  0  0  0  0  0  0  0  0  0  0  0
    3.5308   66.1728   62.4559 H   0  0  0  0  0  0  0  0  0  0  0  0
    5.1043   66.1933   63.3595 H   0  0  0  0  0  0  0  0  0  0  0  0
    4.7941   69.6599   64.9112 H   0  0  0  0  0  0  0  0  0  0  0  0
    6.8306   69.9946   66.0163 H   0  0  0  0  0  0  0  0  0  0  0  0
    7.9848   70.7630   68.0558 H   0  0  0  0  0  0  0  0  0  0  0  0
    4.3716   70.8746   70.1867 H   0  0  0  0  0  0  0  0  0  0  0  0
    3.1055   70.0979   68.2178 H   0  0  0  0  0  0  0  0  0  0  0  0
    5.6006   63.4429   64.7305 H   0  0  0  0  0  0  0  0  0  0  0  0
    4.6190   62.8726   63.3383 H   0  0  0  0  0  0  0  0  0  0  0  0
    5.2961   64.5364   63.3383 H   0  0  0  0  0  0  0  0  0  0  0  0
    2.7577   63.8136   64.1008 H   0  0  0  0  0  0  0  0  0  0  0  0
    3.5433   64.6755   66.6814 H   0  0  0  0  0  0  0  0  0  0  0  0
    2.9144   63.1683   66.2787 H   0  0  0  0  0  0  0  0  0  0  0  0
    4.5786   63.4125   66.2787 H   0  0  0  0  0  0  0  0  0  0  0  0
  2  1  1  0
  3  2  1  0
  4  3  1  0
  5  4  1  0
  6  5  1  0
  6  1  1  0
  7  4  1  0
  8  7  2  0
  9  7  1  0
 10  9  1  0
 11 10  2  0
 12 11  1  0
 13 12  2  0
 14 13  1  0
 15 14  2  0
 15 10  1  0
 17 16  1  0
 17  1  1  0
 18 17  1  0
  1 19  1  1
  2 20  1  0
  2 21  1  0
  3 22  1  0
  3 23  1  0
  4 24  1  6
  5 25  1  0
  5 26  1  0
  6 27  1  0
  6 28  1  0
  9 29  1  0
 11 30  1  0
 12 31  1  0
 14 32  1  0
 15 33  1  0
 16 34  1  0
 16 35  1  0
 16 36  1  0
 17 37  1  6
 18 38  1  0
 18 39  1  0
 18 40  1  0
M  CHG  1  18   1
M  END
>  <score>  (1) 
-8.567

$$$$
=
     RDKit          3D

 40 41  0  0  0  0  0  0  0  0999 V2000
    1.2190   68.1700   65.1400 C   0  0  2  0  0  0  0  0  0  0  0  0
    1.2390   68.8760   63.7710 C   0  0  0  0  0  0  0  0  0  0  0  0
    2.4040   68.4580   62.8670 C   0  0  0  0  0  0  0  0  0  0  0  0
    3.6120   67.8730   63.6040 C   0  0  2  0  0  0  0  0  0  0  0  0
    3.2120   66.7110   64.5330 C   0  0  0  0  0  0  0  0  0  0  0  0
    1.7450   66.7380   64.9880 C   0  0  0  0  0  0  0  0  0  0  0  0
    4.3890   68.9430   64.3850 C   0  0  0  0  0  0  0  0  0  0  0  0
    5.0170   69.8250   63.8060 O   0  0  0  0  0  0  0  0  0  0  0  0
    4.2150   68.8300   65.7540 N   0  0  0  0  0  0  0  0  0  0  0  0
    4.7530   69.6660   66.7580 C   0  0  0  0  0  0  0  0  0  0  0  0
    3.8950   70.0670   67.7850 C   0  0  0  0  0  0  0  0  0  0  0  0
    4.3890   70.8950   68.7800 C   0  0  0  0  0  0  0  0  0  0  0  0
    5.6600   71.3410   68.8150 N   0  0  0  0  0  0  0  0  0  0  0  0
    6.4750   70.9320   67.8220 C   0  0  0  0  0  0  0  0  0  0  0  0
    6.0720   70.1070   66.7830 C   0  0  0  0  0  0  0  0  0  0  0  0
   -0.2130   69.1330   67.0770 C   0  0  0  0  0  0  0  0  0  0  0  0
   -0.1680   68.2970   65.8050 C   0  0  1  0  0  0  0  0  0  0  0  0
   -1.1190   68.9090   64.8260 N   0  0  0  0  0  4  0  0  0  0  0  0
    1.9039   68.6667   65.8431 H   0  0  0  0  0  0  0  0  0  0  0  0
    0.2980   68.6457   63.2500 H   0  0  0  0  0  0  0  0  0  0  0  0
    1.3629   69.9506   63.9707 H   0  0  0  0  0  0  0  0  0  0  0  0
    2.0341   67.6999   62.1610 H   0  0  0  0  0  0  0  0  0  0  0  0
    2.7573   69.3755   62.3737 H   0  0  0  0  0  0  0  0  0  0  0  0
    4.2806   67.4732   62.8274 H   0  0  0  0  0  0  0  0  0  0  0  0
    3.3889   65.7663   63.9979 H   0  0  0  0  0  0  0  0  0  0  0  0
    3.8242   66.8106   65.4415 H   0  0  0  0  0  0  0  0  0  0  0  0
    1.1317   66.2113   64.2420 H   0  0  0  0  0  0  0  0  0  0  0  0
    1.6840   66.2467   65.9703 H   0  0  0  0  0  0  0  0  0  0  0  0
    3.6271   68.0484   66.0769 H   0  0  0  0  0  0  0  0  0  0  0  0
    2.8475   69.7318   67.8033 H   0  0  0  0  0  0  0  0  0  0  0  0
    3.7066   71.2051   69.5851 H   0  0  0  0  0  0  0  0  0  0  0  0
    7.5208   71.2727   67.8369 H   0  0  0  0  0  0  0  0  0  0  0  0
    6.7797   69.8078   65.9959 H   0  0  0  0  0  0  0  0  0  0  0  0
   -0.1773   68.4693   67.9535 H   0  0  0  0  0  0  0  0  0  0  0  0
    0.6497   69.8151   67.0982 H   0  0  0  0  0  0  0  0  0  0  0  0
   -1.1440   69.7185   67.0982 H   0  0  0  0  0  0  0  0  0  0  0  0
   -0.4410   67.2723   66.0975 H   0  0  0  0  0  0  0  0  0  0  0  0
   -1.8718   69.3934   65.3355 H   0  0  0  0  0  0  0  0  0  0  0  0
   -0.6149   69.5847   64.2342 H   0  0  0  0  0  0  0  0  0  0  0  0
   -1.5252   68.1703   64.2342 H   0  0  0  0  0  0  0  0  0  0  0  0
  2  1  1  0
  3  2  1  0
  4  3  1  0
  5  4  1  0
  6  5  1  0
  6  1  1  0
  7  4  1  0
  8  7  2  0
  9  7  1  0
 10  9  1  0
 11 10  2  0
 12 11  1  0
 13 12  2  0
 14 13  1  0
 15 14  2  0
 15 10  1  0
 17 16  1  0
 17  1  1  0
 18 17  1  0
  1 19  1  1
  2 20  1  0
  2 21  1  0
  3 22  1  0
  3 23  1  0
  4 24  1  6
  5 25  1  0
  5 26  1  0
  6 27  1  0
  6 28  1  0
  9 29  1  0
 11 30  1  0
 12 31  1  0
 14 32  1  0
 15 33  1  0
 16 34  1  0
 16 35  1  0
 16 36  1  0
 17 37  1  1
 18 38  1  0
 18 39  1  0
 18 40  1  0
M  CHG  1  18   1
M  END
>  <score>  (2) 
-8.412

$$$$
=
     RDKit          3D

 40 41  0  0  0  0  0  0  0  0999 V2000
    0.8010   66.8720   68.7100 C   0  0  2  0  0  0  0  0  0  0  0  0
    1.2480   68.3450   68.6810 C   0  0  0  0  0  0  0  0  0  0  0  0
    0.5320   69.1970   67.6260 C   0  0  0  0  0  0  0  0  0  0  0  0
   -0.0650   68.4060   66.4580 C   0  0  2  0  0  0  0  0  0  0  0  0
   -0.9850   67.2700   66.9440 C   0  0  0  0  0  0  0  0  0  0  0  0
   -0.6910   66.7800   68.3700 C   0  0  0  0  0  0  0  0  0  0  0  0
    1.0170   67.8560   65.5160 C   0  0  0  0  0  0  0  0  0  0  0  0
    1.0870   66.6590   65.2560 O   0  0  0  0  0  0  0  0  0  0  0  0
    1.7980   68.8580   64.9660 N   0  0  0  0  0  0  0  0  0  0  0  0
    2.8540   68.7090   64.0380 C   0  0  0  0  0  0  0  0  0  0  0  0
    4.1370   69.0520   64.4690 C   0  0  0  0  0  0  0  0  0  0  0  0
    5.1920   68.9280   63.5790 C   0  0  0  0  0  0  0  0  0  0  0  0
    5.0520   68.4910   62.3130 N   0  0  0  0  0  0  0  0  0  0  0  0
    3.8070   68.1510   61.9220 C   0  0  0  0  0  0  0  0  0  0  0  0
    2.6900   68.2440   62.7380 C   0  0  0  0  0  0  0  0  0  0  0  0
    0.0910   65.9440   71.0270 C   0  0  0  0  0  0  0  0  0  0  0  0
    1.2180   66.1970   70.0340 C   0  0  1  0  0  0  0  0  0  0  0  0
    1.8530   64.8790   69.7240 N   0  0  0  0  0  4  0  0  0  0  0  0
    1.3210   66.2932   67.9325 H   0  0  0  0  0  0  0  0  0  0  0  0
    1.0528   68.7846   69.6703 H   0  0  0  0  0  0  0  0  0  0  0  0
    2.3161   68.3468   68.4179 H   0  0  0  0  0  0  0  0  0  0  0  0
   -0.2842   69.7420   68.1228 H   0  0  0  0  0  0  0  0  0  0  0  0
    1.2959   69.8594   67.1928 H   0  0  0  0  0  0  0  0  0  0  0  0
   -0.6766   69.1189   65.8856 H   0  0  0  0  0  0  0  0  0  0  0  0
   -2.0236   67.6310   66.9118 H   0  0  0  0  0  0  0  0  0  0  0  0
   -0.8068   66.4147   66.2757 H   0  0  0  0  0  0  0  0  0  0  0  0
   -1.2568   67.3985   69.0823 H   0  0  0  0  0  0  0  0  0  0  0  0
   -0.9912   65.7238   68.4361 H   0  0  0  0  0  0  0  0  0  0  0  0
    1.5859   69.8200   65.2667 H   0  0  0  0  0  0  0  0  0  0  0  0
    4.3069   69.4133   65.4940 H   0  0  0  0  0  0  0  0  0  0  0  0
    6.1994   69.2017   63.9259 H   0  0  0  0  0  0  0  0  0  0  0  0
    3.6697   67.7783   60.8962 H   0  0  0  0  0  0  0  0  0  0  0  0
    1.6959   67.9562   62.3651 H   0  0  0  0  0  0  0  0  0  0  0  0
    0.4794   66.0312   72.0525 H   0  0  0  0  0  0  0  0  0  0  0  0
   -0.7069   66.6854   70.8728 H   0  0  0  0  0  0  0  0  0  0  0  0
   -0.3134   64.9327   70.8728 H   0  0  0  0  0  0  0  0  0  0  0  0
    1.9023   66.9101   70.5169 H   0  0  0  0  0  0  0  0  0  0  0  0
    2.0862   64.3951   70.6028 H   0  0  0  0  0  0  0  0  0  0  0  0
    1.1975   64.3021   69.1778 H   0  0  0  0  0  0  0  0  0  0  0  0
    2.7127   65.0321   69.1778 H   0  0  0  0  0  0  0  0  0  0  0  0
  2  1  1  0
  3  2  1  0
  4  3  1  0
  5  4  1  0
  6  5  1  0
  6  1  1  0
  7  4  1  0
  8  7  2  0
  9  7  1  0
 10  9  1  0
 11 10  2  0
 12 11  1  0
 13 12  2  0
 14 13  1  0
 15 14  2  0
 15 10  1  0
 17 16  1  0
 17  1  1  0
 18 17  1  0
  1 19  1  6
  2 20  1  0
  2 21  1  0
  3 22  1  0
  3 23  1  0
  4 24  1  6
  5 25  1  0
  5 26  1  0
  6 27  1  0
  6 28  1  0
  9 29  1  0
 11 30  1  0
 12 31  1  0
 14 32  1  0
 15 33  1  0
 16 34  1  0
 16 35  1  0
 16 36  1  0
 17 37  1  1
 18 38  1  0
 18 39  1  0
 18 40  1  0
M  CHG  1  18   1
M  END
>  <score>  (3) 
-8.099

$$$$
=
     RDKit          3D

 40 41  0  0  0  0  0  0  0  0999 V2000
    3.6480   66.5220   64.2000 C   0  0  2  0  0  0  0  0  0  0  0  0
    3.3440   66.9460   62.7510 C   0  0  0  0  0  0  0  0  0  0  0  0
    2.9620   68.4230   62.5970 C   0  0  0  0  0  0  0  0  0  0  0  0
    2.4220   69.0840   63.8690 C   0  0  2  0  0  0  0  0  0  0  0  0
    3.3770   68.8990   65.0630 C   0  0  0  0  0  0  0  0  0  0  0  0
    4.3110   67.6840   64.9490 C   0  0  0  0  0  0  0  0  0  0  0  0
    1.0120   68.5880   64.2260 C   0  0  0  0  0  0  0  0  0  0  0  0
    0.2700   68.1100   63.3730 O   0  0  0  0  0  0  0  0  0  0  0  0
    0.7500   68.6710   65.5820 N   0  0  0  0  0  0  0  0  0  0  0  0
   -0.4280   68.2710   66.2530 C   0  0  0  0  0  0  0  0  0  0  0  0
   -0.2980   67.3010   67.2490 C   0  0  0  0  0  0  0  0  0  0  0  0
   -1.4350   66.8790   67.9190 C   0  0  0  0  0  0  0  0  0  0  0  0
   -2.6700   67.3540   67.6640 N   0  0  0  0  0  0  0  0  0  0  0  0
   -2.7710   68.2990   66.7080 C   0  0  0  0  0  0  0  0  0  0  0  0
   -1.6930   68.7820   65.9820 C   0  0  0  0  0  0  0  0  0  0  0  0
    3.8040   64.0860   65.0820 C   0  0  0  0  0  0  0  0  0  0  0  0
    4.4250   65.1890   64.2320 C   0  0  1  0  0  0  0  0  0  0  0  0
    4.5490   64.6690   62.8360 N   0  0  0  0  0  4  0  0  0  0  0  0
    2.7164   66.3083   64.7445 H   0  0  0  0  0  0  0  0  0  0  0  0
    4.2389   66.7554   62.1405 H   0  0  0  0  0  0  0  0  0  0  0  0
    2.4735   66.3580   62.4249 H   0  0  0  0  0  0  0  0  0  0  0  0
    3.8575   68.9763   62.2778 H   0  0  0  0  0  0  0  0  0  0  0  0
    2.1453   68.4560   61.8608 H   0  0  0  0  0  0  0  0  0  0  0  0
    2.3542   70.1600   63.6509 H   0  0  0  0  0  0  0  0  0  0  0  0
    3.9979   69.8029   65.1497 H   0  0  0  0  0  0  0  0  0  0  0  0
    2.7443   68.7258   65.9460 H   0  0  0  0  0  0  0  0  0  0  0  0
    5.2202   67.9838   64.4072 H   0  0  0  0  0  0  0  0  0  0  0  0
    4.5507   67.3414   65.9664 H   0  0  0  0  0  0  0  0  0  0  0  0
    1.4974   69.0690   66.1684 H   0  0  0  0  0  0  0  0  0  0  0  0
    0.6877   66.8802   67.4968 H   0  0  0  0  0  0  0  0  0  0  0  0
   -1.3234   66.1144   68.7019 H   0  0  0  0  0  0  0  0  0  0  0  0
   -3.7675   68.7113   66.4911 H   0  0  0  0  0  0  0  0  0  0  0  0
   -1.8349   69.5519   65.2092 H   0  0  0  0  0  0  0  0  0  0  0  0
    3.9383   64.3246   66.1474 H   0  0  0  0  0  0  0  0  0  0  0  0
    2.7302   64.0095   64.8559 H   0  0  0  0  0  0  0  0  0  0  0  0
    4.2955   63.1282   64.8559 H   0  0  0  0  0  0  0  0  0  0  0  0
    5.3924   65.4315   64.6961 H   0  0  0  0  0  0  0  0  0  0  0  0
    4.7878   63.6674   62.8627 H   0  0  0  0  0  0  0  0  0  0  0  0
    3.6542   64.7956   62.3417 H   0  0  0  0  0  0  0  0  0  0  0  0
    5.2904   65.1857   62.3417 H   0  0  0  0  0  0  0  0  0  0  0  0
  2  1  1  0
  3  2  1  0
  4  3  1  0
  5  4  1  0
  6  5  1  0
  6  1  1  0
  7  4  1  0
  8  7  2  0
  9  7  1  0
 10  9  1  0
 11 10  2  0
 12 11  1  0
 13 12  2  0
 14 13  1  0
 15 14  2  0
 15 10  1  0
 17 16  1  0
 17  1  1  0
 18 17  1  0
  1 19  1  1
  2 20  1  0
  2 21  1  0
  3 22  1  0
  3 23  1  0
  4 24  1  6
  5 25  1  0
  5 26  1  0
  6 27  1  0
  6 28  1  0
  9 29  1  0
 11 30  1  0
 12 31  1  0
 14 32  1  0
 15 33  1  0
 16 34  1  0
 16 35  1  0
 16 36  1  0
 17 37  1  1
 18 38  1  0
 18 39  1  0
 18 40  1  0
M  CHG  1  18   1
M  END
>  <score>  (4) 
-7.933

$$$$
=
     RDKit          3D

 40 41  0  0  0  0  0  0  0  0999 V2000
    3.3200   68.1620   63.5020 C   0  0  2  0  0  0  0  0  0  0  0  0
    3.1950   66.6820   63.9050 C   0  0  0  0  0  0  0  0  0  0  0  0
    1.8770   66.3320   64.6070 C   0  0  0  0  0  0  0  0  0  0  0  0
    1.1680   67.5170   65.2690 C   0  0  2  0  0  0  0  0  0  0  0  0
    0.9580   68.6840   64.2860 C   0  0  0  0  0  0  0  0  0  0  0  0
    1.9420   68.7070   63.1070 C   0  0  0  0  0  0  0  0  0  0  0  0
    1.8990   68.0000   66.5300 C   0  0  0  0  0  0  0  0  0  0  0  0
    1.7300   67.4510   67.6150 O   0  0  0  0  0  0  0  0  0  0  0  0
    2.7910   69.0240   66.2650 N   0  0  0  0  0  0  0  0  0  0  0  0
    3.6490   69.6740   67.1820 C   0  0  0  0  0  0  0  0  0  0  0  0
    4.9770   69.8620   66.7930 C   0  0  0  0  0  0  0  0  0  0  0  0
    5.8450   70.4860   67.6740 C   0  0  0  0  0  0  0  0  0  0  0  0
    5.4810   70.9270   68.8940 N   0  0  0  0  0  0  0  0  0  0  0  0
    4.1910   70.7470   69.2430 C   0  0  0  0  0  0  0  0  0  0  0  0
    3.2500   70.1320   68.4330 C   0  0  0  0  0  0  0  0  0  0  0  0
    5.6370   69.1670   62.9040 C   0  0  0  0  0  0  0  0  0  0  0  0
    4.4320   68.3540   62.4480 C   0  0  1  0  0  0  0  0  0  0  0  0
    4.9270   67.0100   62.0200 N   0  0  0  0  0  4  0  0  0  0  0  0
    3.6476   68.7702   64.3580 H   0  0  0  0  0  0  0  0  0  0  0  0
    3.2751   66.0686   62.9954 H   0  0  0  0  0  0  0  0  0  0  0  0
    4.0009   66.4810   64.6262 H   0  0  0  0  0  0  0  0  0  0  0  0
    1.1955   65.8995   63.8597 H   0  0  0  0  0  0  0  0  0  0  0  0
    2.1333   65.6328   65.4165 H   0  0  0  0  0  0  0  0  0  0  0  0
    0.1780   67.1489   65.5764 H   0  0  0  0  0  0  0  0  0  0  0  0
   -0.0622   68.6130   63.8810 H   0  0  0  0  0  0  0  0  0  0  0  0
    1.1304   69.6088   64.8561 H   0  0  0  0  0  0  0  0  0  0  0  0
    1.5355   68.0897   62.2923 H   0  0  0  0  0  0  0  0  0  0  0  0
    2.0673   69.7521   62.7877 H   0  0  0  0  0  0  0  0  0  0  0  0
    2.8351   69.3498   65.2889 H   0  0  0  0  0  0  0  0  0  0  0  0
    5.3266   69.5215   65.8072 H   0  0  0  0  0  0  0  0  0  0  0  0
    6.8895   70.6294   67.3601 H   0  0  0  0  0  0  0  0  0  0  0  0
    3.8664   71.1100   70.2294 H   0  0  0  0  0  0  0  0  0  0  0  0
    2.2108   70.0088   68.7718 H   0  0  0  0  0  0  0  0  0  0  0  0
    5.6697   69.1891   64.0033 H   0  0  0  0  0  0  0  0  0  0  0  0
    6.5580   68.7049   62.5190 H   0  0  0  0  0  0  0  0  0  0  0  0
    5.5534   70.1940   62.5190 H   0  0  0  0  0  0  0  0  0  0  0  0
    3.9621   68.9266   61.6348 H   0  0  0  0  0  0  0  0  0  0  0  0
    5.1368   66.4404   62.8521 H   0  0  0  0  0  0  0  0  0  0  0  0
    4.2035   66.5411   61.4565 H   0  0  0  0  0  0  0  0  0  0  0  0
    5.7818   67.1224   61.4565 H   0  0  0  0  0  0  0  0  0  0  0  0
  2  1  1  0
  3  2  1  0
  4  3  1  0
  5  4  1  0
  6  5  1  0
  6  1  1  0
  7  4  1  0
  8  7  2  0
  9  7  1  0
 10  9  1  0
 11 10  2  0
 12 11  1  0
 13 12  2  0
 14 13  1  0
 15 14  2  0
 15 10  1  0
 17 16  1  0
 17  1  1  0
 18 17  1  0
  1 19  1  1
  2 20  1  0
  2 21  1  0
  3 22  1  0
  3 23  1  0
  4 24  1  1
  5 25  1  0
  5 26  1  0
  6 27  1  0
  6 28  1  0
  9 29  1  0
 11 30  1  0
 12 31  1  0
 14 32  1  0
 15 33  1  0
 16 34  1  0
 16 35  1  0
 16 36  1  0
 17 37  1  6
 18 38  1  0
 18 39  1  0
 18 40  1  0
M  CHG  1  18   1
M  END
>  <score>  (5) 
-7.929

$$$$
=
     RDKit          3D

 40 41  0  0  0  0  0  0  0  0999 V2000
    2.2700   67.7430   65.7780 C   0  0  2  0  0  0  0  0  0  0  0  0
    0.8230   68.0060   65.3230 C   0  0  0  0  0  0  0  0  0  0  0  0
   -0.0190   68.7950   66.3340 C   0  0  0  0  0  0  0  0  0  0  0  0
    0.4800   68.7230   67.7800 C   0  0  2  0  0  0  0  0  0  0  0  0
    1.9640   69.1160   67.8970 C   0  0  0  0  0  0  0  0  0  0  0  0
    2.7740   68.9320   66.6050 C   0  0  0  0  0  0  0  0  0  0  0  0
    0.2370   67.3430   68.4090 C   0  0  0  0  0  0  0  0  0  0  0  0
   -0.5770   66.5580   67.9310 O   0  0  0  0  0  0  0  0  0  0  0  0
    1.0830   67.0910   69.4750 N   0  0  0  0  0  0  0  0  0  0  0  0
    1.1550   65.9130   70.2530 C   0  0  0  0  0  0  0  0  0  0  0  0
    0.1480   65.7100   71.2000 C   0  0  0  0  0  0  0  0  0  0  0  0
    0.1950   64.5700   71.9860 C   0  0  0  0  0  0  0  0  0  0  0  0
    1.1630   63.6380   71.8900 N   0  0  0  0  0  0  0  0  0  0  0  0
    2.1170   63.8470   70.9600 C   0  0  0  0  0  0  0  0  0  0  0  0
    2.1570   64.9560   70.1300 C   0  0  0  0  0  0  0  0  0  0  0  0
    3.3520   65.8510   64.3700 C   0  0  0  0  0  0  0  0  0  0  0  0
    3.1600   67.3480   64.5810 C   0  0  1  0  0  0  0  0  0  0  0  0
    2.5630   67.9080   63.3290 N   0  0  0  0  0  4  0  0  0  0  0  0
    2.3135   66.8725   66.4490 H   0  0  0  0  0  0  0  0  0  0  0  0
    0.8550   68.5747   64.3819 H   0  0  0  0  0  0  0  0  0  0  0  0
    0.3429   67.0228   65.2098 H   0  0  0  0  0  0  0  0  0  0  0  0
   -0.0234   69.8509   66.0256 H   0  0  0  0  0  0  0  0  0  0  0  0
   -1.0192   68.3372   66.3283 H   0  0  0  0  0  0  0  0  0  0  0  0
   -0.1115   69.4580   68.3455 H   0  0  0  0  0  0  0  0  0  0  0  0
    2.0172   70.1754   68.1882 H   0  0  0  0  0  0  0  0  0  0  0  0
    2.4087   68.4424   68.6443 H   0  0  0  0  0  0  0  0  0  0  0  0
    2.6907   69.8468   65.9998 H   0  0  0  0  0  0  0  0  0  0  0  0
    3.8196   68.7344   66.8836 H   0  0  0  0  0  0  0  0  0  0  0  0
    1.7338   67.8474   69.7303 H   0  0  0  0  0  0  0  0  0  0  0  0
   -0.6657   66.4405   71.3191 H   0  0  0  0  0  0  0  0  0  0  0  0
   -0.6016   64.4176   72.7291 H   0  0  0  0  0  0  0  0  0  0  0  0
    2.9104   63.0925   70.8540 H   0  0  0  0  0  0  0  0  0  0  0  0
    2.9626   65.0768   69.3908 H   0  0  0  0  0  0  0  0  0  0  0  0
    3.4165   65.3484   65.3463 H   0  0  0  0  0  0  0  0  0  0  0  0
    2.4982   65.4478   63.8057 H   0  0  0  0  0  0  0  0  0  0  0  0
    4.2799   65.6763   63.8057 H   0  0  0  0  0  0  0  0  0  0  0  0
    4.1532   67.7593   64.8144 H   0  0  0  0  0  0  0  0  0  0  0  0
    1.8332   68.5926   63.5730 H   0  0  0  0  0  0  0  0  0  0  0  0
    3.2977   68.3719   62.7759 H   0  0  0  0  0  0  0  0  0  0  0  0
    2.1470   67.1451   62.7759 H   0  0  0  0  0  0  0  0  0  0  0  0
  2  1  1  0
  3  2  1  0
  4  3  1  0
  5  4  1  0
  6  5  1  0
  6  1  1  0
  7  4  1  0
  8  7  2  0
  9  7  1  0
 10  9  1  0
 11 10  2  0
 12 11  1  0
 13 12  2  0
 14 13  1  0
 15 14  2  0
 15 10  1  0
 17 16  1  0
 17  1  1  0
 18 17  1  0
  1 19  1  1
  2 20  1  0
  2 21  1  0
  3 22  1  0
  3 23  1  0
  4 24  1  1
  5 25  1  0
  5 26  1  0
  6 27  1  0
  6 28  1  0
  9 29  1  0
 11 30  1  0
 12 31  1  0
 14 32  1  0
 15 33  1  0
 16 34  1  0
 16 35  1  0
 16 36  1  0
 17 37  1  1
 18 38  1  0
 18 39  1  0
 18 40  1  0
M  CHG  1  18   1
M  END
>  <score>  (6) 
-7.726

$$$$
=
     RDKit          3D

 40 41  0  0  0  0  0  0  0  0999 V2000
    1.2400   66.9860   68.8750 C   0  0  2  0  0  0  0  0  0  0  0  0
    1.7580   68.4180   69.1040 C   0  0  0  0  0  0  0  0  0  0  0  0
    1.3560   69.4130   68.0070 C   0  0  0  0  0  0  0  0  0  0  0  0
    1.0100   68.7760   66.6580 C   0  0  2  0  0  0  0  0  0  0  0  0
   -0.0570   67.6730   66.7980 C   0  0  0  0  0  0  0  0  0  0  0  0
   -0.1330   67.0370   68.1940 C   0  0  0  0  0  0  0  0  0  0  0  0
    2.2530   68.2330   65.9370 C   0  0  0  0  0  0  0  0  0  0  0  0
    3.3260   68.8260   65.9830 O   0  0  0  0  0  0  0  0  0  0  0  0
    2.0240   67.0060   65.3380 N   0  0  0  0  0  0  0  0  0  0  0  0
    2.9530   66.2130   64.6270 C   0  0  0  0  0  0  0  0  0  0  0  0
    3.6050   66.8070   63.5450 C   0  0  0  0  0  0  0  0  0  0  0  0
    4.5140   66.0530   62.8200 C   0  0  0  0  0  0  0  0  0  0  0  0
    4.8080   64.7690   63.1010 N   0  0  0  0  0  0  0  0  0  0  0  0
    4.1780   64.2190   64.1590 C   0  0  0  0  0  0  0  0  0  0  0  0
    3.2520   64.8920   64.9410 C   0  0  0  0  0  0  0  0  0  0  0  0
   -0.0280   65.9930   70.9090 C   0  0  0  0  0  0  0  0  0  0  0  0
    1.2990   66.1650   70.1810 C   0  0  1  0  0  0  0  0  0  0  0  0
    1.8260   64.8010   69.8700 N   0  0  0  0  0  4  0  0  0  0  0  0
    1.8969   66.4419   68.1804 H   0  0  0  0  0  0  0  0  0  0  0  0
    1.3584   68.7807   70.0625 H   0  0  0  0  0  0  0  0  0  0  0  0
    2.8566   68.3630   69.0950 H   0  0  0  0  0  0  0  0  0  0  0  0
    0.4756   69.9716   68.3575 H   0  0  0  0  0  0  0  0  0  0  0  0
    2.2339   70.0522   67.8317 H   0  0  0  0  0  0  0  0  0  0  0  0
    0.5876   69.5812   66.0389 H   0  0  0  0  0  0  0  0  0  0  0  0
   -1.0384   68.1124   66.5663 H   0  0  0  0  0  0  0  0  0  0  0  0
    0.2285   66.8701   66.1024 H   0  0  0  0  0  0  0  0  0  0  0  0
   -0.8176   67.6301   68.8181 H   0  0  0  0  0  0  0  0  0  0  0  0
   -0.4948   66.0046   68.0789 H   0  0  0  0  0  0  0  0  0  0  0  0
    1.0691   66.6286   65.4197 H   0  0  0  0  0  0  0  0  0  0  0  0
    3.4012   67.8532   63.2732 H   0  0  0  0  0  0  0  0  0  0  0  0
    5.0230   66.5289   61.9689 H   0  0  0  0  0  0  0  0  0  0  0  0
    4.4125   63.1756   64.4165 H   0  0  0  0  0  0  0  0  0  0  0  0
    2.7647   64.3920   65.7910 H   0  0  0  0  0  0  0  0  0  0  0  0
    0.1441   66.0153   71.9952 H   0  0  0  0  0  0  0  0  0  0  0  0
   -0.7086   66.8104   70.6287 H   0  0  0  0  0  0  0  0  0  0  0  0
   -0.4777   65.0291   70.6287 H   0  0  0  0  0  0  0  0  0  0  0  0
    1.9499   66.7419   70.8545 H   0  0  0  0  0  0  0  0  0  0  0  0
    2.0198   64.2993   70.7484 H   0  0  0  0  0  0  0  0  0  0  0  0
    1.1262   64.2789   69.3237 H   0  0  0  0  0  0  0  0  0  0  0  0
    2.6951   64.8851   69.3237 H   0  0  0  0  0  0  0  0  0  0  0  0
  2  1  1  0
  3  2  1  0
  4  3  1  0
  5  4  1  0
  6  5  1  0
  6  1  1  0
  7  4  1  0
  8  7  2  0
  9  7  1  0
 10  9  1  0
 11 10  2  0
 12 11  1  0
 13 12  2  0
 14 13  1  0
 15 14  2  0
 15 10  1  0
 17 16  1  0
 17  1  1  0
 18 17  1  0
  1 19  1  6
  2 20  1  0
  2 21  1  0
  3 22  1  0
  3 23  1  0
  4 24  1  6
  5 25  1  0
  5 26  1  0
  6 27  1  0
  6 28  1  0
  9 29  1  0
 11 30  1  0
 12 31  1  0
 14 32  1  0
 15 33  1  0
 16 34  1  0
 16 35  1  0
 16 36  1  0
 17 37  1  1
 18 38  1  0
 18 39  1  0
 18 40  1  0
M  CHG  1  18   1
M  END
>  <score>  (7) 
-7.704

$$$$
=
     RDKit          3D

 40 41  0  0  0  0  0  0  0  0999 V2000
    3.7400   62.0260   70.2890 C   0  0  2  0  0  0  0  0  0  0  0  0
    4.8590   62.2010   71.3310 C   0  0  0  0  0  0  0  0  0  0  0  0
    5.2720   60.9000   72.0320 C   0  0  0  0  0  0  0  0  0  0  0  0
    4.2110   59.7960   72.0150 C   0  0  2  0  0  0  0  0  0  0  0  0
    3.7110   59.5010   70.5880 C   0  0  0  0  0  0  0  0  0  0  0  0
    3.8850   60.6640   69.6000 C   0  0  0  0  0  0  0  0  0  0  0  0
    3.0290   60.1130   72.9440 C   0  0  0  0  0  0  0  0  0  0  0  0
    3.2060   60.5990   74.0570 O   0  0  0  0  0  0  0  0  0  0  0  0
    1.8050   59.8690   72.3460 N   0  0  0  0  0  0  0  0  0  0  0  0
    0.5230   60.0830   72.8990 C   0  0  0  0  0  0  0  0  0  0  0  0
   -0.0110   59.0640   73.6910 C   0  0  0  0  0  0  0  0  0  0  0  0
   -1.2710   59.2390   74.2400 C   0  0  0  0  0  0  0  0  0  0  0  0
   -2.0180   60.3440   74.0540 N   0  0  0  0  0  0  0  0  0  0  0  0
   -1.4780   61.3210   73.2980 C   0  0  0  0  0  0  0  0  0  0  0  0
   -0.2280   61.2380   72.7050 C   0  0  0  0  0  0  0  0  0  0  0  0
    3.7150   62.9160   67.8510 C   0  0  0  0  0  0  0  0  0  0  0  0
    3.6770   63.2410   69.3390 C   0  0  1  0  0  0  0  0  0  0  0  0
    2.4140   63.9970   69.6050 N   0  0  0  0  0  4  0  0  0  0  0  0
    2.7549   62.0102   70.7782 H   0  0  0  0  0  0  0  0  0  0  0  0
    5.7424   62.6150   70.8229 H   0  0  0  0  0  0  0  0  0  0  0  0
    4.4647   62.8696   72.1104 H   0  0  0  0  0  0  0  0  0  0  0  0
    6.1744   60.5149   71.5345 H   0  0  0  0  0  0  0  0  0  0  0  0
    5.4348   61.1564   73.0892 H   0  0  0  0  0  0  0  0  0  0  0  0
    4.7046   58.8903   72.3972 H   0  0  0  0  0  0  0  0  0  0  0  0
    4.2677   58.6349   70.2009 H   0  0  0  0  0  0  0  0  0  0  0  0
    2.6295   59.3162   70.6670 H   0  0  0  0  0  0  0  0  0  0  0  0
    4.8854   60.5993   69.1471 H   0  0  0  0  0  0  0  0  0  0  0  0
    3.0978   60.5829   68.8359 H   0  0  0  0  0  0  0  0  0  0  0  0
    1.8319   59.4882   71.3893 H   0  0  0  0  0  0  0  0  0  0  0  0
    0.5577   58.1406   73.8753 H   0  0  0  0  0  0  0  0  0  0  0  0
   -1.6838   58.4310   74.8619 H   0  0  0  0  0  0  0  0  0  0  0  0
   -2.0644   62.2386   73.1426 H   0  0  0  0  0  0  0  0  0  0  0  0
    0.1614   62.0664   72.0949 H   0  0  0  0  0  0  0  0  0  0  0  0
    3.8418   61.8317   67.7156 H   0  0  0  0  0  0  0  0  0  0  0  0
    2.7733   63.2365   67.3815 H   0  0  0  0  0  0  0  0  0  0  0  0
    4.5574   63.4451   67.3815 H   0  0  0  0  0  0  0  0  0  0  0  0
    4.5875   63.8199   69.5534 H   0  0  0  0  0  0  0  0  0  0  0  0
    2.2723   64.0818   70.6217 H   0  0  0  0  0  0  0  0  0  0  0  0
    2.4819   64.9365   69.1882 H   0  0  0  0  0  0  0  0  0  0  0  0
    1.6181   63.4933   69.1882 H   0  0  0  0  0  0  0  0  0  0  0  0
  2  1  1  0
  3  2  1  0
  4  3  1  0
  5  4  1  0
  6  5  1  0
  6  1  1  0
  7  4  1  0
  8  7  2  0
  9  7  1  0
 10  9  1  0
 11 10  2  0
 12 11  1  0
 13 12  2  0
 14 13  1  0
 15 14  2  0
 15 10  1  0
 17 16  1  0
 17  1  1  0
 18 17  1  0
  1 19  1  1
  2 20  1  0
  2 21  1  0
  3 22  1  0
  3 23  1  0
  4 24  1  1
  5 25  1  0
  5 26  1  0
  6 27  1  0
  6 28  1  0
  9 29  1  0
 11 30  1  0
 12 31  1  0
 14 32  1  0
 15 33  1  0
 16 34  1  0
 16 35  1  0
 16 36  1  0
 17 37  1  1
 18 38  1  0
 18 39  1  0
 18 40  1  0
M  CHG  1  18   1
M  END
>  <score>  (8) 
-7.493

$$$$
=
     RDKit          3D

 40 41  0  0  0  0  0  0  0  0999 V2000
    2.2890   62.6820   70.4230 C   0  0  2  0  0  0  0  0  0  0  0  0
    3.4160   63.6460   70.8360 C   0  0  0  0  0  0  0  0  0  0  0  0
    4.8290   63.0980   70.5970 C   0  0  0  0  0  0  0  0  0  0  0  0
    4.9220   61.5710   70.5210 C   0  0  2  0  0  0  0  0  0  0  0  0
    3.9380   60.9850   69.4900 C   0  0  0  0  0  0  0  0  0  0  0  0
    2.7240   61.8770   69.1920 C   0  0  0  0  0  0  0  0  0  0  0  0
    4.7210   60.9090   71.8930 C   0  0  0  0  0  0  0  0  0  0  0  0
    5.2230   61.3810   72.9080 O   0  0  0  0  0  0  0  0  0  0  0  0
    3.8680   59.8200   71.8350 N   0  0  0  0  0  0  0  0  0  0  0  0
    3.4400   59.0080   72.9100 C   0  0  0  0  0  0  0  0  0  0  0  0
    2.4180   58.0930   72.6520 C   0  0  0  0  0  0  0  0  0  0  0  0
    1.9680   57.2890   73.6880 C   0  0  0  0  0  0  0  0  0  0  0  0
    2.4640   57.3390   74.9390 N   0  0  0  0  0  0  0  0  0  0  0  0
    3.4600   58.2210   75.1630 C   0  0  0  0  0  0  0  0  0  0  0  0
    3.9730   59.0680   74.1930 C   0  0  0  0  0  0  0  0  0  0  0  0
    0.0030   63.3230   71.4710 C   0  0  0  0  0  0  0  0  0  0  0  0
    0.9480   63.4320   70.2800 C   0  0  1  0  0  0  0  0  0  0  0  0
    1.2280   64.8830   70.0550 N   0  0  0  0  0  4  0  0  0  0  0  0
    2.1039   61.9407   71.2143 H   0  0  0  0  0  0  0  0  0  0  0  0
    3.3040   64.5757   70.2588 H   0  0  0  0  0  0  0  0  0  0  0  0
    3.3165   63.8039   71.9201 H   0  0  0  0  0  0  0  0  0  0  0  0
    5.2000   63.5110   69.6474 H   0  0  0  0  0  0  0  0  0  0  0  0
    5.4299   63.4017   71.4669 H   0  0  0  0  0  0  0  0  0  0  0  0
    5.9439   61.3422   70.1843 H   0  0  0  0  0  0  0  0  0  0  0  0
    4.4833   60.8208   68.5489 H   0  0  0  0  0  0  0  0  0  0  0  0
    3.5442   60.0550   69.9259 H   0  0  0  0  0  0  0  0  0  0  0  0
    2.9864   62.5763   68.3844 H   0  0  0  0  0  0  0  0  0  0  0  0
    1.8874   61.2264   68.8974 H   0  0  0  0  0  0  0  0  0  0  0  0
    3.5042   59.5737   70.9034 H   0  0  0  0  0  0  0  0  0  0  0  0
    1.9785   58.0114   71.6469 H   0  0  0  0  0  0  0  0  0  0  0  0
    1.1618   56.5711   73.4766 H   0  0  0  0  0  0  0  0  0  0  0  0
    3.8900   58.2709   76.1742 H   0  0  0  0  0  0  0  0  0  0  0  0
    4.7836   59.7719   74.4328 H   0  0  0  0  0  0  0  0  0  0  0  0
    0.5807   63.3896   72.4047 H   0  0  0  0  0  0  0  0  0  0  0  0
   -0.7297   64.1426   71.4339 H   0  0  0  0  0  0  0  0  0  0  0  0
   -0.5239   62.3581   71.4339 H   0  0  0  0  0  0  0  0  0  0  0  0
    0.4376   62.9488   69.4338 H   0  0  0  0  0  0  0  0  0  0  0  0
    1.3200   65.3598   70.9634 H   0  0  0  0  0  0  0  0  0  0  0  0
    2.1042   64.9852   69.5233 H   0  0  0  0  0  0  0  0  0  0  0  0
    0.4527   65.3039   69.5233 H   0  0  0  0  0  0  0  0  0  0  0  0
  2  1  1  0
  3  2  1  0
  4  3  1  0
  5  4  1  0
  6  5  1  0
  6  1  1  0
  7  4  1  0
  8  7  2  0
  9  7  1  0
 10  9  1  0
 11 10  2  0
 12 11  1  0
 13 12  2  0
 14 13  1  0
 15 14  2  0
 15 10  1  0
 17 16  1  0
 17  1  1  0
 18 17  1  0
  1 19  1  1
  2 20  1  0
  2 21  1  0
  3 22  1  0
  3 23  1  0
  4 24  1  6
  5 25  1  0
  5 26  1  0
  6 27  1  0
  6 28  1  0
  9 29  1  0
 11 30  1  0
 12 31  1  0
 14 32  1  0
 15 33  1  0
 16 34  1  0
 16 35  1  0
 16 36  1  0
 17 37  1  6
 18 38  1  0
 18 39  1  0
 18 40  1  0
M  CHG  1  18   1
M  END
>  <score>  (9) 
-7.479

$$$$
