=
     RDKit          3D

 35 37  0  0  0  0  0  0  0  0999 V2000
    3.7480   69.0770   60.4110 F   0  0  0  0  0  0  0  0  0  0  0  0
    2.8750   68.9800   61.4220 C   0  0  0  0  0  0  0  0  0  0  0  0
    1.5240   69.1990   61.1830 C   0  0  0  0  0  0  0  0  0  0  0  0
    0.6130   69.1000   62.2360 C   0  0  0  0  0  0  0  0  0  0  0  0
    1.0620   68.7780   63.5270 C   0  0  0  0  0  0  0  0  0  0  0  0
    2.4190   68.5570   63.7470 C   0  0  0  0  0  0  0  0  0  0  0  0
    3.3350   68.6610   62.6930 C   0  0  0  0  0  0  0  0  0  0  0  0
    2.8940   68.2070   65.0910 C   0  0  0  0  0  0  0  0  0  0  0  0
    4.0870   68.0830   65.3380 O   0  0  0  0  0  0  0  0  0  0  0  0
    1.9460   68.0020   66.0580 N   0  0  0  0  0  0  0  0  0  0  0  0
    0.6060   68.4130   65.9050 N   0  0  0  0  0  0  0  0  0  0  0  0
    0.0920   68.6950   64.6420 C   0  0  0  0  0  0  0  0  0  0  0  0
   -1.1000   68.8290   64.3820 O   0  0  0  0  0  0  0  0  0  0  0  0
   -0.1960   68.5280   67.0440 C   0  0  0  0  0  0  0  0  0  0  0  0
   -0.9980   69.4400   67.2350 O   0  0  0  0  0  0  0  0  0  0  0  0
    0.0290   67.5600   68.1570 C   0  0  0  0  0  0  0  0  0  0  0  0
    1.2220   67.5600   68.8940 C   0  0  0  0  0  0  0  0  0  0  0  0
    1.4130   66.6270   69.9160 C   0  0  0  0  0  0  0  0  0  0  0  0
    0.4120   65.6890   70.1920 C   0  0  0  0  0  0  0  0  0  0  0  0
   -0.7680   65.6610   69.4430 C   0  0  0  0  0  0  0  0  0  0  0  0
   -0.9570   66.5980   68.4230 C   0  0  0  0  0  0  0  0  0  0  0  0
    0.6780   64.4780   71.4650 S   0  0  0  0  0  6  0  0  0  0  0  0
    2.0840   64.1470   71.4910 O   0  0  0  0  0  0  0  0  0  0  0  0
   -0.0500   64.8900   72.6400 O   0  0  0  0  0  0  0  0  0  0  0  0
   -0.0960   63.1320   70.8180 N   0  0  0  0  0  0  0  0  0  0  0  0
    1.1745   69.4488   60.1704 H   0  0  0  0  0  0  0  0  0  0  0  0
   -0.4578   69.2744   62.0543 H   0  0  0  0  0  0  0  0  0  0  0  0
    4.4074   68.4918   62.8698 H   0  0  0  0  0  0  0  0  0  0  0  0
    2.2226   67.5295   66.9304 H   0  0  0  0  0  0  0  0  0  0  0  0
    2.0081   68.2953   68.6672 H   0  0  0  0  0  0  0  0  0  0  0  0
    2.3449   66.6297   70.5004 H   0  0  0  0  0  0  0  0  0  0  0  0
   -1.5414   64.9079   69.6545 H   0  0  0  0  0  0  0  0  0  0  0  0
   -1.8815   66.5810   67.8272 H   0  0  0  0  0  0  0  0  0  0  0  0
   -0.4402   62.5335   71.5823 H   0  0  0  0  0  0  0  0  0  0  0  0
   -0.8899   63.4384   70.2377 H   0  0  0  0  0  0  0  0  0  0  0  0
  2  1  1  0
  3  2  2  0
  4  3  1  0
  5  4  2  0
  6  5  1  0
  7  6  2  0
  7  2  1  0
  8  6  1  0
  9  8  2  0
 10  8  1  0
 11 10  1  0
 12  5  1  0
 12 11  1  0
 13 12  2  0
 14 11  1  0
 15 14  2  0
 16 14  1  0
 17 16  2  0
 18 17  1  0
 19 18  2  0
 20 19  1  0
 21 20  2  0
 21 16  1  0
 22 19  1  0
 23 22  2  0
 24 22  2  0
 25 22  1  0
  3 26  1  0
  4 27  1  0
  7 28  1  0
 10 29  1  0
 17 30  1  0
 18 31  1  0
 20 32  1  0
 21 33  1  0
 25 34  1  0
 25 35  1  0
M  END
>  <score>  (1) 
-9.509

$$$$
=
     RDKit          3D

 35 37  0  0  0  0  0  0  0  0999 V2000
    3.9830   63.0890   67.6830 F   0  0  0  0  0  0  0  0  0  0  0  0
    3.5610   62.6360   68.8700 C   0  0  0  0  0  0  0  0  0  0  0  0
    3.0330   63.5290   69.7940 C   0  0  0  0  0  0  0  0  0  0  0  0
    2.5930   63.0580   71.0330 C   0  0  0  0  0  0  0  0  0  0  0  0
    2.6830   61.6910   71.3390 C   0  0  0  0  0  0  0  0  0  0  0  0
    3.2100   60.8090   70.3980 C   0  0  0  0  0  0  0  0  0  0  0  0
    3.6560   61.2800   69.1570 C   0  0  0  0  0  0  0  0  0  0  0  0
    3.2950   59.3760   70.7050 C   0  0  0  0  0  0  0  0  0  0  0  0
    3.8250   58.5860   69.9350 O   0  0  0  0  0  0  0  0  0  0  0  0
    2.7380   58.9530   71.8820 N   0  0  0  0  0  0  0  0  0  0  0  0
    2.3870   59.8430   72.9190 N   0  0  0  0  0  0  0  0  0  0  0  0
    2.2340   61.2020   72.6620 C   0  0  0  0  0  0  0  0  0  0  0  0
    1.7110   62.0070   73.4280 O   0  0  0  0  0  0  0  0  0  0  0  0
    2.1950   59.3330   74.2060 C   0  0  0  0  0  0  0  0  0  0  0  0
    2.5840   59.8850   75.2330 O   0  0  0  0  0  0  0  0  0  0  0  0
    1.6000   57.9710   74.3350 C   0  0  0  0  0  0  0  0  0  0  0  0
    0.2990   57.6970   73.8880 C   0  0  0  0  0  0  0  0  0  0  0  0
   -0.2380   56.4160   74.0420 C   0  0  0  0  0  0  0  0  0  0  0  0
    0.5240   55.4150   74.6520 C   0  0  0  0  0  0  0  0  0  0  0  0
    1.8100   55.6860   75.1290 C   0  0  0  0  0  0  0  0  0  0  0  0
    2.3460   56.9670   74.9700 C   0  0  0  0  0  0  0  0  0  0  0  0
   -0.1810   53.8010   74.8830 S   0  0  0  0  0  6  0  0  0  0  0  0
    0.1070   53.0060   73.7120 O   0  0  0  0  0  0  0  0  0  0  0  0
    0.1260   53.3610   76.2230 O   0  0  0  0  0  0  0  0  0  0  0  0
   -1.8270   54.1390   74.8120 N   0  0  0  0  0  0  0  0  0  0  0  0
    2.9620   64.5996   69.5515 H   0  0  0  0  0  0  0  0  0  0  0  0
    2.1753   63.7594   71.7702 H   0  0  0  0  0  0  0  0  0  0  0  0
    4.0772   60.5836   68.4170 H   0  0  0  0  0  0  0  0  0  0  0  0
    2.5686   57.9459   72.0156 H   0  0  0  0  0  0  0  0  0  0  0  0
   -0.2988   58.4907   73.4161 H   0  0  0  0  0  0  0  0  0  0  0  0
   -1.2550   56.1964   73.6851 H   0  0  0  0  0  0  0  0  0  0  0  0
    2.3950   54.8977   75.6253 H   0  0  0  0  0  0  0  0  0  0  0  0
    3.3564   57.1886   75.3441 H   0  0  0  0  0  0  0  0  0  0  0  0
   -2.2032   54.2162   75.7677 H   0  0  0  0  0  0  0  0  0  0  0  0
   -1.9738   55.0277   74.3124 H   0  0  0  0  0  0  0  0  0  0  0  0
  2  1  1  0
  3  2  2  0
  4  3  1  0
  5  4  2  0
  6  5  1  0
  7  6  2  0
  7  2  1  0
  8  6  1  0
  9  8  2  0
 10  8  1  0
 11 10  1  0
 12  5  1  0
 12 11  1  0
 13 12  2  0
 14 11  1  0
 15 14  2  0
 16 14  1  0
 17 16  2  0
 18 17  1  0
 19 18  2  0
 20 19  1  0
 21 20  2  0
 21 16  1  0
 22 19  1  0
 23 22  2  0
 24 22  2  0
 25 22  1  0
  3 26  1  0
  4 27  1  0
  7 28  1  0
 10 29  1  0
 17 30  1  0
 18 31  1  0
 20 32  1  0
 21 33  1  0
 25 34  1  0
 25 35  1  0
M  END
>  <score>  (2) 
-9.204

$$$$
=
     RDKit          3D

 35 37  0  0  0  0  0  0  0  0999 V2000
   -0.0490   66.4790   70.6390 F   0  0  0  0  0  0  0  0  0  0  0  0
    0.6340   65.3350   70.7580 C   0  0  0  0  0  0  0  0  0  0  0  0
    1.9320   65.2580   70.2680 C   0  0  0  0  0  0  0  0  0  0  0  0
    2.6450   64.0650   70.3910 C   0  0  0  0  0  0  0  0  0  0  0  0
    2.0540   62.9510   71.0080 C   0  0  0  0  0  0  0  0  0  0  0  0
    0.7540   63.0470   71.4980 C   0  0  0  0  0  0  0  0  0  0  0  0
    0.0350   64.2420   71.3720 C   0  0  0  0  0  0  0  0  0  0  0  0
    0.1330   61.8910   72.1570 C   0  0  0  0  0  0  0  0  0  0  0  0
   -1.0330   61.9150   72.5280 O   0  0  0  0  0  0  0  0  0  0  0  0
    0.9190   60.7880   72.3600 N   0  0  0  0  0  0  0  0  0  0  0  0
    2.1520   60.6050   71.7010 N   0  0  0  0  0  0  0  0  0  0  0  0
    2.8090   61.6830   71.1160 C   0  0  0  0  0  0  0  0  0  0  0  0
    3.9760   61.6710   70.7320 O   0  0  0  0  0  0  0  0  0  0  0  0
    2.7020   59.3200   71.6510 C   0  0  0  0  0  0  0  0  0  0  0  0
    3.2530   58.8430   70.6610 O   0  0  0  0  0  0  0  0  0  0  0  0
    2.4890   58.4230   72.8240 C   0  0  0  0  0  0  0  0  0  0  0  0
    1.6020   57.3380   72.7610 C   0  0  0  0  0  0  0  0  0  0  0  0
    1.4080   56.5290   73.8840 C   0  0  0  0  0  0  0  0  0  0  0  0
    2.0950   56.8130   75.0690 C   0  0  0  0  0  0  0  0  0  0  0  0
    2.9580   57.9090   75.1490 C   0  0  0  0  0  0  0  0  0  0  0  0
    3.1530   58.7150   74.0240 C   0  0  0  0  0  0  0  0  0  0  0  0
    1.8110   55.8050   76.5040 S   0  0  0  0  0  6  0  0  0  0  0  0
    2.7730   56.1730   77.5170 O   0  0  0  0  0  0  0  0  0  0  0  0
    0.3910   55.7630   76.7530 O   0  0  0  0  0  0  0  0  0  0  0  0
    2.2880   54.2890   75.9520 N   0  0  0  0  0  0  0  0  0  0  0  0
    2.3945   66.1320   69.7862 H   0  0  0  0  0  0  0  0  0  0  0  0
    3.6723   63.9972   70.0037 H   0  0  0  0  0  0  0  0  0  0  0  0
   -0.9935   64.3146   71.7552 H   0  0  0  0  0  0  0  0  0  0  0  0
    0.5972   60.0648   73.0190 H   0  0  0  0  0  0  0  0  0  0  0  0
    1.0595   57.1241   71.8283 H   0  0  0  0  0  0  0  0  0  0  0  0
    0.7185   55.6732   73.8363 H   0  0  0  0  0  0  0  0  0  0  0  0
    3.4800   58.1357   76.0903 H   0  0  0  0  0  0  0  0  0  0  0  0
    3.8292   59.5808   74.0801 H   0  0  0  0  0  0  0  0  0  0  0  0
    2.4810   53.6757   76.7567 H   0  0  0  0  0  0  0  0  0  0  0  0
    1.5353   53.8792   75.3807 H   0  0  0  0  0  0  0  0  0  0  0  0
  2  1  1  0
  3  2  2  0
  4  3  1  0
  5  4  2  0
  6  5  1  0
  7  6  2  0
  7  2  1  0
  8  6  1  0
  9  8  2  0
 10  8  1  0
 11 10  1  0
 12  5  1  0
 12 11  1  0
 13 12  2  0
 14 11  1  0
 15 14  2  0
 16 14  1  0
 17 16  2  0
 18 17  1  0
 19 18  2  0
 20 19  1  0
 21 20  2  0
 21 16  1  0
 22 19  1  0
 23 22  2  0
 24 22  2  0
 25 22  1  0
  3 26  1  0
  4 27  1  0
  7 28  1  0
 10 29  1  0
 17 30  1  0
 18 31  1  0
 20 32  1  0
 21 33  1  0
 25 34  1  0
 25 35  1  0
M  END
>  <score>  (3) 
-8.851

$$$$
=
     RDKit          3D

 35 37  0  0  0  0  0  0  0  0999 V2000
    4.5270   58.2220   71.5110 F   0  0  0  0  0  0  0  0  0  0  0  0
    3.8940   59.3860   71.7030 C   0  0  0  0  0  0  0  0  0  0  0  0
    3.7740   59.8950   72.9910 C   0  0  0  0  0  0  0  0  0  0  0  0
    3.1130   61.1070   73.1930 C   0  0  0  0  0  0  0  0  0  0  0  0
    2.5760   61.8080   72.1010 C   0  0  0  0  0  0  0  0  0  0  0  0
    2.7100   61.2850   70.8170 C   0  0  0  0  0  0  0  0  0  0  0  0
    3.3680   60.0670   70.6120 C   0  0  0  0  0  0  0  0  0  0  0  0
    2.1630   62.0180   69.6690 C   0  0  0  0  0  0  0  0  0  0  0  0
    2.1930   61.5510   68.5370 O   0  0  0  0  0  0  0  0  0  0  0  0
    1.6350   63.2580   69.9100 N   0  0  0  0  0  0  0  0  0  0  0  0
    1.3140   63.7060   71.2080 N   0  0  0  0  0  0  0  0  0  0  0  0
    1.8580   63.0830   72.3270 C   0  0  0  0  0  0  0  0  0  0  0  0
    1.8300   63.5350   73.4670 O   0  0  0  0  0  0  0  0  0  0  0  0
    0.4420   64.7900   71.3480 C   0  0  0  0  0  0  0  0  0  0  0  0
   -0.4420   64.8590   72.1990 O   0  0  0  0  0  0  0  0  0  0  0  0
    0.4990   65.8690   70.3190 C   0  0  0  0  0  0  0  0  0  0  0  0
   -0.5370   66.0460   69.3900 C   0  0  0  0  0  0  0  0  0  0  0  0
   -0.4460   67.0520   68.4240 C   0  0  0  0  0  0  0  0  0  0  0  0
    0.6870   67.8730   68.3850 C   0  0  0  0  0  0  0  0  0  0  0  0
    1.7380   67.6840   69.2870 C   0  0  0  0  0  0  0  0  0  0  0  0
    1.6420   66.6790   70.2540 C   0  0  0  0  0  0  0  0  0  0  0  0
    0.8150   69.1210   67.1280 S   0  0  0  0  0  6  0  0  0  0  0  0
    2.1630   69.1080   66.6080 O   0  0  0  0  0  0  0  0  0  0  0  0
   -0.3500   69.0330   66.2820 O   0  0  0  0  0  0  0  0  0  0  0  0
    0.6920   70.5310   68.0380 N   0  0  0  0  0  0  0  0  0  0  0  0
    4.1973   59.3460   73.8451 H   0  0  0  0  0  0  0  0  0  0  0  0
    3.0123   61.5144   74.2098 H   0  0  0  0  0  0  0  0  0  0  0  0
    3.4677   59.6531   69.5977 H   0  0  0  0  0  0  0  0  0  0  0  0
    1.4658   63.8878   69.1127 H   0  0  0  0  0  0  0  0  0  0  0  0
   -1.4214   65.3927   69.4218 H   0  0  0  0  0  0  0  0  0  0  0  0
   -1.2600   67.1977   67.6986 H   0  0  0  0  0  0  0  0  0  0  0  0
    2.6334   68.3209   69.2363 H   0  0  0  0  0  0  0  0  0  0  0  0
    2.4657   66.5230   70.9662 H   0  0  0  0  0  0  0  0  0  0  0  0
    0.7125   70.2955   69.0405 H   0  0  0  0  0  0  0  0  0  0  0  0
    1.4819   71.1534   67.8153 H   0  0  0  0  0  0  0  0  0  0  0  0
  2  1  1  0
  3  2  2  0
  4  3  1  0
  5  4  2  0
  6  5  1  0
  7  6  2  0
  7  2  1  0
  8  6  1  0
  9  8  2  0
 10  8  1  0
 11 10  1  0
 12  5  1  0
 12 11  1  0
 13 12  2  0
 14 11  1  0
 15 14  2  0
 16 14  1  0
 17 16  2  0
 18 17  1  0
 19 18  2  0
 20 19  1  0
 21 20  2  0
 21 16  1  0
 22 19  1  0
 23 22  2  0
 24 22  2  0
 25 22  1  0
  3 26  1  0
  4 27  1  0
  7 28  1  0
 10 29  1  0
 17 30  1  0
 18 31  1  0
 20 32  1  0
 21 33  1  0
 25 34  1  0
 25 35  1  0
M  END
>  <score>  (4) 
-8.703

$$$$
=
     RDKit          3D

 35 37  0  0  0  0  0  0  0  0999 V2000
    2.2710   65.3780   70.2890 F   0  0  0  0  0  0  0  0  0  0  0  0
    2.5190   64.0900   70.5570 C   0  0  0  0  0  0  0  0  0  0  0  0
    3.7150   63.5210   70.1380 C   0  0  0  0  0  0  0  0  0  0  0  0
    3.9740   62.1780   70.4150 C   0  0  0  0  0  0  0  0  0  0  0  0
    3.0300   61.4090   71.1150 C   0  0  0  0  0  0  0  0  0  0  0  0
    1.8390   61.9970   71.5320 C   0  0  0  0  0  0  0  0  0  0  0  0
    1.5750   63.3430   71.2510 C   0  0  0  0  0  0  0  0  0  0  0  0
    0.8530   61.2030   72.2770 C   0  0  0  0  0  0  0  0  0  0  0  0
   -0.2370   61.6640   72.5890 O   0  0  0  0  0  0  0  0  0  0  0  0
    1.2100   59.9290   72.6280 N   0  0  0  0  0  0  0  0  0  0  0  0
    2.3110   59.2630   72.0500 N   0  0  0  0  0  0  0  0  0  0  0  0
    3.3030   59.9800   71.3870 C   0  0  0  0  0  0  0  0  0  0  0  0
    4.3970   59.5280   71.0620 O   0  0  0  0  0  0  0  0  0  0  0  0
    2.3860   57.8710   72.1570 C   0  0  0  0  0  0  0  0  0  0  0  0
    2.7470   57.1270   71.2480 O   0  0  0  0  0  0  0  0  0  0  0  0
    1.8680   57.2380   73.4050 C   0  0  0  0  0  0  0  0  0  0  0  0
    2.5290   57.3970   74.6320 C   0  0  0  0  0  0  0  0  0  0  0  0
    2.0320   56.7740   75.7790 C   0  0  0  0  0  0  0  0  0  0  0  0
    0.8790   55.9860   75.6940 C   0  0  0  0  0  0  0  0  0  0  0  0
    0.2310   55.7970   74.4710 C   0  0  0  0  0  0  0  0  0  0  0  0
    0.7290   56.4240   73.3250 C   0  0  0  0  0  0  0  0  0  0  0  0
    0.2770   55.1630   77.1490 S   0  0  0  0  0  6  0  0  0  0  0  0
    0.0790   56.1520   78.1830 O   0  0  0  0  0  0  0  0  0  0  0  0
   -0.7500   54.2330   76.7490 O   0  0  0  0  0  0  0  0  0  0  0  0
    1.6280   54.2770   77.6190 N   0  0  0  0  0  0  0  0  0  0  0  0
    4.4536   64.1255   69.5911 H   0  0  0  0  0  0  0  0  0  0  0  0
    4.9186   61.7212   70.0847 H   0  0  0  0  0  0  0  0  0  0  0  0
    0.6307   63.8041   71.5761 H   0  0  0  0  0  0  0  0  0  0  0  0
    0.6532   59.4377   73.3418 H   0  0  0  0  0  0  0  0  0  0  0  0
    3.4388   58.0124   74.6908 H   0  0  0  0  0  0  0  0  0  0  0  0
    2.5443   56.9022   76.7440 H   0  0  0  0  0  0  0  0  0  0  0  0
   -0.6638   55.1601   74.4102 H   0  0  0  0  0  0  0  0  0  0  0  0
    0.2259   56.2784   72.3577 H   0  0  0  0  0  0  0  0  0  0  0  0
    1.6768   54.2450   78.6473 H   0  0  0  0  0  0  0  0  0  0  0  0
    1.5559   53.3186   77.2487 H   0  0  0  0  0  0  0  0  0  0  0  0
  2  1  1  0
  3  2  2  0
  4  3  1  0
  5  4  2  0
  6  5  1  0
  7  6  2  0
  7  2  1  0
  8  6  1  0
  9  8  2  0
 10  8  1  0
 11 10  1  0
 12  5  1  0
 12 11  1  0
 13 12  2  0
 14 11  1  0
 15 14  2  0
 16 14  1  0
 17 16  2  0
 18 17  1  0
 19 18  2  0
 20 19  1  0
 21 20  2  0
 21 16  1  0
 22 19  1  0
 23 22  2  0
 24 22  2  0
 25 22  1  0
  3 26  1  0
  4 27  1  0
  7 28  1  0
 10 29  1  0
 17 30  1  0
 18 31  1  0
 20 32  1  0
 21 33  1  0
 25 34  1  0
 25 35  1  0
M  END
>  <score>  (5) 
-8.597

$$$$
=
     RDKit          3D

 35 37  0  0  0  0  0  0  0  0999 V2000
    2.1410   65.6780   69.4280 F   0  0  0  0  0  0  0  0  0  0  0  0
    1.6790   64.8390   70.3630 C   0  0  0  0  0  0  0  0  0  0  0  0
    0.5270   65.1660   71.0670 C   0  0  0  0  0  0  0  0  0  0  0  0
    0.0450   64.2930   72.0430 C   0  0  0  0  0  0  0  0  0  0  0  0
    0.7200   63.0900   72.3070 C   0  0  0  0  0  0  0  0  0  0  0  0
    1.8700   62.7760   71.5880 C   0  0  0  0  0  0  0  0  0  0  0  0
    2.3590   63.6530   70.6120 C   0  0  0  0  0  0  0  0  0  0  0  0
    2.5740   61.5150   71.8490 C   0  0  0  0  0  0  0  0  0  0  0  0
    3.6310   61.2430   71.2930 O   0  0  0  0  0  0  0  0  0  0  0  0
    1.9910   60.6410   72.7270 N   0  0  0  0  0  0  0  0  0  0  0  0
    0.9510   61.0230   73.5990 N   0  0  0  0  0  0  0  0  0  0  0  0
    0.2140   62.1790   73.3580 C   0  0  0  0  0  0  0  0  0  0  0  0
   -0.8420   62.4670   73.9130 O   0  0  0  0  0  0  0  0  0  0  0  0
    0.6750   60.2190   74.7090 C   0  0  0  0  0  0  0  0  0  0  0  0
    0.4090   60.6530   75.8280 O   0  0  0  0  0  0  0  0  0  0  0  0
    0.8450   58.7440   74.5610 C   0  0  0  0  0  0  0  0  0  0  0  0
   -0.0300   57.9850   73.7690 C   0  0  0  0  0  0  0  0  0  0  0  0
    0.1420   56.6020   73.6670 C   0  0  0  0  0  0  0  0  0  0  0  0
    1.1830   55.9800   74.3660 C   0  0  0  0  0  0  0  0  0  0  0  0
    2.0400   56.7240   75.1810 C   0  0  0  0  0  0  0  0  0  0  0  0
    1.8680   58.1080   75.2780 C   0  0  0  0  0  0  0  0  0  0  0  0
    1.3690   54.2170   74.2650 S   0  0  0  0  0  6  0  0  0  0  0  0
    1.9100   53.7430   75.5170 O   0  0  0  0  0  0  0  0  0  0  0  0
    0.1720   53.6690   73.6720 O   0  0  0  0  0  0  0  0  0  0  0  0
    2.6160   54.0720   73.1460 N   0  0  0  0  0  0  0  0  0  0  0  0
   -0.0019   66.1072   70.8564 H   0  0  0  0  0  0  0  0  0  0  0  0
   -0.8649   64.5473   72.6064 H   0  0  0  0  0  0  0  0  0  0  0  0
    3.2710   63.4059   70.0488 H   0  0  0  0  0  0  0  0  0  0  0  0
    2.3250   59.6670   72.7514 H   0  0  0  0  0  0  0  0  0  0  0  0
   -0.8512   58.4786   73.2285 H   0  0  0  0  0  0  0  0  0  0  0  0
   -0.5372   56.0052   73.0406 H   0  0  0  0  0  0  0  0  0  0  0  0
    2.8438   56.2247   75.7419 H   0  0  0  0  0  0  0  0  0  0  0  0
    2.5377   58.6999   75.9192 H   0  0  0  0  0  0  0  0  0  0  0  0
    3.5124   53.9678   73.6425 H   0  0  0  0  0  0  0  0  0  0  0  0
    2.4525   53.2444   72.5551 H   0  0  0  0  0  0  0  0  0  0  0  0
  2  1  1  0
  3  2  2  0
  4  3  1  0
  5  4  2  0
  6  5  1  0
  7  6  2  0
  7  2  1  0
  8  6  1  0
  9  8  2  0
 10  8  1  0
 11 10  1  0
 12  5  1  0
 12 11  1  0
 13 12  2  0
 14 11  1  0
 15 14  2  0
 16 14  1  0
 17 16  2  0
 18 17  1  0
 19 18  2  0
 20 19  1  0
 21 20  2  0
 21 16  1  0
 22 19  1  0
 23 22  2  0
 24 22  2  0
 25 22  1  0
  3 26  1  0
  4 27  1  0
  7 28  1  0
 10 29  1  0
 17 30  1  0
 18 31  1  0
 20 32  1  0
 21 33  1  0
 25 34  1  0
 25 35  1  0
M  END
>  <score>  (6) 
-8.456

$$$$
=
     RDKit          3D

 35 37  0  0  0  0  0  0  0  0999 V2000
    5.5230   63.8330   70.0040 F   0  0  0  0  0  0  0  0  0  0  0  0
    4.4710   63.2430   70.5840 C   0  0  0  0  0  0  0  0  0  0  0  0
    3.1910   63.7090   70.3140 C   0  0  0  0  0  0  0  0  0  0  0  0
    2.0920   63.0950   70.9190 C   0  0  0  0  0  0  0  0  0  0  0  0
    2.2830   62.0120   71.7920 C   0  0  0  0  0  0  0  0  0  0  0  0
    3.5740   61.5540   72.0460 C   0  0  0  0  0  0  0  0  0  0  0  0
    4.6770   62.1710   71.4440 C   0  0  0  0  0  0  0  0  0  0  0  0
    3.7810   60.4130   72.9460 C   0  0  0  0  0  0  0  0  0  0  0  0
    4.9040   60.0350   73.2540 O   0  0  0  0  0  0  0  0  0  0  0  0
    2.6650   59.7720   73.4140 N   0  0  0  0  0  0  0  0  0  0  0  0
    1.3750   60.3370   73.3300 N   0  0  0  0  0  0  0  0  0  0  0  0
    1.1150   61.3790   72.4450 C   0  0  0  0  0  0  0  0  0  0  0  0
   -0.0050   61.7730   72.1330 O   0  0  0  0  0  0  0  0  0  0  0  0
    0.3640   59.8280   74.1500 C   0  0  0  0  0  0  0  0  0  0  0  0
   -0.4700   60.5200   74.7280 O   0  0  0  0  0  0  0  0  0  0  0  0
    0.3790   58.3670   74.4520 C   0  0  0  0  0  0  0  0  0  0  0  0
    0.6670   57.8900   75.7390 C   0  0  0  0  0  0  0  0  0  0  0  0
    0.6950   56.5150   75.9860 C   0  0  0  0  0  0  0  0  0  0  0  0
    0.4440   55.6200   74.9400 C   0  0  0  0  0  0  0  0  0  0  0  0
    0.1870   56.0840   73.6470 C   0  0  0  0  0  0  0  0  0  0  0  0
    0.1560   57.4600   73.4050 C   0  0  0  0  0  0  0  0  0  0  0  0
    0.5230   53.8720   75.2510 S   0  0  0  0  0  6  0  0  0  0  0  0
    1.4970   53.6390   76.2920 O   0  0  0  0  0  0  0  0  0  0  0  0
   -0.8250   53.3630   75.3130 O   0  0  0  0  0  0  0  0  0  0  0  0
    1.2290   53.3080   73.8320 N   0  0  0  0  0  0  0  0  0  0  0  0
    3.0436   64.5562   69.6281 H   0  0  0  0  0  0  0  0  0  0  0  0
    1.0755   63.4604   70.7113 H   0  0  0  0  0  0  0  0  0  0  0  0
    5.6959   61.8111   71.6495 H   0  0  0  0  0  0  0  0  0  0  0  0
    2.7715   58.8420   73.8437 H   0  0  0  0  0  0  0  0  0  0  0  0
    0.8711   58.5991   76.5548 H   0  0  0  0  0  0  0  0  0  0  0  0
    0.9130   56.1385   76.9963 H   0  0  0  0  0  0  0  0  0  0  0  0
    0.0107   55.3723   72.8270 H   0  0  0  0  0  0  0  0  0  0  0  0
   -0.0440   57.8334   72.3898 H   0  0  0  0  0  0  0  0  0  0  0  0
    2.0131   52.6816   74.0640 H   0  0  0  0  0  0  0  0  0  0  0  0
    0.5282   52.7915   73.2816 H   0  0  0  0  0  0  0  0  0  0  0  0
  2  1  1  0
  3  2  2  0
  4  3  1  0
  5  4  2  0
  6  5  1  0
  7  6  2  0
  7  2  1  0
  8  6  1  0
  9  8  2  0
 10  8  1  0
 11 10  1  0
 12  5  1  0
 12 11  1  0
 13 12  2  0
 14 11  1  0
 15 14  2  0
 16 14  1  0
 17 16  2  0
 18 17  1  0
 19 18  2  0
 20 19  1  0
 21 20  2  0
 21 16  1  0
 22 19  1  0
 23 22  2  0
 24 22  2  0
 25 22  1  0
  3 26  1  0
  4 27  1  0
  7 28  1  0
 10 29  1  0
 17 30  1  0
 18 31  1  0
 20 32  1  0
 21 33  1  0
 25 34  1  0
 25 35  1  0
M  END
>  <score>  (7) 
-8.199

$$$$
=
     RDKit          3D

 35 37  0  0  0  0  0  0  0  0999 V2000
   -0.6250   69.7470   63.3620 F   0  0  0  0  0  0  0  0  0  0  0  0
   -0.7030   69.0810   64.5200 C   0  0  0  0  0  0  0  0  0  0  0  0
   -1.9340   68.9440   65.1490 C   0  0  0  0  0  0  0  0  0  0  0  0
   -2.0170   68.2500   66.3570 C   0  0  0  0  0  0  0  0  0  0  0  0
   -0.8620   67.6930   66.9300 C   0  0  0  0  0  0  0  0  0  0  0  0
    0.3630   67.8360   66.2830 C   0  0  0  0  0  0  0  0  0  0  0  0
    0.4490   68.5350   65.0730 C   0  0  0  0  0  0  0  0  0  0  0  0
    1.5720   67.2450   66.8680 C   0  0  0  0  0  0  0  0  0  0  0  0
    2.6770   67.4170   66.3690 O   0  0  0  0  0  0  0  0  0  0  0  0
    1.4140   66.4720   67.9870 N   0  0  0  0  0  0  0  0  0  0  0  0
    0.2320   66.4840   68.7560 N   0  0  0  0  0  0  0  0  0  0  0  0
   -0.9550   66.9770   68.2220 C   0  0  0  0  0  0  0  0  0  0  0  0
   -2.0670   66.8170   68.7150 O   0  0  0  0  0  0  0  0  0  0  0  0
    0.2760   65.9880   70.0630 C   0  0  0  0  0  0  0  0  0  0  0  0
   -0.2990   66.5080   71.0170 O   0  0  0  0  0  0  0  0  0  0  0  0
    1.1820   64.8370   70.3440 C   0  0  0  0  0  0  0  0  0  0  0  0
    2.5720   65.0080   70.4320 C   0  0  0  0  0  0  0  0  0  0  0  0
    3.3970   63.9070   70.6740 C   0  0  0  0  0  0  0  0  0  0  0  0
    2.8310   62.6360   70.8190 C   0  0  0  0  0  0  0  0  0  0  0  0
    1.4500   62.4510   70.7020 C   0  0  0  0  0  0  0  0  0  0  0  0
    0.6270   63.5550   70.4630 C   0  0  0  0  0  0  0  0  0  0  0  0
    3.8900   61.2340   71.0840 S   0  0  0  0  0  6  0  0  0  0  0  0
    3.2800   60.3850   72.0800 O   0  0  0  0  0  0  0  0  0  0  0  0
    4.3230   60.7450   69.7980 O   0  0  0  0  0  0  0  0  0  0  0  0
    5.2110   61.9480   71.8420 N   0  0  0  0  0  0  0  0  0  0  0  0
   -2.8376   69.3798   64.6978 H   0  0  0  0  0  0  0  0  0  0  0  0
   -2.9884   68.1391   66.8611 H   0  0  0  0  0  0  0  0  0  0  0  0
    1.4181   68.6507   64.5655 H   0  0  0  0  0  0  0  0  0  0  0  0
    2.1881   65.8582   68.2783 H   0  0  0  0  0  0  0  0  0  0  0  0
    3.0119   66.0089   70.3104 H   0  0  0  0  0  0  0  0  0  0  0  0
    4.4864   64.0388   70.7502 H   0  0  0  0  0  0  0  0  0  0  0  0
    1.0150   61.4451   70.7972 H   0  0  0  0  0  0  0  0  0  0  0  0
   -0.4602   63.4176   70.3679 H   0  0  0  0  0  0  0  0  0  0  0  0
    5.0957   61.8857   72.8636 H   0  0  0  0  0  0  0  0  0  0  0  0
    6.0730   61.4579   71.5633 H   0  0  0  0  0  0  0  0  0  0  0  0
  2  1  1  0
  3  2  2  0
  4  3  1  0
  5  4  2  0
  6  5  1  0
  7  6  2  0
  7  2  1  0
  8  6  1  0
  9  8  2  0
 10  8  1  0
 11 10  1  0
 12  5  1  0
 12 11  1  0
 13 12  2  0
 14 11  1  0
 15 14  2  0
 16 14  1  0
 17 16  2  0
 18 17  1  0
 19 18  2  0
 20 19  1  0
 21 20  2  0
 21 16  1  0
 22 19  1  0
 23 22  2  0
 24 22  2  0
 25 22  1  0
  3 26  1  0
  4 27  1  0
  7 28  1  0
 10 29  1  0
 17 30  1  0
 18 31  1  0
 20 32  1  0
 21 33  1  0
 25 34  1  0
 25 35  1  0
M  END
>  <score>  (8) 
-8.04

$$$$
=
     RDKit          3D

 35 37  0  0  0  0  0  0  0  0999 V2000
    0.6280   55.2820   76.5840 F   0  0  0  0  0  0  0  0  0  0  0  0
    1.0420   56.0220   75.5480 C   0  0  0  0  0  0  0  0  0  0  0  0
    1.4850   55.3920   74.3910 C   0  0  0  0  0  0  0  0  0  0  0  0
    1.9180   56.1620   73.3100 C   0  0  0  0  0  0  0  0  0  0  0  0
    1.9020   57.5630   73.3930 C   0  0  0  0  0  0  0  0  0  0  0  0
    1.4500   58.1780   74.5580 C   0  0  0  0  0  0  0  0  0  0  0  0
    1.0200   57.4080   75.6450 C   0  0  0  0  0  0  0  0  0  0  0  0
    1.4180   59.6430   74.6470 C   0  0  0  0  0  0  0  0  0  0  0  0
    1.1020   60.2150   75.6820 O   0  0  0  0  0  0  0  0  0  0  0  0
    1.7360   60.3470   73.5170 N   0  0  0  0  0  0  0  0  0  0  0  0
    2.3800   59.7550   72.4110 N   0  0  0  0  0  0  0  0  0  0  0  0
    2.3830   58.3720   72.2500 C   0  0  0  0  0  0  0  0  0  0  0  0
    2.7040   57.7850   71.2210 O   0  0  0  0  0  0  0  0  0  0  0  0
    3.0120   60.5830   71.4780 C   0  0  0  0  0  0  0  0  0  0  0  0
    4.0980   60.3360   70.9600 O   0  0  0  0  0  0  0  0  0  0  0  0
    2.3960   61.9120   71.1950 C   0  0  0  0  0  0  0  0  0  0  0  0
    1.0220   62.1330   71.3750 C   0  0  0  0  0  0  0  0  0  0  0  0
    0.4700   63.3820   71.0800 C   0  0  0  0  0  0  0  0  0  0  0  0
    1.2930   64.4060   70.5980 C   0  0  0  0  0  0  0  0  0  0  0  0
    2.6570   64.1860   70.3870 C   0  0  0  0  0  0  0  0  0  0  0  0
    3.2070   62.9370   70.6860 C   0  0  0  0  0  0  0  0  0  0  0  0
    0.5770   65.9780   70.1860 S   0  0  0  0  0  6  0  0  0  0  0  0
    1.6360   66.9590   70.1240 O   0  0  0  0  0  0  0  0  0  0  0  0
   -0.3670   65.7780   69.1140 O   0  0  0  0  0  0  0  0  0  0  0  0
   -0.2900   66.3310   71.5830 N   0  0  0  0  0  0  0  0  0  0  0  0
    1.4944   54.2939   74.3275 H   0  0  0  0  0  0  0  0  0  0  0  0
    2.2722   55.6701   72.3921 H   0  0  0  0  0  0  0  0  0  0  0  0
    0.6683   57.8950   76.5665 H   0  0  0  0  0  0  0  0  0  0  0  0
    1.4957   61.3476   73.4729 H   0  0  0  0  0  0  0  0  0  0  0  0
    0.3792   61.3223   71.7486 H   0  0  0  0  0  0  0  0  0  0  0  0
   -0.6057   63.5595   71.2258 H   0  0  0  0  0  0  0  0  0  0  0  0
    3.2928   64.9903   69.9885 H   0  0  0  0  0  0  0  0  0  0  0  0
    4.2796   62.7568   70.5217 H   0  0  0  0  0  0  0  0  0  0  0  0
    0.2802   66.0989   72.4088 H   0  0  0  0  0  0  0  0  0  0  0  0
   -0.5235   67.3341   71.5979 H   0  0  0  0  0  0  0  0  0  0  0  0
  2  1  1  0
  3  2  2  0
  4  3  1  0
  5  4  2  0
  6  5  1  0
  7  6  2  0
  7  2  1  0
  8  6  1  0
  9  8  2  0
 10  8  1  0
 11 10  1  0
 12  5  1  0
 12 11  1  0
 13 12  2  0
 14 11  1  0
 15 14  2  0
 16 14  1  0
 17 16  2  0
 18 17  1  0
 19 18  2  0
 20 19  1  0
 21 20  2  0
 21 16  1  0
 22 19  1  0
 23 22  2  0
 24 22  2  0
 25 22  1  0
  3 26  1  0
  4 27  1  0
  7 28  1  0
 10 29  1  0
 17 30  1  0
 18 31  1  0
 20 32  1  0
 21 33  1  0
 25 34  1  0
 25 35  1  0
M  END
>  <score>  (9) 
-7.817

$$$$
