=
     RDKit          3D

 35 37  0  0  0  0  0  0  0  0999 V2000
    2.3390   68.8010   64.8720 O   0  0  0  0  0  0  0  0  0  0  0  0
    3.1550   69.2280   65.6580 C   0  0  0  0  0  0  0  0  0  0  0  0
    4.6690   69.4270   65.4120 C   0  0  0  0  0  0  0  0  0  0  0  0
    5.2750   69.1830   64.3980 O   0  0  0  0  0  0  0  0  0  0  0  0
    5.1990   69.9400   66.6760 C   0  0  0  0  0  0  0  0  0  0  0  0
    4.1320   70.0310   67.5750 C   0  0  0  0  0  0  0  0  0  0  0  0
    2.9370   69.5950   66.9760 N   0  0  0  0  0  0  0  0  0  0  0  0
    4.3400   70.5010   68.8590 C   0  0  0  0  0  0  0  0  0  0  0  0
    5.6460   70.8690   69.2140 C   0  0  0  0  0  0  0  0  0  0  0  0
    6.7110   70.7640   68.2960 C   0  0  0  0  0  0  0  0  0  0  0  0
    6.4930   70.2940   67.0010 C   0  0  0  0  0  0  0  0  0  0  0  0
    1.6360   69.6130   67.5550 C   0  0  0  0  0  0  0  0  0  0  0  0
    0.9010   68.3580   67.1780 N   0  0  0  0  0  4  0  0  0  0  0  0
   -0.6050   68.5830   67.0880 C   0  0  0  0  0  0  0  0  0  0  0  0
   -1.3350   67.2540   67.1780 C   0  0  0  0  0  0  0  0  0  0  0  0
   -1.0950   66.5790   68.5270 C   0  0  0  0  0  0  0  0  0  0  0  0
    0.2750   66.9150   69.1160 C   0  0  0  0  0  0  0  0  0  0  0  0
    1.3000   67.1680   68.0270 C   0  0  0  0  0  0  0  0  0  0  0  0
    3.5103   70.5833   69.5765 H   0  0  0  0  0  0  0  0  0  0  0  0
    5.8432   71.2468   70.2281 H   0  0  0  0  0  0  0  0  0  0  0  0
    7.7256   71.0561   68.6047 H   0  0  0  0  0  0  0  0  0  0  0  0
    7.3134   70.2094   66.2732 H   0  0  0  0  0  0  0  0  0  0  0  0
    1.7231   69.6717   68.6500 H   0  0  0  0  0  0  0  0  0  0  0  0
    1.0819   70.4874   67.1831 H   0  0  0  0  0  0  0  0  0  0  0  0
    1.1987   68.1076   66.2243 H   0  0  0  0  0  0  0  0  0  0  0  0
   -0.9265   69.2320   67.9159 H   0  0  0  0  0  0  0  0  0  0  0  0
   -0.8419   69.0607   66.1259 H   0  0  0  0  0  0  0  0  0  0  0  0
   -2.4137   67.4284   67.0515 H   0  0  0  0  0  0  0  0  0  0  0  0
   -0.9521   66.5933   66.3863 H   0  0  0  0  0  0  0  0  0  0  0  0
   -1.8724   66.9114   69.2307 H   0  0  0  0  0  0  0  0  0  0  0  0
   -1.1316   65.4913   68.3669 H   0  0  0  0  0  0  0  0  0  0  0  0
    0.1850   67.8171   69.7390 H   0  0  0  0  0  0  0  0  0  0  0  0
    0.6129   66.0574   69.7163 H   0  0  0  0  0  0  0  0  0  0  0  0
    2.2772   67.3675   68.4909 H   0  0  0  0  0  0  0  0  0  0  0  0
    1.3564   66.2783   67.3825 H   0  0  0  0  0  0  0  0  0  0  0  0
  2  1  2  0
  3  2  1  0
  4  3  2  0
  5  3  1  0
  6  5  2  0
  7  6  1  0
  7  2  1  0
  8  6  1  0
  9  8  2  0
 10  9  1  0
 11  5  1  0
 11 10  2  0
 12  7  1  0
 13 12  1  0
 14 13  1  0
 15 14  1  0
 16 15  1  0
 17 16  1  0
 18 17  1  0
 18 13  1  0
  8 19  1  0
  9 20  1  0
 10 21  1  0
 11 22  1  0
 12 23  1  0
 12 24  1  0
 13 25  1  0
 14 26  1  0
 14 27  1  0
 15 28  1  0
 15 29  1  0
 16 30  1  0
 16 31  1  0
 17 32  1  0
 17 33  1  0
 18 34  1  0
 18 35  1  0
M  CHG  1  13   1
M  END
>  <score>  (1) 
-9.235

$$$$
=
     RDKit          3D

 35 37  0  0  0  0  0  0  0  0999 V2000
    0.3100   68.1260   62.7720 O   0  0  0  0  0  0  0  0  0  0  0  0
    1.3320   68.4070   63.3560 C   0  0  0  0  0  0  0  0  0  0  0  0
    2.7730   68.3260   62.8010 C   0  0  0  0  0  0  0  0  0  0  0  0
    3.1050   67.9670   61.6980 O   0  0  0  0  0  0  0  0  0  0  0  0
    3.6350   68.7460   63.9060 C   0  0  0  0  0  0  0  0  0  0  0  0
    2.8100   69.0370   64.9970 C   0  0  0  0  0  0  0  0  0  0  0  0
    1.4600   68.8200   64.6730 N   0  0  0  0  0  0  0  0  0  0  0  0
    3.3580   69.4750   66.1890 C   0  0  0  0  0  0  0  0  0  0  0  0
    4.7530   69.6030   66.2560 C   0  0  0  0  0  0  0  0  0  0  0  0
    5.5700   69.2990   65.1480 C   0  0  0  0  0  0  0  0  0  0  0  0
    5.0100   68.8640   63.9470 C   0  0  0  0  0  0  0  0  0  0  0  0
    0.3300   69.0780   65.5010 C   0  0  0  0  0  0  0  0  0  0  0  0
   -0.2250   67.7800   66.0140 N   0  0  0  0  0  4  0  0  0  0  0  0
   -1.6120   67.9510   66.6230 C   0  0  0  0  0  0  0  0  0  0  0  0
   -1.9320   66.7750   67.5280 C   0  0  0  0  0  0  0  0  0  0  0  0
   -0.9650   66.7030   68.7090 C   0  0  0  0  0  0  0  0  0  0  0  0
    0.4220   67.2460   68.3660 C   0  0  0  0  0  0  0  0  0  0  0  0
    0.7540   67.0340   66.9000 C   0  0  0  0  0  0  0  0  0  0  0  0
    2.7221   69.7145   67.0540 H   0  0  0  0  0  0  0  0  0  0  0  0
    5.2187   69.9473   67.1912 H   0  0  0  0  0  0  0  0  0  0  0  0
    6.6616   69.4061   65.2317 H   0  0  0  0  0  0  0  0  0  0  0  0
    5.6346   68.6261   63.0733 H   0  0  0  0  0  0  0  0  0  0  0  0
    0.6344   69.7072   66.3503 H   0  0  0  0  0  0  0  0  0  0  0  0
   -0.4413   69.5991   64.9148 H   0  0  0  0  0  0  0  0  0  0  0  0
   -0.3586   67.1649   65.1987 H   0  0  0  0  0  0  0  0  0  0  0  0
   -1.6395   68.8805   67.2106 H   0  0  0  0  0  0  0  0  0  0  0  0
   -2.3571   67.9973   65.8151 H   0  0  0  0  0  0  0  0  0  0  0  0
   -2.9572   66.8862   67.9108 H   0  0  0  0  0  0  0  0  0  0  0  0
   -1.8333   65.8494   66.9419 H   0  0  0  0  0  0  0  0  0  0  0  0
   -1.3789   67.2931   69.5399 H   0  0  0  0  0  0  0  0  0  0  0  0
   -0.8503   65.6436   68.9820 H   0  0  0  0  0  0  0  0  0  0  0  0
    0.4490   68.3233   68.5867 H   0  0  0  0  0  0  0  0  0  0  0  0
    1.1645   66.7044   68.9705 H   0  0  0  0  0  0  0  0  0  0  0  0
    1.7716   67.4025   66.7035 H   0  0  0  0  0  0  0  0  0  0  0  0
    0.6863   65.9595   66.6744 H   0  0  0  0  0  0  0  0  0  0  0  0
  2  1  2  0
  3  2  1  0
  4  3  2  0
  5  3  1  0
  6  5  2  0
  7  6  1  0
  7  2  1  0
  8  6  1  0
  9  8  2  0
 10  9  1  0
 11  5  1  0
 11 10  2  0
 12  7  1  0
 13 12  1  0
 14 13  1  0
 15 14  1  0
 16 15  1  0
 17 16  1  0
 18 17  1  0
 18 13  1  0
  8 19  1  0
  9 20  1  0
 10 21  1  0
 11 22  1  0
 12 23  1  0
 12 24  1  0
 13 25  1  0
 14 26  1  0
 14 27  1  0
 15 28  1  0
 15 29  1  0
 16 30  1  0
 16 31  1  0
 17 32  1  0
 17 33  1  0
 18 34  1  0
 18 35  1  0
M  CHG  1  13   1
M  END
>  <score>  (2) 
-8.711

$$$$
=
     RDKit          3D

 35 37  0  0  0  0  0  0  0  0999 V2000
    1.1940   68.7900   67.0020 O   0  0  0  0  0  0  0  0  0  0  0  0
    2.3100   69.2160   67.2020 C   0  0  0  0  0  0  0  0  0  0  0  0
    2.7640   70.1240   68.3690 C   0  0  0  0  0  0  0  0  0  0  0  0
    2.0760   70.5540   69.2620 O   0  0  0  0  0  0  0  0  0  0  0  0
    4.1880   70.3670   68.1350 C   0  0  0  0  0  0  0  0  0  0  0  0
    4.5440   69.6920   66.9630 C   0  0  0  0  0  0  0  0  0  0  0  0
    3.4330   69.0320   66.4110 N   0  0  0  0  0  0  0  0  0  0  0  0
    5.8470   69.7370   66.5010 C   0  0  0  0  0  0  0  0  0  0  0  0
    6.7750   70.4820   67.2420 C   0  0  0  0  0  0  0  0  0  0  0  0
    6.3970   71.1620   68.4170 C   0  0  0  0  0  0  0  0  0  0  0  0
    5.0830   71.1080   68.8810 C   0  0  0  0  0  0  0  0  0  0  0  0
    3.4250   68.1840   65.2650 C   0  0  0  0  0  0  0  0  0  0  0  0
    3.1930   69.0100   64.0320 N   0  0  0  0  0  4  0  0  0  0  0  0
    1.9740   68.5370   63.2480 C   0  0  0  0  0  0  0  0  0  0  0  0
    2.0410   69.0510   61.8210 C   0  0  0  0  0  0  0  0  0  0  0  0
    3.2550   68.4860   61.0840 C   0  0  0  0  0  0  0  0  0  0  0  0
    4.4330   68.2120   62.0170 C   0  0  0  0  0  0  0  0  0  0  0  0
    4.4450   69.1720   63.1920 C   0  0  0  0  0  0  0  0  0  0  0  0
    6.1446   69.2068   65.5843 H   0  0  0  0  0  0  0  0  0  0  0  0
    7.8189   70.5369   66.8995 H   0  0  0  0  0  0  0  0  0  0  0  0
    7.1471   71.7421   68.9746 H   0  0  0  0  0  0  0  0  0  0  0  0
    4.7741   71.6311   69.7981 H   0  0  0  0  0  0  0  0  0  0  0  0
    4.3932   67.6682   65.1839 H   0  0  0  0  0  0  0  0  0  0  0  0
    2.6204   67.4405   65.3648 H   0  0  0  0  0  0  0  0  0  0  0  0
    2.9643   69.9642   64.3453 H   0  0  0  0  0  0  0  0  0  0  0  0
    1.9518   67.4373   63.2381 H   0  0  0  0  0  0  0  0  0  0  0  0
    1.0637   68.9249   63.7285 H   0  0  0  0  0  0  0  0  0  0  0  0
    1.1266   68.7504   61.2885 H   0  0  0  0  0  0  0  0  0  0  0  0
    2.1316   70.1469   61.8504 H   0  0  0  0  0  0  0  0  0  0  0  0
    2.9644   67.5434   60.5972 H   0  0  0  0  0  0  0  0  0  0  0  0
    3.5792   69.2384   60.3499 H   0  0  0  0  0  0  0  0  0  0  0  0
    4.3564   67.1826   62.3970 H   0  0  0  0  0  0  0  0  0  0  0  0
    5.3642   68.3504   61.4480 H   0  0  0  0  0  0  0  0  0  0  0  0
    5.3272   68.9670   63.8163 H   0  0  0  0  0  0  0  0  0  0  0  0
    4.4801   70.2015   62.8061 H   0  0  0  0  0  0  0  0  0  0  0  0
  2  1  2  0
  3  2  1  0
  4  3  2  0
  5  3  1  0
  6  5  2  0
  7  6  1  0
  7  2  1  0
  8  6  1  0
  9  8  2  0
 10  9  1  0
 11  5  1  0
 11 10  2  0
 12  7  1  0
 13 12  1  0
 14 13  1  0
 15 14  1  0
 16 15  1  0
 17 16  1  0
 18 17  1  0
 18 13  1  0
  8 19  1  0
  9 20  1  0
 10 21  1  0
 11 22  1  0
 12 23  1  0
 12 24  1  0
 13 25  1  0
 14 26  1  0
 14 27  1  0
 15 28  1  0
 15 29  1  0
 16 30  1  0
 16 31  1  0
 17 32  1  0
 17 33  1  0
 18 34  1  0
 18 35  1  0
M  CHG  1  13   1
M  END
>  <score>  (3) 
-8.701

$$$$
=
     RDKit          3D

 35 37  0  0  0  0  0  0  0  0999 V2000
    2.1500   64.9260   64.7520 O   0  0  0  0  0  0  0  0  0  0  0  0
    2.8590   65.8680   64.4780 C   0  0  0  0  0  0  0  0  0  0  0  0
    3.9020   65.9470   63.3380 C   0  0  0  0  0  0  0  0  0  0  0  0
    4.1740   65.0790   62.5450 O   0  0  0  0  0  0  0  0  0  0  0  0
    4.4980   67.2780   63.4540 C   0  0  0  0  0  0  0  0  0  0  0  0
    3.8920   67.9190   64.5390 C   0  0  0  0  0  0  0  0  0  0  0  0
    2.9420   67.0790   65.1460 N   0  0  0  0  0  0  0  0  0  0  0  0
    4.2550   69.2090   64.8800 C   0  0  0  0  0  0  0  0  0  0  0  0
    5.2470   69.8310   64.1080 C   0  0  0  0  0  0  0  0  0  0  0  0
    5.8520   69.1680   63.0210 C   0  0  0  0  0  0  0  0  0  0  0  0
    5.4770   67.8680   62.6800 C   0  0  0  0  0  0  0  0  0  0  0  0
    2.0750   67.4110   66.2280 C   0  0  0  0  0  0  0  0  0  0  0  0
    0.6510   67.4090   65.7490 N   0  0  0  0  0  4  0  0  0  0  0  0
    0.3500   68.6010   64.8470 C   0  0  0  0  0  0  0  0  0  0  0  0
   -1.1490   68.8320   64.7730 C   0  0  0  0  0  0  0  0  0  0  0  0
   -1.7230   69.1910   66.1420 C   0  0  0  0  0  0  0  0  0  0  0  0
   -0.9500   68.5450   67.2910 C   0  0  0  0  0  0  0  0  0  0  0  0
   -0.3450   67.2170   66.8760 C   0  0  0  0  0  0  0  0  0  0  0  0
    3.7826   69.7288   65.7265 H   0  0  0  0  0  0  0  0  0  0  0  0
    5.5591   70.8563   64.3556 H   0  0  0  0  0  0  0  0  0  0  0  0
    6.6286   69.6813   62.4350 H   0  0  0  0  0  0  0  0  0  0  0  0
    5.9397   67.3382   61.8343 H   0  0  0  0  0  0  0  0  0  0  0  0
    2.1922   66.6697   67.0322 H   0  0  0  0  0  0  0  0  0  0  0  0
    2.3316   68.4103   66.6095 H   0  0  0  0  0  0  0  0  0  0  0  0
    0.5325   66.5774   65.1529 H   0  0  0  0  0  0  0  0  0  0  0  0
    0.8370   69.4988   65.2554 H   0  0  0  0  0  0  0  0  0  0  0  0
    0.7335   68.3948   63.8368 H   0  0  0  0  0  0  0  0  0  0  0  0
   -1.3505   69.6559   64.0726 H   0  0  0  0  0  0  0  0  0  0  0  0
   -1.6270   67.9031   64.4287 H   0  0  0  0  0  0  0  0  0  0  0  0
   -1.6870   70.2837   66.2636 H   0  0  0  0  0  0  0  0  0  0  0  0
   -2.7550   68.8123   66.1803 H   0  0  0  0  0  0  0  0  0  0  0  0
   -0.1428   69.2232   67.6047 H   0  0  0  0  0  0  0  0  0  0  0  0
   -1.6509   68.3616   68.1188 H   0  0  0  0  0  0  0  0  0  0  0  0
    0.1689   66.7691   67.7393 H   0  0  0  0  0  0  0  0  0  0  0  0
   -1.1513   66.5558   66.5257 H   0  0  0  0  0  0  0  0  0  0  0  0
  2  1  2  0
  3  2  1  0
  4  3  2  0
  5  3  1  0
  6  5  2  0
  7  6  1  0
  7  2  1  0
  8  6  1  0
  9  8  2  0
 10  9  1  0
 11  5  1  0
 11 10  2  0
 12  7  1  0
 13 12  1  0
 14 13  1  0
 15 14  1  0
 16 15  1  0
 17 16  1  0
 18 17  1  0
 18 13  1  0
  8 19  1  0
  9 20  1  0
 10 21  1  0
 11 22  1  0
 12 23  1  0
 12 24  1  0
 13 25  1  0
 14 26  1  0
 14 27  1  0
 15 28  1  0
 15 29  1  0
 16 30  1  0
 16 31  1  0
 17 32  1  0
 17 33  1  0
 18 34  1  0
 18 35  1  0
M  CHG  1  13   1
M  END
>  <score>  (4) 
-8.084

$$$$
=
     RDKit          3D

 35 37  0  0  0  0  0  0  0  0999 V2000
    5.4930   68.7510   62.7840 O   0  0  0  0  0  0  0  0  0  0  0  0
    4.2920   68.7620   62.9350 C   0  0  0  0  0  0  0  0  0  0  0  0
    3.2170   68.9180   61.8340 C   0  0  0  0  0  0  0  0  0  0  0  0
    3.4080   69.0580   60.6510 O   0  0  0  0  0  0  0  0  0  0  0  0
    1.9360   68.8910   62.5410 C   0  0  0  0  0  0  0  0  0  0  0  0
    2.2100   68.7430   63.9050 C   0  0  0  0  0  0  0  0  0  0  0  0
    3.5960   68.6850   64.1310 N   0  0  0  0  0  0  0  0  0  0  0  0
    1.1760   68.6750   64.8200 C   0  0  0  0  0  0  0  0  0  0  0  0
   -0.1350   68.7660   64.3300 C   0  0  0  0  0  0  0  0  0  0  0  0
   -0.3920   68.9220   62.9530 C   0  0  0  0  0  0  0  0  0  0  0  0
    0.6550   68.9840   62.0340 C   0  0  0  0  0  0  0  0  0  0  0  0
    4.2490   68.4640   65.3780 C   0  0  0  0  0  0  0  0  0  0  0  0
    4.5620   69.7850   66.0220 N   0  0  0  0  0  4  0  0  0  0  0  0
    6.0110   69.8660   66.4870 C   0  0  0  0  0  0  0  0  0  0  0  0
    6.1660   70.9680   67.5190 C   0  0  0  0  0  0  0  0  0  0  0  0
    5.3430   70.6740   68.7720 C   0  0  0  0  0  0  0  0  0  0  0  0
    4.0790   69.8720   68.4700 C   0  0  0  0  0  0  0  0  0  0  0  0
    3.5490   70.1740   67.0810 C   0  0  0  0  0  0  0  0  0  0  0  0
    1.3745   68.5537   65.8951 H   0  0  0  0  0  0  0  0  0  0  0  0
   -0.9788   68.7146   65.0338 H   0  0  0  0  0  0  0  0  0  0  0  0
   -1.4309   68.9957   62.5990 H   0  0  0  0  0  0  0  0  0  0  0  0
    0.4692   69.1014   60.9562 H   0  0  0  0  0  0  0  0  0  0  0  0
    3.5900   67.8813   66.0385 H   0  0  0  0  0  0  0  0  0  0  0  0
    5.1833   67.9087   65.2086 H   0  0  0  0  0  0  0  0  0  0  0  0
    4.4677   70.5067   65.2932 H   0  0  0  0  0  0  0  0  0  0  0  0
    6.3040   68.9047   66.9343 H   0  0  0  0  0  0  0  0  0  0  0  0
    6.6548   70.0882   65.6232 H   0  0  0  0  0  0  0  0  0  0  0  0
    7.2267   71.0510   67.7982 H   0  0  0  0  0  0  0  0  0  0  0  0
    5.8049   71.9093   67.0791 H   0  0  0  0  0  0  0  0  0  0  0  0
    5.9646   70.1002   69.4751 H   0  0  0  0  0  0  0  0  0  0  0  0
    5.0313   71.6384   69.1996 H   0  0  0  0  0  0  0  0  0  0  0  0
    4.3113   68.7990   68.5387 H   0  0  0  0  0  0  0  0  0  0  0  0
    3.3081   70.1529   69.2027 H   0  0  0  0  0  0  0  0  0  0  0  0
    2.6208   69.6067   66.9179 H   0  0  0  0  0  0  0  0  0  0  0  0
    3.3559   71.2542   67.0044 H   0  0  0  0  0  0  0  0  0  0  0  0
  2  1  2  0
  3  2  1  0
  4  3  2  0
  5  3  1  0
  6  5  2  0
  7  6  1  0
  7  2  1  0
  8  6  1  0
  9  8  2  0
 10  9  1  0
 11  5  1  0
 11 10  2  0
 12  7  1  0
 13 12  1  0
 14 13  1  0
 15 14  1  0
 16 15  1  0
 17 16  1  0
 18 17  1  0
 18 13  1  0
  8 19  1  0
  9 20  1  0
 10 21  1  0
 11 22  1  0
 12 23  1  0
 12 24  1  0
 13 25  1  0
 14 26  1  0
 14 27  1  0
 15 28  1  0
 15 29  1  0
 16 30  1  0
 16 31  1  0
 17 32  1  0
 17 33  1  0
 18 34  1  0
 18 35  1  0
M  CHG  1  13   1
M  END
>  <score>  (5) 
-7.841

$$$$
=
     RDKit          3D

 35 37  0  0  0  0  0  0  0  0999 V2000
   -0.4790   68.1680   65.1540 O   0  0  0  0  0  0  0  0  0  0  0  0
    0.5770   68.5360   65.6180 C   0  0  0  0  0  0  0  0  0  0  0  0
    0.8680   68.9080   67.0900 C   0  0  0  0  0  0  0  0  0  0  0  0
    0.0850   68.8920   68.0090 O   0  0  0  0  0  0  0  0  0  0  0  0
    2.2750   69.3070   67.1160 C   0  0  0  0  0  0  0  0  0  0  0  0
    2.7680   69.1960   65.8120 C   0  0  0  0  0  0  0  0  0  0  0  0
    1.7620   68.7590   64.9340 N   0  0  0  0  0  0  0  0  0  0  0  0
    4.0890   69.5010   65.5370 C   0  0  0  0  0  0  0  0  0  0  0  0
    4.8940   69.9270   66.6030 C   0  0  0  0  0  0  0  0  0  0  0  0
    4.3780   70.0390   67.9100 C   0  0  0  0  0  0  0  0  0  0  0  0
    3.0470   69.7240   68.1810 C   0  0  0  0  0  0  0  0  0  0  0  0
    1.9070   68.4590   63.5480 C   0  0  0  0  0  0  0  0  0  0  0  0
    2.3610   67.0360   63.3870 N   0  0  0  0  0  4  0  0  0  0  0  0
    2.3110   66.2680   64.7020 C   0  0  0  0  0  0  0  0  0  0  0  0
    3.1920   65.0340   64.6180 C   0  0  0  0  0  0  0  0  0  0  0  0
    4.6580   65.4110   64.4110 C   0  0  0  0  0  0  0  0  0  0  0  0
    4.8250   66.7130   63.6280 C   0  0  0  0  0  0  0  0  0  0  0  0
    3.6820   66.9230   62.6520 C   0  0  0  0  0  0  0  0  0  0  0  0
    4.4936   69.4124   64.5179 H   0  0  0  0  0  0  0  0  0  0  0  0
    5.9484   70.1786   66.4158 H   0  0  0  0  0  0  0  0  0  0  0  0
    5.0331   70.3789   68.7257 H   0  0  0  0  0  0  0  0  0  0  0  0
    2.6317   69.8042   69.1964 H   0  0  0  0  0  0  0  0  0  0  0  0
    0.9405   68.5949   63.0406 H   0  0  0  0  0  0  0  0  0  0  0  0
    2.6533   69.1339   63.1035 H   0  0  0  0  0  0  0  0  0  0  0  0
    1.6805   66.5684   62.7712 H   0  0  0  0  0  0  0  0  0  0  0  0
    2.6686   66.9159   65.5158 H   0  0  0  0  0  0  0  0  0  0  0  0
    1.2742   65.9580   64.8993 H   0  0  0  0  0  0  0  0  0  0  0  0
    3.0977   64.4622   65.5530 H   0  0  0  0  0  0  0  0  0  0  0  0
    2.8640   64.4314   63.7582 H   0  0  0  0  0  0  0  0  0  0  0  0
    5.1340   65.5285   65.3957 H   0  0  0  0  0  0  0  0  0  0  0  0
    5.1293   64.6075   63.8259 H   0  0  0  0  0  0  0  0  0  0  0  0
    4.8509   67.5551   64.3353 H   0  0  0  0  0  0  0  0  0  0  0  0
    5.7626   66.6548   63.0556 H   0  0  0  0  0  0  0  0  0  0  0  0
    3.8586   67.8479   62.0833 H   0  0  0  0  0  0  0  0  0  0  0  0
    3.6350   66.0591   61.9727 H   0  0  0  0  0  0  0  0  0  0  0  0
  2  1  2  0
  3  2  1  0
  4  3  2  0
  5  3  1  0
  6  5  2  0
  7  6  1  0
  7  2  1  0
  8  6  1  0
  9  8  2  0
 10  9  1  0
 11  5  1  0
 11 10  2  0
 12  7  1  0
 13 12  1  0
 14 13  1  0
 15 14  1  0
 16 15  1  0
 17 16  1  0
 18 17  1  0
 18 13  1  0
  8 19  1  0
  9 20  1  0
 10 21  1  0
 11 22  1  0
 12 23  1  0
 12 24  1  0
 13 25  1  0
 14 26  1  0
 14 27  1  0
 15 28  1  0
 15 29  1  0
 16 30  1  0
 16 31  1  0
 17 32  1  0
 17 33  1  0
 18 34  1  0
 18 35  1  0
M  CHG  1  13   1
M  END
>  <score>  (6) 
-7.582

$$$$
=
     RDKit          3D

 35 37  0  0  0  0  0  0  0  0999 V2000
    3.5310   68.9100   63.5100 O   0  0  0  0  0  0  0  0  0  0  0  0
    2.5030   68.8410   64.1450 C   0  0  0  0  0  0  0  0  0  0  0  0
    1.0610   68.9350   63.5940 C   0  0  0  0  0  0  0  0  0  0  0  0
    0.7360   69.0960   62.4430 O   0  0  0  0  0  0  0  0  0  0  0  0
    0.1920   68.8180   64.7650 C   0  0  0  0  0  0  0  0  0  0  0  0
    1.0150   68.6780   65.8870 C   0  0  0  0  0  0  0  0  0  0  0  0
    2.3710   68.7090   65.5180 N   0  0  0  0  0  0  0  0  0  0  0  0
    0.4600   68.5340   67.1460 C   0  0  0  0  0  0  0  0  0  0  0  0
   -0.9390   68.5440   67.2450 C   0  0  0  0  0  0  0  0  0  0  0  0
   -1.7530   68.6930   66.1040 C   0  0  0  0  0  0  0  0  0  0  0  0
   -1.1860   68.8310   64.8370 C   0  0  0  0  0  0  0  0  0  0  0  0
    3.4940   68.5220   66.3750 C   0  0  0  0  0  0  0  0  0  0  0  0
    4.1650   69.8440   66.6190 N   0  0  0  0  0  4  0  0  0  0  0  0
    5.6790   69.7530   66.4670 C   0  0  0  0  0  0  0  0  0  0  0  0
    6.3440   70.9280   67.1610 C   0  0  0  0  0  0  0  0  0  0  0  0
    6.0750   70.9090   68.6650 C   0  0  0  0  0  0  0  0  0  0  0  0
    4.7260   70.2810   69.0130 C   0  0  0  0  0  0  0  0  0  0  0  0
    3.7100   70.5020   67.9070 C   0  0  0  0  0  0  0  0  0  0  0  0
    1.0933   68.4159   68.0376 H   0  0  0  0  0  0  0  0  0  0  0  0
   -1.4103   68.4334   68.2327 H   0  0  0  0  0  0  0  0  0  0  0  0
   -2.8475   68.7005   66.2139 H   0  0  0  0  0  0  0  0  0  0  0  0
   -1.8084   68.9449   63.9372 H   0  0  0  0  0  0  0  0  0  0  0  0
    3.1574   68.0995   67.3332 H   0  0  0  0  0  0  0  0  0  0  0  0
    4.2066   67.8320   65.8995 H   0  0  0  0  0  0  0  0  0  0  0  0
    3.8528   70.4843   65.8751 H   0  0  0  0  0  0  0  0  0  0  0  0
    6.0344   68.8150   66.9186 H   0  0  0  0  0  0  0  0  0  0  0  0
    5.9356   69.7740   65.3976 H   0  0  0  0  0  0  0  0  0  0  0  0
    7.4295   70.8773   66.9904 H   0  0  0  0  0  0  0  0  0  0  0  0
    5.9278   71.8576   66.7455 H   0  0  0  0  0  0  0  0  0  0  0  0
    6.8704   70.3307   69.1578 H   0  0  0  0  0  0  0  0  0  0  0  0
    6.0565   71.9522   69.0133 H   0  0  0  0  0  0  0  0  0  0  0  0
    4.8626   69.1998   69.1626 H   0  0  0  0  0  0  0  0  0  0  0  0
    4.3487   70.7575   69.9298 H   0  0  0  0  0  0  0  0  0  0  0  0
    2.7454   70.0698   68.2117 H   0  0  0  0  0  0  0  0  0  0  0  0
    3.6071   71.5833   67.7335 H   0  0  0  0  0  0  0  0  0  0  0  0
  2  1  2  0
  3  2  1  0
  4  3  2  0
  5  3  1  0
  6  5  2  0
  7  6  1  0
  7  2  1  0
  8  6  1  0
  9  8  2  0
 10  9  1  0
 11  5  1  0
 11 10  2  0
 12  7  1  0
 13 12  1  0
 14 13  1  0
 15 14  1  0
 16 15  1  0
 17 16  1  0
 18 17  1  0
 18 13  1  0
  8 19  1  0
  9 20  1  0
 10 21  1  0
 11 22  1  0
 12 23  1  0
 12 24  1  0
 13 25  1  0
 14 26  1  0
 14 27  1  0
 15 28  1  0
 15 29  1  0
 16 30  1  0
 16 31  1  0
 17 32  1  0
 17 33  1  0
 18 34  1  0
 18 35  1  0
M  CHG  1  13   1
M  END
>  <score>  (7) 
-7.524

$$$$
=
     RDKit          3D

 35 37  0  0  0  0  0  0  0  0999 V2000
   -0.8380   68.7760   63.7190 O   0  0  0  0  0  0  0  0  0  0  0  0
    0.3110   68.5850   63.3870 C   0  0  0  0  0  0  0  0  0  0  0  0
    1.0040   69.0900   62.1000 C   0  0  0  0  0  0  0  0  0  0  0  0
    0.5060   69.7500   61.2220 O   0  0  0  0  0  0  0  0  0  0  0  0
    2.3700   68.5690   62.1700 C   0  0  0  0  0  0  0  0  0  0  0  0
    2.4810   67.8330   63.3540 C   0  0  0  0  0  0  0  0  0  0  0  0
    1.2630   67.8320   64.0560 N   0  0  0  0  0  0  0  0  0  0  0  0
    3.6780   67.2280   63.6890 C   0  0  0  0  0  0  0  0  0  0  0  0
    4.7530   67.3770   62.8020 C   0  0  0  0  0  0  0  0  0  0  0  0
    4.6220   68.1170   61.6100 C   0  0  0  0  0  0  0  0  0  0  0  0
    3.4130   68.7290   61.2800 C   0  0  0  0  0  0  0  0  0  0  0  0
    1.0140   67.2540   65.3340 C   0  0  0  0  0  0  0  0  0  0  0  0
    0.9410   68.3380   66.3710 N   0  0  0  0  0  4  0  0  0  0  0  0
    2.3070   68.9580   66.6460 C   0  0  0  0  0  0  0  0  0  0  0  0
    2.2900   69.6810   67.9820 C   0  0  0  0  0  0  0  0  0  0  0  0
    2.0340   68.7110   69.1340 C   0  0  0  0  0  0  0  0  0  0  0  0
    1.1620   67.5260   68.7220 C   0  0  0  0  0  0  0  0  0  0  0  0
    0.1940   67.9070   67.6180 C   0  0  0  0  0  0  0  0  0  0  0  0
    3.7831   66.6500   64.6190 H   0  0  0  0  0  0  0  0  0  0  0  0
    5.7183   66.9068   63.0412 H   0  0  0  0  0  0  0  0  0  0  0  0
    5.4830   68.2131   60.9321 H   0  0  0  0  0  0  0  0  0  0  0  0
    3.2961   69.3116   60.3543 H   0  0  0  0  0  0  0  0  0  0  0  0
    0.0602   66.7065   65.3088 H   0  0  0  0  0  0  0  0  0  0  0  0
    1.8297   66.5606   65.5868 H   0  0  0  0  0  0  0  0  0  0  0  0
    0.3688   69.0976   65.9753 H   0  0  0  0  0  0  0  0  0  0  0  0
    3.0687   68.1648   66.6707 H   0  0  0  0  0  0  0  0  0  0  0  0
    2.5438   69.6780   65.8488 H   0  0  0  0  0  0  0  0  0  0  0  0
    3.2621   70.1721   68.1362 H   0  0  0  0  0  0  0  0  0  0  0  0
    1.4779   70.4228   67.9654 H   0  0  0  0  0  0  0  0  0  0  0  0
    3.0006   68.3287   69.4940 H   0  0  0  0  0  0  0  0  0  0  0  0
    1.4972   69.2620   69.9203 H   0  0  0  0  0  0  0  0  0  0  0  0
    1.8101   66.7123   68.3644 H   0  0  0  0  0  0  0  0  0  0  0  0
    0.5787   67.2051   69.5977 H   0  0  0  0  0  0  0  0  0  0  0  0
   -0.4383   67.0396   67.3777 H   0  0  0  0  0  0  0  0  0  0  0  0
   -0.4245   68.7474   67.9663 H   0  0  0  0  0  0  0  0  0  0  0  0
  2  1  2  0
  3  2  1  0
  4  3  2  0
  5  3  1  0
  6  5  2  0
  7  6  1  0
  7  2  1  0
  8  6  1  0
  9  8  2  0
 10  9  1  0
 11  5  1  0
 11 10  2  0
 12  7  1  0
 13 12  1  0
 14 13  1  0
 15 14  1  0
 16 15  1  0
 17 16  1  0
 18 17  1  0
 18 13  1  0
  8 19  1  0
  9 20  1  0
 10 21  1  0
 11 22  1  0
 12 23  1  0
 12 24  1  0
 13 25  1  0
 14 26  1  0
 14 27  1  0
 15 28  1  0
 15 29  1  0
 16 30  1  0
 16 31  1  0
 17 32  1  0
 17 33  1  0
 18 34  1  0
 18 35  1  0
M  CHG  1  13   1
M  END
>  <score>  (8) 
-7.436

$$$$
=
     RDKit          3D

 35 37  0  0  0  0  0  0  0  0999 V2000
    2.6830   58.0740   71.8250 O   0  0  0  0  0  0  0  0  0  0  0  0
    2.7910   59.2090   71.4180 C   0  0  0  0  0  0  0  0  0  0  0  0
    3.4330   59.6640   70.0870 C   0  0  0  0  0  0  0  0  0  0  0  0
    3.9310   58.9570   69.2450 O   0  0  0  0  0  0  0  0  0  0  0  0
    3.3310   61.1240   70.0890 C   0  0  0  0  0  0  0  0  0  0  0  0
    2.7080   61.5010   71.2830 C   0  0  0  0  0  0  0  0  0  0  0  0
    2.4090   60.3730   72.0670 N   0  0  0  0  0  0  0  0  0  0  0  0
    2.4680   62.8360   71.5530 C   0  0  0  0  0  0  0  0  0  0  0  0
    2.8770   63.7770   70.5980 C   0  0  0  0  0  0  0  0  0  0  0  0
    3.5090   63.3800   69.4030 C   0  0  0  0  0  0  0  0  0  0  0  0
    3.7430   62.0310   69.1340 C   0  0  0  0  0  0  0  0  0  0  0  0
    1.7100   60.3570   73.3090 C   0  0  0  0  0  0  0  0  0  0  0  0
    0.2570   60.0640   73.0640 N   0  0  0  0  0  4  0  0  0  0  0  0
   -0.6300   61.2610   73.3890 C   0  0  0  0  0  0  0  0  0  0  0  0
   -2.0650   60.8060   73.5880 C   0  0  0  0  0  0  0  0  0  0  0  0
   -2.1870   59.8610   74.7820 C   0  0  0  0  0  0  0  0  0  0  0  0
   -0.9230   59.0330   75.0080 C   0  0  0  0  0  0  0  0  0  0  0  0
   -0.1950   58.7660   73.7040 C   0  0  0  0  0  0  0  0  0  0  0  0
    1.9735   63.1484   72.4846 H   0  0  0  0  0  0  0  0  0  0  0  0
    2.7011   64.8466   70.7852 H   0  0  0  0  0  0  0  0  0  0  0  0
    3.8215   64.1421   68.6739 H   0  0  0  0  0  0  0  0  0  0  0  0
    4.2329   61.7058   68.2044 H   0  0  0  0  0  0  0  0  0  0  0  0
    2.1361   59.5788   73.9592 H   0  0  0  0  0  0  0  0  0  0  0  0
    1.8083   61.3379   73.7970 H   0  0  0  0  0  0  0  0  0  0  0  0
    0.1463   59.9070   72.0521 H   0  0  0  0  0  0  0  0  0  0  0  0
   -0.2694   61.7420   74.3102 H   0  0  0  0  0  0  0  0  0  0  0  0
   -0.5908   61.9763   72.5543 H   0  0  0  0  0  0  0  0  0  0  0  0
   -2.6995   61.6875   73.7624 H   0  0  0  0  0  0  0  0  0  0  0  0
   -2.3870   60.2674   72.6845 H   0  0  0  0  0  0  0  0  0  0  0  0
   -2.3833   60.4578   75.6849 H   0  0  0  0  0  0  0  0  0  0  0  0
   -3.0096   59.1620   74.5707 H   0  0  0  0  0  0  0  0  0  0  0  0
   -0.2526   59.5813   75.6863 H   0  0  0  0  0  0  0  0  0  0  0  0
   -1.2158   58.0669   75.4449 H   0  0  0  0  0  0  0  0  0  0  0  0
    0.6850   58.1372   73.9045 H   0  0  0  0  0  0  0  0  0  0  0  0
   -0.8826   58.2539   73.0148 H   0  0  0  0  0  0  0  0  0  0  0  0
  2  1  2  0
  3  2  1  0
  4  3  2  0
  5  3  1  0
  6  5  2  0
  7  6  1  0
  7  2  1  0
  8  6  1  0
  9  8  2  0
 10  9  1  0
 11  5  1  0
 11 10  2  0
 12  7  1  0
 13 12  1  0
 14 13  1  0
 15 14  1  0
 16 15  1  0
 17 16  1  0
 18 17  1  0
 18 13  1  0
  8 19  1  0
  9 20  1  0
 10 21  1  0
 11 22  1  0
 12 23  1  0
 12 24  1  0
 13 25  1  0
 14 26  1  0
 14 27  1  0
 15 28  1  0
 15 29  1  0
 16 30  1  0
 16 31  1  0
 17 32  1  0
 17 33  1  0
 18 34  1  0
 18 35  1  0
M  CHG  1  13   1
M  END
>  <score>  (9) 
-7.27

$$$$
