=
     RDKit          3D

 48 51  0  0  0  0  0  0  0  0999 V2000
    1.7790   68.5970   66.3970 C   0  0  0  0  0  0  0  0  0  0  0  0
    3.1130   68.8040   65.9980 C   0  0  0  0  0  0  0  0  0  0  0  0
    4.0280   69.5210   66.7890 C   0  0  0  0  0  0  0  0  0  0  0  0
    3.5710   70.0470   68.0130 C   0  0  0  0  0  0  0  0  0  0  0  0
    2.2440   69.8970   68.4150 C   0  0  0  0  0  0  0  0  0  0  0  0
    1.3730   69.1780   67.6120 C   0  0  0  0  0  0  0  0  0  0  0  0
    0.1380   68.9390   68.0860 F   0  0  0  0  0  0  0  0  0  0  0  0
    4.5160   70.7390   68.9240 C   0  0  0  0  0  0  0  0  0  0  0  0
    4.0690   71.3340   69.8980 O   0  0  0  0  0  0  0  0  0  0  0  0
    5.9410   70.6550   68.5750 C   0  0  0  0  0  0  0  0  0  0  0  0
    6.2740   70.1740   67.3710 C   0  0  0  0  0  0  0  0  0  0  0  0
    5.3870   69.7090   66.4140 N   0  0  0  0  0  0  0  0  0  0  0  0
    1.5490   68.6580   63.0700 N   0  0  0  0  0  4  0  0  0  0  0  0
    0.3170   69.3070   63.6980 C   0  0  0  0  0  0  0  0  0  0  0  0
   -0.1580   68.5310   64.9540 C   0  0  0  0  0  0  0  0  0  0  0  0
    0.9520   67.7900   65.5920 N   0  0  0  0  0  0  0  0  0  0  0  0
    1.5660   66.7550   64.7310 C   0  0  0  0  0  0  0  0  0  0  0  0
    1.5660   67.1470   63.2290 C   0  0  0  0  0  0  0  0  0  0  0  0
    3.1880   68.5250   61.1760 C   0  0  0  0  0  0  0  0  0  0  0  0
    1.9360   69.1860   61.7220 C   0  0  0  0  0  0  0  0  0  0  0  0
    5.9510   69.1560   65.1710 C   0  0  0  0  0  0  0  0  0  0  0  0
    5.4490   69.5900   63.8140 C   0  0  0  0  0  0  0  0  0  0  0  0
    5.1690   68.2030   64.3000 C   0  0  0  0  0  0  0  0  0  0  0  0
    7.0400   71.0040   69.5480 C   0  0  0  0  0  0  0  0  0  0  0  0
    7.8940   71.8330   69.1220 O   0  0  0  0  0  0  0  0  0  0  0  0
    7.0310   70.3420   70.6250 O   0  0  0  0  0  1  0  0  0  0  0  0
    3.4506   68.3913   65.0359 H   0  0  0  0  0  0  0  0  0  0  0  0
    1.8933   70.3436   69.3571 H   0  0  0  0  0  0  0  0  0  0  0  0
    7.3446   70.1455   67.1198 H   0  0  0  0  0  0  0  0  0  0  0  0
    2.3450   68.9800   63.6388 H   0  0  0  0  0  0  0  0  0  0  0  0
    0.5655   70.3385   63.9882 H   0  0  0  0  0  0  0  0  0  0  0  0
   -0.4955   69.2930   62.9566 H   0  0  0  0  0  0  0  0  0  0  0  0
   -0.5723   69.2465   65.6795 H   0  0  0  0  0  0  0  0  0  0  0  0
   -0.9199   67.8028   64.6391 H   0  0  0  0  0  0  0  0  0  0  0  0
    2.6060   66.6002   65.0542 H   0  0  0  0  0  0  0  0  0  0  0  0
    0.9667   65.8385   64.8349 H   0  0  0  0  0  0  0  0  0  0  0  0
    2.4703   66.7434   62.7502 H   0  0  0  0  0  0  0  0  0  0  0  0
    0.6654   66.7306   62.7541 H   0  0  0  0  0  0  0  0  0  0  0  0
    3.8205   68.1911   62.0117 H   0  0  0  0  0  0  0  0  0  0  0  0
    2.9062   67.6581   60.5603 H   0  0  0  0  0  0  0  0  0  0  0  0
    3.7449   69.2466   60.5603 H   0  0  0  0  0  0  0  0  0  0  0  0
    2.1162   70.2679   61.8055 H   0  0  0  0  0  0  0  0  0  0  0  0
    1.1119   68.9653   61.0276 H   0  0  0  0  0  0  0  0  0  0  0  0
    6.9299   69.1310   65.6721 H   0  0  0  0  0  0  0  0  0  0  0  0
    4.6308   70.3214   63.7392 H   0  0  0  0  0  0  0  0  0  0  0  0
    5.9152   70.0179   62.9143 H   0  0  0  0  0  0  0  0  0  0  0  0
    4.1451   67.9161   64.5816 H   0  0  0  0  0  0  0  0  0  0  0  0
    5.3448   67.1919   63.9040 H   0  0  0  0  0  0  0  0  0  0  0  0
  2  1  2  0
  3  2  1  0
  4  3  2  0
  5  4  1  0
  6  5  2  0
  6  1  1  0
  7  6  1  0
  8  4  1  0
  9  8  2  0
 10  8  1  0
 11 10  2  0
 12  3  1  0
 12 11  1  0
 14 13  1  0
 15 14  1  0
 16 15  1  0
 16  1  1  0
 17 16  1  0
 18 17  1  0
 18 13  1  0
 20 19  1  0
 20 13  1  0
 21 12  1  0
 22 21  1  0
 23 22  1  0
 23 21  1  0
 24 10  1  0
 25 24  2  0
 26 24  1  0
  2 27  1  0
  5 28  1  0
 11 29  1  0
 13 30  1  0
 14 31  1  0
 14 32  1  0
 15 33  1  0
 15 34  1  0
 17 35  1  0
 17 36  1  0
 18 37  1  0
 18 38  1  0
 19 39  1  0
 19 40  1  0
 19 41  1  0
 20 42  1  0
 20 43  1  0
 21 44  1  0
 22 45  1  0
 22 46  1  0
 23 47  1  0
 23 48  1  0
M  CHG  2  13   1  26  -1
M  END
>  <score>  (1) 
-9.902

$$$$
=
     RDKit          3D

 48 51  0  0  0  0  0  0  0  0999 V2000
    2.4380   68.8830   63.2410 C   0  0  0  0  0  0  0  0  0  0  0  0
    2.2330   68.8720   64.6330 C   0  0  0  0  0  0  0  0  0  0  0  0
    0.9460   68.8590   65.2000 C   0  0  0  0  0  0  0  0  0  0  0  0
   -0.1590   68.8670   64.3270 C   0  0  0  0  0  0  0  0  0  0  0  0
    0.0120   68.9230   62.9430 C   0  0  0  0  0  0  0  0  0  0  0  0
    1.2950   68.9270   62.4220 C   0  0  0  0  0  0  0  0  0  0  0  0
    1.4280   68.8490   61.0860 F   0  0  0  0  0  0  0  0  0  0  0  0
   -1.5360   68.7690   64.8700 C   0  0  0  0  0  0  0  0  0  0  0  0
   -2.4830   68.9480   64.1130 O   0  0  0  0  0  0  0  0  0  0  0  0
   -1.6540   68.4640   66.3030 C   0  0  0  0  0  0  0  0  0  0  0  0
   -0.5500   68.5200   67.0590 C   0  0  0  0  0  0  0  0  0  0  0  0
    0.7240   68.8140   66.6040 N   0  0  0  0  0  0  0  0  0  0  0  0
    4.5150   66.2860   63.5120 N   0  0  0  0  0  4  0  0  0  0  0  0
    4.9310   67.4010   64.4700 C   0  0  0  0  0  0  0  0  0  0  0  0
    4.7830   68.7990   63.8180 C   0  0  0  0  0  0  0  0  0  0  0  0
    3.7570   68.8010   62.7520 N   0  0  0  0  0  0  0  0  0  0  0  0
    4.0560   67.8970   61.6190 C   0  0  0  0  0  0  0  0  0  0  0  0
    4.8150   66.6160   62.0590 C   0  0  0  0  0  0  0  0  0  0  0  0
    3.7080   64.2330   64.7040 C   0  0  0  0  0  0  0  0  0  0  0  0
    4.8490   64.8960   63.9570 C   0  0  0  0  0  0  0  0  0  0  0  0
    1.8270   68.7630   67.5800 C   0  0  0  0  0  0  0  0  0  0  0  0
    2.1810   69.9550   68.4350 C   0  0  0  0  0  0  0  0  0  0  0  0
    3.1190   69.5100   67.3580 C   0  0  0  0  0  0  0  0  0  0  0  0
   -2.9460   68.0070   66.9340 C   0  0  0  0  0  0  0  0  0  0  0  0
   -3.9970   68.4740   66.4100 O   0  0  0  0  0  0  0  0  0  0  0  0
   -2.8120   67.3030   67.9760 O   0  0  0  0  0  1  0  0  0  0  0  0
    3.1080   68.8736   65.2996 H   0  0  0  0  0  0  0  0  0  0  0  0
   -0.8609   68.9634   62.2748 H   0  0  0  0  0  0  0  0  0  0  0  0
   -0.6654   68.3148   68.1335 H   0  0  0  0  0  0  0  0  0  0  0  0
    3.4864   66.2584   63.5591 H   0  0  0  0  0  0  0  0  0  0  0  0
    4.2956   67.3564   65.3668 H   0  0  0  0  0  0  0  0  0  0  0  0
    5.9895   67.2534   64.7303 H   0  0  0  0  0  0  0  0  0  0  0  0
    4.4935   69.5245   64.5925 H   0  0  0  0  0  0  0  0  0  0  0  0
    5.7482   69.0694   63.3648 H   0  0  0  0  0  0  0  0  0  0  0  0
    3.1082   67.5997   61.1464 H   0  0  0  0  0  0  0  0  0  0  0  0
    4.7051   68.4442   60.9196 H   0  0  0  0  0  0  0  0  0  0  0  0
    4.5001   65.7740   61.4251 H   0  0  0  0  0  0  0  0  0  0  0  0
    5.8957   66.7910   61.9520 H   0  0  0  0  0  0  0  0  0  0  0  0
    3.8738   64.3294   65.7871 H   0  0  0  0  0  0  0  0  0  0  0  0
    2.7600   64.7209   64.4334 H   0  0  0  0  0  0  0  0  0  0  0  0
    3.6625   63.1678   64.4334 H   0  0  0  0  0  0  0  0  0  0  0  0
    5.7259   64.9394   64.6197 H   0  0  0  0  0  0  0  0  0  0  0  0
    5.0503   64.2972   63.0565 H   0  0  0  0  0  0  0  0  0  0  0  0
    1.5550   67.7148   67.7729 H   0  0  0  0  0  0  0  0  0  0  0  0
    1.6231   70.8964   68.3230 H   0  0  0  0  0  0  0  0  0  0  0  0
    2.2704   70.1354   69.5164 H   0  0  0  0  0  0  0  0  0  0  0  0
    3.2499   70.1247   66.4552 H   0  0  0  0  0  0  0  0  0  0  0  0
    4.1818   69.2287   67.3219 H   0  0  0  0  0  0  0  0  0  0  0  0
  2  1  2  0
  3  2  1  0
  4  3  2  0
  5  4  1  0
  6  5  2  0
  6  1  1  0
  7  6  1  0
  8  4  1  0
  9  8  2  0
 10  8  1  0
 11 10  2  0
 12  3  1  0
 12 11  1  0
 14 13  1  0
 15 14  1  0
 16 15  1  0
 16  1  1  0
 17 16  1  0
 18 17  1  0
 18 13  1  0
 20 19  1  0
 20 13  1  0
 21 12  1  0
 22 21  1  0
 23 22  1  0
 23 21  1  0
 24 10  1  0
 25 24  2  0
 26 24  1  0
  2 27  1  0
  5 28  1  0
 11 29  1  0
 13 30  1  0
 14 31  1  0
 14 32  1  0
 15 33  1  0
 15 34  1  0
 17 35  1  0
 17 36  1  0
 18 37  1  0
 18 38  1  0
 19 39  1  0
 19 40  1  0
 19 41  1  0
 20 42  1  0
 20 43  1  0
 21 44  1  0
 22 45  1  0
 22 46  1  0
 23 47  1  0
 23 48  1  0
M  CHG  2  13   1  26  -1
M  END
>  <score>  (2) 
-8.769

$$$$
=
     RDKit          3D

 48 51  0  0  0  0  0  0  0  0999 V2000
    1.8880   61.7670   74.3120 C   0  0  0  0  0  0  0  0  0  0  0  0
    2.1170   61.8190   72.9240 C   0  0  0  0  0  0  0  0  0  0  0  0
    1.5840   62.8390   72.1160 C   0  0  0  0  0  0  0  0  0  0  0  0
    0.7920   63.8250   72.7350 C   0  0  0  0  0  0  0  0  0  0  0  0
    0.5110   63.7750   74.1010 C   0  0  0  0  0  0  0  0  0  0  0  0
    1.0590   62.7590   74.8660 C   0  0  0  0  0  0  0  0  0  0  0  0
    0.8790   62.8110   76.1970 F   0  0  0  0  0  0  0  0  0  0  0  0
    0.2750   64.9690   71.9440 C   0  0  0  0  0  0  0  0  0  0  0  0
   -0.5460   65.7190   72.4580 O   0  0  0  0  0  0  0  0  0  0  0  0
    0.8000   65.1090   70.5780 C   0  0  0  0  0  0  0  0  0  0  0  0
    1.5110   64.0990   70.0630 C   0  0  0  0  0  0  0  0  0  0  0  0
    1.8340   62.9230   70.7180 N   0  0  0  0  0  0  0  0  0  0  0  0
    1.7460   58.4730   73.8010 N   0  0  0  0  0  4  0  0  0  0  0  0
    0.9070   58.8570   75.0170 C   0  0  0  0  0  0  0  0  0  0  0  0
    1.6070   59.9440   75.8740 C   0  0  0  0  0  0  0  0  0  0  0  0
    2.5340   60.7660   75.0650 N   0  0  0  0  0  0  0  0  0  0  0  0
    3.6470   60.0040   74.4540 C   0  0  0  0  0  0  0  0  0  0  0  0
    3.2400   58.5580   74.0650 C   0  0  0  0  0  0  0  0  0  0  0  0
   -0.0090   56.6920   73.6160 C   0  0  0  0  0  0  0  0  0  0  0  0
    1.2750   57.2660   73.0490 C   0  0  0  0  0  0  0  0  0  0  0  0
    2.6840   61.9540   70.0050 C   0  0  0  0  0  0  0  0  0  0  0  0
    4.1910   62.0500   70.0370 C   0  0  0  0  0  0  0  0  0  0  0  0
    3.4560   62.3350   68.7660 C   0  0  0  0  0  0  0  0  0  0  0  0
    0.6430   66.3740   69.7720 C   0  0  0  0  0  0  0  0  0  0  0  0
   -0.3480   66.3940   68.9870 O   0  0  0  0  0  0  0  0  0  0  0  0
    1.5840   67.2100   69.9000 O   0  0  0  0  0  1  0  0  0  0  0  0
    2.7327   61.0365   72.4564 H   0  0  0  0  0  0  0  0  0  0  0  0
   -0.1376   64.5331   74.5643 H   0  0  0  0  0  0  0  0  0  0  0  0
    1.8699   64.2132   69.0295 H   0  0  0  0  0  0  0  0  0  0  0  0
    1.5692   59.2123   73.1060 H   0  0  0  0  0  0  0  0  0  0  0  0
   -0.0636   59.2439   74.6732 H   0  0  0  0  0  0  0  0  0  0  0  0
    0.7743   57.9604   75.6403 H   0  0  0  0  0  0  0  0  0  0  0  0
    0.8408   60.5993   76.3138 H   0  0  0  0  0  0  0  0  0  0  0  0
    2.1911   59.4393   76.6576 H   0  0  0  0  0  0  0  0  0  0  0  0
    3.9793   60.5319   73.5479 H   0  0  0  0  0  0  0  0  0  0  0  0
    4.4510   59.9333   75.2014 H   0  0  0  0  0  0  0  0  0  0  0  0
    3.7846   58.2617   73.1564 H   0  0  0  0  0  0  0  0  0  0  0  0
    3.4909   57.8840   74.8974 H   0  0  0  0  0  0  0  0  0  0  0  0
    0.0345   56.7115   74.7150 H   0  0  0  0  0  0  0  0  0  0  0  0
   -0.8630   57.2940   73.2722 H   0  0  0  0  0  0  0  0  0  0  0  0
   -0.1299   55.6541   73.2722 H   0  0  0  0  0  0  0  0  0  0  0  0
    2.0572   56.4940   73.0958 H   0  0  0  0  0  0  0  0  0  0  0  0
    1.0733   57.5758   72.0130 H   0  0  0  0  0  0  0  0  0  0  0  0
    1.9434   61.1804   70.2560 H   0  0  0  0  0  0  0  0  0  0  0  0
    4.6777   62.8698   70.5858 H   0  0  0  0  0  0  0  0  0  0  0  0
    5.0062   61.3707   70.3268 H   0  0  0  0  0  0  0  0  0  0  0  0
    3.4034   63.3641   68.3812 H   0  0  0  0  0  0  0  0  0  0  0  0
    3.5091   61.9512   67.7365 H   0  0  0  0  0  0  0  0  0  0  0  0
  2  1  2  0
  3  2  1  0
  4  3  2  0
  5  4  1  0
  6  5  2  0
  6  1  1  0
  7  6  1  0
  8  4  1  0
  9  8  2  0
 10  8  1  0
 11 10  2  0
 12  3  1  0
 12 11  1  0
 14 13  1  0
 15 14  1  0
 16 15  1  0
 16  1  1  0
 17 16  1  0
 18 17  1  0
 18 13  1  0
 20 19  1  0
 20 13  1  0
 21 12  1  0
 22 21  1  0
 23 22  1  0
 23 21  1  0
 24 10  1  0
 25 24  2  0
 26 24  1  0
  2 27  1  0
  5 28  1  0
 11 29  1  0
 13 30  1  0
 14 31  1  0
 14 32  1  0
 15 33  1  0
 15 34  1  0
 17 35  1  0
 17 36  1  0
 18 37  1  0
 18 38  1  0
 19 39  1  0
 19 40  1  0
 19 41  1  0
 20 42  1  0
 20 43  1  0
 21 44  1  0
 22 45  1  0
 22 46  1  0
 23 47  1  0
 23 48  1  0
M  CHG  2  13   1  26  -1
M  END
>  <score>  (3) 
-8.458

$$$$
=
     RDKit          3D

 48 51  0  0  0  0  0  0  0  0999 V2000
    1.6480   57.7180   72.6570 C   0  0  0  0  0  0  0  0  0  0  0  0
    1.4910   59.0960   72.8950 C   0  0  0  0  0  0  0  0  0  0  0  0
    2.2490   60.0640   72.2130 C   0  0  0  0  0  0  0  0  0  0  0  0
    3.1960   59.6180   71.2710 C   0  0  0  0  0  0  0  0  0  0  0  0
    3.4050   58.2570   71.0450 C   0  0  0  0  0  0  0  0  0  0  0  0
    2.6350   57.3330   71.7310 C   0  0  0  0  0  0  0  0  0  0  0  0
    2.7670   56.0370   71.3970 F   0  0  0  0  0  0  0  0  0  0  0  0
    3.9620   60.5980   70.4640 C   0  0  0  0  0  0  0  0  0  0  0  0
    4.8950   60.1980   69.7780 O   0  0  0  0  0  0  0  0  0  0  0  0
    3.5330   62.0010   70.5590 C   0  0  0  0  0  0  0  0  0  0  0  0
    2.6560   62.3350   71.5140 C   0  0  0  0  0  0  0  0  0  0  0  0
    2.0780   61.4610   72.4200 N   0  0  0  0  0  0  0  0  0  0  0  0
    1.3080   57.3120   75.9510 N   0  0  0  0  0  4  0  0  0  0  0  0
    2.0850   56.1420   75.3490 C   0  0  0  0  0  0  0  0  0  0  0  0
    1.4930   55.7050   73.9850 C   0  0  0  0  0  0  0  0  0  0  0  0
    0.7860   56.8170   73.3130 N   0  0  0  0  0  0  0  0  0  0  0  0
   -0.3750   57.3430   74.0660 C   0  0  0  0  0  0  0  0  0  0  0  0
   -0.1710   57.2780   75.6030 C   0  0  0  0  0  0  0  0  0  0  0  0
    3.0280   58.2560   77.5120 C   0  0  0  0  0  0  0  0  0  0  0  0
    1.6470   57.6470   77.3700 C   0  0  0  0  0  0  0  0  0  0  0  0
    1.0820   62.0080   73.3570 C   0  0  0  0  0  0  0  0  0  0  0  0
   -0.3270   62.3250   72.9160 C   0  0  0  0  0  0  0  0  0  0  0  0
    0.6090   63.4380   73.2680 C   0  0  0  0  0  0  0  0  0  0  0  0
    3.9710   63.0560   69.5730 C   0  0  0  0  0  0  0  0  0  0  0  0
    3.3350   63.0700   68.4810 O   0  0  0  0  0  0  0  0  0  0  0  0
    4.9910   63.7190   69.9190 O   0  0  0  0  0  1  0  0  0  0  0  0
    0.7511   59.4266   73.6388 H   0  0  0  0  0  0  0  0  0  0  0  0
    4.1718   57.9224   70.3309 H   0  0  0  0  0  0  0  0  0  0  0  0
    2.3698   63.3947   71.5853 H   0  0  0  0  0  0  0  0  0  0  0  0
    1.6619   58.1502   75.4682 H   0  0  0  0  0  0  0  0  0  0  0  0
    3.1319   56.4464   75.2026 H   0  0  0  0  0  0  0  0  0  0  0  0
    2.0165   55.2907   76.0422 H   0  0  0  0  0  0  0  0  0  0  0  0
    2.3109   55.3589   73.3360 H   0  0  0  0  0  0  0  0  0  0  0  0
    0.7672   54.8991   74.1690 H   0  0  0  0  0  0  0  0  0  0  0  0
   -0.5364   58.3919   73.7764 H   0  0  0  0  0  0  0  0  0  0  0  0
   -1.2435   56.7147   73.8192 H   0  0  0  0  0  0  0  0  0  0  0  0
   -0.6717   58.1387   76.0703 H   0  0  0  0  0  0  0  0  0  0  0  0
   -0.6006   56.3370   75.9771 H   0  0  0  0  0  0  0  0  0  0  0  0
    3.2731   58.3641   78.5789 H   0  0  0  0  0  0  0  0  0  0  0  0
    3.7689   57.6011   77.0301 H   0  0  0  0  0  0  0  0  0  0  0  0
    3.0441   59.2447   77.0301 H   0  0  0  0  0  0  0  0  0  0  0  0
    1.6052   56.7254   77.9691 H   0  0  0  0  0  0  0  0  0  0  0  0
    0.9171   58.3920   77.7196 H   0  0  0  0  0  0  0  0  0  0  0  0
    1.5350   61.3835   74.1411 H   0  0  0  0  0  0  0  0  0  0  0  0
   -0.6234   62.1671   71.8685 H   0  0  0  0  0  0  0  0  0  0  0  0
   -1.3310   62.0210   73.2470 H   0  0  0  0  0  0  0  0  0  0  0  0
    0.9994   64.0974   72.4788 H   0  0  0  0  0  0  0  0  0  0  0  0
    0.5756   64.2889   73.9643 H   0  0  0  0  0  0  0  0  0  0  0  0
  2  1  2  0
  3  2  1  0
  4  3  2  0
  5  4  1  0
  6  5  2  0
  6  1  1  0
  7  6  1  0
  8  4  1  0
  9  8  2  0
 10  8  1  0
 11 10  2  0
 12  3  1  0
 12 11  1  0
 14 13  1  0
 15 14  1  0
 16 15  1  0
 16  1  1  0
 17 16  1  0
 18 17  1  0
 18 13  1  0
 20 19  1  0
 20 13  1  0
 21 12  1  0
 22 21  1  0
 23 22  1  0
 23 21  1  0
 24 10  1  0
 25 24  2  0
 26 24  1  0
  2 27  1  0
  5 28  1  0
 11 29  1  0
 13 30  1  0
 14 31  1  0
 14 32  1  0
 15 33  1  0
 15 34  1  0
 17 35  1  0
 17 36  1  0
 18 37  1  0
 18 38  1  0
 19 39  1  0
 19 40  1  0
 19 41  1  0
 20 42  1  0
 20 43  1  0
 21 44  1  0
 22 45  1  0
 22 46  1  0
 23 47  1  0
 23 48  1  0
M  CHG  2  13   1  26  -1
M  END
>  <score>  (4) 
-8.35

$$$$
=
     RDKit          3D

 48 51  0  0  0  0  0  0  0  0999 V2000
   -1.1430   59.4900   74.0520 C   0  0  0  0  0  0  0  0  0  0  0  0
   -0.5000   60.5900   73.4540 C   0  0  0  0  0  0  0  0  0  0  0  0
    0.7510   60.4720   72.8240 C   0  0  0  0  0  0  0  0  0  0  0  0
    1.3660   59.2060   72.8100 C   0  0  0  0  0  0  0  0  0  0  0  0
    0.7740   58.1060   73.4330 C   0  0  0  0  0  0  0  0  0  0  0  0
   -0.4620   58.2600   74.0370 C   0  0  0  0  0  0  0  0  0  0  0  0
   -1.0670   57.1570   74.5140 F   0  0  0  0  0  0  0  0  0  0  0  0
    2.6470   59.0080   72.0870 C   0  0  0  0  0  0  0  0  0  0  0  0
    3.2480   57.9490   72.2280 O   0  0  0  0  0  0  0  0  0  0  0  0
    3.1010   60.1240   71.2450 C   0  0  0  0  0  0  0  0  0  0  0  0
    2.4750   61.3020   71.3580 C   0  0  0  0  0  0  0  0  0  0  0  0
    1.3980   61.5670   72.1860 N   0  0  0  0  0  0  0  0  0  0  0  0
   -2.1330   61.8930   76.1450 N   0  0  0  0  0  4  0  0  0  0  0  0
   -2.0080   60.5630   76.8850 C   0  0  0  0  0  0  0  0  0  0  0  0
   -2.5300   59.3810   76.0280 C   0  0  0  0  0  0  0  0  0  0  0  0
   -2.4370   59.6710   74.5800 N   0  0  0  0  0  0  0  0  0  0  0  0
   -3.2440   60.8310   74.1400 C   0  0  0  0  0  0  0  0  0  0  0  0
   -3.3370   61.9420   75.2200 C   0  0  0  0  0  0  0  0  0  0  0  0
   -1.1470   64.1980   76.2080 C   0  0  0  0  0  0  0  0  0  0  0  0
   -1.8850   63.1160   76.9730 C   0  0  0  0  0  0  0  0  0  0  0  0
    0.8010   62.9130   72.1230 C   0  0  0  0  0  0  0  0  0  0  0  0
    0.0330   63.3800   70.9100 C   0  0  0  0  0  0  0  0  0  0  0  0
    1.3630   63.9880   71.2260 C   0  0  0  0  0  0  0  0  0  0  0  0
    4.1800   59.9700   70.2010 C   0  0  0  0  0  0  0  0  0  0  0  0
    3.9010   59.1850   69.2500 O   0  0  0  0  0  0  0  0  0  0  0  0
    5.2680   60.5580   70.4670 O   0  0  0  0  0  1  0  0  0  0  0  0
   -0.9922   61.5734   73.4805 H   0  0  0  0  0  0  0  0  0  0  0  0
    1.2825   57.1306   73.4438 H   0  0  0  0  0  0  0  0  0  0  0  0
    2.8489   62.1310   70.7393 H   0  0  0  0  0  0  0  0  0  0  0  0
   -1.3237   61.9257   75.5088 H   0  0  0  0  0  0  0  0  0  0  0  0
   -0.9495   60.3877   77.1276 H   0  0  0  0  0  0  0  0  0  0  0  0
   -2.6168   60.6198   77.7994 H   0  0  0  0  0  0  0  0  0  0  0  0
   -1.9300   58.4865   76.2515 H   0  0  0  0  0  0  0  0  0  0  0  0
   -3.5889   59.2183   76.2775 H   0  0  0  0  0  0  0  0  0  0  0  0
   -2.7840   61.2569   73.2361 H   0  0  0  0  0  0  0  0  0  0  0  0
   -4.2650   60.4704   73.9464 H   0  0  0  0  0  0  0  0  0  0  0  0
   -3.3730   62.9241   74.7258 H   0  0  0  0  0  0  0  0  0  0  0  0
   -4.2477   61.7812   75.8157 H   0  0  0  0  0  0  0  0  0  0  0  0
   -0.6739   64.8917   76.9186 H   0  0  0  0  0  0  0  0  0  0  0  0
   -0.3740   63.7374   75.5753 H   0  0  0  0  0  0  0  0  0  0  0  0
   -1.8579   64.7496   75.5753 H   0  0  0  0  0  0  0  0  0  0  0  0
   -1.2843   62.8321   77.8497 H   0  0  0  0  0  0  0  0  0  0  0  0
   -2.8635   63.5238   77.2667 H   0  0  0  0  0  0  0  0  0  0  0  0
    0.5876   62.8268   73.1987 H   0  0  0  0  0  0  0  0  0  0  0  0
   -0.0748   62.7166   70.0392 H   0  0  0  0  0  0  0  0  0  0  0  0
   -0.9792   63.7741   70.7363 H   0  0  0  0  0  0  0  0  0  0  0  0
    2.2316   63.7712   70.5869 H   0  0  0  0  0  0  0  0  0  0  0  0
    1.7306   65.0133   71.3800 H   0  0  0  0  0  0  0  0  0  0  0  0
  2  1  2  0
  3  2  1  0
  4  3  2  0
  5  4  1  0
  6  5  2  0
  6  1  1  0
  7  6  1  0
  8  4  1  0
  9  8  2  0
 10  8  1  0
 11 10  2  0
 12  3  1  0
 12 11  1  0
 14 13  1  0
 15 14  1  0
 16 15  1  0
 16  1  1  0
 17 16  1  0
 18 17  1  0
 18 13  1  0
 20 19  1  0
 20 13  1  0
 21 12  1  0
 22 21  1  0
 23 22  1  0
 23 21  1  0
 24 10  1  0
 25 24  2  0
 26 24  1  0
  2 27  1  0
  5 28  1  0
 11 29  1  0
 13 30  1  0
 14 31  1  0
 14 32  1  0
 15 33  1  0
 15 34  1  0
 17 35  1  0
 17 36  1  0
 18 37  1  0
 18 38  1  0
 19 39  1  0
 19 40  1  0
 19 41  1  0
 20 42  1  0
 20 43  1  0
 21 44  1  0
 22 45  1  0
 22 46  1  0
 23 47  1  0
 23 48  1  0
M  CHG  2  13   1  26  -1
M  END
>  <score>  (5) 
-7.991

$$$$
=
     RDKit          3D

 48 51  0  0  0  0  0  0  0  0999 V2000
    3.1800   68.2570   63.5720 C   0  0  0  0  0  0  0  0  0  0  0  0
    2.7430   68.4820   64.8910 C   0  0  0  0  0  0  0  0  0  0  0  0
    1.3880   68.6880   65.2050 C   0  0  0  0  0  0  0  0  0  0  0  0
    0.4560   68.6730   64.1490 C   0  0  0  0  0  0  0  0  0  0  0  0
    0.8640   68.4960   62.8260 C   0  0  0  0  0  0  0  0  0  0  0  0
    2.2070   68.2900   62.5570 C   0  0  0  0  0  0  0  0  0  0  0  0
    2.5530   67.9930   61.2920 F   0  0  0  0  0  0  0  0  0  0  0  0
   -0.9940   68.8010   64.4340 C   0  0  0  0  0  0  0  0  0  0  0  0
   -1.7690   68.9550   63.4970 O   0  0  0  0  0  0  0  0  0  0  0  0
   -1.3900   68.7350   65.8480 C   0  0  0  0  0  0  0  0  0  0  0  0
   -0.4330   68.7940   66.7810 C   0  0  0  0  0  0  0  0  0  0  0  0
    0.9270   68.8830   66.5360 N   0  0  0  0  0  0  0  0  0  0  0  0
    5.7990   69.7350   65.0170 N   0  0  0  0  0  4  0  0  0  0  0  0
    5.6580   70.2030   63.5690 C   0  0  0  0  0  0  0  0  0  0  0  0
    5.2640   69.0350   62.6280 C   0  0  0  0  0  0  0  0  0  0  0  0
    4.5410   67.9670   63.3530 N   0  0  0  0  0  0  0  0  0  0  0  0
    5.3280   67.3240   64.4300 C   0  0  0  0  0  0  0  0  0  0  0  0
    6.3040   68.3070   65.1280 C   0  0  0  0  0  0  0  0  0  0  0  0
    6.5980   70.1690   67.3540 C   0  0  0  0  0  0  0  0  0  0  0  0
    6.4100   70.7280   65.9570 C   0  0  0  0  0  0  0  0  0  0  0  0
    1.8330   68.8720   67.6980 C   0  0  0  0  0  0  0  0  0  0  0  0
    2.0550   70.1060   68.5390 C   0  0  0  0  0  0  0  0  0  0  0  0
    3.1620   69.5870   67.6760 C   0  0  0  0  0  0  0  0  0  0  0  0
   -2.8180   68.5140   66.2830 C   0  0  0  0  0  0  0  0  0  0  0  0
   -2.9670   67.7340   67.2670 O   0  0  0  0  0  0  0  0  0  0  0  0
   -3.6920   69.0480   65.5410 O   0  0  0  0  0  1  0  0  0  0  0  0
    3.4856   68.4972   65.7024 H   0  0  0  0  0  0  0  0  0  0  0  0
    0.1289   68.5198   62.0080 H   0  0  0  0  0  0  0  0  0  0  0  0
   -0.7540   68.7697   67.8329 H   0  0  0  0  0  0  0  0  0  0  0  0
    4.8372   69.6920   65.3831 H   0  0  0  0  0  0  0  0  0  0  0  0
    4.8807   70.9797   63.5188 H   0  0  0  0  0  0  0  0  0  0  0  0
    6.6299   70.5984   63.2387 H   0  0  0  0  0  0  0  0  0  0  0  0
    4.6164   69.4244   61.8287 H   0  0  0  0  0  0  0  0  0  0  0  0
    6.1868   68.6032   62.2132 H   0  0  0  0  0  0  0  0  0  0  0  0
    4.6328   66.9245   65.1831 H   0  0  0  0  0  0  0  0  0  0  0  0
    5.9316   66.5278   63.9699 H   0  0  0  0  0  0  0  0  0  0  0  0
    6.3905   68.0362   66.1906 H   0  0  0  0  0  0  0  0  0  0  0  0
    7.2854   68.2399   64.6357 H   0  0  0  0  0  0  0  0  0  0  0  0
    6.3389   70.9394   68.0951 H   0  0  0  0  0  0  0  0  0  0  0  0
    5.9445   69.2947   67.4901 H   0  0  0  0  0  0  0  0  0  0  0  0
    7.6470   69.8673   67.4901 H   0  0  0  0  0  0  0  0  0  0  0  0
    5.7532   71.6084   66.0152 H   0  0  0  0  0  0  0  0  0  0  0  0
    7.4044   70.9890   65.5659 H   0  0  0  0  0  0  0  0  0  0  0  0
    1.5051   67.8404   67.8935 H   0  0  0  0  0  0  0  0  0  0  0  0
    1.5497   71.0473   68.2772 H   0  0  0  0  0  0  0  0  0  0  0  0
    1.9512   70.3462   69.6074 H   0  0  0  0  0  0  0  0  0  0  0  0
    3.4693   70.1475   66.7808 H   0  0  0  0  0  0  0  0  0  0  0  0
    4.2066   69.2889   67.8494 H   0  0  0  0  0  0  0  0  0  0  0  0
  2  1  2  0
  3  2  1  0
  4  3  2  0
  5  4  1  0
  6  5  2  0
  6  1  1  0
  7  6  1  0
  8  4  1  0
  9  8  2  0
 10  8  1  0
 11 10  2  0
 12  3  1  0
 12 11  1  0
 14 13  1  0
 15 14  1  0
 16 15  1  0
 16  1  1  0
 17 16  1  0
 18 17  1  0
 18 13  1  0
 20 19  1  0
 20 13  1  0
 21 12  1  0
 22 21  1  0
 23 22  1  0
 23 21  1  0
 24 10  1  0
 25 24  2  0
 26 24  1  0
  2 27  1  0
  5 28  1  0
 11 29  1  0
 13 30  1  0
 14 31  1  0
 14 32  1  0
 15 33  1  0
 15 34  1  0
 17 35  1  0
 17 36  1  0
 18 37  1  0
 18 38  1  0
 19 39  1  0
 19 40  1  0
 19 41  1  0
 20 42  1  0
 20 43  1  0
 21 44  1  0
 22 45  1  0
 22 46  1  0
 23 47  1  0
 23 48  1  0
M  CHG  2  13   1  26  -1
M  END
>  <score>  (6) 
-7.805

$$$$
=
     RDKit          3D

 48 51  0  0  0  0  0  0  0  0999 V2000
    3.5750   59.4830   71.5860 C   0  0  0  0  0  0  0  0  0  0  0  0
    2.9930   60.1420   72.6850 C   0  0  0  0  0  0  0  0  0  0  0  0
    2.0810   59.5030   73.5430 C   0  0  0  0  0  0  0  0  0  0  0  0
    1.7480   58.1620   73.2710 C   0  0  0  0  0  0  0  0  0  0  0  0
    2.2740   57.4960   72.1630 C   0  0  0  0  0  0  0  0  0  0  0  0
    3.1750   58.1570   71.3440 C   0  0  0  0  0  0  0  0  0  0  0  0
    3.7640   57.4500   70.3640 F   0  0  0  0  0  0  0  0  0  0  0  0
    0.8560   57.4140   74.1910 C   0  0  0  0  0  0  0  0  0  0  0  0
    0.4440   56.3120   73.8490 O   0  0  0  0  0  0  0  0  0  0  0  0
    0.5300   58.0740   75.4630 C   0  0  0  0  0  0  0  0  0  0  0  0
    0.8540   59.3640   75.6140 C   0  0  0  0  0  0  0  0  0  0  0  0
    1.5110   60.1450   74.6770 N   0  0  0  0  0  0  0  0  0  0  0  0
    3.5020   62.6830   70.6450 N   0  0  0  0  0  4  0  0  0  0  0  0
    3.2040   61.7730   69.4550 C   0  0  0  0  0  0  0  0  0  0  0  0
    4.1030   60.5100   69.4630 C   0  0  0  0  0  0  0  0  0  0  0  0
    4.5500   60.1650   70.8300 N   0  0  0  0  0  0  0  0  0  0  0  0
    5.3740   61.2080   71.4820 C   0  0  0  0  0  0  0  0  0  0  0  0
    4.9610   62.6440   71.0650 C   0  0  0  0  0  0  0  0  0  0  0  0
    1.3510   63.9720   70.6860 C   0  0  0  0  0  0  0  0  0  0  0  0
    2.8640   64.0370   70.5950 C   0  0  0  0  0  0  0  0  0  0  0  0
    1.8400   61.5310   75.0520 C   0  0  0  0  0  0  0  0  0  0  0  0
    0.7680   62.5220   75.4370 C   0  0  0  0  0  0  0  0  0  0  0  0
    1.5130   62.6960   74.1510 C   0  0  0  0  0  0  0  0  0  0  0  0
   -0.0740   57.3350   76.6330 C   0  0  0  0  0  0  0  0  0  0  0  0
   -1.2860   57.6030   76.8720 O   0  0  0  0  0  0  0  0  0  0  0  0
    0.7390   56.6260   77.2930 O   0  0  0  0  0  1  0  0  0  0  0  0
    3.2605   61.1912   72.8789 H   0  0  0  0  0  0  0  0  0  0  0  0
    1.9771   56.4599   71.9429 H   0  0  0  0  0  0  0  0  0  0  0  0
    0.5748   59.8450   76.5630 H   0  0  0  0  0  0  0  0  0  0  0  0
    2.9985   62.2638   71.4398 H   0  0  0  0  0  0  0  0  0  0  0  0
    2.1500   61.4612   69.4992 H   0  0  0  0  0  0  0  0  0  0  0  0
    3.4090   62.3353   68.5321 H   0  0  0  0  0  0  0  0  0  0  0  0
    3.5333   59.6644   69.0502 H   0  0  0  0  0  0  0  0  0  0  0  0
    4.9944   60.7199   68.8536 H   0  0  0  0  0  0  0  0  0  0  0  0
    5.2642   61.1128   72.5724 H   0  0  0  0  0  0  0  0  0  0  0  0
    6.4158   61.0560   71.1635 H   0  0  0  0  0  0  0  0  0  0  0  0
    5.1098   63.3241   71.9167 H   0  0  0  0  0  0  0  0  0  0  0  0
    5.5825   62.9571   70.2131 H   0  0  0  0  0  0  0  0  0  0  0  0
    1.0475   63.9590   71.7432 H   0  0  0  0  0  0  0  0  0  0  0  0
    0.9157   64.8523   70.1904 H   0  0  0  0  0  0  0  0  0  0  0  0
    0.9928   63.0576   70.1904 H   0  0  0  0  0  0  0  0  0  0  0  0
    3.1395   64.5216   69.6467 H   0  0  0  0  0  0  0  0  0  0  0  0
    3.2260   64.6084   71.4624 H   0  0  0  0  0  0  0  0  0  0  0  0
    2.7538   61.1435   75.5262 H   0  0  0  0  0  0  0  0  0  0  0  0
   -0.2897   62.2203   75.4226 H   0  0  0  0  0  0  0  0  0  0  0  0
    0.5762   63.1562   76.3151 H   0  0  0  0  0  0  0  0  0  0  0  0
    1.0020   62.5224   73.1925 H   0  0  0  0  0  0  0  0  0  0  0  0
    2.0940   63.5112   73.6950 H   0  0  0  0  0  0  0  0  0  0  0  0
  2  1  2  0
  3  2  1  0
  4  3  2  0
  5  4  1  0
  6  5  2  0
  6  1  1  0
  7  6  1  0
  8  4  1  0
  9  8  2  0
 10  8  1  0
 11 10  2  0
 12  3  1  0
 12 11  1  0
 14 13  1  0
 15 14  1  0
 16 15  1  0
 16  1  1  0
 17 16  1  0
 18 17  1  0
 18 13  1  0
 20 19  1  0
 20 13  1  0
 21 12  1  0
 22 21  1  0
 23 22  1  0
 23 21  1  0
 24 10  1  0
 25 24  2  0
 26 24  1  0
  2 27  1  0
  5 28  1  0
 11 29  1  0
 13 30  1  0
 14 31  1  0
 14 32  1  0
 15 33  1  0
 15 34  1  0
 17 35  1  0
 17 36  1  0
 18 37  1  0
 18 38  1  0
 19 39  1  0
 19 40  1  0
 19 41  1  0
 20 42  1  0
 20 43  1  0
 21 44  1  0
 22 45  1  0
 22 46  1  0
 23 47  1  0
 23 48  1  0
M  CHG  2  13   1  26  -1
M  END
>  <score>  (7) 
-7.775

$$$$
=
     RDKit          3D

 48 51  0  0  0  0  0  0  0  0999 V2000
    2.2120   58.9150   72.6620 C   0  0  0  0  0  0  0  0  0  0  0  0
    1.5340   60.1210   72.4060 C   0  0  0  0  0  0  0  0  0  0  0  0
    0.2340   60.3640   72.8850 C   0  0  0  0  0  0  0  0  0  0  0  0
   -0.3930   59.3510   73.6350 C   0  0  0  0  0  0  0  0  0  0  0  0
    0.2360   58.1270   73.8670 C   0  0  0  0  0  0  0  0  0  0  0  0
    1.5190   57.9270   73.3860 C   0  0  0  0  0  0  0  0  0  0  0  0
    2.1490   56.7920   73.7360 F   0  0  0  0  0  0  0  0  0  0  0  0
   -1.7300   59.5870   74.2340 C   0  0  0  0  0  0  0  0  0  0  0  0
   -2.3280   58.6420   74.7340 O   0  0  0  0  0  0  0  0  0  0  0  0
   -2.2390   60.9640   74.1720 C   0  0  0  0  0  0  0  0  0  0  0  0
   -1.5950   61.8470   73.4000 C   0  0  0  0  0  0  0  0  0  0  0  0
   -0.4510   61.5910   72.6620 N   0  0  0  0  0  0  0  0  0  0  0  0
    3.9450   61.1100   70.8440 N   0  0  0  0  0  4  0  0  0  0  0  0
    3.5420   59.9130   69.9860 C   0  0  0  0  0  0  0  0  0  0  0  0
    3.6750   58.5800   70.7680 C   0  0  0  0  0  0  0  0  0  0  0  0
    3.5460   58.7860   72.2270 N   0  0  0  0  0  0  0  0  0  0  0  0
    4.5870   59.6610   72.8120 C   0  0  0  0  0  0  0  0  0  0  0  0
    5.0460   60.7790   71.8380 C   0  0  0  0  0  0  0  0  0  0  0  0
    3.4660   62.3660   68.7270 C   0  0  0  0  0  0  0  0  0  0  0  0
    4.0850   62.4090   70.1110 C   0  0  0  0  0  0  0  0  0  0  0  0
    0.1520   62.7130   71.9230 C   0  0  0  0  0  0  0  0  0  0  0  0
    1.3770   63.4310   72.4370 C   0  0  0  0  0  0  0  0  0  0  0  0
    0.0570   64.1340   72.4210 C   0  0  0  0  0  0  0  0  0  0  0  0
   -3.4010   61.4410   75.0080 C   0  0  0  0  0  0  0  0  0  0  0  0
   -3.0890   62.1270   76.0230 O   0  0  0  0  0  0  0  0  0  0  0  0
   -4.5330   61.0010   74.6520 O   0  0  0  0  0  1  0  0  0  0  0  0
    2.0367   60.8987   71.8123 H   0  0  0  0  0  0  0  0  0  0  0  0
   -0.2805   57.3318   74.4245 H   0  0  0  0  0  0  0  0  0  0  0  0
   -2.0100   62.8643   73.3468 H   0  0  0  0  0  0  0  0  0  0  0  0
    3.1238   61.3096   71.4328 H   0  0  0  0  0  0  0  0  0  0  0  0
    2.4964   60.0376   69.6679 H   0  0  0  0  0  0  0  0  0  0  0  0
    4.2145   59.8707   69.1165 H   0  0  0  0  0  0  0  0  0  0  0  0
    2.8854   57.8907   70.4342 H   0  0  0  0  0  0  0  0  0  0  0  0
    4.6731   58.1632   70.5676 H   0  0  0  0  0  0  0  0  0  0  0  0
    4.1823   60.1303   73.7209 H   0  0  0  0  0  0  0  0  0  0  0  0
    5.4626   59.0333   73.0338 H   0  0  0  0  0  0  0  0  0  0  0  0
    5.2945   61.6816   72.4155 H   0  0  0  0  0  0  0  0  0  0  0  0
    5.9283   60.4257   71.2842 H   0  0  0  0  0  0  0  0  0  0  0  0
    2.3723   62.2900   68.8167 H   0  0  0  0  0  0  0  0  0  0  0  0
    3.7261   63.2844   68.1803 H   0  0  0  0  0  0  0  0  0  0  0  0
    3.8506   61.4924   68.1803 H   0  0  0  0  0  0  0  0  0  0  0  0
    5.1550   62.6441   70.0115 H   0  0  0  0  0  0  0  0  0  0  0  0
    3.5535   63.1782   70.6905 H   0  0  0  0  0  0  0  0  0  0  0  0
   -0.1170   62.1925   70.9920 H   0  0  0  0  0  0  0  0  0  0  0  0
    1.8281   63.1312   73.3944 H   0  0  0  0  0  0  0  0  0  0  0  0
    2.3768   63.6475   72.0326 H   0  0  0  0  0  0  0  0  0  0  0  0
   -0.4611   64.3508   73.3668 H   0  0  0  0  0  0  0  0  0  0  0  0
   -0.3128   65.0805   71.9999 H   0  0  0  0  0  0  0  0  0  0  0  0
  2  1  2  0
  3  2  1  0
  4  3  2  0
  5  4  1  0
  6  5  2  0
  6  1  1  0
  7  6  1  0
  8  4  1  0
  9  8  2  0
 10  8  1  0
 11 10  2  0
 12  3  1  0
 12 11  1  0
 14 13  1  0
 15 14  1  0
 16 15  1  0
 16  1  1  0
 17 16  1  0
 18 17  1  0
 18 13  1  0
 20 19  1  0
 20 13  1  0
 21 12  1  0
 22 21  1  0
 23 22  1  0
 23 21  1  0
 24 10  1  0
 25 24  2  0
 26 24  1  0
  2 27  1  0
  5 28  1  0
 11 29  1  0
 13 30  1  0
 14 31  1  0
 14 32  1  0
 15 33  1  0
 15 34  1  0
 17 35  1  0
 17 36  1  0
 18 37  1  0
 18 38  1  0
 19 39  1  0
 19 40  1  0
 19 41  1  0
 20 42  1  0
 20 43  1  0
 21 44  1  0
 22 45  1  0
 22 46  1  0
 23 47  1  0
 23 48  1  0
M  CHG  2  13   1  26  -1
M  END
>  <score>  (8) 
-7.753

$$$$
=
     RDKit          3D

 48 51  0  0  0  0  0  0  0  0999 V2000
    3.0180   68.6630   63.6290 C   0  0  0  0  0  0  0  0  0  0  0  0
    2.7090   68.7890   64.9970 C   0  0  0  0  0  0  0  0  0  0  0  0
    3.6390   69.2780   65.9320 C   0  0  0  0  0  0  0  0  0  0  0  0
    4.9170   69.6400   65.4640 C   0  0  0  0  0  0  0  0  0  0  0  0
    5.2670   69.4860   64.1210 C   0  0  0  0  0  0  0  0  0  0  0  0
    4.3220   69.0070   63.2290 C   0  0  0  0  0  0  0  0  0  0  0  0
    4.6450   68.9920   61.9240 F   0  0  0  0  0  0  0  0  0  0  0  0
    5.9070   70.2400   66.3910 C   0  0  0  0  0  0  0  0  0  0  0  0
    7.0610   70.3900   66.0080 O   0  0  0  0  0  0  0  0  0  0  0  0
    5.4120   70.6100   67.7250 C   0  0  0  0  0  0  0  0  0  0  0  0
    4.1970   70.1850   68.0940 C   0  0  0  0  0  0  0  0  0  0  0  0
    3.3310   69.4410   67.3100 N   0  0  0  0  0  0  0  0  0  0  0  0
   -0.2720   68.7530   64.1780 N   0  0  0  0  0  4  0  0  0  0  0  0
    0.2420   67.3170   64.2660 C   0  0  0  0  0  0  0  0  0  0  0  0
    1.3030   67.0220   63.1750 C   0  0  0  0  0  0  0  0  0  0  0  0
    2.0020   68.2530   62.7440 N   0  0  0  0  0  0  0  0  0  0  0  0
    1.1180   69.2720   62.1330 C   0  0  0  0  0  0  0  0  0  0  0  0
   -0.3040   69.2800   62.7540 C   0  0  0  0  0  0  0  0  0  0  0  0
   -1.4640   68.2990   66.3370 C   0  0  0  0  0  0  0  0  0  0  0  0
   -1.4670   69.0610   65.0250 C   0  0  0  0  0  0  0  0  0  0  0  0
    2.0050   69.1240   67.8700 C   0  0  0  0  0  0  0  0  0  0  0  0
    1.8550   68.3180   69.1380 C   0  0  0  0  0  0  0  0  0  0  0  0
    1.4410   67.7250   67.8280 C   0  0  0  0  0  0  0  0  0  0  0  0
    6.1780   71.5180   68.6550 C   0  0  0  0  0  0  0  0  0  0  0  0
    6.0550   72.7550   68.4240 O   0  0  0  0  0  0  0  0  0  0  0  0
    6.9340   70.9250   69.4780 O   0  0  0  0  0  1  0  0  0  0  0  0
    1.7079   68.4955   65.3457 H   0  0  0  0  0  0  0  0  0  0  0  0
    6.2798   69.7417   63.7761 H   0  0  0  0  0  0  0  0  0  0  0  0
    3.8577   70.4494   69.1064 H   0  0  0  0  0  0  0  0  0  0  0  0
    0.4447   69.3275   64.6441 H   0  0  0  0  0  0  0  0  0  0  0  0
    0.6951   67.1602   65.2560 H   0  0  0  0  0  0  0  0  0  0  0  0
   -0.6088   66.6373   64.1108 H   0  0  0  0  0  0  0  0  0  0  0  0
    2.0426   66.3150   63.5789 H   0  0  0  0  0  0  0  0  0  0  0  0
    0.7873   66.5968   62.3013 H   0  0  0  0  0  0  0  0  0  0  0  0
    1.5711   70.2638   62.2782 H   0  0  0  0  0  0  0  0  0  0  0  0
    1.0136   69.0251   61.0662 H   0  0  0  0  0  0  0  0  0  0  0  0
   -0.6898   70.3101   62.7590 H   0  0  0  0  0  0  0  0  0  0  0  0
   -0.9562   68.6305   62.1516 H   0  0  0  0  0  0  0  0  0  0  0  0
   -1.4668   69.0117   67.1749 H   0  0  0  0  0  0  0  0  0  0  0  0
   -2.3596   67.6629   66.3936 H   0  0  0  0  0  0  0  0  0  0  0  0
   -0.5634   67.6700   66.3936 H   0  0  0  0  0  0  0  0  0  0  0  0
   -2.3747   68.7935   64.4642 H   0  0  0  0  0  0  0  0  0  0  0  0
   -1.4390   70.1346   65.2631 H   0  0  0  0  0  0  0  0  0  0  0  0
    1.6664   70.1128   67.5271 H   0  0  0  0  0  0  0  0  0  0  0  0
    2.7478   67.9372   69.6557 H   0  0  0  0  0  0  0  0  0  0  0  0
    1.3610   68.4805   70.1073 H   0  0  0  0  0  0  0  0  0  0  0  0
    2.0298   66.9087   67.3842 H   0  0  0  0  0  0  0  0  0  0  0  0
    0.5173   67.2721   67.4386 H   0  0  0  0  0  0  0  0  0  0  0  0
  2  1  2  0
  3  2  1  0
  4  3  2  0
  5  4  1  0
  6  5  2  0
  6  1  1  0
  7  6  1  0
  8  4  1  0
  9  8  2  0
 10  8  1  0
 11 10  2  0
 12  3  1  0
 12 11  1  0
 14 13  1  0
 15 14  1  0
 16 15  1  0
 16  1  1  0
 17 16  1  0
 18 17  1  0
 18 13  1  0
 20 19  1  0
 20 13  1  0
 21 12  1  0
 22 21  1  0
 23 22  1  0
 23 21  1  0
 24 10  1  0
 25 24  2  0
 26 24  1  0
  2 27  1  0
  5 28  1  0
 11 29  1  0
 13 30  1  0
 14 31  1  0
 14 32  1  0
 15 33  1  0
 15 34  1  0
 17 35  1  0
 17 36  1  0
 18 37  1  0
 18 38  1  0
 19 39  1  0
 19 40  1  0
 19 41  1  0
 20 42  1  0
 20 43  1  0
 21 44  1  0
 22 45  1  0
 22 46  1  0
 23 47  1  0
 23 48  1  0
M  CHG  2  13   1  26  -1
M  END
>  <score>  (9) 
-7.561

$$$$
