=
     RDKit          3D

 64 67  0  0  0  0  0  0  0  0999 V2000
    0.4060   65.4550   70.8980 C   0  0  0  0  0  0  0  0  0  0  0  0
    1.2110   66.2350   69.8540 C   0  0  0  0  0  0  0  0  0  0  0  0
    0.3100   67.0980   68.9650 C   0  0  0  0  0  0  0  0  0  0  0  0
    0.9650   67.3770   67.6090 C   0  0  0  0  0  0  0  0  0  0  0  0
    1.1350   68.8740   67.3690 C   0  0  0  0  0  0  0  0  0  0  0  0
    2.4730   69.1370   66.7680 N   0  0  0  0  0  4  0  0  0  0  0  0
    2.6320   68.8190   65.4580 C   0  0  0  0  0  0  0  0  0  0  0  0
    3.8240   69.0420   64.7920 C   0  0  0  0  0  0  0  0  0  0  0  0
    4.8850   69.6050   65.4790 C   0  0  0  0  0  0  0  0  0  0  0  0
    4.7390   69.9330   66.8270 C   0  0  0  0  0  0  0  0  0  0  0  0
    3.5020   69.6890   67.4870 C   0  0  0  0  0  0  0  0  0  0  0  0
    3.4040   70.0270   68.8500 C   0  0  0  0  0  0  0  0  0  0  0  0
    4.4840   70.5910   69.5360 C   0  0  0  0  0  0  0  0  0  0  0  0
    5.6830   70.8290   68.8770 C   0  0  0  0  0  0  0  0  0  0  0  0
    5.8120   70.5010   67.5300 C   0  0  0  0  0  0  0  0  0  0  0  0
    0.2100   63.9980   70.4710 C   0  0  0  0  0  0  0  0  0  0  0  0
   -0.2050   63.1050   71.6470 C   0  0  0  0  0  0  0  0  0  0  0  0
    0.3880   63.6210   72.9610 C   0  0  0  0  0  0  0  0  0  0  0  0
    0.9460   62.5170   73.8640 C   0  0  0  0  0  0  0  0  0  0  0  0
    2.4540   62.3300   73.7310 C   0  0  0  0  0  0  0  0  0  0  0  0
    2.7410   61.3530   72.6440 N   0  0  0  0  0  4  0  0  0  0  0  0
    2.5590   60.0390   72.9300 C   0  0  0  0  0  0  0  0  0  0  0  0
    2.7700   59.0490   71.9870 C   0  0  0  0  0  0  0  0  0  0  0  0
    3.1810   59.4070   70.7160 C   0  0  0  0  0  0  0  0  0  0  0  0
    3.3830   60.7510   70.4060 C   0  0  0  0  0  0  0  0  0  0  0  0
    3.1610   61.7490   71.3990 C   0  0  0  0  0  0  0  0  0  0  0  0
    3.3920   63.0920   71.0480 C   0  0  0  0  0  0  0  0  0  0  0  0
    3.8170   63.4420   69.7620 C   0  0  0  0  0  0  0  0  0  0  0  0
    4.0200   62.4580   68.8010 C   0  0  0  0  0  0  0  0  0  0  0  0
    3.8070   61.1200   69.1210 C   0  0  0  0  0  0  0  0  0  0  0  0
    0.9443   65.4785   71.8570 H   0  0  0  0  0  0  0  0  0  0  0  0
   -0.5836   65.9250   70.9969 H   0  0  0  0  0  0  0  0  0  0  0  0
    1.9284   66.8876   70.3731 H   0  0  0  0  0  0  0  0  0  0  0  0
    1.7290   65.5084   69.2107 H   0  0  0  0  0  0  0  0  0  0  0  0
   -0.6416   66.5711   68.8012 H   0  0  0  0  0  0  0  0  0  0  0  0
    0.1415   68.0593   69.4724 H   0  0  0  0  0  0  0  0  0  0  0  0
    1.9540   66.8962   67.5838 H   0  0  0  0  0  0  0  0  0  0  0  0
    0.3134   66.9723   66.8206 H   0  0  0  0  0  0  0  0  0  0  0  0
    0.3504   69.2259   66.6830 H   0  0  0  0  0  0  0  0  0  0  0  0
    1.0544   69.4083   68.3272 H   0  0  0  0  0  0  0  0  0  0  0  0
    1.7894   68.3714   64.9105 H   0  0  0  0  0  0  0  0  0  0  0  0
    3.9270   68.7751   63.7298 H   0  0  0  0  0  0  0  0  0  0  0  0
    5.8390   69.7930   64.9647 H   0  0  0  0  0  0  0  0  0  0  0  0
    2.4605   69.8441   69.3852 H   0  0  0  0  0  0  0  0  0  0  0  0
    4.3836   70.8470   70.6011 H   0  0  0  0  0  0  0  0  0  0  0  0
    6.5297   71.2761   69.4185 H   0  0  0  0  0  0  0  0  0  0  0  0
    6.7641   70.6890   67.0122 H   0  0  0  0  0  0  0  0  0  0  0  0
   -0.5733   63.9563   69.6998 H   0  0  0  0  0  0  0  0  0  0  0  0
    1.1699   63.6255   70.0840 H   0  0  0  0  0  0  0  0  0  0  0  0
   -1.3022   63.0990   71.7249 H   0  0  0  0  0  0  0  0  0  0  0  0
    0.1730   62.0879   71.4664 H   0  0  0  0  0  0  0  0  0  0  0  0
    1.2039   64.3192   72.7226 H   0  0  0  0  0  0  0  0  0  0  0  0
   -0.4313   64.1033   73.5142 H   0  0  0  0  0  0  0  0  0  0  0  0
    0.7172   62.7725   74.9092 H   0  0  0  0  0  0  0  0  0  0  0  0
    0.4732   61.5736   73.5535 H   0  0  0  0  0  0  0  0  0  0  0  0
    2.9229   63.2952   73.4892 H   0  0  0  0  0  0  0  0  0  0  0  0
    2.8608   61.9512   74.6802 H   0  0  0  0  0  0  0  0  0  0  0  0
    2.2342   59.7527   73.9412 H   0  0  0  0  0  0  0  0  0  0  0  0
    2.6130   57.9912   72.2447 H   0  0  0  0  0  0  0  0  0  0  0  0
    3.3480   58.6335   69.9519 H   0  0  0  0  0  0  0  0  0  0  0  0
    3.2355   63.8809   71.7984 H   0  0  0  0  0  0  0  0  0  0  0  0
    3.9911   64.4986   69.5104 H   0  0  0  0  0  0  0  0  0  0  0  0
    4.3486   62.7364   67.7888 H   0  0  0  0  0  0  0  0  0  0  0  0
    3.9729   60.3446   68.3586 H   0  0  0  0  0  0  0  0  0  0  0  0
  2  1  1  0
  3  2  1  0
  4  3  1  0
  5  4  1  0
  6  5  1  0
  7  6  2  0
  8  7  1  0
  9  8  2  0
 10  9  1  0
 11 10  2  0
 11  6  1  0
 12 11  1  0
 13 12  2  0
 14 13  1  0
 15 10  1  0
 15 14  2  0
 16  1  1  0
 17 16  1  0
 18 17  1  0
 19 18  1  0
 20 19  1  0
 21 20  1  0
 22 21  2  0
 23 22  1  0
 24 23  2  0
 25 24  1  0
 26 25  2  0
 26 21  1  0
 27 26  1  0
 28 27  2  0
 29 28  1  0
 30 29  2  0
 30 25  1  0
  1 31  1  0
  1 32  1  0
  2 33  1  0
  2 34  1  0
  3 35  1  0
  3 36  1  0
  4 37  1  0
  4 38  1  0
  5 39  1  0
  5 40  1  0
  7 41  1  0
  8 42  1  0
  9 43  1  0
 12 44  1  0
 13 45  1  0
 14 46  1  0
 15 47  1  0
 16 48  1  0
 16 49  1  0
 17 50  1  0
 17 51  1  0
 18 52  1  0
 18 53  1  0
 19 54  1  0
 19 55  1  0
 20 56  1  0
 20 57  1  0
 22 58  1  0
 23 59  1  0
 24 60  1  0
 27 61  1  0
 28 62  1  0
 29 63  1  0
 30 64  1  0
M  CHG  2   6   1  21   1
M  END
>  <score>  (1) 
-10.371

$$$$
=
     RDKit          3D

 64 67  0  0  0  0  0  0  0  0999 V2000
    0.1580   64.1240   70.6030 C   0  0  0  0  0  0  0  0  0  0  0  0
    1.4400   63.3520   70.2760 C   0  0  0  0  0  0  0  0  0  0  0  0
    2.6950   64.1760   70.5760 C   0  0  0  0  0  0  0  0  0  0  0  0
    3.9600   63.4660   70.0850 C   0  0  0  0  0  0  0  0  0  0  0  0
    4.5750   62.6000   71.1810 C   0  0  0  0  0  0  0  0  0  0  0  0
    4.0690   61.2040   71.0590 N   0  0  0  0  0  4  0  0  0  0  0  0
    4.0670   60.6550   69.8170 C   0  0  0  0  0  0  0  0  0  0  0  0
    3.6410   59.3580   69.5930 C   0  0  0  0  0  0  0  0  0  0  0  0
    3.2040   58.5980   70.6620 C   0  0  0  0  0  0  0  0  0  0  0  0
    3.1950   59.1480   71.9430 C   0  0  0  0  0  0  0  0  0  0  0  0
    3.6360   60.4860   72.1450 C   0  0  0  0  0  0  0  0  0  0  0  0
    3.5990   61.0030   73.4540 C   0  0  0  0  0  0  0  0  0  0  0  0
    3.1500   60.2270   74.5270 C   0  0  0  0  0  0  0  0  0  0  0  0
    2.7290   58.9200   74.3160 C   0  0  0  0  0  0  0  0  0  0  0  0
    2.7480   58.3820   73.0310 C   0  0  0  0  0  0  0  0  0  0  0  0
    0.4430   65.6170   70.7890 C   0  0  0  0  0  0  0  0  0  0  0  0
   -0.0080   66.4450   69.5800 C   0  0  0  0  0  0  0  0  0  0  0  0
    1.1810   67.1580   68.9310 C   0  0  0  0  0  0  0  0  0  0  0  0
    0.8730   67.7460   67.5510 C   0  0  0  0  0  0  0  0  0  0  0  0
    1.2300   69.2240   67.4290 C   0  0  0  0  0  0  0  0  0  0  0  0
    2.5840   69.3620   66.8240 N   0  0  0  0  0  4  0  0  0  0  0  0
    2.7160   69.0180   65.5190 C   0  0  0  0  0  0  0  0  0  0  0  0
    3.9220   69.1320   64.8500 C   0  0  0  0  0  0  0  0  0  0  0  0
    5.0270   69.6090   65.5310 C   0  0  0  0  0  0  0  0  0  0  0  0
    4.9130   69.9590   66.8760 C   0  0  0  0  0  0  0  0  0  0  0  0
    3.6600   69.8270   67.5400 C   0  0  0  0  0  0  0  0  0  0  0  0
    3.5940   70.1770   68.9020 C   0  0  0  0  0  0  0  0  0  0  0  0
    4.7200   70.6490   69.5830 C   0  0  0  0  0  0  0  0  0  0  0  0
    5.9350   70.7800   68.9200 C   0  0  0  0  0  0  0  0  0  0  0  0
    6.0320   70.4360   67.5740 C   0  0  0  0  0  0  0  0  0  0  0  0
   -0.5585   63.9955   69.7783 H   0  0  0  0  0  0  0  0  0  0  0  0
   -0.2567   63.7289   71.5421 H   0  0  0  0  0  0  0  0  0  0  0  0
    1.4654   62.4328   70.8797 H   0  0  0  0  0  0  0  0  0  0  0  0
    1.4334   63.1202   69.2007 H   0  0  0  0  0  0  0  0  0  0  0  0
    2.6126   65.1501   70.0717 H   0  0  0  0  0  0  0  0  0  0  0  0
    2.7716   64.3059   71.6656 H   0  0  0  0  0  0  0  0  0  0  0  0
    3.7017   62.8275   69.2273 H   0  0  0  0  0  0  0  0  0  0  0  0
    4.6955   64.2310   69.7954 H   0  0  0  0  0  0  0  0  0  0  0  0
    5.6702   62.6026   71.0781 H   0  0  0  0  0  0  0  0  0  0  0  0
    4.2963   63.0045   72.1652 H   0  0  0  0  0  0  0  0  0  0  0  0
    4.4138   61.2584   68.9652 H   0  0  0  0  0  0  0  0  0  0  0  0
    3.6499   58.9366   68.5769 H   0  0  0  0  0  0  0  0  0  0  0  0
    2.8649   57.5638   70.5025 H   0  0  0  0  0  0  0  0  0  0  0  0
    3.9294   62.0363   73.6359 H   0  0  0  0  0  0  0  0  0  0  0  0
    3.1301   60.6526   75.5411 H   0  0  0  0  0  0  0  0  0  0  0  0
    2.3809   58.3104   75.1629 H   0  0  0  0  0  0  0  0  0  0  0  0
    2.4098   57.3481   72.8677 H   0  0  0  0  0  0  0  0  0  0  0  0
   -0.0928   65.9719   71.6818 H   0  0  0  0  0  0  0  0  0  0  0  0
    1.5301   65.7432   70.8996 H   0  0  0  0  0  0  0  0  0  0  0  0
   -0.4749   65.7777   68.8406 H   0  0  0  0  0  0  0  0  0  0  0  0
   -0.7277   67.2031   69.9224 H   0  0  0  0  0  0  0  0  0  0  0  0
    1.4978   67.9768   69.5937 H   0  0  0  0  0  0  0  0  0  0  0  0
    1.9676   66.4025   68.7882 H   0  0  0  0  0  0  0  0  0  0  0  0
    1.4458   67.1856   66.7974 H   0  0  0  0  0  0  0  0  0  0  0  0
   -0.2127   67.6603   67.3964 H   0  0  0  0  0  0  0  0  0  0  0  0
    0.4902   69.7279   66.7897 H   0  0  0  0  0  0  0  0  0  0  0  0
    1.2273   69.6844   68.4280 H   0  0  0  0  0  0  0  0  0  0  0  0
    1.8384   68.6370   64.9761 H   0  0  0  0  0  0  0  0  0  0  0  0
    4.0006   68.8469   63.7905 H   0  0  0  0  0  0  0  0  0  0  0  0
    5.9923   69.7120   65.0137 H   0  0  0  0  0  0  0  0  0  0  0  0
    2.6396   70.0773   69.4398 H   0  0  0  0  0  0  0  0  0  0  0  0
    4.6444   70.9177   70.6470 H   0  0  0  0  0  0  0  0  0  0  0  0
    6.8184   71.1548   69.4578 H   0  0  0  0  0  0  0  0  0  0  0  0
    6.9955   70.5394   67.0534 H   0  0  0  0  0  0  0  0  0  0  0  0
  2  1  1  0
  3  2  1  0
  4  3  1  0
  5  4  1  0
  6  5  1  0
  7  6  2  0
  8  7  1  0
  9  8  2  0
 10  9  1  0
 11 10  2  0
 11  6  1  0
 12 11  1  0
 13 12  2  0
 14 13  1  0
 15 10  1  0
 15 14  2  0
 16  1  1  0
 17 16  1  0
 18 17  1  0
 19 18  1  0
 20 19  1  0
 21 20  1  0
 22 21  2  0
 23 22  1  0
 24 23  2  0
 25 24  1  0
 26 25  2  0
 26 21  1  0
 27 26  1  0
 28 27  2  0
 29 28  1  0
 30 29  2  0
 30 25  1  0
  1 31  1  0
  1 32  1  0
  2 33  1  0
  2 34  1  0
  3 35  1  0
  3 36  1  0
  4 37  1  0
  4 38  1  0
  5 39  1  0
  5 40  1  0
  7 41  1  0
  8 42  1  0
  9 43  1  0
 12 44  1  0
 13 45  1  0
 14 46  1  0
 15 47  1  0
 16 48  1  0
 16 49  1  0
 17 50  1  0
 17 51  1  0
 18 52  1  0
 18 53  1  0
 19 54  1  0
 19 55  1  0
 20 56  1  0
 20 57  1  0
 22 58  1  0
 23 59  1  0
 24 60  1  0
 27 61  1  0
 28 62  1  0
 29 63  1  0
 30 64  1  0
M  CHG  2   6   1  21   1
M  END
>  <score>  (2) 
-10.31

$$$$
=
     RDKit          3D

 64 67  0  0  0  0  0  0  0  0999 V2000
    0.1430   63.8840   71.0070 C   0  0  0  0  0  0  0  0  0  0  0  0
    0.0450   63.3740   72.4480 C   0  0  0  0  0  0  0  0  0  0  0  0
   -0.2440   61.8700   72.5020 C   0  0  0  0  0  0  0  0  0  0  0  0
    0.4750   61.2060   73.6810 C   0  0  0  0  0  0  0  0  0  0  0  0
    1.9860   61.4030   73.5960 C   0  0  0  0  0  0  0  0  0  0  0  0
    2.5240   60.6590   72.4220 N   0  0  0  0  0  4  0  0  0  0  0  0
    2.4470   59.3040   72.4650 C   0  0  0  0  0  0  0  0  0  0  0  0
    2.8940   58.5150   71.4200 C   0  0  0  0  0  0  0  0  0  0  0  0
    3.4340   59.1210   70.3000 C   0  0  0  0  0  0  0  0  0  0  0  0
    3.5240   60.5110   70.2420 C   0  0  0  0  0  0  0  0  0  0  0  0
    3.0590   61.2980   71.3340 C   0  0  0  0  0  0  0  0  0  0  0  0
    3.1800   62.6980   71.2360 C   0  0  0  0  0  0  0  0  0  0  0  0
    3.7320   63.3000   70.1010 C   0  0  0  0  0  0  0  0  0  0  0  0
    4.1760   62.5190   69.0420 C   0  0  0  0  0  0  0  0  0  0  0  0
    4.0750   61.1320   69.1110 C   0  0  0  0  0  0  0  0  0  0  0  0
    0.5770   65.3520   70.9680 C   0  0  0  0  0  0  0  0  0  0  0  0
    0.0160   66.0860   69.7440 C   0  0  0  0  0  0  0  0  0  0  0  0
    1.0440   67.0670   69.1760 C   0  0  0  0  0  0  0  0  0  0  0  0
    0.6600   67.6470   67.8110 C   0  0  0  0  0  0  0  0  0  0  0  0
    1.0260   69.1190   67.6540 C   0  0  0  0  0  0  0  0  0  0  0  0
    2.3190   69.2370   66.9250 N   0  0  0  0  0  4  0  0  0  0  0  0
    2.3360   68.8390   65.6280 C   0  0  0  0  0  0  0  0  0  0  0  0
    3.4760   68.9290   64.8490 C   0  0  0  0  0  0  0  0  0  0  0  0
    4.6340   69.4390   65.4080 C   0  0  0  0  0  0  0  0  0  0  0  0
    4.6390   69.8440   66.7420 C   0  0  0  0  0  0  0  0  0  0  0  0
    3.4510   69.7360   67.5210 C   0  0  0  0  0  0  0  0  0  0  0  0
    3.5050   70.1430   68.8670 C   0  0  0  0  0  0  0  0  0  0  0  0
    4.6840   70.6480   69.4250 C   0  0  0  0  0  0  0  0  0  0  0  0
    5.8330   70.7560   68.6500 C   0  0  0  0  0  0  0  0  0  0  0  0
    5.8120   70.3550   67.3160 C   0  0  0  0  0  0  0  0  0  0  0  0
    0.8802   63.2772   70.4609 H   0  0  0  0  0  0  0  0  0  0  0  0
   -0.8494   63.8014   70.5398 H   0  0  0  0  0  0  0  0  0  0  0  0
    0.9976   63.5720   72.9611 H   0  0  0  0  0  0  0  0  0  0  0  0
   -0.7865   63.8994   72.9404 H   0  0  0  0  0  0  0  0  0  0  0  0
   -1.3278   61.7173   72.6115 H   0  0  0  0  0  0  0  0  0  0  0  0
    0.1218   61.4129   71.5707 H   0  0  0  0  0  0  0  0  0  0  0  0
    0.1087   61.6492   74.6188 H   0  0  0  0  0  0  0  0  0  0  0  0
    0.2649   60.1267   73.6504 H   0  0  0  0  0  0  0  0  0  0  0  0
    2.2094   62.4742   73.4838 H   0  0  0  0  0  0  0  0  0  0  0  0
    2.4554   61.0222   74.5151 H   0  0  0  0  0  0  0  0  0  0  0  0
    2.0176   58.8205   73.3548 H   0  0  0  0  0  0  0  0  0  0  0  0
    2.8208   57.4190   71.4792 H   0  0  0  0  0  0  0  0  0  0  0  0
    3.7909   58.5088   69.4587 H   0  0  0  0  0  0  0  0  0  0  0  0
    2.8339   63.3293   72.0676 H   0  0  0  0  0  0  0  0  0  0  0  0
    3.8148   64.3955   70.0468 H   0  0  0  0  0  0  0  0  0  0  0  0
    4.6071   62.9958   68.1494 H   0  0  0  0  0  0  0  0  0  0  0  0
    4.4306   60.5174   68.2709 H   0  0  0  0  0  0  0  0  0  0  0  0
    0.2163   65.8530   71.8784 H   0  0  0  0  0  0  0  0  0  0  0  0
    1.6749   65.3796   70.9063 H   0  0  0  0  0  0  0  0  0  0  0  0
   -0.2440   65.3488   68.9701 H   0  0  0  0  0  0  0  0  0  0  0  0
   -0.8760   66.6513   70.0519 H   0  0  0  0  0  0  0  0  0  0  0  0
    1.1580   67.8992   69.8863 H   0  0  0  0  0  0  0  0  0  0  0  0
    1.9778   66.5036   69.0324 H   0  0  0  0  0  0  0  0  0  0  0  0
    1.1797   67.0732   67.0296 H   0  0  0  0  0  0  0  0  0  0  0  0
   -0.4340   67.5731   67.7228 H   0  0  0  0  0  0  0  0  0  0  0  0
    0.2371   69.6338   67.0860 H   0  0  0  0  0  0  0  0  0  0  0  0
    1.1238   69.5793   68.6483 H   0  0  0  0  0  0  0  0  0  0  0  0
    1.4160   68.4326   65.1825 H   0  0  0  0  0  0  0  0  0  0  0  0
    3.4616   68.5995   63.7996 H   0  0  0  0  0  0  0  0  0  0  0  0
    5.5480   69.5247   64.8019 H   0  0  0  0  0  0  0  0  0  0  0  0
    2.6033   70.0625   69.4919 H   0  0  0  0  0  0  0  0  0  0  0  0
    4.7021   70.9604   70.4795 H   0  0  0  0  0  0  0  0  0  0  0  0
    6.7579   71.1577   69.0896 H   0  0  0  0  0  0  0  0  0  0  0  0
    6.7242   70.4400   66.7072 H   0  0  0  0  0  0  0  0  0  0  0  0
  2  1  1  0
  3  2  1  0
  4  3  1  0
  5  4  1  0
  6  5  1  0
  7  6  2  0
  8  7  1  0
  9  8  2  0
 10  9  1  0
 11 10  2  0
 11  6  1  0
 12 11  1  0
 13 12  2  0
 14 13  1  0
 15 10  1  0
 15 14  2  0
 16  1  1  0
 17 16  1  0
 18 17  1  0
 19 18  1  0
 20 19  1  0
 21 20  1  0
 22 21  2  0
 23 22  1  0
 24 23  2  0
 25 24  1  0
 26 25  2  0
 26 21  1  0
 27 26  1  0
 28 27  2  0
 29 28  1  0
 30 29  2  0
 30 25  1  0
  1 31  1  0
  1 32  1  0
  2 33  1  0
  2 34  1  0
  3 35  1  0
  3 36  1  0
  4 37  1  0
  4 38  1  0
  5 39  1  0
  5 40  1  0
  7 41  1  0
  8 42  1  0
  9 43  1  0
 12 44  1  0
 13 45  1  0
 14 46  1  0
 15 47  1  0
 16 48  1  0
 16 49  1  0
 17 50  1  0
 17 51  1  0
 18 52  1  0
 18 53  1  0
 19 54  1  0
 19 55  1  0
 20 56  1  0
 20 57  1  0
 22 58  1  0
 23 59  1  0
 24 60  1  0
 27 61  1  0
 28 62  1  0
 29 63  1  0
 30 64  1  0
M  CHG  2   6   1  21   1
M  END
>  <score>  (3) 
-10.308

$$$$
=
     RDKit          3D

 64 67  0  0  0  0  0  0  0  0999 V2000
    0.4070   66.2560   70.3400 C   0  0  0  0  0  0  0  0  0  0  0  0
   -0.3650   66.1820   69.0190 C   0  0  0  0  0  0  0  0  0  0  0  0
   -0.2310   67.4730   68.2060 C   0  0  0  0  0  0  0  0  0  0  0  0
    1.2150   67.7050   67.7590 C   0  0  0  0  0  0  0  0  0  0  0  0
    1.4440   69.1550   67.3400 C   0  0  0  0  0  0  0  0  0  0  0  0
    2.7600   69.2760   66.6520 N   0  0  0  0  0  4  0  0  0  0  0  0
    2.8150   68.8810   65.3540 C   0  0  0  0  0  0  0  0  0  0  0  0
    3.9790   68.9720   64.6130 C   0  0  0  0  0  0  0  0  0  0  0  0
    5.1200   69.4790   65.2070 C   0  0  0  0  0  0  0  0  0  0  0  0
    5.0820   69.8850   66.5410 C   0  0  0  0  0  0  0  0  0  0  0  0
    3.8710   69.7770   67.2810 C   0  0  0  0  0  0  0  0  0  0  0  0
    3.8820   70.1890   68.6280 C   0  0  0  0  0  0  0  0  0  0  0  0
    5.0430   70.6950   69.2210 C   0  0  0  0  0  0  0  0  0  0  0  0
    6.2150   70.8000   68.4840 C   0  0  0  0  0  0  0  0  0  0  0  0
    6.2370   70.3960   67.1510 C   0  0  0  0  0  0  0  0  0  0  0  0
    1.1830   64.9620   70.6010 C   0  0  0  0  0  0  0  0  0  0  0  0
    0.2610   63.7380   70.6490 C   0  0  0  0  0  0  0  0  0  0  0  0
    0.1710   63.1780   72.0710 C   0  0  0  0  0  0  0  0  0  0  0  0
    1.4190   63.4370   72.9210 C   0  0  0  0  0  0  0  0  0  0  0  0
    2.1170   62.1600   73.3760 C   0  0  0  0  0  0  0  0  0  0  0  0
    2.8200   61.5360   72.2200 N   0  0  0  0  0  4  0  0  0  0  0  0
    3.5360   62.3600   71.4150 C   0  0  0  0  0  0  0  0  0  0  0  0
    4.2490   61.8840   70.3280 C   0  0  0  0  0  0  0  0  0  0  0  0
    4.2310   60.5290   70.0540 C   0  0  0  0  0  0  0  0  0  0  0  0
    3.4930   59.6680   70.8650 C   0  0  0  0  0  0  0  0  0  0  0  0
    2.7660   60.1870   71.9740 C   0  0  0  0  0  0  0  0  0  0  0  0
    2.0220   59.2840   72.7570 C   0  0  0  0  0  0  0  0  0  0  0  0
    2.0040   57.9160   72.4640 C   0  0  0  0  0  0  0  0  0  0  0  0
    2.7260   57.4230   71.3840 C   0  0  0  0  0  0  0  0  0  0  0  0
    3.4660   58.2940   70.5870 C   0  0  0  0  0  0  0  0  0  0  0  0
    1.1154   67.0963   70.2950 H   0  0  0  0  0  0  0  0  0  0  0  0
   -0.3146   66.4004   71.1576 H   0  0  0  0  0  0  0  0  0  0  0  0
    0.0281   65.3446   68.4239 H   0  0  0  0  0  0  0  0  0  0  0  0
   -1.4296   66.0362   69.2541 H   0  0  0  0  0  0  0  0  0  0  0  0
   -0.8738   67.4037   67.3161 H   0  0  0  0  0  0  0  0  0  0  0  0
   -0.5356   68.3163   68.8433 H   0  0  0  0  0  0  0  0  0  0  0  0
    1.8903   67.4627   68.5928 H   0  0  0  0  0  0  0  0  0  0  0  0
    1.4167   67.0587   66.8920 H   0  0  0  0  0  0  0  0  0  0  0  0
    0.6427   69.4687   66.6547 H   0  0  0  0  0  0  0  0  0  0  0  0
    1.4387   69.7978   68.2326 H   0  0  0  0  0  0  0  0  0  0  0  0
    1.9087   68.4775   64.8789 H   0  0  0  0  0  0  0  0  0  0  0  0
    3.9970   68.6448   63.5630 H   0  0  0  0  0  0  0  0  0  0  0  0
    6.0531   69.5618   64.6304 H   0  0  0  0  0  0  0  0  0  0  0  0
    2.9608   70.1113   69.2241 H   0  0  0  0  0  0  0  0  0  0  0  0
    5.0277   71.0108   70.2746 H   0  0  0  0  0  0  0  0  0  0  0  0
    7.1255   71.2019   68.9524 H   0  0  0  0  0  0  0  0  0  0  0  0
    7.1684   70.4785   66.5717 H   0  0  0  0  0  0  0  0  0  0  0  0
    1.9188   64.8208   69.7956 H   0  0  0  0  0  0  0  0  0  0  0  0
    1.6764   65.0538   71.5798 H   0  0  0  0  0  0  0  0  0  0  0  0
   -0.7446   64.0310   70.3129 H   0  0  0  0  0  0  0  0  0  0  0  0
    0.6745   62.9602   69.9902 H   0  0  0  0  0  0  0  0  0  0  0  0
   -0.6915   63.6420   72.5719 H   0  0  0  0  0  0  0  0  0  0  0  0
    0.0691   62.0867   71.9782 H   0  0  0  0  0  0  0  0  0  0  0  0
    2.1294   64.0297   72.3260 H   0  0  0  0  0  0  0  0  0  0  0  0
    1.0908   63.9682   73.8266 H   0  0  0  0  0  0  0  0  0  0  0  0
    2.8478   62.4022   74.1616 H   0  0  0  0  0  0  0  0  0  0  0  0
    1.3700   61.4566   73.7724 H   0  0  0  0  0  0  0  0  0  0  0  0
    3.5506   63.4382   71.6322 H   0  0  0  0  0  0  0  0  0  0  0  0
    4.8218   62.5742   69.6912 H   0  0  0  0  0  0  0  0  0  0  0  0
    4.7972   60.1315   69.1988 H   0  0  0  0  0  0  0  0  0  0  0  0
    1.4447   59.6606   73.6142 H   0  0  0  0  0  0  0  0  0  0  0  0
    1.4165   57.2287   73.0905 H   0  0  0  0  0  0  0  0  0  0  0  0
    2.7134   56.3464   71.1585 H   0  0  0  0  0  0  0  0  0  0  0  0
    4.0344   57.8999   69.7316 H   0  0  0  0  0  0  0  0  0  0  0  0
  2  1  1  0
  3  2  1  0
  4  3  1  0
  5  4  1  0
  6  5  1  0
  7  6  2  0
  8  7  1  0
  9  8  2  0
 10  9  1  0
 11 10  2  0
 11  6  1  0
 12 11  1  0
 13 12  2  0
 14 13  1  0
 15 10  1  0
 15 14  2  0
 16  1  1  0
 17 16  1  0
 18 17  1  0
 19 18  1  0
 20 19  1  0
 21 20  1  0
 22 21  2  0
 23 22  1  0
 24 23  2  0
 25 24  1  0
 26 25  2  0
 26 21  1  0
 27 26  1  0
 28 27  2  0
 29 28  1  0
 30 29  2  0
 30 25  1  0
  1 31  1  0
  1 32  1  0
  2 33  1  0
  2 34  1  0
  3 35  1  0
  3 36  1  0
  4 37  1  0
  4 38  1  0
  5 39  1  0
  5 40  1  0
  7 41  1  0
  8 42  1  0
  9 43  1  0
 12 44  1  0
 13 45  1  0
 14 46  1  0
 15 47  1  0
 16 48  1  0
 16 49  1  0
 17 50  1  0
 17 51  1  0
 18 52  1  0
 18 53  1  0
 19 54  1  0
 19 55  1  0
 20 56  1  0
 20 57  1  0
 22 58  1  0
 23 59  1  0
 24 60  1  0
 27 61  1  0
 28 62  1  0
 29 63  1  0
 30 64  1  0
M  CHG  2   6   1  21   1
M  END
>  <score>  (4) 
-10.244

$$$$
=
     RDKit          3D

 64 67  0  0  0  0  0  0  0  0999 V2000
    0.1530   64.6390   71.4620 C   0  0  0  0  0  0  0  0  0  0  0  0
   -0.3090   63.1820   71.3550 C   0  0  0  0  0  0  0  0  0  0  0  0
    0.1410   62.3510   72.5610 C   0  0  0  0  0  0  0  0  0  0  0  0
    1.2170   63.0800   73.3710 C   0  0  0  0  0  0  0  0  0  0  0  0
    2.4830   62.2370   73.5030 C   0  0  0  0  0  0  0  0  0  0  0  0
    2.9980   61.8900   72.1490 N   0  0  0  0  0  4  0  0  0  0  0  0
    3.4100   62.9190   71.3650 C   0  0  0  0  0  0  0  0  0  0  0  0
    3.9290   62.7100   70.1000 C   0  0  0  0  0  0  0  0  0  0  0  0
    4.0300   61.4170   69.6180 C   0  0  0  0  0  0  0  0  0  0  0  0
    3.6070   60.3500   70.4090 C   0  0  0  0  0  0  0  0  0  0  0  0
    3.0750   60.5950   71.7060 C   0  0  0  0  0  0  0  0  0  0  0  0
    2.6500   59.4870   72.4650 C   0  0  0  0  0  0  0  0  0  0  0  0
    2.7530   58.1850   71.9660 C   0  0  0  0  0  0  0  0  0  0  0  0
    3.2810   57.9610   70.7000 C   0  0  0  0  0  0  0  0  0  0  0  0
    3.7040   59.0370   69.9240 C   0  0  0  0  0  0  0  0  0  0  0  0
    0.7790   65.1190   70.1490 C   0  0  0  0  0  0  0  0  0  0  0  0
    0.1430   66.4220   69.6520 C   0  0  0  0  0  0  0  0  0  0  0  0
    1.1780   67.2970   68.9380 C   0  0  0  0  0  0  0  0  0  0  0  0
    0.7420   67.7600   67.5450 C   0  0  0  0  0  0  0  0  0  0  0  0
    1.0830   69.2200   67.2580 C   0  0  0  0  0  0  0  0  0  0  0  0
    2.4600   69.3090   66.6970 N   0  0  0  0  0  4  0  0  0  0  0  0
    2.6310   68.9120   65.4120 C   0  0  0  0  0  0  0  0  0  0  0  0
    3.8620   68.9770   64.7830 C   0  0  0  0  0  0  0  0  0  0  0  0
    4.9510   69.4610   65.4850 C   0  0  0  0  0  0  0  0  0  0  0  0
    4.7970   69.8650   66.8100 C   0  0  0  0  0  0  0  0  0  0  0  0
    3.5190   69.7830   67.4330 C   0  0  0  0  0  0  0  0  0  0  0  0
    3.4110   70.1870   68.7770 C   0  0  0  0  0  0  0  0  0  0  0  0
    4.5220   70.6660   69.4800 C   0  0  0  0  0  0  0  0  0  0  0  0
    5.7610   70.7490   68.8570 C   0  0  0  0  0  0  0  0  0  0  0  0
    5.8990   70.3500   67.5290 C   0  0  0  0  0  0  0  0  0  0  0  0
   -0.7134   65.2737   71.6996 H   0  0  0  0  0  0  0  0  0  0  0  0
    0.9121   64.7065   72.2552 H   0  0  0  0  0  0  0  0  0  0  0  0
   -1.4073   63.1603   71.2978 H   0  0  0  0  0  0  0  0  0  0  0  0
    0.1433   62.7459   70.4521 H   0  0  0  0  0  0  0  0  0  0  0  0
   -0.7274   62.1609   73.2089 H   0  0  0  0  0  0  0  0  0  0  0  0
    0.5662   61.4062   72.1915 H   0  0  0  0  0  0  0  0  0  0  0  0
    1.4671   64.0243   72.8652 H   0  0  0  0  0  0  0  0  0  0  0  0
    0.8212   63.2698   74.3796 H   0  0  0  0  0  0  0  0  0  0  0  0
    3.2476   62.8084   74.0497 H   0  0  0  0  0  0  0  0  0  0  0  0
    2.2499   61.3128   74.0522 H   0  0  0  0  0  0  0  0  0  0  0  0
    3.3288   63.9476   71.7464 H   0  0  0  0  0  0  0  0  0  0  0  0
    4.2573   63.5609   69.4850 H   0  0  0  0  0  0  0  0  0  0  0  0
    4.4422   61.2319   68.6151 H   0  0  0  0  0  0  0  0  0  0  0  0
    2.2295   59.6491   73.4684 H   0  0  0  0  0  0  0  0  0  0  0  0
    2.4151   57.3352   72.5773 H   0  0  0  0  0  0  0  0  0  0  0  0
    3.3646   56.9352   70.3116 H   0  0  0  0  0  0  0  0  0  0  0  0
    4.1182   58.8559   68.9212 H   0  0  0  0  0  0  0  0  0  0  0  0
    1.8543   65.2871   70.3089 H   0  0  0  0  0  0  0  0  0  0  0  0
    0.6062   64.3445   69.3872 H   0  0  0  0  0  0  0  0  0  0  0  0
   -0.6703   66.1816   68.9515 H   0  0  0  0  0  0  0  0  0  0  0  0
   -0.2478   66.9755   70.5185 H   0  0  0  0  0  0  0  0  0  0  0  0
    1.3649   68.1873   69.5564 H   0  0  0  0  0  0  0  0  0  0  0  0
    2.0791   66.6808   68.8028 H   0  0  0  0  0  0  0  0  0  0  0  0
    1.2439   67.1307   66.7953 H   0  0  0  0  0  0  0  0  0  0  0  0
   -0.3531   67.6669   67.4995 H   0  0  0  0  0  0  0  0  0  0  0  0
    0.3645   69.6281   66.5319 H   0  0  0  0  0  0  0  0  0  0  0  0
    1.0303   69.7985   68.1921 H   0  0  0  0  0  0  0  0  0  0  0  0
    1.7656   68.5268   64.8528 H   0  0  0  0  0  0  0  0  0  0  0  0
    3.9728   68.6483   63.7391 H   0  0  0  0  0  0  0  0  0  0  0  0
    5.9356   69.5269   64.9991 H   0  0  0  0  0  0  0  0  0  0  0  0
    2.4365   70.1251   69.2834 H   0  0  0  0  0  0  0  0  0  0  0  0
    4.4140   70.9778   70.5293 H   0  0  0  0  0  0  0  0  0  0  0  0
    6.6318   71.1291   69.4112 H   0  0  0  0  0  0  0  0  0  0  0  0
    6.8820   70.4161   67.0399 H   0  0  0  0  0  0  0  0  0  0  0  0
  2  1  1  0
  3  2  1  0
  4  3  1  0
  5  4  1  0
  6  5  1  0
  7  6  2  0
  8  7  1  0
  9  8  2  0
 10  9  1  0
 11 10  2  0
 11  6  1  0
 12 11  1  0
 13 12  2  0
 14 13  1  0
 15 10  1  0
 15 14  2  0
 16  1  1  0
 17 16  1  0
 18 17  1  0
 19 18  1  0
 20 19  1  0
 21 20  1  0
 22 21  2  0
 23 22  1  0
 24 23  2  0
 25 24  1  0
 26 25  2  0
 26 21  1  0
 27 26  1  0
 28 27  2  0
 29 28  1  0
 30 29  2  0
 30 25  1  0
  1 31  1  0
  1 32  1  0
  2 33  1  0
  2 34  1  0
  3 35  1  0
  3 36  1  0
  4 37  1  0
  4 38  1  0
  5 39  1  0
  5 40  1  0
  7 41  1  0
  8 42  1  0
  9 43  1  0
 12 44  1  0
 13 45  1  0
 14 46  1  0
 15 47  1  0
 16 48  1  0
 16 49  1  0
 17 50  1  0
 17 51  1  0
 18 52  1  0
 18 53  1  0
 19 54  1  0
 19 55  1  0
 20 56  1  0
 20 57  1  0
 22 58  1  0
 23 59  1  0
 24 60  1  0
 27 61  1  0
 28 62  1  0
 29 63  1  0
 30 64  1  0
M  CHG  2   6   1  21   1
M  END
>  <score>  (5) 
-10.159

$$$$
=
     RDKit          3D

 64 67  0  0  0  0  0  0  0  0999 V2000
    1.0410   66.4700   69.6430 C   0  0  0  0  0  0  0  0  0  0  0  0
    1.3150   65.2130   70.4750 C   0  0  0  0  0  0  0  0  0  0  0  0
    0.2200   64.9690   71.5180 C   0  0  0  0  0  0  0  0  0  0  0  0
    0.1110   63.4840   71.8750 C   0  0  0  0  0  0  0  0  0  0  0  0
    1.0820   63.1040   72.9900 C   0  0  0  0  0  0  0  0  0  0  0  0
    1.5980   61.7260   72.7580 N   0  0  0  0  0  4  0  0  0  0  0  0
    0.7850   60.6970   73.1090 C   0  0  0  0  0  0  0  0  0  0  0  0
    1.1530   59.3780   72.9160 C   0  0  0  0  0  0  0  0  0  0  0  0
    2.3830   59.0970   72.3490 C   0  0  0  0  0  0  0  0  0  0  0  0
    3.2320   60.1420   71.9870 C   0  0  0  0  0  0  0  0  0  0  0  0
    2.8290   61.4900   72.2000 C   0  0  0  0  0  0  0  0  0  0  0  0
    3.7230   62.5130   71.8290 C   0  0  0  0  0  0  0  0  0  0  0  0
    4.9660   62.2170   71.2610 C   0  0  0  0  0  0  0  0  0  0  0  0
    5.3430   60.8960   71.0540 C   0  0  0  0  0  0  0  0  0  0  0  0
    4.4830   59.8630   71.4160 C   0  0  0  0  0  0  0  0  0  0  0  0
   -0.3510   66.4210   69.0080 C   0  0  0  0  0  0  0  0  0  0  0  0
   -0.5760   67.5750   68.0240 C   0  0  0  0  0  0  0  0  0  0  0  0
    0.1510   67.3160   66.7020 C   0  0  0  0  0  0  0  0  0  0  0  0
    0.8670   68.5460   66.1370 C   0  0  0  0  0  0  0  0  0  0  0  0
    1.8060   69.2130   67.1370 C   0  0  0  0  0  0  0  0  0  0  0  0
    3.1530   69.3780   66.5230 N   0  0  0  0  0  4  0  0  0  0  0  0
    3.2850   69.0290   65.2190 C   0  0  0  0  0  0  0  0  0  0  0  0
    4.4840   69.1660   64.5420 C   0  0  0  0  0  0  0  0  0  0  0  0
    5.5820   69.6720   65.2140 C   0  0  0  0  0  0  0  0  0  0  0  0
    5.4680   70.0280   66.5570 C   0  0  0  0  0  0  0  0  0  0  0  0
    4.2220   69.8720   67.2290 C   0  0  0  0  0  0  0  0  0  0  0  0
    4.1560   70.2290   68.5890 C   0  0  0  0  0  0  0  0  0  0  0  0
    5.2760   70.7310   69.2610 C   0  0  0  0  0  0  0  0  0  0  0  0
    6.4830   70.8860   68.5900 C   0  0  0  0  0  0  0  0  0  0  0  0
    6.5800   70.5350   67.2450 C   0  0  0  0  0  0  0  0  0  0  0  0
    1.1070   67.3534   70.2952 H   0  0  0  0  0  0  0  0  0  0  0  0
    1.7891   66.5251   68.8385 H   0  0  0  0  0  0  0  0  0  0  0  0
    1.3647   64.3446   69.8016 H   0  0  0  0  0  0  0  0  0  0  0  0
    2.2669   65.3569   71.0071 H   0  0  0  0  0  0  0  0  0  0  0  0
    0.4585   65.5394   72.4278 H   0  0  0  0  0  0  0  0  0  0  0  0
   -0.7413   65.2951   71.0942 H   0  0  0  0  0  0  0  0  0  0  0  0
   -0.9158   63.2706   72.2070 H   0  0  0  0  0  0  0  0  0  0  0  0
    0.3640   62.8947   70.9813 H   0  0  0  0  0  0  0  0  0  0  0  0
    1.9232   63.8127   72.9996 H   0  0  0  0  0  0  0  0  0  0  0  0
    0.5585   63.1391   73.9568 H   0  0  0  0  0  0  0  0  0  0  0  0
   -0.1938   60.9186   73.5595 H   0  0  0  0  0  0  0  0  0  0  0  0
    0.4759   58.5624   73.2098 H   0  0  0  0  0  0  0  0  0  0  0  0
    2.6900   58.0536   72.1844 H   0  0  0  0  0  0  0  0  0  0  0  0
    3.4384   63.5635   71.9889 H   0  0  0  0  0  0  0  0  0  0  0  0
    5.6474   63.0326   70.9772 H   0  0  0  0  0  0  0  0  0  0  0  0
    6.3203   60.6665   70.6044 H   0  0  0  0  0  0  0  0  0  0  0  0
    4.7869   58.8185   71.2529 H   0  0  0  0  0  0  0  0  0  0  0  0
   -0.4619   65.4685   68.4691 H   0  0  0  0  0  0  0  0  0  0  0  0
   -1.0946   66.5123   69.8135 H   0  0  0  0  0  0  0  0  0  0  0  0
   -1.6537   67.6764   67.8284 H   0  0  0  0  0  0  0  0  0  0  0  0
   -0.1774   68.4987   68.4689 H   0  0  0  0  0  0  0  0  0  0  0  0
    0.8980   66.5254   66.8665 H   0  0  0  0  0  0  0  0  0  0  0  0
   -0.6150   67.0266   65.9674 H   0  0  0  0  0  0  0  0  0  0  0  0
    1.4547   68.2354   65.2605 H   0  0  0  0  0  0  0  0  0  0  0  0
    0.0920   69.2825   65.8782 H   0  0  0  0  0  0  0  0  0  0  0  0
    1.4060   70.1998   67.4131 H   0  0  0  0  0  0  0  0  0  0  0  0
    1.8885   68.5849   68.0362 H   0  0  0  0  0  0  0  0  0  0  0  0
    2.4130   68.6251   64.6837 H   0  0  0  0  0  0  0  0  0  0  0  0
    4.5629   68.8764   63.4837 H   0  0  0  0  0  0  0  0  0  0  0  0
    6.5418   69.7931   64.6905 H   0  0  0  0  0  0  0  0  0  0  0  0
    3.2073   70.1113   69.1331 H   0  0  0  0  0  0  0  0  0  0  0  0
    5.2008   71.0038   70.3240 H   0  0  0  0  0  0  0  0  0  0  0  0
    7.3605   71.2852   69.1198 H   0  0  0  0  0  0  0  0  0  0  0  0
    7.5378   70.6567   66.7179 H   0  0  0  0  0  0  0  0  0  0  0  0
  2  1  1  0
  3  2  1  0
  4  3  1  0
  5  4  1  0
  6  5  1  0
  7  6  2  0
  8  7  1  0
  9  8  2  0
 10  9  1  0
 11 10  2  0
 11  6  1  0
 12 11  1  0
 13 12  2  0
 14 13  1  0
 15 10  1  0
 15 14  2  0
 16  1  1  0
 17 16  1  0
 18 17  1  0
 19 18  1  0
 20 19  1  0
 21 20  1  0
 22 21  2  0
 23 22  1  0
 24 23  2  0
 25 24  1  0
 26 25  2  0
 26 21  1  0
 27 26  1  0
 28 27  2  0
 29 28  1  0
 30 29  2  0
 30 25  1  0
  1 31  1  0
  1 32  1  0
  2 33  1  0
  2 34  1  0
  3 35  1  0
  3 36  1  0
  4 37  1  0
  4 38  1  0
  5 39  1  0
  5 40  1  0
  7 41  1  0
  8 42  1  0
  9 43  1  0
 12 44  1  0
 13 45  1  0
 14 46  1  0
 15 47  1  0
 16 48  1  0
 16 49  1  0
 17 50  1  0
 17 51  1  0
 18 52  1  0
 18 53  1  0
 19 54  1  0
 19 55  1  0
 20 56  1  0
 20 57  1  0
 22 58  1  0
 23 59  1  0
 24 60  1  0
 27 61  1  0
 28 62  1  0
 29 63  1  0
 30 64  1  0
M  CHG  2   6   1  21   1
M  END
>  <score>  (6) 
-9.977

$$$$
=
     RDKit          3D

 64 67  0  0  0  0  0  0  0  0999 V2000
   -0.6320   67.1890   67.4970 C   0  0  0  0  0  0  0  0  0  0  0  0
   -0.3560   66.6310   68.8960 C   0  0  0  0  0  0  0  0  0  0  0  0
    1.1000   66.8460   69.3190 C   0  0  0  0  0  0  0  0  0  0  0  0
    1.5670   65.7560   70.2890 C   0  0  0  0  0  0  0  0  0  0  0  0
    0.5910   64.5830   70.3220 C   0  0  0  0  0  0  0  0  0  0  0  0
    1.3250   63.3290   70.6510 N   0  0  0  0  0  4  0  0  0  0  0  0
    2.5490   63.1660   70.0870 C   0  0  0  0  0  0  0  0  0  0  0  0
    3.3270   62.0510   70.3430 C   0  0  0  0  0  0  0  0  0  0  0  0
    2.8470   61.0740   71.1960 C   0  0  0  0  0  0  0  0  0  0  0  0
    1.5900   61.2240   71.7790 C   0  0  0  0  0  0  0  0  0  0  0  0
    0.8090   62.3800   71.4960 C   0  0  0  0  0  0  0  0  0  0  0  0
   -0.4590   62.4840   72.0990 C   0  0  0  0  0  0  0  0  0  0  0  0
   -0.9370   61.4880   72.9570 C   0  0  0  0  0  0  0  0  0  0  0  0
   -0.1610   60.3680   73.2280 C   0  0  0  0  0  0  0  0  0  0  0  0
    1.0950   60.2340   72.6420 C   0  0  0  0  0  0  0  0  0  0  0  0
    0.6450   67.2210   66.6520 C   0  0  0  0  0  0  0  0  0  0  0  0
    0.5020   68.1340   65.4280 C   0  0  0  0  0  0  0  0  0  0  0  0
    1.7650   68.0930   64.5650 C   0  0  0  0  0  0  0  0  0  0  0  0
    3.0630   67.9810   65.3700 C   0  0  0  0  0  0  0  0  0  0  0  0
    3.8340   69.2940   65.4620 C   0  0  0  0  0  0  0  0  0  0  0  0
    3.8650   69.7560   66.8790 N   0  0  0  0  0  4  0  0  0  0  0  0
    2.6800   69.8040   67.5390 C   0  0  0  0  0  0  0  0  0  0  0  0
    2.5970   70.1920   68.8640 C   0  0  0  0  0  0  0  0  0  0  0  0
    3.7530   70.5430   69.5370 C   0  0  0  0  0  0  0  0  0  0  0  0
    4.9780   70.5080   68.8730 C   0  0  0  0  0  0  0  0  0  0  0  0
    5.0340   70.1080   67.5070 C   0  0  0  0  0  0  0  0  0  0  0  0
    6.2890   70.1030   66.8710 C   0  0  0  0  0  0  0  0  0  0  0  0
    7.4510   70.4680   67.5580 C   0  0  0  0  0  0  0  0  0  0  0  0
    7.3830   70.8480   68.8940 C   0  0  0  0  0  0  0  0  0  0  0  0
    6.1530   70.8700   69.5480 C   0  0  0  0  0  0  0  0  0  0  0  0
   -1.3771   66.5525   66.9973 H   0  0  0  0  0  0  0  0  0  0  0  0
   -1.0076   68.2178   67.6000 H   0  0  0  0  0  0  0  0  0  0  0  0
   -1.0144   67.1373   69.6172 H   0  0  0  0  0  0  0  0  0  0  0  0
   -0.5489   65.5482   68.8756 H   0  0  0  0  0  0  0  0  0  0  0  0
    1.7393   66.8265   68.4241 H   0  0  0  0  0  0  0  0  0  0  0  0
    1.1724   67.8178   69.8293 H   0  0  0  0  0  0  0  0  0  0  0  0
    2.5541   65.3911   69.9687 H   0  0  0  0  0  0  0  0  0  0  0  0
    1.6195   66.1906   71.2981 H   0  0  0  0  0  0  0  0  0  0  0  0
   -0.1777   64.7682   71.0867 H   0  0  0  0  0  0  0  0  0  0  0  0
    0.1136   64.4781   69.3366 H   0  0  0  0  0  0  0  0  0  0  0  0
    2.9327   63.9416   69.4079 H   0  0  0  0  0  0  0  0  0  0  0  0
    4.3159   61.9428   69.8735 H   0  0  0  0  0  0  0  0  0  0  0  0
    3.4543   60.1829   71.4133 H   0  0  0  0  0  0  0  0  0  0  0  0
   -1.0851   63.3644   71.8917 H   0  0  0  0  0  0  0  0  0  0  0  0
   -1.9301   61.5919   73.4184 H   0  0  0  0  0  0  0  0  0  0  0  0
   -0.5385   59.5876   73.9051 H   0  0  0  0  0  0  0  0  0  0  0  0
    1.7048   59.3442   72.8574 H   0  0  0  0  0  0  0  0  0  0  0  0
    1.4736   67.5892   67.2747 H   0  0  0  0  0  0  0  0  0  0  0  0
    0.8401   66.1998   66.2928 H   0  0  0  0  0  0  0  0  0  0  0  0
   -0.3559   67.7985   64.8268 H   0  0  0  0  0  0  0  0  0  0  0  0
    0.3476   69.1661   65.7758 H   0  0  0  0  0  0  0  0  0  0  0  0
    1.6977   67.2242   63.8936 H   0  0  0  0  0  0  0  0  0  0  0  0
    1.8094   69.0466   64.0184 H   0  0  0  0  0  0  0  0  0  0  0  0
    2.8138   67.6508   66.3893 H   0  0  0  0  0  0  0  0  0  0  0  0
    3.7090   67.2611   64.8460 H   0  0  0  0  0  0  0  0  0  0  0  0
    4.8628   69.1405   65.1041 H   0  0  0  0  0  0  0  0  0  0  0  0
    3.3380   70.0539   64.8402 H   0  0  0  0  0  0  0  0  0  0  0  0
    1.7593   69.5264   67.0049 H   0  0  0  0  0  0  0  0  0  0  0  0
    1.6238   70.2210   69.3760 H   0  0  0  0  0  0  0  0  0  0  0  0
    3.7059   70.8487   70.5926 H   0  0  0  0  0  0  0  0  0  0  0  0
    6.3574   69.8065   65.8139 H   0  0  0  0  0  0  0  0  0  0  0  0
    8.4214   70.4545   67.0403 H   0  0  0  0  0  0  0  0  0  0  0  0
    8.2989   71.1308   69.4336 H   0  0  0  0  0  0  0  0  0  0  0  0
    6.1029   71.1742   70.6039 H   0  0  0  0  0  0  0  0  0  0  0  0
  2  1  1  0
  3  2  1  0
  4  3  1  0
  5  4  1  0
  6  5  1  0
  7  6  2  0
  8  7  1  0
  9  8  2  0
 10  9  1  0
 11 10  2  0
 11  6  1  0
 12 11  1  0
 13 12  2  0
 14 13  1  0
 15 10  1  0
 15 14  2  0
 16  1  1  0
 17 16  1  0
 18 17  1  0
 19 18  1  0
 20 19  1  0
 21 20  1  0
 22 21  2  0
 23 22  1  0
 24 23  2  0
 25 24  1  0
 26 25  2  0
 26 21  1  0
 27 26  1  0
 28 27  2  0
 29 28  1  0
 30 29  2  0
 30 25  1  0
  1 31  1  0
  1 32  1  0
  2 33  1  0
  2 34  1  0
  3 35  1  0
  3 36  1  0
  4 37  1  0
  4 38  1  0
  5 39  1  0
  5 40  1  0
  7 41  1  0
  8 42  1  0
  9 43  1  0
 12 44  1  0
 13 45  1  0
 14 46  1  0
 15 47  1  0
 16 48  1  0
 16 49  1  0
 17 50  1  0
 17 51  1  0
 18 52  1  0
 18 53  1  0
 19 54  1  0
 19 55  1  0
 20 56  1  0
 20 57  1  0
 22 58  1  0
 23 59  1  0
 24 60  1  0
 27 61  1  0
 28 62  1  0
 29 63  1  0
 30 64  1  0
M  CHG  2   6   1  21   1
M  END
>  <score>  (7) 
-9.721

$$$$
=
     RDKit          3D

 64 67  0  0  0  0  0  0  0  0999 V2000
   -0.3810   66.2220   69.6510 C   0  0  0  0  0  0  0  0  0  0  0  0
    0.7520   65.5970   70.4710 C   0  0  0  0  0  0  0  0  0  0  0  0
    0.2380   64.9760   71.7740 C   0  0  0  0  0  0  0  0  0  0  0  0
    0.3850   63.4510   71.7610 C   0  0  0  0  0  0  0  0  0  0  0  0
    1.7310   63.0160   72.3340 C   0  0  0  0  0  0  0  0  0  0  0  0
    2.4970   62.2650   71.3000 N   0  0  0  0  0  4  0  0  0  0  0  0
    3.0720   62.9940   70.3100 C   0  0  0  0  0  0  0  0  0  0  0  0
    3.8250   62.4020   69.3120 C   0  0  0  0  0  0  0  0  0  0  0  0
    3.9980   61.0300   69.3210 C   0  0  0  0  0  0  0  0  0  0  0  0
    3.4090   60.2660   70.3280 C   0  0  0  0  0  0  0  0  0  0  0  0
    2.6370   60.9010   71.3410 C   0  0  0  0  0  0  0  0  0  0  0  0
    2.0530   60.0900   72.3320 C   0  0  0  0  0  0  0  0  0  0  0  0
    2.2290   58.7020   72.3290 C   0  0  0  0  0  0  0  0  0  0  0  0
    2.9910   58.0970   71.3380 C   0  0  0  0  0  0  0  0  0  0  0  0
    3.5770   58.8730   70.3410 C   0  0  0  0  0  0  0  0  0  0  0  0
    0.1680   67.0180   68.4640 C   0  0  0  0  0  0  0  0  0  0  0  0
   -0.8930   67.2400   67.3790 C   0  0  0  0  0  0  0  0  0  0  0  0
   -0.9450   68.7110   66.9590 C   0  0  0  0  0  0  0  0  0  0  0  0
   -0.1090   69.0310   65.7160 C   0  0  0  0  0  0  0  0  0  0  0  0
    0.9800   68.0000   65.4370 C   0  0  0  0  0  0  0  0  0  0  0  0
    2.3190   68.6400   65.5750 N   0  0  0  0  0  4  0  0  0  0  0  0
    2.6640   69.0910   66.8070 C   0  0  0  0  0  0  0  0  0  0  0  0
    3.8930   69.6770   67.0540 C   0  0  0  0  0  0  0  0  0  0  0  0
    4.7960   69.8090   66.0150 C   0  0  0  0  0  0  0  0  0  0  0  0
    4.4560   69.3590   64.7400 C   0  0  0  0  0  0  0  0  0  0  0  0
    3.1820   68.7630   64.5150 C   0  0  0  0  0  0  0  0  0  0  0  0
    2.8740   68.3370   63.2090 C   0  0  0  0  0  0  0  0  0  0  0  0
    3.7920   68.4840   62.1640 C   0  0  0  0  0  0  0  0  0  0  0  0
    5.0350   69.0590   62.4010 C   0  0  0  0  0  0  0  0  0  0  0  0
    5.3650   69.4960   63.6810 C   0  0  0  0  0  0  0  0  0  0  0  0
   -1.0350   65.4217   69.2745 H   0  0  0  0  0  0  0  0  0  0  0  0
   -0.9430   66.9090   70.3008 H   0  0  0  0  0  0  0  0  0  0  0  0
    1.2356   64.8130   69.8698 H   0  0  0  0  0  0  0  0  0  0  0  0
    1.4648   66.3935   70.7306 H   0  0  0  0  0  0  0  0  0  0  0  0
    0.8146   65.3842   72.6171 H   0  0  0  0  0  0  0  0  0  0  0  0
   -0.8295   65.2206   71.8772 H   0  0  0  0  0  0  0  0  0  0  0  0
   -0.4208   63.0087   72.3651 H   0  0  0  0  0  0  0  0  0  0  0  0
    0.3253   63.1065   70.7180 H   0  0  0  0  0  0  0  0  0  0  0  0
    2.3029   63.9046   72.6394 H   0  0  0  0  0  0  0  0  0  0  0  0
    1.5634   62.3673   73.2064 H   0  0  0  0  0  0  0  0  0  0  0  0
    2.9355   64.0855   70.3010 H   0  0  0  0  0  0  0  0  0  0  0  0
    4.2807   63.0153   68.5207 H   0  0  0  0  0  0  0  0  0  0  0  0
    4.5975   60.5435   68.5374 H   0  0  0  0  0  0  0  0  0  0  0  0
    1.4472   60.5558   73.1232 H   0  0  0  0  0  0  0  0  0  0  0  0
    1.7626   58.0883   73.1137 H   0  0  0  0  0  0  0  0  0  0  0  0
    3.1316   57.0060   71.3405 H   0  0  0  0  0  0  0  0  0  0  0  0
    4.1772   58.3893   69.5563 H   0  0  0  0  0  0  0  0  0  0  0  0
    0.5173   67.9969   68.8243 H   0  0  0  0  0  0  0  0  0  0  0  0
    0.9915   66.4396   68.0197 H   0  0  0  0  0  0  0  0  0  0  0  0
   -0.6459   66.6236   66.5021 H   0  0  0  0  0  0  0  0  0  0  0  0
   -1.8752   66.9552   67.7843 H   0  0  0  0  0  0  0  0  0  0  0  0
   -1.9922   68.9746   66.7495 H   0  0  0  0  0  0  0  0  0  0  0  0
   -0.5205   69.2954   67.7887 H   0  0  0  0  0  0  0  0  0  0  0  0
   -0.7803   69.0734   64.8456 H   0  0  0  0  0  0  0  0  0  0  0  0
    0.3931   69.9921   65.9008 H   0  0  0  0  0  0  0  0  0  0  0  0
    0.8937   67.1721   66.1561 H   0  0  0  0  0  0  0  0  0  0  0  0
    0.8634   67.6119   64.4144 H   0  0  0  0  0  0  0  0  0  0  0  0
    1.9458   68.9879   67.6338 H   0  0  0  0  0  0  0  0  0  0  0  0
    4.1482   70.0330   68.0630 H   0  0  0  0  0  0  0  0  0  0  0  0
    5.7796   70.2677   66.1940 H   0  0  0  0  0  0  0  0  0  0  0  0
    1.8939   67.8804   63.0068 H   0  0  0  0  0  0  0  0  0  0  0  0
    3.5294   68.1435   61.1515 H   0  0  0  0  0  0  0  0  0  0  0  0
    5.7570   69.1686   61.5784 H   0  0  0  0  0  0  0  0  0  0  0  0
    6.3486   69.9533   63.8635 H   0  0  0  0  0  0  0  0  0  0  0  0
  2  1  1  0
  3  2  1  0
  4  3  1  0
  5  4  1  0
  6  5  1  0
  7  6  2  0
  8  7  1  0
  9  8  2  0
 10  9  1  0
 11 10  2  0
 11  6  1  0
 12 11  1  0
 13 12  2  0
 14 13  1  0
 15 10  1  0
 15 14  2  0
 16  1  1  0
 17 16  1  0
 18 17  1  0
 19 18  1  0
 20 19  1  0
 21 20  1  0
 22 21  2  0
 23 22  1  0
 24 23  2  0
 25 24  1  0
 26 25  2  0
 26 21  1  0
 27 26  1  0
 28 27  2  0
 29 28  1  0
 30 29  2  0
 30 25  1  0
  1 31  1  0
  1 32  1  0
  2 33  1  0
  2 34  1  0
  3 35  1  0
  3 36  1  0
  4 37  1  0
  4 38  1  0
  5 39  1  0
  5 40  1  0
  7 41  1  0
  8 42  1  0
  9 43  1  0
 12 44  1  0
 13 45  1  0
 14 46  1  0
 15 47  1  0
 16 48  1  0
 16 49  1  0
 17 50  1  0
 17 51  1  0
 18 52  1  0
 18 53  1  0
 19 54  1  0
 19 55  1  0
 20 56  1  0
 20 57  1  0
 22 58  1  0
 23 59  1  0
 24 60  1  0
 27 61  1  0
 28 62  1  0
 29 63  1  0
 30 64  1  0
M  CHG  2   6   1  21   1
M  END
>  <score>  (8) 
-9.605

$$$$
=
     RDKit          3D

 64 67  0  0  0  0  0  0  0  0999 V2000
   -0.7300   67.2010   67.2230 C   0  0  0  0  0  0  0  0  0  0  0  0
   -0.5300   66.7030   68.6580 C   0  0  0  0  0  0  0  0  0  0  0  0
    0.8700   67.0330   69.1870 C   0  0  0  0  0  0  0  0  0  0  0  0
    1.3160   66.0260   70.2520 C   0  0  0  0  0  0  0  0  0  0  0  0
    0.4170   64.7920   70.2650 C   0  0  0  0  0  0  0  0  0  0  0  0
    1.0090   63.7510   71.1510 N   0  0  0  0  0  4  0  0  0  0  0  0
    0.4910   63.6400   72.4010 C   0  0  0  0  0  0  0  0  0  0  0  0
    0.9490   62.6910   73.2980 C   0  0  0  0  0  0  0  0  0  0  0  0
    1.9610   61.8310   72.9130 C   0  0  0  0  0  0  0  0  0  0  0  0
    2.5070   61.9350   71.6340 C   0  0  0  0  0  0  0  0  0  0  0  0
    2.0190   62.9230   70.7330 C   0  0  0  0  0  0  0  0  0  0  0  0
    2.6070   62.9980   69.4550 C   0  0  0  0  0  0  0  0  0  0  0  0
    3.6340   62.1270   69.0780 C   0  0  0  0  0  0  0  0  0  0  0  0
    4.0950   61.1640   69.9670 C   0  0  0  0  0  0  0  0  0  0  0  0
    3.5370   61.0690   71.2390 C   0  0  0  0  0  0  0  0  0  0  0  0
    0.6080   67.3200   66.4870 C   0  0  0  0  0  0  0  0  0  0  0  0
    0.5190   68.2630   65.2820 C   0  0  0  0  0  0  0  0  0  0  0  0
    1.8050   68.2130   64.4530 C   0  0  0  0  0  0  0  0  0  0  0  0
    3.0760   68.0430   65.2900 C   0  0  0  0  0  0  0  0  0  0  0  0
    3.8920   69.3260   65.4210 C   0  0  0  0  0  0  0  0  0  0  0  0
    3.8940   69.7720   66.8420 N   0  0  0  0  0  4  0  0  0  0  0  0
    2.6970   69.8170   67.4780 C   0  0  0  0  0  0  0  0  0  0  0  0
    2.5870   70.1910   68.8060 C   0  0  0  0  0  0  0  0  0  0  0  0
    3.7300   70.5310   69.5060 C   0  0  0  0  0  0  0  0  0  0  0  0
    4.9680   70.5000   68.8670 C   0  0  0  0  0  0  0  0  0  0  0  0
    5.0510   70.1150   67.4980 C   0  0  0  0  0  0  0  0  0  0  0  0
    6.3190   70.1120   66.8880 C   0  0  0  0  0  0  0  0  0  0  0  0
    7.4680   70.4670   67.6030 C   0  0  0  0  0  0  0  0  0  0  0  0
    7.3730   70.8320   68.9410 C   0  0  0  0  0  0  0  0  0  0  0  0
    6.1300   70.8500   69.5700 C   0  0  0  0  0  0  0  0  0  0  0  0
   -1.3746   66.4915   66.6834 H   0  0  0  0  0  0  0  0  0  0  0  0
   -1.1964   68.1965   67.2614 H   0  0  0  0  0  0  0  0  0  0  0  0
   -1.2777   67.1811   69.3079 H   0  0  0  0  0  0  0  0  0  0  0  0
   -0.6458   65.6091   68.6587 H   0  0  0  0  0  0  0  0  0  0  0  0
    1.5837   67.0090   68.3503 H   0  0  0  0  0  0  0  0  0  0  0  0
    0.8404   68.0323   69.6458 H   0  0  0  0  0  0  0  0  0  0  0  0
    2.3489   65.7137   70.0387 H   0  0  0  0  0  0  0  0  0  0  0  0
    1.2499   66.5121   71.2365 H   0  0  0  0  0  0  0  0  0  0  0  0
   -0.5791   65.0689   70.6406 H   0  0  0  0  0  0  0  0  0  0  0  0
    0.3282   64.3943   69.2433 H   0  0  0  0  0  0  0  0  0  0  0  0
   -0.3145   64.3228   72.7091 H   0  0  0  0  0  0  0  0  0  0  0  0
    0.5131   62.6216   74.3055 H   0  0  0  0  0  0  0  0  0  0  0  0
    2.3337   61.0682   73.6125 H   0  0  0  0  0  0  0  0  0  0  0  0
    2.2518   63.7554   68.7407 H   0  0  0  0  0  0  0  0  0  0  0  0
    4.0782   62.2045   68.0746 H   0  0  0  0  0  0  0  0  0  0  0  0
    4.9000   60.4773   69.6662 H   0  0  0  0  0  0  0  0  0  0  0  0
    3.9076   60.3074   71.9409 H   0  0  0  0  0  0  0  0  0  0  0  0
    1.3644   67.7070   67.1857 H   0  0  0  0  0  0  0  0  0  0  0  0
    0.8821   66.3210   66.1170 H   0  0  0  0  0  0  0  0  0  0  0  0
   -0.3289   67.9606   64.6499 H   0  0  0  0  0  0  0  0  0  0  0  0
    0.3774   69.2902   65.6493 H   0  0  0  0  0  0  0  0  0  0  0  0
    1.7343   67.3661   63.7546 H   0  0  0  0  0  0  0  0  0  0  0  0
    1.8898   69.1803   63.9362 H   0  0  0  0  0  0  0  0  0  0  0  0
    2.7878   67.7088   66.2976 H   0  0  0  0  0  0  0  0  0  0  0  0
    3.7092   67.3070   64.7728 H   0  0  0  0  0  0  0  0  0  0  0  0
    4.9255   69.1378   65.0946 H   0  0  0  0  0  0  0  0  0  0  0  0
    3.4450   70.1099   64.7920 H   0  0  0  0  0  0  0  0  0  0  0  0
    1.7867   69.5483   66.9220 H   0  0  0  0  0  0  0  0  0  0  0  0
    1.6035   70.2174   69.2980 H   0  0  0  0  0  0  0  0  0  0  0  0
    3.6623   70.8250   70.5638 H   0  0  0  0  0  0  0  0  0  0  0  0
    6.4085   69.8253   65.8298 H   0  0  0  0  0  0  0  0  0  0  0  0
    8.4489   70.4573   67.1052 H   0  0  0  0  0  0  0  0  0  0  0  0
    8.2782   71.1063   69.5025 H   0  0  0  0  0  0  0  0  0  0  0  0
    6.0593   71.1416   70.6283 H   0  0  0  0  0  0  0  0  0  0  0  0
  2  1  1  0
  3  2  1  0
  4  3  1  0
  5  4  1  0
  6  5  1  0
  7  6  2  0
  8  7  1  0
  9  8  2  0
 10  9  1  0
 11 10  2  0
 11  6  1  0
 12 11  1  0
 13 12  2  0
 14 13  1  0
 15 10  1  0
 15 14  2  0
 16  1  1  0
 17 16  1  0
 18 17  1  0
 19 18  1  0
 20 19  1  0
 21 20  1  0
 22 21  2  0
 23 22  1  0
 24 23  2  0
 25 24  1  0
 26 25  2  0
 26 21  1  0
 27 26  1  0
 28 27  2  0
 29 28  1  0
 30 29  2  0
 30 25  1  0
  1 31  1  0
  1 32  1  0
  2 33  1  0
  2 34  1  0
  3 35  1  0
  3 36  1  0
  4 37  1  0
  4 38  1  0
  5 39  1  0
  5 40  1  0
  7 41  1  0
  8 42  1  0
  9 43  1  0
 12 44  1  0
 13 45  1  0
 14 46  1  0
 15 47  1  0
 16 48  1  0
 16 49  1  0
 17 50  1  0
 17 51  1  0
 18 52  1  0
 18 53  1  0
 19 54  1  0
 19 55  1  0
 20 56  1  0
 20 57  1  0
 22 58  1  0
 23 59  1  0
 24 60  1  0
 27 61  1  0
 28 62  1  0
 29 63  1  0
 30 64  1  0
M  CHG  2   6   1  21   1
M  END
>  <score>  (9) 
-9.486

$$$$
