=
     RDKit          3D

 43 45  0  0  0  0  0  0  0  0999 V2000
    1.5260   67.6710   69.8870 O   0  0  0  0  0  0  0  0  0  0  0  0
    1.2440   66.8610   69.0190 C   0  0  0  0  0  0  0  0  0  0  0  0
    0.9770   67.2260   67.7060 N   0  0  0  0  0  0  0  0  0  0  0  0
    1.1530   65.4950   69.2070 N   0  0  0  0  0  0  0  0  0  0  0  0
    1.3800   64.9280   70.4720 N   0  0  0  0  0  0  0  0  0  0  0  0
    0.1140   64.5530   71.1700 C   0  0  0  0  0  0  0  0  0  0  0  0
    0.2450   63.0590   71.3200 C   0  0  1  0  0  0  0  0  0  0  0  0
    1.7350   62.9110   71.5510 C   0  0  2  0  0  0  0  0  0  0  0  0
    2.2720   63.7380   70.4130 C   0  0  0  0  0  0  0  0  0  0  0  0
    1.8760   61.4120   71.6700 C   0  0  0  0  0  0  0  0  0  0  0  0
    0.6300   61.0330   72.5070 C   0  0  0  0  0  0  0  0  0  0  0  0
   -0.3230   62.2530   72.4630 C   0  0  0  0  0  0  0  0  0  0  0  0
    0.9330   68.7850   67.1410 S   0  0  0  0  0  6  0  0  0  0  0  0
    0.1350   69.6010   68.0260 O   0  0  0  0  0  0  0  0  0  0  0  0
    0.5770   68.6580   65.7400 O   0  0  0  0  0  0  0  0  0  0  0  0
    2.6250   69.3110   67.2090 C   0  0  0  0  0  0  0  0  0  0  0  0
    3.4550   69.1110   66.1030 C   0  0  0  0  0  0  0  0  0  0  0  0
    4.7780   69.5570   66.1430 C   0  0  0  0  0  0  0  0  0  0  0  0
    5.2690   70.2220   67.2760 C   0  0  0  0  0  0  0  0  0  0  0  0
    4.4230   70.4180   68.3770 C   0  0  0  0  0  0  0  0  0  0  0  0
    3.1000   69.9770   68.3410 C   0  0  0  0  0  0  0  0  0  0  0  0
    6.7000   70.6710   67.3330 C   0  0  0  0  0  0  0  0  0  0  0  0
    0.7920   66.4704   67.0309 H   0  0  0  0  0  0  0  0  0  0  0  0
    0.9161   64.8859   68.4109 H   0  0  0  0  0  0  0  0  0  0  0  0
    0.0419   65.0449   72.1513 H   0  0  0  0  0  0  0  0  0  0  0  0
   -0.7910   64.8581   70.6241 H   0  0  0  0  0  0  0  0  0  0  0  0
   -0.3118   62.6741   70.4529 H   0  0  0  0  0  0  0  0  0  0  0  0
    2.2966   63.2748   72.4241 H   0  0  0  0  0  0  0  0  0  0  0  0
    2.1773   63.2108   69.4522 H   0  0  0  0  0  0  0  0  0  0  0  0
    3.3435   63.9734   70.4933 H   0  0  0  0  0  0  0  0  0  0  0  0
    1.8547   60.9295   70.6817 H   0  0  0  0  0  0  0  0  0  0  0  0
    2.8263   61.0919   72.1222 H   0  0  0  0  0  0  0  0  0  0  0  0
    0.1364   60.1505   72.0740 H   0  0  0  0  0  0  0  0  0  0  0  0
    0.9087   60.7855   73.5419 H   0  0  0  0  0  0  0  0  0  0  0  0
   -1.3583   61.9434   72.2572 H   0  0  0  0  0  0  0  0  0  0  0  0
   -0.3753   62.8074   73.4116 H   0  0  0  0  0  0  0  0  0  0  0  0
    3.0687   68.6052   65.2058 H   0  0  0  0  0  0  0  0  0  0  0  0
    5.4389   69.3856   65.2805 H   0  0  0  0  0  0  0  0  0  0  0  0
    4.8055   70.9234   69.2760 H   0  0  0  0  0  0  0  0  0  0  0  0
    2.4348   70.1528   69.1992 H   0  0  0  0  0  0  0  0  0  0  0  0
    7.0120   70.7689   68.3833 H   0  0  0  0  0  0  0  0  0  0  0  0
    7.3373   69.9296   66.8288 H   0  0  0  0  0  0  0  0  0  0  0  0
    6.7995   71.6435   66.8288 H   0  0  0  0  0  0  0  0  0  0  0  0
  2  1  2  0
  3  2  1  0
  4  2  1  0
  5  4  1  0
  6  5  1  0
  7  6  1  0
  8  7  1  0
  9  5  1  0
  9  8  1  0
 10  8  1  0
 11 10  1  0
 12 11  1  0
 12  7  1  0
 13  3  1  0
 14 13  2  0
 15 13  2  0
 16 13  1  0
 17 16  2  0
 18 17  1  0
 19 18  2  0
 20 19  1  0
 21 20  2  0
 21 16  1  0
 22 19  1  0
  3 23  1  0
  4 24  1  0
  6 25  1  0
  6 26  1  0
  7 27  1  6
  8 28  1  1
  9 29  1  0
  9 30  1  0
 10 31  1  0
 10 32  1  0
 11 33  1  0
 11 34  1  0
 12 35  1  0
 12 36  1  0
 17 37  1  0
 18 38  1  0
 20 39  1  0
 21 40  1  0
 22 41  1  0
 22 42  1  0
 22 43  1  0
M  END
>  <score>  (1) 
-9.907

$$$$
=
     RDKit          3D

 43 45  0  0  0  0  0  0  0  0999 V2000
   -0.9390   66.3760   68.6950 O   0  0  0  0  0  0  0  0  0  0  0  0
    0.2780   66.3830   68.7750 C   0  0  0  0  0  0  0  0  0  0  0  0
    1.0770   67.2610   68.0550 N   0  0  0  0  0  0  0  0  0  0  0  0
    1.0260   65.5410   69.5760 N   0  0  0  0  0  0  0  0  0  0  0  0
    0.4010   64.5710   70.3780 N   0  0  0  0  0  0  0  0  0  0  0  0
    1.0770   63.2410   70.3060 C   0  0  0  0  0  0  0  0  0  0  0  0
    1.5340   63.0210   71.7260 C   0  0  1  0  0  0  0  0  0  0  0  0
    0.4030   63.6590   72.5060 C   0  0  2  0  0  0  0  0  0  0  0  0
    0.3010   64.9870   71.8040 C   0  0  0  0  0  0  0  0  0  0  0  0
    0.8720   63.4690   73.9290 C   0  0  0  0  0  0  0  0  0  0  0  0
    1.4580   62.0360   73.8900 C   0  0  0  0  0  0  0  0  0  0  0  0
    1.6460   61.6730   72.3970 C   0  0  0  0  0  0  0  0  0  0  0  0
    0.5200   68.3650   66.9490 S   0  0  0  0  0  6  0  0  0  0  0  0
    0.0720   69.5570   67.6330 O   0  0  0  0  0  0  0  0  0  0  0  0
   -0.3940   67.6140   66.1090 O   0  0  0  0  0  0  0  0  0  0  0  0
    1.9470   68.7430   65.9670 C   0  0  0  0  0  0  0  0  0  0  0  0
    3.1030   69.2260   66.5860 C   0  0  0  0  0  0  0  0  0  0  0  0
    4.2380   69.4900   65.8170 C   0  0  0  0  0  0  0  0  0  0  0  0
    4.2310   69.2540   64.4350 C   0  0  0  0  0  0  0  0  0  0  0  0
    3.0650   68.7670   63.8280 C   0  0  0  0  0  0  0  0  0  0  0  0
    1.9280   68.4980   64.5920 C   0  0  0  0  0  0  0  0  0  0  0  0
    5.4390   69.5720   63.6040 C   0  0  0  0  0  0  0  0  0  0  0  0
    2.0930   67.2241   68.2201 H   0  0  0  0  0  0  0  0  0  0  0  0
    2.0525   65.6254   69.5852 H   0  0  0  0  0  0  0  0  0  0  0  0
    0.3743   62.4560   69.9898 H   0  0  0  0  0  0  0  0  0  0  0  0
    1.8979   63.2088   69.5745 H   0  0  0  0  0  0  0  0  0  0  0  0
    2.5772   63.3693   71.7072 H   0  0  0  0  0  0  0  0  0  0  0  0
   -0.6382   63.3064   72.5470 H   0  0  0  0  0  0  0  0  0  0  0  0
    1.1265   65.6567   72.0870 H   0  0  0  0  0  0  0  0  0  0  0  0
   -0.6095   65.5554   72.0449 H   0  0  0  0  0  0  0  0  0  0  0  0
    1.6415   64.2077   74.1976 H   0  0  0  0  0  0  0  0  0  0  0  0
    0.0773   63.6015   74.6779 H   0  0  0  0  0  0  0  0  0  0  0  0
    2.4259   62.0079   74.4118 H   0  0  0  0  0  0  0  0  0  0  0  0
    0.7882   61.3208   74.3899 H   0  0  0  0  0  0  0  0  0  0  0  0
    2.6316   61.2187   72.2178 H   0  0  0  0  0  0  0  0  0  0  0  0
    0.9207   60.9334   72.0271 H   0  0  0  0  0  0  0  0  0  0  0  0
    3.1186   69.3972   67.6725 H   0  0  0  0  0  0  0  0  0  0  0  0
    5.1441   69.8860   66.2988 H   0  0  0  0  0  0  0  0  0  0  0  0
    3.0458   68.5955   62.7416 H   0  0  0  0  0  0  0  0  0  0  0  0
    1.0227   68.0956   64.1141 H   0  0  0  0  0  0  0  0  0  0  0  0
    6.2897   69.7959   64.2644 H   0  0  0  0  0  0  0  0  0  0  0  0
    5.6851   68.7080   62.9692 H   0  0  0  0  0  0  0  0  0  0  0  0
    5.2278   70.4452   62.9692 H   0  0  0  0  0  0  0  0  0  0  0  0
  2  1  2  0
  3  2  1  0
  4  2  1  0
  5  4  1  0
  6  5  1  0
  7  6  1  0
  8  7  1  0
  9  5  1  0
  9  8  1  0
 10  8  1  0
 11 10  1  0
 12 11  1  0
 12  7  1  0
 13  3  1  0
 14 13  2  0
 15 13  2  0
 16 13  1  0
 17 16  2  0
 18 17  1  0
 19 18  2  0
 20 19  1  0
 21 20  2  0
 21 16  1  0
 22 19  1  0
  3 23  1  0
  4 24  1  0
  6 25  1  0
  6 26  1  0
  7 27  1  6
  8 28  1  1
  9 29  1  0
  9 30  1  0
 10 31  1  0
 10 32  1  0
 11 33  1  0
 11 34  1  0
 12 35  1  0
 12 36  1  0
 17 37  1  0
 18 38  1  0
 20 39  1  0
 21 40  1  0
 22 41  1  0
 22 42  1  0
 22 43  1  0
M  END
>  <score>  (2) 
-9.741

$$$$
=
     RDKit          3D

 43 45  0  0  0  0  0  0  0  0999 V2000
    2.7200   58.5930   71.1670 O   0  0  0  0  0  0  0  0  0  0  0  0
    2.9970   58.6950   72.3510 C   0  0  0  0  0  0  0  0  0  0  0  0
    3.8660   59.6610   72.8410 N   0  0  0  0  0  0  0  0  0  0  0  0
    2.4980   57.8880   73.3560 N   0  0  0  0  0  0  0  0  0  0  0  0
    1.6060   56.8440   73.0600 N   0  0  0  0  0  0  0  0  0  0  0  0
    2.0380   55.5370   73.6400 C   0  0  0  0  0  0  0  0  0  0  0  0
    0.9160   55.2050   74.5900 C   0  0  1  0  0  0  0  0  0  0  0  0
   -0.2820   55.7540   73.8420 C   0  0  2  0  0  0  0  0  0  0  0  0
    0.2160   57.1350   73.5060 C   0  0  0  0  0  0  0  0  0  0  0  0
   -1.4040   55.4530   74.8060 C   0  0  0  0  0  0  0  0  0  0  0  0
   -1.0280   54.0390   75.3130 C   0  0  0  0  0  0  0  0  0  0  0  0
    0.4530   53.8080   74.9240 C   0  0  0  0  0  0  0  0  0  0  0  0
    4.6970   60.7540   71.9110 S   0  0  0  0  0  6  0  0  0  0  0  0
    5.1250   60.1240   70.6830 O   0  0  0  0  0  0  0  0  0  0  0  0
    5.6710   61.3400   72.8130 O   0  0  0  0  0  0  0  0  0  0  0  0
    3.4950   62.0070   71.5490 C   0  0  0  0  0  0  0  0  0  0  0  0
    2.3680   62.1380   72.3650 C   0  0  0  0  0  0  0  0  0  0  0  0
    1.4400   63.1470   72.1010 C   0  0  0  0  0  0  0  0  0  0  0  0
    1.6430   64.0400   71.0390 C   0  0  0  0  0  0  0  0  0  0  0  0
    2.7800   63.8970   70.2310 C   0  0  0  0  0  0  0  0  0  0  0  0
    3.7130   62.8920   70.4920 C   0  0  0  0  0  0  0  0  0  0  0  0
    0.6280   65.1020   70.7340 C   0  0  0  0  0  0  0  0  0  0  0  0
    4.0052   59.7018   73.8607 H   0  0  0  0  0  0  0  0  0  0  0  0
    2.7830   58.0538   74.3318 H   0  0  0  0  0  0  0  0  0  0  0  0
    2.1351   54.7694   72.8581 H   0  0  0  0  0  0  0  0  0  0  0  0
    3.0227   55.5819   74.1283 H   0  0  0  0  0  0  0  0  0  0  0  0
    1.2936   55.5721   75.5557 H   0  0  0  0  0  0  0  0  0  0  0  0
   -0.6793   55.3806   72.8866 H   0  0  0  0  0  0  0  0  0  0  0  0
    0.2055   57.7924   74.3879 H   0  0  0  0  0  0  0  0  0  0  0  0
   -0.3946   57.6647   72.7600 H   0  0  0  0  0  0  0  0  0  0  0  0
   -1.4267   56.1798   75.6313 H   0  0  0  0  0  0  0  0  0  0  0  0
   -2.4040   55.5079   74.3511 H   0  0  0  0  0  0  0  0  0  0  0  0
   -1.1465   53.9836   76.4052 H   0  0  0  0  0  0  0  0  0  0  0  0
   -1.6790   53.2722   74.8678 H   0  0  0  0  0  0  0  0  0  0  0  0
    1.0254   53.3883   75.7644 H   0  0  0  0  0  0  0  0  0  0  0  0
    0.5869   53.0898   74.1016 H   0  0  0  0  0  0  0  0  0  0  0  0
    2.2132   61.4506   73.2097 H   0  0  0  0  0  0  0  0  0  0  0  0
    0.5430   63.2422   72.7306 H   0  0  0  0  0  0  0  0  0  0  0  0
    2.9380   64.5820   69.3850 H   0  0  0  0  0  0  0  0  0  0  0  0
    4.6144   62.7981   69.8685 H   0  0  0  0  0  0  0  0  0  0  0  0
    0.2343   65.5139   71.6749 H   0  0  0  0  0  0  0  0  0  0  0  0
    1.1021   65.9059   70.1517 H   0  0  0  0  0  0  0  0  0  0  0  0
   -0.1965   64.6648   70.1517 H   0  0  0  0  0  0  0  0  0  0  0  0
  2  1  2  0
  3  2  1  0
  4  2  1  0
  5  4  1  0
  6  5  1  0
  7  6  1  0
  8  7  1  0
  9  5  1  0
  9  8  1  0
 10  8  1  0
 11 10  1  0
 12 11  1  0
 12  7  1  0
 13  3  1  0
 14 13  2  0
 15 13  2  0
 16 13  1  0
 17 16  2  0
 18 17  1  0
 19 18  2  0
 20 19  1  0
 21 20  2  0
 21 16  1  0
 22 19  1  0
  3 23  1  0
  4 24  1  0
  6 25  1  0
  6 26  1  0
  7 27  1  1
  8 28  1  6
  9 29  1  0
  9 30  1  0
 10 31  1  0
 10 32  1  0
 11 33  1  0
 11 34  1  0
 12 35  1  0
 12 36  1  0
 17 37  1  0
 18 38  1  0
 20 39  1  0
 21 40  1  0
 22 41  1  0
 22 42  1  0
 22 43  1  0
M  END
>  <score>  (3) 
-7.966

$$$$
=
     RDKit          3D

 43 45  0  0  0  0  0  0  0  0999 V2000
    3.6430   69.0550   65.6130 O   0  0  0  0  0  0  0  0  0  0  0  0
    4.6870   69.0020   64.9830 C   0  0  0  0  0  0  0  0  0  0  0  0
    4.8770   68.1400   63.9110 N   0  0  0  0  0  0  0  0  0  0  0  0
    5.8070   69.7720   65.2340 N   0  0  0  0  0  0  0  0  0  0  0  0
    5.8160   70.7020   66.2870 N   0  0  0  0  0  0  0  0  0  0  0  0
    4.8560   70.3490   67.3750 C   0  0  0  0  0  0  0  0  0  0  0  0
    5.7600   70.1410   68.5640 C   0  0  1  0  0  0  0  0  0  0  0  0
    6.8300   71.1840   68.3120 C   0  0  2  0  0  0  0  0  0  0  0  0
    7.1700   70.8850   66.8760 C   0  0  0  0  0  0  0  0  0  0  0  0
    7.7550   70.9570   69.4840 C   0  0  0  0  0  0  0  0  0  0  0  0
    6.7580   70.7190   70.6450 C   0  0  0  0  0  0  0  0  0  0  0  0
    5.3820   70.4310   69.9960 C   0  0  0  0  0  0  0  0  0  0  0  0
    3.7690   67.0280   63.3750 S   0  0  0  0  0  6  0  0  0  0  0  0
    3.3700   66.1720   64.4690 O   0  0  0  0  0  0  0  0  0  0  0  0
    4.3650   66.4610   62.1800 O   0  0  0  0  0  0  0  0  0  0  0  0
    2.3900   68.0150   62.8580 C   0  0  0  0  0  0  0  0  0  0  0  0
    2.4580   68.7190   61.6520 C   0  0  0  0  0  0  0  0  0  0  0  0
    1.3590   69.4680   61.2280 C   0  0  0  0  0  0  0  0  0  0  0  0
    0.1840   69.5000   61.9910 C   0  0  0  0  0  0  0  0  0  0  0  0
    0.1290   68.7880   63.1970 C   0  0  0  0  0  0  0  0  0  0  0  0
    1.2240   68.0350   63.6250 C   0  0  0  0  0  0  0  0  0  0  0  0
   -0.9850   70.3330   61.5520 C   0  0  0  0  0  0  0  0  0  0  0  0
    5.7753   68.1954   63.4100 H   0  0  0  0  0  0  0  0  0  0  0  0
    6.6435   69.6629   64.6431 H   0  0  0  0  0  0  0  0  0  0  0  0
    4.1445   71.1680   67.5567 H   0  0  0  0  0  0  0  0  0  0  0  0
    4.2359   69.4712   67.1407 H   0  0  0  0  0  0  0  0  0  0  0  0
    5.9138   69.0518   68.5703 H   0  0  0  0  0  0  0  0  0  0  0  0
    6.6909   72.2751   68.3240 H   0  0  0  0  0  0  0  0  0  0  0  0
    7.7745   69.9702   66.7875 H   0  0  0  0  0  0  0  0  0  0  0  0
    7.7732   71.6628   66.3849 H   0  0  0  0  0  0  0  0  0  0  0  0
    8.3960   70.0779   69.3220 H   0  0  0  0  0  0  0  0  0  0  0  0
    8.4526   71.7883   69.6639 H   0  0  0  0  0  0  0  0  0  0  0  0
    7.0793   69.8587   71.2506 H   0  0  0  0  0  0  0  0  0  0  0  0
    6.7073   71.5942   71.3094 H   0  0  0  0  0  0  0  0  0  0  0  0
    4.8943   69.5629   70.4635 H   0  0  0  0  0  0  0  0  0  0  0  0
    4.6613   71.2549   70.1045 H   0  0  0  0  0  0  0  0  0  0  0  0
    3.3720   68.6829   61.0410 H   0  0  0  0  0  0  0  0  0  0  0  0
    1.4157   70.0371   60.2884 H   0  0  0  0  0  0  0  0  0  0  0  0
   -0.7833   68.8227   63.8106 H   0  0  0  0  0  0  0  0  0  0  0  0
    1.1681   67.4607   64.5615 H   0  0  0  0  0  0  0  0  0  0  0  0
   -1.5176   70.7125   62.4365 H   0  0  0  0  0  0  0  0  0  0  0  0
   -0.6258   71.1799   60.9489 H   0  0  0  0  0  0  0  0  0  0  0  0
   -1.6683   69.7170   60.9489 H   0  0  0  0  0  0  0  0  0  0  0  0
  2  1  2  0
  3  2  1  0
  4  2  1  0
  5  4  1  0
  6  5  1  0
  7  6  1  0
  8  7  1  0
  9  5  1  0
  9  8  1  0
 10  8  1  0
 11 10  1  0
 12 11  1  0
 12  7  1  0
 13  3  1  0
 14 13  2  0
 15 13  2  0
 16 13  1  0
 17 16  2  0
 18 17  1  0
 19 18  2  0
 20 19  1  0
 21 20  2  0
 21 16  1  0
 22 19  1  0
  3 23  1  0
  4 24  1  0
  6 25  1  0
  6 26  1  0
  7 27  1  1
  8 28  1  6
  9 29  1  0
  9 30  1  0
 10 31  1  0
 10 32  1  0
 11 33  1  0
 11 34  1  0
 12 35  1  0
 12 36  1  0
 17 37  1  0
 18 38  1  0
 20 39  1  0
 21 40  1  0
 22 41  1  0
 22 42  1  0
 22 43  1  0
M  END
>  <score>  (4) 
-7.808

$$$$
=
     RDKit          3D

 43 45  0  0  0  0  0  0  0  0999 V2000
    3.2420   58.7920   75.0130 O   0  0  0  0  0  0  0  0  0  0  0  0
    2.9020   58.5610   73.8640 C   0  0  0  0  0  0  0  0  0  0  0  0
    3.1270   59.4480   72.8190 N   0  0  0  0  0  0  0  0  0  0  0  0
    2.2600   57.4130   73.4410 N   0  0  0  0  0  0  0  0  0  0  0  0
    1.9350   56.3960   74.3540 N   0  0  0  0  0  0  0  0  0  0  0  0
    0.5530   56.5330   74.9020 C   0  0  0  0  0  0  0  0  0  0  0  0
   -0.1240   55.2740   74.4250 C   0  0  1  0  0  0  0  0  0  0  0  0
    1.0140   54.2760   74.5010 C   0  0  2  0  0  0  0  0  0  0  0  0
    2.0910   55.0350   73.7720 C   0  0  0  0  0  0  0  0  0  0  0  0
    0.3490   53.0200   73.9930 C   0  0  0  0  0  0  0  0  0  0  0  0
   -1.0440   53.0930   74.6650 C   0  0  0  0  0  0  0  0  0  0  0  0
   -1.2180   54.5470   75.1690 C   0  0  0  0  0  0  0  0  0  0  0  0
    3.8150   60.9490   72.9760 S   0  0  0  0  0  6  0  0  0  0  0  0
    5.1780   60.8150   73.4360 O   0  0  0  0  0  0  0  0  0  0  0  0
    2.8520   61.7150   73.7460 O   0  0  0  0  0  0  0  0  0  0  0  0
    3.8040   61.5980   71.3260 C   0  0  0  0  0  0  0  0  0  0  0  0
    2.8750   61.1150   70.4000 C   0  0  0  0  0  0  0  0  0  0  0  0
    2.8440   61.6510   69.1110 C   0  0  0  0  0  0  0  0  0  0  0  0
    3.7220   62.6820   68.7490 C   0  0  0  0  0  0  0  0  0  0  0  0
    4.6460   63.1580   69.6890 C   0  0  0  0  0  0  0  0  0  0  0  0
    4.6810   62.6280   70.9800 C   0  0  0  0  0  0  0  0  0  0  0  0
    3.7110   63.2340   67.3530 C   0  0  0  0  0  0  0  0  0  0  0  0
    2.8449   59.1508   71.8740 H   0  0  0  0  0  0  0  0  0  0  0  0
    2.0172   57.3017   72.4462 H   0  0  0  0  0  0  0  0  0  0  0  0
    0.5661   56.5835   76.0008 H   0  0  0  0  0  0  0  0  0  0  0  0
    0.0442   57.4513   74.5735 H   0  0  0  0  0  0  0  0  0  0  0  0
   -0.6325   55.5999   73.5056 H   0  0  0  0  0  0  0  0  0  0  0  0
    1.5148   53.9286   75.4167 H   0  0  0  0  0  0  0  0  0  0  0  0
    1.9158   55.0391   72.6860 H   0  0  0  0  0  0  0  0  0  0  0  0
    3.0986   54.6090   73.8873 H   0  0  0  0  0  0  0  0  0  0  0  0
    0.2638   53.0294   72.8963 H   0  0  0  0  0  0  0  0  0  0  0  0
    0.9048   52.1002   74.2275 H   0  0  0  0  0  0  0  0  0  0  0  0
   -1.8302   52.8477   73.9358 H   0  0  0  0  0  0  0  0  0  0  0  0
   -1.1220   52.3743   75.4941 H   0  0  0  0  0  0  0  0  0  0  0  0
   -2.2101   54.9439   74.9077 H   0  0  0  0  0  0  0  0  0  0  0  0
   -1.1508   54.6469   76.2624 H   0  0  0  0  0  0  0  0  0  0  0  0
    2.1728   60.3177   70.6849 H   0  0  0  0  0  0  0  0  0  0  0  0
    2.1257   61.2615   68.3746 H   0  0  0  0  0  0  0  0  0  0  0  0
    5.3493   63.9556   69.4073 H   0  0  0  0  0  0  0  0  0  0  0  0
    5.3948   63.0192   71.7199 H   0  0  0  0  0  0  0  0  0  0  0  0
    3.6891   64.3330   67.3935 H   0  0  0  0  0  0  0  0  0  0  0  0
    4.6159   62.9046   66.8213 H   0  0  0  0  0  0  0  0  0  0  0  0
    2.8200   62.8688   66.8213 H   0  0  0  0  0  0  0  0  0  0  0  0
  2  1  2  0
  3  2  1  0
  4  2  1  0
  5  4  1  0
  6  5  1  0
  7  6  1  0
  8  7  1  0
  9  5  1  0
  9  8  1  0
 10  8  1  0
 11 10  1  0
 12 11  1  0
 12  7  1  0
 13  3  1  0
 14 13  2  0
 15 13  2  0
 16 13  1  0
 17 16  2  0
 18 17  1  0
 19 18  2  0
 20 19  1  0
 21 20  2  0
 21 16  1  0
 22 19  1  0
  3 23  1  0
  4 24  1  0
  6 25  1  0
  6 26  1  0
  7 27  1  6
  8 28  1  1
  9 29  1  0
  9 30  1  0
 10 31  1  0
 10 32  1  0
 11 33  1  0
 11 34  1  0
 12 35  1  0
 12 36  1  0
 17 37  1  0
 18 38  1  0
 20 39  1  0
 21 40  1  0
 22 41  1  0
 22 42  1  0
 22 43  1  0
M  END
>  <score>  (5) 
-7.723

$$$$
=
     RDKit          3D

 43 45  0  0  0  0  0  0  0  0999 V2000
    3.5070   69.5130   65.4500 O   0  0  0  0  0  0  0  0  0  0  0  0
    2.9550   69.0900   66.4530 C   0  0  0  0  0  0  0  0  0  0  0  0
    1.9990   68.0830   66.4200 N   0  0  0  0  0  0  0  0  0  0  0  0
    3.1930   69.5370   67.7390 N   0  0  0  0  0  0  0  0  0  0  0  0
    4.1230   70.5610   67.9810 N   0  0  0  0  0  0  0  0  0  0  0  0
    4.4970   70.6710   69.4230 C   0  0  0  0  0  0  0  0  0  0  0  0
    5.9740   70.3730   69.4100 C   0  0  1  0  0  0  0  0  0  0  0  0
    6.3940   71.0010   68.0960 C   0  0  2  0  0  0  0  0  0  0  0  0
    5.3620   70.4120   67.1710 C   0  0  0  0  0  0  0  0  0  0  0  0
    7.8680   70.6770   68.0630 C   0  0  0  0  0  0  0  0  0  0  0  0
    8.2880   70.9150   69.5340 C   0  0  0  0  0  0  0  0  0  0  0  0
    6.9820   70.9630   70.3660 C   0  0  0  0  0  0  0  0  0  0  0  0
    1.4230   67.3630   65.0410 S   0  0  0  0  0  6  0  0  0  0  0  0
    1.3140   68.3460   63.9870 O   0  0  0  0  0  0  0  0  0  0  0  0
    0.2540   66.6200   65.4760 O   0  0  0  0  0  0  0  0  0  0  0  0
    2.6740   66.1780   64.6240 C   0  0  0  0  0  0  0  0  0  0  0  0
    2.7340   64.9650   65.3150 C   0  0  0  0  0  0  0  0  0  0  0  0
    3.6970   64.0170   64.9620 C   0  0  0  0  0  0  0  0  0  0  0  0
    4.5860   64.2670   63.9080 C   0  0  0  0  0  0  0  0  0  0  0  0
    4.5130   65.4870   63.2220 C   0  0  0  0  0  0  0  0  0  0  0  0
    3.5500   66.4370   63.5680 C   0  0  0  0  0  0  0  0  0  0  0  0
    5.6440   63.2630   63.5520 C   0  0  0  0  0  0  0  0  0  0  0  0
    1.6186   67.7585   67.3205 H   0  0  0  0  0  0  0  0  0  0  0  0
    2.6830   69.1147   68.5280 H   0  0  0  0  0  0  0  0  0  0  0  0
    4.3006   71.6829   69.8069 H   0  0  0  0  0  0  0  0  0  0  0  0
    3.9227   69.9954   70.0740 H   0  0  0  0  0  0  0  0  0  0  0  0
    6.0117   69.3003   69.6505 H   0  0  0  0  0  0  0  0  0  0  0  0
    6.3793   72.0738   67.8533 H   0  0  0  0  0  0  0  0  0  0  0  0
    5.5746   69.3553   66.9516 H   0  0  0  0  0  0  0  0  0  0  0  0
    5.3148   70.8950   66.1838 H   0  0  0  0  0  0  0  0  0  0  0  0
    8.0402   69.6328   67.7630 H   0  0  0  0  0  0  0  0  0  0  0  0
    8.4363   71.2788   67.3386 H   0  0  0  0  0  0  0  0  0  0  0  0
    8.9301   70.0929   69.8830 H   0  0  0  0  0  0  0  0  0  0  0  0
    8.8581   71.8501   69.6370 H   0  0  0  0  0  0  0  0  0  0  0  0
    7.0683   70.3562   71.2794 H   0  0  0  0  0  0  0  0  0  0  0  0
    6.7193   71.9714   70.7182 H   0  0  0  0  0  0  0  0  0  0  0  0
    2.0271   64.7580   66.1320 H   0  0  0  0  0  0  0  0  0  0  0  0
    3.7580   63.0680   65.5149 H   0  0  0  0  0  0  0  0  0  0  0  0
    5.2192   65.6976   62.4054 H   0  0  0  0  0  0  0  0  0  0  0  0
    3.4819   67.3837   63.0120 H   0  0  0  0  0  0  0  0  0  0  0  0
    6.0808   62.8485   64.4726 H   0  0  0  0  0  0  0  0  0  0  0  0
    5.1950   62.4509   62.9613 H   0  0  0  0  0  0  0  0  0  0  0  0
    6.4314   63.7539   62.9613 H   0  0  0  0  0  0  0  0  0  0  0  0
  2  1  2  0
  3  2  1  0
  4  2  1  0
  5  4  1  0
  6  5  1  0
  7  6  1  0
  8  7  1  0
  9  5  1  0
  9  8  1  0
 10  8  1  0
 11 10  1  0
 12 11  1  0
 12  7  1  0
 13  3  1  0
 14 13  2  0
 15 13  2  0
 16 13  1  0
 17 16  2  0
 18 17  1  0
 19 18  2  0
 20 19  1  0
 21 20  2  0
 21 16  1  0
 22 19  1  0
  3 23  1  0
  4 24  1  0
  6 25  1  0
  6 26  1  0
  7 27  1  6
  8 28  1  1
  9 29  1  0
  9 30  1  0
 10 31  1  0
 10 32  1  0
 11 33  1  0
 11 34  1  0
 12 35  1  0
 12 36  1  0
 17 37  1  0
 18 38  1  0
 20 39  1  0
 21 40  1  0
 22 41  1  0
 22 42  1  0
 22 43  1  0
M  END
>  <score>  (6) 
-7.53

$$$$
=
     RDKit          3D

 43 45  0  0  0  0  0  0  0  0999 V2000
    1.7240   66.7710   67.1850 O   0  0  0  0  0  0  0  0  0  0  0  0
    0.7660   67.5230   67.1100 C   0  0  0  0  0  0  0  0  0  0  0  0
    0.4700   68.2550   65.9680 N   0  0  0  0  0  0  0  0  0  0  0  0
   -0.1440   67.7530   68.1240 N   0  0  0  0  0  0  0  0  0  0  0  0
   -0.0110   67.1110   69.3660 N   0  0  0  0  0  0  0  0  0  0  0  0
   -0.7940   65.8410   69.4450 C   0  0  0  0  0  0  0  0  0  0  0  0
    0.2770   64.8010   69.6510 C   0  0  1  0  0  0  0  0  0  0  0  0
    1.2680   65.5570   70.5110 C   0  0  2  0  0  0  0  0  0  0  0  0
    1.4080   66.8270   69.7140 C   0  0  0  0  0  0  0  0  0  0  0  0
    2.3580   64.5280   70.6930 C   0  0  0  0  0  0  0  0  0  0  0  0
    1.5460   63.2270   70.9050 C   0  0  0  0  0  0  0  0  0  0  0  0
    0.1000   63.5250   70.4380 C   0  0  0  0  0  0  0  0  0  0  0  0
    1.3860   68.2730   64.5850 S   0  0  0  0  0  6  0  0  0  0  0  0
    0.8050   69.1860   63.6270 O   0  0  0  0  0  0  0  0  0  0  0  0
    1.5670   66.8730   64.2460 O   0  0  0  0  0  0  0  0  0  0  0  0
    2.9580   68.8920   65.1210 C   0  0  0  0  0  0  0  0  0  0  0  0
    4.0040   69.0090   64.2030 C   0  0  0  0  0  0  0  0  0  0  0  0
    5.2310   69.5300   64.6180 C   0  0  0  0  0  0  0  0  0  0  0  0
    5.4110   69.9550   65.9410 C   0  0  0  0  0  0  0  0  0  0  0  0
    4.3520   69.8350   66.8510 C   0  0  0  0  0  0  0  0  0  0  0  0
    3.1210   69.3180   66.4410 C   0  0  0  0  0  0  0  0  0  0  0  0
    6.7410   70.4830   66.3950 C   0  0  0  0  0  0  0  0  0  0  0  0
   -0.3838   68.8310   65.9804 H   0  0  0  0  0  0  0  0  0  0  0  0
   -0.9282   68.4022   67.9673 H   0  0  0  0  0  0  0  0  0  0  0  0
   -1.4958   65.8602   70.2918 H   0  0  0  0  0  0  0  0  0  0  0  0
   -1.4153   65.6563   68.5562 H   0  0  0  0  0  0  0  0  0  0  0  0
    0.4628   64.4327   68.6313 H   0  0  0  0  0  0  0  0  0  0  0  0
    1.0992   65.9119   71.5384 H   0  0  0  0  0  0  0  0  0  0  0  0
    2.0202   66.6718   68.8134 H   0  0  0  0  0  0  0  0  0  0  0  0
    1.9118   67.6433   70.2523 H   0  0  0  0  0  0  0  0  0  0  0  0
    2.9953   64.4594   69.7990 H   0  0  0  0  0  0  0  0  0  0  0  0
    3.0489   64.7571   71.5178 H   0  0  0  0  0  0  0  0  0  0  0  0
    1.9765   62.4097   70.3079 H   0  0  0  0  0  0  0  0  0  0  0  0
    1.5653   62.9156   71.9598 H   0  0  0  0  0  0  0  0  0  0  0  0
   -0.2892   62.7153   69.8032 H   0  0  0  0  0  0  0  0  0  0  0  0
   -0.6221   63.6112   71.2633 H   0  0  0  0  0  0  0  0  0  0  0  0
    3.8619   68.6925   63.1591 H   0  0  0  0  0  0  0  0  0  0  0  0
    6.0621   69.6074   63.9015 H   0  0  0  0  0  0  0  0  0  0  0  0
    4.4913   70.1502   67.8956 H   0  0  0  0  0  0  0  0  0  0  0  0
    2.2855   69.2468   67.1530 H   0  0  0  0  0  0  0  0  0  0  0  0
    6.7743   70.4962   67.4944 H   0  0  0  0  0  0  0  0  0  0  0  0
    7.5430   69.8351   66.0116 H   0  0  0  0  0  0  0  0  0  0  0  0
    6.8802   71.5046   66.0116 H   0  0  0  0  0  0  0  0  0  0  0  0
  2  1  2  0
  3  2  1  0
  4  2  1  0
  5  4  1  0
  6  5  1  0
  7  6  1  0
  8  7  1  0
  9  5  1  0
  9  8  1  0
 10  8  1  0
 11 10  1  0
 12 11  1  0
 12  7  1  0
 13  3  1  0
 14 13  2  0
 15 13  2  0
 16 13  1  0
 17 16  2  0
 18 17  1  0
 19 18  2  0
 20 19  1  0
 21 20  2  0
 21 16  1  0
 22 19  1  0
  3 23  1  0
  4 24  1  0
  6 25  1  0
  6 26  1  0
  7 27  1  6
  8 28  1  1
  9 29  1  0
  9 30  1  0
 10 31  1  0
 10 32  1  0
 11 33  1  0
 11 34  1  0
 12 35  1  0
 12 36  1  0
 17 37  1  0
 18 38  1  0
 20 39  1  0
 21 40  1  0
 22 41  1  0
 22 42  1  0
 22 43  1  0
M  END
>  <score>  (7) 
-7.349

$$$$
=
     RDKit          3D

 43 45  0  0  0  0  0  0  0  0999 V2000
    3.0150   59.7220   73.0070 O   0  0  0  0  0  0  0  0  0  0  0  0
    3.1350   58.6020   72.5380 C   0  0  0  0  0  0  0  0  0  0  0  0
    2.6410   57.4660   73.1640 N   0  0  0  0  0  0  0  0  0  0  0  0
    3.7620   58.3040   71.3430 N   0  0  0  0  0  0  0  0  0  0  0  0
    4.3370   59.3200   70.5610 N   0  0  0  0  0  0  0  0  0  0  0  0
    3.4260   59.7980   69.4780 C   0  0  0  0  0  0  0  0  0  0  0  0
    3.2090   61.2460   69.8370 C   0  0  1  0  0  0  0  0  0  0  0  0
    4.5640   61.6200   70.4040 C   0  0  2  0  0  0  0  0  0  0  0  0
    4.7750   60.4880   71.3740 C   0  0  0  0  0  0  0  0  0  0  0  0
    4.3410   63.0610   70.7950 C   0  0  0  0  0  0  0  0  0  0  0  0
    3.5040   63.5950   69.6070 C   0  0  0  0  0  0  0  0  0  0  0  0
    2.9780   62.3570   68.8410 C   0  0  0  0  0  0  0  0  0  0  0  0
    1.8910   57.4450   74.6440 S   0  0  0  0  0  6  0  0  0  0  0  0
    0.8240   58.4200   74.6620 O   0  0  0  0  0  0  0  0  0  0  0  0
    2.9740   57.5240   75.6060 O   0  0  0  0  0  0  0  0  0  0  0  0
    1.2080   55.8120   74.7530 C   0  0  0  0  0  0  0  0  0  0  0  0
   -0.0240   55.5370   74.1530 C   0  0  0  0  0  0  0  0  0  0  0  0
   -0.5450   54.2430   74.2090 C   0  0  0  0  0  0  0  0  0  0  0  0
    0.1690   53.2170   74.8430 C   0  0  0  0  0  0  0  0  0  0  0  0
    1.4050   53.5070   75.4380 C   0  0  0  0  0  0  0  0  0  0  0  0
    1.9320   54.7980   75.3830 C   0  0  0  0  0  0  0  0  0  0  0  0
   -0.4080   51.8340   74.9330 C   0  0  0  0  0  0  0  0  0  0  0  0
    2.7481   56.5673   72.6723 H   0  0  0  0  0  0  0  0  0  0  0  0
    3.8083   57.3264   71.0221 H   0  0  0  0  0  0  0  0  0  0  0  0
    3.9004   59.7017   68.4903 H   0  0  0  0  0  0  0  0  0  0  0  0
    2.4914   59.2220   69.4101 H   0  0  0  0  0  0  0  0  0  0  0  0
    2.2626   61.2224   70.3971 H   0  0  0  0  0  0  0  0  0  0  0  0
    5.5118   61.6664   69.8477 H   0  0  0  0  0  0  0  0  0  0  0  0
    4.1536   60.6078   72.2737 H   0  0  0  0  0  0  0  0  0  0  0  0
    5.8031   60.4094   71.7571 H   0  0  0  0  0  0  0  0  0  0  0  0
    3.7846   63.1363   71.7409 H   0  0  0  0  0  0  0  0  0  0  0  0
    5.2717   63.6214   70.9673 H   0  0  0  0  0  0  0  0  0  0  0  0
    2.6616   64.1977   69.9774 H   0  0  0  0  0  0  0  0  0  0  0  0
    4.1115   64.2367   68.9520 H   0  0  0  0  0  0  0  0  0  0  0  0
    1.9098   62.4611   68.5998 H   0  0  0  0  0  0  0  0  0  0  0  0
    3.4732   62.1928   67.8726 H   0  0  0  0  0  0  0  0  0  0  0  0
   -0.5798   56.3355   73.6397 H   0  0  0  0  0  0  0  0  0  0  0  0
   -1.5223   54.0272   73.7525 H   0  0  0  0  0  0  0  0  0  0  0  0
    1.9635   52.7109   75.9520 H   0  0  0  0  0  0  0  0  0  0  0  0
    2.9118   55.0154   75.8332 H   0  0  0  0  0  0  0  0  0  0  0  0
   -0.5250   51.5536   75.9902 H   0  0  0  0  0  0  0  0  0  0  0  0
   -1.3898   51.8133   74.4374 H   0  0  0  0  0  0  0  0  0  0  0  0
    0.2680   51.1217   74.4374 H   0  0  0  0  0  0  0  0  0  0  0  0
  2  1  2  0
  3  2  1  0
  4  2  1  0
  5  4  1  0
  6  5  1  0
  7  6  1  0
  8  7  1  0
  9  5  1  0
  9  8  1  0
 10  8  1  0
 11 10  1  0
 12 11  1  0
 12  7  1  0
 13  3  1  0
 14 13  2  0
 15 13  2  0
 16 13  1  0
 17 16  2  0
 18 17  1  0
 19 18  2  0
 20 19  1  0
 21 20  2  0
 21 16  1  0
 22 19  1  0
  3 23  1  0
  4 24  1  0
  6 25  1  0
  6 26  1  0
  7 27  1  1
  8 28  1  6
  9 29  1  0
  9 30  1  0
 10 31  1  0
 10 32  1  0
 11 33  1  0
 11 34  1  0
 12 35  1  0
 12 36  1  0
 17 37  1  0
 18 38  1  0
 20 39  1  0
 21 40  1  0
 22 41  1  0
 22 42  1  0
 22 43  1  0
M  END
>  <score>  (8) 
-7.235

$$$$
=
     RDKit          3D

 43 45  0  0  0  0  0  0  0  0999 V2000
    2.3830   59.6710   75.0000 O   0  0  0  0  0  0  0  0  0  0  0  0
    3.4230   59.2840   74.4920 C   0  0  0  0  0  0  0  0  0  0  0  0
    4.1710   58.2350   75.0110 N   0  0  0  0  0  0  0  0  0  0  0  0
    3.9960   59.8150   73.3520 N   0  0  0  0  0  0  0  0  0  0  0  0
    3.3930   60.8930   72.6810 N   0  0  0  0  0  0  0  0  0  0  0  0
    4.3540   61.9980   72.3870 C   0  0  0  0  0  0  0  0  0  0  0  0
    4.3530   62.0500   70.8810 C   0  0  1  0  0  0  0  0  0  0  0  0
    2.9090   61.7120   70.5700 C   0  0  2  0  0  0  0  0  0  0  0  0
    2.7300   60.4790   71.4150 C   0  0  0  0  0  0  0  0  0  0  0  0
    2.9120   61.7310   69.0610 C   0  0  0  0  0  0  0  0  0  0  0  0
    3.8040   62.9580   68.7520 C   0  0  0  0  0  0  0  0  0  0  0  0
    4.5580   63.3000   70.0600 C   0  0  0  0  0  0  0  0  0  0  0  0
    3.8140   57.4110   76.4050 S   0  0  0  0  0  6  0  0  0  0  0  0
    3.3460   58.3360   77.4120 O   0  0  0  0  0  0  0  0  0  0  0  0
    4.9810   56.5850   76.6530 O   0  0  0  0  0  0  0  0  0  0  0  0
    2.4930   56.3260   75.9340 C   0  0  0  0  0  0  0  0  0  0  0  0
    1.1830   56.6250   76.3190 C   0  0  0  0  0  0  0  0  0  0  0  0
    0.1390   55.7890   75.9180 C   0  0  0  0  0  0  0  0  0  0  0  0
    0.3930   54.6690   75.1160 C   0  0  0  0  0  0  0  0  0  0  0  0
    1.7120   54.3830   74.7350 C   0  0  0  0  0  0  0  0  0  0  0  0
    2.7600   55.2160   75.1300 C   0  0  0  0  0  0  0  0  0  0  0  0
   -0.7250   53.7520   74.7140 C   0  0  0  0  0  0  0  0  0  0  0  0
    5.0116   57.9469   74.4902 H   0  0  0  0  0  0  0  0  0  0  0  0
    4.8742   59.4166   72.9902 H   0  0  0  0  0  0  0  0  0  0  0  0
    4.0071   62.9494   72.8165 H   0  0  0  0  0  0  0  0  0  0  0  0
    5.3531   61.8318   72.8162 H   0  0  0  0  0  0  0  0  0  0  0  0
    5.2275   61.4389   70.6129 H   0  0  0  0  0  0  0  0  0  0  0  0
    2.0297   62.3256   70.8155 H   0  0  0  0  0  0  0  0  0  0  0  0
    3.2286   59.6074   70.9659 H   0  0  0  0  0  0  0  0  0  0  0  0
    1.6828   60.1653   71.5371 H   0  0  0  0  0  0  0  0  0  0  0  0
    3.3476   60.8078   68.6512 H   0  0  0  0  0  0  0  0  0  0  0  0
    1.9071   61.7924   68.6179 H   0  0  0  0  0  0  0  0  0  0  0  0
    4.5207   62.7144   67.9538 H   0  0  0  0  0  0  0  0  0  0  0  0
    3.1994   63.8106   68.4091 H   0  0  0  0  0  0  0  0  0  0  0  0
    5.6260   63.4814   69.8692 H   0  0  0  0  0  0  0  0  0  0  0  0
    4.1975   64.2157   70.5515 H   0  0  0  0  0  0  0  0  0  0  0  0
    0.9759   57.5132   76.9340 H   0  0  0  0  0  0  0  0  0  0  0  0
   -0.8908   56.0116   76.2343 H   0  0  0  0  0  0  0  0  0  0  0  0
    1.9223   53.4954   74.1202 H   0  0  0  0  0  0  0  0  0  0  0  0
    3.7899   54.9994   74.8099 H   0  0  0  0  0  0  0  0  0  0  0  0
   -1.2129   53.3518   75.6150 H   0  0  0  0  0  0  0  0  0  0  0  0
   -1.4603   54.3105   74.1162 H   0  0  0  0  0  0  0  0  0  0  0  0
   -0.3212   52.9216   74.1162 H   0  0  0  0  0  0  0  0  0  0  0  0
  2  1  2  0
  3  2  1  0
  4  2  1  0
  5  4  1  0
  6  5  1  0
  7  6  1  0
  8  7  1  0
  9  5  1  0
  9  8  1  0
 10  8  1  0
 11 10  1  0
 12 11  1  0
 12  7  1  0
 13  3  1  0
 14 13  2  0
 15 13  2  0
 16 13  1  0
 17 16  2  0
 18 17  1  0
 19 18  2  0
 20 19  1  0
 21 20  2  0
 21 16  1  0
 22 19  1  0
  3 23  1  0
  4 24  1  0
  6 25  1  0
  6 26  1  0
  7 27  1  6
  8 28  1  1
  9 29  1  0
  9 30  1  0
 10 31  1  0
 10 32  1  0
 11 33  1  0
 11 34  1  0
 12 35  1  0
 12 36  1  0
 17 37  1  0
 18 38  1  0
 20 39  1  0
 21 40  1  0
 22 41  1  0
 22 42  1  0
 22 43  1  0
M  END
>  <score>  (9) 
-7.199

$$$$
