=
     RDKit          3D

 58 60  0  0  0  0  0  0  0  0999 V2000
    0.9450   64.8150   70.6870 C   0  0  0  0  0  0  0  0  0  0  0  0
    2.2730   64.7180   70.2470 C   0  0  0  0  0  0  0  0  0  0  0  0
    2.9600   63.5060   70.3320 C   0  0  0  0  0  0  0  0  0  0  0  0
    2.3140   62.3820   70.8530 C   0  0  0  0  0  0  0  0  0  0  0  0
    1.0000   62.4700   71.3170 C   0  0  0  0  0  0  0  0  0  0  0  0
    0.3170   63.6840   71.2290 C   0  0  0  0  0  0  0  0  0  0  0  0
    3.2000   60.8510   70.9990 S   0  0  0  0  0  6  0  0  0  0  0  0
    4.4860   61.0970   71.6120 O   0  0  0  0  0  0  0  0  0  0  0  0
    3.1100   60.1780   69.7180 O   0  0  0  0  0  0  0  0  0  0  0  0
    2.2570   59.9480   72.0260 N   0  0  0  0  0  0  0  0  0  0  0  0
    2.3750   58.5850   72.2210 C   0  0  0  0  0  0  0  0  0  0  0  0
    3.2210   57.8920   71.6820 O   0  0  0  0  0  0  0  0  0  0  0  0
    1.4370   58.1100   73.0940 N   0  0  0  0  0  0  0  0  0  0  0  0
    1.2810   56.6820   73.3440 C   0  0  0  0  0  0  0  0  0  0  0  0
    2.0020   56.3050   74.6490 C   0  0  0  0  0  0  0  0  0  0  0  0
    1.3910   55.0710   75.2990 C   0  0  0  0  0  0  0  0  0  0  0  0
   -0.0740   55.2990   75.6740 C   0  0  0  0  0  0  0  0  0  0  0  0
   -0.7950   56.2840   74.7530 C   0  0  0  0  0  0  0  0  0  0  0  0
   -0.2060   56.2780   73.3450 C   0  0  0  0  0  0  0  0  0  0  0  0
    0.2100   66.1310   70.6100 C   0  0  0  0  0  0  0  0  0  0  0  0
    0.3190   66.7690   69.2250 C   0  0  0  0  0  0  0  0  0  0  0  0
    1.5180   68.6310   68.1140 C   0  0  0  0  0  0  0  0  0  0  0  0
    0.7250   68.7340   67.1860 O   0  0  0  0  0  0  0  0  0  0  0  0
    1.3540   67.7810   69.1890 N   0  0  0  0  0  0  0  0  0  0  0  0
    6.3070   71.6730   68.2260 C   0  0  0  0  0  0  0  0  0  0  0  0
    5.0470   70.8680   68.1840 C   0  0  0  0  0  0  0  0  0  0  0  0
    4.7570   70.1990   67.0390 N   0  0  0  0  0  0  0  0  0  0  0  0
    3.6040   69.4810   67.0470 C   0  0  0  0  0  0  0  0  0  0  0  0
    2.7710   69.4360   68.1530 C   0  0  0  0  0  0  0  0  0  0  0  0
    3.0490   70.1020   69.3120 N   0  0  0  0  0  0  0  0  0  0  0  0
    4.2020   70.8140   69.2910 C   0  0  0  0  0  0  0  0  0  0  0  0
    2.7768   65.6034   69.8319 H   0  0  0  0  0  0  0  0  0  0  0  0
    4.0035   63.4362   69.9910 H   0  0  0  0  0  0  0  0  0  0  0  0
    0.5059   61.5875   71.7495 H   0  0  0  0  0  0  0  0  0  0  0  0
   -0.7207   63.7543   71.5871 H   0  0  0  0  0  0  0  0  0  0  0  0
    1.5275   60.4425   72.5590 H   0  0  0  0  0  0  0  0  0  0  0  0
    0.8258   58.7765   73.5870 H   0  0  0  0  0  0  0  0  0  0  0  0
    1.7499   56.1133   72.5275 H   0  0  0  0  0  0  0  0  0  0  0  0
    3.0597   56.1022   74.4252 H   0  0  0  0  0  0  0  0  0  0  0  0
    1.8994   57.1461   75.3505 H   0  0  0  0  0  0  0  0  0  0  0  0
    1.4521   54.2289   74.5939 H   0  0  0  0  0  0  0  0  0  0  0  0
    1.9520   54.8539   76.2199 H   0  0  0  0  0  0  0  0  0  0  0  0
   -0.5988   54.3333   75.6295 H   0  0  0  0  0  0  0  0  0  0  0  0
   -0.0846   55.7345   76.6841 H   0  0  0  0  0  0  0  0  0  0  0  0
   -1.8576   56.0055   74.6957 H   0  0  0  0  0  0  0  0  0  0  0  0
   -0.6733   57.2944   75.1704 H   0  0  0  0  0  0  0  0  0  0  0  0
   -0.3001   55.2661   72.9242 H   0  0  0  0  0  0  0  0  0  0  0  0
   -0.7595   57.0113   72.7401 H   0  0  0  0  0  0  0  0  0  0  0  0
   -0.8520   65.9583   70.8386 H   0  0  0  0  0  0  0  0  0  0  0  0
    0.6675   66.8181   71.3370 H   0  0  0  0  0  0  0  0  0  0  0  0
    0.5572   65.9873   68.4887 H   0  0  0  0  0  0  0  0  0  0  0  0
   -0.6422   67.2486   68.9884 H   0  0  0  0  0  0  0  0  0  0  0  0
    1.9903   67.8697   69.9941 H   0  0  0  0  0  0  0  0  0  0  0  0
    6.5913   71.8547   69.2730 H   0  0  0  0  0  0  0  0  0  0  0  0
    7.1117   71.1213   67.7180 H   0  0  0  0  0  0  0  0  0  0  0  0
    6.1446   72.6350   67.7180 H   0  0  0  0  0  0  0  0  0  0  0  0
    3.3225   68.9168   66.1457 H   0  0  0  0  0  0  0  0  0  0  0  0
    4.4850   71.3773   70.1925 H   0  0  0  0  0  0  0  0  0  0  0  0
  2  1  2  0
  3  2  1  0
  4  3  2  0
  5  4  1  0
  6  1  1  0
  6  5  2  0
  7  4  1  0
  8  7  2  0
  9  7  2  0
 10  7  1  0
 11 10  1  0
 12 11  2  0
 13 11  1  0
 14 13  1  0
 15 14  1  0
 16 15  1  0
 17 16  1  0
 18 17  1  0
 19 18  1  0
 19 14  1  0
 20  1  1  0
 21 20  1  0
 23 22  2  0
 24 22  1  0
 24 21  1  0
 26 25  1  0
 27 26  2  0
 28 27  1  0
 29 28  2  0
 29 22  1  0
 30 29  1  0
 31 30  2  0
 31 26  1  0
  2 32  1  0
  3 33  1  0
  5 34  1  0
  6 35  1  0
 10 36  1  0
 13 37  1  0
 14 38  1  0
 15 39  1  0
 15 40  1  0
 16 41  1  0
 16 42  1  0
 17 43  1  0
 17 44  1  0
 18 45  1  0
 18 46  1  0
 19 47  1  0
 19 48  1  0
 20 49  1  0
 20 50  1  0
 21 51  1  0
 21 52  1  0
 24 53  1  0
 25 54  1  0
 25 55  1  0
 25 56  1  0
 28 57  1  0
 31 58  1  0
M  END
>  <score>  (1) 
-10.147

$$$$
=
     RDKit          3D

 58 60  0  0  0  0  0  0  0  0999 V2000
    1.1660   63.3870   70.6400 C   0  0  0  0  0  0  0  0  0  0  0  0
    1.9210   62.6840   69.6910 C   0  0  0  0  0  0  0  0  0  0  0  0
    2.9160   61.7920   70.0980 C   0  0  0  0  0  0  0  0  0  0  0  0
    3.1520   61.5970   71.4610 C   0  0  0  0  0  0  0  0  0  0  0  0
    2.4230   62.3080   72.4170 C   0  0  0  0  0  0  0  0  0  0  0  0
    1.4300   63.1980   72.0050 C   0  0  0  0  0  0  0  0  0  0  0  0
    4.4430   60.4960   71.9780 S   0  0  0  0  0  6  0  0  0  0  0  0
    4.9440   60.9140   73.2680 O   0  0  0  0  0  0  0  0  0  0  0  0
    5.3450   60.3320   70.8550 O   0  0  0  0  0  0  0  0  0  0  0  0
    3.6740   59.0310   72.1280 N   0  0  0  0  0  0  0  0  0  0  0  0
    2.8120   58.6870   73.1530 C   0  0  0  0  0  0  0  0  0  0  0  0
    2.4870   59.4450   74.0510 O   0  0  0  0  0  0  0  0  0  0  0  0
    2.3630   57.4020   73.0340 N   0  0  0  0  0  0  0  0  0  0  0  0
    1.5550   56.7760   74.0730 C   0  0  0  0  0  0  0  0  0  0  0  0
    0.1630   56.4390   73.5120 C   0  0  0  0  0  0  0  0  0  0  0  0
   -0.4810   55.2760   74.2540 C   0  0  0  0  0  0  0  0  0  0  0  0
    0.3490   53.9980   74.1280 C   0  0  0  0  0  0  0  0  0  0  0  0
    1.8500   54.2550   73.9830 C   0  0  0  0  0  0  0  0  0  0  0  0
    2.2710   55.5500   74.6710 C   0  0  0  0  0  0  0  0  0  0  0  0
    0.1020   64.3630   70.1980 C   0  0  0  0  0  0  0  0  0  0  0  0
    0.4140   65.7920   70.6400 C   0  0  0  0  0  0  0  0  0  0  0  0
    0.4260   67.0810   68.5240 C   0  0  0  0  0  0  0  0  0  0  0  0
   -0.7930   67.1490   68.4290 O   0  0  0  0  0  0  0  0  0  0  0  0
    1.0960   66.5320   69.5980 N   0  0  0  0  0  0  0  0  0  0  0  0
    3.8110   69.0750   64.4280 C   0  0  0  0  0  0  0  0  0  0  0  0
    2.9210   68.5600   65.5150 C   0  0  0  0  0  0  0  0  0  0  0  0
    2.7740   69.3200   66.6300 N   0  0  0  0  0  0  0  0  0  0  0  0
    1.9570   68.8120   67.5900 C   0  0  0  0  0  0  0  0  0  0  0  0
    1.3160   67.5940   67.4430 C   0  0  0  0  0  0  0  0  0  0  0  0
    1.4530   66.8190   66.3280 N   0  0  0  0  0  0  0  0  0  0  0  0
    2.2700   67.3350   65.3790 C   0  0  0  0  0  0  0  0  0  0  0  0
    1.7287   62.8357   68.6186 H   0  0  0  0  0  0  0  0  0  0  0  0
    3.5100   61.2465   69.3499 H   0  0  0  0  0  0  0  0  0  0  0  0
    2.6303   62.1673   73.4881 H   0  0  0  0  0  0  0  0  0  0  0  0
    0.8503   63.7552   72.7557 H   0  0  0  0  0  0  0  0  0  0  0  0
    3.8533   58.3239   71.4008 H   0  0  0  0  0  0  0  0  0  0  0  0
    2.6013   56.8626   72.1895 H   0  0  0  0  0  0  0  0  0  0  0  0
    1.4172   57.4824   74.9049 H   0  0  0  0  0  0  0  0  0  0  0  0
   -0.4832   57.3240   73.6083 H   0  0  0  0  0  0  0  0  0  0  0  0
    0.2813   56.1476   72.4579 H   0  0  0  0  0  0  0  0  0  0  0  0
   -0.5725   55.5386   75.3183 H   0  0  0  0  0  0  0  0  0  0  0  0
   -1.4693   55.0892   73.8086 H   0  0  0  0  0  0  0  0  0  0  0  0
    0.1860   53.3872   75.0282 H   0  0  0  0  0  0  0  0  0  0  0  0
    0.0188   53.4878   73.2111 H   0  0  0  0  0  0  0  0  0  0  0  0
    2.4003   53.4164   74.4346 H   0  0  0  0  0  0  0  0  0  0  0  0
    2.0798   54.3464   72.9112 H   0  0  0  0  0  0  0  0  0  0  0  0
    2.0247   55.4809   75.7408 H   0  0  0  0  0  0  0  0  0  0  0  0
    3.3530   55.6799   74.5213 H   0  0  0  0  0  0  0  0  0  0  0  0
    0.0319   64.3384   69.1005 H   0  0  0  0  0  0  0  0  0  0  0  0
   -0.8477   64.0635   70.6652 H   0  0  0  0  0  0  0  0  0  0  0  0
   -0.5281   66.3045   70.8845 H   0  0  0  0  0  0  0  0  0  0  0  0
    1.0735   65.7456   71.5191 H   0  0  0  0  0  0  0  0  0  0  0  0
    2.1170   66.6526   69.6611 H   0  0  0  0  0  0  0  0  0  0  0  0
    4.6812   69.5785   64.8743 H   0  0  0  0  0  0  0  0  0  0  0  0
    4.1529   68.2352   63.8053 H   0  0  0  0  0  0  0  0  0  0  0  0
    3.2532   69.7899   63.8053 H   0  0  0  0  0  0  0  0  0  0  0  0
    1.8000   69.3876   68.5141 H   0  0  0  0  0  0  0  0  0  0  0  0
    2.4276   66.7589   64.4553 H   0  0  0  0  0  0  0  0  0  0  0  0
  2  1  2  0
  3  2  1  0
  4  3  2  0
  5  4  1  0
  6  1  1  0
  6  5  2  0
  7  4  1  0
  8  7  2  0
  9  7  2  0
 10  7  1  0
 11 10  1  0
 12 11  2  0
 13 11  1  0
 14 13  1  0
 15 14  1  0
 16 15  1  0
 17 16  1  0
 18 17  1  0
 19 18  1  0
 19 14  1  0
 20  1  1  0
 21 20  1  0
 23 22  2  0
 24 22  1  0
 24 21  1  0
 26 25  1  0
 27 26  2  0
 28 27  1  0
 29 28  2  0
 29 22  1  0
 30 29  1  0
 31 30  2  0
 31 26  1  0
  2 32  1  0
  3 33  1  0
  5 34  1  0
  6 35  1  0
 10 36  1  0
 13 37  1  0
 14 38  1  0
 15 39  1  0
 15 40  1  0
 16 41  1  0
 16 42  1  0
 17 43  1  0
 17 44  1  0
 18 45  1  0
 18 46  1  0
 19 47  1  0
 19 48  1  0
 20 49  1  0
 20 50  1  0
 21 51  1  0
 21 52  1  0
 24 53  1  0
 25 54  1  0
 25 55  1  0
 25 56  1  0
 28 57  1  0
 31 58  1  0
M  END
>  <score>  (2) 
-9.939

$$$$
=
     RDKit          3D

 58 60  0  0  0  0  0  0  0  0999 V2000
    1.3350   64.0650   70.6340 C   0  0  0  0  0  0  0  0  0  0  0  0
    0.8160   62.8470   71.0970 C   0  0  0  0  0  0  0  0  0  0  0  0
    1.6690   61.7900   71.4180 C   0  0  0  0  0  0  0  0  0  0  0  0
    3.0500   61.9530   71.2820 C   0  0  0  0  0  0  0  0  0  0  0  0
    3.5800   63.1520   70.8000 C   0  0  0  0  0  0  0  0  0  0  0  0
    2.7230   64.2060   70.4820 C   0  0  0  0  0  0  0  0  0  0  0  0
    4.1330   60.5960   71.6500 S   0  0  0  0  0  6  0  0  0  0  0  0
    4.7900   60.8350   72.9150 O   0  0  0  0  0  0  0  0  0  0  0  0
    4.9110   60.3290   70.4550 O   0  0  0  0  0  0  0  0  0  0  0  0
    3.1050   59.3000   71.7920 N   0  0  0  0  0  0  0  0  0  0  0  0
    2.5080   58.8840   72.9670 C   0  0  0  0  0  0  0  0  0  0  0  0
    2.6420   59.4540   74.0360 O   0  0  0  0  0  0  0  0  0  0  0  0
    1.7460   57.7650   72.7850 N   0  0  0  0  0  0  0  0  0  0  0  0
    1.1340   57.0660   73.9100 C   0  0  0  0  0  0  0  0  0  0  0  0
   -0.1920   56.4300   73.4610 C   0  0  0  0  0  0  0  0  0  0  0  0
   -0.5540   55.2170   74.3090 C   0  0  0  0  0  0  0  0  0  0  0  0
    0.5040   54.1170   74.2000 C   0  0  0  0  0  0  0  0  0  0  0  0
    1.9140   54.6500   73.9420 C   0  0  0  0  0  0  0  0  0  0  0  0
    2.1090   56.0450   74.5270 C   0  0  0  0  0  0  0  0  0  0  0  0
    0.4090   65.2010   70.2730 C   0  0  0  0  0  0  0  0  0  0  0  0
    1.1740   66.4830   69.9460 C   0  0  0  0  0  0  0  0  0  0  0  0
    1.4950   68.0300   68.0360 C   0  0  0  0  0  0  0  0  0  0  0  0
    2.1480   68.8510   68.6690 O   0  0  0  0  0  0  0  0  0  0  0  0
    1.0660   66.8190   68.5410 N   0  0  0  0  0  0  0  0  0  0  0  0
   -0.0980   68.9920   62.6760 C   0  0  0  0  0  0  0  0  0  0  0  0
    0.3100   68.7380   64.0930 C   0  0  0  0  0  0  0  0  0  0  0  0
   -0.6700   68.5330   65.0090 N   0  0  0  0  0  0  0  0  0  0  0  0
   -0.2530   68.3060   66.2820 C   0  0  0  0  0  0  0  0  0  0  0  0
    1.0880   68.2870   66.6260 C   0  0  0  0  0  0  0  0  0  0  0  0
    2.0850   68.4910   65.7160 N   0  0  0  0  0  0  0  0  0  0  0  0
    1.6560   68.7160   64.4510 C   0  0  0  0  0  0  0  0  0  0  0  0
   -0.2714   62.7239   71.2079 H   0  0  0  0  0  0  0  0  0  0  0  0
    1.2568   60.8349   71.7757 H   0  0  0  0  0  0  0  0  0  0  0  0
    4.6667   63.2646   70.6719 H   0  0  0  0  0  0  0  0  0  0  0  0
    3.1381   65.1541   70.1095 H   0  0  0  0  0  0  0  0  0  0  0  0
    2.8958   58.7641   70.9376 H   0  0  0  0  0  0  0  0  0  0  0  0
    1.6000   57.4061   71.8307 H   0  0  0  0  0  0  0  0  0  0  0  0
    0.9049   57.7863   74.7092 H   0  0  0  0  0  0  0  0  0  0  0  0
   -0.9936   57.1781   73.5494 H   0  0  0  0  0  0  0  0  0  0  0  0
   -0.0755   56.0963   72.4194 H   0  0  0  0  0  0  0  0  0  0  0  0
   -0.6376   55.5288   75.3606 H   0  0  0  0  0  0  0  0  0  0  0  0
   -1.5090   54.8132   73.9416 H   0  0  0  0  0  0  0  0  0  0  0  0
    0.5136   53.5486   75.1417 H   0  0  0  0  0  0  0  0  0  0  0  0
    0.2320   53.4909   73.3375 H   0  0  0  0  0  0  0  0  0  0  0  0
    2.6426   53.9662   74.4019 H   0  0  0  0  0  0  0  0  0  0  0  0
    2.0618   54.7123   72.8537 H   0  0  0  0  0  0  0  0  0  0  0  0
    1.9397   56.0024   75.6131 H   0  0  0  0  0  0  0  0  0  0  0  0
    3.1346   56.3709   74.2990 H   0  0  0  0  0  0  0  0  0  0  0  0
   -0.1857   64.9088   69.3949 H   0  0  0  0  0  0  0  0  0  0  0  0
   -0.2353   65.4026   71.1415 H   0  0  0  0  0  0  0  0  0  0  0  0
    0.7611   67.3086   70.5442 H   0  0  0  0  0  0  0  0  0  0  0  0
    2.2361   66.3224   70.1830 H   0  0  0  0  0  0  0  0  0  0  0  0
    0.6544   66.1297   67.8958 H   0  0  0  0  0  0  0  0  0  0  0  0
   -1.0317   69.5733   62.6619 H   0  0  0  0  0  0  0  0  0  0  0  0
    0.6936   69.5572   62.1622 H   0  0  0  0  0  0  0  0  0  0  0  0
   -0.2558   68.0322   62.1622 H   0  0  0  0  0  0  0  0  0  0  0  0
   -1.0055   68.1316   67.0651 H   0  0  0  0  0  0  0  0  0  0  0  0
    2.4081   68.8900   63.6673 H   0  0  0  0  0  0  0  0  0  0  0  0
  2  1  2  0
  3  2  1  0
  4  3  2  0
  5  4  1  0
  6  1  1  0
  6  5  2  0
  7  4  1  0
  8  7  2  0
  9  7  2  0
 10  7  1  0
 11 10  1  0
 12 11  2  0
 13 11  1  0
 14 13  1  0
 15 14  1  0
 16 15  1  0
 17 16  1  0
 18 17  1  0
 19 18  1  0
 19 14  1  0
 20  1  1  0
 21 20  1  0
 23 22  2  0
 24 22  1  0
 24 21  1  0
 26 25  1  0
 27 26  2  0
 28 27  1  0
 29 28  2  0
 29 22  1  0
 30 29  1  0
 31 30  2  0
 31 26  1  0
  2 32  1  0
  3 33  1  0
  5 34  1  0
  6 35  1  0
 10 36  1  0
 13 37  1  0
 14 38  1  0
 15 39  1  0
 15 40  1  0
 16 41  1  0
 16 42  1  0
 17 43  1  0
 17 44  1  0
 18 45  1  0
 18 46  1  0
 19 47  1  0
 19 48  1  0
 20 49  1  0
 20 50  1  0
 21 51  1  0
 21 52  1  0
 24 53  1  0
 25 54  1  0
 25 55  1  0
 25 56  1  0
 28 57  1  0
 31 58  1  0
M  END
>  <score>  (3) 
-9.93

$$$$
=
     RDKit          3D

 58 60  0  0  0  0  0  0  0  0999 V2000
    1.0810   64.8380   70.6830 C   0  0  0  0  0  0  0  0  0  0  0  0
    0.4260   63.6710   71.1020 C   0  0  0  0  0  0  0  0  0  0  0  0
    1.1130   62.4560   71.1600 C   0  0  0  0  0  0  0  0  0  0  0  0
    2.4630   62.4090   70.8040 C   0  0  0  0  0  0  0  0  0  0  0  0
    3.1210   63.5590   70.3630 C   0  0  0  0  0  0  0  0  0  0  0  0
    2.4310   64.7710   70.3070 C   0  0  0  0  0  0  0  0  0  0  0  0
    3.3260   60.8590   70.8390 S   0  0  0  0  0  6  0  0  0  0  0  0
    4.6780   61.0710   71.3030 O   0  0  0  0  0  0  0  0  0  0  0  0
    3.0770   60.1990   69.5710 O   0  0  0  0  0  0  0  0  0  0  0  0
    2.4860   59.9670   71.9600 N   0  0  0  0  0  0  0  0  0  0  0  0
    2.5900   58.5990   72.1270 C   0  0  0  0  0  0  0  0  0  0  0  0
    3.3500   57.8920   71.4870 O   0  0  0  0  0  0  0  0  0  0  0  0
    1.7480   58.1360   73.0980 N   0  0  0  0  0  0  0  0  0  0  0  0
    1.5850   56.7100   73.3520 C   0  0  0  0  0  0  0  0  0  0  0  0
    2.2210   56.3500   74.7050 C   0  0  0  0  0  0  0  0  0  0  0  0
    1.5770   55.1180   75.3260 C   0  0  0  0  0  0  0  0  0  0  0  0
    0.0880   55.3380   75.6010 C   0  0  0  0  0  0  0  0  0  0  0  0
   -0.5770   56.3100   74.6250 C   0  0  0  0  0  0  0  0  0  0  0  0
    0.1040   56.2950   73.2590 C   0  0  0  0  0  0  0  0  0  0  0  0
    0.3320   66.1460   70.6050 C   0  0  0  0  0  0  0  0  0  0  0  0
   -0.2280   66.4040   69.2070 C   0  0  0  0  0  0  0  0  0  0  0  0
    0.5620   67.2540   67.0170 C   0  0  0  0  0  0  0  0  0  0  0  0
   -0.4460   66.9280   66.4020 O   0  0  0  0  0  0  0  0  0  0  0  0
    0.7180   67.1280   68.3820 N   0  0  0  0  0  0  0  0  0  0  0  0
    5.0720   69.4520   64.3640 C   0  0  0  0  0  0  0  0  0  0  0  0
    3.8840   68.8810   65.0730 C   0  0  0  0  0  0  0  0  0  0  0  0
    3.4820   69.4790   66.2230 N   0  0  0  0  0  0  0  0  0  0  0  0
    2.4000   68.9270   66.8310 C   0  0  0  0  0  0  0  0  0  0  0  0
    1.7480   67.8210   66.3140 C   0  0  0  0  0  0  0  0  0  0  0  0
    2.1390   67.2090   65.1580 N   0  0  0  0  0  0  0  0  0  0  0  0
    3.2190   67.7680   64.5610 C   0  0  0  0  0  0  0  0  0  0  0  0
   -0.6357   63.7126   71.3869 H   0  0  0  0  0  0  0  0  0  0  0  0
    0.5941   61.5418   71.4840 H   0  0  0  0  0  0  0  0  0  0  0  0
    4.1777   63.5100   70.0613 H   0  0  0  0  0  0  0  0  0  0  0  0
    2.9490   65.6795   69.9659 H   0  0  0  0  0  0  0  0  0  0  0  0
    1.8367   60.4728   72.5792 H   0  0  0  0  0  0  0  0  0  0  0  0
    1.2152   58.8112   73.6646 H   0  0  0  0  0  0  0  0  0  0  0  0
    2.1106   56.1372   72.5737 H   0  0  0  0  0  0  0  0  0  0  0  0
    3.2924   56.1526   74.5529 H   0  0  0  0  0  0  0  0  0  0  0  0
    2.0667   57.1968   75.3899 H   0  0  0  0  0  0  0  0  0  0  0  0
    1.6908   54.2694   74.6354 H   0  0  0  0  0  0  0  0  0  0  0  0
    2.0772   54.9148   76.2844 H   0  0  0  0  0  0  0  0  0  0  0  0
   -0.4259   54.3680   75.5303 H   0  0  0  0  0  0  0  0  0  0  0  0
    0.0070   55.7818   76.6043 H   0  0  0  0  0  0  0  0  0  0  0  0
   -1.6318   56.0238   74.5003 H   0  0  0  0  0  0  0  0  0  0  0  0
   -0.4896   57.3250   75.0399 H   0  0  0  0  0  0  0  0  0  0  0  0
    0.0448   55.2784   72.8430 H   0  0  0  0  0  0  0  0  0  0  0  0
   -0.4133   57.0185   72.6117 H   0  0  0  0  0  0  0  0  0  0  0  0
   -0.5017   66.1209   71.3222 H   0  0  0  0  0  0  0  0  0  0  0  0
    1.0378   66.9557   70.8424 H   0  0  0  0  0  0  0  0  0  0  0  0
   -0.4545   65.4396   68.7289 H   0  0  0  0  0  0  0  0  0  0  0  0
   -1.1376   67.0145   69.3065 H   0  0  0  0  0  0  0  0  0  0  0  0
    1.5361   67.5642   68.8307 H   0  0  0  0  0  0  0  0  0  0  0  0
    5.8058   69.8047   65.1037 H   0  0  0  0  0  0  0  0  0  0  0  0
    5.5307   68.6760   63.7336 H   0  0  0  0  0  0  0  0  0  0  0  0
    4.7526   70.2950   63.7336 H   0  0  0  0  0  0  0  0  0  0  0  0
    2.0296   69.3739   67.7654 H   0  0  0  0  0  0  0  0  0  0  0  0
    3.5894   67.3217   63.6263 H   0  0  0  0  0  0  0  0  0  0  0  0
  2  1  2  0
  3  2  1  0
  4  3  2  0
  5  4  1  0
  6  1  1  0
  6  5  2  0
  7  4  1  0
  8  7  2  0
  9  7  2  0
 10  7  1  0
 11 10  1  0
 12 11  2  0
 13 11  1  0
 14 13  1  0
 15 14  1  0
 16 15  1  0
 17 16  1  0
 18 17  1  0
 19 18  1  0
 19 14  1  0
 20  1  1  0
 21 20  1  0
 23 22  2  0
 24 22  1  0
 24 21  1  0
 26 25  1  0
 27 26  2  0
 28 27  1  0
 29 28  2  0
 29 22  1  0
 30 29  1  0
 31 30  2  0
 31 26  1  0
  2 32  1  0
  3 33  1  0
  5 34  1  0
  6 35  1  0
 10 36  1  0
 13 37  1  0
 14 38  1  0
 15 39  1  0
 15 40  1  0
 16 41  1  0
 16 42  1  0
 17 43  1  0
 17 44  1  0
 18 45  1  0
 18 46  1  0
 19 47  1  0
 19 48  1  0
 20 49  1  0
 20 50  1  0
 21 51  1  0
 21 52  1  0
 24 53  1  0
 25 54  1  0
 25 55  1  0
 25 56  1  0
 28 57  1  0
 31 58  1  0
M  END
>  <score>  (4) 
-9.914

$$$$
=
     RDKit          3D

 58 60  0  0  0  0  0  0  0  0999 V2000
   -0.0450   68.0720   67.5960 C   0  0  0  0  0  0  0  0  0  0  0  0
    1.1440   67.9470   68.3300 C   0  0  0  0  0  0  0  0  0  0  0  0
    1.2870   66.9300   69.2780 C   0  0  0  0  0  0  0  0  0  0  0  0
    0.2400   66.0300   69.4870 C   0  0  0  0  0  0  0  0  0  0  0  0
   -0.9580   66.1570   68.7800 C   0  0  0  0  0  0  0  0  0  0  0  0
   -1.0960   67.1740   67.8340 C   0  0  0  0  0  0  0  0  0  0  0  0
    0.4050   64.7640   70.7190 S   0  0  0  0  0  6  0  0  0  0  0  0
   -0.3720   63.6100   70.3300 O   0  0  0  0  0  0  0  0  0  0  0  0
    0.1990   65.3900   72.0110 O   0  0  0  0  0  0  0  0  0  0  0  0
    2.0220   64.3860   70.6790 N   0  0  0  0  0  0  0  0  0  0  0  0
    2.5660   63.1780   71.0740 C   0  0  0  0  0  0  0  0  0  0  0  0
    1.9050   62.2310   71.4650 O   0  0  0  0  0  0  0  0  0  0  0  0
    3.9280   63.1710   70.9670 N   0  0  0  0  0  0  0  0  0  0  0  0
    4.7270   62.0540   71.4580 C   0  0  0  0  0  0  0  0  0  0  0  0
    4.1260   61.5280   72.7720 C   0  0  0  0  0  0  0  0  0  0  0  0
    4.4630   60.0610   73.0030 C   0  0  0  0  0  0  0  0  0  0  0  0
    3.9010   59.1720   71.8920 C   0  0  0  0  0  0  0  0  0  0  0  0
    3.8060   59.8750   70.5360 C   0  0  0  0  0  0  0  0  0  0  0  0
    4.8690   60.9580   70.3850 C   0  0  0  0  0  0  0  0  0  0  0  0
   -0.2030   69.1810   66.5850 C   0  0  0  0  0  0  0  0  0  0  0  0
   -0.0790   68.6710   65.1500 C   0  0  0  0  0  0  0  0  0  0  0  0
    2.1910   67.8470   64.5930 C   0  0  0  0  0  0  0  0  0  0  0  0
    2.6680   68.9590   64.4020 O   0  0  0  0  0  0  0  0  0  0  0  0
    0.9080   67.6160   65.0470 N   0  0  0  0  0  0  0  0  0  0  0  0
    5.2180   63.1600   63.5580 C   0  0  0  0  0  0  0  0  0  0  0  0
    4.4270   64.4020   63.8230 C   0  0  0  0  0  0  0  0  0  0  0  0
    4.7410   65.5180   63.1170 N   0  0  0  0  0  0  0  0  0  0  0  0
    3.9970   66.6210   63.3900 C   0  0  0  0  0  0  0  0  0  0  0  0
    2.9820   66.6110   64.3320 C   0  0  0  0  0  0  0  0  0  0  0  0
    2.6530   65.4970   65.0490 N   0  0  0  0  0  0  0  0  0  0  0  0
    3.4020   64.4040   64.7670 C   0  0  0  0  0  0  0  0  0  0  0  0
    1.9691   68.6540   68.1583 H   0  0  0  0  0  0  0  0  0  0  0  0
    2.2186   66.8391   69.8559 H   0  0  0  0  0  0  0  0  0  0  0  0
   -1.7878   65.4597   68.9677 H   0  0  0  0  0  0  0  0  0  0  0  0
   -2.0359   67.2720   67.2710 H   0  0  0  0  0  0  0  0  0  0  0  0
    2.6700   65.1080   70.3329 H   0  0  0  0  0  0  0  0  0  0  0  0
    4.4019   63.9738   70.5291 H   0  0  0  0  0  0  0  0  0  0  0  0
    5.7483   62.4011   71.6736 H   0  0  0  0  0  0  0  0  0  0  0  0
    4.5255   62.1207   73.6082 H   0  0  0  0  0  0  0  0  0  0  0  0
    3.0318   61.6205   72.7077 H   0  0  0  0  0  0  0  0  0  0  0  0
    5.5566   59.9464   73.0329 H   0  0  0  0  0  0  0  0  0  0  0  0
    4.0090   59.7497   73.9553 H   0  0  0  0  0  0  0  0  0  0  0  0
    4.5553   58.2944   71.7840 H   0  0  0  0  0  0  0  0  0  0  0  0
    2.8774   58.8961   72.1855 H   0  0  0  0  0  0  0  0  0  0  0  0
    3.9408   59.1298   69.7382 H   0  0  0  0  0  0  0  0  0  0  0  0
    2.8178   60.3532   70.4668 H   0  0  0  0  0  0  0  0  0  0  0  0
    5.8631   60.4962   70.4774 H   0  0  0  0  0  0  0  0  0  0  0  0
    4.7406   61.4273   69.3985 H   0  0  0  0  0  0  0  0  0  0  0  0
   -1.1942   69.6403   66.7140 H   0  0  0  0  0  0  0  0  0  0  0  0
    0.6005   69.9126   66.7556 H   0  0  0  0  0  0  0  0  0  0  0  0
   -1.0544   68.2815   64.8231 H   0  0  0  0  0  0  0  0  0  0  0  0
    0.2412   69.5078   64.5119 H   0  0  0  0  0  0  0  0  0  0  0  0
    0.6432   66.6594   65.3223 H   0  0  0  0  0  0  0  0  0  0  0  0
    5.5105   62.7007   64.5138 H   0  0  0  0  0  0  0  0  0  0  0  0
    4.6050   62.4506   62.9827 H   0  0  0  0  0  0  0  0  0  0  0  0
    6.1201   63.4156   62.9827 H   0  0  0  0  0  0  0  0  0  0  0  0
    4.2076   67.5529   62.8449 H   0  0  0  0  0  0  0  0  0  0  0  0
    3.1905   63.4713   65.3104 H   0  0  0  0  0  0  0  0  0  0  0  0
  2  1  2  0
  3  2  1  0
  4  3  2  0
  5  4  1  0
  6  1  1  0
  6  5  2  0
  7  4  1  0
  8  7  2  0
  9  7  2  0
 10  7  1  0
 11 10  1  0
 12 11  2  0
 13 11  1  0
 14 13  1  0
 15 14  1  0
 16 15  1  0
 17 16  1  0
 18 17  1  0
 19 18  1  0
 19 14  1  0
 20  1  1  0
 21 20  1  0
 23 22  2  0
 24 22  1  0
 24 21  1  0
 26 25  1  0
 27 26  2  0
 28 27  1  0
 29 28  2  0
 29 22  1  0
 30 29  1  0
 31 30  2  0
 31 26  1  0
  2 32  1  0
  3 33  1  0
  5 34  1  0
  6 35  1  0
 10 36  1  0
 13 37  1  0
 14 38  1  0
 15 39  1  0
 15 40  1  0
 16 41  1  0
 16 42  1  0
 17 43  1  0
 17 44  1  0
 18 45  1  0
 18 46  1  0
 19 47  1  0
 19 48  1  0
 20 49  1  0
 20 50  1  0
 21 51  1  0
 21 52  1  0
 24 53  1  0
 25 54  1  0
 25 55  1  0
 25 56  1  0
 28 57  1  0
 31 58  1  0
M  END
>  <score>  (5) 
-9.871

$$$$
=
     RDKit          3D

 58 60  0  0  0  0  0  0  0  0999 V2000
    1.4760   63.8980   70.5880 C   0  0  0  0  0  0  0  0  0  0  0  0
    2.8270   64.0630   70.2480 C   0  0  0  0  0  0  0  0  0  0  0  0
    3.7290   63.0080   70.3990 C   0  0  0  0  0  0  0  0  0  0  0  0
    3.2770   61.7790   70.8860 C   0  0  0  0  0  0  0  0  0  0  0  0
    1.9390   61.6080   71.2510 C   0  0  0  0  0  0  0  0  0  0  0  0
    1.0420   62.6650   71.0970 C   0  0  0  0  0  0  0  0  0  0  0  0
    4.4300   60.4500   71.1170 S   0  0  0  0  0  6  0  0  0  0  0  0
    5.7470   60.8790   70.7040 O   0  0  0  0  0  0  0  0  0  0  0  0
    3.8320   59.2570   70.5500 O   0  0  0  0  0  0  0  0  0  0  0  0
    4.4160   60.1980   72.7590 N   0  0  0  0  0  0  0  0  0  0  0  0
    3.6090   59.2890   73.4170 C   0  0  0  0  0  0  0  0  0  0  0  0
    2.8350   58.5340   72.8520 O   0  0  0  0  0  0  0  0  0  0  0  0
    3.7870   59.3320   74.7710 N   0  0  0  0  0  0  0  0  0  0  0  0
    2.9450   58.5620   75.6770 C   0  0  0  0  0  0  0  0  0  0  0  0
    3.6270   57.2230   76.0040 C   0  0  0  0  0  0  0  0  0  0  0  0
    3.1830   56.6740   77.3530 C   0  0  0  0  0  0  0  0  0  0  0  0
    3.5450   57.6260   78.4950 C   0  0  0  0  0  0  0  0  0  0  0  0
    3.5630   59.0980   78.0810 C   0  0  0  0  0  0  0  0  0  0  0  0
    2.5940   59.3770   76.9370 C   0  0  0  0  0  0  0  0  0  0  0  0
    0.5070   65.0460   70.4400 C   0  0  0  0  0  0  0  0  0  0  0  0
    1.2170   66.3580   70.1110 C   0  0  0  0  0  0  0  0  0  0  0  0
    1.3980   67.9700   68.2370 C   0  0  0  0  0  0  0  0  0  0  0  0
    2.0920   68.7720   68.8480 O   0  0  0  0  0  0  0  0  0  0  0  0
    1.0080   66.7410   68.7290 N   0  0  0  0  0  0  0  0  0  0  0  0
   -0.4920   69.1320   63.0140 C   0  0  0  0  0  0  0  0  0  0  0  0
    0.0180   68.8250   64.3860 C   0  0  0  0  0  0  0  0  0  0  0  0
    1.3570   68.6760   64.5480 N   0  0  0  0  0  0  0  0  0  0  0  0
    1.7750   68.3990   65.8110 C   0  0  0  0  0  0  0  0  0  0  0  0
    0.8900   68.2720   66.8690 C   0  0  0  0  0  0  0  0  0  0  0  0
   -0.4600   68.4200   66.7220 N   0  0  0  0  0  0  0  0  0  0  0  0
   -0.8630   68.6960   65.4590 C   0  0  0  0  0  0  0  0  0  0  0  0
    3.1782   65.0304   69.8597 H   0  0  0  0  0  0  0  0  0  0  0  0
    4.7885   63.1436   70.1363 H   0  0  0  0  0  0  0  0  0  0  0  0
    1.5951   60.6454   71.6574 H   0  0  0  0  0  0  0  0  0  0  0  0
   -0.0133   62.5307   71.3767 H   0  0  0  0  0  0  0  0  0  0  0  0
    5.0590   60.7634   73.3315 H   0  0  0  0  0  0  0  0  0  0  0  0
    4.5349   59.9233   75.1608 H   0  0  0  0  0  0  0  0  0  0  0  0
    1.9876   58.3368   75.1844 H   0  0  0  0  0  0  0  0  0  0  0  0
    3.3714   56.4933   75.2216 H   0  0  0  0  0  0  0  0  0  0  0  0
    4.7126   57.3949   76.0466 H   0  0  0  0  0  0  0  0  0  0  0  0
    2.0923   56.5316   77.3391 H   0  0  0  0  0  0  0  0  0  0  0  0
    3.7016   55.7190   77.5235 H   0  0  0  0  0  0  0  0  0  0  0  0
    2.8064   57.5000   79.3004 H   0  0  0  0  0  0  0  0  0  0  0  0
    4.5643   57.3690   78.8190 H   0  0  0  0  0  0  0  0  0  0  0  0
    3.2790   59.7147   78.9465 H   0  0  0  0  0  0  0  0  0  0  0  0
    4.5783   59.3436   77.7363 H   0  0  0  0  0  0  0  0  0  0  0  0
    1.5763   59.1124   77.2600 H   0  0  0  0  0  0  0  0  0  0  0  0
    2.6635   60.4451   76.6833 H   0  0  0  0  0  0  0  0  0  0  0  0
   -0.1992   64.8119   69.6298 H   0  0  0  0  0  0  0  0  0  0  0  0
   -0.0152   65.1746   71.3996 H   0  0  0  0  0  0  0  0  0  0  0  0
    0.8250   67.1507   70.7651 H   0  0  0  0  0  0  0  0  0  0  0  0
    2.2961   66.2170   70.2715 H   0  0  0  0  0  0  0  0  0  0  0  0
    0.5524   66.0724   68.0916 H   0  0  0  0  0  0  0  0  0  0  0  0
   -1.4321   69.6979   63.0904 H   0  0  0  0  0  0  0  0  0  0  0  0
    0.2537   69.7314   62.4712 H   0  0  0  0  0  0  0  0  0  0  0  0
   -0.6727   68.1924   62.4712 H   0  0  0  0  0  0  0  0  0  0  0  0
    2.8512   68.2715   65.9993 H   0  0  0  0  0  0  0  0  0  0  0  0
   -1.9390   68.8248   65.2702 H   0  0  0  0  0  0  0  0  0  0  0  0
  2  1  2  0
  3  2  1  0
  4  3  2  0
  5  4  1  0
  6  1  1  0
  6  5  2  0
  7  4  1  0
  8  7  2  0
  9  7  2  0
 10  7  1  0
 11 10  1  0
 12 11  2  0
 13 11  1  0
 14 13  1  0
 15 14  1  0
 16 15  1  0
 17 16  1  0
 18 17  1  0
 19 18  1  0
 19 14  1  0
 20  1  1  0
 21 20  1  0
 23 22  2  0
 24 22  1  0
 24 21  1  0
 26 25  1  0
 27 26  2  0
 28 27  1  0
 29 28  2  0
 29 22  1  0
 30 29  1  0
 31 30  2  0
 31 26  1  0
  2 32  1  0
  3 33  1  0
  5 34  1  0
  6 35  1  0
 10 36  1  0
 13 37  1  0
 14 38  1  0
 15 39  1  0
 15 40  1  0
 16 41  1  0
 16 42  1  0
 17 43  1  0
 17 44  1  0
 18 45  1  0
 18 46  1  0
 19 47  1  0
 19 48  1  0
 20 49  1  0
 20 50  1  0
 21 51  1  0
 21 52  1  0
 24 53  1  0
 25 54  1  0
 25 55  1  0
 25 56  1  0
 28 57  1  0
 31 58  1  0
M  END
>  <score>  (6) 
-8.828

$$$$
=
     RDKit          3D

 58 60  0  0  0  0  0  0  0  0999 V2000
    1.4120   65.0700   70.5610 C   0  0  0  0  0  0  0  0  0  0  0  0
    2.4810   64.1850   70.3600 C   0  0  0  0  0  0  0  0  0  0  0  0
    2.4670   62.9150   70.9410 C   0  0  0  0  0  0  0  0  0  0  0  0
    1.3760   62.5250   71.7210 C   0  0  0  0  0  0  0  0  0  0  0  0
    0.3160   63.4050   71.9490 C   0  0  0  0  0  0  0  0  0  0  0  0
    0.3340   64.6720   71.3660 C   0  0  0  0  0  0  0  0  0  0  0  0
    1.3770   60.9280   72.4930 S   0  0  0  0  0  6  0  0  0  0  0  0
    2.2960   60.0570   71.7960 O   0  0  0  0  0  0  0  0  0  0  0  0
   -0.0080   60.5390   72.6810 O   0  0  0  0  0  0  0  0  0  0  0  0
    1.9490   61.2300   74.0230 N   0  0  0  0  0  0  0  0  0  0  0  0
    1.9660   60.3170   75.0610 C   0  0  0  0  0  0  0  0  0  0  0  0
    1.5920   59.1620   74.9550 O   0  0  0  0  0  0  0  0  0  0  0  0
    2.4570   60.8620   76.2130 N   0  0  0  0  0  0  0  0  0  0  0  0
    2.4390   60.1280   77.4730 C   0  0  0  0  0  0  0  0  0  0  0  0
    3.5300   59.0440   77.4550 C   0  0  0  0  0  0  0  0  0  0  0  0
    4.0010   58.6900   78.8590 C   0  0  0  0  0  0  0  0  0  0  0  0
    4.6130   59.8980   79.5700 C   0  0  0  0  0  0  0  0  0  0  0  0
    4.0150   61.2350   79.1290 C   0  0  0  0  0  0  0  0  0  0  0  0
    2.5660   61.0840   78.6750 C   0  0  0  0  0  0  0  0  0  0  0  0
    1.4360   66.4470   69.9460 C   0  0  0  0  0  0  0  0  0  0  0  0
    0.2020   66.7140   69.0860 C   0  0  0  0  0  0  0  0  0  0  0  0
   -0.3770   67.5980   66.8440 C   0  0  0  0  0  0  0  0  0  0  0  0
   -1.5870   67.6010   67.0360 O   0  0  0  0  0  0  0  0  0  0  0  0
    0.5640   67.2790   67.8010 N   0  0  0  0  0  0  0  0  0  0  0  0
    1.8440   68.8880   61.7830 C   0  0  0  0  0  0  0  0  0  0  0  0
    1.2690   68.5410   63.1200 C   0  0  0  0  0  0  0  0  0  0  0  0
    2.0330   67.8110   63.9710 N   0  0  0  0  0  0  0  0  0  0  0  0
    1.4710   67.5200   65.1730 C   0  0  0  0  0  0  0  0  0  0  0  0
    0.1950   67.9400   65.5110 C   0  0  0  0  0  0  0  0  0  0  0  0
   -0.5860   68.6760   64.6670 N   0  0  0  0  0  0  0  0  0  0  0  0
   -0.0140   68.9590   63.4720 C   0  0  0  0  0  0  0  0  0  0  0  0
    3.3363   64.4931   69.7406 H   0  0  0  0  0  0  0  0  0  0  0  0
    3.3102   62.2260   70.7852 H   0  0  0  0  0  0  0  0  0  0  0  0
   -0.5285   63.1007   72.5848 H   0  0  0  0  0  0  0  0  0  0  0  0
   -0.5032   65.3643   71.5386 H   0  0  0  0  0  0  0  0  0  0  0  0
    2.3203   62.1717   74.2134 H   0  0  0  0  0  0  0  0  0  0  0  0
    2.8493   61.8141   76.1914 H   0  0  0  0  0  0  0  0  0  0  0  0
    1.4688   59.6226   77.5885 H   0  0  0  0  0  0  0  0  0  0  0  0
    3.1252   58.1398   76.9770 H   0  0  0  0  0  0  0  0  0  0  0  0
    4.3916   59.4364   76.8949 H   0  0  0  0  0  0  0  0  0  0  0  0
    3.1415   58.3297   79.4434 H   0  0  0  0  0  0  0  0  0  0  0  0
    4.7742   57.9120   78.7761 H   0  0  0  0  0  0  0  0  0  0  0  0
    4.4503   59.7841   80.6519 H   0  0  0  0  0  0  0  0  0  0  0  0
    5.6811   59.9199   79.3079 H   0  0  0  0  0  0  0  0  0  0  0  0
    4.0521   61.9380   79.9742 H   0  0  0  0  0  0  0  0  0  0  0  0
    4.6032   61.6093   78.2782 H   0  0  0  0  0  0  0  0  0  0  0  0
    1.9708   60.6866   79.5103 H   0  0  0  0  0  0  0  0  0  0  0  0
    2.2003   62.0739   78.3644 H   0  0  0  0  0  0  0  0  0  0  0  0
    1.4752   67.1947   70.7518 H   0  0  0  0  0  0  0  0  0  0  0  0
    2.3217   66.5127   69.2970 H   0  0  0  0  0  0  0  0  0  0  0  0
   -0.3319   65.7663   68.9225 H   0  0  0  0  0  0  0  0  0  0  0  0
   -0.4375   67.4368   69.6138 H   0  0  0  0  0  0  0  0  0  0  0  0
    1.5589   67.4482   67.5952 H   0  0  0  0  0  0  0  0  0  0  0  0
    2.7784   69.4519   61.9209 H   0  0  0  0  0  0  0  0  0  0  0  0
    2.0522   67.9647   61.2226 H   0  0  0  0  0  0  0  0  0  0  0  0
    1.1241   69.5026   61.2226 H   0  0  0  0  0  0  0  0  0  0  0  0
    2.0480   66.9317   65.9017 H   0  0  0  0  0  0  0  0  0  0  0  0
   -0.5902   69.5478   62.7431 H   0  0  0  0  0  0  0  0  0  0  0  0
  2  1  2  0
  3  2  1  0
  4  3  2  0
  5  4  1  0
  6  1  1  0
  6  5  2  0
  7  4  1  0
  8  7  2  0
  9  7  2  0
 10  7  1  0
 11 10  1  0
 12 11  2  0
 13 11  1  0
 14 13  1  0
 15 14  1  0
 16 15  1  0
 17 16  1  0
 18 17  1  0
 19 18  1  0
 19 14  1  0
 20  1  1  0
 21 20  1  0
 23 22  2  0
 24 22  1  0
 24 21  1  0
 26 25  1  0
 27 26  2  0
 28 27  1  0
 29 28  2  0
 29 22  1  0
 30 29  1  0
 31 30  2  0
 31 26  1  0
  2 32  1  0
  3 33  1  0
  5 34  1  0
  6 35  1  0
 10 36  1  0
 13 37  1  0
 14 38  1  0
 15 39  1  0
 15 40  1  0
 16 41  1  0
 16 42  1  0
 17 43  1  0
 17 44  1  0
 18 45  1  0
 18 46  1  0
 19 47  1  0
 19 48  1  0
 20 49  1  0
 20 50  1  0
 21 51  1  0
 21 52  1  0
 24 53  1  0
 25 54  1  0
 25 55  1  0
 25 56  1  0
 28 57  1  0
 31 58  1  0
M  END
>  <score>  (7) 
-8.819

$$$$
=
     RDKit          3D

 58 60  0  0  0  0  0  0  0  0999 V2000
    1.2940   64.3430   71.0080 C   0  0  0  0  0  0  0  0  0  0  0  0
    1.6510   62.9920   71.1270 C   0  0  0  0  0  0  0  0  0  0  0  0
    1.1290   62.2110   72.1610 C   0  0  0  0  0  0  0  0  0  0  0  0
    0.2400   62.7810   73.0750 C   0  0  0  0  0  0  0  0  0  0  0  0
   -0.1060   64.1310   72.9820 C   0  0  0  0  0  0  0  0  0  0  0  0
    0.4180   64.9070   71.9470 C   0  0  0  0  0  0  0  0  0  0  0  0
   -0.3910   61.8000   74.4110 S   0  0  0  0  0  6  0  0  0  0  0  0
   -1.8250   61.9680   74.4960 O   0  0  0  0  0  0  0  0  0  0  0  0
    0.4490   62.0520   75.5660 O   0  0  0  0  0  0  0  0  0  0  0  0
   -0.0390   60.2420   73.9560 N   0  0  0  0  0  0  0  0  0  0  0  0
   -0.3800   59.1080   74.6700 C   0  0  0  0  0  0  0  0  0  0  0  0
   -1.0200   59.1260   75.7080 O   0  0  0  0  0  0  0  0  0  0  0  0
    0.0770   57.9690   74.0710 N   0  0  0  0  0  0  0  0  0  0  0  0
   -0.0430   56.6670   74.7150 C   0  0  0  0  0  0  0  0  0  0  0  0
   -0.4410   55.6100   73.6710 C   0  0  0  0  0  0  0  0  0  0  0  0
    0.0190   54.2150   74.0720 C   0  0  0  0  0  0  0  0  0  0  0  0
    1.5410   54.1370   74.1960 C   0  0  0  0  0  0  0  0  0  0  0  0
    2.1880   55.4570   74.6180 C   0  0  0  0  0  0  0  0  0  0  0  0
    1.2470   56.3000   75.4730 C   0  0  0  0  0  0  0  0  0  0  0  0
    1.8720   65.1900   69.9010 C   0  0  0  0  0  0  0  0  0  0  0  0
    1.0870   66.4850   69.6980 C   0  0  0  0  0  0  0  0  0  0  0  0
    1.4150   68.0760   67.8270 C   0  0  0  0  0  0  0  0  0  0  0  0
    2.0230   68.9050   68.4920 O   0  0  0  0  0  0  0  0  0  0  0  0
    1.0100   66.8430   68.2960 N   0  0  0  0  0  0  0  0  0  0  0  0
   -0.0510   69.0900   62.4390 C   0  0  0  0  0  0  0  0  0  0  0  0
    0.3230   68.8230   63.8630 C   0  0  0  0  0  0  0  0  0  0  0  0
   -0.6780   68.6870   64.7690 N   0  0  0  0  0  0  0  0  0  0  0  0
   -0.2920   68.4460   66.0480 C   0  0  0  0  0  0  0  0  0  0  0  0
    1.0420   68.3460   66.4090 C   0  0  0  0  0  0  0  0  0  0  0  0
    2.0600   68.4790   65.5100 N   0  0  0  0  0  0  0  0  0  0  0  0
    1.6620   68.7200   64.2380 C   0  0  0  0  0  0  0  0  0  0  0  0
    2.3464   62.5445   70.4016 H   0  0  0  0  0  0  0  0  0  0  0  0
    1.4165   61.1534   72.2548 H   0  0  0  0  0  0  0  0  0  0  0  0
   -0.7872   64.5798   73.7199 H   0  0  0  0  0  0  0  0  0  0  0  0
    0.1419   65.9688   71.8671 H   0  0  0  0  0  0  0  0  0  0  0  0
    0.4737   60.1101   73.0724 H   0  0  0  0  0  0  0  0  0  0  0  0
    0.5170   58.0315   73.1418 H   0  0  0  0  0  0  0  0  0  0  0  0
   -0.8396   56.7058   75.4726 H   0  0  0  0  0  0  0  0  0  0  0  0
   -1.5361   55.6073   73.5672 H   0  0  0  0  0  0  0  0  0  0  0  0
    0.0467   55.8696   72.7198 H   0  0  0  0  0  0  0  0  0  0  0  0
   -0.4317   53.9556   75.0413 H   0  0  0  0  0  0  0  0  0  0  0  0
   -0.2985   53.5103   73.2893 H   0  0  0  0  0  0  0  0  0  0  0  0
    1.7903   53.3718   74.9459 H   0  0  0  0  0  0  0  0  0  0  0  0
    1.9342   53.8885   73.1992 H   0  0  0  0  0  0  0  0  0  0  0  0
    3.0970   55.2389   75.1978 H   0  0  0  0  0  0  0  0  0  0  0  0
    2.4273   56.0272   73.7083 H   0  0  0  0  0  0  0  0  0  0  0  0
    0.9797   55.7303   76.3752 H   0  0  0  0  0  0  0  0  0  0  0  0
    1.7670   57.2336   75.7336 H   0  0  0  0  0  0  0  0  0  0  0  0
    2.9125   65.4420   70.1537 H   0  0  0  0  0  0  0  0  0  0  0  0
    1.8168   64.6108   68.9675 H   0  0  0  0  0  0  0  0  0  0  0  0
    0.0678   66.3507   70.0895 H   0  0  0  0  0  0  0  0  0  0  0  0
    1.6077   67.2927   70.2332 H   0  0  0  0  0  0  0  0  0  0  0  0
    0.6402   66.1533   67.6263 H   0  0  0  0  0  0  0  0  0  0  0  0
   -0.9459   69.7289   62.4086 H   0  0  0  0  0  0  0  0  0  0  0  0
    0.7808   69.5997   61.9308 H   0  0  0  0  0  0  0  0  0  0  0  0
   -0.2629   68.1377   61.9308 H   0  0  0  0  0  0  0  0  0  0  0  0
   -1.0634   68.3262   66.8230 H   0  0  0  0  0  0  0  0  0  0  0  0
    2.4330   68.8404   63.4627 H   0  0  0  0  0  0  0  0  0  0  0  0
  2  1  2  0
  3  2  1  0
  4  3  2  0
  5  4  1  0
  6  1  1  0
  6  5  2  0
  7  4  1  0
  8  7  2  0
  9  7  2  0
 10  7  1  0
 11 10  1  0
 12 11  2  0
 13 11  1  0
 14 13  1  0
 15 14  1  0
 16 15  1  0
 17 16  1  0
 18 17  1  0
 19 18  1  0
 19 14  1  0
 20  1  1  0
 21 20  1  0
 23 22  2  0
 24 22  1  0
 24 21  1  0
 26 25  1  0
 27 26  2  0
 28 27  1  0
 29 28  2  0
 29 22  1  0
 30 29  1  0
 31 30  2  0
 31 26  1  0
  2 32  1  0
  3 33  1  0
  5 34  1  0
  6 35  1  0
 10 36  1  0
 13 37  1  0
 14 38  1  0
 15 39  1  0
 15 40  1  0
 16 41  1  0
 16 42  1  0
 17 43  1  0
 17 44  1  0
 18 45  1  0
 18 46  1  0
 19 47  1  0
 19 48  1  0
 20 49  1  0
 20 50  1  0
 21 51  1  0
 21 52  1  0
 24 53  1  0
 25 54  1  0
 25 55  1  0
 25 56  1  0
 28 57  1  0
 31 58  1  0
M  END
>  <score>  (8) 
-8.322

$$$$
=
     RDKit          3D

 58 60  0  0  0  0  0  0  0  0999 V2000
   -0.0910   65.4280   70.2460 C   0  0  0  0  0  0  0  0  0  0  0  0
    0.0870   64.0370   70.2220 C   0  0  0  0  0  0  0  0  0  0  0  0
    0.2550   63.3240   71.4110 C   0  0  0  0  0  0  0  0  0  0  0  0
    0.2370   64.0040   72.6310 C   0  0  0  0  0  0  0  0  0  0  0  0
    0.0840   65.3920   72.6690 C   0  0  0  0  0  0  0  0  0  0  0  0
   -0.0840   66.0990   71.4780 C   0  0  0  0  0  0  0  0  0  0  0  0
    0.4900   63.1040   74.1390 S   0  0  0  0  0  6  0  0  0  0  0  0
   -0.4420   62.0010   74.2040 O   0  0  0  0  0  0  0  0  0  0  0  0
    0.5570   64.0760   75.2140 O   0  0  0  0  0  0  0  0  0  0  0  0
    2.0370   62.5190   73.9930 N   0  0  0  0  0  0  0  0  0  0  0  0
    2.4460   61.5750   73.0690 C   0  0  0  0  0  0  0  0  0  0  0  0
    1.7140   61.0910   72.2240 O   0  0  0  0  0  0  0  0  0  0  0  0
    3.7670   61.2580   73.2130 N   0  0  0  0  0  0  0  0  0  0  0  0
    4.3830   60.1850   72.4410 C   0  0  0  0  0  0  0  0  0  0  0  0
    3.3460   59.0830   72.1690 C   0  0  0  0  0  0  0  0  0  0  0  0
    3.6730   58.2950   70.9070 C   0  0  0  0  0  0  0  0  0  0  0  0
    3.6750   59.1910   69.6680 C   0  0  0  0  0  0  0  0  0  0  0  0
    4.0810   60.6370   69.9600 C   0  0  0  0  0  0  0  0  0  0  0  0
    5.0290   60.7290   71.1510 C   0  0  0  0  0  0  0  0  0  0  0  0
   -0.2550   66.1980   68.9590 C   0  0  0  0  0  0  0  0  0  0  0  0
    0.7370   67.3560   68.8520 C   0  0  0  0  0  0  0  0  0  0  0  0
    1.8080   68.6540   67.0330 C   0  0  0  0  0  0  0  0  0  0  0  0
    2.0520   69.6340   67.7260 O   0  0  0  0  0  0  0  0  0  0  0  0
    1.2650   67.4780   67.5080 N   0  0  0  0  0  0  0  0  0  0  0  0
    2.8730   68.6890   61.4590 C   0  0  0  0  0  0  0  0  0  0  0  0
    2.6040   68.6820   62.9310 C   0  0  0  0  0  0  0  0  0  0  0  0
    3.6490   68.9060   63.7680 N   0  0  0  0  0  0  0  0  0  0  0  0
    3.3580   68.8900   65.0950 C   0  0  0  0  0  0  0  0  0  0  0  0
    2.0770   68.6580   65.5670 C   0  0  0  0  0  0  0  0  0  0  0  0
    1.0160   68.4320   64.7370 N   0  0  0  0  0  0  0  0  0  0  0  0
    1.3190   68.4500   63.4170 C   0  0  0  0  0  0  0  0  0  0  0  0
    0.0943   63.5039   69.2598 H   0  0  0  0  0  0  0  0  0  0  0  0
    0.4006   62.2339   71.3869 H   0  0  0  0  0  0  0  0  0  0  0  0
    0.0959   65.9241   73.6317 H   0  0  0  0  0  0  0  0  0  0  0  0
   -0.2120   67.1912   71.5052 H   0  0  0  0  0  0  0  0  0  0  0  0
    2.7474   62.8880   74.6412 H   0  0  0  0  0  0  0  0  0  0  0  0
    4.3415   61.7894   73.8827 H   0  0  0  0  0  0  0  0  0  0  0  0
    5.2004   59.7367   73.0248 H   0  0  0  0  0  0  0  0  0  0  0  0
    3.3280   58.3924   73.0250 H   0  0  0  0  0  0  0  0  0  0  0  0
    2.3668   59.5636   72.0269 H   0  0  0  0  0  0  0  0  0  0  0  0
    4.6675   57.8385   71.0189 H   0  0  0  0  0  0  0  0  0  0  0  0
    2.8996   57.5244   70.7728 H   0  0  0  0  0  0  0  0  0  0  0  0
    4.3818   58.7720   68.9367 H   0  0  0  0  0  0  0  0  0  0  0  0
    2.6439   59.2158   69.2855 H   0  0  0  0  0  0  0  0  0  0  0  0
    4.5820   61.0523   69.0731 H   0  0  0  0  0  0  0  0  0  0  0  0
    3.1711   61.2056   70.2023 H   0  0  0  0  0  0  0  0  0  0  0  0
    5.9339   60.1433   70.9317 H   0  0  0  0  0  0  0  0  0  0  0  0
    5.2734   61.7893   71.3121 H   0  0  0  0  0  0  0  0  0  0  0  0
   -0.0940   65.5136   68.1131 H   0  0  0  0  0  0  0  0  0  0  0  0
   -1.2710   66.6194   68.9432 H   0  0  0  0  0  0  0  0  0  0  0  0
    0.2252   68.2916   69.1217 H   0  0  0  0  0  0  0  0  0  0  0  0
    1.5751   67.1580   69.5364 H   0  0  0  0  0  0  0  0  0  0  0  0
    1.2338   66.6580   66.8855 H   0  0  0  0  0  0  0  0  0  0  0  0
    3.9588   68.7173   61.2848 H   0  0  0  0  0  0  0  0  0  0  0  0
    2.4524   67.7796   61.0051 H   0  0  0  0  0  0  0  0  0  0  0  0
    2.4056   69.5753   61.0051 H   0  0  0  0  0  0  0  0  0  0  0  0
    4.1672   69.0673   65.8188 H   0  0  0  0  0  0  0  0  0  0  0  0
    0.5104   68.2726   62.6927 H   0  0  0  0  0  0  0  0  0  0  0  0
  2  1  2  0
  3  2  1  0
  4  3  2  0
  5  4  1  0
  6  1  1  0
  6  5  2  0
  7  4  1  0
  8  7  2  0
  9  7  2  0
 10  7  1  0
 11 10  1  0
 12 11  2  0
 13 11  1  0
 14 13  1  0
 15 14  1  0
 16 15  1  0
 17 16  1  0
 18 17  1  0
 19 18  1  0
 19 14  1  0
 20  1  1  0
 21 20  1  0
 23 22  2  0
 24 22  1  0
 24 21  1  0
 26 25  1  0
 27 26  2  0
 28 27  1  0
 29 28  2  0
 29 22  1  0
 30 29  1  0
 31 30  2  0
 31 26  1  0
  2 32  1  0
  3 33  1  0
  5 34  1  0
  6 35  1  0
 10 36  1  0
 13 37  1  0
 14 38  1  0
 15 39  1  0
 15 40  1  0
 16 41  1  0
 16 42  1  0
 17 43  1  0
 17 44  1  0
 18 45  1  0
 18 46  1  0
 19 47  1  0
 19 48  1  0
 20 49  1  0
 20 50  1  0
 21 51  1  0
 21 52  1  0
 24 53  1  0
 25 54  1  0
 25 55  1  0
 25 56  1  0
 28 57  1  0
 31 58  1  0
M  END
>  <score>  (9) 
-8.235

$$$$
