=
     RDKit          3D

 33 35  0  0  0  0  0  0  0  0999 V2000
    1.1440   67.5920   68.0850 N   0  0  0  0  0  0  0  0  0  0  0  0
    0.8570   68.0800   66.8160 C   0  0  0  0  0  0  0  0  0  0  0  0
   -0.2580   67.8960   66.3340 O   0  0  0  0  0  0  0  0  0  0  0  0
    1.9670   68.6810   66.1730 N   0  0  0  0  0  0  0  0  0  0  0  0
    2.0610   68.7370   64.7280 C   0  0  0  0  0  0  0  0  0  0  0  0
    0.9110   68.7320   63.9150 C   0  0  0  0  0  0  0  0  0  0  0  0
    0.9870   68.7740   62.5180 C   0  0  0  0  0  0  0  0  0  0  0  0
    2.2210   68.8170   61.8880 C   0  0  0  0  0  0  0  0  0  0  0  0
    3.3770   68.8200   62.6610 C   0  0  0  0  0  0  0  0  0  0  0  0
    3.3040   68.7830   64.0650 C   0  0  0  0  0  0  0  0  0  0  0  0
    4.8520   68.7130   64.9360 S   0  0  0  0  0  0  0  0  0  0  0  0
    4.3310   69.4540   66.4570 C   0  0  0  0  0  0  0  0  0  0  0  0
    3.0090   69.3590   66.9160 C   0  0  0  0  0  0  0  0  0  0  0  0
    2.6950   70.0020   68.1320 C   0  0  0  0  0  0  0  0  0  0  0  0
    3.6650   70.6700   68.8830 C   0  0  0  0  0  0  0  0  0  0  0  0
    4.9750   70.7230   68.4290 C   0  0  0  0  0  0  0  0  0  0  0  0
    5.3060   70.1210   67.2180 C   0  0  0  0  0  0  0  0  0  0  0  0
    0.7880   66.1960   70.0790 C   0  0  0  0  0  0  0  0  0  0  0  0
    0.1750   66.8260   68.8400 C   0  0  0  0  0  0  0  0  0  0  0  0
    2.0685   67.7798   68.4984 H   0  0  0  0  0  0  0  0  0  0  0  0
   -0.0788   68.6939   64.3933 H   0  0  0  0  0  0  0  0  0  0  0  0
    0.0648   68.7729   61.9183 H   0  0  0  0  0  0  0  0  0  0  0  0
    2.2850   68.8484   60.7903 H   0  0  0  0  0  0  0  0  0  0  0  0
    4.3601   68.8517   62.1685 H   0  0  0  0  0  0  0  0  0  0  0  0
    1.6582   69.9766   68.4986 H   0  0  0  0  0  0  0  0  0  0  0  0
    3.3908   71.1531   69.8325 H   0  0  0  0  0  0  0  0  0  0  0  0
    5.7464   71.2368   69.0214 H   0  0  0  0  0  0  0  0  0  0  0  0
    6.3425   70.1680   66.8528 H   0  0  0  0  0  0  0  0  0  0  0  0
    0.3461   66.6502   70.9781 H   0  0  0  0  0  0  0  0  0  0  0  0
    0.5872   65.1145   70.0780 H   0  0  0  0  0  0  0  0  0  0  0  0
    1.8746   66.3672   70.0780 H   0  0  0  0  0  0  0  0  0  0  0  0
   -0.2257   66.0283   68.1973 H   0  0  0  0  0  0  0  0  0  0  0  0
   -0.6208   67.5119   69.1660 H   0  0  0  0  0  0  0  0  0  0  0  0
  2  1  1  0
  3  2  2  0
  4  2  1  0
  5  4  1  0
  6  5  2  0
  7  6  1  0
  8  7  2  0
  9  8  1  0
 10  9  2  0
 10  5  1  0
 11 10  1  0
 12 11  1  0
 13 12  2  0
 13  4  1  0
 14 13  1  0
 15 14  2  0
 16 15  1  0
 17 16  2  0
 17 12  1  0
 19 18  1  0
 19  1  1  0
  1 20  1  0
  6 21  1  0
  7 22  1  0
  8 23  1  0
  9 24  1  0
 14 25  1  0
 15 26  1  0
 16 27  1  0
 17 28  1  0
 18 29  1  0
 18 30  1  0
 18 31  1  0
 19 32  1  0
 19 33  1  0
M  END
>  <score>  (1) 
-10.156

$$$$
=
     RDKit          3D

 33 35  0  0  0  0  0  0  0  0999 V2000
    3.7290   66.8310   64.1250 N   0  0  0  0  0  0  0  0  0  0  0  0
    4.3990   67.9650   64.5710 C   0  0  0  0  0  0  0  0  0  0  0  0
    5.5450   68.1820   64.1880 O   0  0  0  0  0  0  0  0  0  0  0  0
    3.6700   68.7150   65.5270 N   0  0  0  0  0  0  0  0  0  0  0  0
    4.3430   69.5540   66.4980 C   0  0  0  0  0  0  0  0  0  0  0  0
    5.6120   70.1060   66.2400 C   0  0  0  0  0  0  0  0  0  0  0  0
    6.2800   70.9080   67.1740 C   0  0  0  0  0  0  0  0  0  0  0  0
    5.6970   71.1780   68.4020 C   0  0  0  0  0  0  0  0  0  0  0  0
    4.4460   70.6450   68.6910 C   0  0  0  0  0  0  0  0  0  0  0  0
    3.7700   69.8440   67.7530 C   0  0  0  0  0  0  0  0  0  0  0  0
    2.2130   69.1610   68.2720 S   0  0  0  0  0  0  0  0  0  0  0  0
    1.4630   68.9800   66.6780 C   0  0  0  0  0  0  0  0  0  0  0  0
    2.2230   68.7680   65.5180 C   0  0  0  0  0  0  0  0  0  0  0  0
    1.5260   68.6570   64.2970 C   0  0  0  0  0  0  0  0  0  0  0  0
    0.1310   68.7040   64.2370 C   0  0  0  0  0  0  0  0  0  0  0  0
   -0.6040   68.8790   65.4010 C   0  0  0  0  0  0  0  0  0  0  0  0
    0.0600   69.0200   66.6160 C   0  0  0  0  0  0  0  0  0  0  0  0
    4.5150   64.5100   63.9150 C   0  0  0  0  0  0  0  0  0  0  0  0
    4.3680   65.8690   63.2520 C   0  0  0  0  0  0  0  0  0  0  0  0
    2.7558   66.6718   64.4226 H   0  0  0  0  0  0  0  0  0  0  0  0
    6.0948   69.9008   65.2732 H   0  0  0  0  0  0  0  0  0  0  0  0
    7.2691   71.3243   66.9324 H   0  0  0  0  0  0  0  0  0  0  0  0
    6.2180   71.8066   69.1392 H   0  0  0  0  0  0  0  0  0  0  0  0
    3.9791   70.8522   69.6652 H   0  0  0  0  0  0  0  0  0  0  0  0
    2.0969   68.5298   63.3654 H   0  0  0  0  0  0  0  0  0  0  0  0
   -0.3832   68.6026   63.2699 H   0  0  0  0  0  0  0  0  0  0  0  0
   -1.7030   68.9061   65.3637 H   0  0  0  0  0  0  0  0  0  0  0  0
   -0.5207   69.1645   67.5390 H   0  0  0  0  0  0  0  0  0  0  0  0
    4.5018   64.6320   65.0081 H   0  0  0  0  0  0  0  0  0  0  0  0
    3.6819   63.8604   63.6085 H   0  0  0  0  0  0  0  0  0  0  0  0
    5.4678   64.0536   63.6085 H   0  0  0  0  0  0  0  0  0  0  0  0
    5.3668   66.2426   62.9822 H   0  0  0  0  0  0  0  0  0  0  0  0
    3.7355   65.7460   62.3605 H   0  0  0  0  0  0  0  0  0  0  0  0
  2  1  1  0
  3  2  2  0
  4  2  1  0
  5  4  1  0
  6  5  2  0
  7  6  1  0
  8  7  2  0
  9  8  1  0
 10  9  2  0
 10  5  1  0
 11 10  1  0
 12 11  1  0
 13 12  2  0
 13  4  1  0
 14 13  1  0
 15 14  2  0
 16 15  1  0
 17 16  2  0
 17 12  1  0
 19 18  1  0
 19  1  1  0
  1 20  1  0
  6 21  1  0
  7 22  1  0
  8 23  1  0
  9 24  1  0
 14 25  1  0
 15 26  1  0
 16 27  1  0
 17 28  1  0
 18 29  1  0
 18 30  1  0
 18 31  1  0
 19 32  1  0
 19 33  1  0
M  END
>  <score>  (2) 
-9.903

$$$$
=
     RDKit          3D

 33 35  0  0  0  0  0  0  0  0999 V2000
    1.5640   68.9380   66.4540 N   0  0  0  0  0  0  0  0  0  0  0  0
    1.8120   67.5890   66.2270 C   0  0  0  0  0  0  0  0  0  0  0  0
    1.7630   66.7980   67.1660 O   0  0  0  0  0  0  0  0  0  0  0  0
    2.1960   67.2990   64.8950 N   0  0  0  0  0  0  0  0  0  0  0  0
    3.0100   66.1400   64.5820 C   0  0  0  0  0  0  0  0  0  0  0  0
    3.0040   64.9940   65.3990 C   0  0  0  0  0  0  0  0  0  0  0  0
    3.7930   63.8730   65.1150 C   0  0  0  0  0  0  0  0  0  0  0  0
    4.6210   63.8680   64.0030 C   0  0  0  0  0  0  0  0  0  0  0  0
    4.6530   64.9850   63.1770 C   0  0  0  0  0  0  0  0  0  0  0  0
    3.8570   66.1100   63.4560 C   0  0  0  0  0  0  0  0  0  0  0  0
    4.0470   67.5030   62.3680 S   0  0  0  0  0  0  0  0  0  0  0  0
    2.4440   68.2230   62.5820 C   0  0  0  0  0  0  0  0  0  0  0  0
    1.7150   68.0740   63.7710 C   0  0  0  0  0  0  0  0  0  0  0  0
    0.4390   68.6730   63.8300 C   0  0  0  0  0  0  0  0  0  0  0  0
   -0.0700   69.4290   62.7710 C   0  0  0  0  0  0  0  0  0  0  0  0
    0.6830   69.5940   61.6170 C   0  0  0  0  0  0  0  0  0  0  0  0
    1.9330   68.9900   61.5220 C   0  0  0  0  0  0  0  0  0  0  0  0
    2.5400   70.0060   68.4430 C   0  0  0  0  0  0  0  0  0  0  0  0
    1.2920   69.4460   67.7820 C   0  0  0  0  0  0  0  0  0  0  0  0
    1.5740   69.5917   65.6581 H   0  0  0  0  0  0  0  0  0  0  0  0
    2.3585   64.9787   66.2895 H   0  0  0  0  0  0  0  0  0  0  0  0
    3.7559   62.9942   65.7756 H   0  0  0  0  0  0  0  0  0  0  0  0
    5.2449   62.9906   63.7774 H   0  0  0  0  0  0  0  0  0  0  0  0
    5.3091   64.9892   62.2941 H   0  0  0  0  0  0  0  0  0  0  0  0
   -0.1722   68.5411   64.7350 H   0  0  0  0  0  0  0  0  0  0  0  0
   -1.0645   69.8920   62.8517 H   0  0  0  0  0  0  0  0  0  0  0  0
    0.2946   70.1978   60.7836 H   0  0  0  0  0  0  0  0  0  0  0  0
    2.5283   69.1147   60.6055 H   0  0  0  0  0  0  0  0  0  0  0  0
    2.4295   69.9564   69.5363 H   0  0  0  0  0  0  0  0  0  0  0  0
    3.4147   69.4141   68.1356 H   0  0  0  0  0  0  0  0  0  0  0  0
    2.6794   71.0530   68.1356 H   0  0  0  0  0  0  0  0  0  0  0  0
    0.8987   68.6269   68.4020 H   0  0  0  0  0  0  0  0  0  0  0  0
    0.5602   70.2622   67.6906 H   0  0  0  0  0  0  0  0  0  0  0  0
  2  1  1  0
  3  2  2  0
  4  2  1  0
  5  4  1  0
  6  5  2  0
  7  6  1  0
  8  7  2  0
  9  8  1  0
 10  9  2  0
 10  5  1  0
 11 10  1  0
 12 11  1  0
 13 12  2  0
 13  4  1  0
 14 13  1  0
 15 14  2  0
 16 15  1  0
 17 16  2  0
 17 12  1  0
 19 18  1  0
 19  1  1  0
  1 20  1  0
  6 21  1  0
  7 22  1  0
  8 23  1  0
  9 24  1  0
 14 25  1  0
 15 26  1  0
 16 27  1  0
 17 28  1  0
 18 29  1  0
 18 30  1  0
 18 31  1  0
 19 32  1  0
 19 33  1  0
M  END
>  <score>  (3) 
-9.045

$$$$
=
     RDKit          3D

 33 35  0  0  0  0  0  0  0  0999 V2000
    2.8910   70.2380   68.2980 N   0  0  0  0  0  0  0  0  0  0  0  0
    3.4020   69.7110   67.1180 C   0  0  0  0  0  0  0  0  0  0  0  0
    4.5670   69.9430   66.8050 O   0  0  0  0  0  0  0  0  0  0  0  0
    2.4410   69.0130   66.3450 N   0  0  0  0  0  0  0  0  0  0  0  0
    2.5810   68.8840   64.9080 C   0  0  0  0  0  0  0  0  0  0  0  0
    3.8420   68.9250   64.2840 C   0  0  0  0  0  0  0  0  0  0  0  0
    3.9910   68.8140   62.8970 C   0  0  0  0  0  0  0  0  0  0  0  0
    2.8760   68.6640   62.0870 C   0  0  0  0  0  0  0  0  0  0  0  0
    1.6150   68.6240   62.6700 C   0  0  0  0  0  0  0  0  0  0  0  0
    1.4620   68.7290   64.0640 C   0  0  0  0  0  0  0  0  0  0  0  0
   -0.2050   68.7410   64.6790 S   0  0  0  0  0  0  0  0  0  0  0  0
    0.1090   68.1050   66.3010 C   0  0  0  0  0  0  0  0  0  0  0  0
    1.3350   68.3050   66.9540 C   0  0  0  0  0  0  0  0  0  0  0  0
    1.4870   67.7390   68.2370 C   0  0  0  0  0  0  0  0  0  0  0  0
    0.4490   67.0460   68.8650 C   0  0  0  0  0  0  0  0  0  0  0  0
   -0.7680   66.8890   68.2170 C   0  0  0  0  0  0  0  0  0  0  0  0
   -0.9350   67.4140   66.9380 C   0  0  0  0  0  0  0  0  0  0  0  0
    4.9680   70.4230   69.6030 C   0  0  0  0  0  0  0  0  0  0  0  0
    3.6850   71.0970   69.1510 C   0  0  0  0  0  0  0  0  0  0  0  0
    1.9242   70.0120   68.5723 H   0  0  0  0  0  0  0  0  0  0  0  0
    4.7400   69.0484   64.9072 H   0  0  0  0  0  0  0  0  0  0  0  0
    4.9949   68.8458   62.4485 H   0  0  0  0  0  0  0  0  0  0  0  0
    2.9879   68.5777   60.9961 H   0  0  0  0  0  0  0  0  0  0  0  0
    0.7256   68.5088   62.0331 H   0  0  0  0  0  0  0  0  0  0  0  0
    2.4499   67.8462   68.7578 H   0  0  0  0  0  0  0  0  0  0  0  0
    0.5962   66.6258   69.8709 H   0  0  0  0  0  0  0  0  0  0  0  0
   -1.5937   66.3544   68.7094 H   0  0  0  0  0  0  0  0  0  0  0  0
   -1.8968   67.2859   66.4199 H   0  0  0  0  0  0  0  0  0  0  0  0
    5.0045   70.4038   70.7022 H   0  0  0  0  0  0  0  0  0  0  0  0
    4.9969   69.3933   69.2171 H   0  0  0  0  0  0  0  0  0  0  0  0
    5.8323   70.9835   69.2171 H   0  0  0  0  0  0  0  0  0  0  0  0
    3.0917   71.3622   70.0385 H   0  0  0  0  0  0  0  0  0  0  0  0
    3.9576   71.9916   68.5719 H   0  0  0  0  0  0  0  0  0  0  0  0
  2  1  1  0
  3  2  2  0
  4  2  1  0
  5  4  1  0
  6  5  2  0
  7  6  1  0
  8  7  2  0
  9  8  1  0
 10  9  2  0
 10  5  1  0
 11 10  1  0
 12 11  1  0
 13 12  2  0
 13  4  1  0
 14 13  1  0
 15 14  2  0
 16 15  1  0
 17 16  2  0
 17 12  1  0
 19 18  1  0
 19  1  1  0
  1 20  1  0
  6 21  1  0
  7 22  1  0
  8 23  1  0
  9 24  1  0
 14 25  1  0
 15 26  1  0
 16 27  1  0
 17 28  1  0
 18 29  1  0
 18 30  1  0
 18 31  1  0
 19 32  1  0
 19 33  1  0
M  END
>  <score>  (4) 
-9.004

$$$$
=
     RDKit          3D

 33 35  0  0  0  0  0  0  0  0999 V2000
    0.5990   68.4690   65.7890 N   0  0  0  0  0  0  0  0  0  0  0  0
    1.5460   68.8410   66.7360 C   0  0  0  0  0  0  0  0  0  0  0  0
    1.1770   69.2870   67.8200 O   0  0  0  0  0  0  0  0  0  0  0  0
    2.8810   68.7370   66.2740 N   0  0  0  0  0  0  0  0  0  0  0  0
    3.9380   69.5580   66.8340 C   0  0  0  0  0  0  0  0  0  0  0  0
    3.8630   70.0580   68.1470 C   0  0  0  0  0  0  0  0  0  0  0  0
    4.8700   70.8610   68.6960 C   0  0  0  0  0  0  0  0  0  0  0  0
    5.9840   71.1950   67.9410 C   0  0  0  0  0  0  0  0  0  0  0  0
    6.0870   70.7200   66.6390 C   0  0  0  0  0  0  0  0  0  0  0  0
    5.0800   69.9080   66.0870 C   0  0  0  0  0  0  0  0  0  0  0  0
    5.2930   69.4300   64.3880 S   0  0  0  0  0  0  0  0  0  0  0  0
    4.3550   67.9290   64.4190 C   0  0  0  0  0  0  0  0  0  0  0  0
    3.2810   67.7410   65.3030 C   0  0  0  0  0  0  0  0  0  0  0  0
    2.6130   66.4990   65.2580 C   0  0  0  0  0  0  0  0  0  0  0  0
    2.9640   65.5060   64.3400 C   0  0  0  0  0  0  0  0  0  0  0  0
    4.0050   65.7260   63.4500 C   0  0  0  0  0  0  0  0  0  0  0  0
    4.7000   66.9310   63.4920 C   0  0  0  0  0  0  0  0  0  0  0  0
   -1.1020   69.7740   66.9950 C   0  0  0  0  0  0  0  0  0  0  0  0
   -0.8190   68.6370   66.0290 C   0  0  0  0  0  0  0  0  0  0  0  0
    0.9133   68.0643   64.8955 H   0  0  0  0  0  0  0  0  0  0  0  0
    2.9852   69.8101   68.7618 H   0  0  0  0  0  0  0  0  0  0  0  0
    4.7772   71.2278   69.7289 H   0  0  0  0  0  0  0  0  0  0  0  0
    6.7763   71.8280   68.3672 H   0  0  0  0  0  0  0  0  0  0  0  0
    6.9667   70.9823   66.0329 H   0  0  0  0  0  0  0  0  0  0  0  0
    1.7929   66.3072   65.9655 H   0  0  0  0  0  0  0  0  0  0  0  0
    2.4163   64.5522   64.3230 H   0  0  0  0  0  0  0  0  0  0  0  0
    4.2792   64.9536   62.7164 H   0  0  0  0  0  0  0  0  0  0  0  0
    5.5297   67.1043   62.7908 H   0  0  0  0  0  0  0  0  0  0  0  0
   -1.0110   69.4083   68.0284 H   0  0  0  0  0  0  0  0  0  0  0  0
   -0.3785   70.5856   66.8281 H   0  0  0  0  0  0  0  0  0  0  0  0
   -2.1216   70.1517   66.8281 H   0  0  0  0  0  0  0  0  0  0  0  0
   -1.2206   67.7041   66.4513 H   0  0  0  0  0  0  0  0  0  0  0  0
   -1.2995   68.8790   65.0695 H   0  0  0  0  0  0  0  0  0  0  0  0
  2  1  1  0
  3  2  2  0
  4  2  1  0
  5  4  1  0
  6  5  2  0
  7  6  1  0
  8  7  2  0
  9  8  1  0
 10  9  2  0
 10  5  1  0
 11 10  1  0
 12 11  1  0
 13 12  2  0
 13  4  1  0
 14 13  1  0
 15 14  2  0
 16 15  1  0
 17 16  2  0
 17 12  1  0
 19 18  1  0
 19  1  1  0
  1 20  1  0
  6 21  1  0
  7 22  1  0
  8 23  1  0
  9 24  1  0
 14 25  1  0
 15 26  1  0
 16 27  1  0
 17 28  1  0
 18 29  1  0
 18 30  1  0
 18 31  1  0
 19 32  1  0
 19 33  1  0
M  END
>  <score>  (5) 
-8.465

$$$$
=
     RDKit          3D

 33 35  0  0  0  0  0  0  0  0999 V2000
    2.8640   59.3020   74.6300 N   0  0  0  0  0  0  0  0  0  0  0  0
    3.1300   59.4130   73.2700 C   0  0  0  0  0  0  0  0  0  0  0  0
    4.1460   58.8990   72.8080 O   0  0  0  0  0  0  0  0  0  0  0  0
    2.1980   60.2200   72.5730 N   0  0  0  0  0  0  0  0  0  0  0  0
    2.5640   60.9090   71.3510 C   0  0  0  0  0  0  0  0  0  0  0  0
    3.5870   60.4280   70.5130 C   0  0  0  0  0  0  0  0  0  0  0  0
    3.9580   61.0900   69.3360 C   0  0  0  0  0  0  0  0  0  0  0  0
    3.3190   62.2620   68.9650 C   0  0  0  0  0  0  0  0  0  0  0  0
    2.3060   62.7670   69.7730 C   0  0  0  0  0  0  0  0  0  0  0  0
    1.9260   62.1010   70.9520 C   0  0  0  0  0  0  0  0  0  0  0  0
    0.6730   62.8890   71.9360 S   0  0  0  0  0  0  0  0  0  0  0  0
    0.0230   61.4490   72.7330 C   0  0  0  0  0  0  0  0  0  0  0  0
    0.8110   60.3140   72.9790 C   0  0  0  0  0  0  0  0  0  0  0  0
    0.1880   59.2130   73.6040 C   0  0  0  0  0  0  0  0  0  0  0  0
   -1.1470   59.2560   74.0110 C   0  0  0  0  0  0  0  0  0  0  0  0
   -1.9000   60.4010   73.7920 C   0  0  0  0  0  0  0  0  0  0  0  0
   -1.3180   61.4910   73.1520 C   0  0  0  0  0  0  0  0  0  0  0  0
    3.2890   57.2480   75.9150 C   0  0  0  0  0  0  0  0  0  0  0  0
    3.7790   58.6330   75.5290 C   0  0  0  0  0  0  0  0  0  0  0  0
    1.9945   59.7058   75.0066 H   0  0  0  0  0  0  0  0  0  0  0  0
    4.1121   59.5024   70.7913 H   0  0  0  0  0  0  0  0  0  0  0  0
    4.7589   60.6783   68.7043 H   0  0  0  0  0  0  0  0  0  0  0  0
    3.6093   62.7866   68.0428 H   0  0  0  0  0  0  0  0  0  0  0  0
    1.7959   63.6985   69.4865 H   0  0  0  0  0  0  0  0  0  0  0  0
    0.7701   58.2955   73.7753 H   0  0  0  0  0  0  0  0  0  0  0  0
   -1.6010   58.3839   74.5043 H   0  0  0  0  0  0  0  0  0  0  0  0
   -2.9484   60.4466   74.1217 H   0  0  0  0  0  0  0  0  0  0  0  0
   -1.9151   62.3971   72.9717 H   0  0  0  0  0  0  0  0  0  0  0  0
    3.2586   57.1621   77.0112 H   0  0  0  0  0  0  0  0  0  0  0  0
    2.2801   57.0890   75.5067 H   0  0  0  0  0  0  0  0  0  0  0  0
    3.9735   56.4899   75.5067 H   0  0  0  0  0  0  0  0  0  0  0  0
    3.8865   59.2384   76.4411 H   0  0  0  0  0  0  0  0  0  0  0  0
    4.7422   58.5196   75.0100 H   0  0  0  0  0  0  0  0  0  0  0  0
  2  1  1  0
  3  2  2  0
  4  2  1  0
  5  4  1  0
  6  5  2  0
  7  6  1  0
  8  7  2  0
  9  8  1  0
 10  9  2  0
 10  5  1  0
 11 10  1  0
 12 11  1  0
 13 12  2  0
 13  4  1  0
 14 13  1  0
 15 14  2  0
 16 15  1  0
 17 16  2  0
 17 12  1  0
 19 18  1  0
 19  1  1  0
  1 20  1  0
  6 21  1  0
  7 22  1  0
  8 23  1  0
  9 24  1  0
 14 25  1  0
 15 26  1  0
 16 27  1  0
 17 28  1  0
 18 29  1  0
 18 30  1  0
 18 31  1  0
 19 32  1  0
 19 33  1  0
M  END
>  <score>  (6) 
-7.694

$$$$
=
     RDKit          3D

 33 35  0  0  0  0  0  0  0  0999 V2000
    1.4200   66.5050   69.4670 N   0  0  0  0  0  0  0  0  0  0  0  0
    0.3480   67.1250   68.8370 C   0  0  0  0  0  0  0  0  0  0  0  0
   -0.8000   66.8240   69.1580 O   0  0  0  0  0  0  0  0  0  0  0  0
    0.7320   68.0010   67.7930 N   0  0  0  0  0  0  0  0  0  0  0  0
   -0.1610   68.2940   66.6890 C   0  0  0  0  0  0  0  0  0  0  0  0
   -1.5590   68.2130   66.8320 C   0  0  0  0  0  0  0  0  0  0  0  0
   -2.4330   68.4820   65.7710 C   0  0  0  0  0  0  0  0  0  0  0  0
   -1.9320   68.8360   64.5280 C   0  0  0  0  0  0  0  0  0  0  0  0
   -0.5560   68.9220   64.3520 C   0  0  0  0  0  0  0  0  0  0  0  0
    0.3250   68.6590   65.4170 C   0  0  0  0  0  0  0  0  0  0  0  0
    2.0610   68.7270   65.0430 S   0  0  0  0  0  0  0  0  0  0  0  0
    2.6610   69.1240   66.6600 C   0  0  0  0  0  0  0  0  0  0  0  0
    1.9830   68.7290   67.8240 C   0  0  0  0  0  0  0  0  0  0  0  0
    2.5390   69.1140   69.0620 C   0  0  0  0  0  0  0  0  0  0  0  0
    3.7420   69.8180   69.1430 C   0  0  0  0  0  0  0  0  0  0  0  0
    4.4160   70.1690   67.9810 C   0  0  0  0  0  0  0  0  0  0  0  0
    3.8760   69.8260   66.7450 C   0  0  0  0  0  0  0  0  0  0  0  0
    2.2860   64.3950   70.3870 C   0  0  0  0  0  0  0  0  0  0  0  0
    1.2220   65.4750   70.4650 C   0  0  0  0  0  0  0  0  0  0  0  0
    2.3794   66.7851   69.2178 H   0  0  0  0  0  0  0  0  0  0  0  0
   -1.9786   67.9293   67.8084 H   0  0  0  0  0  0  0  0  0  0  0  0
   -3.5200   68.4121   65.9246 H   0  0  0  0  0  0  0  0  0  0  0  0
   -2.6147   69.0462   63.6915 H   0  0  0  0  0  0  0  0  0  0  0  0
   -0.1507   69.1992   63.3677 H   0  0  0  0  0  0  0  0  0  0  0  0
    2.0097   68.8521   69.9900 H   0  0  0  0  0  0  0  0  0  0  0  0
    4.1546   70.0938   70.1247 H   0  0  0  0  0  0  0  0  0  0  0  0
    5.3698   70.7142   68.0369 H   0  0  0  0  0  0  0  0  0  0  0  0
    4.4064   70.1076   65.8234 H   0  0  0  0  0  0  0  0  0  0  0  0
    2.5804   64.0962   71.4039 H   0  0  0  0  0  0  0  0  0  0  0  0
    1.8845   63.5228   69.8503 H   0  0  0  0  0  0  0  0  0  0  0  0
    3.1641   64.7835   69.8503 H   0  0  0  0  0  0  0  0  0  0  0  0
    0.2357   65.0137   70.3084 H   0  0  0  0  0  0  0  0  0  0  0  0
    1.2882   65.9460   71.4569 H   0  0  0  0  0  0  0  0  0  0  0  0
  2  1  1  0
  3  2  2  0
  4  2  1  0
  5  4  1  0
  6  5  2  0
  7  6  1  0
  8  7  2  0
  9  8  1  0
 10  9  2  0
 10  5  1  0
 11 10  1  0
 12 11  1  0
 13 12  2  0
 13  4  1  0
 14 13  1  0
 15 14  2  0
 16 15  1  0
 17 16  2  0
 17 12  1  0
 19 18  1  0
 19  1  1  0
  1 20  1  0
  6 21  1  0
  7 22  1  0
  8 23  1  0
  9 24  1  0
 14 25  1  0
 15 26  1  0
 16 27  1  0
 17 28  1  0
 18 29  1  0
 18 30  1  0
 18 31  1  0
 19 32  1  0
 19 33  1  0
M  END
>  <score>  (7) 
-7.67

$$$$
=
     RDKit          3D

 33 35  0  0  0  0  0  0  0  0999 V2000
    1.4160   62.9560   74.8390 N   0  0  0  0  0  0  0  0  0  0  0  0
    1.3870   61.7340   74.1780 C   0  0  0  0  0  0  0  0  0  0  0  0
    1.0910   60.7160   74.7990 O   0  0  0  0  0  0  0  0  0  0  0  0
    1.8110   61.8090   72.8280 N   0  0  0  0  0  0  0  0  0  0  0  0
    2.3800   60.6590   72.1530 C   0  0  0  0  0  0  0  0  0  0  0  0
    2.0600   59.3440   72.5420 C   0  0  0  0  0  0  0  0  0  0  0  0
    2.6110   58.2250   71.9060 C   0  0  0  0  0  0  0  0  0  0  0  0
    3.5090   58.3880   70.8630 C   0  0  0  0  0  0  0  0  0  0  0  0
    3.8490   59.6730   70.4560 C   0  0  0  0  0  0  0  0  0  0  0  0
    3.2930   60.8000   71.0880 C   0  0  0  0  0  0  0  0  0  0  0  0
    3.8680   62.3860   70.5280 S   0  0  0  0  0  0  0  0  0  0  0  0
    2.4440   63.3470   70.9570 C   0  0  0  0  0  0  0  0  0  0  0  0
    1.6020   62.9940   72.0240 C   0  0  0  0  0  0  0  0  0  0  0  0
    0.4850   63.8190   72.2680 C   0  0  0  0  0  0  0  0  0  0  0  0
    0.2400   64.9720   71.5180 C   0  0  0  0  0  0  0  0  0  0  0  0
    1.1050   65.3230   70.4900 C   0  0  0  0  0  0  0  0  0  0  0  0
    2.2000   64.5110   70.2090 C   0  0  0  0  0  0  0  0  0  0  0  0
   -0.2050   63.6840   76.5400 C   0  0  0  0  0  0  0  0  0  0  0  0
    1.1490   63.0570   76.2580 C   0  0  0  0  0  0  0  0  0  0  0  0
    1.6327   63.8105   74.3063 H   0  0  0  0  0  0  0  0  0  0  0  0
    1.3546   59.1911   73.3721 H   0  0  0  0  0  0  0  0  0  0  0  0
    2.3304   57.2136   72.2351 H   0  0  0  0  0  0  0  0  0  0  0  0
    3.9473   57.5114   70.3634 H   0  0  0  0  0  0  0  0  0  0  0  0
    4.5617   59.8102   69.6294 H   0  0  0  0  0  0  0  0  0  0  0  0
   -0.2141   63.5469   73.0725 H   0  0  0  0  0  0  0  0  0  0  0  0
   -0.6353   65.5997   71.7411 H   0  0  0  0  0  0  0  0  0  0  0  0
    0.9263   66.2356   69.9024 H   0  0  0  0  0  0  0  0  0  0  0  0
    2.8829   64.7840   69.3910 H   0  0  0  0  0  0  0  0  0  0  0  0
   -0.3572   63.7545   77.6271 H   0  0  0  0  0  0  0  0  0  0  0  0
   -0.2419   64.6909   76.0986 H   0  0  0  0  0  0  0  0  0  0  0  0
   -0.9967   63.0609   76.0986 H   0  0  0  0  0  0  0  0  0  0  0  0
    1.9305   63.6759   76.7230 H   0  0  0  0  0  0  0  0  0  0  0  0
    1.1453   62.0394   76.6758 H   0  0  0  0  0  0  0  0  0  0  0  0
  2  1  1  0
  3  2  2  0
  4  2  1  0
  5  4  1  0
  6  5  2  0
  7  6  1  0
  8  7  2  0
  9  8  1  0
 10  9  2  0
 10  5  1  0
 11 10  1  0
 12 11  1  0
 13 12  2  0
 13  4  1  0
 14 13  1  0
 15 14  2  0
 16 15  1  0
 17 16  2  0
 17 12  1  0
 19 18  1  0
 19  1  1  0
  1 20  1  0
  6 21  1  0
  7 22  1  0
  8 23  1  0
  9 24  1  0
 14 25  1  0
 15 26  1  0
 16 27  1  0
 17 28  1  0
 18 29  1  0
 18 30  1  0
 18 31  1  0
 19 32  1  0
 19 33  1  0
M  END
>  <score>  (8) 
-7.372

$$$$
