=
     RDKit          3D

 12 12  0  0  0  0  0  0  0  0999 V2000
    5.2410   69.9010   66.5310 C   0  0  0  0  0  0  0  0  0  0  0  0
    4.4360   70.1380   67.7490 C   0  0  0  0  0  0  0  0  0  0  0  0
    3.1300   69.7760   67.9980 C   0  0  0  0  0  0  0  0  0  0  0  0
    2.8400   70.2170   69.2570 N   0  0  0  0  0  0  0  0  0  0  0  0
    3.8680   70.8430   69.8500 N   0  0  0  0  0  0  0  0  0  0  0  0
    4.8370   70.7960   68.9340 C   0  0  0  0  0  0  0  0  0  0  0  0
    6.2598   69.6011   66.8175 H   0  0  0  0  0  0  0  0  0  0  0  0
    4.7773   69.1013   65.9349 H   0  0  0  0  0  0  0  0  0  0  0  0
    5.2846   70.8244   65.9349 H   0  0  0  0  0  0  0  0  0  0  0  0
    2.4544   69.2379   67.3168 H   0  0  0  0  0  0  0  0  0  0  0  0
    1.9233   70.0826   69.7069 H   0  0  0  0  0  0  0  0  0  0  0  0
    5.8394   71.2231   69.0847 H   0  0  0  0  0  0  0  0  0  0  0  0
  2  1  1  0
  3  2  2  0
  4  3  1  0
  5  4  1  0
  6  5  2  0
  6  2  1  0
  1  7  1  0
  1  8  1  0
  1  9  1  0
  3 10  1  0
  4 11  1  0
  6 12  1  0
M  END
>  <score>  (1) 
-4.491

$$$$
=
     RDKit          3D

 12 12  0  0  0  0  0  0  0  0999 V2000
    7.5290   70.9960   69.4550 C   0  0  0  0  0  0  0  0  0  0  0  0
    6.3450   70.7170   68.6140 C   0  0  0  0  0  0  0  0  0  0  0  0
    5.0180   70.6840   68.9860 C   0  0  0  0  0  0  0  0  0  0  0  0
    4.3090   70.3840   67.8590 N   0  0  0  0  0  0  0  0  0  0  0  0
    5.0810   70.2180   66.7740 N   0  0  0  0  0  0  0  0  0  0  0  0
    6.3170   70.4200   67.2320 C   0  0  0  0  0  0  0  0  0  0  0  0
    7.2485   70.9299   70.5166 H   0  0  0  0  0  0  0  0  0  0  0  0
    8.3156   70.2586   69.2370 H   0  0  0  0  0  0  0  0  0  0  0  0
    7.9036   72.0070   69.2370 H   0  0  0  0  0  0  0  0  0  0  0  0
    4.6111   70.8639   69.9920 H   0  0  0  0  0  0  0  0  0  0  0  0
    3.2831   70.2939   67.8429 H   0  0  0  0  0  0  0  0  0  0  0  0
    7.2173   70.3618   66.6027 H   0  0  0  0  0  0  0  0  0  0  0  0
  2  1  1  0
  3  2  2  0
  4  3  1  0
  5  4  1  0
  6  5  2  0
  6  2  1  0
  1  7  1  0
  1  8  1  0
  1  9  1  0
  3 10  1  0
  4 11  1  0
  6 12  1  0
M  END
>  <score>  (2) 
-4.283

$$$$
=
     RDKit          3D

 12 12  0  0  0  0  0  0  0  0999 V2000
    4.2260   70.6640   69.2590 C   0  0  0  0  0  0  0  0  0  0  0  0
    5.0100   70.3660   68.0420 C   0  0  0  0  0  0  0  0  0  0  0  0
    6.3560   70.5580   67.8200 C   0  0  0  0  0  0  0  0  0  0  0  0
    6.6030   70.1310   66.5480 N   0  0  0  0  0  0  0  0  0  0  0  0
    5.5090   69.6730   65.9190 N   0  0  0  0  0  0  0  0  0  0  0  0
    4.5420   69.8160   66.8260 C   0  0  0  0  0  0  0  0  0  0  0  0
    4.8297   70.4345   70.1494 H   0  0  0  0  0  0  0  0  0  0  0  0
    3.9515   71.7292   69.2667 H   0  0  0  0  0  0  0  0  0  0  0  0
    3.3133   70.0501   69.2667 H   0  0  0  0  0  0  0  0  0  0  0  0
    7.0874   70.9737   68.5287 H   0  0  0  0  0  0  0  0  0  0  0  0
    7.5364   70.1574   66.1133 H   0  0  0  0  0  0  0  0  0  0  0  0
    3.4932   69.5363   66.6476 H   0  0  0  0  0  0  0  0  0  0  0  0
  2  1  1  0
  3  2  2  0
  4  3  1  0
  5  4  1  0
  6  5  2  0
  6  2  1  0
  1  7  1  0
  1  8  1  0
  1  9  1  0
  3 10  1  0
  4 11  1  0
  6 12  1  0
M  END
>  <score>  (3) 
-4.197

$$$$
=
     RDKit          3D

 12 12  0  0  0  0  0  0  0  0999 V2000
    4.9020   69.4990   65.5910 C   0  0  0  0  0  0  0  0  0  0  0  0
    5.3460   70.0230   66.9010 C   0  0  0  0  0  0  0  0  0  0  0  0
    4.5870   70.2900   68.0200 C   0  0  0  0  0  0  0  0  0  0  0  0
    5.4500   70.7560   68.9690 N   0  0  0  0  0  0  0  0  0  0  0  0
    6.7230   70.8120   68.5490 N   0  0  0  0  0  0  0  0  0  0  0  0
    6.6600   70.3670   67.2930 C   0  0  0  0  0  0  0  0  0  0  0  0
    4.1982   68.6683   65.7478 H   0  0  0  0  0  0  0  0  0  0  0  0
    4.4036   70.3001   65.0255 H   0  0  0  0  0  0  0  0  0  0  0  0
    5.7741   69.1389   65.0255 H   0  0  0  0  0  0  0  0  0  0  0  0
    3.5007   70.1543   68.1270 H   0  0  0  0  0  0  0  0  0  0  0  0
    5.1533   71.0370   69.9145 H   0  0  0  0  0  0  0  0  0  0  0  0
    7.5358   70.2774   66.6336 H   0  0  0  0  0  0  0  0  0  0  0  0
  2  1  1  0
  3  2  2  0
  4  3  1  0
  5  4  1  0
  6  5  2  0
  6  2  1  0
  1  7  1  0
  1  8  1  0
  1  9  1  0
  3 10  1  0
  4 11  1  0
  6 12  1  0
M  END
>  <score>  (4) 
-4.095

$$$$
=
     RDKit          3D

 12 12  0  0  0  0  0  0  0  0999 V2000
    6.1680   70.2070   66.9730 C   0  0  0  0  0  0  0  0  0  0  0  0
    5.0950   69.7730   66.0540 C   0  0  0  0  0  0  0  0  0  0  0  0
    3.7910   69.4410   66.3530 C   0  0  0  0  0  0  0  0  0  0  0  0
    3.1970   69.1060   65.1700 N   0  0  0  0  0  0  0  0  0  0  0  0
    4.0230   69.1950   64.1170 N   0  0  0  0  0  0  0  0  0  0  0  0
    5.1760   69.5990   64.6530 C   0  0  0  0  0  0  0  0  0  0  0  0
    5.8364   70.0729   68.0132 H   0  0  0  0  0  0  0  0  0  0  0  0
    7.0699   69.6030   66.7949 H   0  0  0  0  0  0  0  0  0  0  0  0
    6.3964   71.2682   66.7949 H   0  0  0  0  0  0  0  0  0  0  0  0
    3.3217   69.4451   67.3479 H   0  0  0  0  0  0  0  0  0  0  0  0
    2.2122   68.8139   65.0938 H   0  0  0  0  0  0  0  0  0  0  0  0
    6.0906   69.7774   64.0684 H   0  0  0  0  0  0  0  0  0  0  0  0
  2  1  1  0
  3  2  2  0
  4  3  1  0
  5  4  1  0
  6  5  2  0
  6  2  1  0
  1  7  1  0
  1  8  1  0
  1  9  1  0
  3 10  1  0
  4 11  1  0
  6 12  1  0
M  END
>  <score>  (5) 
-4.075

$$$$
=
     RDKit          3D

 12 12  0  0  0  0  0  0  0  0999 V2000
    6.1220   70.2120   67.1130 C   0  0  0  0  0  0  0  0  0  0  0  0
    5.0970   69.7860   66.1370 C   0  0  0  0  0  0  0  0  0  0  0  0
    5.2250   69.6200   64.7750 C   0  0  0  0  0  0  0  0  0  0  0  0
    4.0040   69.2190   64.3170 N   0  0  0  0  0  0  0  0  0  0  0  0
    3.0830   69.1110   65.2870 N   0  0  0  0  0  0  0  0  0  0  0  0
    3.7460   69.4560   66.3920 C   0  0  0  0  0  0  0  0  0  0  0  0
    5.7439   70.0549   68.1340 H   0  0  0  0  0  0  0  0  0  0  0  0
    7.0372   69.6197   66.9657 H   0  0  0  0  0  0  0  0  0  0  0  0
    6.3478   71.2785   66.9657 H   0  0  0  0  0  0  0  0  0  0  0  0
    6.1331   69.7795   64.1750 H   0  0  0  0  0  0  0  0  0  0  0  0
    3.8086   69.0191   63.3257 H   0  0  0  0  0  0  0  0  0  0  0  0
    3.2909   69.4810   67.3931 H   0  0  0  0  0  0  0  0  0  0  0  0
  2  1  1  0
  3  2  2  0
  4  3  1  0
  5  4  1  0
  6  5  2  0
  6  2  1  0
  1  7  1  0
  1  8  1  0
  1  9  1  0
  3 10  1  0
  4 11  1  0
  6 12  1  0
M  END
>  <score>  (6) 
-4.055

$$$$
=
     RDKit          3D

 12 12  0  0  0  0  0  0  0  0999 V2000
    7.8730   79.3930   67.8220 C   0  0  0  0  0  0  0  0  0  0  0  0
    8.2130   80.1470   66.5960 C   0  0  0  0  0  0  0  0  0  0  0  0
    9.4040   80.1640   65.9020 C   0  0  0  0  0  0  0  0  0  0  0  0
    9.2230   81.0090   64.8450 N   0  0  0  0  0  0  0  0  0  0  0  0
    7.9940   81.5470   64.8000 N   0  0  0  0  0  0  0  0  0  0  0  0
    7.3810   81.0240   65.8630 C   0  0  0  0  0  0  0  0  0  0  0  0
    8.1421   79.9898   68.7060 H   0  0  0  0  0  0  0  0  0  0  0  0
    6.7932   79.1834   67.8360 H   0  0  0  0  0  0  0  0  0  0  0  0
    8.4308   78.4450   67.8360 H   0  0  0  0  0  0  0  0  0  0  0  0
   10.3193   79.6069   66.1507 H   0  0  0  0  0  0  0  0  0  0  0  0
    9.9564   81.2133   64.1512 H   0  0  0  0  0  0  0  0  0  0  0  0
    6.3407   81.2506   66.1394 H   0  0  0  0  0  0  0  0  0  0  0  0
  2  1  1  0
  3  2  2  0
  4  3  1  0
  5  4  1  0
  6  5  2  0
  6  2  1  0
  1  7  1  0
  1  8  1  0
  1  9  1  0
  3 10  1  0
  4 11  1  0
  6 12  1  0
M  END
>  <score>  (7) 
-3.925

$$$$
=
     RDKit          3D

 12 12  0  0  0  0  0  0  0  0999 V2000
    3.4950   69.0900   66.0050 C   0  0  0  0  0  0  0  0  0  0  0  0
    2.4860   68.0360   65.7630 C   0  0  0  0  0  0  0  0  0  0  0  0
    1.2110   67.9350   66.2750 C   0  0  0  0  0  0  0  0  0  0  0  0
    0.6770   66.7910   65.7580 N   0  0  0  0  0  0  0  0  0  0  0  0
    1.5160   66.1330   64.9430 N   0  0  0  0  0  0  0  0  0  0  0  0
    2.6150   66.8890   64.9460 C   0  0  0  0  0  0  0  0  0  0  0  0
    3.6278   69.2287   67.0881 H   0  0  0  0  0  0  0  0  0  0  0  0
    4.4526   68.7915   65.5534 H   0  0  0  0  0  0  0  0  0  0  0  0
    3.1550   70.0337   65.5534 H   0  0  0  0  0  0  0  0  0  0  0  0
    0.7205   68.6379   66.9644 H   0  0  0  0  0  0  0  0  0  0  0  0
   -0.2761   66.4645   65.9721 H   0  0  0  0  0  0  0  0  0  0  0  0
    3.5233   66.6465   64.3748 H   0  0  0  0  0  0  0  0  0  0  0  0
  2  1  1  0
  3  2  2  0
  4  3  1  0
  5  4  1  0
  6  5  2  0
  6  2  1  0
  1  7  1  0
  1  8  1  0
  1  9  1  0
  3 10  1  0
  4 11  1  0
  6 12  1  0
M  END
>  <score>  (8) 
-3.909

$$$$
=
     RDKit          3D

 12 12  0  0  0  0  0  0  0  0999 V2000
    2.8630   68.6480   63.9780 C   0  0  0  0  0  0  0  0  0  0  0  0
    3.9480   69.2250   64.8000 C   0  0  0  0  0  0  0  0  0  0  0  0
    5.2330   69.5470   64.4200 C   0  0  0  0  0  0  0  0  0  0  0  0
    5.8500   70.0460   65.5310 N   0  0  0  0  0  0  0  0  0  0  0  0
    5.0570   70.0720   66.6130 N   0  0  0  0  0  0  0  0  0  0  0  0
    3.9020   69.5730   66.1700 C   0  0  0  0  0  0  0  0  0  0  0  0
    2.0848   68.2342   64.6362 H   0  0  0  0  0  0  0  0  0  0  0  0
    2.4268   69.4333   63.3431 H   0  0  0  0  0  0  0  0  0  0  0  0
    3.2702   67.8473   63.3431 H   0  0  0  0  0  0  0  0  0  0  0  0
    5.6742   69.4259   63.4196 H   0  0  0  0  0  0  0  0  0  0  0  0
    6.8276   70.3704   65.5379 H   0  0  0  0  0  0  0  0  0  0  0  0
    3.0105   69.4460   66.8017 H   0  0  0  0  0  0  0  0  0  0  0  0
  2  1  1  0
  3  2  2  0
  4  3  1  0
  5  4  1  0
  6  5  2  0
  6  2  1  0
  1  7  1  0
  1  8  1  0
  1  9  1  0
  3 10  1  0
  4 11  1  0
  6 12  1  0
M  END
>  <score>  (9) 
-3.868

$$$$
