=
     RDKit          3D

 56 59  0  0  0  0  0  0  0  0999 V2000
   -0.6610   66.4370   69.3380 C   0  0  0  0  0  0  0  0  0  0  0  0
    0.0190   65.3670   71.8720 O   0  0  0  0  0  0  0  0  0  0  0  0
    0.5520   64.9190   70.8640 C   0  0  0  0  0  0  0  0  0  0  0  0
    0.2200   65.3110   69.5830 N   0  0  0  0  0  0  0  0  0  0  0  0
    1.6530   63.9110   70.9590 C   0  0  0  0  0  0  0  0  0  0  0  0
    2.8790   64.2420   70.5310 C   0  0  0  0  0  0  0  0  0  0  0  0
    3.9510   63.2360   70.5800 C   0  0  0  0  0  0  0  0  0  0  0  0
    5.0800   63.5200   70.2050 O   0  0  0  0  0  0  0  0  0  0  0  0
    3.5850   61.9090   71.0940 C   0  0  0  0  0  0  0  0  0  0  0  0
    2.2670   61.6860   71.4850 C   0  0  0  0  0  0  0  0  0  0  0  0
    1.2950   62.6530   71.4150 O   0  0  0  0  0  0  0  0  0  0  0  0
    1.8890   60.4360   71.9740 C   0  0  0  0  0  0  0  0  0  0  0  0
    2.8360   59.4130   72.0690 C   0  0  0  0  0  0  0  0  0  0  0  0
    4.1560   59.6390   71.6760 C   0  0  0  0  0  0  0  0  0  0  0  0
    4.5360   60.8890   71.1860 C   0  0  0  0  0  0  0  0  0  0  0  0
   -1.2230   66.5240   67.9110 C   0  0  0  0  0  0  0  0  0  0  0  0
   -0.5870   67.6040   67.0130 C   0  0  0  0  0  0  0  0  0  0  0  0
    0.8080   67.2150   66.4890 C   0  0  0  0  0  0  0  0  0  0  0  0
    1.9260   67.8310   67.3170 C   0  0  0  0  0  0  0  0  0  0  0  0
    1.8520   69.3450   67.2530 N   0  0  0  0  0  4  0  0  0  0  0  0
    0.4480   69.9030   67.1460 C   0  0  0  0  0  0  0  0  0  0  0  0
   -0.5480   68.9430   67.7720 C   0  0  0  0  0  0  0  0  0  0  0  0
    2.6520   70.0090   68.3590 C   0  0  0  0  0  0  0  0  0  0  0  0
    4.1090   70.1640   68.0200 C   0  0  0  0  0  0  0  0  0  0  0  0
    4.5870   69.8150   66.7470 C   0  0  0  0  0  0  0  0  0  0  0  0
    5.9340   69.9910   66.4260 C   0  0  0  0  0  0  0  0  0  0  0  0
    6.8150   70.5120   67.3710 C   0  0  0  0  0  0  0  0  0  0  0  0
    6.3540   70.8570   68.6390 C   0  0  0  0  0  0  0  0  0  0  0  0
    5.0090   70.6840   68.9650 C   0  0  0  0  0  0  0  0  0  0  0  0
   -1.5091   66.3645   70.0348 H   0  0  0  0  0  0  0  0  0  0  0  0
   -0.0516   67.3411   69.4837 H   0  0  0  0  0  0  0  0  0  0  0  0
    0.6070   64.7917   68.7821 H   0  0  0  0  0  0  0  0  0  0  0  0
    3.0811   65.2531   70.1479 H   0  0  0  0  0  0  0  0  0  0  0  0
    0.8490   60.2560   72.2838 H   0  0  0  0  0  0  0  0  0  0  0  0
    2.5402   58.4263   72.4548 H   0  0  0  0  0  0  0  0  0  0  0  0
    4.8979   58.8305   71.7527 H   0  0  0  0  0  0  0  0  0  0  0  0
    5.5754   61.0701   70.8747 H   0  0  0  0  0  0  0  0  0  0  0  0
   -1.0715   65.5480   67.4268 H   0  0  0  0  0  0  0  0  0  0  0  0
   -2.2810   66.8051   68.0192 H   0  0  0  0  0  0  0  0  0  0  0  0
   -1.2184   67.7055   66.1180 H   0  0  0  0  0  0  0  0  0  0  0  0
    0.9057   66.1198   66.5212 H   0  0  0  0  0  0  0  0  0  0  0  0
    0.9005   67.5955   65.4610 H   0  0  0  0  0  0  0  0  0  0  0  0
    1.8248   67.5061   68.3631 H   0  0  0  0  0  0  0  0  0  0  0  0
    2.8949   67.5016   66.9136 H   0  0  0  0  0  0  0  0  0  0  0  0
    2.3005   69.5903   66.3588 H   0  0  0  0  0  0  0  0  0  0  0  0
    0.4001   70.8689   67.6702 H   0  0  0  0  0  0  0  0  0  0  0  0
    0.1961   70.0387   66.0839 H   0  0  0  0  0  0  0  0  0  0  0  0
   -0.2568   68.7548   68.8159 H   0  0  0  0  0  0  0  0  0  0  0  0
   -1.5478   69.3991   67.7231 H   0  0  0  0  0  0  0  0  0  0  0  0
    2.2282   71.0064   68.5476 H   0  0  0  0  0  0  0  0  0  0  0  0
    2.5881   69.3607   69.2454 H   0  0  0  0  0  0  0  0  0  0  0  0
    3.8961   69.4004   65.9982 H   0  0  0  0  0  0  0  0  0  0  0  0
    6.3004   69.7179   65.4254 H   0  0  0  0  0  0  0  0  0  0  0  0
    7.8758   70.6510   67.1154 H   0  0  0  0  0  0  0  0  0  0  0  0
    7.0516   71.2665   69.3844 H   0  0  0  0  0  0  0  0  0  0  0  0
    4.6506   70.9565   69.9686 H   0  0  0  0  0  0  0  0  0  0  0  0
  3  2  2  0
  4  3  1  0
  4  1  1  0
  5  3  1  0
  6  5  2  0
  7  6  1  0
  8  7  2  0
  9  7  1  0
 10  9  2  0
 11 10  1  0
 11  5  1  0
 12 10  1  0
 13 12  2  0
 14 13  1  0
 15 14  2  0
 15  9  1  0
 16  1  1  0
 17 16  1  0
 18 17  1  0
 19 18  1  0
 20 19  1  0
 21 20  1  0
 22 21  1  0
 22 17  1  0
 23 20  1  0
 24 23  1  0
 25 24  2  0
 26 25  1  0
 27 26  2  0
 28 27  1  0
 29 24  1  0
 29 28  2  0
  1 30  1  0
  1 31  1  0
  4 32  1  0
  6 33  1  0
 12 34  1  0
 13 35  1  0
 14 36  1  0
 15 37  1  0
 16 38  1  0
 16 39  1  0
 17 40  1  0
 18 41  1  0
 18 42  1  0
 19 43  1  0
 19 44  1  0
 20 45  1  0
 21 46  1  0
 21 47  1  0
 22 48  1  0
 22 49  1  0
 23 50  1  0
 23 51  1  0
 25 52  1  0
 26 53  1  0
 27 54  1  0
 28 55  1  0
 29 56  1  0
M  CHG  1  20   1
M  END
>  <score>  (1) 
-10.708

$$$$
=
     RDKit          3D

 56 59  0  0  0  0  0  0  0  0999 V2000
   -0.3310   66.8250   69.3170 C   0  0  0  0  0  0  0  0  0  0  0  0
   -0.2180   68.9070   67.3980 O   0  0  0  0  0  0  0  0  0  0  0  0
    0.8170   68.5100   67.9200 C   0  0  0  0  0  0  0  0  0  0  0  0
    0.8540   67.5670   68.9280 N   0  0  0  0  0  0  0  0  0  0  0  0
    2.1510   69.0110   67.4660 C   0  0  0  0  0  0  0  0  0  0  0  0
    2.5240   68.8110   66.1930 C   0  0  0  0  0  0  0  0  0  0  0  0
    3.8540   69.2610   65.7580 C   0  0  0  0  0  0  0  0  0  0  0  0
    4.2110   69.0990   64.6000 O   0  0  0  0  0  0  0  0  0  0  0  0
    4.7000   69.8990   66.7770 C   0  0  0  0  0  0  0  0  0  0  0  0
    4.2020   70.0250   68.0720 C   0  0  0  0  0  0  0  0  0  0  0  0
    2.9550   69.5840   68.4370 O   0  0  0  0  0  0  0  0  0  0  0  0
    4.9820   70.6230   69.0610 C   0  0  0  0  0  0  0  0  0  0  0  0
    6.2600   71.0930   68.7470 C   0  0  0  0  0  0  0  0  0  0  0  0
    6.7560   70.9650   67.4480 C   0  0  0  0  0  0  0  0  0  0  0  0
    5.9780   70.3660   66.4570 C   0  0  0  0  0  0  0  0  0  0  0  0
   -0.1180   65.3170   69.5110 C   0  0  0  0  0  0  0  0  0  0  0  0
    0.7720   64.9220   70.7080 C   0  0  0  0  0  0  0  0  0  0  0  0
    2.2710   64.8700   70.3610 C   0  0  0  0  0  0  0  0  0  0  0  0
    2.7460   63.4550   70.0700 C   0  0  0  0  0  0  0  0  0  0  0  0
    2.5600   62.5770   71.2930 N   0  0  0  0  0  4  0  0  0  0  0  0
    1.3540   62.9270   72.1420 C   0  0  0  0  0  0  0  0  0  0  0  0
    0.2830   63.5810   71.2880 C   0  0  0  0  0  0  0  0  0  0  0  0
    2.6170   61.0980   70.9560 C   0  0  0  0  0  0  0  0  0  0  0  0
    2.7540   60.2220   72.1710 C   0  0  0  0  0  0  0  0  0  0  0  0
    1.7400   59.3150   72.5150 C   0  0  0  0  0  0  0  0  0  0  0  0
    1.8860   58.4810   73.6250 C   0  0  0  0  0  0  0  0  0  0  0  0
    3.0410   58.5460   74.4010 C   0  0  0  0  0  0  0  0  0  0  0  0
    4.0520   59.4450   74.0730 C   0  0  0  0  0  0  0  0  0  0  0  0
    3.9120   60.2810   72.9640 C   0  0  0  0  0  0  0  0  0  0  0  0
   -0.6987   67.2425   70.2659 H   0  0  0  0  0  0  0  0  0  0  0  0
   -1.0456   66.9302   68.4873 H   0  0  0  0  0  0  0  0  0  0  0  0
    1.7433   67.3860   69.4151 H   0  0  0  0  0  0  0  0  0  0  0  0
    1.8435   68.3168   65.4840 H   0  0  0  0  0  0  0  0  0  0  0  0
    4.5927   70.7244   70.0848 H   0  0  0  0  0  0  0  0  0  0  0  0
    6.8772   71.5652   69.5255 H   0  0  0  0  0  0  0  0  0  0  0  0
    7.7623   71.3373   67.2056 H   0  0  0  0  0  0  0  0  0  0  0  0
    6.3667   70.2622   65.4332 H   0  0  0  0  0  0  0  0  0  0  0  0
   -1.1041   64.8507   69.6530 H   0  0  0  0  0  0  0  0  0  0  0  0
    0.4113   64.9679   68.6121 H   0  0  0  0  0  0  0  0  0  0  0  0
    0.6752   65.7110   71.4684 H   0  0  0  0  0  0  0  0  0  0  0  0
    2.4505   65.4934   69.4726 H   0  0  0  0  0  0  0  0  0  0  0  0
    2.8316   65.2414   71.2315 H   0  0  0  0  0  0  0  0  0  0  0  0
    2.1634   63.0411   69.2338 H   0  0  0  0  0  0  0  0  0  0  0  0
    3.8138   63.4822   69.8072 H   0  0  0  0  0  0  0  0  0  0  0  0
    3.3718   62.7873   71.8910 H   0  0  0  0  0  0  0  0  0  0  0  0
    0.9487   62.0093   72.5931 H   0  0  0  0  0  0  0  0  0  0  0  0
    1.6622   63.6291   72.9307 H   0  0  0  0  0  0  0  0  0  0  0  0
    0.0231   62.9056   70.4596 H   0  0  0  0  0  0  0  0  0  0  0  0
   -0.5953   63.7758   71.9210 H   0  0  0  0  0  0  0  0  0  0  0  0
    1.6918   60.8230   70.4284 H   0  0  0  0  0  0  0  0  0  0  0  0
    3.5091   60.9372   70.3328 H   0  0  0  0  0  0  0  0  0  0  0  0
    0.8251   59.2609   71.9067 H   0  0  0  0  0  0  0  0  0  0  0  0
    1.0876   57.7713   73.8873 H   0  0  0  0  0  0  0  0  0  0  0  0
    3.1543   57.8863   75.2739 H   0  0  0  0  0  0  0  0  0  0  0  0
    4.9622   59.4966   74.6885 H   0  0  0  0  0  0  0  0  0  0  0  0
    4.7133   60.9903   72.7095 H   0  0  0  0  0  0  0  0  0  0  0  0
  3  2  2  0
  4  3  1  0
  4  1  1  0
  5  3  1  0
  6  5  2  0
  7  6  1  0
  8  7  2  0
  9  7  1  0
 10  9  2  0
 11 10  1  0
 11  5  1  0
 12 10  1  0
 13 12  2  0
 14 13  1  0
 15 14  2  0
 15  9  1  0
 16  1  1  0
 17 16  1  0
 18 17  1  0
 19 18  1  0
 20 19  1  0
 21 20  1  0
 22 21  1  0
 22 17  1  0
 23 20  1  0
 24 23  1  0
 25 24  2  0
 26 25  1  0
 27 26  2  0
 28 27  1  0
 29 24  1  0
 29 28  2  0
  1 30  1  0
  1 31  1  0
  4 32  1  0
  6 33  1  0
 12 34  1  0
 13 35  1  0
 14 36  1  0
 15 37  1  0
 16 38  1  0
 16 39  1  0
 17 40  1  0
 18 41  1  0
 18 42  1  0
 19 43  1  0
 19 44  1  0
 20 45  1  0
 21 46  1  0
 21 47  1  0
 22 48  1  0
 22 49  1  0
 23 50  1  0
 23 51  1  0
 25 52  1  0
 26 53  1  0
 27 54  1  0
 28 55  1  0
 29 56  1  0
M  CHG  1  20   1
M  END
>  <score>  (2) 
-10.546

$$$$
=
     RDKit          3D

 56 59  0  0  0  0  0  0  0  0999 V2000
   -0.8110   67.8550   68.0180 C   0  0  0  0  0  0  0  0  0  0  0  0
    0.6120   67.9300   65.5680 O   0  0  0  0  0  0  0  0  0  0  0  0
    1.0920   68.4620   66.5620 C   0  0  0  0  0  0  0  0  0  0  0  0
    0.4350   68.5570   67.7730 N   0  0  0  0  0  0  0  0  0  0  0  0
    2.4740   69.0310   66.5390 C   0  0  0  0  0  0  0  0  0  0  0  0
    3.1760   68.9960   65.3970 C   0  0  0  0  0  0  0  0  0  0  0  0
    4.5530   69.5120   65.3860 C   0  0  0  0  0  0  0  0  0  0  0  0
    5.2070   69.5000   64.3530 O   0  0  0  0  0  0  0  0  0  0  0  0
    5.0730   70.0290   66.6600 C   0  0  0  0  0  0  0  0  0  0  0  0
    4.2480   69.9870   67.7820 C   0  0  0  0  0  0  0  0  0  0  0  0
    2.9700   69.4880   67.7490 O   0  0  0  0  0  0  0  0  0  0  0  0
    4.7150   70.4660   69.0050 C   0  0  0  0  0  0  0  0  0  0  0  0
    6.0070   70.9870   69.0990 C   0  0  0  0  0  0  0  0  0  0  0  0
    6.8320   71.0280   67.9730 C   0  0  0  0  0  0  0  0  0  0  0  0
    6.3670   70.5480   66.7480 C   0  0  0  0  0  0  0  0  0  0  0  0
   -0.6590   66.4540   68.6260 C   0  0  0  0  0  0  0  0  0  0  0  0
    0.1190   66.3890   69.9560 C   0  0  0  0  0  0  0  0  0  0  0  0
    1.6190   66.0960   69.7700 C   0  0  0  0  0  0  0  0  0  0  0  0
    1.9490   64.6260   69.9810 C   0  0  0  0  0  0  0  0  0  0  0  0
    1.6050   64.2090   71.3990 N   0  0  0  0  0  4  0  0  0  0  0  0
    0.4040   64.9200   71.9900 C   0  0  0  0  0  0  0  0  0  0  0  0
   -0.5430   65.3560   70.8870 C   0  0  0  0  0  0  0  0  0  0  0  0
    1.5150   62.7030   71.5520 C   0  0  0  0  0  0  0  0  0  0  0  0
    2.8520   62.0200   71.4560 C   0  0  0  0  0  0  0  0  0  0  0  0
    3.3060   61.5090   70.2310 C   0  0  0  0  0  0  0  0  0  0  0  0
    4.5610   60.9050   70.1390 C   0  0  0  0  0  0  0  0  0  0  0  0
    5.3720   60.8040   71.2670 C   0  0  0  0  0  0  0  0  0  0  0  0
    4.9310   61.3030   72.4900 C   0  0  0  0  0  0  0  0  0  0  0  0
    3.6770   61.9080   72.5870 C   0  0  0  0  0  0  0  0  0  0  0  0
   -1.4147   68.4626   68.7082 H   0  0  0  0  0  0  0  0  0  0  0  0
   -1.2818   67.7130   67.0340 H   0  0  0  0  0  0  0  0  0  0  0  0
    0.8390   69.1399   68.5199 H   0  0  0  0  0  0  0  0  0  0  0  0
    2.7274   68.5864   64.4799 H   0  0  0  0  0  0  0  0  0  0  0  0
    4.0674   70.4336   69.8936 H   0  0  0  0  0  0  0  0  0  0  0  0
    6.3762   71.3664   70.0632 H   0  0  0  0  0  0  0  0  0  0  0  0
    7.8493   71.4390   68.0518 H   0  0  0  0  0  0  0  0  0  0  0  0
    7.0141   70.5780   65.8589 H   0  0  0  0  0  0  0  0  0  0  0  0
   -1.6667   66.0499   68.8026 H   0  0  0  0  0  0  0  0  0  0  0  0
   -0.0692   65.8727   67.9020 H   0  0  0  0  0  0  0  0  0  0  0  0
    0.0703   67.3864   70.4173 H   0  0  0  0  0  0  0  0  0  0  0  0
    1.9115   66.3815   68.7488 H   0  0  0  0  0  0  0  0  0  0  0  0
    2.1720   66.6771   70.5227 H   0  0  0  0  0  0  0  0  0  0  0  0
    1.3675   64.0179   69.2724 H   0  0  0  0  0  0  0  0  0  0  0  0
    3.0252   64.4725   69.8132 H   0  0  0  0  0  0  0  0  0  0  0  0
    2.4038   64.5275   71.9659 H   0  0  0  0  0  0  0  0  0  0  0  0
   -0.1231   64.2369   72.6723 H   0  0  0  0  0  0  0  0  0  0  0  0
    0.7479   65.8087   72.5395 H   0  0  0  0  0  0  0  0  0  0  0  0
   -0.8337   64.4753   70.2956 H   0  0  0  0  0  0  0  0  0  0  0  0
   -1.4248   65.8220   71.3510 H   0  0  0  0  0  0  0  0  0  0  0  0
    1.0757   62.4764   72.5347 H   0  0  0  0  0  0  0  0  0  0  0  0
    0.8934   62.3256   70.7266 H   0  0  0  0  0  0  0  0  0  0  0  0
    2.6690   61.5848   69.3374 H   0  0  0  0  0  0  0  0  0  0  0  0
    4.9101   60.5082   69.1743 H   0  0  0  0  0  0  0  0  0  0  0  0
    6.3616   60.3297   71.1916 H   0  0  0  0  0  0  0  0  0  0  0  0
    5.5716   61.2203   73.3804 H   0  0  0  0  0  0  0  0  0  0  0  0
    3.3326   62.2996   73.5555 H   0  0  0  0  0  0  0  0  0  0  0  0
  3  2  2  0
  4  3  1  0
  4  1  1  0
  5  3  1  0
  6  5  2  0
  7  6  1  0
  8  7  2  0
  9  7  1  0
 10  9  2  0
 11 10  1  0
 11  5  1  0
 12 10  1  0
 13 12  2  0
 14 13  1  0
 15 14  2  0
 15  9  1  0
 16  1  1  0
 17 16  1  0
 18 17  1  0
 19 18  1  0
 20 19  1  0
 21 20  1  0
 22 21  1  0
 22 17  1  0
 23 20  1  0
 24 23  1  0
 25 24  2  0
 26 25  1  0
 27 26  2  0
 28 27  1  0
 29 24  1  0
 29 28  2  0
  1 30  1  0
  1 31  1  0
  4 32  1  0
  6 33  1  0
 12 34  1  0
 13 35  1  0
 14 36  1  0
 15 37  1  0
 16 38  1  0
 16 39  1  0
 17 40  1  0
 18 41  1  0
 18 42  1  0
 19 43  1  0
 19 44  1  0
 20 45  1  0
 21 46  1  0
 21 47  1  0
 22 48  1  0
 22 49  1  0
 23 50  1  0
 23 51  1  0
 25 52  1  0
 26 53  1  0
 27 54  1  0
 28 55  1  0
 29 56  1  0
M  CHG  1  20   1
M  END
>  <score>  (3) 
-10.51

$$$$
=
     RDKit          3D

 56 59  0  0  0  0  0  0  0  0999 V2000
   -0.8460   66.5450   69.1650 C   0  0  0  0  0  0  0  0  0  0  0  0
   -0.3210   65.7230   71.8260 O   0  0  0  0  0  0  0  0  0  0  0  0
    0.0590   65.0270   70.8930 C   0  0  0  0  0  0  0  0  0  0  0  0
   -0.2280   65.2960   69.5690 N   0  0  0  0  0  0  0  0  0  0  0  0
    0.9120   63.8210   71.1290 C   0  0  0  0  0  0  0  0  0  0  0  0
    0.3620   62.7310   71.6830 C   0  0  0  0  0  0  0  0  0  0  0  0
    1.2110   61.5630   71.9600 C   0  0  0  0  0  0  0  0  0  0  0  0
    0.7290   60.5540   72.4550 O   0  0  0  0  0  0  0  0  0  0  0  0
    2.6340   61.6850   71.6100 C   0  0  0  0  0  0  0  0  0  0  0  0
    3.0840   62.8830   71.0600 C   0  0  0  0  0  0  0  0  0  0  0  0
    2.2570   63.9530   70.8260 O   0  0  0  0  0  0  0  0  0  0  0  0
    4.4290   63.0300   70.7220 C   0  0  0  0  0  0  0  0  0  0  0  0
    5.3170   61.9730   70.9360 C   0  0  0  0  0  0  0  0  0  0  0  0
    4.8630   60.7740   71.4870 C   0  0  0  0  0  0  0  0  0  0  0  0
    3.5180   60.6250   71.8280 C   0  0  0  0  0  0  0  0  0  0  0  0
   -1.2740   66.6100   67.6920 C   0  0  0  0  0  0  0  0  0  0  0  0
   -0.5910   67.7080   66.8510 C   0  0  0  0  0  0  0  0  0  0  0  0
    0.8020   67.3010   66.3360 C   0  0  0  0  0  0  0  0  0  0  0  0
    1.9210   67.8490   67.2090 C   0  0  0  0  0  0  0  0  0  0  0  0
    1.8920   69.3660   67.2090 N   0  0  0  0  0  4  0  0  0  0  0  0
    0.5050   69.9680   67.1000 C   0  0  0  0  0  0  0  0  0  0  0  0
   -0.5290   69.0130   67.6670 C   0  0  0  0  0  0  0  0  0  0  0  0
    2.6890   69.9590   68.3560 C   0  0  0  0  0  0  0  0  0  0  0  0
    4.1440   70.1470   68.0270 C   0  0  0  0  0  0  0  0  0  0  0  0
    4.6370   69.8100   66.7570 C   0  0  0  0  0  0  0  0  0  0  0  0
    5.9830   70.0160   66.4450 C   0  0  0  0  0  0  0  0  0  0  0  0
    6.8450   70.5570   67.3950 C   0  0  0  0  0  0  0  0  0  0  0  0
    6.3690   70.8900   68.6610 C   0  0  0  0  0  0  0  0  0  0  0  0
    5.0250   70.6860   68.9780 C   0  0  0  0  0  0  0  0  0  0  0  0
   -1.7396   66.7006   69.7873 H   0  0  0  0  0  0  0  0  0  0  0  0
   -0.0807   67.3239   69.2976 H   0  0  0  0  0  0  0  0  0  0  0  0
    0.0021   64.5935   68.8517 H   0  0  0  0  0  0  0  0  0  0  0  0
   -0.7104   62.7108   71.9271 H   0  0  0  0  0  0  0  0  0  0  0  0
    4.7893   63.9746   70.2886 H   0  0  0  0  0  0  0  0  0  0  0  0
    6.3781   62.0863   70.6692 H   0  0  0  0  0  0  0  0  0  0  0  0
    5.5665   59.9448   71.6528 H   0  0  0  0  0  0  0  0  0  0  0  0
    3.1571   59.6819   72.2643 H   0  0  0  0  0  0  0  0  0  0  0  0
   -1.0468   65.6381   67.2296 H   0  0  0  0  0  0  0  0  0  0  0  0
   -2.3458   66.8572   67.6991 H   0  0  0  0  0  0  0  0  0  0  0  0
   -1.2020   67.8649   65.9498 H   0  0  0  0  0  0  0  0  0  0  0  0
    0.8680   66.2031   66.3235 H   0  0  0  0  0  0  0  0  0  0  0  0
    0.9247   67.7214   65.3269 H   0  0  0  0  0  0  0  0  0  0  0  0
    1.7909   67.4833   68.2382 H   0  0  0  0  0  0  0  0  0  0  0  0
    2.8874   67.5090   66.8084 H   0  0  0  0  0  0  0  0  0  0  0  0
    2.3654   69.6367   66.3352 H   0  0  0  0  0  0  0  0  0  0  0  0
    0.4740   70.9125   67.6629 H   0  0  0  0  0  0  0  0  0  0  0  0
    0.2776   70.1538   66.0399 H   0  0  0  0  0  0  0  0  0  0  0  0
   -0.2633   68.7732   68.7071 H   0  0  0  0  0  0  0  0  0  0  0  0
   -1.5144   69.4996   67.6199 H   0  0  0  0  0  0  0  0  0  0  0  0
    2.2585   70.9383   68.6122 H   0  0  0  0  0  0  0  0  0  0  0  0
    2.6311   69.2516   69.1963 H   0  0  0  0  0  0  0  0  0  0  0  0
    3.9600   69.3814   66.0033 H   0  0  0  0  0  0  0  0  0  0  0  0
    6.3624   69.7504   65.4472 H   0  0  0  0  0  0  0  0  0  0  0  0
    7.9036   70.7217   67.1455 H   0  0  0  0  0  0  0  0  0  0  0  0
    7.0526   71.3139   69.4113 H   0  0  0  0  0  0  0  0  0  0  0  0
    4.6537   70.9493   69.9794 H   0  0  0  0  0  0  0  0  0  0  0  0
  3  2  2  0
  4  3  1  0
  4  1  1  0
  5  3  1  0
  6  5  2  0
  7  6  1  0
  8  7  2  0
  9  7  1  0
 10  9  2  0
 11 10  1  0
 11  5  1  0
 12 10  1  0
 13 12  2  0
 14 13  1  0
 15 14  2  0
 15  9  1  0
 16  1  1  0
 17 16  1  0
 18 17  1  0
 19 18  1  0
 20 19  1  0
 21 20  1  0
 22 21  1  0
 22 17  1  0
 23 20  1  0
 24 23  1  0
 25 24  2  0
 26 25  1  0
 27 26  2  0
 28 27  1  0
 29 24  1  0
 29 28  2  0
  1 30  1  0
  1 31  1  0
  4 32  1  0
  6 33  1  0
 12 34  1  0
 13 35  1  0
 14 36  1  0
 15 37  1  0
 16 38  1  0
 16 39  1  0
 17 40  1  0
 18 41  1  0
 18 42  1  0
 19 43  1  0
 19 44  1  0
 20 45  1  0
 21 46  1  0
 21 47  1  0
 22 48  1  0
 22 49  1  0
 23 50  1  0
 23 51  1  0
 25 52  1  0
 26 53  1  0
 27 54  1  0
 28 55  1  0
 29 56  1  0
M  CHG  1  20   1
M  END
>  <score>  (4) 
-10.438

$$$$
=
     RDKit          3D

 56 59  0  0  0  0  0  0  0  0999 V2000
    0.3570   68.1440   67.5600 C   0  0  0  0  0  0  0  0  0  0  0  0
    1.9340   67.7100   69.8740 O   0  0  0  0  0  0  0  0  0  0  0  0
    1.2020   66.8170   69.4650 C   0  0  0  0  0  0  0  0  0  0  0  0
    0.3310   66.9640   68.4040 N   0  0  0  0  0  0  0  0  0  0  0  0
    1.2270   65.4560   70.0850 C   0  0  0  0  0  0  0  0  0  0  0  0
    0.4070   65.1920   71.1130 C   0  0  0  0  0  0  0  0  0  0  0  0
    0.4650   63.8700   71.7540 C   0  0  0  0  0  0  0  0  0  0  0  0
   -0.2810   63.6030   72.6850 O   0  0  0  0  0  0  0  0  0  0  0  0
    1.4490   62.9190   71.2160 C   0  0  0  0  0  0  0  0  0  0  0  0
    2.2590   63.3270   70.1580 C   0  0  0  0  0  0  0  0  0  0  0  0
    2.1770   64.5760   69.5950 O   0  0  0  0  0  0  0  0  0  0  0  0
    3.2050   62.4490   69.6300 C   0  0  0  0  0  0  0  0  0  0  0  0
    3.3330   61.1640   70.1620 C   0  0  0  0  0  0  0  0  0  0  0  0
    2.5190   60.7580   71.2220 C   0  0  0  0  0  0  0  0  0  0  0  0
    1.5730   61.6360   71.7530 C   0  0  0  0  0  0  0  0  0  0  0  0
   -0.2870   67.9680   66.1770 C   0  0  0  0  0  0  0  0  0  0  0  0
    0.6790   67.5700   65.0420 C   0  0  0  0  0  0  0  0  0  0  0  0
    1.8880   66.7520   65.5310 C   0  0  0  0  0  0  0  0  0  0  0  0
    3.1260   67.6150   65.7260 C   0  0  0  0  0  0  0  0  0  0  0  0
    3.5400   68.2430   64.4080 N   0  0  0  0  0  4  0  0  0  0  0  0
    2.3880   68.5780   63.4820 C   0  0  0  0  0  0  0  0  0  0  0  0
    1.1260   68.8340   64.2850 C   0  0  0  0  0  0  0  0  0  0  0  0
    4.4860   69.4140   64.5980 C   0  0  0  0  0  0  0  0  0  0  0  0
    4.6900   69.7760   66.0430 C   0  0  0  0  0  0  0  0  0  0  0  0
    5.9680   70.1070   66.5220 C   0  0  0  0  0  0  0  0  0  0  0  0
    6.1480   70.4750   67.8570 C   0  0  0  0  0  0  0  0  0  0  0  0
    5.0590   70.5130   68.7240 C   0  0  0  0  0  0  0  0  0  0  0  0
    3.7880   70.1820   68.2620 C   0  0  0  0  0  0  0  0  0  0  0  0
    3.6020   69.8150   66.9290 C   0  0  0  0  0  0  0  0  0  0  0  0
   -0.1765   68.9504   68.0846 H   0  0  0  0  0  0  0  0  0  0  0  0
    1.4185   68.3682   67.3782 H   0  0  0  0  0  0  0  0  0  0  0  0
   -0.3527   66.2192   68.2071 H   0  0  0  0  0  0  0  0  0  0  0  0
   -0.2998   65.9546   71.4719 H   0  0  0  0  0  0  0  0  0  0  0  0
    3.8486   62.7676   68.7968 H   0  0  0  0  0  0  0  0  0  0  0  0
    4.0772   60.4695   69.7449 H   0  0  0  0  0  0  0  0  0  0  0  0
    2.6237   59.7453   71.6386 H   0  0  0  0  0  0  0  0  0  0  0  0
    0.9302   61.3199   72.5878 H   0  0  0  0  0  0  0  0  0  0  0  0
   -1.0559   67.1855   66.2580 H   0  0  0  0  0  0  0  0  0  0  0  0
   -0.6872   68.9549   65.9017 H   0  0  0  0  0  0  0  0  0  0  0  0
    0.1321   66.9038   64.3586 H   0  0  0  0  0  0  0  0  0  0  0  0
    1.6311   66.2795   66.4905 H   0  0  0  0  0  0  0  0  0  0  0  0
    2.1190   65.9994   64.7628 H   0  0  0  0  0  0  0  0  0  0  0  0
    2.9040   68.4098   66.4533 H   0  0  0  0  0  0  0  0  0  0  0  0
    3.9478   66.9851   66.0972 H   0  0  0  0  0  0  0  0  0  0  0  0
    4.0634   67.5030   63.9188 H   0  0  0  0  0  0  0  0  0  0  0  0
    2.6383   69.4785   62.9020 H   0  0  0  0  0  0  0  0  0  0  0  0
    2.2152   67.7296   62.8035 H   0  0  0  0  0  0  0  0  0  0  0  0
    1.3201   69.6369   65.0114 H   0  0  0  0  0  0  0  0  0  0  0  0
    0.3246   69.1240   63.5895 H   0  0  0  0  0  0  0  0  0  0  0  0
    5.4609   69.1514   64.1614 H   0  0  0  0  0  0  0  0  0  0  0  0
    4.0348   70.2855   64.1010 H   0  0  0  0  0  0  0  0  0  0  0  0
    6.8320   70.0762   65.8418 H   0  0  0  0  0  0  0  0  0  0  0  0
    7.1517   70.7353   68.2243 H   0  0  0  0  0  0  0  0  0  0  0  0
    5.2030   70.8048   69.7748 H   0  0  0  0  0  0  0  0  0  0  0  0
    2.9293   70.2099   68.9490 H   0  0  0  0  0  0  0  0  0  0  0  0
    2.5955   69.5543   66.5697 H   0  0  0  0  0  0  0  0  0  0  0  0
  3  2  2  0
  4  3  1  0
  4  1  1  0
  5  3  1  0
  6  5  2  0
  7  6  1  0
  8  7  2  0
  9  7  1  0
 10  9  2  0
 11 10  1  0
 11  5  1  0
 12 10  1  0
 13 12  2  0
 14 13  1  0
 15 14  2  0
 15  9  1  0
 16  1  1  0
 17 16  1  0
 18 17  1  0
 19 18  1  0
 20 19  1  0
 21 20  1  0
 22 21  1  0
 22 17  1  0
 23 20  1  0
 24 23  1  0
 25 24  2  0
 26 25  1  0
 27 26  2  0
 28 27  1  0
 29 24  1  0
 29 28  2  0
  1 30  1  0
  1 31  1  0
  4 32  1  0
  6 33  1  0
 12 34  1  0
 13 35  1  0
 14 36  1  0
 15 37  1  0
 16 38  1  0
 16 39  1  0
 17 40  1  0
 18 41  1  0
 18 42  1  0
 19 43  1  0
 19 44  1  0
 20 45  1  0
 21 46  1  0
 21 47  1  0
 22 48  1  0
 22 49  1  0
 23 50  1  0
 23 51  1  0
 25 52  1  0
 26 53  1  0
 27 54  1  0
 28 55  1  0
 29 56  1  0
M  CHG  1  20   1
M  END
>  <score>  (5) 
-10.298

$$$$
=
     RDKit          3D

 56 59  0  0  0  0  0  0  0  0999 V2000
    0.2030   64.0750   72.7960 C   0  0  0  0  0  0  0  0  0  0  0  0
    1.8180   64.2410   70.4730 O   0  0  0  0  0  0  0  0  0  0  0  0
    0.8460   64.9790   70.5880 C   0  0  0  0  0  0  0  0  0  0  0  0
   -0.0490   64.9100   71.6370 N   0  0  0  0  0  0  0  0  0  0  0  0
    0.5760   66.0570   69.5880 C   0  0  0  0  0  0  0  0  0  0  0  0
    1.4910   67.0180   69.4000 C   0  0  0  0  0  0  0  0  0  0  0  0
    1.2050   68.1050   68.4520 C   0  0  0  0  0  0  0  0  0  0  0  0
    2.0300   68.9860   68.2570 O   0  0  0  0  0  0  0  0  0  0  0  0
   -0.0980   68.0620   67.7740 C   0  0  0  0  0  0  0  0  0  0  0  0
   -0.9710   67.0180   68.0750 C   0  0  0  0  0  0  0  0  0  0  0  0
   -0.6660   66.0280   68.9750 O   0  0  0  0  0  0  0  0  0  0  0  0
   -2.2160   66.9520   67.4510 C   0  0  0  0  0  0  0  0  0  0  0  0
   -2.5810   67.9320   66.5250 C   0  0  0  0  0  0  0  0  0  0  0  0
   -1.7040   68.9770   66.2240 C   0  0  0  0  0  0  0  0  0  0  0  0
   -0.4580   69.0450   66.8490 C   0  0  0  0  0  0  0  0  0  0  0  0
   -0.2830   62.6240   72.6700 C   0  0  0  0  0  0  0  0  0  0  0  0
    0.5190   61.5840   73.4790 C   0  0  0  0  0  0  0  0  0  0  0  0
    1.7500   62.1800   74.1860 C   0  0  0  0  0  0  0  0  0  0  0  0
    3.0330   61.9500   73.4010 C   0  0  0  0  0  0  0  0  0  0  0  0
    3.3010   60.4640   73.2580 N   0  0  0  0  0  4  0  0  0  0  0  0
    2.0550   59.6070   73.1510 C   0  0  0  0  0  0  0  0  0  0  0  0
    0.9130   60.4130   72.5590 C   0  0  0  0  0  0  0  0  0  0  0  0
    4.3040   60.1610   72.1610 C   0  0  0  0  0  0  0  0  0  0  0  0
    4.2130   61.1130   71.0000 C   0  0  0  0  0  0  0  0  0  0  0  0
    4.9740   62.2920   70.9830 C   0  0  0  0  0  0  0  0  0  0  0  0
    4.9100   63.1570   69.8890 C   0  0  0  0  0  0  0  0  0  0  0  0
    4.0880   62.8550   68.8060 C   0  0  0  0  0  0  0  0  0  0  0  0
    3.3240   61.6910   68.8140 C   0  0  0  0  0  0  0  0  0  0  0  0
    3.3840   60.8220   69.9050 C   0  0  0  0  0  0  0  0  0  0  0  0
    1.2884   64.0568   72.9737 H   0  0  0  0  0  0  0  0  0  0  0  0
   -0.3685   64.5192   73.6243 H   0  0  0  0  0  0  0  0  0  0  0  0
   -0.9160   65.4645   71.5956 H   0  0  0  0  0  0  0  0  0  0  0  0
    2.4444   66.9939   69.9482 H   0  0  0  0  0  0  0  0  0  0  0  0
   -2.9087   66.1308   67.6872 H   0  0  0  0  0  0  0  0  0  0  0  0
   -3.5625   67.8808   66.0310 H   0  0  0  0  0  0  0  0  0  0  0  0
   -1.9957   69.7465   65.4941 H   0  0  0  0  0  0  0  0  0  0  0  0
    0.2353   69.8663   66.6150 H   0  0  0  0  0  0  0  0  0  0  0  0
   -1.3283   62.5857   73.0103 H   0  0  0  0  0  0  0  0  0  0  0  0
   -0.1516   62.3516   71.6124 H   0  0  0  0  0  0  0  0  0  0  0  0
   -0.1328   61.2173   74.2856 H   0  0  0  0  0  0  0  0  0  0  0  0
    1.5987   63.2627   74.3075 H   0  0  0  0  0  0  0  0  0  0  0  0
    1.8557   61.6780   75.1591 H   0  0  0  0  0  0  0  0  0  0  0  0
    2.9329   62.3989   72.4017 H   0  0  0  0  0  0  0  0  0  0  0  0
    3.8715   62.4155   73.9398 H   0  0  0  0  0  0  0  0  0  0  0  0
    3.7323   60.1895   74.1522 H   0  0  0  0  0  0  0  0  0  0  0  0
    2.2633   58.7424   72.5036 H   0  0  0  0  0  0  0  0  0  0  0  0
    1.7685   59.2636   74.1560 H   0  0  0  0  0  0  0  0  0  0  0  0
    1.2250   60.8133   71.5831 H   0  0  0  0  0  0  0  0  0  0  0  0
    0.0418   59.7507   72.4473 H   0  0  0  0  0  0  0  0  0  0  0  0
    5.3168   60.2224   72.5857 H   0  0  0  0  0  0  0  0  0  0  0  0
    4.0785   59.1545   71.7788 H   0  0  0  0  0  0  0  0  0  0  0  0
    5.6243   62.5359   71.8360 H   0  0  0  0  0  0  0  0  0  0  0  0
    5.5100   64.0789   69.8824 H   0  0  0  0  0  0  0  0  0  0  0  0
    4.0423   63.5365   67.9438 H   0  0  0  0  0  0  0  0  0  0  0  0
    2.6723   61.4558   67.9596 H   0  0  0  0  0  0  0  0  0  0  0  0
    2.7782   59.9039   69.9067 H   0  0  0  0  0  0  0  0  0  0  0  0
  3  2  2  0
  4  3  1  0
  4  1  1  0
  5  3  1  0
  6  5  2  0
  7  6  1  0
  8  7  2  0
  9  7  1  0
 10  9  2  0
 11 10  1  0
 11  5  1  0
 12 10  1  0
 13 12  2  0
 14 13  1  0
 15 14  2  0
 15  9  1  0
 16  1  1  0
 17 16  1  0
 18 17  1  0
 19 18  1  0
 20 19  1  0
 21 20  1  0
 22 21  1  0
 22 17  1  0
 23 20  1  0
 24 23  1  0
 25 24  2  0
 26 25  1  0
 27 26  2  0
 28 27  1  0
 29 24  1  0
 29 28  2  0
  1 30  1  0
  1 31  1  0
  4 32  1  0
  6 33  1  0
 12 34  1  0
 13 35  1  0
 14 36  1  0
 15 37  1  0
 16 38  1  0
 16 39  1  0
 17 40  1  0
 18 41  1  0
 18 42  1  0
 19 43  1  0
 19 44  1  0
 20 45  1  0
 21 46  1  0
 21 47  1  0
 22 48  1  0
 22 49  1  0
 23 50  1  0
 23 51  1  0
 25 52  1  0
 26 53  1  0
 27 54  1  0
 28 55  1  0
 29 56  1  0
M  CHG  1  20   1
M  END
>  <score>  (6) 
-10.191

$$$$
=
     RDKit          3D

 56 59  0  0  0  0  0  0  0  0999 V2000
    0.3090   66.8360   69.4970 C   0  0  0  0  0  0  0  0  0  0  0  0
   -0.0960   67.1720   66.7120 O   0  0  0  0  0  0  0  0  0  0  0  0
    0.9480   67.5600   67.2220 C   0  0  0  0  0  0  0  0  0  0  0  0
    1.1980   67.5230   68.5790 N   0  0  0  0  0  0  0  0  0  0  0  0
    2.0680   68.0840   66.3810 C   0  0  0  0  0  0  0  0  0  0  0  0
    2.9410   68.9470   66.9190 C   0  0  0  0  0  0  0  0  0  0  0  0
    4.0130   69.4990   66.0780 C   0  0  0  0  0  0  0  0  0  0  0  0
    4.8270   70.2800   66.5520 O   0  0  0  0  0  0  0  0  0  0  0  0
    4.0420   69.0630   64.6750 C   0  0  0  0  0  0  0  0  0  0  0  0
    3.0600   68.1780   64.2340 C   0  0  0  0  0  0  0  0  0  0  0  0
    2.0710   67.6930   65.0520 O   0  0  0  0  0  0  0  0  0  0  0  0
    3.0590   67.7490   62.9070 C   0  0  0  0  0  0  0  0  0  0  0  0
    4.0430   68.2080   62.0280 C   0  0  0  0  0  0  0  0  0  0  0  0
    5.0250   69.0950   62.4740 C   0  0  0  0  0  0  0  0  0  0  0  0
    5.0270   69.5270   63.8000 C   0  0  0  0  0  0  0  0  0  0  0  0
    1.0040   65.9080   70.5030 C   0  0  0  0  0  0  0  0  0  0  0  0
    1.2480   64.4650   70.0150 C   0  0  0  0  0  0  0  0  0  0  0  0
    0.0480   63.5310   70.2570 C   0  0  0  0  0  0  0  0  0  0  0  0
    0.2140   62.6940   71.5170 C   0  0  0  0  0  0  0  0  0  0  0  0
    1.4340   61.8000   71.3960 N   0  0  0  0  0  4  0  0  0  0  0  0
    2.5750   62.3980   70.5970 C   0  0  0  0  0  0  0  0  0  0  0  0
    2.5290   63.9140   70.6690 C   0  0  0  0  0  0  0  0  0  0  0  0
    1.8910   61.2630   72.7390 C   0  0  0  0  0  0  0  0  0  0  0  0
    1.4410   59.8500   72.9920 C   0  0  0  0  0  0  0  0  0  0  0  0
    2.2430   58.7660   72.6040 C   0  0  0  0  0  0  0  0  0  0  0  0
    1.8360   57.4570   72.8700 C   0  0  0  0  0  0  0  0  0  0  0  0
    0.6290   57.2190   73.5210 C   0  0  0  0  0  0  0  0  0  0  0  0
   -0.1780   58.2860   73.9070 C   0  0  0  0  0  0  0  0  0  0  0  0
    0.2240   59.5970   73.6450 C   0  0  0  0  0  0  0  0  0  0  0  0
   -0.2496   67.5957   70.0634 H   0  0  0  0  0  0  0  0  0  0  0  0
   -0.3330   66.1919   68.8782 H   0  0  0  0  0  0  0  0  0  0  0  0
    2.0358   67.9944   68.9488 H   0  0  0  0  0  0  0  0  0  0  0  0
    2.8564   69.2385   67.9763 H   0  0  0  0  0  0  0  0  0  0  0  0
    2.2856   67.0512   62.5535 H   0  0  0  0  0  0  0  0  0  0  0  0
    4.0443   67.8697   60.9813 H   0  0  0  0  0  0  0  0  0  0  0  0
    5.7981   69.4535   61.7784 H   0  0  0  0  0  0  0  0  0  0  0  0
    5.7979   70.2273   64.1539 H   0  0  0  0  0  0  0  0  0  0  0  0
    1.9792   66.3503   70.7547 H   0  0  0  0  0  0  0  0  0  0  0  0
    0.3204   65.8257   71.3609 H   0  0  0  0  0  0  0  0  0  0  0  0
    1.3766   64.5002   68.9231 H   0  0  0  0  0  0  0  0  0  0  0  0
   -0.8617   64.1416   70.3550 H   0  0  0  0  0  0  0  0  0  0  0  0
   -0.0211   62.8426   69.4018 H   0  0  0  0  0  0  0  0  0  0  0  0
    0.3371   63.3613   72.3828 H   0  0  0  0  0  0  0  0  0  0  0  0
   -0.6791   62.0659   71.6506 H   0  0  0  0  0  0  0  0  0  0  0  0
    1.1149   60.9961   70.8367 H   0  0  0  0  0  0  0  0  0  0  0  0
    3.5315   62.0437   71.0088 H   0  0  0  0  0  0  0  0  0  0  0  0
    2.4792   62.0860   69.5465 H   0  0  0  0  0  0  0  0  0  0  0  0
    2.5548   64.2239   71.7241 H   0  0  0  0  0  0  0  0  0  0  0  0
    3.3972   64.3146   70.1253 H   0  0  0  0  0  0  0  0  0  0  0  0
    2.9901   61.2919   72.7723 H   0  0  0  0  0  0  0  0  0  0  0  0
    1.4394   61.8960   73.5170 H   0  0  0  0  0  0  0  0  0  0  0  0
    3.1971   58.9483   72.0877 H   0  0  0  0  0  0  0  0  0  0  0  0
    2.4706   56.6121   72.5644 H   0  0  0  0  0  0  0  0  0  0  0  0
    0.3123   56.1867   73.7308 H   0  0  0  0  0  0  0  0  0  0  0  0
   -1.1330   58.0958   74.4187 H   0  0  0  0  0  0  0  0  0  0  0  0
   -0.4166   60.4369   73.9520 H   0  0  0  0  0  0  0  0  0  0  0  0
  3  2  2  0
  4  3  1  0
  4  1  1  0
  5  3  1  0
  6  5  2  0
  7  6  1  0
  8  7  2  0
  9  7  1  0
 10  9  2  0
 11 10  1  0
 11  5  1  0
 12 10  1  0
 13 12  2  0
 14 13  1  0
 15 14  2  0
 15  9  1  0
 16  1  1  0
 17 16  1  0
 18 17  1  0
 19 18  1  0
 20 19  1  0
 21 20  1  0
 22 21  1  0
 22 17  1  0
 23 20  1  0
 24 23  1  0
 25 24  2  0
 26 25  1  0
 27 26  2  0
 28 27  1  0
 29 24  1  0
 29 28  2  0
  1 30  1  0
  1 31  1  0
  4 32  1  0
  6 33  1  0
 12 34  1  0
 13 35  1  0
 14 36  1  0
 15 37  1  0
 16 38  1  0
 16 39  1  0
 17 40  1  0
 18 41  1  0
 18 42  1  0
 19 43  1  0
 19 44  1  0
 20 45  1  0
 21 46  1  0
 21 47  1  0
 22 48  1  0
 22 49  1  0
 23 50  1  0
 23 51  1  0
 25 52  1  0
 26 53  1  0
 27 54  1  0
 28 55  1  0
 29 56  1  0
M  CHG  1  20   1
M  END
>  <score>  (7) 
-10.178

$$$$
=
     RDKit          3D

 56 59  0  0  0  0  0  0  0  0999 V2000
    0.4070   65.1190   70.8510 C   0  0  0  0  0  0  0  0  0  0  0  0
   -0.7160   66.4570   68.6190 O   0  0  0  0  0  0  0  0  0  0  0  0
    0.4700   66.6130   68.8830 C   0  0  0  0  0  0  0  0  0  0  0  0
    1.0840   66.0780   69.9980 N   0  0  0  0  0  0  0  0  0  0  0  0
    1.3660   67.3890   67.9720 C   0  0  0  0  0  0  0  0  0  0  0  0
    1.9070   68.5350   68.4080 C   0  0  0  0  0  0  0  0  0  0  0  0
    2.7500   69.3230   67.4960 C   0  0  0  0  0  0  0  0  0  0  0  0
    3.2620   70.3660   67.8760 O   0  0  0  0  0  0  0  0  0  0  0  0
    2.9310   68.7880   66.1390 C   0  0  0  0  0  0  0  0  0  0  0  0
    2.2940   67.5950   65.8030 C   0  0  0  0  0  0  0  0  0  0  0  0
    1.5080   66.8960   66.6850 O   0  0  0  0  0  0  0  0  0  0  0  0
    2.4430   67.0640   64.5230 C   0  0  0  0  0  0  0  0  0  0  0  0
    3.2320   67.7320   63.5830 C   0  0  0  0  0  0  0  0  0  0  0  0
    3.8700   68.9270   63.9220 C   0  0  0  0  0  0  0  0  0  0  0  0
    3.7200   69.4600   65.2030 C   0  0  0  0  0  0  0  0  0  0  0  0
    0.9230   63.6760   70.7430 C   0  0  0  0  0  0  0  0  0  0  0  0
    2.3460   63.5230   70.1670 C   0  0  0  0  0  0  0  0  0  0  0  0
    2.4630   62.3900   69.1310 C   0  0  0  0  0  0  0  0  0  0  0  0
    3.0150   61.1090   69.7380 C   0  0  0  0  0  0  0  0  0  0  0  0
    4.4150   61.3440   70.2750 N   0  0  0  0  0  4  0  0  0  0  0  0
    4.6520   62.7350   70.8270 C   0  0  0  0  0  0  0  0  0  0  0  0
    3.3470   63.3330   71.3220 C   0  0  0  0  0  0  0  0  0  0  0  0
    4.8520   60.2590   71.2420 C   0  0  0  0  0  0  0  0  0  0  0  0
    3.6980   59.4920   71.8270 C   0  0  0  0  0  0  0  0  0  0  0  0
    2.9000   60.0600   72.8320 C   0  0  0  0  0  0  0  0  0  0  0  0
    1.8110   59.3580   73.3500 C   0  0  0  0  0  0  0  0  0  0  0  0
    1.5090   58.0850   72.8730 C   0  0  0  0  0  0  0  0  0  0  0  0
    2.2970   57.5080   71.8790 C   0  0  0  0  0  0  0  0  0  0  0  0
    3.3870   58.2060   71.3570 C   0  0  0  0  0  0  0  0  0  0  0  0
    0.5260   65.4467   71.8943 H   0  0  0  0  0  0  0  0  0  0  0  0
   -0.6408   65.0965   70.5169 H   0  0  0  0  0  0  0  0  0  0  0  0
    2.0453   66.3664   70.2298 H   0  0  0  0  0  0  0  0  0  0  0  0
    1.7228   68.8821   69.4354 H   0  0  0  0  0  0  0  0  0  0  0  0
    1.9414   66.1227   64.2539 H   0  0  0  0  0  0  0  0  0  0  0  0
    3.3510   67.3150   62.5721 H   0  0  0  0  0  0  0  0  0  0  0  0
    4.4912   69.4485   63.1789 H   0  0  0  0  0  0  0  0  0  0  0  0
    4.2194   70.4021   65.4733 H   0  0  0  0  0  0  0  0  0  0  0  0
    0.9162   63.2369   71.7515 H   0  0  0  0  0  0  0  0  0  0  0  0
    0.2531   63.1670   70.0344 H   0  0  0  0  0  0  0  0  0  0  0  0
    2.5848   64.4467   69.6196 H   0  0  0  0  0  0  0  0  0  0  0  0
    1.4648   62.1842   68.7173 H   0  0  0  0  0  0  0  0  0  0  0  0
    3.1614   62.7201   68.3479 H   0  0  0  0  0  0  0  0  0  0  0  0
    2.3601   60.7850   70.5603 H   0  0  0  0  0  0  0  0  0  0  0  0
    3.0546   60.3317   68.9607 H   0  0  0  0  0  0  0  0  0  0  0  0
    5.0256   61.2823   69.4478 H   0  0  0  0  0  0  0  0  0  0  0  0
    5.3652   62.6776   71.6625 H   0  0  0  0  0  0  0  0  0  0  0  0
    5.0588   63.3731   70.0287 H   0  0  0  0  0  0  0  0  0  0  0  0
    2.9058   62.6598   72.0717 H   0  0  0  0  0  0  0  0  0  0  0  0
    3.5609   64.3181   71.7622 H   0  0  0  0  0  0  0  0  0  0  0  0
    5.5052   59.5545   70.7062 H   0  0  0  0  0  0  0  0  0  0  0  0
    5.3746   60.7522   72.0749 H   0  0  0  0  0  0  0  0  0  0  0  0
    3.1344   61.0647   73.2137 H   0  0  0  0  0  0  0  0  0  0  0  0
    1.1898   59.8110   74.1367 H   0  0  0  0  0  0  0  0  0  0  0  0
    0.6483   57.5348   73.2809 H   0  0  0  0  0  0  0  0  0  0  0  0
    2.0596   56.5010   71.5053 H   0  0  0  0  0  0  0  0  0  0  0  0
    4.0061   57.7459   70.5727 H   0  0  0  0  0  0  0  0  0  0  0  0
  3  2  2  0
  4  3  1  0
  4  1  1  0
  5  3  1  0
  6  5  2  0
  7  6  1  0
  8  7  2  0
  9  7  1  0
 10  9  2  0
 11 10  1  0
 11  5  1  0
 12 10  1  0
 13 12  2  0
 14 13  1  0
 15 14  2  0
 15  9  1  0
 16  1  1  0
 17 16  1  0
 18 17  1  0
 19 18  1  0
 20 19  1  0
 21 20  1  0
 22 21  1  0
 22 17  1  0
 23 20  1  0
 24 23  1  0
 25 24  2  0
 26 25  1  0
 27 26  2  0
 28 27  1  0
 29 24  1  0
 29 28  2  0
  1 30  1  0
  1 31  1  0
  4 32  1  0
  6 33  1  0
 12 34  1  0
 13 35  1  0
 14 36  1  0
 15 37  1  0
 16 38  1  0
 16 39  1  0
 17 40  1  0
 18 41  1  0
 18 42  1  0
 19 43  1  0
 19 44  1  0
 20 45  1  0
 21 46  1  0
 21 47  1  0
 22 48  1  0
 22 49  1  0
 23 50  1  0
 23 51  1  0
 25 52  1  0
 26 53  1  0
 27 54  1  0
 28 55  1  0
 29 56  1  0
M  CHG  1  20   1
M  END
>  <score>  (8) 
-10.174

$$$$
=
     RDKit          3D

 56 59  0  0  0  0  0  0  0  0999 V2000
    0.7230   65.4460   70.5020 C   0  0  0  0  0  0  0  0  0  0  0  0
    1.8290   67.8810   69.5630 O   0  0  0  0  0  0  0  0  0  0  0  0
    1.0960   67.2280   68.8310 C   0  0  0  0  0  0  0  0  0  0  0  0
    0.5850   65.9890   69.1640 N   0  0  0  0  0  0  0  0  0  0  0  0
    0.6660   67.7590   67.5000 C   0  0  0  0  0  0  0  0  0  0  0  0
   -0.6130   68.1200   67.3240 C   0  0  0  0  0  0  0  0  0  0  0  0
   -1.0460   68.5970   66.0020 C   0  0  0  0  0  0  0  0  0  0  0  0
   -2.2060   68.9420   65.8220 O   0  0  0  0  0  0  0  0  0  0  0  0
   -0.0250   68.6310   64.9460 C   0  0  0  0  0  0  0  0  0  0  0  0
    1.2650   68.2060   65.2540 C   0  0  0  0  0  0  0  0  0  0  0  0
    1.6260   67.7590   66.5010 O   0  0  0  0  0  0  0  0  0  0  0  0
    2.2550   68.2230   64.2720 C   0  0  0  0  0  0  0  0  0  0  0  0
    1.9480   68.6680   62.9840 C   0  0  0  0  0  0  0  0  0  0  0  0
    0.6540   69.0940   62.6790 C   0  0  0  0  0  0  0  0  0  0  0  0
   -0.3390   69.0770   63.6600 C   0  0  0  0  0  0  0  0  0  0  0  0
    1.1830   63.9820   70.5650 C   0  0  0  0  0  0  0  0  0  0  0  0
    2.5970   63.7080   70.0140 C   0  0  0  0  0  0  0  0  0  0  0  0
    2.6510   62.5140   69.0430 C   0  0  0  0  0  0  0  0  0  0  0  0
    3.1160   61.2370   69.7250 C   0  0  0  0  0  0  0  0  0  0  0  0
    4.5230   61.4120   70.2640 N   0  0  0  0  0  4  0  0  0  0  0  0
    4.8440   62.8140   70.7410 C   0  0  0  0  0  0  0  0  0  0  0  0
    3.5760   63.5200   71.1880 C   0  0  0  0  0  0  0  0  0  0  0  0
    4.8830   60.3570   71.2930 C   0  0  0  0  0  0  0  0  0  0  0  0
    3.6810   59.6590   71.8660 C   0  0  0  0  0  0  0  0  0  0  0  0
    3.3890   58.3330   71.5090 C   0  0  0  0  0  0  0  0  0  0  0  0
    2.2900   57.6770   72.0680 C   0  0  0  0  0  0  0  0  0  0  0  0
    1.4730   58.3380   72.9830 C   0  0  0  0  0  0  0  0  0  0  0  0
    1.7500   59.6550   73.3410 C   0  0  0  0  0  0  0  0  0  0  0  0
    2.8470   60.3150   72.7860 C   0  0  0  0  0  0  0  0  0  0  0  0
    1.4585   66.0583   71.0444 H   0  0  0  0  0  0  0  0  0  0  0  0
   -0.2818   65.4716   70.9489 H   0  0  0  0  0  0  0  0  0  0  0  0
    0.0944   65.4376   68.4455 H   0  0  0  0  0  0  0  0  0  0  0  0
   -1.3288   68.0602   68.1571 H   0  0  0  0  0  0  0  0  0  0  0  0
    3.2748   67.8869   64.5110 H   0  0  0  0  0  0  0  0  0  0  0  0
    2.7277   68.6828   62.2082 H   0  0  0  0  0  0  0  0  0  0  0  0
    0.4164   69.4438   61.6635 H   0  0  0  0  0  0  0  0  0  0  0  0
   -1.3595   69.4118   63.4225 H   0  0  0  0  0  0  0  0  0  0  0  0
    1.1619   63.6648   71.6181 H   0  0  0  0  0  0  0  0  0  0  0  0
    0.4923   63.4195   69.9196 H   0  0  0  0  0  0  0  0  0  0  0  0
    2.8965   64.5835   69.4192 H   0  0  0  0  0  0  0  0  0  0  0  0
    1.6452   62.3483   68.6296 H   0  0  0  0  0  0  0  0  0  0  0  0
    3.3755   62.7561   68.2514 H   0  0  0  0  0  0  0  0  0  0  0  0
    2.4355   61.0008   70.5563 H   0  0  0  0  0  0  0  0  0  0  0  0
    3.1126   60.4173   68.9915 H   0  0  0  0  0  0  0  0  0  0  0  0
    5.1349   61.2657   69.4485 H   0  0  0  0  0  0  0  0  0  0  0  0
    5.5459   62.7583   71.5861 H   0  0  0  0  0  0  0  0  0  0  0  0
    5.2965   63.3796   69.9131 H   0  0  0  0  0  0  0  0  0  0  0  0
    3.0876   62.9190   71.9692 H   0  0  0  0  0  0  0  0  0  0  0  0
    3.8492   64.5128   71.5748 H   0  0  0  0  0  0  0  0  0  0  0  0
    5.5286   59.6063   70.8138 H   0  0  0  0  0  0  0  0  0  0  0  0
    5.3926   60.8682   72.1230 H   0  0  0  0  0  0  0  0  0  0  0  0
    4.0293   57.8078   70.7850 H   0  0  0  0  0  0  0  0  0  0  0  0
    2.0691   56.6371   71.7856 H   0  0  0  0  0  0  0  0  0  0  0  0
    0.6086   57.8191   73.4229 H   0  0  0  0  0  0  0  0  0  0  0  0
    1.1031   60.1757   74.0623 H   0  0  0  0  0  0  0  0  0  0  0  0
    3.0599   61.3559   73.0709 H   0  0  0  0  0  0  0  0  0  0  0  0
  3  2  2  0
  4  3  1  0
  4  1  1  0
  5  3  1  0
  6  5  2  0
  7  6  1  0
  8  7  2  0
  9  7  1  0
 10  9  2  0
 11 10  1  0
 11  5  1  0
 12 10  1  0
 13 12  2  0
 14 13  1  0
 15 14  2  0
 15  9  1  0
 16  1  1  0
 17 16  1  0
 18 17  1  0
 19 18  1  0
 20 19  1  0
 21 20  1  0
 22 21  1  0
 22 17  1  0
 23 20  1  0
 24 23  1  0
 25 24  2  0
 26 25  1  0
 27 26  2  0
 28 27  1  0
 29 24  1  0
 29 28  2  0
  1 30  1  0
  1 31  1  0
  4 32  1  0
  6 33  1  0
 12 34  1  0
 13 35  1  0
 14 36  1  0
 15 37  1  0
 16 38  1  0
 16 39  1  0
 17 40  1  0
 18 41  1  0
 18 42  1  0
 19 43  1  0
 19 44  1  0
 20 45  1  0
 21 46  1  0
 21 47  1  0
 22 48  1  0
 22 49  1  0
 23 50  1  0
 23 51  1  0
 25 52  1  0
 26 53  1  0
 27 54  1  0
 28 55  1  0
 29 56  1  0
M  CHG  1  20   1
M  END
>  <score>  (9) 
-10.123

$$$$
