=
     RDKit          3D

 99106  0  0  0  0  0  0  0  0999 V2000
   -4.8480   58.5710   76.8080 C   0  0  0  0  0  0  0  0  0  0  0  0
   -4.5930   59.6470   77.8360 N   0  0  0  0  0  4  0  0  0  0  0  0
   -5.8450   60.3100   78.3980 C   0  0  0  0  0  0  0  0  0  0  0  0
   -5.4960   61.2840   79.5590 C   0  0  0  0  0  0  0  0  0  0  0  0
   -4.0760   61.7220   79.5270 N   0  0  0  0  0  0  0  0  0  0  0  0
   -3.1250   60.5860   79.6570 C   0  0  0  0  0  0  0  0  0  0  0  0
   -3.6050   59.2980   78.9320 C   0  0  0  0  0  0  0  0  0  0  0  0
   -3.8330   62.5430   78.4010 C   0  0  0  0  0  0  0  0  0  0  0  0
   -2.5390   62.7640   77.9870 C   0  0  0  0  0  0  0  0  0  0  0  0
   -2.3370   63.6870   76.9840 C   0  0  0  0  0  0  0  0  0  0  0  0
   -3.3830   64.3480   76.4600 N   0  0  0  0  0  0  0  0  0  0  0  0
   -4.6220   64.0550   76.8590 C   0  0  0  0  0  0  0  0  0  0  0  0
   -4.8780   63.1860   77.8500 N   0  0  0  0  0  0  0  0  0  0  0  0
   -5.7000   64.7360   76.3260 N   0  0  0  0  0  0  0  0  0  0  0  0
   -5.4600   65.5870   75.1530 C   0  0  0  0  0  0  0  0  0  0  0  0
   -6.6950   65.3870   74.2700 C   0  0  0  0  0  0  0  0  0  0  0  0
   -7.7540   64.8760   75.2310 C   0  0  0  0  0  0  0  0  0  0  0  0
   -6.9430   63.9920   76.1680 C   0  0  0  0  0  0  0  0  0  0  0  0
   -1.0720   64.0050   76.5430 N   0  0  0  0  0  0  0  0  0  0  0  0
    0.0450   63.0620   76.5790 C   0  0  0  0  0  0  0  0  0  0  0  0
    0.9190   63.4570   75.3870 C   0  0  0  0  0  0  0  0  0  0  0  0
    0.5790   64.9210   75.1610 C   0  0  0  0  0  0  0  0  0  0  0  0
   -0.9200   64.9570   75.4440 C   0  0  0  0  0  0  0  0  0  0  0  0
   -3.6090   58.0670   76.0720 C   0  0  0  0  0  0  0  0  0  0  0  0
   -3.0340   57.0370   76.4270 O   0  0  0  0  0  0  0  0  0  0  0  0
    4.0260   59.3670   69.1000 O   0  0  0  0  0  0  0  0  0  0  0  0
    3.5350   59.5660   70.2040 C   0  0  0  0  0  0  0  0  0  0  0  0
    3.7350   58.6160   71.3130 C   0  0  0  0  0  0  0  0  0  0  0  0
    3.1730   58.8280   72.5090 C   0  0  0  0  0  0  0  0  0  0  0  0
    2.2930   60.0220   72.8700 C   0  0  1  0  0  0  0  0  0  0  0  0
    2.1500   60.9760   71.6800 C   0  0  0  0  0  0  0  0  0  0  0  0
    2.7160   60.7640   70.4780 C   0  0  0  0  0  0  0  0  0  0  0  0
    1.2600   62.1720   71.8970 C   0  0  0  0  0  0  0  0  0  0  0  0
   -0.1350   61.7090   72.2980 C   0  0  0  0  0  0  0  0  0  0  0  0
   -0.1230   60.7690   73.5210 C   0  0  2  0  0  0  0  0  0  0  0  0
    0.8740   59.6040   73.3420 C   0  0  0  0  0  0  0  0  0  0  0  0
    0.4980   58.3270   73.6050 C   0  0  0  0  0  0  0  0  0  0  0  0
   -0.8410   57.9090   74.1620 C   0  0  0  0  0  0  0  0  0  0  0  0
   -1.6040   59.0880   74.7880 C   0  0  1  0  0  0  0  0  0  0  0  0
   -1.5480   60.2430   73.7670 C   0  0  1  0  0  0  0  0  0  0  0  0
   -2.5940   61.2380   74.2640 C   0  0  0  0  0  0  0  0  0  0  0  0
   -3.6880   60.3570   74.9080 C   0  0  2  0  0  0  0  0  0  0  0  0
   -3.1370   58.9020   74.8850 C   0  0  2  0  0  0  0  0  0  0  0  0
   -5.0220   60.4660   74.1760 C   0  0  0  0  0  0  0  0  0  0  0  0
   -0.9830   59.4460   76.1610 C   0  0  0  0  0  0  0  0  0  0  0  0
    3.0270   60.7320   74.0310 C   0  0  0  0  0  0  0  0  0  0  0  0
   -5.3114   57.7147   77.3198 H   0  0  0  0  0  0  0  0  0  0  0  0
   -5.4926   59.0275   76.0425 H   0  0  0  0  0  0  0  0  0  0  0  0
   -4.1187   60.3579   77.2611 H   0  0  0  0  0  0  0  0  0  0  0  0
   -6.3432   60.8733   77.5952 H   0  0  0  0  0  0  0  0  0  0  0  0
   -6.5072   59.5245   78.7910 H   0  0  0  0  0  0  0  0  0  0  0  0
   -6.1408   62.1717   79.4806 H   0  0  0  0  0  0  0  0  0  0  0  0
   -5.6592   60.7479   80.5056 H   0  0  0  0  0  0  0  0  0  0  0  0
   -2.1584   60.8887   79.2280 H   0  0  0  0  0  0  0  0  0  0  0  0
   -3.0460   60.3475   80.7279 H   0  0  0  0  0  0  0  0  0  0  0  0
   -4.0912   58.6318   79.6599 H   0  0  0  0  0  0  0  0  0  0  0  0
   -2.7356   58.7957   78.4828 H   0  0  0  0  0  0  0  0  0  0  0  0
   -1.6958   62.2228   78.4409 H   0  0  0  0  0  0  0  0  0  0  0  0
   -5.3630   66.6412   75.4516 H   0  0  0  0  0  0  0  0  0  0  0  0
   -4.5279   65.3243   74.6314 H   0  0  0  0  0  0  0  0  0  0  0  0
   -7.0074   66.3377   73.8133 H   0  0  0  0  0  0  0  0  0  0  0  0
   -6.5112   64.6949   73.4350 H   0  0  0  0  0  0  0  0  0  0  0  0
   -8.2294   65.7042   75.7769 H   0  0  0  0  0  0  0  0  0  0  0  0
   -8.5816   64.3484   74.7342 H   0  0  0  0  0  0  0  0  0  0  0  0
   -7.4540   63.8661   77.1339 H   0  0  0  0  0  0  0  0  0  0  0  0
   -6.7925   62.9733   75.7811 H   0  0  0  0  0  0  0  0  0  0  0  0
    0.6052   63.1587   77.5207 H   0  0  0  0  0  0  0  0  0  0  0  0
   -0.2894   62.0155   76.5237 H   0  0  0  0  0  0  0  0  0  0  0  0
    1.9859   63.3342   75.6250 H   0  0  0  0  0  0  0  0  0  0  0  0
    0.7355   62.8345   74.4988 H   0  0  0  0  0  0  0  0  0  0  0  0
    1.1310   65.5697   75.8570 H   0  0  0  0  0  0  0  0  0  0  0  0
    0.8456   65.2842   74.1575 H   0  0  0  0  0  0  0  0  0  0  0  0
   -1.2407   65.9646   75.7470 H   0  0  0  0  0  0  0  0  0  0  0  0
   -1.5324   64.7053   74.5656 H   0  0  0  0  0  0  0  0  0  0  0  0
    4.3545   57.7208   71.1556 H   0  0  0  0  0  0  0  0  0  0  0  0
    3.3603   58.0818   73.2952 H   0  0  0  0  0  0  0  0  0  0  0  0
    2.5646   61.5031   69.6775 H   0  0  0  0  0  0  0  0  0  0  0  0
    1.6804   62.8002   72.6961 H   0  0  0  0  0  0  0  0  0  0  0  0
    1.1968   62.7526   70.9648 H   0  0  0  0  0  0  0  0  0  0  0  0
   -0.7430   62.5932   72.5400 H   0  0  0  0  0  0  0  0  0  0  0  0
   -0.5539   61.1459   71.4510 H   0  0  0  0  0  0  0  0  0  0  0  0
    0.2145   61.3398   74.3986 H   0  0  0  0  0  0  0  0  0  0  0  0
    1.2285   57.5318   73.3952 H   0  0  0  0  0  0  0  0  0  0  0  0
   -1.4476   57.4874   73.3470 H   0  0  0  0  0  0  0  0  0  0  0  0
   -0.6604   57.1660   74.9527 H   0  0  0  0  0  0  0  0  0  0  0  0
   -1.8019   59.9394   72.7407 H   0  0  0  0  0  0  0  0  0  0  0  0
   -2.1581   61.9223   75.0068 H   0  0  0  0  0  0  0  0  0  0  0  0
   -2.9880   61.8709   73.4551 H   0  0  0  0  0  0  0  0  0  0  0  0
   -3.8996   60.6879   75.9355 H   0  0  0  0  0  0  0  0  0  0  0  0
   -3.5170   58.3122   74.0378 H   0  0  0  0  0  0  0  0  0  0  0  0
   -5.8386   60.5327   74.9100 H   0  0  0  0  0  0  0  0  0  0  0  0
   -5.0215   61.3671   73.5451 H   0  0  0  0  0  0  0  0  0  0  0  0
   -5.1678   59.5768   73.5451 H   0  0  0  0  0  0  0  0  0  0  0  0
   -1.6325   59.0716   76.9660 H   0  0  0  0  0  0  0  0  0  0  0  0
    0.0108   58.9822   76.2461 H   0  0  0  0  0  0  0  0  0  0  0  0
   -0.8863   60.5384   76.2461 H   0  0  0  0  0  0  0  0  0  0  0  0
    2.6413   60.3590   74.9913 H   0  0  0  0  0  0  0  0  0  0  0  0
    4.1054   60.5255   73.9638 H   0  0  0  0  0  0  0  0  0  0  0  0
    2.8565   61.8166   73.9638 H   0  0  0  0  0  0  0  0  0  0  0  0
  2  1  1  0
  3  2  1  0
  4  3  1  0
  5  4  1  0
  6  5  1  0
  7  2  1  0
  7  6  1  0
  8  5  1  0
  9  8  2  0
 10  9  1  0
 11 10  2  0
 12 11  1  0
 13 12  2  0
 13  8  1  0
 14 12  1  0
 15 14  1  0
 16 15  1  0
 17 16  1  0
 18 17  1  0
 18 14  1  0
 19 10  1  0
 20 19  1  0
 21 20  1  0
 22 21  1  0
 23 22  1  0
 23 19  1  0
 24  1  1  0
 25 24  2  0
 27 26  2  0
 28 27  1  0
 29 28  2  0
 30 29  1  0
 31 30  1  0
 32 27  1  0
 32 31  2  0
 33 31  1  0
 34 33  1  0
 35 34  1  0
 36 35  1  0
 36 30  1  0
 37 36  2  0
 38 37  1  0
 39 38  1  0
 40 39  1  0
 40 35  1  0
 41 40  1  0
 42 41  1  0
 43 39  1  0
 43 24  1  0
 43 42  1  0
 44 42  1  0
 39 45  1  1
 30 46  1  1
  1 47  1  0
  1 48  1  0
  2 49  1  0
  3 50  1  0
  3 51  1  0
  4 52  1  0
  4 53  1  0
  6 54  1  0
  6 55  1  0
  7 56  1  0
  7 57  1  0
  9 58  1  0
 15 59  1  0
 15 60  1  0
 16 61  1  0
 16 62  1  0
 17 63  1  0
 17 64  1  0
 18 65  1  0
 18 66  1  0
 20 67  1  0
 20 68  1  0
 21 69  1  0
 21 70  1  0
 22 71  1  0
 22 72  1  0
 23 73  1  0
 23 74  1  0
 28 75  1  0
 29 76  1  0
 32 77  1  0
 33 78  1  0
 33 79  1  0
 34 80  1  0
 34 81  1  0
 35 82  1  1
 37 83  1  0
 38 84  1  0
 38 85  1  0
 40 86  1  6
 41 87  1  0
 41 88  1  0
 42 89  1  1
 43 90  1  6
 44 91  1  0
 44 92  1  0
 44 93  1  0
 45 94  1  0
 45 95  1  0
 45 96  1  0
 46 97  1  0
 46 98  1  0
 46 99  1  0
M  CHG  1   2   1
M  END
>  <score>  (1) 
-10.173

$$$$
=
     RDKit          3D

 99106  0  0  0  0  0  0  0  0999 V2000
    0.2100   54.4010   75.6060 C   0  0  0  0  0  0  0  0  0  0  0  0
    0.2600   55.1690   76.9050 N   0  0  0  0  0  4  0  0  0  0  0  0
   -0.8030   54.7770   77.9250 C   0  0  0  0  0  0  0  0  0  0  0  0
   -0.5760   55.5000   79.2840 C   0  0  0  0  0  0  0  0  0  0  0  0
    0.2570   56.7230   79.1450 N   0  0  0  0  0  0  0  0  0  0  0  0
    1.6150   56.4320   78.6140 C   0  0  0  0  0  0  0  0  0  0  0  0
    1.6280   55.3030   77.5460 C   0  0  0  0  0  0  0  0  0  0  0  0
   -0.4380   57.7190   78.4200 C   0  0  0  0  0  0  0  0  0  0  0  0
    0.2220   58.8630   78.0330 C   0  0  0  0  0  0  0  0  0  0  0  0
   -0.5240   59.8710   77.4640 C   0  0  0  0  0  0  0  0  0  0  0  0
   -1.8530   59.7240   77.3210 N   0  0  0  0  0  0  0  0  0  0  0  0
   -2.4340   58.5720   77.6610 C   0  0  0  0  0  0  0  0  0  0  0  0
   -1.7630   57.5660   78.2450 N   0  0  0  0  0  0  0  0  0  0  0  0
   -3.7990   58.4180   77.5200 N   0  0  0  0  0  0  0  0  0  0  0  0
   -4.5300   59.4440   76.7640 C   0  0  0  0  0  0  0  0  0  0  0  0
   -5.5800   58.6640   75.9670 C   0  0  0  0  0  0  0  0  0  0  0  0
   -5.7160   57.3540   76.7230 C   0  0  0  0  0  0  0  0  0  0  0  0
   -4.2860   57.0890   77.1740 C   0  0  0  0  0  0  0  0  0  0  0  0
    0.0470   61.0690   77.0930 N   0  0  0  0  0  0  0  0  0  0  0  0
    1.4420   61.1890   76.6720 C   0  0  0  0  0  0  0  0  0  0  0  0
    1.4420   62.3470   75.6720 C   0  0  0  0  0  0  0  0  0  0  0  0
    0.2230   63.1630   76.0670 C   0  0  0  0  0  0  0  0  0  0  0  0
   -0.7850   62.0850   76.4500 C   0  0  0  0  0  0  0  0  0  0  0  0
    1.0440   54.9890   74.4710 C   0  0  0  0  0  0  0  0  0  0  0  0
    2.0980   54.4580   74.1150 O   0  0  0  0  0  0  0  0  0  0  0  0
    3.2250   62.7290   67.8420 O   0  0  0  0  0  0  0  0  0  0  0  0
    3.2500   62.2360   68.9630 C   0  0  0  0  0  0  0  0  0  0  0  0
    4.3310   61.3220   69.3730 C   0  0  0  0  0  0  0  0  0  0  0  0
    4.3360   60.7670   70.5920 C   0  0  0  0  0  0  0  0  0  0  0  0
    3.2770   60.9950   71.6680 C   0  0  1  0  0  0  0  0  0  0  0  0
    2.2030   61.9710   71.1810 C   0  0  0  0  0  0  0  0  0  0  0  0
    2.1980   62.5290   69.9570 C   0  0  0  0  0  0  0  0  0  0  0  0
    1.0700   62.2380   72.1390 C   0  0  0  0  0  0  0  0  0  0  0  0
    0.3840   60.9270   72.5020 C   0  0  0  0  0  0  0  0  0  0  0  0
    1.3660   59.8710   73.0480 C   0  0  2  0  0  0  0  0  0  0  0  0
    2.5840   59.6800   72.1180 C   0  0  0  0  0  0  0  0  0  0  0  0
    2.9900   58.4360   71.7600 C   0  0  0  0  0  0  0  0  0  0  0  0
    2.3970   57.1450   72.2670 C   0  0  0  0  0  0  0  0  0  0  0  0
    1.5530   57.3510   73.5350 C   0  0  1  0  0  0  0  0  0  0  0  0
    0.6170   58.5430   73.2540 C   0  0  1  0  0  0  0  0  0  0  0  0
   -0.4190   58.4820   74.3750 C   0  0  0  0  0  0  0  0  0  0  0  0
   -0.5760   56.9740   74.6730 C   0  0  2  0  0  0  0  0  0  0  0  0
    0.4990   56.2520   73.8100 C   0  0  2  0  0  0  0  0  0  0  0  0
   -1.9810   56.4670   74.3640 C   0  0  0  0  0  0  0  0  0  0  0  0
    2.4840   57.5690   74.7550 C   0  0  0  0  0  0  0  0  0  0  0  0
    4.0400   61.6040   72.8670 C   0  0  0  0  0  0  0  0  0  0  0  0
    0.5710   53.3802   75.8001 H   0  0  0  0  0  0  0  0  0  0  0  0
   -0.8361   54.4403   75.2682 H   0  0  0  0  0  0  0  0  0  0  0  0
    0.0199   56.1169   76.5812 H   0  0  0  0  0  0  0  0  0  0  0  0
   -1.7937   55.0520   77.5339 H   0  0  0  0  0  0  0  0  0  0  0  0
   -0.7389   53.6919   78.0939 H   0  0  0  0  0  0  0  0  0  0  0  0
   -1.5538   55.7844   79.7001 H   0  0  0  0  0  0  0  0  0  0  0  0
   -0.0413   54.8046   79.9477 H   0  0  0  0  0  0  0  0  0  0  0  0
    2.0154   57.3492   78.1575 H   0  0  0  0  0  0  0  0  0  0  0  0
    2.2289   56.0880   79.4595 H   0  0  0  0  0  0  0  0  0  0  0  0
    1.8981   54.3514   78.0272 H   0  0  0  0  0  0  0  0  0  0  0  0
    2.3644   55.5544   76.7685 H   0  0  0  0  0  0  0  0  0  0  0  0
    1.3079   58.9685   78.1733 H   0  0  0  0  0  0  0  0  0  0  0  0
   -5.0129   60.1587   77.4467 H   0  0  0  0  0  0  0  0  0  0  0  0
   -3.8671   60.0339   76.1139 H   0  0  0  0  0  0  0  0  0  0  0  0
   -6.5374   59.2052   75.9471 H   0  0  0  0  0  0  0  0  0  0  0  0
   -5.2915   58.5182   74.9156 H   0  0  0  0  0  0  0  0  0  0  0  0
   -6.3921   57.4595   77.5842 H   0  0  0  0  0  0  0  0  0  0  0  0
   -6.1454   56.5403   76.1201 H   0  0  0  0  0  0  0  0  0  0  0  0
   -4.2645   56.4205   78.0473 H   0  0  0  0  0  0  0  0  0  0  0  0
   -3.6754   56.5900   76.4071 H   0  0  0  0  0  0  0  0  0  0  0  0
    2.0893   61.4175   77.5315 H   0  0  0  0  0  0  0  0  0  0  0  0
    1.8281   60.2572   76.2330 H   0  0  0  0  0  0  0  0  0  0  0  0
    2.3609   62.9447   75.7638 H   0  0  0  0  0  0  0  0  0  0  0  0
    1.4075   62.0075   74.6263 H   0  0  0  0  0  0  0  0  0  0  0  0
    0.4445   63.8213   76.9200 H   0  0  0  0  0  0  0  0  0  0  0  0
   -0.1329   63.8335   75.2709 H   0  0  0  0  0  0  0  0  0  0  0  0
   -1.5384   62.4786   77.1481 H   0  0  0  0  0  0  0  0  0  0  0  0
   -1.3537   61.6991   75.5912 H   0  0  0  0  0  0  0  0  0  0  0  0
    5.1443   61.0926   68.6688 H   0  0  0  0  0  0  0  0  0  0  0  0
    5.1699   60.0929   70.8376 H   0  0  0  0  0  0  0  0  0  0  0  0
    1.3876   63.2229   69.6891 H   0  0  0  0  0  0  0  0  0  0  0  0
    1.4658   62.7083   73.0512 H   0  0  0  0  0  0  0  0  0  0  0  0
    0.3413   62.9105   71.6627 H   0  0  0  0  0  0  0  0  0  0  0  0
   -0.3774   61.1293   73.2697 H   0  0  0  0  0  0  0  0  0  0  0  0
   -0.0624   60.5206   71.5824 H   0  0  0  0  0  0  0  0  0  0  0  0
    1.7589   60.2252   74.0125 H   0  0  0  0  0  0  0  0  0  0  0  0
    3.8195   58.3628   71.0412 H   0  0  0  0  0  0  0  0  0  0  0  0
    1.7571   56.7168   71.4814 H   0  0  0  0  0  0  0  0  0  0  0  0
    3.2271   56.4692   72.5205 H   0  0  0  0  0  0  0  0  0  0  0  0
    0.1014   58.4811   72.2843 H   0  0  0  0  0  0  0  0  0  0  0  0
   -0.0608   59.0193   75.2655 H   0  0  0  0  0  0  0  0  0  0  0  0
   -1.3711   58.9543   74.0916 H   0  0  0  0  0  0  0  0  0  0  0  0
   -0.4308   56.7715   75.7444 H   0  0  0  0  0  0  0  0  0  0  0  0
    0.0954   55.8494   72.8692 H   0  0  0  0  0  0  0  0  0  0  0  0
   -2.5164   56.2738   75.3053 H   0  0  0  0  0  0  0  0  0  0  0  0
   -2.5248   57.2256   73.7819 H   0  0  0  0  0  0  0  0  0  0  0  0
   -1.9151   55.5360   73.7819 H   0  0  0  0  0  0  0  0  0  0  0  0
    1.9095   57.4345   75.6833 H   0  0  0  0  0  0  0  0  0  0  0  0
    3.3064   56.8391   74.7237 H   0  0  0  0  0  0  0  0  0  0  0  0
    2.8968   58.5881   74.7237 H   0  0  0  0  0  0  0  0  0  0  0  0
    3.5924   61.2467   73.8061 H   0  0  0  0  0  0  0  0  0  0  0  0
    5.0955   61.2973   72.8239 H   0  0  0  0  0  0  0  0  0  0  0  0
    3.9749   62.7012   72.8239 H   0  0  0  0  0  0  0  0  0  0  0  0
  2  1  1  0
  3  2  1  0
  4  3  1  0
  5  4  1  0
  6  5  1  0
  7  2  1  0
  7  6  1  0
  8  5  1  0
  9  8  2  0
 10  9  1  0
 11 10  2  0
 12 11  1  0
 13 12  2  0
 13  8  1  0
 14 12  1  0
 15 14  1  0
 16 15  1  0
 17 16  1  0
 18 17  1  0
 18 14  1  0
 19 10  1  0
 20 19  1  0
 21 20  1  0
 22 21  1  0
 23 22  1  0
 23 19  1  0
 24  1  1  0
 25 24  2  0
 27 26  2  0
 28 27  1  0
 29 28  2  0
 30 29  1  0
 31 30  1  0
 32 27  1  0
 32 31  2  0
 33 31  1  0
 34 33  1  0
 35 34  1  0
 36 35  1  0
 36 30  1  0
 37 36  2  0
 38 37  1  0
 39 38  1  0
 40 39  1  0
 40 35  1  0
 41 40  1  0
 42 41  1  0
 43 39  1  0
 43 24  1  0
 43 42  1  0
 44 42  1  0
 39 45  1  1
 30 46  1  1
  1 47  1  0
  1 48  1  0
  2 49  1  0
  3 50  1  0
  3 51  1  0
  4 52  1  0
  4 53  1  0
  6 54  1  0
  6 55  1  0
  7 56  1  0
  7 57  1  0
  9 58  1  0
 15 59  1  0
 15 60  1  0
 16 61  1  0
 16 62  1  0
 17 63  1  0
 17 64  1  0
 18 65  1  0
 18 66  1  0
 20 67  1  0
 20 68  1  0
 21 69  1  0
 21 70  1  0
 22 71  1  0
 22 72  1  0
 23 73  1  0
 23 74  1  0
 28 75  1  0
 29 76  1  0
 32 77  1  0
 33 78  1  0
 33 79  1  0
 34 80  1  0
 34 81  1  0
 35 82  1  1
 37 83  1  0
 38 84  1  0
 38 85  1  0
 40 86  1  6
 41 87  1  0
 41 88  1  0
 42 89  1  1
 43 90  1  6
 44 91  1  0
 44 92  1  0
 44 93  1  0
 45 94  1  0
 45 95  1  0
 45 96  1  0
 46 97  1  0
 46 98  1  0
 46 99  1  0
M  CHG  1   2   1
M  END
>  <score>  (2) 
-9.881

$$$$
=
     RDKit          3D

 99106  0  0  0  0  0  0  0  0999 V2000
    1.8850   66.1890   69.7740 C   0  0  0  0  0  0  0  0  0  0  0  0
    1.3680   67.1110   68.6960 N   0  0  0  0  0  4  0  0  0  0  0  0
    0.9180   66.4160   67.4150 C   0  0  0  0  0  0  0  0  0  0  0  0
    0.2530   67.4210   66.4310 C   0  0  0  0  0  0  0  0  0  0  0  0
    0.6420   68.8290   66.7060 N   0  0  0  0  0  0  0  0  0  0  0  0
    0.2410   69.2760   68.0670 C   0  0  0  0  0  0  0  0  0  0  0  0
    0.3690   68.1620   69.1420 C   0  0  0  0  0  0  0  0  0  0  0  0
    2.0120   69.0320   66.4200 C   0  0  0  0  0  0  0  0  0  0  0  0
    2.8240   69.6200   67.3650 C   0  0  0  0  0  0  0  0  0  0  0  0
    4.1120   69.9370   66.9930 C   0  0  0  0  0  0  0  0  0  0  0  0
    4.5280   69.6900   65.7390 N   0  0  0  0  0  0  0  0  0  0  0  0
    3.7190   69.0680   64.8800 C   0  0  0  0  0  0  0  0  0  0  0  0
    2.4470   68.7590   65.1770 N   0  0  0  0  0  0  0  0  0  0  0  0
    4.1420   68.8160   63.5890 N   0  0  0  0  0  0  0  0  0  0  0  0
    5.5640   69.0190   63.2820 C   0  0  0  0  0  0  0  0  0  0  0  0
    5.9240   67.8710   62.3340 C   0  0  0  0  0  0  0  0  0  0  0  0
    4.5860   67.4340   61.7630 C   0  0  0  0  0  0  0  0  0  0  0  0
    3.6550   67.5960   62.9570 C   0  0  0  0  0  0  0  0  0  0  0  0
    4.9760   70.5710   67.8580 N   0  0  0  0  0  0  0  0  0  0  0  0
    4.9050   70.4140   69.3110 C   0  0  0  0  0  0  0  0  0  0  0  0
    6.3520   70.5690   69.7830 C   0  0  0  0  0  0  0  0  0  0  0  0
    7.0020   71.3950   68.6860 C   0  0  0  0  0  0  0  0  0  0  0  0
    6.3450   70.8410   67.4260 C   0  0  0  0  0  0  0  0  0  0  0  0
    0.8970   65.1250   70.2480 C   0  0  0  0  0  0  0  0  0  0  0  0
   -0.2420   65.4300   70.6040 O   0  0  0  0  0  0  0  0  0  0  0  0
   -0.8910   55.5110   73.8480 O   0  0  0  0  0  0  0  0  0  0  0  0
   -0.4130   56.6320   73.9710 C   0  0  0  0  0  0  0  0  0  0  0  0
   -1.2150   57.7520   74.4970 C   0  0  0  0  0  0  0  0  0  0  0  0
   -0.6920   58.9800   74.6040 C   0  0  0  0  0  0  0  0  0  0  0  0
    0.7320   59.3680   74.2150 C   0  0  1  0  0  0  0  0  0  0  0  0
    1.5100   58.1530   73.7010 C   0  0  0  0  0  0  0  0  0  0  0  0
    0.9860   56.9190   73.5950 C   0  0  0  0  0  0  0  0  0  0  0  0
    2.9180   58.4200   73.2360 C   0  0  0  0  0  0  0  0  0  0  0  0
    2.9060   59.4700   72.1330 C   0  0  0  0  0  0  0  0  0  0  0  0
    2.1810   60.7650   72.5500 C   0  0  2  0  0  0  0  0  0  0  0  0
    0.7790   60.4800   73.1310 C   0  0  0  0  0  0  0  0  0  0  0  0
   -0.3000   61.1840   72.7060 C   0  0  0  0  0  0  0  0  0  0  0  0
   -0.2630   62.3360   71.7320 C   0  0  0  0  0  0  0  0  0  0  0  0
    1.1540   62.9090   71.5660 C   0  0  1  0  0  0  0  0  0  0  0  0
    2.0930   61.7090   71.3380 C   0  0  1  0  0  0  0  0  0  0  0  0
    3.3920   62.3350   70.8340 C   0  0  0  0  0  0  0  0  0  0  0  0
    2.9360   63.5750   70.0320 C   0  0  2  0  0  0  0  0  0  0  0  0
    1.3990   63.6840   70.2490 C   0  0  2  0  0  0  0  0  0  0  0  0
    3.2900   63.4680   68.5520 C   0  0  0  0  0  0  0  0  0  0  0  0
    1.5250   63.7590   72.8060 C   0  0  0  0  0  0  0  0  0  0  0  0
    1.3790   59.8990   75.5160 C   0  0  0  0  0  0  0  0  0  0  0  0
    2.7767   65.6761   69.3844 H   0  0  0  0  0  0  0  0  0  0  0  0
    2.0909   66.8253   70.6473 H   0  0  0  0  0  0  0  0  0  0  0  0
    2.2236   67.6340   68.4606 H   0  0  0  0  0  0  0  0  0  0  0  0
    1.7932   65.9623   66.9269 H   0  0  0  0  0  0  0  0  0  0  0  0
    0.1775   65.6465   67.6789 H   0  0  0  0  0  0  0  0  0  0  0  0
    0.5577   67.1647   65.4056 H   0  0  0  0  0  0  0  0  0  0  0  0
   -0.8366   67.3440   66.5604 H   0  0  0  0  0  0  0  0  0  0  0  0
    0.8826   70.1199   68.3605 H   0  0  0  0  0  0  0  0  0  0  0  0
   -0.8205   69.5603   68.0171 H   0  0  0  0  0  0  0  0  0  0  0  0
   -0.6125   67.6887   69.2926 H   0  0  0  0  0  0  0  0  0  0  0  0
    0.7193   68.6117   70.0828 H   0  0  0  0  0  0  0  0  0  0  0  0
    2.4568   69.8290   68.3806 H   0  0  0  0  0  0  0  0  0  0  0  0
    5.7201   69.9910   62.7912 H   0  0  0  0  0  0  0  0  0  0  0  0
    6.1890   69.0233   64.1872 H   0  0  0  0  0  0  0  0  0  0  0  0
    6.5953   68.2192   61.5352 H   0  0  0  0  0  0  0  0  0  0  0  0
    6.4555   67.0528   62.8420 H   0  0  0  0  0  0  0  0  0  0  0  0
    4.2790   68.0807   60.9278 H   0  0  0  0  0  0  0  0  0  0  0  0
    4.5960   66.4156   61.3473 H   0  0  0  0  0  0  0  0  0  0  0  0
    2.6104   67.7092   62.6314 H   0  0  0  0  0  0  0  0  0  0  0  0
    3.6593   66.7269   63.6313 H   0  0  0  0  0  0  0  0  0  0  0  0
    4.2655   71.1909   69.7554 H   0  0  0  0  0  0  0  0  0  0  0  0
    4.4691   69.4484   69.6070 H   0  0  0  0  0  0  0  0  0  0  0  0
    6.3956   71.0950   70.7481 H   0  0  0  0  0  0  0  0  0  0  0  0
    6.8538   69.6034   69.9437 H   0  0  0  0  0  0  0  0  0  0  0  0
    6.7829   72.4657   68.8112 H   0  0  0  0  0  0  0  0  0  0  0  0
    8.0998   71.3261   68.6759 H   0  0  0  0  0  0  0  0  0  0  0  0
    6.3637   71.5813   66.6127 H   0  0  0  0  0  0  0  0  0  0  0  0
    6.8558   69.9523   67.0268 H   0  0  0  0  0  0  0  0  0  0  0  0
   -2.2562   57.5765   74.8054 H   0  0  0  0  0  0  0  0  0  0  0  0
   -1.3408   59.7729   75.0044 H   0  0  0  0  0  0  0  0  0  0  0  0
    1.6170   56.1007   73.2178 H   0  0  0  0  0  0  0  0  0  0  0  0
    3.5189   58.7855   74.0818 H   0  0  0  0  0  0  0  0  0  0  0  0
    3.3549   57.4887   72.8465 H   0  0  0  0  0  0  0  0  0  0  0  0
    3.9455   59.7175   71.8718 H   0  0  0  0  0  0  0  0  0  0  0  0
    2.3606   59.0456   71.2772 H   0  0  0  0  0  0  0  0  0  0  0  0
    2.7616   61.2474   73.3501 H   0  0  0  0  0  0  0  0  0  0  0  0
   -1.2827   60.8910   73.1041 H   0  0  0  0  0  0  0  0  0  0  0  0
   -0.6200   61.9840   70.7529 H   0  0  0  0  0  0  0  0  0  0  0  0
   -0.9067   63.1350   72.1284 H   0  0  0  0  0  0  0  0  0  0  0  0
    1.7232   60.9956   70.5868 H   0  0  0  0  0  0  0  0  0  0  0  0
    4.0339   62.6311   71.6768 H   0  0  0  0  0  0  0  0  0  0  0  0
    3.9849   61.6368   70.2249 H   0  0  0  0  0  0  0  0  0  0  0  0
    3.4550   64.4790   70.3833 H   0  0  0  0  0  0  0  0  0  0  0  0
    0.8172   63.2498   69.4226 H   0  0  0  0  0  0  0  0  0  0  0  0
    4.3382   63.1512   68.4477 H   0  0  0  0  0  0  0  0  0  0  0  0
    2.6337   62.7281   68.0706 H   0  0  0  0  0  0  0  0  0  0  0  0
    3.1534   64.4476   68.0706 H   0  0  0  0  0  0  0  0  0  0  0  0
    1.2806   63.1991   73.7208 H   0  0  0  0  0  0  0  0  0  0  0  0
    2.6021   63.9816   72.7890 H   0  0  0  0  0  0  0  0  0  0  0  0
    0.9558   64.7001   72.7890 H   0  0  0  0  0  0  0  0  0  0  0  0
    0.8582   59.4715   76.3855 H   0  0  0  0  0  0  0  0  0  0  0  0
    2.4392   59.6073   75.5438 H   0  0  0  0  0  0  0  0  0  0  0  0
    1.2997   60.9958   75.5438 H   0  0  0  0  0  0  0  0  0  0  0  0
  2  1  1  0
  3  2  1  0
  4  3  1  0
  5  4  1  0
  6  5  1  0
  7  2  1  0
  7  6  1  0
  8  5  1  0
  9  8  2  0
 10  9  1  0
 11 10  2  0
 12 11  1  0
 13 12  2  0
 13  8  1  0
 14 12  1  0
 15 14  1  0
 16 15  1  0
 17 16  1  0
 18 17  1  0
 18 14  1  0
 19 10  1  0
 20 19  1  0
 21 20  1  0
 22 21  1  0
 23 22  1  0
 23 19  1  0
 24  1  1  0
 25 24  2  0
 27 26  2  0
 28 27  1  0
 29 28  2  0
 30 29  1  0
 31 30  1  0
 32 27  1  0
 32 31  2  0
 33 31  1  0
 34 33  1  0
 35 34  1  0
 36 35  1  0
 36 30  1  0
 37 36  2  0
 38 37  1  0
 39 38  1  0
 40 39  1  0
 40 35  1  0
 41 40  1  0
 42 41  1  0
 43 39  1  0
 43 24  1  0
 43 42  1  0
 44 42  1  0
 39 45  1  1
 30 46  1  1
  1 47  1  0
  1 48  1  0
  2 49  1  0
  3 50  1  0
  3 51  1  0
  4 52  1  0
  4 53  1  0
  6 54  1  0
  6 55  1  0
  7 56  1  0
  7 57  1  0
  9 58  1  0
 15 59  1  0
 15 60  1  0
 16 61  1  0
 16 62  1  0
 17 63  1  0
 17 64  1  0
 18 65  1  0
 18 66  1  0
 20 67  1  0
 20 68  1  0
 21 69  1  0
 21 70  1  0
 22 71  1  0
 22 72  1  0
 23 73  1  0
 23 74  1  0
 28 75  1  0
 29 76  1  0
 32 77  1  0
 33 78  1  0
 33 79  1  0
 34 80  1  0
 34 81  1  0
 35 82  1  1
 37 83  1  0
 38 84  1  0
 38 85  1  0
 40 86  1  6
 41 87  1  0
 41 88  1  0
 42 89  1  1
 43 90  1  6
 44 91  1  0
 44 92  1  0
 44 93  1  0
 45 94  1  0
 45 95  1  0
 45 96  1  0
 46 97  1  0
 46 98  1  0
 46 99  1  0
M  CHG  1   2   1
M  END
>  <score>  (3) 
-9.849

$$$$
=
     RDKit          3D

 99106  0  0  0  0  0  0  0  0999 V2000
   -3.7110   58.4640   77.4010 C   0  0  0  0  0  0  0  0  0  0  0  0
   -2.9580   57.5500   78.3370 N   0  0  0  0  0  4  0  0  0  0  0  0
   -1.9590   58.2480   79.2530 C   0  0  0  0  0  0  0  0  0  0  0  0
   -1.3530   57.2560   80.2870 C   0  0  0  0  0  0  0  0  0  0  0  0
   -1.4750   55.8390   79.8570 N   0  0  0  0  0  0  0  0  0  0  0  0
   -2.8900   55.4170   79.6780 C   0  0  0  0  0  0  0  0  0  0  0  0
   -3.7950   56.5360   79.0930 C   0  0  0  0  0  0  0  0  0  0  0  0
   -0.6590   55.5890   78.7290 C   0  0  0  0  0  0  0  0  0  0  0  0
    0.5510   56.2350   78.6080 C   0  0  0  0  0  0  0  0  0  0  0  0
    1.2440   56.0800   77.4280 C   0  0  0  0  0  0  0  0  0  0  0  0
    0.7240   55.3350   76.4380 N   0  0  0  0  0  0  0  0  0  0  0  0
   -0.4250   54.6840   76.6290 C   0  0  0  0  0  0  0  0  0  0  0  0
   -1.1570   54.8180   77.7460 N   0  0  0  0  0  0  0  0  0  0  0  0
   -0.9640   53.9200   75.6120 N   0  0  0  0  0  0  0  0  0  0  0  0
   -0.1230   53.6490   74.4380 C   0  0  0  0  0  0  0  0  0  0  0  0
   -0.4420   52.2000   74.0580 C   0  0  0  0  0  0  0  0  0  0  0  0
   -1.7980   51.9450   74.6930 C   0  0  0  0  0  0  0  0  0  0  0  0
   -1.6970   52.7210   75.9990 C   0  0  0  0  0  0  0  0  0  0  0  0
    2.4370   56.7300   77.2030 N   0  0  0  0  0  0  0  0  0  0  0  0
    3.3630   57.0890   78.2770 C   0  0  0  0  0  0  0  0  0  0  0  0
    4.7460   57.0280   77.6260 C   0  0  0  0  0  0  0  0  0  0  0  0
    4.4590   57.2520   76.1500 C   0  0  0  0  0  0  0  0  0  0  0  0
    3.1520   56.4920   75.9510 C   0  0  0  0  0  0  0  0  0  0  0  0
   -3.8310   57.9670   75.9630 C   0  0  0  0  0  0  0  0  0  0  0  0
   -4.3650   56.8860   75.7070 O   0  0  0  0  0  0  0  0  0  0  0  0
    3.9460   59.2380   69.1450 O   0  0  0  0  0  0  0  0  0  0  0  0
    3.4720   59.3590   70.2670 C   0  0  0  0  0  0  0  0  0  0  0  0
    3.5610   58.2710   71.2570 C   0  0  0  0  0  0  0  0  0  0  0  0
    3.0170   58.4020   72.4740 C   0  0  0  0  0  0  0  0  0  0  0  0
    2.2680   59.6340   72.9750 C   0  0  1  0  0  0  0  0  0  0  0  0
    2.2370   60.7290   71.9050 C   0  0  0  0  0  0  0  0  0  0  0  0
    2.7840   60.5980   70.6830 C   0  0  0  0  0  0  0  0  0  0  0  0
    1.4780   61.9810   72.2640 C   0  0  0  0  0  0  0  0  0  0  0  0
    0.0390   61.6270   72.6170 C   0  0  0  0  0  0  0  0  0  0  0  0
   -0.0590   60.5560   73.7220 C   0  0  2  0  0  0  0  0  0  0  0  0
    0.8090   59.3180   73.4040 C   0  0  0  0  0  0  0  0  0  0  0  0
    0.2960   58.0680   73.5200 C   0  0  0  0  0  0  0  0  0  0  0  0
   -1.0840   57.7340   74.0320 C   0  0  0  0  0  0  0  0  0  0  0  0
   -1.7200   58.9080   74.7940 C   0  0  1  0  0  0  0  0  0  0  0  0
   -1.5330   60.1600   73.9140 C   0  0  1  0  0  0  0  0  0  0  0  0
   -2.4690   61.1980   74.5290 C   0  0  0  0  0  0  0  0  0  0  0  0
   -3.6570   60.3710   75.0730 C   0  0  2  0  0  0  0  0  0  0  0  0
   -3.2640   58.8780   74.8780 C   0  0  2  0  0  0  0  0  0  0  0  0
   -4.9660   60.7060   74.3660 C   0  0  0  0  0  0  0  0  0  0  0  0
   -1.0730   59.0360   76.1960 C   0  0  0  0  0  0  0  0  0  0  0  0
    3.0660   60.1220   74.2070 C   0  0  0  0  0  0  0  0  0  0  0  0
   -4.7271   58.5978   77.8006 H   0  0  0  0  0  0  0  0  0  0  0  0
   -3.1306   59.3972   77.3536 H   0  0  0  0  0  0  0  0  0  0  0  0
   -2.4047   56.9976   77.6665 H   0  0  0  0  0  0  0  0  0  0  0  0
   -1.1470   58.6700   78.6426 H   0  0  0  0  0  0  0  0  0  0  0  0
   -2.4863   59.0426   79.8013 H   0  0  0  0  0  0  0  0  0  0  0  0
   -0.2872   57.4934   80.4205 H   0  0  0  0  0  0  0  0  0  0  0  0
   -1.9140   57.3691   81.2264 H   0  0  0  0  0  0  0  0  0  0  0  0
   -2.9137   54.5555   78.9944 H   0  0  0  0  0  0  0  0  0  0  0  0
   -3.2840   55.1664   80.6740 H   0  0  0  0  0  0  0  0  0  0  0  0
   -4.3230   57.0420   79.9147 H   0  0  0  0  0  0  0  0  0  0  0  0
   -4.5201   56.0836   78.4004 H   0  0  0  0  0  0  0  0  0  0  0  0
    0.9502   56.8534   79.4254 H   0  0  0  0  0  0  0  0  0  0  0  0
   -0.3766   54.3312   73.6132 H   0  0  0  0  0  0  0  0  0  0  0  0
    0.9463   53.7986   74.6483 H   0  0  0  0  0  0  0  0  0  0  0  0
   -0.4937   52.0844   72.9653 H   0  0  0  0  0  0  0  0  0  0  0  0
    0.3269   51.4925   74.4019 H   0  0  0  0  0  0  0  0  0  0  0  0
   -2.6121   52.3314   74.0622 H   0  0  0  0  0  0  0  0  0  0  0  0
   -2.0252   50.8777   74.8318 H   0  0  0  0  0  0  0  0  0  0  0  0
   -2.6948   52.9753   76.3860 H   0  0  0  0  0  0  0  0  0  0  0  0
   -1.2063   52.1536   76.8036 H   0  0  0  0  0  0  0  0  0  0  0  0
    3.1527   58.1025   78.6492 H   0  0  0  0  0  0  0  0  0  0  0  0
    3.2787   56.4175   79.1441 H   0  0  0  0  0  0  0  0  0  0  0  0
    5.4015   57.8174   78.0225 H   0  0  0  0  0  0  0  0  0  0  0  0
    5.2672   56.0789   77.8199 H   0  0  0  0  0  0  0  0  0  0  0  0
    4.3351   58.3219   75.9267 H   0  0  0  0  0  0  0  0  0  0  0  0
    5.2696   56.9126   75.4884 H   0  0  0  0  0  0  0  0  0  0  0  0
    2.5901   56.8904   75.0934 H   0  0  0  0  0  0  0  0  0  0  0  0
    3.3013   55.4239   75.7343 H   0  0  0  0  0  0  0  0  0  0  0  0
    4.0813   57.3385   70.9929 H   0  0  0  0  0  0  0  0  0  0  0  0
    3.1181   57.5542   73.1676 H   0  0  0  0  0  0  0  0  0  0  0  0
    2.7171   61.4365   69.9742 H   0  0  0  0  0  0  0  0  0  0  0  0
    1.9579   62.4642   73.1278 H   0  0  0  0  0  0  0  0  0  0  0  0
    1.4834   62.6685   71.4053 H   0  0  0  0  0  0  0  0  0  0  0  0
   -0.4720   62.5374   72.9636 H   0  0  0  0  0  0  0  0  0  0  0  0
   -0.4318   61.2139   71.7127 H   0  0  0  0  0  0  0  0  0  0  0  0
    0.3314   60.9831   74.6575 H   0  0  0  0  0  0  0  0  0  0  0  0
    0.9385   57.2285   73.2159 H   0  0  0  0  0  0  0  0  0  0  0  0
   -1.7265   57.4769   73.1770 H   0  0  0  0  0  0  0  0  0  0  0  0
   -0.9901   56.8892   74.7302 H   0  0  0  0  0  0  0  0  0  0  0  0
   -1.8108   60.0048   72.8610 H   0  0  0  0  0  0  0  0  0  0  0  0
   -1.9670   61.7404   75.3437 H   0  0  0  0  0  0  0  0  0  0  0  0
   -2.7867   61.9592   73.8013 H   0  0  0  0  0  0  0  0  0  0  0  0
   -3.8400   60.6019   76.1328 H   0  0  0  0  0  0  0  0  0  0  0  0
   -3.6985   58.4346   73.9699 H   0  0  0  0  0  0  0  0  0  0  0  0
   -5.7465   60.9058   75.1149 H   0  0  0  0  0  0  0  0  0  0  0  0
   -4.8252   61.5970   73.7366 H   0  0  0  0  0  0  0  0  0  0  0  0
   -5.2705   59.8568   73.7366 H   0  0  0  0  0  0  0  0  0  0  0  0
   -1.8405   58.8842   76.9693 H   0  0  0  0  0  0  0  0  0  0  0  0
   -0.2853   58.2763   76.3071 H   0  0  0  0  0  0  0  0  0  0  0  0
   -0.6339   60.0384   76.3071 H   0  0  0  0  0  0  0  0  0  0  0  0
    2.5505   59.8067   75.1262 H   0  0  0  0  0  0  0  0  0  0  0  0
    4.0761   59.6869   74.1855 H   0  0  0  0  0  0  0  0  0  0  0  0
    3.1389   61.2194   74.1855 H   0  0  0  0  0  0  0  0  0  0  0  0
  2  1  1  0
  3  2  1  0
  4  3  1  0
  5  4  1  0
  6  5  1  0
  7  2  1  0
  7  6  1  0
  8  5  1  0
  9  8  2  0
 10  9  1  0
 11 10  2  0
 12 11  1  0
 13 12  2  0
 13  8  1  0
 14 12  1  0
 15 14  1  0
 16 15  1  0
 17 16  1  0
 18 17  1  0
 18 14  1  0
 19 10  1  0
 20 19  1  0
 21 20  1  0
 22 21  1  0
 23 22  1  0
 23 19  1  0
 24  1  1  0
 25 24  2  0
 27 26  2  0
 28 27  1  0
 29 28  2  0
 30 29  1  0
 31 30  1  0
 32 27  1  0
 32 31  2  0
 33 31  1  0
 34 33  1  0
 35 34  1  0
 36 35  1  0
 36 30  1  0
 37 36  2  0
 38 37  1  0
 39 38  1  0
 40 39  1  0
 40 35  1  0
 41 40  1  0
 42 41  1  0
 43 39  1  0
 43 24  1  0
 43 42  1  0
 44 42  1  0
 39 45  1  1
 30 46  1  1
  1 47  1  0
  1 48  1  0
  2 49  1  0
  3 50  1  0
  3 51  1  0
  4 52  1  0
  4 53  1  0
  6 54  1  0
  6 55  1  0
  7 56  1  0
  7 57  1  0
  9 58  1  0
 15 59  1  0
 15 60  1  0
 16 61  1  0
 16 62  1  0
 17 63  1  0
 17 64  1  0
 18 65  1  0
 18 66  1  0
 20 67  1  0
 20 68  1  0
 21 69  1  0
 21 70  1  0
 22 71  1  0
 22 72  1  0
 23 73  1  0
 23 74  1  0
 28 75  1  0
 29 76  1  0
 32 77  1  0
 33 78  1  0
 33 79  1  0
 34 80  1  0
 34 81  1  0
 35 82  1  1
 37 83  1  0
 38 84  1  0
 38 85  1  0
 40 86  1  6
 41 87  1  0
 41 88  1  0
 42 89  1  1
 43 90  1  6
 44 91  1  0
 44 92  1  0
 44 93  1  0
 45 94  1  0
 45 95  1  0
 45 96  1  0
 46 97  1  0
 46 98  1  0
 46 99  1  0
M  CHG  1   2   1
M  END
>  <score>  (4) 
-9.706

$$$$
=
     RDKit          3D

 99106  0  0  0  0  0  0  0  0999 V2000
    1.8920   66.1720   69.5220 C   0  0  0  0  0  0  0  0  0  0  0  0
    1.1570   67.0620   68.5470 N   0  0  0  0  0  4  0  0  0  0  0  0
    0.4710   66.3300   67.3990 C   0  0  0  0  0  0  0  0  0  0  0  0
   -0.3910   67.3030   66.5440 C   0  0  0  0  0  0  0  0  0  0  0  0
    0.0260   68.7210   66.7030 N   0  0  0  0  0  0  0  0  0  0  0  0
   -0.1030   69.2000   68.1060 C   0  0  0  0  0  0  0  0  0  0  0  0
    0.2530   68.1150   69.1600 C   0  0  0  0  0  0  0  0  0  0  0  0
    1.3080   68.9300   66.1450 C   0  0  0  0  0  0  0  0  0  0  0  0
    1.5170   68.6750   64.8080 C   0  0  0  0  0  0  0  0  0  0  0  0
    2.8090   68.7460   64.3370 C   0  0  0  0  0  0  0  0  0  0  0  0
    3.8160   69.0350   65.1810 N   0  0  0  0  0  0  0  0  0  0  0  0
    3.5510   69.3290   66.4550 C   0  0  0  0  0  0  0  0  0  0  0  0
    2.3160   69.2500   66.9760 N   0  0  0  0  0  0  0  0  0  0  0  0
    4.5820   69.6230   67.3260 N   0  0  0  0  0  0  0  0  0  0  0  0
    5.9170   69.8470   66.7560 C   0  0  0  0  0  0  0  0  0  0  0  0
    6.5060   70.9930   67.5840 C   0  0  0  0  0  0  0  0  0  0  0  0
    5.7000   70.9660   68.8710 C   0  0  0  0  0  0  0  0  0  0  0  0
    4.3080   70.5960   68.3760 C   0  0  0  0  0  0  0  0  0  0  0  0
    3.1150   68.4580   63.0260 N   0  0  0  0  0  0  0  0  0  0  0  0
    2.1760   68.6700   61.9240 C   0  0  0  0  0  0  0  0  0  0  0  0
    3.0640   68.9920   60.7210 C   0  0  0  0  0  0  0  0  0  0  0  0
    4.3930   68.3430   61.0700 C   0  0  0  0  0  0  0  0  0  0  0  0
    4.4970   68.5950   62.5710 C   0  0  0  0  0  0  0  0  0  0  0  0
    1.0190   65.1680   70.2700 C   0  0  0  0  0  0  0  0  0  0  0  0
    0.0000   65.5290   70.8610 O   0  0  0  0  0  0  0  0  0  0  0  0
   -0.9860   55.5530   73.7520 O   0  0  0  0  0  0  0  0  0  0  0  0
   -0.4720   56.6570   73.8830 C   0  0  0  0  0  0  0  0  0  0  0  0
   -1.2280   57.7910   74.4440 C   0  0  0  0  0  0  0  0  0  0  0  0
   -0.6650   59.0020   74.5590 C   0  0  0  0  0  0  0  0  0  0  0  0
    0.7620   59.3530   74.1460 C   0  0  1  0  0  0  0  0  0  0  0  0
    1.4910   58.1240   73.5970 C   0  0  0  0  0  0  0  0  0  0  0  0
    0.9270   56.9080   73.4820 C   0  0  0  0  0  0  0  0  0  0  0  0
    2.8970   58.3560   73.1060 C   0  0  0  0  0  0  0  0  0  0  0  0
    2.8930   59.4240   72.0200 C   0  0  0  0  0  0  0  0  0  0  0  0
    2.2170   60.7330   72.4740 C   0  0  2  0  0  0  0  0  0  0  0  0
    0.8190   60.4810   73.0800 C   0  0  0  0  0  0  0  0  0  0  0  0
   -0.2470   61.2240   72.6900 C   0  0  0  0  0  0  0  0  0  0  0  0
   -0.1940   62.3900   71.7340 C   0  0  0  0  0  0  0  0  0  0  0  0
    1.2350   62.9240   71.5460 C   0  0  1  0  0  0  0  0  0  0  0  0
    2.1330   61.6990   71.2790 C   0  0  1  0  0  0  0  0  0  0  0  0
    3.4390   62.2940   70.7580 C   0  0  0  0  0  0  0  0  0  0  0  0
    3.0040   63.5610   69.9860 C   0  0  2  0  0  0  0  0  0  0  0  0
    1.4760   63.7120   70.2370 C   0  0  2  0  0  0  0  0  0  0  0  0
    3.3240   63.4690   68.4970 C   0  0  0  0  0  0  0  0  0  0  0  0
    1.6580   63.7410   72.7920 C   0  0  0  0  0  0  0  0  0  0  0  0
    1.4510   59.8420   75.4410 C   0  0  0  0  0  0  0  0  0  0  0  0
    2.6538   65.6098   68.9620 H   0  0  0  0  0  0  0  0  0  0  0  0
    2.3135   66.8401   70.2875 H   0  0  0  0  0  0  0  0  0  0  0  0
    1.9400   67.5871   68.1322 H   0  0  0  0  0  0  0  0  0  0  0  0
    1.2377   65.8718   66.7569 H   0  0  0  0  0  0  0  0  0  0  0  0
   -0.1910   65.5608   67.8235 H   0  0  0  0  0  0  0  0  0  0  0  0
   -0.2933   67.0231   65.4847 H   0  0  0  0  0  0  0  0  0  0  0  0
   -1.4320   67.2196   66.8896 H   0  0  0  0  0  0  0  0  0  0  0  0
    0.5716   70.0575   68.2458 H   0  0  0  0  0  0  0  0  0  0  0  0
   -1.1571   69.4729   68.2620 H   0  0  0  0  0  0  0  0  0  0  0  0
   -0.6718   67.6370   69.5153 H   0  0  0  0  0  0  0  0  0  0  0  0
    0.7780   68.5917   70.0009 H   0  0  0  0  0  0  0  0  0  0  0  0
    0.6807   68.4233   64.1393 H   0  0  0  0  0  0  0  0  0  0  0  0
    6.5358   68.9424   66.8502 H   0  0  0  0  0  0  0  0  0  0  0  0
    5.8766   70.0867   65.6832 H   0  0  0  0  0  0  0  0  0  0  0  0
    7.5733   70.8208   67.7870 H   0  0  0  0  0  0  0  0  0  0  0  0
    6.4482   71.9626   67.0677 H   0  0  0  0  0  0  0  0  0  0  0  0
    6.0887   70.2094   69.5684 H   0  0  0  0  0  0  0  0  0  0  0  0
    5.7310   71.9132   69.4295 H   0  0  0  0  0  0  0  0  0  0  0  0
    3.7074   70.1494   69.1821 H   0  0  0  0  0  0  0  0  0  0  0  0
    3.7283   71.4621   68.0242 H   0  0  0  0  0  0  0  0  0  0  0  0
    1.5834   67.7621   61.7380 H   0  0  0  0  0  0  0  0  0  0  0  0
    1.4543   69.4721   62.1378 H   0  0  0  0  0  0  0  0  0  0  0  0
    2.6470   68.5606   59.7990 H   0  0  0  0  0  0  0  0  0  0  0  0
    3.1533   70.0723   60.5342 H   0  0  0  0  0  0  0  0  0  0  0  0
    4.3804   67.2658   60.8473 H   0  0  0  0  0  0  0  0  0  0  0  0
    5.2419   68.7447   60.4972 H   0  0  0  0  0  0  0  0  0  0  0  0
    5.1471   67.8497   63.0525 H   0  0  0  0  0  0  0  0  0  0  0  0
    4.9383   69.5724   62.8160 H   0  0  0  0  0  0  0  0  0  0  0  0
   -2.2672   57.6417   74.7724 H   0  0  0  0  0  0  0  0  0  0  0  0
   -1.2808   59.8076   74.9853 H   0  0  0  0  0  0  0  0  0  0  0  0
    1.5246   56.0775   73.0780 H   0  0  0  0  0  0  0  0  0  0  0  0
    3.5265   58.6895   73.9442 H   0  0  0  0  0  0  0  0  0  0  0  0
    3.2974   57.4185   72.6928 H   0  0  0  0  0  0  0  0  0  0  0  0
    3.9336   59.6444   71.7396 H   0  0  0  0  0  0  0  0  0  0  0  0
    2.3167   59.0305   71.1697 H   0  0  0  0  0  0  0  0  0  0  0  0
    2.8282   61.1839   73.2697 H   0  0  0  0  0  0  0  0  0  0  0  0
   -1.2297   60.9545   73.1044 H   0  0  0  0  0  0  0  0  0  0  0  0
   -0.5817   62.0649   70.7573 H   0  0  0  0  0  0  0  0  0  0  0  0
   -0.8040   63.2014   72.1578 H   0  0  0  0  0  0  0  0  0  0  0  0
    1.7267   61.0092   70.5246 H   0  0  0  0  0  0  0  0  0  0  0  0
    4.1070   62.5564   71.5917 H   0  0  0  0  0  0  0  0  0  0  0  0
    3.9977   61.5888   70.1251 H   0  0  0  0  0  0  0  0  0  0  0  0
    3.5573   64.4429   70.3412 H   0  0  0  0  0  0  0  0  0  0  0  0
    0.8642   63.3087   69.4166 H   0  0  0  0  0  0  0  0  0  0  0  0
    4.3736   63.1672   68.3655 H   0  0  0  0  0  0  0  0  0  0  0  0
    2.6664   62.7235   68.0260 H   0  0  0  0  0  0  0  0  0  0  0  0
    3.1627   64.4499   68.0260 H   0  0  0  0  0  0  0  0  0  0  0  0
    1.3745   63.1935   73.7030 H   0  0  0  0  0  0  0  0  0  0  0  0
    2.7475   63.8919   72.7790 H   0  0  0  0  0  0  0  0  0  0  0  0
    1.1524   64.7178   72.7790 H   0  0  0  0  0  0  0  0  0  0  0  0
    0.9061   59.4552   76.3148 H   0  0  0  0  0  0  0  0  0  0  0  0
    2.4884   59.4769   75.4647 H   0  0  0  0  0  0  0  0  0  0  0  0
    1.4487   60.9417   75.4647 H   0  0  0  0  0  0  0  0  0  0  0  0
  2  1  1  0
  3  2  1  0
  4  3  1  0
  5  4  1  0
  6  5  1  0
  7  2  1  0
  7  6  1  0
  8  5  1  0
  9  8  2  0
 10  9  1  0
 11 10  2  0
 12 11  1  0
 13 12  2  0
 13  8  1  0
 14 12  1  0
 15 14  1  0
 16 15  1  0
 17 16  1  0
 18 17  1  0
 18 14  1  0
 19 10  1  0
 20 19  1  0
 21 20  1  0
 22 21  1  0
 23 22  1  0
 23 19  1  0
 24  1  1  0
 25 24  2  0
 27 26  2  0
 28 27  1  0
 29 28  2  0
 30 29  1  0
 31 30  1  0
 32 27  1  0
 32 31  2  0
 33 31  1  0
 34 33  1  0
 35 34  1  0
 36 35  1  0
 36 30  1  0
 37 36  2  0
 38 37  1  0
 39 38  1  0
 40 39  1  0
 40 35  1  0
 41 40  1  0
 42 41  1  0
 43 39  1  0
 43 24  1  0
 43 42  1  0
 44 42  1  0
 39 45  1  1
 30 46  1  1
  1 47  1  0
  1 48  1  0
  2 49  1  0
  3 50  1  0
  3 51  1  0
  4 52  1  0
  4 53  1  0
  6 54  1  0
  6 55  1  0
  7 56  1  0
  7 57  1  0
  9 58  1  0
 15 59  1  0
 15 60  1  0
 16 61  1  0
 16 62  1  0
 17 63  1  0
 17 64  1  0
 18 65  1  0
 18 66  1  0
 20 67  1  0
 20 68  1  0
 21 69  1  0
 21 70  1  0
 22 71  1  0
 22 72  1  0
 23 73  1  0
 23 74  1  0
 28 75  1  0
 29 76  1  0
 32 77  1  0
 33 78  1  0
 33 79  1  0
 34 80  1  0
 34 81  1  0
 35 82  1  1
 37 83  1  0
 38 84  1  0
 38 85  1  0
 40 86  1  6
 41 87  1  0
 41 88  1  0
 42 89  1  1
 43 90  1  6
 44 91  1  0
 44 92  1  0
 44 93  1  0
 45 94  1  0
 45 95  1  0
 45 96  1  0
 46 97  1  0
 46 98  1  0
 46 99  1  0
M  CHG  1   2   1
M  END
>  <score>  (5) 
-9.332

$$$$
=
     RDKit          3D

 99106  0  0  0  0  0  0  0  0999 V2000
   -0.9420   56.8680   75.3790 C   0  0  0  0  0  0  0  0  0  0  0  0
   -1.4680   57.5550   76.6160 N   0  0  0  0  0  4  0  0  0  0  0  0
   -2.9420   57.3060   76.9140 C   0  0  0  0  0  0  0  0  0  0  0  0
   -3.3520   57.9160   78.2860 C   0  0  0  0  0  0  0  0  0  0  0  0
   -2.4200   58.9830   78.7350 N   0  0  0  0  0  0  0  0  0  0  0  0
   -1.0300   58.4860   78.9170 C   0  0  0  0  0  0  0  0  0  0  0  0
   -0.6150   57.4220   77.8640 C   0  0  0  0  0  0  0  0  0  0  0  0
   -2.5160   60.1150   77.8940 C   0  0  0  0  0  0  0  0  0  0  0  0
   -1.3680   60.7170   77.4310 C   0  0  0  0  0  0  0  0  0  0  0  0
   -1.5000   61.9020   76.7420 C   0  0  0  0  0  0  0  0  0  0  0  0
   -2.7190   62.4400   76.5590 N   0  0  0  0  0  0  0  0  0  0  0  0
   -3.8030   61.7860   76.9790 C   0  0  0  0  0  0  0  0  0  0  0  0
   -3.7350   60.6430   77.6800 N   0  0  0  0  0  0  0  0  0  0  0  0
   -5.0570   62.3370   76.7970 N   0  0  0  0  0  0  0  0  0  0  0  0
   -5.1690   63.5110   75.9210 C   0  0  0  0  0  0  0  0  0  0  0  0
   -6.4790   63.3010   75.1560 C   0  0  0  0  0  0  0  0  0  0  0  0
   -7.2570   62.3260   76.0230 C   0  0  0  0  0  0  0  0  0  0  0  0
   -6.1590   61.4150   76.5540 C   0  0  0  0  0  0  0  0  0  0  0  0
   -0.4020   62.5970   76.2860 N   0  0  0  0  0  0  0  0  0  0  0  0
    0.8540   61.9460   75.9140 C   0  0  0  0  0  0  0  0  0  0  0  0
    1.4340   62.8360   74.8120 C   0  0  0  0  0  0  0  0  0  0  0  0
    0.8090   64.1950   75.0810 C   0  0  0  0  0  0  0  0  0  0  0  0
   -0.6040   63.8250   75.5190 C   0  0  0  0  0  0  0  0  0  0  0  0
    0.5570   56.5830   75.3810 C   0  0  0  0  0  0  0  0  0  0  0  0
    0.9860   55.4300   75.4520 O   0  0  0  0  0  0  0  0  0  0  0  0
    2.2630   65.5870   70.4200 O   0  0  0  0  0  0  0  0  0  0  0  0
    2.3780   64.3720   70.5080 C   0  0  0  0  0  0  0  0  0  0  0  0
    1.3310   63.4650   70.0020 C   0  0  0  0  0  0  0  0  0  0  0  0
    1.4530   62.1370   70.1260 C   0  0  0  0  0  0  0  0  0  0  0  0
    2.6340   61.4180   70.7740 C   0  0  1  0  0  0  0  0  0  0  0  0
    3.6890   62.4190   71.2520 C   0  0  0  0  0  0  0  0  0  0  0  0
    3.5680   63.7530   71.1270 C   0  0  0  0  0  0  0  0  0  0  0  0
    4.8840   61.8310   71.9570 C   0  0  0  0  0  0  0  0  0  0  0  0
    4.4230   61.0230   73.1630 C   0  0  0  0  0  0  0  0  0  0  0  0
    3.3810   59.9460   72.7980 C   0  0  2  0  0  0  0  0  0  0  0  0
    2.2110   60.5310   71.9770 C   0  0  0  0  0  0  0  0  0  0  0  0
    0.9270   60.2520   72.3120 C   0  0  0  0  0  0  0  0  0  0  0  0
    0.4960   59.3130   73.4110 C   0  0  0  0  0  0  0  0  0  0  0  0
    1.6350   58.3850   73.8620 C   0  0  1  0  0  0  0  0  0  0  0  0
    2.8710   59.2780   74.0860 C   0  0  1  0  0  0  0  0  0  0  0  0
    3.8460   58.3900   74.8560 C   0  0  0  0  0  0  0  0  0  0  0  0
    2.9400   57.4840   75.7210 C   0  0  2  0  0  0  0  0  0  0  0  0
    1.4800   57.7960   75.2840 C   0  0  2  0  0  0  0  0  0  0  0  0
    3.1450   57.7190   77.2140 C   0  0  0  0  0  0  0  0  0  0  0  0
    1.8580   57.2740   72.8050 C   0  0  0  0  0  0  0  0  0  0  0  0
    3.2220   60.5190   69.6620 C   0  0  0  0  0  0  0  0  0  0  0  0
   -1.4704   55.9092   75.2717 H   0  0  0  0  0  0  0  0  0  0  0  0
   -1.1191   57.5635   74.5453 H   0  0  0  0  0  0  0  0  0  0  0  0
   -1.3890   58.5437   76.3381 H   0  0  0  0  0  0  0  0  0  0  0  0
   -3.5505   57.7656   76.1212 H   0  0  0  0  0  0  0  0  0  0  0  0
   -3.1099   56.2196   76.9528 H   0  0  0  0  0  0  0  0  0  0  0  0
   -4.3610   58.3444   78.1943 H   0  0  0  0  0  0  0  0  0  0  0  0
   -3.3218   57.1093   79.0332 H   0  0  0  0  0  0  0  0  0  0  0  0
   -0.3410   59.3401   78.8406 H   0  0  0  0  0  0  0  0  0  0  0  0
   -0.9834   58.0029   79.9041 H   0  0  0  0  0  0  0  0  0  0  0  0
   -0.7505   56.4172   78.2907 H   0  0  0  0  0  0  0  0  0  0  0  0
    0.4400   57.5780   77.5945 H   0  0  0  0  0  0  0  0  0  0  0  0
   -0.3794   60.2671   77.6053 H   0  0  0  0  0  0  0  0  0  0  0  0
   -5.2106   64.4358   76.5151 H   0  0  0  0  0  0  0  0  0  0  0  0
   -4.3051   63.6120   75.2476 H   0  0  0  0  0  0  0  0  0  0  0  0
   -7.0250   64.2497   75.0474 H   0  0  0  0  0  0  0  0  0  0  0  0
   -6.3180   62.9250   74.1349 H   0  0  0  0  0  0  0  0  0  0  0  0
   -7.7735   62.8467   76.8428 H   0  0  0  0  0  0  0  0  0  0  0  0
   -8.0494   61.7899   75.4801 H   0  0  0  0  0  0  0  0  0  0  0  0
   -6.4722   60.9193   77.4847 H   0  0  0  0  0  0  0  0  0  0  0  0
   -5.8985   60.6010   75.8615 H   0  0  0  0  0  0  0  0  0  0  0  0
    1.5370   61.8978   76.7749 H   0  0  0  0  0  0  0  0  0  0  0  0
    0.7049   60.9088   75.5794 H   0  0  0  0  0  0  0  0  0  0  0  0
    2.5304   62.8869   74.8852 H   0  0  0  0  0  0  0  0  0  0  0  0
    1.2174   62.4594   73.8014 H   0  0  0  0  0  0  0  0  0  0  0  0
    1.3459   64.7290   75.8789 H   0  0  0  0  0  0  0  0  0  0  0  0
    0.8373   64.8711   74.2138 H   0  0  0  0  0  0  0  0  0  0  0  0
   -1.0426   64.6149   76.1464 H   0  0  0  0  0  0  0  0  0  0  0  0
   -1.2992   63.6990   74.6759 H   0  0  0  0  0  0  0  0  0  0  0  0
    0.4378   63.8848   69.5162 H   0  0  0  0  0  0  0  0  0  0  0  0
    0.6373   61.5146   69.7294 H   0  0  0  0  0  0  0  0  0  0  0  0
    4.3772   64.4005   71.4957 H   0  0  0  0  0  0  0  0  0  0  0  0
    5.4305   61.1742   71.2642 H   0  0  0  0  0  0  0  0  0  0  0  0
    5.5441   62.6438   72.2941 H   0  0  0  0  0  0  0  0  0  0  0  0
    5.2980   60.5283   73.6099 H   0  0  0  0  0  0  0  0  0  0  0  0
    3.9454   61.7210   73.8663 H   0  0  0  0  0  0  0  0  0  0  0  0
    3.8664   59.1917   72.1613 H   0  0  0  0  0  0  0  0  0  0  0  0
    0.1347   60.7514   71.7350 H   0  0  0  0  0  0  0  0  0  0  0  0
    0.1609   59.9075   74.2737 H   0  0  0  0  0  0  0  0  0  0  0  0
   -0.3164   58.6840   73.0182 H   0  0  0  0  0  0  0  0  0  0  0  0
    2.6623   60.1799   74.6801 H   0  0  0  0  0  0  0  0  0  0  0  0
    4.4527   57.7871   74.1644 H   0  0  0  0  0  0  0  0  0  0  0  0
    4.5559   58.9731   75.4610 H   0  0  0  0  0  0  0  0  0  0  0  0
    3.1859   56.4233   75.5649 H   0  0  0  0  0  0  0  0  0  0  0  0
    0.9752   58.5095   75.9519 H   0  0  0  0  0  0  0  0  0  0  0  0
    2.5269   57.0105   77.7850 H   0  0  0  0  0  0  0  0  0  0  0  0
    4.2048   57.5676   77.4669 H   0  0  0  0  0  0  0  0  0  0  0  0
    2.8511   58.7484   77.4669 H   0  0  0  0  0  0  0  0  0  0  0  0
    2.0500   56.3175   73.3133 H   0  0  0  0  0  0  0  0  0  0  0  0
    0.9606   57.1812   72.1757 H   0  0  0  0  0  0  0  0  0  0  0  0
    2.7217   57.5347   72.1757 H   0  0  0  0  0  0  0  0  0  0  0  0
    3.7697   59.6816   70.1188 H   0  0  0  0  0  0  0  0  0  0  0  0
    2.4057   60.1263   69.0380 H   0  0  0  0  0  0  0  0  0  0  0  0
    3.9090   61.1095   69.0380 H   0  0  0  0  0  0  0  0  0  0  0  0
  2  1  1  0
  3  2  1  0
  4  3  1  0
  5  4  1  0
  6  5  1  0
  7  2  1  0
  7  6  1  0
  8  5  1  0
  9  8  2  0
 10  9  1  0
 11 10  2  0
 12 11  1  0
 13 12  2  0
 13  8  1  0
 14 12  1  0
 15 14  1  0
 16 15  1  0
 17 16  1  0
 18 17  1  0
 18 14  1  0
 19 10  1  0
 20 19  1  0
 21 20  1  0
 22 21  1  0
 23 22  1  0
 23 19  1  0
 24  1  1  0
 25 24  2  0
 27 26  2  0
 28 27  1  0
 29 28  2  0
 30 29  1  0
 31 30  1  0
 32 27  1  0
 32 31  2  0
 33 31  1  0
 34 33  1  0
 35 34  1  0
 36 35  1  0
 36 30  1  0
 37 36  2  0
 38 37  1  0
 39 38  1  0
 40 39  1  0
 40 35  1  0
 41 40  1  0
 42 41  1  0
 43 39  1  0
 43 24  1  0
 43 42  1  0
 44 42  1  0
 39 45  1  6
 30 46  1  6
  1 47  1  0
  1 48  1  0
  2 49  1  0
  3 50  1  0
  3 51  1  0
  4 52  1  0
  4 53  1  0
  6 54  1  0
  6 55  1  0
  7 56  1  0
  7 57  1  0
  9 58  1  0
 15 59  1  0
 15 60  1  0
 16 61  1  0
 16 62  1  0
 17 63  1  0
 17 64  1  0
 18 65  1  0
 18 66  1  0
 20 67  1  0
 20 68  1  0
 21 69  1  0
 21 70  1  0
 22 71  1  0
 22 72  1  0
 23 73  1  0
 23 74  1  0
 28 75  1  0
 29 76  1  0
 32 77  1  0
 33 78  1  0
 33 79  1  0
 34 80  1  0
 34 81  1  0
 35 82  1  6
 37 83  1  0
 38 84  1  0
 38 85  1  0
 40 86  1  1
 41 87  1  0
 41 88  1  0
 42 89  1  1
 43 90  1  1
 44 91  1  0
 44 92  1  0
 44 93  1  0
 45 94  1  0
 45 95  1  0
 45 96  1  0
 46 97  1  0
 46 98  1  0
 46 99  1  0
M  CHG  1   2   1
M  END
>  <score>  (6) 
-9.189

$$$$
=
     RDKit          3D

 99106  0  0  0  0  0  0  0  0999 V2000
    0.6130   61.7000   72.0320 C   0  0  0  0  0  0  0  0  0  0  0  0
    1.9250   61.0260   72.3570 N   0  0  0  0  0  4  0  0  0  0  0  0
    2.2800   59.8440   71.4620 C   0  0  0  0  0  0  0  0  0  0  0  0
    3.7130   59.3180   71.7630 C   0  0  0  0  0  0  0  0  0  0  0  0
    4.1920   59.7140   73.1130 N   0  0  0  0  0  0  0  0  0  0  0  0
    4.2630   61.1900   73.2830 C   0  0  0  0  0  0  0  0  0  0  0  0
    3.1120   61.9470   72.5650 C   0  0  0  0  0  0  0  0  0  0  0  0
    3.4450   59.0590   74.1190 C   0  0  0  0  0  0  0  0  0  0  0  0
    2.9490   57.7960   73.8850 C   0  0  0  0  0  0  0  0  0  0  0  0
    2.1030   57.2560   74.8280 C   0  0  0  0  0  0  0  0  0  0  0  0
    1.7720   57.9680   75.9200 N   0  0  0  0  0  0  0  0  0  0  0  0
    2.3260   59.1640   76.1250 C   0  0  0  0  0  0  0  0  0  0  0  0
    3.1350   59.7520   75.2300 N   0  0  0  0  0  0  0  0  0  0  0  0
    1.9860   59.9010   77.2440 N   0  0  0  0  0  0  0  0  0  0  0  0
    1.2140   59.2290   78.2980 C   0  0  0  0  0  0  0  0  0  0  0  0
    1.7950   59.7690   79.6080 C   0  0  0  0  0  0  0  0  0  0  0  0
    2.4610   61.0730   79.2040 C   0  0  0  0  0  0  0  0  0  0  0  0
    3.0260   60.7370   77.8300 C   0  0  0  0  0  0  0  0  0  0  0  0
    1.5220   56.0200   74.6510 N   0  0  0  0  0  0  0  0  0  0  0  0
    2.1520   54.9480   73.8800 C   0  0  0  0  0  0  0  0  0  0  0  0
    1.6650   53.6600   74.5470 C   0  0  0  0  0  0  0  0  0  0  0  0
    0.3590   54.0690   75.2080 C   0  0  0  0  0  0  0  0  0  0  0  0
    0.6690   55.4760   75.7060 C   0  0  0  0  0  0  0  0  0  0  0  0
    0.0020   62.5150   73.1690 C   0  0  0  0  0  0  0  0  0  0  0  0
   -0.3530   63.6820   72.9950 O   0  0  0  0  0  0  0  0  0  0  0  0
   -2.3270   53.4640   77.7790 O   0  0  0  0  0  0  0  0  0  0  0  0
   -2.6600   54.5330   77.2830 C   0  0  0  0  0  0  0  0  0  0  0  0
   -2.8710   54.6690   75.8300 C   0  0  0  0  0  0  0  0  0  0  0  0
   -3.2090   55.8490   75.2930 C   0  0  0  0  0  0  0  0  0  0  0  0
   -3.4120   57.1460   76.0720 C   0  0  1  0  0  0  0  0  0  0  0  0
   -3.2000   56.9220   77.5720 C   0  0  0  0  0  0  0  0  0  0  0  0
   -2.8610   55.7380   78.1120 C   0  0  0  0  0  0  0  0  0  0  0  0
   -3.3220   58.1450   78.4450 C   0  0  0  0  0  0  0  0  0  0  0  0
   -2.3330   59.2070   77.9830 C   0  0  0  0  0  0  0  0  0  0  0  0
   -2.4790   59.5490   76.4870 C   0  0  2  0  0  0  0  0  0  0  0  0
   -2.4660   58.2840   75.6020 C   0  0  0  0  0  0  0  0  0  0  0  0
   -1.6800   58.2230   74.4980 C   0  0  0  0  0  0  0  0  0  0  0  0
   -0.8320   59.3520   73.9660 C   0  0  0  0  0  0  0  0  0  0  0  0
   -1.2430   60.7120   74.5530 C   0  0  1  0  0  0  0  0  0  0  0  0
   -1.3570   60.5200   76.0780 C   0  0  1  0  0  0  0  0  0  0  0  0
   -1.4130   61.9400   76.6360 C   0  0  0  0  0  0  0  0  0  0  0  0
   -0.5370   62.7680   75.6690 C   0  0  2  0  0  0  0  0  0  0  0  0
   -0.1470   61.8040   74.5120 C   0  0  2  0  0  0  0  0  0  0  0  0
    0.6950   63.3480   76.3580 C   0  0  0  0  0  0  0  0  0  0  0  0
   -2.5570   61.1960   73.8900 C   0  0  0  0  0  0  0  0  0  0  0  0
   -4.8780   57.5580   75.8000 C   0  0  0  0  0  0  0  0  0  0  0  0
    0.7794   62.3757   71.1801 H   0  0  0  0  0  0  0  0  0  0  0  0
   -0.1011   60.8911   71.8182 H   0  0  0  0  0  0  0  0  0  0  0  0
    1.7195   60.6366   73.2881 H   0  0  0  0  0  0  0  0  0  0  0  0
    1.5569   59.0334   71.6353 H   0  0  0  0  0  0  0  0  0  0  0  0
    2.2456   60.1786   70.4147 H   0  0  0  0  0  0  0  0  0  0  0  0
    3.7065   58.2199   71.6989 H   0  0  0  0  0  0  0  0  0  0  0  0
    4.3947   59.7620   71.0226 H   0  0  0  0  0  0  0  0  0  0  0  0
    4.2156   61.4204   74.3575 H   0  0  0  0  0  0  0  0  0  0  0  0
    5.2069   61.5254   72.8286 H   0  0  0  0  0  0  0  0  0  0  0  0
    3.4680   62.3063   71.5882 H   0  0  0  0  0  0  0  0  0  0  0  0
    2.7997   62.7976   73.1886 H   0  0  0  0  0  0  0  0  0  0  0  0
    3.2191   57.2378   72.9765 H   0  0  0  0  0  0  0  0  0  0  0  0
    0.1458   59.4781   78.2154 H   0  0  0  0  0  0  0  0  0  0  0  0
    1.2841   58.1332   78.2315 H   0  0  0  0  0  0  0  0  0  0  0  0
    0.9980   59.9487   80.3446 H   0  0  0  0  0  0  0  0  0  0  0  0
    2.4946   59.0654   80.0829 H   0  0  0  0  0  0  0  0  0  0  0  0
    1.7293   61.8922   79.1444 H   0  0  0  0  0  0  0  0  0  0  0  0
    3.2208   61.4197   79.9199 H   0  0  0  0  0  0  0  0  0  0  0  0
    3.1839   61.6478   77.2338 H   0  0  0  0  0  0  0  0  0  0  0  0
    4.0072   60.2417   77.8738 H   0  0  0  0  0  0  0  0  0  0  0  0
    1.8325   54.9860   72.8281 H   0  0  0  0  0  0  0  0  0  0  0  0
    3.2492   55.0267   73.8730 H   0  0  0  0  0  0  0  0  0  0  0  0
    1.4962   52.8707   73.7997 H   0  0  0  0  0  0  0  0  0  0  0  0
    2.3934   53.2474   75.2606 H   0  0  0  0  0  0  0  0  0  0  0  0
   -0.4682   54.0770   74.4830 H   0  0  0  0  0  0  0  0  0  0  0  0
    0.0365   53.3825   76.0047 H   0  0  0  0  0  0  0  0  0  0  0  0
   -0.2515   56.0684   75.8144 H   0  0  0  0  0  0  0  0  0  0  0  0
    1.1456   55.4888   76.6973 H   0  0  0  0  0  0  0  0  0  0  0  0
   -2.7494   53.7908   75.1789 H   0  0  0  0  0  0  0  0  0  0  0  0
   -3.3517   55.8862   74.2029 H   0  0  0  0  0  0  0  0  0  0  0  0
   -2.7298   55.6653   79.2017 H   0  0  0  0  0  0  0  0  0  0  0  0
   -4.3450   58.5432   78.3754 H   0  0  0  0  0  0  0  0  0  0  0  0
   -3.1019   57.8715   79.4875 H   0  0  0  0  0  0  0  0  0  0  0  0
   -2.4998   60.1219   78.5705 H   0  0  0  0  0  0  0  0  0  0  0  0
   -1.3205   58.8043   78.1333 H   0  0  0  0  0  0  0  0  0  0  0  0
   -3.4558   60.0307   76.3326 H   0  0  0  0  0  0  0  0  0  0  0  0
   -1.6592   57.2722   73.9452 H   0  0  0  0  0  0  0  0  0  0  0  0
    0.2194   59.1577   74.2243 H   0  0  0  0  0  0  0  0  0  0  0  0
   -0.9742   59.3972   72.8762 H   0  0  0  0  0  0  0  0  0  0  0  0
   -0.4990   59.9943   76.5224 H   0  0  0  0  0  0  0  0  0  0  0  0
   -2.4470   62.3151   76.6425 H   0  0  0  0  0  0  0  0  0  0  0  0
   -1.0580   61.9962   77.6756 H   0  0  0  0  0  0  0  0  0  0  0  0
   -1.0902   63.6414   75.2934 H   0  0  0  0  0  0  0  0  0  0  0  0
    0.8528   61.3632   74.6389 H   0  0  0  0  0  0  0  0  0  0  0  0
    0.5674   63.2879   77.4489 H   0  0  0  0  0  0  0  0  0  0  0  0
    1.5854   62.7745   76.0609 H   0  0  0  0  0  0  0  0  0  0  0  0
    0.8203   64.3997   76.0609 H   0  0  0  0  0  0  0  0  0  0  0  0
   -3.2844   61.4639   74.6704 H   0  0  0  0  0  0  0  0  0  0  0  0
   -2.3493   62.0766   73.2644 H   0  0  0  0  0  0  0  0  0  0  0  0
   -2.9702   60.3911   73.2644 H   0  0  0  0  0  0  0  0  0  0  0  0
   -5.4010   57.7050   76.7565 H   0  0  0  0  0  0  0  0  0  0  0  0
   -4.8947   58.4956   75.2251 H   0  0  0  0  0  0  0  0  0  0  0  0
   -5.3807   56.7663   75.2251 H   0  0  0  0  0  0  0  0  0  0  0  0
  2  1  1  0
  3  2  1  0
  4  3  1  0
  5  4  1  0
  6  5  1  0
  7  2  1  0
  7  6  1  0
  8  5  1  0
  9  8  2  0
 10  9  1  0
 11 10  2  0
 12 11  1  0
 13 12  2  0
 13  8  1  0
 14 12  1  0
 15 14  1  0
 16 15  1  0
 17 16  1  0
 18 17  1  0
 18 14  1  0
 19 10  1  0
 20 19  1  0
 21 20  1  0
 22 21  1  0
 23 22  1  0
 23 19  1  0
 24  1  1  0
 25 24  2  0
 27 26  2  0
 28 27  1  0
 29 28  2  0
 30 29  1  0
 31 30  1  0
 32 27  1  0
 32 31  2  0
 33 31  1  0
 34 33  1  0
 35 34  1  0
 36 35  1  0
 36 30  1  0
 37 36  2  0
 38 37  1  0
 39 38  1  0
 40 39  1  0
 40 35  1  0
 41 40  1  0
 42 41  1  0
 43 39  1  0
 43 24  1  0
 43 42  1  0
 44 42  1  0
 39 45  1  6
 30 46  1  1
  1 47  1  0
  1 48  1  0
  2 49  1  0
  3 50  1  0
  3 51  1  0
  4 52  1  0
  4 53  1  0
  6 54  1  0
  6 55  1  0
  7 56  1  0
  7 57  1  0
  9 58  1  0
 15 59  1  0
 15 60  1  0
 16 61  1  0
 16 62  1  0
 17 63  1  0
 17 64  1  0
 18 65  1  0
 18 66  1  0
 20 67  1  0
 20 68  1  0
 21 69  1  0
 21 70  1  0
 22 71  1  0
 22 72  1  0
 23 73  1  0
 23 74  1  0
 28 75  1  0
 29 76  1  0
 32 77  1  0
 33 78  1  0
 33 79  1  0
 34 80  1  0
 34 81  1  0
 35 82  1  1
 37 83  1  0
 38 84  1  0
 38 85  1  0
 40 86  1  1
 41 87  1  0
 41 88  1  0
 42 89  1  6
 43 90  1  1
 44 91  1  0
 44 92  1  0
 44 93  1  0
 45 94  1  0
 45 95  1  0
 45 96  1  0
 46 97  1  0
 46 98  1  0
 46 99  1  0
M  CHG  1   2   1
M  END
>  <score>  (7) 
-8.906

$$$$
=
     RDKit          3D

 99106  0  0  0  0  0  0  0  0999 V2000
    0.6560   61.6130   71.8280 C   0  0  0  0  0  0  0  0  0  0  0  0
    1.9530   60.9730   72.2640 N   0  0  0  0  0  4  0  0  0  0  0  0
    2.3500   59.7270   71.4810 C   0  0  0  0  0  0  0  0  0  0  0  0
    3.7690   59.2330   71.8860 C   0  0  0  0  0  0  0  0  0  0  0  0
    4.1850   59.7350   73.2220 N   0  0  0  0  0  0  0  0  0  0  0  0
    4.2460   61.2200   73.2800 C   0  0  0  0  0  0  0  0  0  0  0  0
    3.1280   61.9130   72.4530 C   0  0  0  0  0  0  0  0  0  0  0  0
    3.3940   59.1560   74.2400 C   0  0  0  0  0  0  0  0  0  0  0  0
    3.0900   59.8900   75.3650 C   0  0  0  0  0  0  0  0  0  0  0  0
    2.4470   59.2420   76.3970 C   0  0  0  0  0  0  0  0  0  0  0  0
    2.1580   57.9340   76.2910 N   0  0  0  0  0  0  0  0  0  0  0  0
    2.4230   57.2840   75.1570 C   0  0  0  0  0  0  0  0  0  0  0  0
    3.0720   57.8540   74.1290 N   0  0  0  0  0  0  0  0  0  0  0  0
    2.1310   55.9380   75.0460 N   0  0  0  0  0  0  0  0  0  0  0  0
    1.3050   55.3270   76.0960 C   0  0  0  0  0  0  0  0  0  0  0  0
    0.3910   54.3500   75.3520 C   0  0  0  0  0  0  0  0  0  0  0  0
    1.1190   54.0900   74.0440 C   0  0  0  0  0  0  0  0  0  0  0  0
    1.7240   55.4530   73.7330 C   0  0  0  0  0  0  0  0  0  0  0  0
    2.1500   59.8870   77.5770 N   0  0  0  0  0  0  0  0  0  0  0  0
    1.8870   61.3240   77.6560 C   0  0  0  0  0  0  0  0  0  0  0  0
    0.9000   61.4700   78.8160 C   0  0  0  0  0  0  0  0  0  0  0  0
    1.1630   60.2400   79.6690 C   0  0  0  0  0  0  0  0  0  0  0  0
    1.4250   59.1630   78.6200 C   0  0  0  0  0  0  0  0  0  0  0  0
    0.0310   62.5690   72.8410 C   0  0  0  0  0  0  0  0  0  0  0  0
   -0.3110   63.7060   72.5130 O   0  0  0  0  0  0  0  0  0  0  0  0
   -2.0540   54.0970   78.5380 O   0  0  0  0  0  0  0  0  0  0  0  0
   -2.4170   55.0690   77.8880 C   0  0  0  0  0  0  0  0  0  0  0  0
   -2.5640   54.9980   76.4230 C   0  0  0  0  0  0  0  0  0  0  0  0
   -2.9360   56.0740   75.7170 C   0  0  0  0  0  0  0  0  0  0  0  0
   -3.2410   57.4500   76.3040 C   0  0  1  0  0  0  0  0  0  0  0  0
   -3.0910   57.4410   77.8280 C   0  0  0  0  0  0  0  0  0  0  0  0
   -2.7190   56.3610   78.5370 C   0  0  0  0  0  0  0  0  0  0  0  0
   -3.3180   58.7600   78.5200 C   0  0  0  0  0  0  0  0  0  0  0  0
   -2.3630   59.8060   77.9600 C   0  0  0  0  0  0  0  0  0  0  0  0
   -2.4530   59.9360   76.4260 C   0  0  2  0  0  0  0  0  0  0  0  0
   -2.3330   58.5670   75.7230 C   0  0  0  0  0  0  0  0  0  0  0  0
   -1.4920   58.4040   74.6700 C   0  0  0  0  0  0  0  0  0  0  0  0
   -0.6780   59.4990   74.0250 C   0  0  0  0  0  0  0  0  0  0  0  0
   -1.1850   60.9000   74.4050 C   0  0  1  0  0  0  0  0  0  0  0  0
   -1.3640   60.9060   75.9360 C   0  0  1  0  0  0  0  0  0  0  0  0
   -1.5190   62.3830   76.2930 C   0  0  0  0  0  0  0  0  0  0  0  0
   -0.6400   63.1230   75.2590 C   0  0  2  0  0  0  0  0  0  0  0  0
   -0.1460   62.0370   74.2600 C   0  0  2  0  0  0  0  0  0  0  0  0
    0.5260   63.8590   75.9130 C   0  0  0  0  0  0  0  0  0  0  0  0
   -2.4890   61.2140   73.6280 C   0  0  0  0  0  0  0  0  0  0  0  0
   -4.7110   57.7380   75.9190 C   0  0  0  0  0  0  0  0  0  0  0  0
    0.8482   62.1756   70.9025 H   0  0  0  0  0  0  0  0  0  0  0  0
   -0.0629   60.7903   71.7003 H   0  0  0  0  0  0  0  0  0  0  0  0
    1.7058   60.6567   73.2125 H   0  0  0  0  0  0  0  0  0  0  0  0
    1.6211   58.9287   71.6843 H   0  0  0  0  0  0  0  0  0  0  0  0
    2.3626   59.9791   70.4103 H   0  0  0  0  0  0  0  0  0  0  0  0
    3.7674   58.1332   71.9069 H   0  0  0  0  0  0  0  0  0  0  0  0
    4.4831   59.6215   71.1450 H   0  0  0  0  0  0  0  0  0  0  0  0
    4.1486   61.5328   74.3301 H   0  0  0  0  0  0  0  0  0  0  0  0
    5.2095   61.5241   72.8450 H   0  0  0  0  0  0  0  0  0  0  0  0
    3.5279   62.1964   71.4682 H   0  0  0  0  0  0  0  0  0  0  0  0
    2.7864   62.8083   72.9931 H   0  0  0  0  0  0  0  0  0  0  0  0
    3.3513   60.9561   75.4371 H   0  0  0  0  0  0  0  0  0  0  0  0
    1.9343   54.7926   76.8228 H   0  0  0  0  0  0  0  0  0  0  0  0
    0.7367   56.0759   76.6671 H   0  0  0  0  0  0  0  0  0  0  0  0
    0.2676   53.4179   75.9229 H   0  0  0  0  0  0  0  0  0  0  0  0
   -0.6225   54.7498   75.2005 H   0  0  0  0  0  0  0  0  0  0  0  0
    1.9007   53.3261   74.1681 H   0  0  0  0  0  0  0  0  0  0  0  0
    0.4672   53.7049   73.2460 H   0  0  0  0  0  0  0  0  0  0  0  0
    2.5896   55.3574   73.0610 H   0  0  0  0  0  0  0  0  0  0  0  0
    1.0264   56.1297   73.2179 H   0  0  0  0  0  0  0  0  0  0  0  0
    2.8145   61.8782   77.8626 H   0  0  0  0  0  0  0  0  0  0  0  0
    1.4880   61.7285   76.7141 H   0  0  0  0  0  0  0  0  0  0  0  0
    1.0962   62.3910   79.3845 H   0  0  0  0  0  0  0  0  0  0  0  0
   -0.1452   61.5408   78.4804 H   0  0  0  0  0  0  0  0  0  0  0  0
    2.0396   60.3855   80.3174 H   0  0  0  0  0  0  0  0  0  0  0  0
    0.3372   59.9952   80.3532 H   0  0  0  0  0  0  0  0  0  0  0  0
    2.0375   58.3487   79.0343 H   0  0  0  0  0  0  0  0  0  0  0  0
    0.5057   58.6824   78.2541 H   0  0  0  0  0  0  0  0  0  0  0  0
   -2.3657   54.0493   75.9028 H   0  0  0  0  0  0  0  0  0  0  0  0
   -3.0292   55.9568   74.6272 H   0  0  0  0  0  0  0  0  0  0  0  0
   -2.6373   56.4418   79.6310 H   0  0  0  0  0  0  0  0  0  0  0  0
   -4.3553   59.0861   78.3538 H   0  0  0  0  0  0  0  0  0  0  0  0
   -3.1357   58.6412   79.5983 H   0  0  0  0  0  0  0  0  0  0  0  0
   -2.6051   60.7800   78.4102 H   0  0  0  0  0  0  0  0  0  0  0  0
   -1.3397   59.4862   78.2061 H   0  0  0  0  0  0  0  0  0  0  0  0
   -3.4443   60.3362   76.1666 H   0  0  0  0  0  0  0  0  0  0  0  0
   -1.3959   57.3908   74.2526 H   0  0  0  0  0  0  0  0  0  0  0  0
    0.3684   59.4007   74.3498 H   0  0  0  0  0  0  0  0  0  0  0  0
   -0.7704   59.3907   72.9342 H   0  0  0  0  0  0  0  0  0  0  0  0
   -0.5037   60.4932   76.4833 H   0  0  0  0  0  0  0  0  0  0  0  0
   -2.5698   62.6963   76.2058 H   0  0  0  0  0  0  0  0  0  0  0  0
   -1.2181   62.5977   77.3291 H   0  0  0  0  0  0  0  0  0  0  0  0
   -1.2180   63.9056   74.7457 H   0  0  0  0  0  0  0  0  0  0  0  0
    0.8679   61.6751   74.4857 H   0  0  0  0  0  0  0  0  0  0  0  0
    0.4303   63.7986   77.0072 H   0  0  0  0  0  0  0  0  0  0  0  0
    1.4735   63.3950   75.6016 H   0  0  0  0  0  0  0  0  0  0  0  0
    0.5147   64.9139   75.6016 H   0  0  0  0  0  0  0  0  0  0  0  0
   -3.3029   61.4100   74.3416 H   0  0  0  0  0  0  0  0  0  0  0  0
   -2.3345   62.1006   72.9955 H   0  0  0  0  0  0  0  0  0  0  0  0
   -2.7550   60.3542   72.9955 H   0  0  0  0  0  0  0  0  0  0  0  0
   -5.3128   57.8559   76.8322 H   0  0  0  0  0  0  0  0  0  0  0  0
   -4.7601   58.6628   75.3255 H   0  0  0  0  0  0  0  0  0  0  0  0
   -5.1055   56.9001   75.3255 H   0  0  0  0  0  0  0  0  0  0  0  0
  2  1  1  0
  3  2  1  0
  4  3  1  0
  5  4  1  0
  6  5  1  0
  7  2  1  0
  7  6  1  0
  8  5  1  0
  9  8  2  0
 10  9  1  0
 11 10  2  0
 12 11  1  0
 13 12  2  0
 13  8  1  0
 14 12  1  0
 15 14  1  0
 16 15  1  0
 17 16  1  0
 18 17  1  0
 18 14  1  0
 19 10  1  0
 20 19  1  0
 21 20  1  0
 22 21  1  0
 23 22  1  0
 23 19  1  0
 24  1  1  0
 25 24  2  0
 27 26  2  0
 28 27  1  0
 29 28  2  0
 30 29  1  0
 31 30  1  0
 32 27  1  0
 32 31  2  0
 33 31  1  0
 34 33  1  0
 35 34  1  0
 36 35  1  0
 36 30  1  0
 37 36  2  0
 38 37  1  0
 39 38  1  0
 40 39  1  0
 40 35  1  0
 41 40  1  0
 42 41  1  0
 43 39  1  0
 43 24  1  0
 43 42  1  0
 44 42  1  0
 39 45  1  6
 30 46  1  1
  1 47  1  0
  1 48  1  0
  2 49  1  0
  3 50  1  0
  3 51  1  0
  4 52  1  0
  4 53  1  0
  6 54  1  0
  6 55  1  0
  7 56  1  0
  7 57  1  0
  9 58  1  0
 15 59  1  0
 15 60  1  0
 16 61  1  0
 16 62  1  0
 17 63  1  0
 17 64  1  0
 18 65  1  0
 18 66  1  0
 20 67  1  0
 20 68  1  0
 21 69  1  0
 21 70  1  0
 22 71  1  0
 22 72  1  0
 23 73  1  0
 23 74  1  0
 28 75  1  0
 29 76  1  0
 32 77  1  0
 33 78  1  0
 33 79  1  0
 34 80  1  0
 34 81  1  0
 35 82  1  1
 37 83  1  0
 38 84  1  0
 38 85  1  0
 40 86  1  1
 41 87  1  0
 41 88  1  0
 42 89  1  6
 43 90  1  1
 44 91  1  0
 44 92  1  0
 44 93  1  0
 45 94  1  0
 45 95  1  0
 45 96  1  0
 46 97  1  0
 46 98  1  0
 46 99  1  0
M  CHG  1   2   1
M  END
>  <score>  (8) 
-8.857

$$$$
=
     RDKit          3D

 99106  0  0  0  0  0  0  0  0999 V2000
    1.9120   57.5470   72.4830 C   0  0  0  0  0  0  0  0  0  0  0  0
    2.8860   58.7010   72.5050 N   0  0  0  0  0  4  0  0  0  0  0  0
    3.6710   58.8560   73.8030 C   0  0  0  0  0  0  0  0  0  0  0  0
    4.7590   59.9600   73.6770 C   0  0  0  0  0  0  0  0  0  0  0  0
    4.4740   60.9160   72.5740 N   0  0  0  0  0  0  0  0  0  0  0  0
    4.4200   60.2530   71.2440 C   0  0  0  0  0  0  0  0  0  0  0  0
    3.7840   58.8360   71.2890 C   0  0  0  0  0  0  0  0  0  0  0  0
    3.3310   61.6930   72.8710 C   0  0  0  0  0  0  0  0  0  0  0  0
    2.6600   61.4910   74.0570 C   0  0  0  0  0  0  0  0  0  0  0  0
    1.4690   62.1580   74.2400 C   0  0  0  0  0  0  0  0  0  0  0  0
    0.9910   62.9570   73.2700 N   0  0  0  0  0  0  0  0  0  0  0  0
    1.7090   63.1620   72.1640 C   0  0  0  0  0  0  0  0  0  0  0  0
    2.8620   62.5190   71.9180 N   0  0  0  0  0  0  0  0  0  0  0  0
    1.2190   63.9780   71.1630 N   0  0  0  0  0  0  0  0  0  0  0  0
    0.0350   64.7940   71.4620 C   0  0  0  0  0  0  0  0  0  0  0  0
    0.2960   66.1300   70.7600 C   0  0  0  0  0  0  0  0  0  0  0  0
    1.3270   65.7900   69.6980 C   0  0  0  0  0  0  0  0  0  0  0  0
    2.1920   64.7540   70.4040 C   0  0  0  0  0  0  0  0  0  0  0  0
    0.7090   61.9770   75.3740 N   0  0  0  0  0  0  0  0  0  0  0  0
    1.2870   61.6310   76.6730 C   0  0  0  0  0  0  0  0  0  0  0  0
    0.3460   62.2730   77.6940 C   0  0  0  0  0  0  0  0  0  0  0  0
   -0.9730   62.3830   76.9470 C   0  0  0  0  0  0  0  0  0  0  0  0
   -0.5220   62.7470   75.5370 C   0  0  0  0  0  0  0  0  0  0  0  0
    1.5200   57.0010   73.8530 C   0  0  0  0  0  0  0  0  0  0  0  0
    2.3660   56.8200   74.7310 O   0  0  0  0  0  0  0  0  0  0  0  0
   -7.9780   61.2270   74.5690 O   0  0  0  0  0  0  0  0  0  0  0  0
   -6.9100   60.8970   75.0680 C   0  0  0  0  0  0  0  0  0  0  0  0
   -5.7350   61.7850   75.0200 C   0  0  0  0  0  0  0  0  0  0  0  0
   -4.5630   61.4040   75.5450 C   0  0  0  0  0  0  0  0  0  0  0  0
   -4.2990   60.0660   76.2300 C   0  0  1  0  0  0  0  0  0  0  0  0
   -5.5670   59.2090   76.2650 C   0  0  0  0  0  0  0  0  0  0  0  0
   -6.7440   59.5910   75.7380 C   0  0  0  0  0  0  0  0  0  0  0  0
   -5.4200   57.8380   76.8730 C   0  0  0  0  0  0  0  0  0  0  0  0
   -4.3440   57.0570   76.1280 C   0  0  0  0  0  0  0  0  0  0  0  0
   -2.9990   57.8080   76.0640 C   0  0  2  0  0  0  0  0  0  0  0  0
   -3.1680   59.2520   75.5450 C   0  0  0  0  0  0  0  0  0  0  0  0
   -2.3560   59.7340   74.5700 C   0  0  0  0  0  0  0  0  0  0  0  0
   -1.1880   58.9970   73.9630 C   0  0  0  0  0  0  0  0  0  0  0  0
   -0.7440   57.8040   74.8240 C   0  0  1  0  0  0  0  0  0  0  0  0
   -2.0200   57.0150   75.1800 C   0  0  1  0  0  0  0  0  0  0  0  0
   -1.5030   55.6820   75.7160 C   0  0  0  0  0  0  0  0  0  0  0  0
   -0.2060   55.4220   74.9170 C   0  0  2  0  0  0  0  0  0  0  0  0
    0.0390   56.7030   74.0690 C   0  0  2  0  0  0  0  0  0  0  0  0
   -0.3060   54.1770   74.0410 C   0  0  0  0  0  0  0  0  0  0  0  0
    0.0360   58.3110   76.0630 C   0  0  0  0  0  0  0  0  0  0  0  0
   -3.8650   60.4260   77.6700 C   0  0  0  0  0  0  0  0  0  0  0  0
    0.9958   57.8847   71.9764 H   0  0  0  0  0  0  0  0  0  0  0  0
    2.4247   56.7249   71.9622 H   0  0  0  0  0  0  0  0  0  0  0  0
    2.2409   59.5025   72.4555 H   0  0  0  0  0  0  0  0  0  0  0  0
    2.9765   59.1280   74.6115 H   0  0  0  0  0  0  0  0  0  0  0  0
    4.1697   57.9006   74.0233 H   0  0  0  0  0  0  0  0  0  0  0  0
    4.8071   60.5178   74.6239 H   0  0  0  0  0  0  0  0  0  0  0  0
    5.7145   59.4639   73.4513 H   0  0  0  0  0  0  0  0  0  0  0  0
    3.8252   60.8812   70.5646 H   0  0  0  0  0  0  0  0  0  0  0  0
    5.4570   60.1338   70.8970 H   0  0  0  0  0  0  0  0  0  0  0  0
    4.5825   58.0812   71.3418 H   0  0  0  0  0  0  0  0  0  0  0  0
    3.1822   58.6845   70.3808 H   0  0  0  0  0  0  0  0  0  0  0  0
    3.0615   60.8203   74.8310 H   0  0  0  0  0  0  0  0  0  0  0  0
   -0.8741   64.3185   71.0653 H   0  0  0  0  0  0  0  0  0  0  0  0
   -0.1238   64.9163   72.5436 H   0  0  0  0  0  0  0  0  0  0  0  0
   -0.6255   66.5173   70.3009 H   0  0  0  0  0  0  0  0  0  0  0  0
    0.6421   66.9120   71.4519 H   0  0  0  0  0  0  0  0  0  0  0  0
    0.8505   65.3667   68.8015 H   0  0  0  0  0  0  0  0  0  0  0  0
    1.8914   66.6625   69.3372 H   0  0  0  0  0  0  0  0  0  0  0  0
    2.7229   64.1210   69.6778 H   0  0  0  0  0  0  0  0  0  0  0  0
    2.9768   65.1999   71.0327 H   0  0  0  0  0  0  0  0  0  0  0  0
    1.3189   60.5395   76.8061 H   0  0  0  0  0  0  0  0  0  0  0  0
    2.3229   61.9858   76.7778 H   0  0  0  0  0  0  0  0  0  0  0  0
    0.2405   61.6366   78.5850 H   0  0  0  0  0  0  0  0  0  0  0  0
    0.7115   63.2438   78.0599 H   0  0  0  0  0  0  0  0  0  0  0  0
   -1.5165   61.4267   76.9564 H   0  0  0  0  0  0  0  0  0  0  0  0
   -1.6680   63.1127   77.3880 H   0  0  0  0  0  0  0  0  0  0  0  0
   -1.2752   62.4499   74.7924 H   0  0  0  0  0  0  0  0  0  0  0  0
   -0.3779   63.8282   75.3946 H   0  0  0  0  0  0  0  0  0  0  0  0
   -5.8215   62.7742   74.5466 H   0  0  0  0  0  0  0  0  0  0  0  0
   -3.7239   62.1120   75.4770 H   0  0  0  0  0  0  0  0  0  0  0  0
   -7.6068   58.9122   75.8078 H   0  0  0  0  0  0  0  0  0  0  0  0
   -5.1341   57.9360   77.9307 H   0  0  0  0  0  0  0  0  0  0  0  0
   -6.3774   57.3017   76.7967 H   0  0  0  0  0  0  0  0  0  0  0  0
   -4.1868   56.0971   76.6418 H   0  0  0  0  0  0  0  0  0  0  0  0
   -4.6934   56.9136   75.0949 H   0  0  0  0  0  0  0  0  0  0  0  0
   -2.5934   57.8865   77.0835 H   0  0  0  0  0  0  0  0  0  0  0  0
   -2.5669   60.7450   74.1913 H   0  0  0  0  0  0  0  0  0  0  0  0
   -1.4802   58.6273   72.9690 H   0  0  0  0  0  0  0  0  0  0  0  0
   -0.3434   59.6986   73.8966 H   0  0  0  0  0  0  0  0  0  0  0  0
   -2.6772   56.8241   74.3188 H   0  0  0  0  0  0  0  0  0  0  0  0
   -1.2891   55.7523   76.7927 H   0  0  0  0  0  0  0  0  0  0  0  0
   -2.2366   54.8708   75.5991 H   0  0  0  0  0  0  0  0  0  0  0  0
    0.6365   55.2240   75.5960 H   0  0  0  0  0  0  0  0  0  0  0  0
   -0.3179   56.6063   73.0330 H   0  0  0  0  0  0  0  0  0  0  0  0
   -0.3777   53.2842   74.6795 H   0  0  0  0  0  0  0  0  0  0  0  0
   -1.2015   54.2465   73.4059 H   0  0  0  0  0  0  0  0  0  0  0  0
    0.5891   54.1027   73.4059 H   0  0  0  0  0  0  0  0  0  0  0  0
   -0.4748   57.9790   76.9789 H   0  0  0  0  0  0  0  0  0  0  0  0
    1.0577   57.9039   76.0449 H   0  0  0  0  0  0  0  0  0  0  0  0
    0.0788   59.4100   76.0449 H   0  0  0  0  0  0  0  0  0  0  0  0
   -4.5054   59.8948   78.3896 H   0  0  0  0  0  0  0  0  0  0  0  0
   -2.8171   60.1283   77.8224 H   0  0  0  0  0  0  0  0  0  0  0  0
   -3.9639   61.5109   77.8224 H   0  0  0  0  0  0  0  0  0  0  0  0
  2  1  1  0
  3  2  1  0
  4  3  1  0
  5  4  1  0
  6  5  1  0
  7  2  1  0
  7  6  1  0
  8  5  1  0
  9  8  2  0
 10  9  1  0
 11 10  2  0
 12 11  1  0
 13 12  2  0
 13  8  1  0
 14 12  1  0
 15 14  1  0
 16 15  1  0
 17 16  1  0
 18 17  1  0
 18 14  1  0
 19 10  1  0
 20 19  1  0
 21 20  1  0
 22 21  1  0
 23 22  1  0
 23 19  1  0
 24  1  1  0
 25 24  2  0
 27 26  2  0
 28 27  1  0
 29 28  2  0
 30 29  1  0
 31 30  1  0
 32 27  1  0
 32 31  2  0
 33 31  1  0
 34 33  1  0
 35 34  1  0
 36 35  1  0
 36 30  1  0
 37 36  2  0
 38 37  1  0
 39 38  1  0
 40 39  1  0
 40 35  1  0
 41 40  1  0
 42 41  1  0
 43 39  1  0
 43 24  1  0
 43 42  1  0
 44 42  1  0
 39 45  1  1
 30 46  1  1
  1 47  1  0
  1 48  1  0
  2 49  1  0
  3 50  1  0
  3 51  1  0
  4 52  1  0
  4 53  1  0
  6 54  1  0
  6 55  1  0
  7 56  1  0
  7 57  1  0
  9 58  1  0
 15 59  1  0
 15 60  1  0
 16 61  1  0
 16 62  1  0
 17 63  1  0
 17 64  1  0
 18 65  1  0
 18 66  1  0
 20 67  1  0
 20 68  1  0
 21 69  1  0
 21 70  1  0
 22 71  1  0
 22 72  1  0
 23 73  1  0
 23 74  1  0
 28 75  1  0
 29 76  1  0
 32 77  1  0
 33 78  1  0
 33 79  1  0
 34 80  1  0
 34 81  1  0
 35 82  1  1
 37 83  1  0
 38 84  1  0
 38 85  1  0
 40 86  1  6
 41 87  1  0
 41 88  1  0
 42 89  1  1
 43 90  1  6
 44 91  1  0
 44 92  1  0
 44 93  1  0
 45 94  1  0
 45 95  1  0
 45 96  1  0
 46 97  1  0
 46 98  1  0
 46 99  1  0
M  CHG  1   2   1
M  END
>  <score>  (9) 
-8.758

$$$$
