=
     RDKit          3D

 29 31  0  0  0  0  0  0  0  0999 V2000
    1.1280   69.0400   67.1740 O   0  0  0  0  0  0  0  0  0  0  0  0
    2.2980   69.3580   67.2020 C   0  0  0  0  0  0  0  0  0  0  0  0
    3.0410   69.9230   68.4370 C   0  0  0  0  0  0  0  0  0  0  0  0
    2.5890   70.1130   69.5420 O   0  0  0  0  0  0  0  0  0  0  0  0
    4.4090   70.1750   67.9880 C   0  0  0  0  0  0  0  0  0  0  0  0
    4.4840   69.8020   66.6460 C   0  0  0  0  0  0  0  0  0  0  0  0
    3.2470   69.3140   66.1920 N   0  0  0  0  0  0  0  0  0  0  0  0
    5.6750   69.9360   65.9570 C   0  0  0  0  0  0  0  0  0  0  0  0
    6.7800   70.4530   66.6470 C   0  0  0  0  0  0  0  0  0  0  0  0
    6.6860   70.8230   68.0020 C   0  0  0  0  0  0  0  0  0  0  0  0
    5.4820   70.6860   68.6930 C   0  0  0  0  0  0  0  0  0  0  0  0
    2.9570   68.8940   64.8400 C   0  0  0  0  0  0  0  0  0  0  0  0
    3.3240   67.4500   64.5820 C   0  0  0  0  0  0  0  0  0  0  0  0
    2.5260   66.4080   65.0760 C   0  0  0  0  0  0  0  0  0  0  0  0
    2.8710   65.0770   64.8360 C   0  0  0  0  0  0  0  0  0  0  0  0
    4.0140   64.7730   64.0990 C   0  0  0  0  0  0  0  0  0  0  0  0
    4.8100   65.7990   63.5960 C   0  0  0  0  0  0  0  0  0  0  0  0
    4.4670   67.1300   63.8340 C   0  0  0  0  0  0  0  0  0  0  0  0
    5.7531   69.6456   64.8989 H   0  0  0  0  0  0  0  0  0  0  0  0
    7.7383   70.5718   66.1201 H   0  0  0  0  0  0  0  0  0  0  0  0
    7.5696   71.2236   68.5204 H   0  0  0  0  0  0  0  0  0  0  0  0
    5.3908   70.9718   69.7513 H   0  0  0  0  0  0  0  0  0  0  0  0
    1.8799   69.0208   64.6563 H   0  0  0  0  0  0  0  0  0  0  0  0
    3.5630   69.5150   64.1638 H   0  0  0  0  0  0  0  0  0  0  0  0
    1.6215   66.6413   65.6569 H   0  0  0  0  0  0  0  0  0  0  0  0
    2.2396   64.2666   65.2293 H   0  0  0  0  0  0  0  0  0  0  0  0
    4.2872   63.7235   63.9147 H   0  0  0  0  0  0  0  0  0  0  0  0
    5.7100   65.5597   63.0105 H   0  0  0  0  0  0  0  0  0  0  0  0
    5.0983   67.9359   63.4316 H   0  0  0  0  0  0  0  0  0  0  0  0
  2  1  2  0
  3  2  1  0
  4  3  2  0
  5  3  1  0
  6  5  2  0
  7  6  1  0
  7  2  1  0
  8  6  1  0
  9  8  2  0
 10  9  1  0
 11  5  1  0
 11 10  2  0
 12  7  1  0
 13 12  1  0
 14 13  2  0
 15 14  1  0
 16 15  2  0
 17 16  1  0
 18 17  2  0
 18 13  1  0
  8 19  1  0
  9 20  1  0
 10 21  1  0
 11 22  1  0
 12 23  1  0
 12 24  1  0
 14 25  1  0
 15 26  1  0
 16 27  1  0
 17 28  1  0
 18 29  1  0
M  END
>  <score>  (1) 
-9.293

$$$$
=
     RDKit          3D

 29 31  0  0  0  0  0  0  0  0999 V2000
    1.9420   68.1900   64.8100 O   0  0  0  0  0  0  0  0  0  0  0  0
    2.7210   68.7410   65.5580 C   0  0  0  0  0  0  0  0  0  0  0  0
    4.2530   68.8260   65.3470 C   0  0  0  0  0  0  0  0  0  0  0  0
    4.8920   68.3840   64.4210 O   0  0  0  0  0  0  0  0  0  0  0  0
    4.7660   69.5570   66.5040 C   0  0  0  0  0  0  0  0  0  0  0  0
    3.6760   69.8810   67.3120 C   0  0  0  0  0  0  0  0  0  0  0  0
    2.4770   69.4090   66.7480 N   0  0  0  0  0  0  0  0  0  0  0  0
    3.8700   70.5800   68.4880 C   0  0  0  0  0  0  0  0  0  0  0  0
    5.1800   70.9420   68.8300 C   0  0  0  0  0  0  0  0  0  0  0  0
    6.2690   70.6080   68.0020 C   0  0  0  0  0  0  0  0  0  0  0  0
    6.0670   69.9020   66.8160 C   0  0  0  0  0  0  0  0  0  0  0  0
    1.1670   69.5220   67.3480 C   0  0  0  0  0  0  0  0  0  0  0  0
    0.7630   68.2830   68.1130 C   0  0  0  0  0  0  0  0  0  0  0  0
   -0.4500   67.6350   67.8400 C   0  0  0  0  0  0  0  0  0  0  0  0
   -0.8200   66.4920   68.5510 C   0  0  0  0  0  0  0  0  0  0  0  0
    0.0200   65.9820   69.5390 C   0  0  0  0  0  0  0  0  0  0  0  0
    1.2320   66.6110   69.8150 C   0  0  0  0  0  0  0  0  0  0  0  0
    1.6030   67.7540   69.1040 C   0  0  0  0  0  0  0  0  0  0  0  0
    3.0216   70.8444   69.1364 H   0  0  0  0  0  0  0  0  0  0  0  0
    5.3609   71.4972   69.7622 H   0  0  0  0  0  0  0  0  0  0  0  0
    7.2871   70.9062   68.2928 H   0  0  0  0  0  0  0  0  0  0  0  0
    6.9063   69.6319   66.1583 H   0  0  0  0  0  0  0  0  0  0  0  0
    1.1704   70.3767   68.0404 H   0  0  0  0  0  0  0  0  0  0  0  0
    0.4408   69.6589   66.5332 H   0  0  0  0  0  0  0  0  0  0  0  0
   -1.1158   68.0306   67.0589 H   0  0  0  0  0  0  0  0  0  0  0  0
   -1.7756   65.9935   68.3311 H   0  0  0  0  0  0  0  0  0  0  0  0
   -0.2738   65.0831   70.1008 H   0  0  0  0  0  0  0  0  0  0  0  0
    1.8966   66.2072   70.5930 H   0  0  0  0  0  0  0  0  0  0  0  0
    2.5630   68.2442   69.3231 H   0  0  0  0  0  0  0  0  0  0  0  0
  2  1  2  0
  3  2  1  0
  4  3  2  0
  5  3  1  0
  6  5  2  0
  7  6  1  0
  7  2  1  0
  8  6  1  0
  9  8  2  0
 10  9  1  0
 11  5  1  0
 11 10  2  0
 12  7  1  0
 13 12  1  0
 14 13  2  0
 15 14  1  0
 16 15  2  0
 17 16  1  0
 18 17  2  0
 18 13  1  0
  8 19  1  0
  9 20  1  0
 10 21  1  0
 11 22  1  0
 12 23  1  0
 12 24  1  0
 14 25  1  0
 15 26  1  0
 16 27  1  0
 17 28  1  0
 18 29  1  0
M  END
>  <score>  (2) 
-8.863

$$$$
=
     RDKit          3D

 29 31  0  0  0  0  0  0  0  0999 V2000
    0.4990   68.6480   67.4850 O   0  0  0  0  0  0  0  0  0  0  0  0
    1.6500   68.8810   67.1820 C   0  0  0  0  0  0  0  0  0  0  0  0
    2.6080   69.8130   67.9640 C   0  0  0  0  0  0  0  0  0  0  0  0
    2.3710   70.4240   68.9800 O   0  0  0  0  0  0  0  0  0  0  0  0
    3.8650   69.7970   67.2170 C   0  0  0  0  0  0  0  0  0  0  0  0
    3.6880   68.9520   66.1210 C   0  0  0  0  0  0  0  0  0  0  0  0
    2.3920   68.4090   66.1100 N   0  0  0  0  0  0  0  0  0  0  0  0
    4.7260   68.7490   65.2310 C   0  0  0  0  0  0  0  0  0  0  0  0
    5.9370   69.4140   65.4690 C   0  0  0  0  0  0  0  0  0  0  0  0
    6.0970   70.2620   66.5810 C   0  0  0  0  0  0  0  0  0  0  0  0
    5.0460   70.4640   67.4770 C   0  0  0  0  0  0  0  0  0  0  0  0
    1.8550   67.5400   65.0880 C   0  0  0  0  0  0  0  0  0  0  0  0
    1.4150   68.2890   63.8510 C   0  0  0  0  0  0  0  0  0  0  0  0
    0.1560   68.9040   63.7970 C   0  0  0  0  0  0  0  0  0  0  0  0
   -0.2470   69.5940   62.6510 C   0  0  0  0  0  0  0  0  0  0  0  0
    0.6040   69.6790   61.5510 C   0  0  0  0  0  0  0  0  0  0  0  0
    1.8610   69.0800   61.5960 C   0  0  0  0  0  0  0  0  0  0  0  0
    2.2650   68.3900   62.7410 C   0  0  0  0  0  0  0  0  0  0  0  0
    4.6054   68.0855   64.3620 H   0  0  0  0  0  0  0  0  0  0  0  0
    6.7775   69.2705   64.7740 H   0  0  0  0  0  0  0  0  0  0  0  0
    7.0588   70.7700   66.7453 H   0  0  0  0  0  0  0  0  0  0  0  0
    5.1535   71.1242   68.3502 H   0  0  0  0  0  0  0  0  0  0  0  0
    2.6302   66.8140   64.8016 H   0  0  0  0  0  0  0  0  0  0  0  0
    0.9667   67.0457   65.5082 H   0  0  0  0  0  0  0  0  0  0  0  0
   -0.5192   68.8427   64.6632 H   0  0  0  0  0  0  0  0  0  0  0  0
   -1.2377   70.0709   62.6170 H   0  0  0  0  0  0  0  0  0  0  0  0
    0.2835   70.2187   60.6477 H   0  0  0  0  0  0  0  0  0  0  0  0
    2.5352   69.1505   60.7297 H   0  0  0  0  0  0  0  0  0  0  0  0
    3.2597   67.9213   62.7721 H   0  0  0  0  0  0  0  0  0  0  0  0
  2  1  2  0
  3  2  1  0
  4  3  2  0
  5  3  1  0
  6  5  2  0
  7  6  1  0
  7  2  1  0
  8  6  1  0
  9  8  2  0
 10  9  1  0
 11  5  1  0
 11 10  2  0
 12  7  1  0
 13 12  1  0
 14 13  2  0
 15 14  1  0
 16 15  2  0
 17 16  1  0
 18 17  2  0
 18 13  1  0
  8 19  1  0
  9 20  1  0
 10 21  1  0
 11 22  1  0
 12 23  1  0
 12 24  1  0
 14 25  1  0
 15 26  1  0
 16 27  1  0
 17 28  1  0
 18 29  1  0
M  END
>  <score>  (3) 
-8.783

$$$$
=
     RDKit          3D

 29 31  0  0  0  0  0  0  0  0999 V2000
    2.0490   67.3100   69.6420 O   0  0  0  0  0  0  0  0  0  0  0  0
    1.0890   67.5510   68.9410 C   0  0  0  0  0  0  0  0  0  0  0  0
   -0.1470   66.6330   68.7730 C   0  0  0  0  0  0  0  0  0  0  0  0
   -0.3510   65.5700   69.3130 O   0  0  0  0  0  0  0  0  0  0  0  0
   -1.0200   67.3240   67.8250 C   0  0  0  0  0  0  0  0  0  0  0  0
   -0.3900   68.5160   67.4700 C   0  0  0  0  0  0  0  0  0  0  0  0
    0.8410   68.6510   68.1340 N   0  0  0  0  0  0  0  0  0  0  0  0
   -0.9960   69.3780   66.5740 C   0  0  0  0  0  0  0  0  0  0  0  0
   -2.2420   69.0110   66.0480 C   0  0  0  0  0  0  0  0  0  0  0  0
   -2.8630   67.8030   66.4190 C   0  0  0  0  0  0  0  0  0  0  0  0
   -2.2480   66.9370   67.3230 C   0  0  0  0  0  0  0  0  0  0  0  0
    1.7760   69.7380   67.9560 C   0  0  0  0  0  0  0  0  0  0  0  0
    2.8240   69.4460   66.9060 C   0  0  0  0  0  0  0  0  0  0  0  0
    2.4790   68.7990   65.7100 C   0  0  0  0  0  0  0  0  0  0  0  0
    3.4500   68.5300   64.7440 C   0  0  0  0  0  0  0  0  0  0  0  0
    4.7750   68.9070   64.9610 C   0  0  0  0  0  0  0  0  0  0  0  0
    5.1290   69.5570   66.1410 C   0  0  0  0  0  0  0  0  0  0  0  0
    4.1580   69.8270   67.1080 C   0  0  0  0  0  0  0  0  0  0  0  0
   -0.5144   70.3232   66.2830 H   0  0  0  0  0  0  0  0  0  0  0  0
   -2.7440   69.6787   65.3323 H   0  0  0  0  0  0  0  0  0  0  0  0
   -3.8420   67.5399   65.9920 H   0  0  0  0  0  0  0  0  0  0  0  0
   -2.7190   65.9892   67.6227 H   0  0  0  0  0  0  0  0  0  0  0  0
    1.2171   70.6360   67.6539 H   0  0  0  0  0  0  0  0  0  0  0  0
    2.2987   69.8841   68.9128 H   0  0  0  0  0  0  0  0  0  0  0  0
    1.4351   68.5013   65.5321 H   0  0  0  0  0  0  0  0  0  0  0  0
    3.1698   68.0201   63.8105 H   0  0  0  0  0  0  0  0  0  0  0  0
    5.5401   68.6912   64.2007 H   0  0  0  0  0  0  0  0  0  0  0  0
    6.1733   69.8577   66.3113 H   0  0  0  0  0  0  0  0  0  0  0  0
    4.4426   70.3434   68.0367 H   0  0  0  0  0  0  0  0  0  0  0  0
  2  1  2  0
  3  2  1  0
  4  3  2  0
  5  3  1  0
  6  5  2  0
  7  6  1  0
  7  2  1  0
  8  6  1  0
  9  8  2  0
 10  9  1  0
 11  5  1  0
 11 10  2  0
 12  7  1  0
 13 12  1  0
 14 13  2  0
 15 14  1  0
 16 15  2  0
 17 16  1  0
 18 17  2  0
 18 13  1  0
  8 19  1  0
  9 20  1  0
 10 21  1  0
 11 22  1  0
 12 23  1  0
 12 24  1  0
 14 25  1  0
 15 26  1  0
 16 27  1  0
 17 28  1  0
 18 29  1  0
M  END
>  <score>  (4) 
-8.547

$$$$
=
     RDKit          3D

 29 31  0  0  0  0  0  0  0  0999 V2000
    3.7510   70.2690   68.9210 O   0  0  0  0  0  0  0  0  0  0  0  0
    3.6890   69.9090   67.7640 C   0  0  0  0  0  0  0  0  0  0  0  0
    4.8990   69.7520   66.8120 C   0  0  0  0  0  0  0  0  0  0  0  0
    6.0660   69.9410   67.0690 O   0  0  0  0  0  0  0  0  0  0  0  0
    4.3370   69.3220   65.5330 C   0  0  0  0  0  0  0  0  0  0  0  0
    2.9550   69.2250   65.6960 C   0  0  0  0  0  0  0  0  0  0  0  0
    2.5800   69.5600   67.0090 N   0  0  0  0  0  0  0  0  0  0  0  0
    2.1590   68.8360   64.6350 C   0  0  0  0  0  0  0  0  0  0  0  0
    2.7840   68.5500   63.4130 C   0  0  0  0  0  0  0  0  0  0  0  0
    4.1810   68.6530   63.2670 C   0  0  0  0  0  0  0  0  0  0  0  0
    4.9800   69.0460   64.3410 C   0  0  0  0  0  0  0  0  0  0  0  0
    1.2240   69.6190   67.5050 C   0  0  0  0  0  0  0  0  0  0  0  0
    0.7860   68.3340   68.1700 C   0  0  0  0  0  0  0  0  0  0  0  0
    1.5690   67.7420   69.1720 C   0  0  0  0  0  0  0  0  0  0  0  0
    1.1610   66.5550   69.7810 C   0  0  0  0  0  0  0  0  0  0  0  0
   -0.0350   65.9480   69.4000 C   0  0  0  0  0  0  0  0  0  0  0  0
   -0.8260   66.5300   68.4130 C   0  0  0  0  0  0  0  0  0  0  0  0
   -0.4190   67.7180   67.8020 C   0  0  0  0  0  0  0  0  0  0  0  0
    1.0678   68.7533   64.7461 H   0  0  0  0  0  0  0  0  0  0  0  0
    2.1724   68.2396   62.5530 H   0  0  0  0  0  0  0  0  0  0  0  0
    4.6463   68.4215   62.2975 H   0  0  0  0  0  0  0  0  0  0  0  0
    6.0723   69.1323   64.2436 H   0  0  0  0  0  0  0  0  0  0  0  0
    1.1535   70.4358   68.2384 H   0  0  0  0  0  0  0  0  0  0  0  0
    0.5631   69.7867   66.6418 H   0  0  0  0  0  0  0  0  0  0  0  0
    2.5120   68.2173   69.4800 H   0  0  0  0  0  0  0  0  0  0  0  0
    1.7841   66.0971   70.5633 H   0  0  0  0  0  0  0  0  0  0  0  0
   -0.3533   65.0102   69.8787 H   0  0  0  0  0  0  0  0  0  0  0  0
   -1.7717   66.0540   68.1144 H   0  0  0  0  0  0  0  0  0  0  0  0
   -1.0494   68.1748   67.0249 H   0  0  0  0  0  0  0  0  0  0  0  0
  2  1  2  0
  3  2  1  0
  4  3  2  0
  5  3  1  0
  6  5  2  0
  7  6  1  0
  7  2  1  0
  8  6  1  0
  9  8  2  0
 10  9  1  0
 11  5  1  0
 11 10  2  0
 12  7  1  0
 13 12  1  0
 14 13  2  0
 15 14  1  0
 16 15  2  0
 17 16  1  0
 18 17  2  0
 18 13  1  0
  8 19  1  0
  9 20  1  0
 10 21  1  0
 11 22  1  0
 12 23  1  0
 12 24  1  0
 14 25  1  0
 15 26  1  0
 16 27  1  0
 17 28  1  0
 18 29  1  0
M  END
>  <score>  (5) 
-8.516

$$$$
=
     RDKit          3D

 29 31  0  0  0  0  0  0  0  0999 V2000
    0.4700   67.7710   66.9270 O   0  0  0  0  0  0  0  0  0  0  0  0
    0.6020   68.1330   65.7770 C   0  0  0  0  0  0  0  0  0  0  0  0
   -0.5330   68.6800   64.8770 C   0  0  0  0  0  0  0  0  0  0  0  0
   -1.6920   68.8460   65.1780 O   0  0  0  0  0  0  0  0  0  0  0  0
    0.0930   68.9590   63.5860 C   0  0  0  0  0  0  0  0  0  0  0  0
    1.4430   68.6270   63.6950 C   0  0  0  0  0  0  0  0  0  0  0  0
    1.7400   68.1520   64.9850 N   0  0  0  0  0  0  0  0  0  0  0  0
    2.2850   68.7900   62.6110 C   0  0  0  0  0  0  0  0  0  0  0  0
    1.7380   69.2910   61.4220 C   0  0  0  0  0  0  0  0  0  0  0  0
    0.3720   69.6220   61.3310 C   0  0  0  0  0  0  0  0  0  0  0  0
   -0.4730   69.4560   62.4270 C   0  0  0  0  0  0  0  0  0  0  0  0
    3.0280   67.6680   65.4240 C   0  0  0  0  0  0  0  0  0  0  0  0
    3.8790   68.7500   66.0510 C   0  0  0  0  0  0  0  0  0  0  0  0
    3.5380   69.2980   67.2960 C   0  0  0  0  0  0  0  0  0  0  0  0
    4.3260   70.2980   67.8690 C   0  0  0  0  0  0  0  0  0  0  0  0
    5.4640   70.7570   67.2080 C   0  0  0  0  0  0  0  0  0  0  0  0
    5.8180   70.2140   65.9750 C   0  0  0  0  0  0  0  0  0  0  0  0
    5.0310   69.2140   65.4000 C   0  0  0  0  0  0  0  0  0  0  0  0
    3.3526   68.5341   62.6796 H   0  0  0  0  0  0  0  0  0  0  0  0
    2.3869   69.4281   60.5444 H   0  0  0  0  0  0  0  0  0  0  0  0
   -0.0317   70.0151   60.3863 H   0  0  0  0  0  0  0  0  0  0  0  0
   -1.5421   69.7091   62.3721 H   0  0  0  0  0  0  0  0  0  0  0  0
    2.8697   66.8714   66.1659 H   0  0  0  0  0  0  0  0  0  0  0  0
    3.5629   67.2991   64.5364 H   0  0  0  0  0  0  0  0  0  0  0  0
    2.6434   68.9374   67.8248 H   0  0  0  0  0  0  0  0  0  0  0  0
    4.0481   70.7245   68.8441 H   0  0  0  0  0  0  0  0  0  0  0  0
    6.0819   71.5472   67.6595 H   0  0  0  0  0  0  0  0  0  0  0  0
    6.7178   70.5731   65.4541 H   0  0  0  0  0  0  0  0  0  0  0  0
    5.3173   68.7865   64.4278 H   0  0  0  0  0  0  0  0  0  0  0  0
  2  1  2  0
  3  2  1  0
  4  3  2  0
  5  3  1  0
  6  5  2  0
  7  6  1  0
  7  2  1  0
  8  6  1  0
  9  8  2  0
 10  9  1  0
 11  5  1  0
 11 10  2  0
 12  7  1  0
 13 12  1  0
 14 13  2  0
 15 14  1  0
 16 15  2  0
 17 16  1  0
 18 17  2  0
 18 13  1  0
  8 19  1  0
  9 20  1  0
 10 21  1  0
 11 22  1  0
 12 23  1  0
 12 24  1  0
 14 25  1  0
 15 26  1  0
 16 27  1  0
 17 28  1  0
 18 29  1  0
M  END
>  <score>  (6) 
-8.364

$$$$
=
     RDKit          3D

 29 31  0  0  0  0  0  0  0  0999 V2000
    1.3840   69.3190   65.7810 O   0  0  0  0  0  0  0  0  0  0  0  0
    2.0310   68.3640   65.4040 C   0  0  0  0  0  0  0  0  0  0  0  0
    1.5350   66.8970   65.3970 C   0  0  0  0  0  0  0  0  0  0  0  0
    0.4500   66.4870   65.7390 O   0  0  0  0  0  0  0  0  0  0  0  0
    2.6550   66.1090   64.8850 C   0  0  0  0  0  0  0  0  0  0  0  0
    3.6980   66.9940   64.6110 C   0  0  0  0  0  0  0  0  0  0  0  0
    3.3240   68.3160   64.9070 N   0  0  0  0  0  0  0  0  0  0  0  0
    4.8960   66.5180   64.1120 C   0  0  0  0  0  0  0  0  0  0  0  0
    5.0180   65.1380   63.8980 C   0  0  0  0  0  0  0  0  0  0  0  0
    3.9540   64.2600   64.1800 C   0  0  0  0  0  0  0  0  0  0  0  0
    2.7470   64.7450   64.6840 C   0  0  0  0  0  0  0  0  0  0  0  0
    4.1800   69.4750   64.7940 C   0  0  0  0  0  0  0  0  0  0  0  0
    4.8020   69.8770   66.1120 C   0  0  0  0  0  0  0  0  0  0  0  0
    4.0440   69.8780   67.2920 C   0  0  0  0  0  0  0  0  0  0  0  0
    4.6220   70.2520   68.5060 C   0  0  0  0  0  0  0  0  0  0  0  0
    5.9650   70.6250   68.5550 C   0  0  0  0  0  0  0  0  0  0  0  0
    6.7300   70.6210   67.3910 C   0  0  0  0  0  0  0  0  0  0  0  0
    6.1530   70.2470   66.1770 C   0  0  0  0  0  0  0  0  0  0  0  0
    5.7286   67.2016   63.8895 H   0  0  0  0  0  0  0  0  0  0  0  0
    5.9617   64.7339   63.5028 H   0  0  0  0  0  0  0  0  0  0  0  0
    4.0756   63.1815   64.0012 H   0  0  0  0  0  0  0  0  0  0  0  0
    1.9068   64.0723   64.9110 H   0  0  0  0  0  0  0  0  0  0  0  0
    4.9857   69.2482   64.0802 H   0  0  0  0  0  0  0  0  0  0  0  0
    3.5561   70.3145   64.4534 H   0  0  0  0  0  0  0  0  0  0  0  0
    2.9852   69.5816   67.2604 H   0  0  0  0  0  0  0  0  0  0  0  0
    4.0177   70.2526   69.4252 H   0  0  0  0  0  0  0  0  0  0  0  0
    6.4195   70.9220   69.5117 H   0  0  0  0  0  0  0  0  0  0  0  0
    7.7899   70.9129   67.4289 H   0  0  0  0  0  0  0  0  0  0  0  0
    6.7637   70.2423   65.2621 H   0  0  0  0  0  0  0  0  0  0  0  0
  2  1  2  0
  3  2  1  0
  4  3  2  0
  5  3  1  0
  6  5  2  0
  7  6  1  0
  7  2  1  0
  8  6  1  0
  9  8  2  0
 10  9  1  0
 11  5  1  0
 11 10  2  0
 12  7  1  0
 13 12  1  0
 14 13  2  0
 15 14  1  0
 16 15  2  0
 17 16  1  0
 18 17  2  0
 18 13  1  0
  8 19  1  0
  9 20  1  0
 10 21  1  0
 11 22  1  0
 12 23  1  0
 12 24  1  0
 14 25  1  0
 15 26  1  0
 16 27  1  0
 17 28  1  0
 18 29  1  0
M  END
>  <score>  (7) 
-8.205

$$$$
=
     RDKit          3D

 29 31  0  0  0  0  0  0  0  0999 V2000
    4.7220   67.1340   64.2060 O   0  0  0  0  0  0  0  0  0  0  0  0
    3.7770   67.4270   64.9080 C   0  0  0  0  0  0  0  0  0  0  0  0
    2.5810   66.4980   65.2300 C   0  0  0  0  0  0  0  0  0  0  0  0
    2.4160   65.3590   64.8560 O   0  0  0  0  0  0  0  0  0  0  0  0
    1.6940   67.2840   66.0840 C   0  0  0  0  0  0  0  0  0  0  0  0
    2.2860   68.5350   66.2620 C   0  0  0  0  0  0  0  0  0  0  0  0
    3.5120   68.6110   65.5790 N   0  0  0  0  0  0  0  0  0  0  0  0
    1.6570   69.4940   67.0340 C   0  0  0  0  0  0  0  0  0  0  0  0
    0.4260   69.1650   67.6180 C   0  0  0  0  0  0  0  0  0  0  0  0
   -0.1560   67.8970   67.4280 C   0  0  0  0  0  0  0  0  0  0  0  0
    0.4820   66.9330   66.6470 C   0  0  0  0  0  0  0  0  0  0  0  0
    4.3600   69.7790   65.5050 C   0  0  0  0  0  0  0  0  0  0  0  0
    5.0350   70.0990   66.8180 C   0  0  0  0  0  0  0  0  0  0  0  0
    4.2800   70.2960   67.9840 C   0  0  0  0  0  0  0  0  0  0  0  0
    4.9090   70.5920   69.1940 C   0  0  0  0  0  0  0  0  0  0  0  0
    6.2980   70.6920   69.2540 C   0  0  0  0  0  0  0  0  0  0  0  0
    7.0600   70.4900   68.1060 C   0  0  0  0  0  0  0  0  0  0  0  0
    6.4330   70.1930   66.8950 C   0  0  0  0  0  0  0  0  0  0  0  0
    2.1090   70.4854   67.1854 H   0  0  0  0  0  0  0  0  0  0  0  0
   -0.0949   69.9111   68.2361 H   0  0  0  0  0  0  0  0  0  0  0  0
   -1.1222   67.6645   67.8995 H   0  0  0  0  0  0  0  0  0  0  0  0
    0.0402   65.9385   66.4867 H   0  0  0  0  0  0  0  0  0  0  0  0
    5.1357   69.6021   64.7454 H   0  0  0  0  0  0  0  0  0  0  0  0
    3.7206   70.6355   65.2450 H   0  0  0  0  0  0  0  0  0  0  0  0
    3.1836   70.2165   67.9441 H   0  0  0  0  0  0  0  0  0  0  0  0
    4.3076   70.7467   70.1020 H   0  0  0  0  0  0  0  0  0  0  0  0
    6.7919   70.9303   70.2075 H   0  0  0  0  0  0  0  0  0  0  0  0
    8.1564   70.5646   68.1537 H   0  0  0  0  0  0  0  0  0  0  0  0
    7.0404   70.0311   65.9923 H   0  0  0  0  0  0  0  0  0  0  0  0
  2  1  2  0
  3  2  1  0
  4  3  2  0
  5  3  1  0
  6  5  2  0
  7  6  1  0
  7  2  1  0
  8  6  1  0
  9  8  2  0
 10  9  1  0
 11  5  1  0
 11 10  2  0
 12  7  1  0
 13 12  1  0
 14 13  2  0
 15 14  1  0
 16 15  2  0
 17 16  1  0
 18 17  2  0
 18 13  1  0
  8 19  1  0
  9 20  1  0
 10 21  1  0
 11 22  1  0
 12 23  1  0
 12 24  1  0
 14 25  1  0
 15 26  1  0
 16 27  1  0
 17 28  1  0
 18 29  1  0
M  END
>  <score>  (8) 
-7.888

$$$$
=
     RDKit          3D

 29 31  0  0  0  0  0  0  0  0999 V2000
    2.9620   58.1650   71.9110 O   0  0  0  0  0  0  0  0  0  0  0  0
    3.0220   59.2980   71.4810 C   0  0  0  0  0  0  0  0  0  0  0  0
    3.5140   59.6910   70.0670 C   0  0  0  0  0  0  0  0  0  0  0  0
    3.8890   58.9500   69.1880 O   0  0  0  0  0  0  0  0  0  0  0  0
    3.4280   61.1500   70.0160 C   0  0  0  0  0  0  0  0  0  0  0  0
    2.9360   61.5830   71.2470 C   0  0  0  0  0  0  0  0  0  0  0  0
    2.6900   60.4930   72.1000 N   0  0  0  0  0  0  0  0  0  0  0  0
    2.7520   62.9330   71.4820 C   0  0  0  0  0  0  0  0  0  0  0  0
    3.0740   63.8290   70.4540 C   0  0  0  0  0  0  0  0  0  0  0  0
    3.5690   63.3730   69.2170 C   0  0  0  0  0  0  0  0  0  0  0  0
    3.7530   62.0100   68.9850 C   0  0  0  0  0  0  0  0  0  0  0  0
    2.2300   60.5850   73.4670 C   0  0  0  0  0  0  0  0  0  0  0  0
    0.7310   60.4360   73.5930 C   0  0  0  0  0  0  0  0  0  0  0  0
   -0.1300   61.4590   73.1700 C   0  0  0  0  0  0  0  0  0  0  0  0
   -1.5130   61.3170   73.2910 C   0  0  0  0  0  0  0  0  0  0  0  0
   -2.0510   60.1500   73.8320 C   0  0  0  0  0  0  0  0  0  0  0  0
   -1.2070   59.1230   74.2480 C   0  0  0  0  0  0  0  0  0  0  0  0
    0.1760   59.2630   74.1270 C   0  0  0  0  0  0  0  0  0  0  0  0
    2.3646   63.2927   72.4466 H   0  0  0  0  0  0  0  0  0  0  0  0
    2.9376   64.9084   70.6162 H   0  0  0  0  0  0  0  0  0  0  0  0
    3.8127   64.0982   68.4267 H   0  0  0  0  0  0  0  0  0  0  0  0
    4.1392   61.6370   68.0250 H   0  0  0  0  0  0  0  0  0  0  0  0
    2.7126   59.7899   74.0543 H   0  0  0  0  0  0  0  0  0  0  0  0
    2.4953   61.5858   73.8386 H   0  0  0  0  0  0  0  0  0  0  0  0
    0.2882   62.3808   72.7394 H   0  0  0  0  0  0  0  0  0  0  0  0
   -2.1795   62.1267   72.9592 H   0  0  0  0  0  0  0  0  0  0  0  0
   -3.1411   60.0404   73.9302 H   0  0  0  0  0  0  0  0  0  0  0  0
   -1.6311   58.2009   74.6722 H   0  0  0  0  0  0  0  0  0  0  0  0
    0.8371   58.4466   74.4531 H   0  0  0  0  0  0  0  0  0  0  0  0
  2  1  2  0
  3  2  1  0
  4  3  2  0
  5  3  1  0
  6  5  2  0
  7  6  1  0
  7  2  1  0
  8  6  1  0
  9  8  2  0
 10  9  1  0
 11  5  1  0
 11 10  2  0
 12  7  1  0
 13 12  1  0
 14 13  2  0
 15 14  1  0
 16 15  2  0
 17 16  1  0
 18 17  2  0
 18 13  1  0
  8 19  1  0
  9 20  1  0
 10 21  1  0
 11 22  1  0
 12 23  1  0
 12 24  1  0
 14 25  1  0
 15 26  1  0
 16 27  1  0
 17 28  1  0
 18 29  1  0
M  END
>  <score>  (9) 
-7.669

$$$$
