=
     RDKit          3D

 29 30  0  0  0  0  0  0  0  0999 V2000
    2.5820   61.5550   73.7110 C   0  0  0  0  0  0  0  0  0  0  0  0
    3.3470   61.2520   72.4270 C   0  0  2  0  0  0  0  0  0  0  0  0
    2.8000   59.9830   71.7440 C   0  0  0  0  0  0  0  0  0  0  0  0
    3.5930   59.7040   70.4620 C   0  0  0  0  0  0  0  0  0  0  0  0
    4.5890   60.8550   70.2270 C   0  0  2  0  0  0  0  0  0  0  0  0
    5.5920   60.7950   71.3940 C   0  0  0  0  0  0  0  0  0  0  0  0
    4.8550   61.1040   72.7030 C   0  0  0  0  0  0  0  0  0  0  0  0
    3.8300   62.2140   70.2660 C   0  0  0  0  0  0  0  0  0  0  0  0
    3.1550   62.3670   71.5330 O   0  0  0  0  0  0  0  0  0  0  0  0
    2.7600   62.3110   69.1680 C   0  0  0  0  0  0  0  0  0  0  0  0
    4.7780   63.4120   70.1090 C   0  0  0  0  0  0  0  0  0  0  0  0
    3.2099   61.3063   74.5793 H   0  0  0  0  0  0  0  0  0  0  0  0
    2.3229   62.6237   73.7399 H   0  0  0  0  0  0  0  0  0  0  0  0
    1.6614   60.9536   73.7399 H   0  0  0  0  0  0  0  0  0  0  0  0
    2.8988   59.1277   72.4286 H   0  0  0  0  0  0  0  0  0  0  0  0
    1.7400   60.1332   71.4914 H   0  0  0  0  0  0  0  0  0  0  0  0
    4.1423   58.7568   70.5671 H   0  0  0  0  0  0  0  0  0  0  0  0
    2.9038   59.6292   69.6080 H   0  0  0  0  0  0  0  0  0  0  0  0
    5.0918   60.7649   69.2528 H   0  0  0  0  0  0  0  0  0  0  0  0
    6.0345   59.7894   71.4485 H   0  0  0  0  0  0  0  0  0  0  0  0
    6.3916   61.5334   71.2348 H   0  0  0  0  0  0  0  0  0  0  0  0
    5.2426   62.0414   73.1284 H   0  0  0  0  0  0  0  0  0  0  0  0
    5.0161   60.2810   73.4149 H   0  0  0  0  0  0  0  0  0  0  0  0
    1.7664   62.4011   69.6312 H   0  0  0  0  0  0  0  0  0  0  0  0
    2.9548   63.1952   68.5433 H   0  0  0  0  0  0  0  0  0  0  0  0
    2.7926   61.4062   68.5433 H   0  0  0  0  0  0  0  0  0  0  0  0
    5.0701   63.7812   71.1032 H   0  0  0  0  0  0  0  0  0  0  0  0
    5.6757   63.0991   69.5557 H   0  0  0  0  0  0  0  0  0  0  0  0
    4.2671   64.2138   69.5557 H   0  0  0  0  0  0  0  0  0  0  0  0
  2  1  1  1
  3  2  1  0
  4  3  1  0
  5  4  1  0
  6  5  1  0
  7  2  1  0
  7  6  1  0
  8  5  1  0
  9  8  1  0
  9  2  1  0
 10  8  1  0
 11  8  1  0
  1 12  1  0
  1 13  1  0
  1 14  1  0
  3 15  1  0
  3 16  1  0
  4 17  1  0
  4 18  1  0
  5 19  1  6
  6 20  1  0
  6 21  1  0
  7 22  1  0
  7 23  1  0
 10 24  1  0
 10 25  1  0
 10 26  1  0
 11 27  1  0
 11 28  1  0
 11 29  1  0
M  END
>  <score>  (1) 
-6.211

$$$$
=
     RDKit          3D

 29 30  0  0  0  0  0  0  0  0999 V2000
    3.4660   59.3100   69.8630 C   0  0  0  0  0  0  0  0  0  0  0  0
    3.6040   60.8110   70.0990 C   0  0  2  0  0  0  0  0  0  0  0  0
    3.5890   61.5840   68.7660 C   0  0  0  0  0  0  0  0  0  0  0  0
    3.7350   63.0850   69.0370 C   0  0  0  0  0  0  0  0  0  0  0  0
    3.7260   63.3230   70.5600 C   0  0  2  0  0  0  0  0  0  0  0  0
    4.9970   62.6450   71.1040 C   0  0  0  0  0  0  0  0  0  0  0  0
    4.8870   61.1310   70.8890 C   0  0  0  0  0  0  0  0  0  0  0  0
    2.4700   62.6460   71.1830 C   0  0  0  0  0  0  0  0  0  0  0  0
    2.4700   61.2330   70.8820 O   0  0  0  0  0  0  0  0  0  0  0  0
    1.1620   63.2280   70.6270 C   0  0  0  0  0  0  0  0  0  0  0  0
    2.4360   62.7840   72.7120 C   0  0  0  0  0  0  0  0  0  0  0  0
    3.4181   58.7895   70.8309 H   0  0  0  0  0  0  0  0  0  0  0  0
    2.5458   59.1114   69.2940 H   0  0  0  0  0  0  0  0  0  0  0  0
    4.3346   58.9469   69.2940 H   0  0  0  0  0  0  0  0  0  0  0  0
    4.4242   61.2433   68.1365 H   0  0  0  0  0  0  0  0  0  0  0  0
    2.6363   61.3985   68.2484 H   0  0  0  0  0  0  0  0  0  0  0  0
    4.6837   63.4458   68.6129 H   0  0  0  0  0  0  0  0  0  0  0  0
    2.9009   63.6298   68.5707 H   0  0  0  0  0  0  0  0  0  0  0  0
    3.7004   64.3952   70.8043 H   0  0  0  0  0  0  0  0  0  0  0  0
    5.8779   63.0302   70.5695 H   0  0  0  0  0  0  0  0  0  0  0  0
    5.1026   62.8609   72.1774 H   0  0  0  0  0  0  0  0  0  0  0  0
    4.8514   60.6247   71.8649 H   0  0  0  0  0  0  0  0  0  0  0  0
    5.7614   60.7790   70.3220 H   0  0  0  0  0  0  0  0  0  0  0  0
    0.5067   63.5196   71.4610 H   0  0  0  0  0  0  0  0  0  0  0  0
    1.3864   64.1112   70.0109 H   0  0  0  0  0  0  0  0  0  0  0  0
    0.6561   62.4701   70.0109 H   0  0  0  0  0  0  0  0  0  0  0  0
    2.6749   61.8143   73.1731 H   0  0  0  0  0  0  0  0  0  0  0  0
    3.1764   63.5331   73.0291 H   0  0  0  0  0  0  0  0  0  0  0  0
    1.4323   63.1034   73.0291 H   0  0  0  0  0  0  0  0  0  0  0  0
  2  1  1  6
  3  2  1  0
  4  3  1  0
  5  4  1  0
  6  5  1  0
  7  2  1  0
  7  6  1  0
  8  5  1  0
  9  8  1  0
  9  2  1  0
 10  8  1  0
 11  8  1  0
  1 12  1  0
  1 13  1  0
  1 14  1  0
  3 15  1  0
  3 16  1  0
  4 17  1  0
  4 18  1  0
  5 19  1  6
  6 20  1  0
  6 21  1  0
  7 22  1  0
  7 23  1  0
 10 24  1  0
 10 25  1  0
 10 26  1  0
 11 27  1  0
 11 28  1  0
 11 29  1  0
M  END
>  <score>  (2) 
-6.176

$$$$
=
     RDKit          3D

 29 30  0  0  0  0  0  0  0  0999 V2000
    2.8480   63.8990   70.5690 C   0  0  0  0  0  0  0  0  0  0  0  0
    3.4020   62.4870   70.7170 C   0  0  2  0  0  0  0  0  0  0  0  0
    4.9300   62.5100   70.9190 C   0  0  0  0  0  0  0  0  0  0  0  0
    5.4550   61.0770   71.0580 C   0  0  0  0  0  0  0  0  0  0  0  0
    4.2610   60.1040   71.0680 C   0  0  2  0  0  0  0  0  0  0  0  0
    3.6140   60.2090   69.6750 C   0  0  0  0  0  0  0  0  0  0  0  0
    3.0370   61.6190   69.4970 C   0  0  0  0  0  0  0  0  0  0  0  0
    3.2360   60.5520   72.1520 C   0  0  0  0  0  0  0  0  0  0  0  0
    2.7980   61.9030   71.8880 O   0  0  0  0  0  0  0  0  0  0  0  0
    3.8420   60.5400   73.5630 C   0  0  0  0  0  0  0  0  0  0  0  0
    1.9830   59.6640   72.1670 C   0  0  0  0  0  0  0  0  0  0  0  0
    2.6779   64.3325   71.5656 H   0  0  0  0  0  0  0  0  0  0  0  0
    3.5692   64.5199   70.0173 H   0  0  0  0  0  0  0  0  0  0  0  0
    1.8970   63.8638   70.0173 H   0  0  0  0  0  0  0  0  0  0  0  0
    5.4061   62.9912   70.0520 H   0  0  0  0  0  0  0  0  0  0  0  0
    5.1679   63.0750   71.8323 H   0  0  0  0  0  0  0  0  0  0  0  0
    6.1150   60.8422   70.2099 H   0  0  0  0  0  0  0  0  0  0  0  0
    6.0224   60.9785   71.9952 H   0  0  0  0  0  0  0  0  0  0  0  0
    4.5770   59.0746   71.2926 H   0  0  0  0  0  0  0  0  0  0  0  0
    4.3725   60.0206   68.9010 H   0  0  0  0  0  0  0  0  0  0  0  0
    2.8100   59.4641   69.5817 H   0  0  0  0  0  0  0  0  0  0  0  0
    1.9425   61.5575   69.4062 H   0  0  0  0  0  0  0  0  0  0  0  0
    3.4579   62.0729   68.5877 H   0  0  0  0  0  0  0  0  0  0  0  0
    3.0340   60.5560   74.3092 H   0  0  0  0  0  0  0  0  0  0  0  0
    4.4453   59.6297   73.6952 H   0  0  0  0  0  0  0  0  0  0  0  0
    4.4808   61.4257   73.6952 H   0  0  0  0  0  0  0  0  0  0  0  0
    1.6921   59.4579   73.2076 H   0  0  0  0  0  0  0  0  0  0  0  0
    1.1604   60.1818   71.6521 H   0  0  0  0  0  0  0  0  0  0  0  0
    2.1990   58.7163   71.6521 H   0  0  0  0  0  0  0  0  0  0  0  0
  2  1  1  6
  3  2  1  0
  4  3  1  0
  5  4  1  0
  6  5  1  0
  7  2  1  0
  7  6  1  0
  8  5  1  0
  9  8  1  0
  9  2  1  0
 10  8  1  0
 11  8  1  0
  1 12  1  0
  1 13  1  0
  1 14  1  0
  3 15  1  0
  3 16  1  0
  4 17  1  0
  4 18  1  0
  5 19  1  1
  6 20  1  0
  6 21  1  0
  7 22  1  0
  7 23  1  0
 10 24  1  0
 10 25  1  0
 10 26  1  0
 11 27  1  0
 11 28  1  0
 11 29  1  0
M  END
>  <score>  (3) 
-6.144

$$$$
=
     RDKit          3D

 29 30  0  0  0  0  0  0  0  0999 V2000
    4.5240   65.2340   63.9000 C   0  0  0  0  0  0  0  0  0  0  0  0
    3.9920   66.6530   63.7300 C   0  0  2  0  0  0  0  0  0  0  0  0
    2.5580   66.7750   64.2800 C   0  0  0  0  0  0  0  0  0  0  0  0
    2.0520   68.2090   64.0900 C   0  0  0  0  0  0  0  0  0  0  0  0
    3.1940   69.0740   63.5220 C   0  0  2  0  0  0  0  0  0  0  0  0
    3.4920   68.5150   62.1180 C   0  0  0  0  0  0  0  0  0  0  0  0
    4.0380   67.0890   62.2530 C   0  0  0  0  0  0  0  0  0  0  0  0
    4.4560   68.9200   64.4200 C   0  0  0  0  0  0  0  0  0  0  0  0
    4.8460   67.5310   64.4900 O   0  0  0  0  0  0  0  0  0  0  0  0
    4.2050   69.3930   65.8600 C   0  0  0  0  0  0  0  0  0  0  0  0
    5.6580   69.7010   63.8690 C   0  0  0  0  0  0  0  0  0  0  0  0
    4.6113   65.0011   64.9715 H   0  0  0  0  0  0  0  0  0  0  0  0
    3.8312   64.5234   63.4256 H   0  0  0  0  0  0  0  0  0  0  0  0
    5.5132   65.1540   63.4256 H   0  0  0  0  0  0  0  0  0  0  0  0
    1.8987   66.0800   63.7394 H   0  0  0  0  0  0  0  0  0  0  0  0
    2.5567   66.5273   65.3518 H   0  0  0  0  0  0  0  0  0  0  0  0
    1.2044   68.2109   63.3889 H   0  0  0  0  0  0  0  0  0  0  0  0
    1.7225   68.6175   65.0567 H   0  0  0  0  0  0  0  0  0  0  0  0
    2.9201   70.1388   63.4866 H   0  0  0  0  0  0  0  0  0  0  0  0
    2.5670   68.5007   61.5229 H   0  0  0  0  0  0  0  0  0  0  0  0
    4.2354   69.1511   61.6153 H   0  0  0  0  0  0  0  0  0  0  0  0
    5.0779   67.0603   61.8955 H   0  0  0  0  0  0  0  0  0  0  0  0
    3.4216   66.4045   61.6517 H   0  0  0  0  0  0  0  0  0  0  0  0
    4.6007   68.6472   66.5651 H   0  0  0  0  0  0  0  0  0  0  0  0
    4.7106   70.3562   66.0229 H   0  0  0  0  0  0  0  0  0  0  0  0
    3.1239   69.5142   66.0229 H   0  0  0  0  0  0  0  0  0  0  0  0
    6.2570   70.0902   64.7055 H   0  0  0  0  0  0  0  0  0  0  0  0
    6.2783   69.0330   63.2534 H   0  0  0  0  0  0  0  0  0  0  0  0
    5.2996   70.5392   63.2534 H   0  0  0  0  0  0  0  0  0  0  0  0
  2  1  1  6
  3  2  1  0
  4  3  1  0
  5  4  1  0
  6  5  1  0
  7  2  1  0
  7  6  1  0
  8  5  1  0
  9  8  1  0
  9  2  1  0
 10  8  1  0
 11  8  1  0
  1 12  1  0
  1 13  1  0
  1 14  1  0
  3 15  1  0
  3 16  1  0
  4 17  1  0
  4 18  1  0
  5 19  1  6
  6 20  1  0
  6 21  1  0
  7 22  1  0
  7 23  1  0
 10 24  1  0
 10 25  1  0
 10 26  1  0
 11 27  1  0
 11 28  1  0
 11 29  1  0
M  END
>  <score>  (4) 
-5.901

$$$$
=
     RDKit          3D

 29 30  0  0  0  0  0  0  0  0999 V2000
    1.8460   62.2670   73.6250 C   0  0  0  0  0  0  0  0  0  0  0  0
    2.4260   61.9120   72.2600 C   0  0  2  0  0  0  0  0  0  0  0  0
    1.7110   62.6880   71.1370 C   0  0  0  0  0  0  0  0  0  0  0  0
    2.3130   62.3060   69.7800 C   0  0  0  0  0  0  0  0  0  0  0  0
    3.5110   61.3640   70.0100 C   0  0  2  0  0  0  0  0  0  0  0  0
    2.9280   60.0750   70.6200 C   0  0  0  0  0  0  0  0  0  0  0  0
    2.3430   60.3960   72.0000 C   0  0  0  0  0  0  0  0  0  0  0  0
    4.4970   62.0170   71.0230 C   0  0  0  0  0  0  0  0  0  0  0  0
    3.8150   62.2980   72.2660 O   0  0  0  0  0  0  0  0  0  0  0  0
    5.0620   63.3490   70.5060 C   0  0  0  0  0  0  0  0  0  0  0  0
    5.6820   61.0980   71.3540 C   0  0  0  0  0  0  0  0  0  0  0  0
    2.4983   61.8678   74.4156 H   0  0  0  0  0  0  0  0  0  0  0  0
    1.7795   63.3607   73.7220 H   0  0  0  0  0  0  0  0  0  0  0  0
    0.8418   61.8286   73.7220 H   0  0  0  0  0  0  0  0  0  0  0  0
    0.6397   62.4383   71.1450 H   0  0  0  0  0  0  0  0  0  0  0  0
    1.8401   63.7679   71.3015 H   0  0  0  0  0  0  0  0  0  0  0  0
    1.5535   61.7947   69.1704 H   0  0  0  0  0  0  0  0  0  0  0  0
    2.6482   63.2120   69.2538 H   0  0  0  0  0  0  0  0  0  0  0  0
    4.0551   61.1621   69.0756 H   0  0  0  0  0  0  0  0  0  0  0  0
    2.1355   59.6830   69.9656 H   0  0  0  0  0  0  0  0  0  0  0  0
    3.7210   59.3192   70.7193 H   0  0  0  0  0  0  0  0  0  0  0  0
    2.9144   59.8608   72.7727 H   0  0  0  0  0  0  0  0  0  0  0  0
    1.2904   60.0783   72.0320 H   0  0  0  0  0  0  0  0  0  0  0  0
    5.3331   63.9881   71.3592 H   0  0  0  0  0  0  0  0  0  0  0  0
    5.9555   63.1555   69.8943 H   0  0  0  0  0  0  0  0  0  0  0  0
    4.3019   63.8570   69.8943 H   0  0  0  0  0  0  0  0  0  0  0  0
    5.7883   61.0156   72.4457 H   0  0  0  0  0  0  0  0  0  0  0  0
    5.5028   60.1004   70.9267 H   0  0  0  0  0  0  0  0  0  0  0  0
    6.6037   61.5198   70.9267 H   0  0  0  0  0  0  0  0  0  0  0  0
  2  1  1  1
  3  2  1  0
  4  3  1  0
  5  4  1  0
  6  5  1  0
  7  2  1  0
  7  6  1  0
  8  5  1  0
  9  8  1  0
  9  2  1  0
 10  8  1  0
 11  8  1  0
  1 12  1  0
  1 13  1  0
  1 14  1  0
  3 15  1  0
  3 16  1  0
  4 17  1  0
  4 18  1  0
  5 19  1  6
  6 20  1  0
  6 21  1  0
  7 22  1  0
  7 23  1  0
 10 24  1  0
 10 25  1  0
 10 26  1  0
 11 27  1  0
 11 28  1  0
 11 29  1  0
M  END
>  <score>  (5) 
-5.888

$$$$
=
     RDKit          3D

 29 30  0  0  0  0  0  0  0  0999 V2000
    2.6840   68.8310   61.2510 C   0  0  0  0  0  0  0  0  0  0  0  0
    3.0760   68.4990   62.6870 C   0  0  2  0  0  0  0  0  0  0  0  0
    2.0360   69.0460   63.6850 C   0  0  0  0  0  0  0  0  0  0  0  0
    2.4620   68.7000   65.1160 C   0  0  0  0  0  0  0  0  0  0  0  0
    3.7240   67.8180   65.0650 C   0  0  2  0  0  0  0  0  0  0  0  0
    4.8360   68.7000   64.4700 C   0  0  0  0  0  0  0  0  0  0  0  0
    4.4770   69.0460   63.0200 C   0  0  0  0  0  0  0  0  0  0  0  0
    3.4690   66.6010   64.1270 C   0  0  0  0  0  0  0  0  0  0  0  0
    3.1080   67.0630   62.8070 O   0  0  0  0  0  0  0  0  0  0  0  0
    2.3180   65.7150   64.6270 C   0  0  0  0  0  0  0  0  0  0  0  0
    4.7150   65.7160   63.9740 C   0  0  0  0  0  0  0  0  0  0  0  0
    1.8446   69.5419   61.2551 H   0  0  0  0  0  0  0  0  0  0  0  0
    3.5428   69.2806   60.7311 H   0  0  0  0  0  0  0  0  0  0  0  0
    2.3819   67.9099   60.7311 H   0  0  0  0  0  0  0  0  0  0  0  0
    1.9661   70.1386   63.5783 H   0  0  0  0  0  0  0  0  0  0  0  0
    1.0564   68.5912   63.4764 H   0  0  0  0  0  0  0  0  0  0  0  0
    2.6809   69.6251   65.6694 H   0  0  0  0  0  0  0  0  0  0  0  0
    1.6507   68.1583   65.6243 H   0  0  0  0  0  0  0  0  0  0  0  0
    3.9954   67.4383   66.0611 H   0  0  0  0  0  0  0  0  0  0  0  0
    4.9272   69.6251   65.0581 H   0  0  0  0  0  0  0  0  0  0  0  0
    5.7935   68.1591   64.4967 H   0  0  0  0  0  0  0  0  0  0  0  0
    5.2164   68.5941   62.3425 H   0  0  0  0  0  0  0  0  0  0  0  0
    4.4805   70.1389   62.8948 H   0  0  0  0  0  0  0  0  0  0  0  0
    2.3108   65.7094   65.7270 H   0  0  0  0  0  0  0  0  0  0  0  0
    1.3617   66.1123   64.2560 H   0  0  0  0  0  0  0  0  0  0  0  0
    2.4574   64.6889   64.2560 H   0  0  0  0  0  0  0  0  0  0  0  0
    5.0967   65.4449   64.9694 H   0  0  0  0  0  0  0  0  0  0  0  0
    4.4502   64.8024   63.4215 H   0  0  0  0  0  0  0  0  0  0  0  0
    5.4904   66.2669   63.4215 H   0  0  0  0  0  0  0  0  0  0  0  0
  2  1  1  6
  3  2  1  0
  4  3  1  0
  5  4  1  0
  6  5  1  0
  7  2  1  0
  7  6  1  0
  8  5  1  0
  9  8  1  0
  9  2  1  0
 10  8  1  0
 11  8  1  0
  1 12  1  0
  1 13  1  0
  1 14  1  0
  3 15  1  0
  3 16  1  0
  4 17  1  0
  4 18  1  0
  5 19  1  1
  6 20  1  0
  6 21  1  0
  7 22  1  0
  7 23  1  0
 10 24  1  0
 10 25  1  0
 10 26  1  0
 11 27  1  0
 11 28  1  0
 11 29  1  0
M  END
>  <score>  (6) 
-5.655

$$$$
=
     RDKit          3D

 29 30  0  0  0  0  0  0  0  0999 V2000
   -2.1320   66.9010   67.3030 C   0  0  0  0  0  0  0  0  0  0  0  0
   -0.7380   67.5180   67.3360 C   0  0  2  0  0  0  0  0  0  0  0  0
    0.0870   66.9590   68.5120 C   0  0  0  0  0  0  0  0  0  0  0  0
    1.4780   67.6030   68.5190 C   0  0  0  0  0  0  0  0  0  0  0  0
    1.6220   68.5020   67.2760 C   0  0  2  0  0  0  0  0  0  0  0  0
    0.6010   69.6420   67.4560 C   0  0  0  0  0  0  0  0  0  0  0  0
   -0.8140   69.0550   67.4190 C   0  0  0  0  0  0  0  0  0  0  0  0
    1.2670   67.6840   66.0000 C   0  0  0  0  0  0  0  0  0  0  0  0
   -0.0760   67.1610   66.1060 O   0  0  0  0  0  0  0  0  0  0  0  0
    2.2050   66.4840   65.8010 C   0  0  0  0  0  0  0  0  0  0  0  0
    1.3200   68.5420   64.7280 C   0  0  0  0  0  0  0  0  0  0  0  0
   -2.4877   66.7435   68.3319 H   0  0  0  0  0  0  0  0  0  0  0  0
   -2.8205   67.5785   66.7766 H   0  0  0  0  0  0  0  0  0  0  0  0
   -2.0934   65.9359   66.7766 H   0  0  0  0  0  0  0  0  0  0  0  0
   -0.4256   67.1854   69.4586 H   0  0  0  0  0  0  0  0  0  0  0  0
    0.1903   65.8697   68.3994 H   0  0  0  0  0  0  0  0  0  0  0  0
    1.5988   68.2096   69.4286 H   0  0  0  0  0  0  0  0  0  0  0  0
    2.2499   66.8195   68.5019 H   0  0  0  0  0  0  0  0  0  0  0  0
    2.6469   68.8864   67.1678 H   0  0  0  0  0  0  0  0  0  0  0  0
    0.7692   70.1384   68.4231 H   0  0  0  0  0  0  0  0  0  0  0  0
    0.7193   70.3779   66.6471 H   0  0  0  0  0  0  0  0  0  0  0  0
   -1.3475   69.4426   66.5386 H   0  0  0  0  0  0  0  0  0  0  0  0
   -1.3517   69.3438   68.3342 H   0  0  0  0  0  0  0  0  0  0  0  0
    2.5116   66.0917   66.7818 H   0  0  0  0  0  0  0  0  0  0  0  0
    1.6799   65.6974   65.2393 H   0  0  0  0  0  0  0  0  0  0  0  0
    3.0952   66.8036   65.2393 H   0  0  0  0  0  0  0  0  0  0  0  0
    1.3856   69.6045   65.0049 H   0  0  0  0  0  0  0  0  0  0  0  0
    2.2026   68.2627   64.1338 H   0  0  0  0  0  0  0  0  0  0  0  0
    0.4097   68.3735   64.1338 H   0  0  0  0  0  0  0  0  0  0  0  0
  2  1  1  6
  3  2  1  0
  4  3  1  0
  5  4  1  0
  6  5  1  0
  7  2  1  0
  7  6  1  0
  8  5  1  0
  9  8  1  0
  9  2  1  0
 10  8  1  0
 11  8  1  0
  1 12  1  0
  1 13  1  0
  1 14  1  0
  3 15  1  0
  3 16  1  0
  4 17  1  0
  4 18  1  0
  5 19  1  6
  6 20  1  0
  6 21  1  0
  7 22  1  0
  7 23  1  0
 10 24  1  0
 10 25  1  0
 10 26  1  0
 11 27  1  0
 11 28  1  0
 11 29  1  0
M  END
>  <score>  (7) 
-5.585

$$$$
=
     RDKit          3D

 29 30  0  0  0  0  0  0  0  0999 V2000
    4.8260   69.7550   65.6640 C   0  0  0  0  0  0  0  0  0  0  0  0
    4.0920   68.6800   64.8690 C   0  0  2  0  0  0  0  0  0  0  0  0
    3.0220   67.9860   65.7340 C   0  0  0  0  0  0  0  0  0  0  0  0
    2.3080   66.9100   64.9090 C   0  0  0  0  0  0  0  0  0  0  0  0
    2.8210   66.9680   63.4570 C   0  0  2  0  0  0  0  0  0  0  0  0
    4.3080   66.5730   63.5150 C   0  0  0  0  0  0  0  0  0  0  0  0
    5.0780   67.6410   64.3020 C   0  0  0  0  0  0  0  0  0  0  0  0
    2.6910   68.4240   62.9200 C   0  0  0  0  0  0  0  0  0  0  0  0
    3.4320   69.3310   63.7650 O   0  0  0  0  0  0  0  0  0  0  0  0
    1.2340   68.9090   62.9040 C   0  0  0  0  0  0  0  0  0  0  0  0
    3.2530   68.5690   61.4970 C   0  0  0  0  0  0  0  0  0  0  0  0
    4.6976   69.5670   66.7402 H   0  0  0  0  0  0  0  0  0  0  0  0
    5.8966   69.7302   65.4126 H   0  0  0  0  0  0  0  0  0  0  0  0
    4.4131   70.7431   65.4126 H   0  0  0  0  0  0  0  0  0  0  0  0
    3.5034   67.5187   66.6057 H   0  0  0  0  0  0  0  0  0  0  0  0
    2.2878   68.7319   66.0726 H   0  0  0  0  0  0  0  0  0  0  0  0
    2.5189   65.9181   65.3352 H   0  0  0  0  0  0  0  0  0  0  0  0
    1.2226   67.0874   64.9269 H   0  0  0  0  0  0  0  0  0  0  0  0
    2.2488   66.3007   62.7957 H   0  0  0  0  0  0  0  0  0  0  0  0
    4.4117   65.5993   64.0161 H   0  0  0  0  0  0  0  0  0  0  0  0
    4.7129   66.4989   62.4949 H   0  0  0  0  0  0  0  0  0  0  0  0
    5.7936   68.1426   63.6339 H   0  0  0  0  0  0  0  0  0  0  0  0
    5.6197   67.1625   65.1312 H   0  0  0  0  0  0  0  0  0  0  0  0
    0.8759   69.0282   63.9372 H   0  0  0  0  0  0  0  0  0  0  0  0
    1.1749   69.8753   62.3817 H   0  0  0  0  0  0  0  0  0  0  0  0
    0.6076   68.1709   62.3817 H   0  0  0  0  0  0  0  0  0  0  0  0
    4.3169   68.8435   61.5492 H   0  0  0  0  0  0  0  0  0  0  0  0
    3.1465   67.6140   60.9616 H   0  0  0  0  0  0  0  0  0  0  0  0
    2.6978   69.3533   60.9616 H   0  0  0  0  0  0  0  0  0  0  0  0
  2  1  1  1
  3  2  1  0
  4  3  1  0
  5  4  1  0
  6  5  1  0
  7  2  1  0
  7  6  1  0
  8  5  1  0
  9  8  1  0
  9  2  1  0
 10  8  1  0
 11  8  1  0
  1 12  1  0
  1 13  1  0
  1 14  1  0
  3 15  1  0
  3 16  1  0
  4 17  1  0
  4 18  1  0
  5 19  1  6
  6 20  1  0
  6 21  1  0
  7 22  1  0
  7 23  1  0
 10 24  1  0
 10 25  1  0
 10 26  1  0
 11 27  1  0
 11 28  1  0
 11 29  1  0
M  END
>  <score>  (8) 
-5.517

$$$$
=
     RDKit          3D

 29 30  0  0  0  0  0  0  0  0999 V2000
    1.5720   69.0160   61.9810 C   0  0  0  0  0  0  0  0  0  0  0  0
    2.5160   68.3230   62.9580 C   0  0  2  0  0  0  0  0  0  0  0  0
    3.6620   67.6140   62.2100 C   0  0  0  0  0  0  0  0  0  0  0  0
    4.5880   66.9250   63.2180 C   0  0  0  0  0  0  0  0  0  0  0  0
    4.1260   67.2750   64.6460 C   0  0  2  0  0  0  0  0  0  0  0  0
    2.7340   66.6390   64.8110 C   0  0  0  0  0  0  0  0  0  0  0  0
    1.7560   67.3200   63.8460 C   0  0  0  0  0  0  0  0  0  0  0  0
    4.0100   68.8210   64.7880 C   0  0  0  0  0  0  0  0  0  0  0  0
    3.0870   69.3400   63.8050 O   0  0  0  0  0  0  0  0  0  0  0  0
    5.3550   69.5270   64.5620 C   0  0  0  0  0  0  0  0  0  0  0  0
    3.4830   69.2390   66.1690 C   0  0  0  0  0  0  0  0  0  0  0  0
    0.8095   69.5758   62.5425 H   0  0  0  0  0  0  0  0  0  0  0  0
    2.1443   69.7100   61.3479 H   0  0  0  0  0  0  0  0  0  0  0  0
    1.0813   68.2620   61.3479 H   0  0  0  0  0  0  0  0  0  0  0  0
    3.2420   66.8620   61.5259 H   0  0  0  0  0  0  0  0  0  0  0  0
    4.2362   68.3559   61.6357 H   0  0  0  0  0  0  0  0  0  0  0  0
    4.5448   65.8354   63.0733 H   0  0  0  0  0  0  0  0  0  0  0  0
    5.6220   67.2690   63.0676 H   0  0  0  0  0  0  0  0  0  0  0  0
    4.8331   66.9077   65.4043 H   0  0  0  0  0  0  0  0  0  0  0  0
    2.7900   65.5646   64.5820 H   0  0  0  0  0  0  0  0  0  0  0  0
    2.3861   66.7699   65.8463 H   0  0  0  0  0  0  0  0  0  0  0  0
    0.9853   67.8528   64.4222 H   0  0  0  0  0  0  0  0  0  0  0  0
    1.2815   66.5578   63.2105 H   0  0  0  0  0  0  0  0  0  0  0  0
    5.8113   69.7665   65.5338 H   0  0  0  0  0  0  0  0  0  0  0  0
    6.0260   68.8648   63.9951 H   0  0  0  0  0  0  0  0  0  0  0  0
    5.1911   70.4553   63.9951 H   0  0  0  0  0  0  0  0  0  0  0  0
    4.0877   68.7594   66.9528 H   0  0  0  0  0  0  0  0  0  0  0  0
    3.5501   70.3321   66.2716 H   0  0  0  0  0  0  0  0  0  0  0  0
    2.4338   68.9248   66.2716 H   0  0  0  0  0  0  0  0  0  0  0  0
  2  1  1  6
  3  2  1  0
  4  3  1  0
  5  4  1  0
  6  5  1  0
  7  2  1  0
  7  6  1  0
  8  5  1  0
  9  8  1  0
  9  2  1  0
 10  8  1  0
 11  8  1  0
  1 12  1  0
  1 13  1  0
  1 14  1  0
  3 15  1  0
  3 16  1  0
  4 17  1  0
  4 18  1  0
  5 19  1  1
  6 20  1  0
  6 21  1  0
  7 22  1  0
  7 23  1  0
 10 24  1  0
 10 25  1  0
 10 26  1  0
 11 27  1  0
 11 28  1  0
 11 29  1  0
M  END
>  <score>  (9) 
-5.389

$$$$
