=
     RDKit          3D

 42 44  0  0  0  0  0  0  0  0999 V2000
   -0.2620   68.3000   65.6100 C   0  0  0  0  0  0  0  0  0  0  0  0
   -1.5840   68.7540   65.6750 C   0  0  0  0  0  0  0  0  0  0  0  0
   -2.4040   68.3480   66.7260 C   0  0  0  0  0  0  0  0  0  0  0  0
   -1.9070   67.4930   67.7100 C   0  0  0  0  0  0  0  0  0  0  0  0
   -0.5870   67.0240   67.6550 C   0  0  0  0  0  0  0  0  0  0  0  0
    0.2310   67.4330   66.6000 C   0  0  0  0  0  0  0  0  0  0  0  0
   -0.1720   66.1660   68.6970 N   0  0  0  0  0  0  0  0  0  0  0  0
    0.8140   66.4030   69.6370 C   0  0  0  0  0  0  0  0  0  0  0  0
    1.5520   67.3770   69.7020 O   0  0  0  0  0  0  0  0  0  0  0  0
    0.9970   65.3160   70.6410 C   0  0  0  0  0  0  0  0  0  0  0  0
    0.1020   65.1330   71.7020 C   0  0  0  0  0  0  0  0  0  0  0  0
    0.3140   64.1040   72.6260 C   0  0  0  0  0  0  0  0  0  0  0  0
    1.4220   63.2480   72.5030 C   0  0  0  0  0  0  0  0  0  0  0  0
    2.3270   63.4570   71.4510 C   0  0  0  0  0  0  0  0  0  0  0  0
    2.1180   64.4850   70.5280 C   0  0  0  0  0  0  0  0  0  0  0  0
    1.6590   62.1540   73.5160 C   0  0  0  0  0  0  0  0  0  0  0  0
    2.9790   61.8620   73.6790 F   0  0  0  0  0  0  0  0  0  0  0  0
    1.1910   62.4610   74.7590 F   0  0  0  0  0  0  0  0  0  0  0  0
    1.0570   60.9850   73.1670 F   0  0  0  0  0  0  0  0  0  0  0  0
    0.3610   69.6000   63.7130 O   0  0  0  0  0  0  0  0  0  0  0  0
    0.6460   68.7120   64.5070 C   0  0  0  0  0  0  0  0  0  0  0  0
    1.9800   68.0290   64.3560 C   0  0  0  0  0  0  0  0  0  0  0  0
    2.0390   66.9330   63.8120 O   0  0  0  0  0  0  0  0  0  0  0  0
    3.1730   68.7400   64.8660 C   0  0  0  0  0  0  0  0  0  0  0  0
    3.2480   69.0710   66.2130 C   0  0  0  0  0  0  0  0  0  0  0  0
    4.3900   69.7230   66.6690 C   0  0  0  0  0  0  0  0  0  0  0  0
    5.4110   70.0150   65.7700 C   0  0  0  0  0  0  0  0  0  0  0  0
    5.2530   69.6360   64.4470 C   0  0  0  0  0  0  0  0  0  0  0  0
    4.1620   68.9960   63.9730 N   0  0  0  0  0  0  0  0  0  0  0  0
   -1.9746   69.4290   64.8992 H   0  0  0  0  0  0  0  0  0  0  0  0
   -3.4441   68.7020   66.7798 H   0  0  0  0  0  0  0  0  0  0  0  0
   -2.5592   67.1829   68.5397 H   0  0  0  0  0  0  0  0  0  0  0  0
    1.2692   67.0739   66.5433 H   0  0  0  0  0  0  0  0  0  0  0  0
   -0.6590   65.2609   68.7645 H   0  0  0  0  0  0  0  0  0  0  0  0
   -0.7676   65.7981   71.8091 H   0  0  0  0  0  0  0  0  0  0  0  0
   -0.3933   63.9636   73.4567 H   0  0  0  0  0  0  0  0  0  0  0  0
    3.2082   62.8061   71.3522 H   0  0  0  0  0  0  0  0  0  0  0  0
    2.8365   64.6418   69.7100 H   0  0  0  0  0  0  0  0  0  0  0  0
    2.4262   68.8242   66.9013 H   0  0  0  0  0  0  0  0  0  0  0  0
    4.4843   70.0043   67.7282 H   0  0  0  0  0  0  0  0  0  0  0  0
    6.3220   70.5345   66.1019 H   0  0  0  0  0  0  0  0  0  0  0  0
    6.0635   69.8699   63.7411 H   0  0  0  0  0  0  0  0  0  0  0  0
  2  1  2  0
  3  2  1  0
  4  3  2  0
  5  4  1  0
  6  5  2  0
  6  1  1  0
  7  5  1  0
  8  7  1  0
  9  8  2  0
 10  8  1  0
 11 10  2  0
 12 11  1  0
 13 12  2  0
 14 13  1  0
 15 10  1  0
 15 14  2  0
 16 13  1  0
 17 16  1  0
 18 16  1  0
 19 16  1  0
 21 20  2  0
 21  1  1  0
 22 21  1  0
 23 22  2  0
 24 22  1  0
 25 24  2  0
 26 25  1  0
 27 26  2  0
 28 27  1  0
 29 28  2  0
 29 24  1  0
  2 30  1  0
  3 31  1  0
  4 32  1  0
  6 33  1  0
  7 34  1  0
 11 35  1  0
 12 36  1  0
 14 37  1  0
 15 38  1  0
 25 39  1  0
 26 40  1  0
 27 41  1  0
 28 42  1  0
M  END
>  <score>  (1) 
-10.562

$$$$
=
     RDKit          3D

 42 44  0  0  0  0  0  0  0  0999 V2000
    0.2200   68.5680   67.1380 C   0  0  0  0  0  0  0  0  0  0  0  0
    1.0350   69.6040   67.6060 C   0  0  0  0  0  0  0  0  0  0  0  0
    1.9010   69.3760   68.6730 C   0  0  0  0  0  0  0  0  0  0  0  0
    1.9550   68.1160   69.2710 C   0  0  0  0  0  0  0  0  0  0  0  0
    1.1410   67.0690   68.8180 C   0  0  0  0  0  0  0  0  0  0  0  0
    0.2740   67.3030   67.7490 C   0  0  0  0  0  0  0  0  0  0  0  0
    1.2680   65.8300   69.4830 N   0  0  0  0  0  0  0  0  0  0  0  0
    0.6140   65.4230   70.6310 C   0  0  0  0  0  0  0  0  0  0  0  0
   -0.1510   66.0860   71.3180 O   0  0  0  0  0  0  0  0  0  0  0  0
    0.9280   64.0340   71.0720 C   0  0  0  0  0  0  0  0  0  0  0  0
   -0.0060   63.2480   71.7580 C   0  0  0  0  0  0  0  0  0  0  0  0
    0.3320   61.9510   72.1580 C   0  0  0  0  0  0  0  0  0  0  0  0
    1.6050   61.4250   71.8830 C   0  0  0  0  0  0  0  0  0  0  0  0
    2.5430   62.2310   71.2190 C   0  0  0  0  0  0  0  0  0  0  0  0
    2.2080   63.5270   70.8190 C   0  0  0  0  0  0  0  0  0  0  0  0
    1.9730   60.0330   72.3400 C   0  0  0  0  0  0  0  0  0  0  0  0
    2.8730   60.0320   73.3620 F   0  0  0  0  0  0  0  0  0  0  0  0
    0.9050   59.3130   72.7850 F   0  0  0  0  0  0  0  0  0  0  0  0
    2.5360   59.2940   71.3460 F   0  0  0  0  0  0  0  0  0  0  0  0
   -1.8730   69.1400   66.1530 O   0  0  0  0  0  0  0  0  0  0  0  0
   -0.7150   68.7700   66.0000 C   0  0  0  0  0  0  0  0  0  0  0  0
   -0.2290   68.5300   64.5940 C   0  0  0  0  0  0  0  0  0  0  0  0
   -0.9850   68.7320   63.6510 O   0  0  0  0  0  0  0  0  0  0  0  0
    1.1670   68.0700   64.4230 C   0  0  0  0  0  0  0  0  0  0  0  0
    2.1660   69.0010   64.1680 C   0  0  0  0  0  0  0  0  0  0  0  0
    3.4730   68.5430   64.0300 C   0  0  0  0  0  0  0  0  0  0  0  0
    3.7340   67.1810   64.1560 C   0  0  0  0  0  0  0  0  0  0  0  0
    2.6750   66.3290   64.4220 C   0  0  0  0  0  0  0  0  0  0  0  0
    1.3970   66.7420   64.5680 N   0  0  0  0  0  0  0  0  0  0  0  0
    0.9922   70.5961   67.1327 H   0  0  0  0  0  0  0  0  0  0  0  0
    2.5423   70.1890   69.0443 H   0  0  0  0  0  0  0  0  0  0  0  0
    2.6458   67.9424   70.1092 H   0  0  0  0  0  0  0  0  0  0  0  0
   -0.3717   66.4915   67.3821 H   0  0  0  0  0  0  0  0  0  0  0  0
    1.9220   65.1526   69.0655 H   0  0  0  0  0  0  0  0  0  0  0  0
   -1.0049   63.6503   71.9822 H   0  0  0  0  0  0  0  0  0  0  0  0
   -0.4068   61.3366   72.6935 H   0  0  0  0  0  0  0  0  0  0  0  0
    3.5498   61.8391   71.0120 H   0  0  0  0  0  0  0  0  0  0  0  0
    2.9527   64.1512   70.3034 H   0  0  0  0  0  0  0  0  0  0  0  0
    1.9303   70.0716   64.0776 H   0  0  0  0  0  0  0  0  0  0  0  0
    4.2908   69.2491   63.8237 H   0  0  0  0  0  0  0  0  0  0  0  0
    4.7568   66.7911   64.0469 H   0  0  0  0  0  0  0  0  0  0  0  0
    2.8867   65.2540   64.5200 H   0  0  0  0  0  0  0  0  0  0  0  0
  2  1  2  0
  3  2  1  0
  4  3  2  0
  5  4  1  0
  6  5  2  0
  6  1  1  0
  7  5  1  0
  8  7  1  0
  9  8  2  0
 10  8  1  0
 11 10  2  0
 12 11  1  0
 13 12  2  0
 14 13  1  0
 15 10  1  0
 15 14  2  0
 16 13  1  0
 17 16  1  0
 18 16  1  0
 19 16  1  0
 21 20  2  0
 21  1  1  0
 22 21  1  0
 23 22  2  0
 24 22  1  0
 25 24  2  0
 26 25  1  0
 27 26  2  0
 28 27  1  0
 29 28  2  0
 29 24  1  0
  2 30  1  0
  3 31  1  0
  4 32  1  0
  6 33  1  0
  7 34  1  0
 11 35  1  0
 12 36  1  0
 14 37  1  0
 15 38  1  0
 25 39  1  0
 26 40  1  0
 27 41  1  0
 28 42  1  0
M  END
>  <score>  (2) 
-10.106

$$$$
=
     RDKit          3D

 42 44  0  0  0  0  0  0  0  0999 V2000
   -0.1230   68.2680   65.7160 C   0  0  0  0  0  0  0  0  0  0  0  0
   -1.4540   68.7010   65.7180 C   0  0  0  0  0  0  0  0  0  0  0  0
   -2.3180   68.2780   66.7260 C   0  0  0  0  0  0  0  0  0  0  0  0
   -1.8560   67.4260   67.7300 C   0  0  0  0  0  0  0  0  0  0  0  0
   -0.5280   66.9790   67.7380 C   0  0  0  0  0  0  0  0  0  0  0  0
    0.3340   67.4050   66.7260 C   0  0  0  0  0  0  0  0  0  0  0  0
   -0.1510   66.1230   68.7960 N   0  0  0  0  0  0  0  0  0  0  0  0
    0.8300   66.3430   69.7450 C   0  0  0  0  0  0  0  0  0  0  0  0
    1.5940   67.2960   69.8070 O   0  0  0  0  0  0  0  0  0  0  0  0
    0.9690   65.2650   70.7660 C   0  0  0  0  0  0  0  0  0  0  0  0
    0.0810   65.1490   71.8430 C   0  0  0  0  0  0  0  0  0  0  0  0
    0.2510   64.1250   72.7800 C   0  0  0  0  0  0  0  0  0  0  0  0
    1.3080   63.2070   72.6560 C   0  0  0  0  0  0  0  0  0  0  0  0
    2.2070   63.3480   71.5870 C   0  0  0  0  0  0  0  0  0  0  0  0
    2.0400   64.3710   70.6500 C   0  0  0  0  0  0  0  0  0  0  0  0
    1.5020   62.1190   73.6850 C   0  0  0  0  0  0  0  0  0  0  0  0
    0.9210   62.4120   74.8810 F   0  0  0  0  0  0  0  0  0  0  0  0
    0.9780   60.9200   73.3030 F   0  0  0  0  0  0  0  0  0  0  0  0
    2.8150   61.8860   73.9530 F   0  0  0  0  0  0  0  0  0  0  0  0
    0.4640   69.1360   63.5760 O   0  0  0  0  0  0  0  0  0  0  0  0
    0.8310   68.6990   64.6600 C   0  0  0  0  0  0  0  0  0  0  0  0
    2.3110   68.6140   64.9250 C   0  0  0  0  0  0  0  0  0  0  0  0
    2.8460   69.4550   65.6370 O   0  0  0  0  0  0  0  0  0  0  0  0
    3.0520   67.4880   64.3140 C   0  0  0  0  0  0  0  0  0  0  0  0
    2.9710   66.2250   64.8890 C   0  0  0  0  0  0  0  0  0  0  0  0
    3.6630   65.1810   64.2820 C   0  0  0  0  0  0  0  0  0  0  0  0
    4.4010   65.4320   63.1290 C   0  0  0  0  0  0  0  0  0  0  0  0
    4.4140   66.7220   62.6230 C   0  0  0  0  0  0  0  0  0  0  0  0
    3.7490   67.7560   63.1820 N   0  0  0  0  0  0  0  0  0  0  0  0
   -1.8168   69.3731   64.9264 H   0  0  0  0  0  0  0  0  0  0  0  0
   -3.3648   68.6158   66.7304 H   0  0  0  0  0  0  0  0  0  0  0  0
   -2.5431   67.1012   68.5252 H   0  0  0  0  0  0  0  0  0  0  0  0
    1.3792   67.0623   66.7193 H   0  0  0  0  0  0  0  0  0  0  0  0
   -0.6654   65.2336   68.8690 H   0  0  0  0  0  0  0  0  0  0  0  0
   -0.7491   65.8625   71.9516 H   0  0  0  0  0  0  0  0  0  0  0  0
   -0.4500   64.0370   73.6231 H   0  0  0  0  0  0  0  0  0  0  0  0
    3.0493   62.6478   71.4863 H   0  0  0  0  0  0  0  0  0  0  0  0
    2.7525   64.4742   69.8183 H   0  0  0  0  0  0  0  0  0  0  0  0
    2.3763   66.0553   65.7987 H   0  0  0  0  0  0  0  0  0  0  0  0
    3.6270   64.1680   64.7092 H   0  0  0  0  0  0  0  0  0  0  0  0
    4.9603   64.6260   62.6315 H   0  0  0  0  0  0  0  0  0  0  0  0
    5.0004   66.9151   61.7126 H   0  0  0  0  0  0  0  0  0  0  0  0
  2  1  2  0
  3  2  1  0
  4  3  2  0
  5  4  1  0
  6  5  2  0
  6  1  1  0
  7  5  1  0
  8  7  1  0
  9  8  2  0
 10  8  1  0
 11 10  2  0
 12 11  1  0
 13 12  2  0
 14 13  1  0
 15 10  1  0
 15 14  2  0
 16 13  1  0
 17 16  1  0
 18 16  1  0
 19 16  1  0
 21 20  2  0
 21  1  1  0
 22 21  1  0
 23 22  2  0
 24 22  1  0
 25 24  2  0
 26 25  1  0
 27 26  2  0
 28 27  1  0
 29 28  2  0
 29 24  1  0
  2 30  1  0
  3 31  1  0
  4 32  1  0
  6 33  1  0
  7 34  1  0
 11 35  1  0
 12 36  1  0
 14 37  1  0
 15 38  1  0
 25 39  1  0
 26 40  1  0
 27 41  1  0
 28 42  1  0
M  END
>  <score>  (3) 
-10.036

$$$$
=
     RDKit          3D

 42 44  0  0  0  0  0  0  0  0999 V2000
    3.2410   61.8160   72.2620 C   0  0  0  0  0  0  0  0  0  0  0  0
    4.6070   61.7540   71.9600 C   0  0  0  0  0  0  0  0  0  0  0  0
    5.1410   62.6040   70.9940 C   0  0  0  0  0  0  0  0  0  0  0  0
    4.3150   63.5130   70.3300 C   0  0  0  0  0  0  0  0  0  0  0  0
    2.9450   63.5820   70.6160 C   0  0  0  0  0  0  0  0  0  0  0  0
    2.4140   62.7290   71.5860 C   0  0  0  0  0  0  0  0  0  0  0  0
    2.1920   64.5350   69.8970 N   0  0  0  0  0  0  0  0  0  0  0  0
    1.1230   65.2810   70.3580 C   0  0  0  0  0  0  0  0  0  0  0  0
    0.5940   65.2090   71.4590 O   0  0  0  0  0  0  0  0  0  0  0  0
    0.5540   66.2400   69.3680 C   0  0  0  0  0  0  0  0  0  0  0  0
    1.3120   67.2910   68.8380 C   0  0  0  0  0  0  0  0  0  0  0  0
    0.7380   68.1710   67.9160 C   0  0  0  0  0  0  0  0  0  0  0  0
   -0.5990   68.0150   67.5120 C   0  0  0  0  0  0  0  0  0  0  0  0
   -1.3580   66.9730   68.0690 C   0  0  0  0  0  0  0  0  0  0  0  0
   -0.7860   66.0930   68.9920 C   0  0  0  0  0  0  0  0  0  0  0  0
   -1.2220   68.9820   66.5340 C   0  0  0  0  0  0  0  0  0  0  0  0
   -2.5100   68.6660   66.2250 F   0  0  0  0  0  0  0  0  0  0  0  0
   -1.2550   70.2650   66.9940 F   0  0  0  0  0  0  0  0  0  0  0  0
   -0.5520   69.0250   65.3500 F   0  0  0  0  0  0  0  0  0  0  0  0
    2.8790   61.0360   74.4840 O   0  0  0  0  0  0  0  0  0  0  0  0
    2.6340   60.9290   73.2890 C   0  0  0  0  0  0  0  0  0  0  0  0
    1.6630   59.8590   72.8590 C   0  0  0  0  0  0  0  0  0  0  0  0
    2.0620   58.9220   72.1790 O   0  0  0  0  0  0  0  0  0  0  0  0
    0.2580   59.9920   73.3040 C   0  0  0  0  0  0  0  0  0  0  0  0
   -0.4770   61.1070   72.9220 C   0  0  0  0  0  0  0  0  0  0  0  0
   -1.8020   61.1960   73.3390 C   0  0  0  0  0  0  0  0  0  0  0  0
   -2.3420   60.1740   74.1140 C   0  0  0  0  0  0  0  0  0  0  0  0
   -1.5350   59.0960   74.4380 C   0  0  0  0  0  0  0  0  0  0  0  0
   -0.2490   58.9740   74.0430 N   0  0  0  0  0  0  0  0  0  0  0  0
    5.2561   61.0367   72.4837 H   0  0  0  0  0  0  0  0  0  0  0  0
    6.2136   62.5590   70.7543 H   0  0  0  0  0  0  0  0  0  0  0  0
    4.7455   64.1840   69.5721 H   0  0  0  0  0  0  0  0  0  0  0  0
    1.3406   62.7722   71.8225 H   0  0  0  0  0  0  0  0  0  0  0  0
    2.4704   64.6926   68.9179 H   0  0  0  0  0  0  0  0  0  0  0  0
    2.3592   67.4243   69.1471 H   0  0  0  0  0  0  0  0  0  0  0  0
    1.3390   68.9942   67.5023 H   0  0  0  0  0  0  0  0  0  0  0  0
   -2.4111   66.8484   67.7766 H   0  0  0  0  0  0  0  0  0  0  0  0
   -1.3910   65.2823   69.4242 H   0  0  0  0  0  0  0  0  0  0  0  0
   -0.0242   61.8983   72.3065 H   0  0  0  0  0  0  0  0  0  0  0  0
   -2.4157   62.0649   73.0590 H   0  0  0  0  0  0  0  0  0  0  0  0
   -3.3848   60.2212   74.4609 H   0  0  0  0  0  0  0  0  0  0  0  0
   -1.9664   58.2923   75.0528 H   0  0  0  0  0  0  0  0  0  0  0  0
  2  1  2  0
  3  2  1  0
  4  3  2  0
  5  4  1  0
  6  5  2  0
  6  1  1  0
  7  5  1  0
  8  7  1  0
  9  8  2  0
 10  8  1  0
 11 10  2  0
 12 11  1  0
 13 12  2  0
 14 13  1  0
 15 10  1  0
 15 14  2  0
 16 13  1  0
 17 16  1  0
 18 16  1  0
 19 16  1  0
 21 20  2  0
 21  1  1  0
 22 21  1  0
 23 22  2  0
 24 22  1  0
 25 24  2  0
 26 25  1  0
 27 26  2  0
 28 27  1  0
 29 28  2  0
 29 24  1  0
  2 30  1  0
  3 31  1  0
  4 32  1  0
  6 33  1  0
  7 34  1  0
 11 35  1  0
 12 36  1  0
 14 37  1  0
 15 38  1  0
 25 39  1  0
 26 40  1  0
 27 41  1  0
 28 42  1  0
M  END
>  <score>  (4) 
-9.805

$$$$
=
     RDKit          3D

 42 44  0  0  0  0  0  0  0  0999 V2000
    3.1790   65.8330   64.6480 C   0  0  0  0  0  0  0  0  0  0  0  0
    4.1010   65.4890   63.6530 C   0  0  0  0  0  0  0  0  0  0  0  0
    4.8490   64.3200   63.7770 C   0  0  0  0  0  0  0  0  0  0  0  0
    4.6770   63.4950   64.8890 C   0  0  0  0  0  0  0  0  0  0  0  0
    3.7630   63.8290   65.8980 C   0  0  0  0  0  0  0  0  0  0  0  0
    3.0160   65.0020   65.7700 C   0  0  0  0  0  0  0  0  0  0  0  0
    3.6560   62.9320   66.9830 N   0  0  0  0  0  0  0  0  0  0  0  0
    3.2840   63.2270   68.2820 C   0  0  0  0  0  0  0  0  0  0  0  0
    3.0390   64.3330   68.7450 O   0  0  0  0  0  0  0  0  0  0  0  0
    3.2250   62.0530   69.1990 C   0  0  0  0  0  0  0  0  0  0  0  0
    3.8490   60.8390   68.8850 C   0  0  0  0  0  0  0  0  0  0  0  0
    3.7640   59.7610   69.7720 C   0  0  0  0  0  0  0  0  0  0  0  0
    3.0540   59.8790   70.9790 C   0  0  0  0  0  0  0  0  0  0  0  0
    2.4100   61.0920   71.2710 C   0  0  0  0  0  0  0  0  0  0  0  0
    2.4930   62.1710   70.3860 C   0  0  0  0  0  0  0  0  0  0  0  0
    2.9450   58.7040   71.9210 C   0  0  0  0  0  0  0  0  0  0  0  0
    1.7530   58.6630   72.5800 F   0  0  0  0  0  0  0  0  0  0  0  0
    3.0640   57.5000   71.2950 F   0  0  0  0  0  0  0  0  0  0  0  0
    3.9050   58.7230   72.8850 F   0  0  0  0  0  0  0  0  0  0  0  0
    1.1410   67.0660   64.6620 O   0  0  0  0  0  0  0  0  0  0  0  0
    2.3600   67.0700   64.5520 C   0  0  0  0  0  0  0  0  0  0  0  0
    3.0460   68.3930   64.3260 C   0  0  0  0  0  0  0  0  0  0  0  0
    3.0090   68.9090   63.2160 O   0  0  0  0  0  0  0  0  0  0  0  0
    3.7260   69.0170   65.4830 C   0  0  0  0  0  0  0  0  0  0  0  0
    5.0660   69.3680   65.3800 C   0  0  0  0  0  0  0  0  0  0  0  0
    5.6740   69.9710   66.4780 C   0  0  0  0  0  0  0  0  0  0  0  0
    4.9260   70.2030   67.6280 C   0  0  0  0  0  0  0  0  0  0  0  0
    3.5920   69.8280   67.6340 C   0  0  0  0  0  0  0  0  0  0  0  0
    2.9700   69.2480   66.5850 N   0  0  0  0  0  0  0  0  0  0  0  0
    4.2348   66.1393   62.7760 H   0  0  0  0  0  0  0  0  0  0  0  0
    5.5757   64.0473   62.9976 H   0  0  0  0  0  0  0  0  0  0  0  0
    5.2664   62.5702   64.9751 H   0  0  0  0  0  0  0  0  0  0  0  0
    2.2945   65.2778   66.5532 H   0  0  0  0  0  0  0  0  0  0  0  0
    3.8803   61.9465   66.7847 H   0  0  0  0  0  0  0  0  0  0  0  0
    4.4053   60.7335   67.9419 H   0  0  0  0  0  0  0  0  0  0  0  0
    4.2582   58.8106   69.5222 H   0  0  0  0  0  0  0  0  0  0  0  0
    1.8356   61.1941   72.2035 H   0  0  0  0  0  0  0  0  0  0  0  0
    1.9815   63.1155   70.6233 H   0  0  0  0  0  0  0  0  0  0  0  0
    5.6314   69.1749   64.4564 H   0  0  0  0  0  0  0  0  0  0  0  0
    6.7343   70.2608   66.4366 H   0  0  0  0  0  0  0  0  0  0  0  0
    5.3827   70.6730   68.5115 H   0  0  0  0  0  0  0  0  0  0  0  0
    3.0057   70.0135   68.5461 H   0  0  0  0  0  0  0  0  0  0  0  0
  2  1  2  0
  3  2  1  0
  4  3  2  0
  5  4  1  0
  6  5  2  0
  6  1  1  0
  7  5  1  0
  8  7  1  0
  9  8  2  0
 10  8  1  0
 11 10  2  0
 12 11  1  0
 13 12  2  0
 14 13  1  0
 15 10  1  0
 15 14  2  0
 16 13  1  0
 17 16  1  0
 18 16  1  0
 19 16  1  0
 21 20  2  0
 21  1  1  0
 22 21  1  0
 23 22  2  0
 24 22  1  0
 25 24  2  0
 26 25  1  0
 27 26  2  0
 28 27  1  0
 29 28  2  0
 29 24  1  0
  2 30  1  0
  3 31  1  0
  4 32  1  0
  6 33  1  0
  7 34  1  0
 11 35  1  0
 12 36  1  0
 14 37  1  0
 15 38  1  0
 25 39  1  0
 26 40  1  0
 27 41  1  0
 28 42  1  0
M  END
>  <score>  (5) 
-9.496

$$$$
=
     RDKit          3D

 42 44  0  0  0  0  0  0  0  0999 V2000
    2.8650   62.4940   71.8060 C   0  0  0  0  0  0  0  0  0  0  0  0
    2.2380   62.4160   73.0550 C   0  0  0  0  0  0  0  0  0  0  0  0
    1.0860   63.1610   73.2990 C   0  0  0  0  0  0  0  0  0  0  0  0
    0.5610   63.9830   72.3010 C   0  0  0  0  0  0  0  0  0  0  0  0
    1.1820   64.0780   71.0470 C   0  0  0  0  0  0  0  0  0  0  0  0
    2.3350   63.3290   70.8070 C   0  0  0  0  0  0  0  0  0  0  0  0
    0.5760   64.9310   70.1000 N   0  0  0  0  0  0  0  0  0  0  0  0
    0.9580   66.2170   69.7630 C   0  0  0  0  0  0  0  0  0  0  0  0
    1.8570   66.8750   70.2690 O   0  0  0  0  0  0  0  0  0  0  0  0
    0.1400   66.8530   68.6910 C   0  0  0  0  0  0  0  0  0  0  0  0
    0.6750   67.8220   67.8320 C   0  0  0  0  0  0  0  0  0  0  0  0
   -0.1290   68.3980   66.8430 C   0  0  0  0  0  0  0  0  0  0  0  0
   -1.4750   68.0170   66.7010 C   0  0  0  0  0  0  0  0  0  0  0  0
   -2.0070   67.0650   67.5850 C   0  0  0  0  0  0  0  0  0  0  0  0
   -1.2060   66.4890   68.5740 C   0  0  0  0  0  0  0  0  0  0  0  0
   -2.3450   68.6600   65.6480 C   0  0  0  0  0  0  0  0  0  0  0  0
   -1.7210   68.7700   64.4420 F   0  0  0  0  0  0  0  0  0  0  0  0
   -3.4960   67.9710   65.4080 F   0  0  0  0  0  0  0  0  0  0  0  0
   -2.7250   69.9210   65.9880 F   0  0  0  0  0  0  0  0  0  0  0  0
    5.1990   62.2300   71.4070 O   0  0  0  0  0  0  0  0  0  0  0  0
    4.0940   61.7130   71.5050 C   0  0  0  0  0  0  0  0  0  0  0  0
    3.9920   60.2200   71.3240 C   0  0  0  0  0  0  0  0  0  0  0  0
    4.3600   59.7130   70.2720 O   0  0  0  0  0  0  0  0  0  0  0  0
    3.4590   59.4300   72.4560 C   0  0  0  0  0  0  0  0  0  0  0  0
    2.3070   58.6740   72.2790 C   0  0  0  0  0  0  0  0  0  0  0  0
    1.8400   57.9250   73.3560 C   0  0  0  0  0  0  0  0  0  0  0  0
    2.5370   57.9550   74.5590 C   0  0  0  0  0  0  0  0  0  0  0  0
    3.6830   58.7300   74.6390 C   0  0  0  0  0  0  0  0  0  0  0  0
    4.1670   59.4620   73.6120 N   0  0  0  0  0  0  0  0  0  0  0  0
    2.6533   61.7687   73.8414 H   0  0  0  0  0  0  0  0  0  0  0  0
    0.5901   63.1011   74.2790 H   0  0  0  0  0  0  0  0  0  0  0  0
   -0.3516   64.5639   72.5003 H   0  0  0  0  0  0  0  0  0  0  0  0
    2.8330   63.3926   69.8282 H   0  0  0  0  0  0  0  0  0  0  0  0
   -0.2436   64.5532   69.6036 H   0  0  0  0  0  0  0  0  0  0  0  0
    1.7261   68.1294   67.9353 H   0  0  0  0  0  0  0  0  0  0  0  0
    0.2960   69.1568   66.1695 H   0  0  0  0  0  0  0  0  0  0  0  0
   -3.0632   66.7702   67.4982 H   0  0  0  0  0  0  0  0  0  0  0  0
   -1.6349   65.7467   69.2632 H   0  0  0  0  0  0  0  0  0  0  0  0
    1.7782   58.6673   71.3145 H   0  0  0  0  0  0  0  0  0  0  0  0
    0.9294   57.3160   73.2563 H   0  0  0  0  0  0  0  0  0  0  0  0
    2.1868   57.3770   75.4269 H   0  0  0  0  0  0  0  0  0  0  0  0
    4.2298   58.7503   75.5933 H   0  0  0  0  0  0  0  0  0  0  0  0
  2  1  2  0
  3  2  1  0
  4  3  2  0
  5  4  1  0
  6  5  2  0
  6  1  1  0
  7  5  1  0
  8  7  1  0
  9  8  2  0
 10  8  1  0
 11 10  2  0
 12 11  1  0
 13 12  2  0
 14 13  1  0
 15 10  1  0
 15 14  2  0
 16 13  1  0
 17 16  1  0
 18 16  1  0
 19 16  1  0
 21 20  2  0
 21  1  1  0
 22 21  1  0
 23 22  2  0
 24 22  1  0
 25 24  2  0
 26 25  1  0
 27 26  2  0
 28 27  1  0
 29 28  2  0
 29 24  1  0
  2 30  1  0
  3 31  1  0
  4 32  1  0
  6 33  1  0
  7 34  1  0
 11 35  1  0
 12 36  1  0
 14 37  1  0
 15 38  1  0
 25 39  1  0
 26 40  1  0
 27 41  1  0
 28 42  1  0
M  END
>  <score>  (6) 
-9.326

$$$$
=
     RDKit          3D

 42 44  0  0  0  0  0  0  0  0999 V2000
    1.3820   61.1560   73.6230 C   0  0  0  0  0  0  0  0  0  0  0  0
    0.1360   60.5550   73.8360 C   0  0  0  0  0  0  0  0  0  0  0  0
   -0.9830   61.0190   73.1480 C   0  0  0  0  0  0  0  0  0  0  0  0
   -0.8610   62.0790   72.2490 C   0  0  0  0  0  0  0  0  0  0  0  0
    0.3790   62.6960   72.0290 C   0  0  0  0  0  0  0  0  0  0  0  0
    1.4980   62.2280   72.7210 C   0  0  0  0  0  0  0  0  0  0  0  0
    0.4050   63.7570   71.0990 N   0  0  0  0  0  0  0  0  0  0  0  0
    0.1220   65.0900   71.3370 C   0  0  0  0  0  0  0  0  0  0  0  0
   -0.2650   65.5840   72.3880 O   0  0  0  0  0  0  0  0  0  0  0  0
    0.2760   65.9850   70.1550 C   0  0  0  0  0  0  0  0  0  0  0  0
    1.4440   66.7270   69.9390 C   0  0  0  0  0  0  0  0  0  0  0  0
    1.5460   67.5600   68.8200 C   0  0  0  0  0  0  0  0  0  0  0  0
    0.4840   67.6630   67.9050 C   0  0  0  0  0  0  0  0  0  0  0  0
   -0.6920   66.9350   68.1450 C   0  0  0  0  0  0  0  0  0  0  0  0
   -0.7960   66.1030   69.2640 C   0  0  0  0  0  0  0  0  0  0  0  0
    0.5890   68.5820   66.7110 C   0  0  0  0  0  0  0  0  0  0  0  0
    1.6520   69.4300   66.7890 F   0  0  0  0  0  0  0  0  0  0  0  0
    0.7320   67.9150   65.5310 F   0  0  0  0  0  0  0  0  0  0  0  0
   -0.5100   69.3710   66.5660 F   0  0  0  0  0  0  0  0  0  0  0  0
    2.8370   60.9770   75.5010 O   0  0  0  0  0  0  0  0  0  0  0  0
    2.6010   60.6880   74.3350 C   0  0  0  0  0  0  0  0  0  0  0  0
    3.5870   59.8100   73.6090 C   0  0  0  0  0  0  0  0  0  0  0  0
    4.1200   58.8820   74.2050 O   0  0  0  0  0  0  0  0  0  0  0  0
    3.8500   60.1100   72.1840 C   0  0  0  0  0  0  0  0  0  0  0  0
    4.7640   61.1030   71.8530 C   0  0  0  0  0  0  0  0  0  0  0  0
    5.0060   61.3510   70.5040 C   0  0  0  0  0  0  0  0  0  0  0  0
    4.3340   60.6010   69.5430 C   0  0  0  0  0  0  0  0  0  0  0  0
    3.4480   59.6250   69.9690 C   0  0  0  0  0  0  0  0  0  0  0  0
    3.1960   59.3540   71.2680 N   0  0  0  0  0  0  0  0  0  0  0  0
    0.0406   59.7189   74.5444 H   0  0  0  0  0  0  0  0  0  0  0  0
   -1.9637   60.5492   73.3137 H   0  0  0  0  0  0  0  0  0  0  0  0
   -1.7487   62.4353   71.7059 H   0  0  0  0  0  0  0  0  0  0  0  0
    2.4775   62.7017   72.5591 H   0  0  0  0  0  0  0  0  0  0  0  0
    0.6642   63.5109   70.1330 H   0  0  0  0  0  0  0  0  0  0  0  0
    2.2809   66.6547   70.6492 H   0  0  0  0  0  0  0  0  0  0  0  0
    2.4659   68.1399   68.6545 H   0  0  0  0  0  0  0  0  0  0  0  0
   -1.5383   67.0197   67.4474 H   0  0  0  0  0  0  0  0  0  0  0  0
   -1.7234   65.5396   69.4442 H   0  0  0  0  0  0  0  0  0  0  0  0
    5.2822   61.6774   72.6350 H   0  0  0  0  0  0  0  0  0  0  0  0
    5.7203   62.1309   70.2014 H   0  0  0  0  0  0  0  0  0  0  0  0
    4.5025   60.7791   68.4707 H   0  0  0  0  0  0  0  0  0  0  0  0
    2.9189   59.0365   69.2049 H   0  0  0  0  0  0  0  0  0  0  0  0
  2  1  2  0
  3  2  1  0
  4  3  2  0
  5  4  1  0
  6  5  2  0
  6  1  1  0
  7  5  1  0
  8  7  1  0
  9  8  2  0
 10  8  1  0
 11 10  2  0
 12 11  1  0
 13 12  2  0
 14 13  1  0
 15 10  1  0
 15 14  2  0
 16 13  1  0
 17 16  1  0
 18 16  1  0
 19 16  1  0
 21 20  2  0
 21  1  1  0
 22 21  1  0
 23 22  2  0
 24 22  1  0
 25 24  2  0
 26 25  1  0
 27 26  2  0
 28 27  1  0
 29 28  2  0
 29 24  1  0
  2 30  1  0
  3 31  1  0
  4 32  1  0
  6 33  1  0
  7 34  1  0
 11 35  1  0
 12 36  1  0
 14 37  1  0
 15 38  1  0
 25 39  1  0
 26 40  1  0
 27 41  1  0
 28 42  1  0
M  END
>  <score>  (7) 
-9.213

$$$$
=
     RDKit          3D

 42 44  0  0  0  0  0  0  0  0999 V2000
    1.8100   63.4790   71.7720 C   0  0  0  0  0  0  0  0  0  0  0  0
    0.9850   63.8770   72.8300 C   0  0  0  0  0  0  0  0  0  0  0  0
    0.0630   64.9050   72.6400 C   0  0  0  0  0  0  0  0  0  0  0  0
   -0.0340   65.5350   71.3980 C   0  0  0  0  0  0  0  0  0  0  0  0
    0.7900   65.1520   70.3310 C   0  0  0  0  0  0  0  0  0  0  0  0
    1.7120   64.1220   70.5260 C   0  0  0  0  0  0  0  0  0  0  0  0
    0.6170   65.8440   69.1130 N   0  0  0  0  0  0  0  0  0  0  0  0
    1.0930   67.1000   68.7860 C   0  0  0  0  0  0  0  0  0  0  0  0
    1.7020   67.8700   69.5150 O   0  0  0  0  0  0  0  0  0  0  0  0
    0.7780   67.5490   67.3990 C   0  0  0  0  0  0  0  0  0  0  0  0
    1.6890   67.3890   66.3470 C   0  0  0  0  0  0  0  0  0  0  0  0
    1.3550   67.8290   65.0620 C   0  0  0  0  0  0  0  0  0  0  0  0
    0.1120   68.4350   64.8120 C   0  0  0  0  0  0  0  0  0  0  0  0
   -0.7830   68.6130   65.8790 C   0  0  0  0  0  0  0  0  0  0  0  0
   -0.4510   68.1750   67.1630 C   0  0  0  0  0  0  0  0  0  0  0  0
   -0.2330   68.9290   63.4270 C   0  0  0  0  0  0  0  0  0  0  0  0
    0.2560   70.1750   63.1730 F   0  0  0  0  0  0  0  0  0  0  0  0
    0.2510   68.1310   62.4350 F   0  0  0  0  0  0  0  0  0  0  0  0
   -1.5770   69.0070   63.2250 F   0  0  0  0  0  0  0  0  0  0  0  0
    3.7250   62.4400   72.7380 O   0  0  0  0  0  0  0  0  0  0  0  0
    2.8040   62.3840   71.9330 C   0  0  0  0  0  0  0  0  0  0  0  0
    2.6760   61.1430   71.0900 C   0  0  0  0  0  0  0  0  0  0  0  0
    2.9020   61.2040   69.8870 O   0  0  0  0  0  0  0  0  0  0  0  0
    2.2940   59.8880   71.7740 C   0  0  0  0  0  0  0  0  0  0  0  0
    1.3040   59.9140   72.7490 C   0  0  0  0  0  0  0  0  0  0  0  0
    0.9520   58.7160   73.3630 C   0  0  0  0  0  0  0  0  0  0  0  0
    1.5940   57.5420   72.9810 C   0  0  0  0  0  0  0  0  0  0  0  0
    2.5620   57.6100   71.9920 C   0  0  0  0  0  0  0  0  0  0  0  0
    2.9220   58.7550   71.3720 N   0  0  0  0  0  0  0  0  0  0  0  0
    1.0639   63.3803   73.8083 H   0  0  0  0  0  0  0  0  0  0  0  0
   -0.5882   65.2199   73.4687 H   0  0  0  0  0  0  0  0  0  0  0  0
   -0.7669   66.3427   71.2549 H   0  0  0  0  0  0  0  0  0  0  0  0
    2.3666   63.8114   69.6984 H   0  0  0  0  0  0  0  0  0  0  0  0
    0.0743   65.3578   68.3850 H   0  0  0  0  0  0  0  0  0  0  0  0
    2.6658   66.9179   66.5312 H   0  0  0  0  0  0  0  0  0  0  0  0
    2.0727   67.6993   64.2386 H   0  0  0  0  0  0  0  0  0  0  0  0
   -1.7529   69.1010   65.7024 H   0  0  0  0  0  0  0  0  0  0  0  0
   -1.1586   68.3228   67.9922 H   0  0  0  0  0  0  0  0  0  0  0  0
    0.8115   60.8572   73.0281 H   0  0  0  0  0  0  0  0  0  0  0  0
    0.1751   58.6972   74.1415 H   0  0  0  0  0  0  0  0  0  0  0  0
    1.3388   56.5819   73.4534 H   0  0  0  0  0  0  0  0  0  0  0  0
    3.0661   56.6786   71.6947 H   0  0  0  0  0  0  0  0  0  0  0  0
  2  1  2  0
  3  2  1  0
  4  3  2  0
  5  4  1  0
  6  5  2  0
  6  1  1  0
  7  5  1  0
  8  7  1  0
  9  8  2  0
 10  8  1  0
 11 10  2  0
 12 11  1  0
 13 12  2  0
 14 13  1  0
 15 10  1  0
 15 14  2  0
 16 13  1  0
 17 16  1  0
 18 16  1  0
 19 16  1  0
 21 20  2  0
 21  1  1  0
 22 21  1  0
 23 22  2  0
 24 22  1  0
 25 24  2  0
 26 25  1  0
 27 26  2  0
 28 27  1  0
 29 28  2  0
 29 24  1  0
  2 30  1  0
  3 31  1  0
  4 32  1  0
  6 33  1  0
  7 34  1  0
 11 35  1  0
 12 36  1  0
 14 37  1  0
 15 38  1  0
 25 39  1  0
 26 40  1  0
 27 41  1  0
 28 42  1  0
M  END
>  <score>  (8) 
-9.064

$$$$
=
     RDKit          3D

 42 44  0  0  0  0  0  0  0  0999 V2000
    2.1220   68.5860   65.0240 C   0  0  0  0  0  0  0  0  0  0  0  0
    0.8870   69.0880   64.5980 C   0  0  0  0  0  0  0  0  0  0  0  0
   -0.2740   68.7460   65.2880 C   0  0  0  0  0  0  0  0  0  0  0  0
   -0.2030   67.9050   66.4000 C   0  0  0  0  0  0  0  0  0  0  0  0
    1.0250   67.3890   66.8340 C   0  0  0  0  0  0  0  0  0  0  0  0
    2.1860   67.7340   66.1400 C   0  0  0  0  0  0  0  0  0  0  0  0
    0.9970   66.5500   67.9700 N   0  0  0  0  0  0  0  0  0  0  0  0
    1.3760   66.8720   69.2600 C   0  0  0  0  0  0  0  0  0  0  0  0
    1.8640   67.9260   69.6440 O   0  0  0  0  0  0  0  0  0  0  0  0
    1.1940   65.7790   70.2580 C   0  0  0  0  0  0  0  0  0  0  0  0
    2.0330   64.6590   70.2880 C   0  0  0  0  0  0  0  0  0  0  0  0
    1.8230   63.6540   71.2380 C   0  0  0  0  0  0  0  0  0  0  0  0
    0.7730   63.7530   72.1660 C   0  0  0  0  0  0  0  0  0  0  0  0
   -0.0790   64.8680   72.1110 C   0  0  0  0  0  0  0  0  0  0  0  0
    0.1290   65.8730   71.1620 C   0  0  0  0  0  0  0  0  0  0  0  0
    0.5360   62.6540   73.1740 C   0  0  0  0  0  0  0  0  0  0  0  0
    1.2930   61.5470   72.9380 F   0  0  0  0  0  0  0  0  0  0  0  0
    0.8160   63.0290   74.4540 F   0  0  0  0  0  0  0  0  0  0  0  0
   -0.7570   62.2280   73.1820 F   0  0  0  0  0  0  0  0  0  0  0  0
    3.4050   69.3460   63.1650 O   0  0  0  0  0  0  0  0  0  0  0  0
    3.3850   68.9300   64.3170 C   0  0  0  0  0  0  0  0  0  0  0  0
    4.6980   68.7810   65.0390 C   0  0  0  0  0  0  0  0  0  0  0  0
    5.5040   67.9410   64.6590 O   0  0  0  0  0  0  0  0  0  0  0  0
    4.9580   69.6880   66.1800 C   0  0  0  0  0  0  0  0  0  0  0  0
    4.0960   69.6780   67.2700 C   0  0  0  0  0  0  0  0  0  0  0  0
    4.3750   70.5280   68.3370 C   0  0  0  0  0  0  0  0  0  0  0  0
    5.4990   71.3470   68.2790 C   0  0  0  0  0  0  0  0  0  0  0  0
    6.3060   71.2800   67.1550 C   0  0  0  0  0  0  0  0  0  0  0  0
    6.0680   70.4620   66.1070 N   0  0  0  0  0  0  0  0  0  0  0  0
    0.8332   69.7503   63.7214 H   0  0  0  0  0  0  0  0  0  0  0  0
   -1.2466   69.1386   64.9566 H   0  0  0  0  0  0  0  0  0  0  0  0
   -1.1235   67.6440   66.9427 H   0  0  0  0  0  0  0  0  0  0  0  0
    3.1575   67.3364   66.4688 H   0  0  0  0  0  0  0  0  0  0  0  0
    0.6556   65.5898   67.8204 H   0  0  0  0  0  0  0  0  0  0  0  0
    2.8570   64.5692   69.5649 H   0  0  0  0  0  0  0  0  0  0  0  0
    2.4869   62.7771   71.2586 H   0  0  0  0  0  0  0  0  0  0  0  0
   -0.9161   64.9511   72.8198 H   0  0  0  0  0  0  0  0  0  0  0  0
   -0.5463   66.7406   71.1253 H   0  0  0  0  0  0  0  0  0  0  0  0
    3.2172   69.0166   67.2893 H   0  0  0  0  0  0  0  0  0  0  0  0
    3.7143   70.5520   69.2162 H   0  0  0  0  0  0  0  0  0  0  0  0
    5.7407   72.0310   69.1059 H   0  0  0  0  0  0  0  0  0  0  0  0
    7.1919   71.9307   67.1137 H   0  0  0  0  0  0  0  0  0  0  0  0
  2  1  2  0
  3  2  1  0
  4  3  2  0
  5  4  1  0
  6  5  2  0
  6  1  1  0
  7  5  1  0
  8  7  1  0
  9  8  2  0
 10  8  1  0
 11 10  2  0
 12 11  1  0
 13 12  2  0
 14 13  1  0
 15 10  1  0
 15 14  2  0
 16 13  1  0
 17 16  1  0
 18 16  1  0
 19 16  1  0
 21 20  2  0
 21  1  1  0
 22 21  1  0
 23 22  2  0
 24 22  1  0
 25 24  2  0
 26 25  1  0
 27 26  2  0
 28 27  1  0
 29 28  2  0
 29 24  1  0
  2 30  1  0
  3 31  1  0
  4 32  1  0
  6 33  1  0
  7 34  1  0
 11 35  1  0
 12 36  1  0
 14 37  1  0
 15 38  1  0
 25 39  1  0
 26 40  1  0
 27 41  1  0
 28 42  1  0
M  END
>  <score>  (9) 
-8.986

$$$$
