=
     RDKit          3D

 42 43  0  0  0  0  0  0  0  0999 V2000
    2.5790   66.5610   64.7780 C   0  0  0  0  0  0  0  0  0  0  0  0
    2.3380   67.9260   65.4120 C   0  0  1  0  0  0  0  0  0  0  0  0
    3.4820   68.8610   65.0450 C   0  0  0  0  0  0  0  0  0  0  0  0
    3.6830   69.1220   63.8540 O   0  0  0  0  0  0  0  0  0  0  0  0
    4.3690   69.4430   66.0970 C   0  0  0  0  0  0  0  0  0  0  0  0
    5.7310   69.5840   65.8020 C   0  0  0  0  0  0  0  0  0  0  0  0
    6.6090   70.1250   66.7430 C   0  0  0  0  0  0  0  0  0  0  0  0
    6.1420   70.5200   68.0010 C   0  0  0  0  0  0  0  0  0  0  0  0
    4.7800   70.3880   68.2920 C   0  0  0  0  0  0  0  0  0  0  0  0
    3.8980   69.8460   67.3510 C   0  0  0  0  0  0  0  0  0  0  0  0
    7.0790   71.1310   69.0030 C   0  0  0  0  0  0  0  0  0  0  0  0
    0.9900   68.5710   65.0160 C   0  0  0  0  0  0  0  0  0  0  0  0
   -0.2170   67.9920   65.7380 N   0  0  0  0  0  4  0  0  0  0  0  0
    0.0490   67.5830   67.1630 C   0  0  0  0  0  0  0  0  0  0  0  0
   -1.1630   66.8530   67.7210 C   0  0  0  0  0  0  0  0  0  0  0  0
   -2.4240   67.7040   67.6220 C   0  0  0  0  0  0  0  0  0  0  0  0
   -2.6500   68.1860   66.1940 C   0  0  0  0  0  0  0  0  0  0  0  0
   -1.4260   68.8990   65.6370 C   0  0  0  0  0  0  0  0  0  0  0  0
    2.7120   65.8078   65.5686 H   0  0  0  0  0  0  0  0  0  0  0  0
    1.7150   66.2889   64.1539 H   0  0  0  0  0  0  0  0  0  0  0  0
    3.4839   66.6012   64.1539 H   0  0  0  0  0  0  0  0  0  0  0  0
    2.2932   67.7643   66.4991 H   0  0  0  0  0  0  0  0  0  0  0  0
    6.1121   69.2657   64.8204 H   0  0  0  0  0  0  0  0  0  0  0  0
    7.6741   70.2413   66.4938 H   0  0  0  0  0  0  0  0  0  0  0  0
    4.3986   70.7138   69.2710 H   0  0  0  0  0  0  0  0  0  0  0  0
    2.8316   69.7365   67.5978 H   0  0  0  0  0  0  0  0  0  0  0  0
    6.7282   70.9022   70.0201 H   0  0  0  0  0  0  0  0  0  0  0  0
    8.0882   70.7168   68.8614 H   0  0  0  0  0  0  0  0  0  0  0  0
    7.1070   72.2215   68.8614 H   0  0  0  0  0  0  0  0  0  0  0  0
    1.0432   69.6463   65.2415 H   0  0  0  0  0  0  0  0  0  0  0  0
    0.8450   68.3654   63.9452 H   0  0  0  0  0  0  0  0  0  0  0  0
   -0.4296   67.1171   65.2378 H   0  0  0  0  0  0  0  0  0  0  0  0
    0.9239   66.9170   67.1951 H   0  0  0  0  0  0  0  0  0  0  0  0
    0.2453   68.4798   67.7690 H   0  0  0  0  0  0  0  0  0  0  0  0
   -1.3136   65.9238   67.1519 H   0  0  0  0  0  0  0  0  0  0  0  0
   -0.9760   66.6365   68.7831 H   0  0  0  0  0  0  0  0  0  0  0  0
   -3.2889   67.1029   67.9394 H   0  0  0  0  0  0  0  0  0  0  0  0
   -2.3043   68.5829   68.2725 H   0  0  0  0  0  0  0  0  0  0  0  0
   -2.8770   67.3183   65.5572 H   0  0  0  0  0  0  0  0  0  0  0  0
   -3.4867   68.9000   66.2028 H   0  0  0  0  0  0  0  0  0  0  0  0
   -1.6019   69.1578   64.5824 H   0  0  0  0  0  0  0  0  0  0  0  0
   -1.2431   69.8158   66.2167 H   0  0  0  0  0  0  0  0  0  0  0  0
  2  1  1  0
  3  2  1  0
  4  3  2  0
  5  3  1  0
  6  5  2  0
  7  6  1  0
  8  7  2  0
  9  8  1  0
 10  9  2  0
 10  5  1  0
 11  8  1  0
 12  2  1  0
 13 12  1  0
 14 13  1  0
 15 14  1  0
 16 15  1  0
 17 16  1  0
 18 17  1  0
 18 13  1  0
  1 19  1  0
  1 20  1  0
  1 21  1  0
  2 22  1  1
  6 23  1  0
  7 24  1  0
  9 25  1  0
 10 26  1  0
 11 27  1  0
 11 28  1  0
 11 29  1  0
 12 30  1  0
 12 31  1  0
 13 32  1  0
 14 33  1  0
 14 34  1  0
 15 35  1  0
 15 36  1  0
 16 37  1  0
 16 38  1  0
 17 39  1  0
 17 40  1  0
 18 41  1  0
 18 42  1  0
M  CHG  1  13   1
M  END
>  <score>  (1) 
-9.402

$$$$
=
     RDKit          3D

 42 43  0  0  0  0  0  0  0  0999 V2000
   -0.3470   68.8870   65.7210 C   0  0  0  0  0  0  0  0  0  0  0  0
    1.1490   68.6000   65.7490 C   0  0  1  0  0  0  0  0  0  0  0  0
    1.6690   68.7740   67.1690 C   0  0  0  0  0  0  0  0  0  0  0  0
    0.9750   68.3820   68.1120 O   0  0  0  0  0  0  0  0  0  0  0  0
    2.9870   69.4270   67.4320 C   0  0  0  0  0  0  0  0  0  0  0  0
    3.1830   70.0270   68.6840 C   0  0  0  0  0  0  0  0  0  0  0  0
    4.3950   70.6500   68.9900 C   0  0  0  0  0  0  0  0  0  0  0  0
    5.4240   70.6960   68.0450 C   0  0  0  0  0  0  0  0  0  0  0  0
    5.2320   70.0900   66.8000 C   0  0  0  0  0  0  0  0  0  0  0  0
    4.0190   69.4650   66.4890 C   0  0  0  0  0  0  0  0  0  0  0  0
    6.7390   71.3380   68.3850 C   0  0  0  0  0  0  0  0  0  0  0  0
    1.5270   67.1960   65.2230 C   0  0  0  0  0  0  0  0  0  0  0  0
    2.3630   67.2070   63.9520 N   0  0  0  0  0  4  0  0  0  0  0  0
    2.4570   68.5540   63.2840 C   0  0  0  0  0  0  0  0  0  0  0  0
    3.1510   68.4100   61.9380 C   0  0  0  0  0  0  0  0  0  0  0  0
    4.5280   67.7730   62.0830 C   0  0  0  0  0  0  0  0  0  0  0  0
    4.4450   66.4480   62.8320 C   0  0  0  0  0  0  0  0  0  0  0  0
    3.7320   66.5980   64.1690 C   0  0  0  0  0  0  0  0  0  0  0  0
   -0.7258   68.9597   66.7512 H   0  0  0  0  0  0  0  0  0  0  0  0
   -0.5285   69.8363   65.1958 H   0  0  0  0  0  0  0  0  0  0  0  0
   -0.8669   68.0722   65.1958 H   0  0  0  0  0  0  0  0  0  0  0  0
    1.6205   69.3210   65.0650 H   0  0  0  0  0  0  0  0  0  0  0  0
    2.3759   70.0069   69.4311 H   0  0  0  0  0  0  0  0  0  0  0  0
    4.5406   71.1069   69.9800 H   0  0  0  0  0  0  0  0  0  0  0  0
    6.0429   70.1045   66.0569 H   0  0  0  0  0  0  0  0  0  0  0  0
    3.8771   69.0028   65.5010 H   0  0  0  0  0  0  0  0  0  0  0  0
    6.8490   71.3917   69.4782 H   0  0  0  0  0  0  0  0  0  0  0  0
    7.5594   70.7391   67.9629 H   0  0  0  0  0  0  0  0  0  0  0  0
    6.7714   72.3533   67.9629 H   0  0  0  0  0  0  0  0  0  0  0  0
    2.0985   66.6771   66.0066 H   0  0  0  0  0  0  0  0  0  0  0  0
    0.5833   66.6884   64.9745 H   0  0  0  0  0  0  0  0  0  0  0  0
    1.8478   66.6084   63.2908 H   0  0  0  0  0  0  0  0  0  0  0  0
    1.4454   68.9587   63.1326 H   0  0  0  0  0  0  0  0  0  0  0  0
    3.0362   69.2379   63.9218 H   0  0  0  0  0  0  0  0  0  0  0  0
    2.5326   67.7786   61.2831 H   0  0  0  0  0  0  0  0  0  0  0  0
    3.2796   69.4141   61.5076 H   0  0  0  0  0  0  0  0  0  0  0  0
    4.9479   67.5940   61.0822 H   0  0  0  0  0  0  0  0  0  0  0  0
    5.1706   68.4578   62.6558 H   0  0  0  0  0  0  0  0  0  0  0  0
    3.8942   65.7236   62.2141 H   0  0  0  0  0  0  0  0  0  0  0  0
    5.4703   66.1014   63.0283 H   0  0  0  0  0  0  0  0  0  0  0  0
    3.6220   65.6089   64.6377 H   0  0  0  0  0  0  0  0  0  0  0  0
    4.3227   67.2542   64.8251 H   0  0  0  0  0  0  0  0  0  0  0  0
  2  1  1  0
  3  2  1  0
  4  3  2  0
  5  3  1  0
  6  5  2  0
  7  6  1  0
  8  7  2  0
  9  8  1  0
 10  9  2  0
 10  5  1  0
 11  8  1  0
 12  2  1  0
 13 12  1  0
 14 13  1  0
 15 14  1  0
 16 15  1  0
 17 16  1  0
 18 17  1  0
 18 13  1  0
  1 19  1  0
  1 20  1  0
  1 21  1  0
  2 22  1  6
  6 23  1  0
  7 24  1  0
  9 25  1  0
 10 26  1  0
 11 27  1  0
 11 28  1  0
 11 29  1  0
 12 30  1  0
 12 31  1  0
 13 32  1  0
 14 33  1  0
 14 34  1  0
 15 35  1  0
 15 36  1  0
 16 37  1  0
 16 38  1  0
 17 39  1  0
 17 40  1  0
 18 41  1  0
 18 42  1  0
M  CHG  1  13   1
M  END
>  <score>  (2) 
-9.028

$$$$
=
     RDKit          3D

 42 43  0  0  0  0  0  0  0  0999 V2000
    0.7290   67.2110   68.7680 C   0  0  0  0  0  0  0  0  0  0  0  0
    1.5400   67.7150   67.5810 C   0  0  1  0  0  0  0  0  0  0  0  0
    0.7830   67.4220   66.2920 C   0  0  0  0  0  0  0  0  0  0  0  0
   -0.3130   66.8580   66.3580 O   0  0  0  0  0  0  0  0  0  0  0  0
    1.3570   67.7860   64.9620 C   0  0  0  0  0  0  0  0  0  0  0  0
    2.6030   67.2470   64.6150 C   0  0  0  0  0  0  0  0  0  0  0  0
    3.1890   67.5470   63.3840 C   0  0  0  0  0  0  0  0  0  0  0  0
    2.5450   68.4030   62.4850 C   0  0  0  0  0  0  0  0  0  0  0  0
    1.2970   68.9350   62.8270 C   0  0  0  0  0  0  0  0  0  0  0  0
    0.7070   68.6360   64.0600 C   0  0  0  0  0  0  0  0  0  0  0  0
    3.1600   68.7030   61.1470 C   0  0  0  0  0  0  0  0  0  0  0  0
    1.8850   69.2200   67.6520 C   0  0  0  0  0  0  0  0  0  0  0  0
    3.3620   69.5150   67.8660 N   0  0  0  0  0  4  0  0  0  0  0  0
    4.1320   69.7750   66.5970 C   0  0  0  0  0  0  0  0  0  0  0  0
    5.6170   69.8710   66.9120 C   0  0  0  0  0  0  0  0  0  0  0  0
    5.9010   70.9460   67.9540 C   0  0  0  0  0  0  0  0  0  0  0  0
    5.0610   70.7310   69.2070 C   0  0  0  0  0  0  0  0  0  0  0  0
    3.5780   70.6170   68.8820 C   0  0  0  0  0  0  0  0  0  0  0  0
    1.2201   67.5162   69.7037 H   0  0  0  0  0  0  0  0  0  0  0  0
   -0.2834   67.6393   68.7287 H   0  0  0  0  0  0  0  0  0  0  0  0
    0.6647   66.1136   68.7287 H   0  0  0  0  0  0  0  0  0  0  0  0
    2.5000   67.1785   67.6061 H   0  0  0  0  0  0  0  0  0  0  0  0
    3.1241   66.5815   65.3189 H   0  0  0  0  0  0  0  0  0  0  0  0
    4.1623   67.1078   63.1198 H   0  0  0  0  0  0  0  0  0  0  0  0
    0.7742   69.5951   62.1192 H   0  0  0  0  0  0  0  0  0  0  0  0
   -0.2696   69.0699   64.3209 H   0  0  0  0  0  0  0  0  0  0  0  0
    4.1399   69.1810   61.2928 H   0  0  0  0  0  0  0  0  0  0  0  0
    3.2889   67.7666   60.5844 H   0  0  0  0  0  0  0  0  0  0  0  0
    2.5013   69.3810   60.5844 H   0  0  0  0  0  0  0  0  0  0  0  0
    1.5734   69.6897   66.7074 H   0  0  0  0  0  0  0  0  0  0  0  0
    1.3535   69.6238   68.5264 H   0  0  0  0  0  0  0  0  0  0  0  0
    3.7535   68.6435   68.2508 H   0  0  0  0  0  0  0  0  0  0  0  0
    3.9604   68.9506   65.8892 H   0  0  0  0  0  0  0  0  0  0  0  0
    3.7914   70.7207   66.1502 H   0  0  0  0  0  0  0  0  0  0  0  0
    5.9638   68.9005   67.2966 H   0  0  0  0  0  0  0  0  0  0  0  0
    6.1483   70.1395   65.9870 H   0  0  0  0  0  0  0  0  0  0  0  0
    6.9664   70.9108   68.2253 H   0  0  0  0  0  0  0  0  0  0  0  0
    5.6436   71.9255   67.5246 H   0  0  0  0  0  0  0  0  0  0  0  0
    5.3893   69.8046   69.7009 H   0  0  0  0  0  0  0  0  0  0  0  0
    5.2005   71.6013   69.8651 H   0  0  0  0  0  0  0  0  0  0  0  0
    3.0193   70.3827   69.8001 H   0  0  0  0  0  0  0  0  0  0  0  0
    3.2215   71.5710   68.4664 H   0  0  0  0  0  0  0  0  0  0  0  0
  2  1  1  0
  3  2  1  0
  4  3  2  0
  5  3  1  0
  6  5  2  0
  7  6  1  0
  8  7  2  0
  9  8  1  0
 10  9  2  0
 10  5  1  0
 11  8  1  0
 12  2  1  0
 13 12  1  0
 14 13  1  0
 15 14  1  0
 16 15  1  0
 17 16  1  0
 18 17  1  0
 18 13  1  0
  1 19  1  0
  1 20  1  0
  1 21  1  0
  2 22  1  6
  6 23  1  0
  7 24  1  0
  9 25  1  0
 10 26  1  0
 11 27  1  0
 11 28  1  0
 11 29  1  0
 12 30  1  0
 12 31  1  0
 13 32  1  0
 14 33  1  0
 14 34  1  0
 15 35  1  0
 15 36  1  0
 16 37  1  0
 16 38  1  0
 17 39  1  0
 17 40  1  0
 18 41  1  0
 18 42  1  0
M  CHG  1  13   1
M  END
>  <score>  (3) 
-8.73

$$$$
=
     RDKit          3D

 42 43  0  0  0  0  0  0  0  0999 V2000
   -0.8770   66.9160   68.0280 C   0  0  0  0  0  0  0  0  0  0  0  0
    0.6090   67.2150   68.1790 C   0  0  1  0  0  0  0  0  0  0  0  0
    0.8720   68.6680   67.8090 C   0  0  0  0  0  0  0  0  0  0  0  0
   -0.0900   69.4250   67.6410 O   0  0  0  0  0  0  0  0  0  0  0  0
    2.2640   69.1780   67.6290 C   0  0  0  0  0  0  0  0  0  0  0  0
    2.8860   68.9640   66.3920 C   0  0  0  0  0  0  0  0  0  0  0  0
    4.1860   69.4210   66.1620 C   0  0  0  0  0  0  0  0  0  0  0  0
    4.8890   70.0870   67.1710 C   0  0  0  0  0  0  0  0  0  0  0  0
    4.2660   70.3080   68.4030 C   0  0  0  0  0  0  0  0  0  0  0  0
    2.9640   69.8520   68.6370 C   0  0  0  0  0  0  0  0  0  0  0  0
    6.2760   70.6060   66.9150 C   0  0  0  0  0  0  0  0  0  0  0  0
    1.1650   66.9270   69.5920 C   0  0  0  0  0  0  0  0  0  0  0  0
    1.0780   65.4690   70.0150 N   0  0  0  0  0  4  0  0  0  0  0  0
    2.4100   64.7760   70.1320 C   0  0  0  0  0  0  0  0  0  0  0  0
    2.1950   63.2900   70.3750 C   0  0  0  0  0  0  0  0  0  0  0  0
    1.3380   63.0430   71.6120 C   0  0  0  0  0  0  0  0  0  0  0  0
    0.0230   63.8090   71.5310 C   0  0  0  0  0  0  0  0  0  0  0  0
    0.2480   65.2920   71.2690 C   0  0  0  0  0  0  0  0  0  0  0  0
   -1.3355   66.8238   69.0236 H   0  0  0  0  0  0  0  0  0  0  0  0
   -1.3615   67.7347   67.4757 H   0  0  0  0  0  0  0  0  0  0  0  0
   -1.0071   65.9737   67.4757 H   0  0  0  0  0  0  0  0  0  0  0  0
    1.1374   66.5329   67.4967 H   0  0  0  0  0  0  0  0  0  0  0  0
    2.3462   68.4316   65.5951 H   0  0  0  0  0  0  0  0  0  0  0  0
    4.6589   69.2562   65.1826 H   0  0  0  0  0  0  0  0  0  0  0  0
    4.8051   70.8460   69.1967 H   0  0  0  0  0  0  0  0  0  0  0  0
    2.4896   70.0233   69.6145 H   0  0  0  0  0  0  0  0  0  0  0  0
    6.7798   70.7945   67.8745 H   0  0  0  0  0  0  0  0  0  0  0  0
    6.8464   69.8605   66.3416 H   0  0  0  0  0  0  0  0  0  0  0  0
    6.2169   71.5429   66.3416 H   0  0  0  0  0  0  0  0  0  0  0  0
    2.2224   67.2293   69.6141 H   0  0  0  0  0  0  0  0  0  0  0  0
    0.5419   67.4967   70.2972 H   0  0  0  0  0  0  0  0  0  0  0  0
    0.5917   64.9972   69.2393 H   0  0  0  0  0  0  0  0  0  0  0  0
    2.9780   64.9158   69.2004 H   0  0  0  0  0  0  0  0  0  0  0  0
    2.9714   65.2055   70.9748 H   0  0  0  0  0  0  0  0  0  0  0  0
    1.6922   62.8539   69.4992 H   0  0  0  0  0  0  0  0  0  0  0  0
    3.1771   62.8217   70.5370 H   0  0  0  0  0  0  0  0  0  0  0  0
    1.1227   61.9672   71.6908 H   0  0  0  0  0  0  0  0  0  0  0  0
    1.8918   63.3925   72.4959 H   0  0  0  0  0  0  0  0  0  0  0  0
   -0.5829   63.3909   70.7137 H   0  0  0  0  0  0  0  0  0  0  0  0
   -0.4925   63.7067   72.4973 H   0  0  0  0  0  0  0  0  0  0  0  0
   -0.7232   65.7916   71.1381 H   0  0  0  0  0  0  0  0  0  0  0  0
    0.7799   65.7361   72.1233 H   0  0  0  0  0  0  0  0  0  0  0  0
  2  1  1  0
  3  2  1  0
  4  3  2  0
  5  3  1  0
  6  5  2  0
  7  6  1  0
  8  7  2  0
  9  8  1  0
 10  9  2  0
 10  5  1  0
 11  8  1  0
 12  2  1  0
 13 12  1  0
 14 13  1  0
 15 14  1  0
 16 15  1  0
 17 16  1  0
 18 17  1  0
 18 13  1  0
  1 19  1  0
  1 20  1  0
  1 21  1  0
  2 22  1  6
  6 23  1  0
  7 24  1  0
  9 25  1  0
 10 26  1  0
 11 27  1  0
 11 28  1  0
 11 29  1  0
 12 30  1  0
 12 31  1  0
 13 32  1  0
 14 33  1  0
 14 34  1  0
 15 35  1  0
 15 36  1  0
 16 37  1  0
 16 38  1  0
 17 39  1  0
 17 40  1  0
 18 41  1  0
 18 42  1  0
M  CHG  1  13   1
M  END
>  <score>  (4) 
-8.642

$$$$
=
     RDKit          3D

 42 43  0  0  0  0  0  0  0  0999 V2000
    1.5270   67.1280   68.6420 C   0  0  0  0  0  0  0  0  0  0  0  0
    0.4220   67.9650   68.0110 C   0  0  1  0  0  0  0  0  0  0  0  0
    0.9180   69.3920   67.8190 C   0  0  0  0  0  0  0  0  0  0  0  0
    0.0950   70.2860   67.5940 O   0  0  0  0  0  0  0  0  0  0  0  0
    2.3750   69.7150   67.8760 C   0  0  0  0  0  0  0  0  0  0  0  0
    3.1540   69.4340   66.7450 C   0  0  0  0  0  0  0  0  0  0  0  0
    4.5210   69.7180   66.7360 C   0  0  0  0  0  0  0  0  0  0  0  0
    5.1350   70.2730   67.8640 C   0  0  0  0  0  0  0  0  0  0  0  0
    4.3560   70.5620   68.9890 C   0  0  0  0  0  0  0  0  0  0  0  0
    2.9860   70.2790   69.0010 C   0  0  0  0  0  0  0  0  0  0  0  0
    6.6000   70.6070   67.8450 C   0  0  0  0  0  0  0  0  0  0  0  0
   -0.0960   67.4080   66.6660 C   0  0  0  0  0  0  0  0  0  0  0  0
    0.5720   68.0090   65.4390 N   0  0  0  0  0  4  0  0  0  0  0  0
    1.5110   67.0720   64.7240 C   0  0  0  0  0  0  0  0  0  0  0  0
    2.2570   67.8290   63.6360 C   0  0  0  0  0  0  0  0  0  0  0  0
    1.2980   68.4960   62.6570 C   0  0  0  0  0  0  0  0  0  0  0  0
    0.2940   69.3800   63.3880 C   0  0  0  0  0  0  0  0  0  0  0  0
   -0.4350   68.6200   64.4880 C   0  0  0  0  0  0  0  0  0  0  0  0
    1.4505   67.1859   69.7378 H   0  0  0  0  0  0  0  0  0  0  0  0
    1.4220   66.0808   68.3220 H   0  0  0  0  0  0  0  0  0  0  0  0
    2.5066   67.5127   68.3220 H   0  0  0  0  0  0  0  0  0  0  0  0
   -0.4311   67.9328   68.7047 H   0  0  0  0  0  0  0  0  0  0  0  0
    2.6843   68.9859   65.8570 H   0  0  0  0  0  0  0  0  0  0  0  0
    5.1183   69.5043   65.8374 H   0  0  0  0  0  0  0  0  0  0  0  0
    4.8255   71.0167   69.8738 H   0  0  0  0  0  0  0  0  0  0  0  0
    2.3878   70.5005   69.8972 H   0  0  0  0  0  0  0  0  0  0  0  0
    6.9702   70.6914   68.8774 H   0  0  0  0  0  0  0  0  0  0  0  0
    7.1507   69.8114   67.3219 H   0  0  0  0  0  0  0  0  0  0  0  0
    6.7514   71.5627   67.3219 H   0  0  0  0  0  0  0  0  0  0  0  0
    0.0761   66.3216   66.6542 H   0  0  0  0  0  0  0  0  0  0  0  0
   -1.1617   67.6736   66.6054 H   0  0  0  0  0  0  0  0  0  0  0  0
    1.1665   68.7666   65.8044 H   0  0  0  0  0  0  0  0  0  0  0  0
    2.2333   66.6583   65.4432 H   0  0  0  0  0  0  0  0  0  0  0  0
    0.9340   66.2533   64.2693 H   0  0  0  0  0  0  0  0  0  0  0  0
    2.8834   68.6023   64.1047 H   0  0  0  0  0  0  0  0  0  0  0  0
    2.8731   67.1092   63.0771 H   0  0  0  0  0  0  0  0  0  0  0  0
    1.8752   69.1139   61.9534 H   0  0  0  0  0  0  0  0  0  0  0  0
    0.7458   67.7111   62.1194 H   0  0  0  0  0  0  0  0  0  0  0  0
    0.8290   70.2298   63.8371 H   0  0  0  0  0  0  0  0  0  0  0  0
   -0.4533   69.7237   62.6577 H   0  0  0  0  0  0  0  0  0  0  0  0
   -1.0867   69.3125   65.0409 H   0  0  0  0  0  0  0  0  0  0  0  0
   -1.0426   67.8211   64.0379 H   0  0  0  0  0  0  0  0  0  0  0  0
  2  1  1  0
  3  2  1  0
  4  3  2  0
  5  3  1  0
  6  5  2  0
  7  6  1  0
  8  7  2  0
  9  8  1  0
 10  9  2  0
 10  5  1  0
 11  8  1  0
 12  2  1  0
 13 12  1  0
 14 13  1  0
 15 14  1  0
 16 15  1  0
 17 16  1  0
 18 17  1  0
 18 13  1  0
  1 19  1  0
  1 20  1  0
  1 21  1  0
  2 22  1  1
  6 23  1  0
  7 24  1  0
  9 25  1  0
 10 26  1  0
 11 27  1  0
 11 28  1  0
 11 29  1  0
 12 30  1  0
 12 31  1  0
 13 32  1  0
 14 33  1  0
 14 34  1  0
 15 35  1  0
 15 36  1  0
 16 37  1  0
 16 38  1  0
 17 39  1  0
 17 40  1  0
 18 41  1  0
 18 42  1  0
M  CHG  1  13   1
M  END
>  <score>  (5) 
-8.407

$$$$
=
     RDKit          3D

 42 43  0  0  0  0  0  0  0  0999 V2000
    0.7360   68.8840   63.9720 C   0  0  0  0  0  0  0  0  0  0  0  0
    2.2390   68.9650   64.2090 C   0  0  1  0  0  0  0  0  0  0  0  0
    2.5350   68.6750   65.6740 C   0  0  0  0  0  0  0  0  0  0  0  0
    1.8090   67.8850   66.2850 O   0  0  0  0  0  0  0  0  0  0  0  0
    3.6690   69.3470   66.3790 C   0  0  0  0  0  0  0  0  0  0  0  0
    3.4430   69.8260   67.6760 C   0  0  0  0  0  0  0  0  0  0  0  0
    4.4640   70.4590   68.3870 C   0  0  0  0  0  0  0  0  0  0  0  0
    5.7240   70.6350   67.8070 C   0  0  0  0  0  0  0  0  0  0  0  0
    5.9530   70.1490   66.5160 C   0  0  0  0  0  0  0  0  0  0  0  0
    4.9310   69.5150   65.8000 C   0  0  0  0  0  0  0  0  0  0  0  0
    6.8330   71.2880   68.5820 C   0  0  0  0  0  0  0  0  0  0  0  0
    3.0670   68.0170   63.3130 C   0  0  0  0  0  0  0  0  0  0  0  0
    3.5190   66.7390   64.0020 N   0  0  0  0  0  4  0  0  0  0  0  0
    2.4010   65.7830   64.3300 C   0  0  0  0  0  0  0  0  0  0  0  0
    2.9390   64.6380   65.1750 C   0  0  0  0  0  0  0  0  0  0  0  0
    4.0880   63.9180   64.4790 C   0  0  0  0  0  0  0  0  0  0  0  0
    5.1830   64.8970   64.0730 C   0  0  0  0  0  0  0  0  0  0  0  0
    4.6340   66.0490   63.2430 C   0  0  0  0  0  0  0  0  0  0  0  0
    0.2132   68.8558   64.9394 H   0  0  0  0  0  0  0  0  0  0  0  0
    0.4065   69.7657   63.4027 H   0  0  0  0  0  0  0  0  0  0  0  0
    0.5032   67.9720   63.4027 H   0  0  0  0  0  0  0  0  0  0  0  0
    2.5442   69.9867   63.9387 H   0  0  0  0  0  0  0  0  0  0  0  0
    2.4525   69.7022   68.1381 H   0  0  0  0  0  0  0  0  0  0  0  0
    4.2764   70.8211   69.4086 H   0  0  0  0  0  0  0  0  0  0  0  0
    6.9465   70.2661   66.0585 H   0  0  0  0  0  0  0  0  0  0  0  0
    5.1207   69.1483   64.7804 H   0  0  0  0  0  0  0  0  0  0  0  0
    6.6426   71.1759   69.6596 H   0  0  0  0  0  0  0  0  0  0  0  0
    7.7899   70.8092   68.3269 H   0  0  0  0  0  0  0  0  0  0  0  0
    6.8785   72.3571   68.3269 H   0  0  0  0  0  0  0  0  0  0  0  0
    2.4523   67.7406   62.4437 H   0  0  0  0  0  0  0  0  0  0  0  0
    3.9798   68.5643   63.0351 H   0  0  0  0  0  0  0  0  0  0  0  0
    3.8931   67.0467   64.9110 H   0  0  0  0  0  0  0  0  0  0  0  0
    1.6175   66.3145   64.8901 H   0  0  0  0  0  0  0  0  0  0  0  0
    1.9789   65.3811   63.3971 H   0  0  0  0  0  0  0  0  0  0  0  0
    3.2984   65.0402   66.1337 H   0  0  0  0  0  0  0  0  0  0  0  0
    2.1251   63.9149   65.3323 H   0  0  0  0  0  0  0  0  0  0  0  0
    4.5114   63.1697   65.1652 H   0  0  0  0  0  0  0  0  0  0  0  0
    3.6983   63.4335   63.5716 H   0  0  0  0  0  0  0  0  0  0  0  0
    5.6508   65.3043   64.9814 H   0  0  0  0  0  0  0  0  0  0  0  0
    5.9165   64.3534   63.4594 H   0  0  0  0  0  0  0  0  0  0  0  0
    5.4395   66.7703   63.0406 H   0  0  0  0  0  0  0  0  0  0  0  0
    4.2407   65.6585   62.2929 H   0  0  0  0  0  0  0  0  0  0  0  0
  2  1  1  0
  3  2  1  0
  4  3  2  0
  5  3  1  0
  6  5  2  0
  7  6  1  0
  8  7  2  0
  9  8  1  0
 10  9  2  0
 10  5  1  0
 11  8  1  0
 12  2  1  0
 13 12  1  0
 14 13  1  0
 15 14  1  0
 16 15  1  0
 17 16  1  0
 18 17  1  0
 18 13  1  0
  1 19  1  0
  1 20  1  0
  1 21  1  0
  2 22  1  6
  6 23  1  0
  7 24  1  0
  9 25  1  0
 10 26  1  0
 11 27  1  0
 11 28  1  0
 11 29  1  0
 12 30  1  0
 12 31  1  0
 13 32  1  0
 14 33  1  0
 14 34  1  0
 15 35  1  0
 15 36  1  0
 16 37  1  0
 16 38  1  0
 17 39  1  0
 17 40  1  0
 18 41  1  0
 18 42  1  0
M  CHG  1  13   1
M  END
>  <score>  (6) 
-8.327

$$$$
=
     RDKit          3D

 42 43  0  0  0  0  0  0  0  0999 V2000
    5.1380   69.4140   62.8550 C   0  0  0  0  0  0  0  0  0  0  0  0
    4.5610   69.2800   64.2590 C   0  0  1  0  0  0  0  0  0  0  0  0
    3.5870   68.1110   64.2940 C   0  0  0  0  0  0  0  0  0  0  0  0
    3.9950   66.9830   63.9980 O   0  0  0  0  0  0  0  0  0  0  0  0
    2.1520   68.3140   64.6580 C   0  0  0  0  0  0  0  0  0  0  0  0
    1.7640   68.0380   65.9760 C   0  0  0  0  0  0  0  0  0  0  0  0
    0.4380   68.2130   66.3770 C   0  0  0  0  0  0  0  0  0  0  0  0
   -0.5240   68.6520   65.4630 C   0  0  0  0  0  0  0  0  0  0  0  0
   -0.1360   68.9360   64.1500 C   0  0  0  0  0  0  0  0  0  0  0  0
    1.1920   68.7620   63.7440 C   0  0  0  0  0  0  0  0  0  0  0  0
   -1.9450   68.8700   65.9010 C   0  0  0  0  0  0  0  0  0  0  0  0
    5.6300   69.1010   65.3600 C   0  0  0  0  0  0  0  0  0  0  0  0
    5.4700   70.0390   66.5470 N   0  0  0  0  0  4  0  0  0  0  0  0
    4.3110   69.7040   67.4500 C   0  0  0  0  0  0  0  0  0  0  0  0
    4.1350   70.8040   68.4860 C   0  0  0  0  0  0  0  0  0  0  0  0
    5.4100   71.0250   69.2910 C   0  0  0  0  0  0  0  0  0  0  0  0
    6.6000   71.2830   68.3750 C   0  0  0  0  0  0  0  0  0  0  0  0
    6.7580   70.1880   67.3290 C   0  0  0  0  0  0  0  0  0  0  0  0
    6.2076   69.6624   62.9203 H   0  0  0  0  0  0  0  0  0  0  0  0
    5.0146   68.4633   62.3156 H   0  0  0  0  0  0  0  0  0  0  0  0
    4.6083   70.2130   62.3156 H   0  0  0  0  0  0  0  0  0  0  0  0
    4.0483   70.2277   64.4801 H   0  0  0  0  0  0  0  0  0  0  0  0
    2.5103   67.6805   66.7007 H   0  0  0  0  0  0  0  0  0  0  0  0
    0.1490   68.0043   67.4176 H   0  0  0  0  0  0  0  0  0  0  0  0
   -0.8824   69.3000   63.4286 H   0  0  0  0  0  0  0  0  0  0  0  0
    1.4814   68.9777   62.7049 H   0  0  0  0  0  0  0  0  0  0  0  0
   -1.9929   68.8774   66.9999 H   0  0  0  0  0  0  0  0  0  0  0  0
   -2.3049   69.8339   65.5118 H   0  0  0  0  0  0  0  0  0  0  0  0
   -2.5773   68.0583   65.5118 H   0  0  0  0  0  0  0  0  0  0  0  0
    5.5746   68.0662   65.7289 H   0  0  0  0  0  0  0  0  0  0  0  0
    6.5998   69.3394   64.8989 H   0  0  0  0  0  0  0  0  0  0  0  0
    5.2394   70.9534   66.1328 H   0  0  0  0  0  0  0  0  0  0  0  0
    3.3932   69.6163   66.8500 H   0  0  0  0  0  0  0  0  0  0  0  0
    4.5103   68.7504   67.9608 H   0  0  0  0  0  0  0  0  0  0  0  0
    3.8707   71.7398   67.9718 H   0  0  0  0  0  0  0  0  0  0  0  0
    3.3381   70.4988   69.1802 H   0  0  0  0  0  0  0  0  0  0  0  0
    5.2712   71.8928   69.9525 H   0  0  0  0  0  0  0  0  0  0  0  0
    5.6128   70.1182   69.8797 H   0  0  0  0  0  0  0  0  0  0  0  0
    6.4529   72.2455   67.8631 H   0  0  0  0  0  0  0  0  0  0  0  0
    7.5097   71.2982   68.9933 H   0  0  0  0  0  0  0  0  0  0  0  0
    7.5744   70.4542   66.6415 H   0  0  0  0  0  0  0  0  0  0  0  0
    6.9919   69.2370   67.8299 H   0  0  0  0  0  0  0  0  0  0  0  0
  2  1  1  0
  3  2  1  0
  4  3  2  0
  5  3  1  0
  6  5  2  0
  7  6  1  0
  8  7  2  0
  9  8  1  0
 10  9  2  0
 10  5  1  0
 11  8  1  0
 12  2  1  0
 13 12  1  0
 14 13  1  0
 15 14  1  0
 16 15  1  0
 17 16  1  0
 18 17  1  0
 18 13  1  0
  1 19  1  0
  1 20  1  0
  1 21  1  0
  2 22  1  1
  6 23  1  0
  7 24  1  0
  9 25  1  0
 10 26  1  0
 11 27  1  0
 11 28  1  0
 11 29  1  0
 12 30  1  0
 12 31  1  0
 13 32  1  0
 14 33  1  0
 14 34  1  0
 15 35  1  0
 15 36  1  0
 16 37  1  0
 16 38  1  0
 17 39  1  0
 17 40  1  0
 18 41  1  0
 18 42  1  0
M  CHG  1  13   1
M  END
>  <score>  (7) 
-8.068

$$$$
=
     RDKit          3D

 42 43  0  0  0  0  0  0  0  0999 V2000
    1.5430   67.5140   69.2510 C   0  0  0  0  0  0  0  0  0  0  0  0
    1.7070   68.2640   67.9350 C   0  0  1  0  0  0  0  0  0  0  0  0
    0.5130   67.9760   67.0370 C   0  0  0  0  0  0  0  0  0  0  0  0
   -0.4630   67.3850   67.5110 O   0  0  0  0  0  0  0  0  0  0  0  0
    0.5160   68.3750   65.5970 C   0  0  0  0  0  0  0  0  0  0  0  0
   -0.6990   68.7700   65.0230 C   0  0  0  0  0  0  0  0  0  0  0  0
   -0.7580   69.1580   63.6830 C   0  0  0  0  0  0  0  0  0  0  0  0
    0.3950   69.1440   62.8920 C   0  0  0  0  0  0  0  0  0  0  0  0
    1.6100   68.7580   63.4670 C   0  0  0  0  0  0  0  0  0  0  0  0
    1.6730   68.3690   64.8090 C   0  0  0  0  0  0  0  0  0  0  0  0
    0.3390   69.5910   61.4580 C   0  0  0  0  0  0  0  0  0  0  0  0
    1.8770   69.7920   68.1020 C   0  0  0  0  0  0  0  0  0  0  0  0
    3.2900   70.2960   67.8550 N   0  0  0  0  0  4  0  0  0  0  0  0
    4.0980   70.5160   69.1080 C   0  0  0  0  0  0  0  0  0  0  0  0
    5.4150   71.1910   68.7560 C   0  0  0  0  0  0  0  0  0  0  0  0
    6.2030   70.3830   67.7320 C   0  0  0  0  0  0  0  0  0  0  0  0
    5.3590   70.0890   66.4980 C   0  0  0  0  0  0  0  0  0  0  0  0
    4.0350   69.4300   66.8600 C   0  0  0  0  0  0  0  0  0  0  0  0
    1.6949   68.2086   70.0903 H   0  0  0  0  0  0  0  0  0  0  0  0
    0.5304   67.0878   69.3064 H   0  0  0  0  0  0  0  0  0  0  0  0
    2.2853   66.7041   69.3064 H   0  0  0  0  0  0  0  0  0  0  0  0
    2.6396   67.8987   67.4802 H   0  0  0  0  0  0  0  0  0  0  0  0
   -1.6144   68.7746   65.6329 H   0  0  0  0  0  0  0  0  0  0  0  0
   -1.7165   69.4764   63.2473 H   0  0  0  0  0  0  0  0  0  0  0  0
    2.5257   68.7604   62.8575 H   0  0  0  0  0  0  0  0  0  0  0  0
    2.6333   68.0578   65.2460 H   0  0  0  0  0  0  0  0  0  0  0  0
    0.2023   70.6818   61.4190 H   0  0  0  0  0  0  0  0  0  0  0  0
    1.2780   69.3208   60.9528 H   0  0  0  0  0  0  0  0  0  0  0  0
   -0.5043   69.0975   60.9528 H   0  0  0  0  0  0  0  0  0  0  0  0
    1.2035   70.2931   67.3911 H   0  0  0  0  0  0  0  0  0  0  0  0
    1.6399   70.0221   69.1512 H   0  0  0  0  0  0  0  0  0  0  0  0
    3.1684   71.2304   67.4390 H   0  0  0  0  0  0  0  0  0  0  0  0
    3.5322   71.1567   69.8003 H   0  0  0  0  0  0  0  0  0  0  0  0
    4.3016   69.5462   69.5855 H   0  0  0  0  0  0  0  0  0  0  0  0
    5.2055   72.1874   68.3398 H   0  0  0  0  0  0  0  0  0  0  0  0
    6.0185   71.2672   69.6725 H   0  0  0  0  0  0  0  0  0  0  0  0
    7.0928   70.9552   67.4306 H   0  0  0  0  0  0  0  0  0  0  0  0
    6.4952   69.4271   68.1912 H   0  0  0  0  0  0  0  0  0  0  0  0
    5.1543   71.0341   65.9737 H   0  0  0  0  0  0  0  0  0  0  0  0
    5.9219   69.3942   65.8574 H   0  0  0  0  0  0  0  0  0  0  0  0
    3.4260   69.3095   65.9519 H   0  0  0  0  0  0  0  0  0  0  0  0
    4.2287   68.4441   67.3078 H   0  0  0  0  0  0  0  0  0  0  0  0
  2  1  1  0
  3  2  1  0
  4  3  2  0
  5  3  1  0
  6  5  2  0
  7  6  1  0
  8  7  2  0
  9  8  1  0
 10  9  2  0
 10  5  1  0
 11  8  1  0
 12  2  1  0
 13 12  1  0
 14 13  1  0
 15 14  1  0
 16 15  1  0
 17 16  1  0
 18 17  1  0
 18 13  1  0
  1 19  1  0
  1 20  1  0
  1 21  1  0
  2 22  1  6
  6 23  1  0
  7 24  1  0
  9 25  1  0
 10 26  1  0
 11 27  1  0
 11 28  1  0
 11 29  1  0
 12 30  1  0
 12 31  1  0
 13 32  1  0
 14 33  1  0
 14 34  1  0
 15 35  1  0
 15 36  1  0
 16 37  1  0
 16 38  1  0
 17 39  1  0
 17 40  1  0
 18 41  1  0
 18 42  1  0
M  CHG  1  13   1
M  END
>  <score>  (8) 
-7.909

$$$$
=
     RDKit          3D

 42 43  0  0  0  0  0  0  0  0999 V2000
   -0.7220   60.5900   73.4660 C   0  0  0  0  0  0  0  0  0  0  0  0
    0.4200   61.0250   72.5550 C   0  0  1  0  0  0  0  0  0  0  0  0
    0.9520   62.3720   73.0230 C   0  0  0  0  0  0  0  0  0  0  0  0
    1.3550   62.4850   74.1850 O   0  0  0  0  0  0  0  0  0  0  0  0
    0.9730   63.5520   72.1070 C   0  0  0  0  0  0  0  0  0  0  0  0
    2.0010   63.6280   71.1580 C   0  0  0  0  0  0  0  0  0  0  0  0
    2.0710   64.7050   70.2710 C   0  0  0  0  0  0  0  0  0  0  0  0
    1.1220   65.7310   70.3300 C   0  0  0  0  0  0  0  0  0  0  0  0
    0.0910   65.6520   71.2720 C   0  0  0  0  0  0  0  0  0  0  0  0
    0.0180   64.5740   72.1610 C   0  0  0  0  0  0  0  0  0  0  0  0
    1.1790   66.8750   69.3580 C   0  0  0  0  0  0  0  0  0  0  0  0
    1.5790   60.0060   72.4740 C   0  0  0  0  0  0  0  0  0  0  0  0
    2.9020   60.5970   72.0100 N   0  0  0  0  0  4  0  0  0  0  0  0
    4.0430   60.3940   72.9730 C   0  0  0  0  0  0  0  0  0  0  0  0
    5.2570   61.1790   72.5000 C   0  0  0  0  0  0  0  0  0  0  0  0
    5.6600   60.7890   71.0830 C   0  0  0  0  0  0  0  0  0  0  0  0
    4.4830   60.9160   70.1230 C   0  0  0  0  0  0  0  0  0  0  0  0
    3.2670   60.1420   70.6130 C   0  0  0  0  0  0  0  0  0  0  0  0
   -0.4175   60.7060   74.5166 H   0  0  0  0  0  0  0  0  0  0  0  0
   -1.6060   61.2144   73.2694 H   0  0  0  0  0  0  0  0  0  0  0  0
   -0.9666   59.5357   73.2694 H   0  0  0  0  0  0  0  0  0  0  0  0
    0.0029   61.0961   71.5396 H   0  0  0  0  0  0  0  0  0  0  0  0
    2.7595   62.8327   71.1110 H   0  0  0  0  0  0  0  0  0  0  0  0
    2.8762   64.7464   69.5227 H   0  0  0  0  0  0  0  0  0  0  0  0
   -0.6699   66.4452   71.3143 H   0  0  0  0  0  0  0  0  0  0  0  0
   -0.7918   64.5295   72.9041 H   0  0  0  0  0  0  0  0  0  0  0  0
    1.2263   67.8244   69.9115 H   0  0  0  0  0  0  0  0  0  0  0  0
    2.0732   66.7744   68.7254 H   0  0  0  0  0  0  0  0  0  0  0  0
    0.2792   66.8638   68.7254 H   0  0  0  0  0  0  0  0  0  0  0  0
    1.7273   59.5729   73.4742 H   0  0  0  0  0  0  0  0  0  0  0  0
    1.2879   59.2574   71.7224 H   0  0  0  0  0  0  0  0  0  0  0  0
    2.7429   61.6143   71.9837 H   0  0  0  0  0  0  0  0  0  0  0  0
    3.7459   60.7463   73.9718 H   0  0  0  0  0  0  0  0  0  0  0  0
    4.2955   59.3244   73.0193 H   0  0  0  0  0  0  0  0  0  0  0  0
    5.0181   62.2525   72.5205 H   0  0  0  0  0  0  0  0  0  0  0  0
    6.0975   60.9507   73.1719 H   0  0  0  0  0  0  0  0  0  0  0  0
    6.4718   61.4502   70.7456 H   0  0  0  0  0  0  0  0  0  0  0  0
    5.9930   59.7407   71.0906 H   0  0  0  0  0  0  0  0  0  0  0  0
    4.2142   61.9784   70.0280 H   0  0  0  0  0  0  0  0  0  0  0  0
    4.7868   60.4965   69.1526 H   0  0  0  0  0  0  0  0  0  0  0  0
    2.4198   60.3250   69.9357 H   0  0  0  0  0  0  0  0  0  0  0  0
    3.5013   59.0674   70.6293 H   0  0  0  0  0  0  0  0  0  0  0  0
  2  1  1  0
  3  2  1  0
  4  3  2  0
  5  3  1  0
  6  5  2  0
  7  6  1  0
  8  7  2  0
  9  8  1  0
 10  9  2  0
 10  5  1  0
 11  8  1  0
 12  2  1  0
 13 12  1  0
 14 13  1  0
 15 14  1  0
 16 15  1  0
 17 16  1  0
 18 17  1  0
 18 13  1  0
  1 19  1  0
  1 20  1  0
  1 21  1  0
  2 22  1  6
  6 23  1  0
  7 24  1  0
  9 25  1  0
 10 26  1  0
 11 27  1  0
 11 28  1  0
 11 29  1  0
 12 30  1  0
 12 31  1  0
 13 32  1  0
 14 33  1  0
 14 34  1  0
 15 35  1  0
 15 36  1  0
 16 37  1  0
 16 38  1  0
 17 39  1  0
 17 40  1  0
 18 41  1  0
 18 42  1  0
M  CHG  1  13   1
M  END
>  <score>  (9) 
-7.567

$$$$
