=
     RDKit          3D

 32 34  0  0  0  0  0  0  0  0999 V2000
   -0.1170   68.3190   66.0650 C   0  0  0  0  0  0  0  0  0  0  0  0
    0.6380   68.2280   64.8770 C   0  0  0  0  0  0  0  0  0  0  0  0
    1.9890   68.5910   64.8230 C   0  0  0  0  0  0  0  0  0  0  0  0
    2.5370   69.0370   66.0170 C   0  0  0  0  0  0  0  0  0  0  0  0
    1.8470   69.1410   67.2140 C   0  0  0  0  0  0  0  0  0  0  0  0
    0.4950   68.7790   67.2510 C   0  0  0  0  0  0  0  0  0  0  0  0
    2.6900   69.6070   68.1960 N   0  0  0  0  0  0  0  0  0  0  0  0
    3.8380   69.7780   67.5680 C   0  0  0  0  0  0  0  0  0  0  0  0
    3.8200   69.4450   66.2370 O   0  0  0  0  0  0  0  0  0  0  0  0
    5.1100   70.2630   68.1020 C   0  0  0  0  0  0  0  0  0  0  0  0
    5.2660   70.4080   69.4920 C   0  0  0  0  0  0  0  0  0  0  0  0
    6.4680   70.8690   70.0340 C   0  0  0  0  0  0  0  0  0  0  0  0
    7.5210   71.1870   69.1870 C   0  0  0  0  0  0  0  0  0  0  0  0
    7.3940   71.0570   67.8090 C   0  0  0  0  0  0  0  0  0  0  0  0
    6.1910   70.5950   67.2680 C   0  0  0  0  0  0  0  0  0  0  0  0
    8.6760   71.6290   69.7040 F   0  0  0  0  0  0  0  0  0  0  0  0
   -1.5810   67.8940   66.0950 C   0  0  2  0  0  0  0  0  0  0  0  0
   -2.4950   69.0820   65.8000 C   0  0  0  0  0  0  0  0  0  0  0  0
   -1.1180   66.3250   67.8400 O   0  0  0  0  0  1  0  0  0  0  0  0
   -1.9400   67.1940   67.4250 C   0  0  0  0  0  0  0  0  0  0  0  0
   -3.0190   67.5840   67.9600 O   0  0  0  0  0  0  0  0  0  0  0  0
    0.1492   67.8597   63.9630 H   0  0  0  0  0  0  0  0  0  0  0  0
    2.5770   68.5269   63.8955 H   0  0  0  0  0  0  0  0  0  0  0  0
   -0.0793   68.8517   68.1863 H   0  0  0  0  0  0  0  0  0  0  0  0
    4.4305   70.1551   70.1613 H   0  0  0  0  0  0  0  0  0  0  0  0
    6.5793   70.9792   71.1228 H   0  0  0  0  0  0  0  0  0  0  0  0
    8.2347   71.3160   67.1486 H   0  0  0  0  0  0  0  0  0  0  0  0
    6.0894   70.4902   66.1777 H   0  0  0  0  0  0  0  0  0  0  0  0
   -1.7402   67.1522   65.2985 H   0  0  0  0  0  0  0  0  0  0  0  0
   -2.8365   69.5259   66.7468 H   0  0  0  0  0  0  0  0  0  0  0  0
   -1.9415   69.8354   65.2204 H   0  0  0  0  0  0  0  0  0  0  0  0
   -3.3652   68.7401   65.2204 H   0  0  0  0  0  0  0  0  0  0  0  0
  2  1  2  0
  3  2  1  0
  4  3  2  0
  5  4  1  0
  6  5  2  0
  6  1  1  0
  7  5  1  0
  8  7  2  0
  9  8  1  0
  9  4  1  0
 10  8  1  0
 11 10  2  0
 12 11  1  0
 13 12  2  0
 14 13  1  0
 15 10  1  0
 15 14  2  0
 16 13  1  0
 17  1  1  0
 18 17  1  0
 20 19  1  0
 20 17  1  0
 21 20  2  0
  2 22  1  0
  3 23  1  0
  6 24  1  0
 11 25  1  0
 12 26  1  0
 14 27  1  0
 15 28  1  0
 17 29  1  6
 18 30  1  0
 18 31  1  0
 18 32  1  0
M  CHG  1  19  -1
M  END
>  <score>  (1) 
-9.192

$$$$
=
     RDKit          3D

 32 34  0  0  0  0  0  0  0  0999 V2000
   -0.6120   68.4770   66.9390 C   0  0  0  0  0  0  0  0  0  0  0  0
    0.6100   69.0700   67.3170 C   0  0  0  0  0  0  0  0  0  0  0  0
    1.4340   68.5150   68.3040 C   0  0  0  0  0  0  0  0  0  0  0  0
    0.9720   67.3400   68.8780 C   0  0  0  0  0  0  0  0  0  0  0  0
   -0.2150   66.7100   68.5440 C   0  0  0  0  0  0  0  0  0  0  0  0
   -1.0300   67.2790   67.5580 C   0  0  0  0  0  0  0  0  0  0  0  0
   -0.3620   65.5680   69.2960 N   0  0  0  0  0  0  0  0  0  0  0  0
    0.7180   65.5530   70.0560 C   0  0  0  0  0  0  0  0  0  0  0  0
    1.5790   66.6010   69.8510 O   0  0  0  0  0  0  0  0  0  0  0  0
    1.1100   64.5740   71.0690 C   0  0  0  0  0  0  0  0  0  0  0  0
    2.2940   63.8360   70.8960 C   0  0  0  0  0  0  0  0  0  0  0  0
    2.6960   62.8930   71.8460 C   0  0  0  0  0  0  0  0  0  0  0  0
    1.9130   62.6850   72.9740 C   0  0  0  0  0  0  0  0  0  0  0  0
    0.7380   63.3980   73.1700 C   0  0  0  0  0  0  0  0  0  0  0  0
    0.3360   64.3420   72.2190 C   0  0  0  0  0  0  0  0  0  0  0  0
    2.2970   61.7820   73.8870 F   0  0  0  0  0  0  0  0  0  0  0  0
   -1.4750   69.0940   65.8450 C   0  0  2  0  0  0  0  0  0  0  0  0
   -2.9470   68.7450   66.0550 C   0  0  0  0  0  0  0  0  0  0  0  0
    0.2470   68.3750   64.3480 O   0  0  0  0  0  1  0  0  0  0  0  0
   -0.9740   68.6990   64.4380 C   0  0  0  0  0  0  0  0  0  0  0  0
   -1.8540   68.7300   63.5290 O   0  0  0  0  0  0  0  0  0  0  0  0
    0.9265   69.9991   66.8204 H   0  0  0  0  0  0  0  0  0  0  0  0
    2.3846   68.9801   68.6041 H   0  0  0  0  0  0  0  0  0  0  0  0
   -1.9784   66.8015   67.2709 H   0  0  0  0  0  0  0  0  0  0  0  0
    2.9120   64.0029   70.0014 H   0  0  0  0  0  0  0  0  0  0  0  0
    3.6242   62.3207   71.7016 H   0  0  0  0  0  0  0  0  0  0  0  0
    0.1269   63.2218   74.0675 H   0  0  0  0  0  0  0  0  0  0  0  0
   -0.5946   64.9080   72.3727 H   0  0  0  0  0  0  0  0  0  0  0  0
   -1.3849   70.1882   65.9131 H   0  0  0  0  0  0  0  0  0  0  0  0
   -3.1616   68.6941   67.1327 H   0  0  0  0  0  0  0  0  0  0  0  0
   -3.5770   69.5187   65.5918 H   0  0  0  0  0  0  0  0  0  0  0  0
   -3.1626   67.7708   65.5918 H   0  0  0  0  0  0  0  0  0  0  0  0
  2  1  2  0
  3  2  1  0
  4  3  2  0
  5  4  1  0
  6  5  2  0
  6  1  1  0
  7  5  1  0
  8  7  2  0
  9  8  1  0
  9  4  1  0
 10  8  1  0
 11 10  2  0
 12 11  1  0
 13 12  2  0
 14 13  1  0
 15 10  1  0
 15 14  2  0
 16 13  1  0
 17  1  1  0
 18 17  1  0
 20 19  1  0
 20 17  1  0
 21 20  2  0
  2 22  1  0
  3 23  1  0
  6 24  1  0
 11 25  1  0
 12 26  1  0
 14 27  1  0
 15 28  1  0
 17 29  1  6
 18 30  1  0
 18 31  1  0
 18 32  1  0
M  CHG  1  19  -1
M  END
>  <score>  (2) 
-8.694

$$$$
=
     RDKit          3D

 32 34  0  0  0  0  0  0  0  0999 V2000
    2.5600   62.6430   72.2550 C   0  0  0  0  0  0  0  0  0  0  0  0
    1.3700   62.8850   72.9720 C   0  0  0  0  0  0  0  0  0  0  0  0
    0.4300   63.8350   72.5570 C   0  0  0  0  0  0  0  0  0  0  0  0
    0.7430   64.5170   71.3900 C   0  0  0  0  0  0  0  0  0  0  0  0
    1.8910   64.3180   70.6420 C   0  0  0  0  0  0  0  0  0  0  0  0
    2.8250   63.3670   71.0730 C   0  0  0  0  0  0  0  0  0  0  0  0
    1.8810   65.1490   69.5470 N   0  0  0  0  0  0  0  0  0  0  0  0
    0.7510   65.8200   69.6730 C   0  0  0  0  0  0  0  0  0  0  0  0
    0.0030   65.4820   70.7730 O   0  0  0  0  0  0  0  0  0  0  0  0
    0.2010   66.8570   68.8020 C   0  0  0  0  0  0  0  0  0  0  0  0
   -1.1250   66.7470   68.3470 C   0  0  0  0  0  0  0  0  0  0  0  0
   -1.6800   67.7210   67.5140 C   0  0  0  0  0  0  0  0  0  0  0  0
   -0.9100   68.8120   67.1320 C   0  0  0  0  0  0  0  0  0  0  0  0
    0.4030   68.9460   67.5650 C   0  0  0  0  0  0  0  0  0  0  0  0
    0.9580   67.9710   68.3990 C   0  0  0  0  0  0  0  0  0  0  0  0
   -1.4410   69.7490   66.3340 F   0  0  0  0  0  0  0  0  0  0  0  0
    3.5530   61.5850   72.7220 C   0  0  2  0  0  0  0  0  0  0  0  0
    4.8860   61.7340   71.9910 C   0  0  0  0  0  0  0  0  0  0  0  0
    2.7870   59.5270   73.6690 O   0  0  0  0  0  1  0  0  0  0  0  0
    2.9670   60.1620   72.5890 C   0  0  0  0  0  0  0  0  0  0  0  0
    2.7190   59.7950   71.4040 O   0  0  0  0  0  0  0  0  0  0  0  0
    1.1742   62.3079   73.8878 H   0  0  0  0  0  0  0  0  0  0  0  0
   -0.4957   64.0282   73.1188 H   0  0  0  0  0  0  0  0  0  0  0  0
    3.7474   63.1880   70.5010 H   0  0  0  0  0  0  0  0  0  0  0  0
   -1.7332   65.8824   68.6512 H   0  0  0  0  0  0  0  0  0  0  0  0
   -2.7182   67.6249   67.1634 H   0  0  0  0  0  0  0  0  0  0  0  0
    1.0025   69.8141   67.2535 H   0  0  0  0  0  0  0  0  0  0  0  0
    1.9974   68.0765   68.7434 H   0  0  0  0  0  0  0  0  0  0  0  0
    3.7475   61.7443   73.7929 H   0  0  0  0  0  0  0  0  0  0  0  0
    5.6992   61.8249   72.7262 H   0  0  0  0  0  0  0  0  0  0  0  0
    5.0591   60.8496   71.3602 H   0  0  0  0  0  0  0  0  0  0  0  0
    4.8596   62.6348   71.3602 H   0  0  0  0  0  0  0  0  0  0  0  0
  2  1  2  0
  3  2  1  0
  4  3  2  0
  5  4  1  0
  6  5  2  0
  6  1  1  0
  7  5  1  0
  8  7  2  0
  9  8  1  0
  9  4  1  0
 10  8  1  0
 11 10  2  0
 12 11  1  0
 13 12  2  0
 14 13  1  0
 15 10  1  0
 15 14  2  0
 16 13  1  0
 17  1  1  0
 18 17  1  0
 20 19  1  0
 20 17  1  0
 21 20  2  0
  2 22  1  0
  3 23  1  0
  6 24  1  0
 11 25  1  0
 12 26  1  0
 14 27  1  0
 15 28  1  0
 17 29  1  1
 18 30  1  0
 18 31  1  0
 18 32  1  0
M  CHG  1  19  -1
M  END
>  <score>  (3) 
-8.451

$$$$
=
     RDKit          3D

 32 34  0  0  0  0  0  0  0  0999 V2000
    2.1680   68.7940   63.2070 C   0  0  0  0  0  0  0  0  0  0  0  0
    3.4150   68.7510   62.5500 C   0  0  0  0  0  0  0  0  0  0  0  0
    4.6170   69.0230   63.2140 C   0  0  0  0  0  0  0  0  0  0  0  0
    4.5000   69.3290   64.5620 C   0  0  0  0  0  0  0  0  0  0  0  0
    3.3060   69.3810   65.2600 C   0  0  0  0  0  0  0  0  0  0  0  0
    2.1110   69.1110   64.5810 C   0  0  0  0  0  0  0  0  0  0  0  0
    3.5500   69.7040   66.5740 N   0  0  0  0  0  0  0  0  0  0  0  0
    4.8620   69.8470   66.6230 C   0  0  0  0  0  0  0  0  0  0  0  0
    5.5070   69.6280   65.4320 O   0  0  0  0  0  0  0  0  0  0  0  0
    5.7020   70.1970   67.7680 C   0  0  0  0  0  0  0  0  0  0  0  0
    5.1310   70.2620   69.0500 C   0  0  0  0  0  0  0  0  0  0  0  0
    5.9070   70.5940   70.1640 C   0  0  0  0  0  0  0  0  0  0  0  0
    7.2590   70.8620   69.9980 C   0  0  0  0  0  0  0  0  0  0  0  0
    7.8490   70.8070   68.7420 C   0  0  0  0  0  0  0  0  0  0  0  0
    7.0730   70.4750   67.6280 C   0  0  0  0  0  0  0  0  0  0  0  0
    8.0050   71.1790   71.0650 F   0  0  0  0  0  0  0  0  0  0  0  0
    0.8800   68.4710   62.4600 C   0  0  2  0  0  0  0  0  0  0  0  0
    0.6720   69.4370   61.2950 C   0  0  0  0  0  0  0  0  0  0  0  0
   -1.4380   68.8250   62.9340 O   0  0  0  0  0  1  0  0  0  0  0  0
   -0.3340   68.4340   63.4140 C   0  0  0  0  0  0  0  0  0  0  0  0
   -0.0860   67.9980   64.5770 O   0  0  0  0  0  0  0  0  0  0  0  0
    3.4442   68.4953   61.4805 H   0  0  0  0  0  0  0  0  0  0  0  0
    5.5897   68.9959   62.7010 H   0  0  0  0  0  0  0  0  0  0  0  0
    1.1465   69.1454   65.1087 H   0  0  0  0  0  0  0  0  0  0  0  0
    4.0595   70.0489   69.1786 H   0  0  0  0  0  0  0  0  0  0  0  0
    5.4504   70.6425   71.1636 H   0  0  0  0  0  0  0  0  0  0  0  0
    8.9211   71.0235   68.6246 H   0  0  0  0  0  0  0  0  0  0  0  0
    7.5392   70.4308   66.6327 H   0  0  0  0  0  0  0  0  0  0  0  0
    0.9746   67.4609   62.0348 H   0  0  0  0  0  0  0  0  0  0  0  0
    0.4556   70.4420   61.6862 H   0  0  0  0  0  0  0  0  0  0  0  0
    1.5833   69.4713   60.6800 H   0  0  0  0  0  0  0  0  0  0  0  0
   -0.1727   69.0932   60.6800 H   0  0  0  0  0  0  0  0  0  0  0  0
  2  1  2  0
  3  2  1  0
  4  3  2  0
  5  4  1  0
  6  5  2  0
  6  1  1  0
  7  5  1  0
  8  7  2  0
  9  8  1  0
  9  4  1  0
 10  8  1  0
 11 10  2  0
 12 11  1  0
 13 12  2  0
 14 13  1  0
 15 10  1  0
 15 14  2  0
 16 13  1  0
 17  1  1  0
 18 17  1  0
 20 19  1  0
 20 17  1  0
 21 20  2  0
  2 22  1  0
  3 23  1  0
  6 24  1  0
 11 25  1  0
 12 26  1  0
 14 27  1  0
 15 28  1  0
 17 29  1  6
 18 30  1  0
 18 31  1  0
 18 32  1  0
M  CHG  1  19  -1
M  END
>  <score>  (4) 
-8.331

$$$$
=
     RDKit          3D

 32 34  0  0  0  0  0  0  0  0999 V2000
    3.6870   61.4090   71.0470 C   0  0  0  0  0  0  0  0  0  0  0  0
    3.4650   61.8590   72.3640 C   0  0  0  0  0  0  0  0  0  0  0  0
    2.9020   61.0380   73.3480 C   0  0  0  0  0  0  0  0  0  0  0  0
    2.5850   59.7500   72.9430 C   0  0  0  0  0  0  0  0  0  0  0  0
    2.7850   59.2500   71.6670 C   0  0  0  0  0  0  0  0  0  0  0  0
    3.3450   60.0860   70.6920 C   0  0  0  0  0  0  0  0  0  0  0  0
    2.3700   57.9410   71.6100 N   0  0  0  0  0  0  0  0  0  0  0  0
    1.9290   57.7000   72.8310 C   0  0  0  0  0  0  0  0  0  0  0  0
    2.0340   58.7570   73.6990 O   0  0  0  0  0  0  0  0  0  0  0  0
    1.3550   56.4670   73.3690 C   0  0  0  0  0  0  0  0  0  0  0  0
   -0.0290   56.3910   73.6010 C   0  0  0  0  0  0  0  0  0  0  0  0
   -0.6070   55.2270   74.1140 C   0  0  0  0  0  0  0  0  0  0  0  0
    0.1990   54.1330   74.3980 C   0  0  0  0  0  0  0  0  0  0  0  0
    1.5700   54.1800   74.1810 C   0  0  0  0  0  0  0  0  0  0  0  0
    2.1480   55.3450   73.6670 C   0  0  0  0  0  0  0  0  0  0  0  0
   -0.3530   53.0150   74.8890 F   0  0  0  0  0  0  0  0  0  0  0  0
    4.3240   62.3220   70.0050 C   0  0  2  0  0  0  0  0  0  0  0  0
    5.1070   63.4470   70.6780 C   0  0  0  0  0  0  0  0  0  0  0  0
    2.1150   63.0650   69.4650 O   0  0  0  0  0  1  0  0  0  0  0  0
    3.2750   62.8540   69.0040 C   0  0  0  0  0  0  0  0  0  0  0  0
    3.7040   63.0340   67.8260 O   0  0  0  0  0  0  0  0  0  0  0  0
    3.7435   62.8900   72.6275 H   0  0  0  0  0  0  0  0  0  0  0  0
    2.7229   61.3909   74.3743 H   0  0  0  0  0  0  0  0  0  0  0  0
    3.5150   59.7185   69.6692 H   0  0  0  0  0  0  0  0  0  0  0  0
   -0.6656   57.2593   73.3757 H   0  0  0  0  0  0  0  0  0  0  0  0
   -1.6915   55.1779   74.2913 H   0  0  0  0  0  0  0  0  0  0  0  0
    2.1972   53.3064   74.4120 H   0  0  0  0  0  0  0  0  0  0  0  0
    3.2336   55.3839   73.4942 H   0  0  0  0  0  0  0  0  0  0  0  0
    5.0422   61.7289   69.4198 H   0  0  0  0  0  0  0  0  0  0  0  0
    5.0339   63.3420   71.7705 H   0  0  0  0  0  0  0  0  0  0  0  0
    6.1627   63.3917   70.3741 H   0  0  0  0  0  0  0  0  0  0  0  0
    4.6884   64.4178   70.3741 H   0  0  0  0  0  0  0  0  0  0  0  0
  2  1  2  0
  3  2  1  0
  4  3  2  0
  5  4  1  0
  6  5  2  0
  6  1  1  0
  7  5  1  0
  8  7  2  0
  9  8  1  0
  9  4  1  0
 10  8  1  0
 11 10  2  0
 12 11  1  0
 13 12  2  0
 14 13  1  0
 15 10  1  0
 15 14  2  0
 16 13  1  0
 17  1  1  0
 18 17  1  0
 20 19  1  0
 20 17  1  0
 21 20  2  0
  2 22  1  0
  3 23  1  0
  6 24  1  0
 11 25  1  0
 12 26  1  0
 14 27  1  0
 15 28  1  0
 17 29  1  6
 18 30  1  0
 18 31  1  0
 18 32  1  0
M  CHG  1  19  -1
M  END
>  <score>  (5) 
-8.059

$$$$
=
     RDKit          3D

 32 34  0  0  0  0  0  0  0  0999 V2000
    2.5200   62.5530   70.9060 C   0  0  0  0  0  0  0  0  0  0  0  0
    1.6580   63.6680   70.8980 C   0  0  0  0  0  0  0  0  0  0  0  0
    0.3990   63.6410   71.5100 C   0  0  0  0  0  0  0  0  0  0  0  0
    0.0610   62.4480   72.1310 C   0  0  0  0  0  0  0  0  0  0  0  0
    0.8680   61.3230   72.1760 C   0  0  0  0  0  0  0  0  0  0  0  0
    2.1230   61.3640   71.5550 C   0  0  0  0  0  0  0  0  0  0  0  0
    0.2330   60.3240   72.8750 N   0  0  0  0  0  0  0  0  0  0  0  0
   -0.9220   60.8640   73.2140 C   0  0  0  0  0  0  0  0  0  0  0  0
   -1.0940   62.1600   72.7980 O   0  0  0  0  0  0  0  0  0  0  0  0
   -2.0240   60.2690   73.9690 C   0  0  0  0  0  0  0  0  0  0  0  0
   -3.2690   60.9210   74.0050 C   0  0  0  0  0  0  0  0  0  0  0  0
   -4.3420   60.3770   74.7170 C   0  0  0  0  0  0  0  0  0  0  0  0
   -4.1720   59.1780   75.3970 C   0  0  0  0  0  0  0  0  0  0  0  0
   -2.9520   58.5140   75.3800 C   0  0  0  0  0  0  0  0  0  0  0  0
   -1.8800   59.0570   74.6670 C   0  0  0  0  0  0  0  0  0  0  0  0
   -5.2000   58.6550   76.0800 F   0  0  0  0  0  0  0  0  0  0  0  0
    3.8940   62.6230   70.2490 C   0  0  2  0  0  0  0  0  0  0  0  0
    3.7640   62.7380   68.7320 C   0  0  0  0  0  0  0  0  0  0  0  0
    4.7980   60.4370   69.8920 O   0  0  0  0  0  1  0  0  0  0  0  0
    4.7850   61.4340   70.6720 C   0  0  0  0  0  0  0  0  0  0  0  0
    5.4180   61.5990   71.7560 O   0  0  0  0  0  0  0  0  0  0  0  0
    1.9851   64.5897   70.3944 H   0  0  0  0  0  0  0  0  0  0  0  0
   -0.2772   64.5086   71.4990 H   0  0  0  0  0  0  0  0  0  0  0  0
    2.7863   60.4866   71.5728 H   0  0  0  0  0  0  0  0  0  0  0  0
   -3.4004   61.8710   73.4662 H   0  0  0  0  0  0  0  0  0  0  0  0
   -5.3126   60.8941   74.7385 H   0  0  0  0  0  0  0  0  0  0  0  0
   -2.8305   57.5661   75.9247 H   0  0  0  0  0  0  0  0  0  0  0  0
   -0.9140   58.5311   74.6516 H   0  0  0  0  0  0  0  0  0  0  0  0
    4.3980   63.5339   70.6043 H   0  0  0  0  0  0  0  0  0  0  0  0
    2.9610   63.4483   68.4856 H   0  0  0  0  0  0  0  0  0  0  0  0
    4.7137   63.0970   68.3088 H   0  0  0  0  0  0  0  0  0  0  0  0
    3.5236   61.7516   68.3088 H   0  0  0  0  0  0  0  0  0  0  0  0
  2  1  2  0
  3  2  1  0
  4  3  2  0
  5  4  1  0
  6  5  2  0
  6  1  1  0
  7  5  1  0
  8  7  2  0
  9  8  1  0
  9  4  1  0
 10  8  1  0
 11 10  2  0
 12 11  1  0
 13 12  2  0
 14 13  1  0
 15 10  1  0
 15 14  2  0
 16 13  1  0
 17  1  1  0
 18 17  1  0
 20 19  1  0
 20 17  1  0
 21 20  2  0
  2 22  1  0
  3 23  1  0
  6 24  1  0
 11 25  1  0
 12 26  1  0
 14 27  1  0
 15 28  1  0
 17 29  1  1
 18 30  1  0
 18 31  1  0
 18 32  1  0
M  CHG  1  19  -1
M  END
>  <score>  (6) 
-8.043

$$$$
=
     RDKit          3D

 32 34  0  0  0  0  0  0  0  0999 V2000
    2.7520   61.2740   71.1750 C   0  0  0  0  0  0  0  0  0  0  0  0
    3.5320   60.4050   70.3840 C   0  0  0  0  0  0  0  0  0  0  0  0
    3.5170   59.0170   70.5640 C   0  0  0  0  0  0  0  0  0  0  0  0
    2.6770   58.5530   71.5660 C   0  0  0  0  0  0  0  0  0  0  0  0
    1.8850   59.3560   72.3690 C   0  0  0  0  0  0  0  0  0  0  0  0
    1.9150   60.7440   72.1800 C   0  0  0  0  0  0  0  0  0  0  0  0
    1.1740   58.5760   73.2490 N   0  0  0  0  0  0  0  0  0  0  0  0
    1.5620   57.3470   72.9620 C   0  0  0  0  0  0  0  0  0  0  0  0
    2.4750   57.2570   71.9410 O   0  0  0  0  0  0  0  0  0  0  0  0
    1.1460   56.0880   73.5790 C   0  0  0  0  0  0  0  0  0  0  0  0
   -0.2190   55.8530   73.8190 C   0  0  0  0  0  0  0  0  0  0  0  0
   -0.6480   54.6610   74.4060 C   0  0  0  0  0  0  0  0  0  0  0  0
    0.2880   53.6960   74.7570 C   0  0  0  0  0  0  0  0  0  0  0  0
    1.6430   53.9030   74.5330 C   0  0  0  0  0  0  0  0  0  0  0  0
    2.0720   55.0960   73.9450 C   0  0  0  0  0  0  0  0  0  0  0  0
   -0.1220   52.5510   75.3200 F   0  0  0  0  0  0  0  0  0  0  0  0
    2.7750   62.7800   70.9380 C   0  0  2  0  0  0  0  0  0  0  0  0
    1.3680   63.3060   70.6650 C   0  0  0  0  0  0  0  0  0  0  0  0
    3.3180   63.1540   68.6390 O   0  0  0  0  0  1  0  0  0  0  0  0
    3.7710   63.1610   69.8210 C   0  0  0  0  0  0  0  0  0  0  0  0
    4.9360   63.4550   70.2200 O   0  0  0  0  0  0  0  0  0  0  0  0
    4.1736   60.8324   69.5993 H   0  0  0  0  0  0  0  0  0  0  0  0
    4.1303   58.3393   69.9519 H   0  0  0  0  0  0  0  0  0  0  0  0
    1.2979   61.4079   72.8031 H   0  0  0  0  0  0  0  0  0  0  0  0
   -0.9587   56.6181   73.5407 H   0  0  0  0  0  0  0  0  0  0  0  0
   -1.7186   54.4872   74.5891 H   0  0  0  0  0  0  0  0  0  0  0  0
    2.3745   53.1321   74.8169 H   0  0  0  0  0  0  0  0  0  0  0  0
    3.1450   55.2603   73.7669 H   0  0  0  0  0  0  0  0  0  0  0  0
    3.1338   63.2677   71.8564 H   0  0  0  0  0  0  0  0  0  0  0  0
    0.8564   63.4973   71.6198 H   0  0  0  0  0  0  0  0  0  0  0  0
    1.4314   64.2411   70.0892 H   0  0  0  0  0  0  0  0  0  0  0  0
    0.8024   62.5586   70.0892 H   0  0  0  0  0  0  0  0  0  0  0  0
  2  1  2  0
  3  2  1  0
  4  3  2  0
  5  4  1  0
  6  5  2  0
  6  1  1  0
  7  5  1  0
  8  7  2  0
  9  8  1  0
  9  4  1  0
 10  8  1  0
 11 10  2  0
 12 11  1  0
 13 12  2  0
 14 13  1  0
 15 10  1  0
 15 14  2  0
 16 13  1  0
 17  1  1  0
 18 17  1  0
 20 19  1  0
 20 17  1  0
 21 20  2  0
  2 22  1  0
  3 23  1  0
  6 24  1  0
 11 25  1  0
 12 26  1  0
 14 27  1  0
 15 28  1  0
 17 29  1  1
 18 30  1  0
 18 31  1  0
 18 32  1  0
M  CHG  1  19  -1
M  END
>  <score>  (7) 
-7.846

$$$$
=
     RDKit          3D

 32 34  0  0  0  0  0  0  0  0999 V2000
   -0.0670   56.5120   73.9880 C   0  0  0  0  0  0  0  0  0  0  0  0
   -0.8980   57.6020   74.3180 C   0  0  0  0  0  0  0  0  0  0  0  0
   -0.5670   58.9200   73.9810 C   0  0  0  0  0  0  0  0  0  0  0  0
    0.6270   59.0810   73.2940 C   0  0  0  0  0  0  0  0  0  0  0  0
    1.4790   58.0490   72.9380 C   0  0  0  0  0  0  0  0  0  0  0  0
    1.1370   56.7360   73.2860 C   0  0  0  0  0  0  0  0  0  0  0  0
    2.5640   58.5550   72.2610 N   0  0  0  0  0  0  0  0  0  0  0  0
    2.3410   59.8560   72.2420 C   0  0  0  0  0  0  0  0  0  0  0  0
    1.1740   60.2480   72.8490 O   0  0  0  0  0  0  0  0  0  0  0  0
    3.1630   60.9170   71.6590 C   0  0  0  0  0  0  0  0  0  0  0  0
    4.5130   61.0290   72.0330 C   0  0  0  0  0  0  0  0  0  0  0  0
    5.3250   62.0300   71.4950 C   0  0  0  0  0  0  0  0  0  0  0  0
    4.7880   62.9250   70.5780 C   0  0  0  0  0  0  0  0  0  0  0  0
    3.4560   62.8390   70.1930 C   0  0  0  0  0  0  0  0  0  0  0  0
    2.6440   61.8360   70.7310 C   0  0  0  0  0  0  0  0  0  0  0  0
    5.5650   63.8860   70.0600 F   0  0  0  0  0  0  0  0  0  0  0  0
   -0.4670   55.0860   74.3500 C   0  0  2  0  0  0  0  0  0  0  0  0
   -1.7990   55.0710   75.0970 C   0  0  0  0  0  0  0  0  0  0  0  0
    1.3770   53.5680   74.4680 O   0  0  0  0  0  1  0  0  0  0  0  0
    0.6530   54.3660   75.1320 C   0  0  0  0  0  0  0  0  0  0  0  0
    0.7280   54.6690   76.3590 O   0  0  0  0  0  0  0  0  0  0  0  0
   -1.8371   57.4107   74.8579 H   0  0  0  0  0  0  0  0  0  0  0  0
   -1.2115   59.7718   74.2438 H   0  0  0  0  0  0  0  0  0  0  0  0
    1.7940   55.8956   73.0174 H   0  0  0  0  0  0  0  0  0  0  0  0
    4.9358   60.3190   72.7590 H   0  0  0  0  0  0  0  0  0  0  0  0
    6.3804   62.1091   71.7947 H   0  0  0  0  0  0  0  0  0  0  0  0
    3.0423   63.5562   69.4687 H   0  0  0  0  0  0  0  0  0  0  0  0
    1.5897   61.7656   70.4253 H   0  0  0  0  0  0  0  0  0  0  0  0
   -0.6092   54.5209   73.4170 H   0  0  0  0  0  0  0  0  0  0  0  0
   -1.6116   55.0731   76.1809 H   0  0  0  0  0  0  0  0  0  0  0  0
   -2.3825   55.9626   74.8241 H   0  0  0  0  0  0  0  0  0  0  0  0
   -2.3623   54.1665   74.8241 H   0  0  0  0  0  0  0  0  0  0  0  0
  2  1  2  0
  3  2  1  0
  4  3  2  0
  5  4  1  0
  6  5  2  0
  6  1  1  0
  7  5  1  0
  8  7  2  0
  9  8  1  0
  9  4  1  0
 10  8  1  0
 11 10  2  0
 12 11  1  0
 13 12  2  0
 14 13  1  0
 15 10  1  0
 15 14  2  0
 16 13  1  0
 17  1  1  0
 18 17  1  0
 20 19  1  0
 20 17  1  0
 21 20  2  0
  2 22  1  0
  3 23  1  0
  6 24  1  0
 11 25  1  0
 12 26  1  0
 14 27  1  0
 15 28  1  0
 17 29  1  6
 18 30  1  0
 18 31  1  0
 18 32  1  0
M  CHG  1  19  -1
M  END
>  <score>  (8) 
-7.732

$$$$
=
     RDKit          3D

 32 34  0  0  0  0  0  0  0  0999 V2000
    0.6620   68.4070   65.5690 C   0  0  0  0  0  0  0  0  0  0  0  0
   -0.7360   68.3840   65.7530 C   0  0  0  0  0  0  0  0  0  0  0  0
   -1.3320   67.7780   66.8650 C   0  0  0  0  0  0  0  0  0  0  0  0
   -0.4560   67.2090   67.7770 C   0  0  0  0  0  0  0  0  0  0  0  0
    0.9240   67.2050   67.6540 C   0  0  0  0  0  0  0  0  0  0  0  0
    1.5050   67.8120   66.5330 C   0  0  0  0  0  0  0  0  0  0  0  0
    1.4860   66.5670   68.7340 N   0  0  0  0  0  0  0  0  0  0  0  0
    0.4430   66.2010   69.4580 C   0  0  0  0  0  0  0  0  0  0  0  0
   -0.7730   66.5640   68.9370 O   0  0  0  0  0  0  0  0  0  0  0  0
    0.4210   65.4750   70.7270 C   0  0  0  0  0  0  0  0  0  0  0  0
    1.0650   64.2290   70.8220 C   0  0  0  0  0  0  0  0  0  0  0  0
    1.0620   63.5100   72.0200 C   0  0  0  0  0  0  0  0  0  0  0  0
    0.4140   64.0370   73.1300 C   0  0  0  0  0  0  0  0  0  0  0  0
   -0.2320   65.2650   73.0640 C   0  0  0  0  0  0  0  0  0  0  0  0
   -0.2280   65.9840   71.8650 C   0  0  0  0  0  0  0  0  0  0  0  0
    0.4100   63.3500   74.2810 F   0  0  0  0  0  0  0  0  0  0  0  0
    1.2810   69.0950   64.3580 C   0  0  2  0  0  0  0  0  0  0  0  0
    0.3510   69.0030   63.1500 C   0  0  0  0  0  0  0  0  0  0  0  0
    3.6650   69.2780   64.4020 O   0  0  0  0  0  1  0  0  0  0  0  0
    2.6930   68.5460   64.0550 C   0  0  0  0  0  0  0  0  0  0  0  0
    2.7160   67.4080   63.5010 O   0  0  0  0  0  0  0  0  0  0  0  0
   -1.3795   68.8582   64.9973 H   0  0  0  0  0  0  0  0  0  0  0  0
   -2.4227   67.7547   67.0061 H   0  0  0  0  0  0  0  0  0  0  0  0
    2.5976   67.8249   66.4061 H   0  0  0  0  0  0  0  0  0  0  0  0
    1.5780   63.8147   69.9416 H   0  0  0  0  0  0  0  0  0  0  0  0
    1.5682   62.5355   72.0836 H   0  0  0  0  0  0  0  0  0  0  0  0
   -0.7437   65.6693   73.9499 H   0  0  0  0  0  0  0  0  0  0  0  0
   -0.7377   66.9574   71.8118 H   0  0  0  0  0  0  0  0  0  0  0  0
    1.4054   70.1619   64.5949 H   0  0  0  0  0  0  0  0  0  0  0  0
   -0.6886   68.9002   63.4946 H   0  0  0  0  0  0  0  0  0  0  0  0
    0.4475   69.9151   62.5427 H   0  0  0  0  0  0  0  0  0  0  0  0
    0.6243   68.1275   62.5427 H   0  0  0  0  0  0  0  0  0  0  0  0
  2  1  2  0
  3  2  1  0
  4  3  2  0
  5  4  1  0
  6  5  2  0
  6  1  1  0
  7  5  1  0
  8  7  2  0
  9  8  1  0
  9  4  1  0
 10  8  1  0
 11 10  2  0
 12 11  1  0
 13 12  2  0
 14 13  1  0
 15 10  1  0
 15 14  2  0
 16 13  1  0
 17  1  1  0
 18 17  1  0
 20 19  1  0
 20 17  1  0
 21 20  2  0
  2 22  1  0
  3 23  1  0
  6 24  1  0
 11 25  1  0
 12 26  1  0
 14 27  1  0
 15 28  1  0
 17 29  1  1
 18 30  1  0
 18 31  1  0
 18 32  1  0
M  CHG  1  19  -1
M  END
>  <score>  (9) 
-7.677

$$$$
