=
     RDKit          3D

 33 35  0  0  0  0  0  0  0  0999 V2000
    1.0990   66.4330   69.9650 O   0  0  0  0  0  0  0  0  0  0  0  0
    0.9890   67.3240   69.1490 C   0  0  0  0  0  0  0  0  0  0  0  0
    1.8950   68.3300   68.8990 N   0  0  0  0  0  0  0  0  0  0  0  0
    1.4970   69.1850   67.8220 C   0  0  2  0  0  0  0  0  0  0  0  0
    0.1480   68.6450   67.4470 C   0  0  0  0  0  0  0  0  0  0  0  0
   -0.1430   67.5330   68.2390 C   0  0  0  0  0  0  0  0  0  0  0  0
   -1.3130   66.8100   68.1200 C   0  0  0  0  0  0  0  0  0  0  0  0
   -2.2320   67.2390   67.1610 C   0  0  0  0  0  0  0  0  0  0  0  0
   -1.9610   68.3640   66.3590 C   0  0  0  0  0  0  0  0  0  0  0  0
   -0.7650   69.0780   66.4990 C   0  0  0  0  0  0  0  0  0  0  0  0
    2.5100   69.1990   66.6880 C   0  0  0  0  0  0  0  0  0  0  0  0
    3.7980   69.7300   66.8680 C   0  0  0  0  0  0  0  0  0  0  0  0
    4.7210   69.7620   65.8170 C   0  0  0  0  0  0  0  0  0  0  0  0
    4.3820   69.2690   64.5550 C   0  0  0  0  0  0  0  0  0  0  0  0
    3.1070   68.7410   64.3520 C   0  0  0  0  0  0  0  0  0  0  0  0
    2.1800   68.7070   65.4100 C   0  0  0  0  0  0  0  0  0  0  0  0
    5.6090   69.3280   63.3430 Cl  0  0  0  0  0  0  0  0  0  0  0  0
    2.5920   68.1360   62.7690 S   0  0  0  0  0  6  0  0  0  0  0  0
    3.2710   66.8870   62.5150 O   0  0  0  0  0  0  0  0  0  0  0  0
    2.6450   69.2340   61.8310 O   0  0  0  0  0  0  0  0  0  0  0  0
    0.9630   67.7760   62.9880 N   0  0  0  0  0  0  0  0  0  0  0  0
    1.3430   70.4600   68.4060 O   0  0  0  0  0  0  0  0  0  0  0  0
    2.7680   68.4545   69.4313 H   0  0  0  0  0  0  0  0  0  0  0  0
   -1.5125   65.9334   68.7538 H   0  0  0  0  0  0  0  0  0  0  0  0
   -3.1777   66.6925   67.0305 H   0  0  0  0  0  0  0  0  0  0  0  0
   -2.7002   68.6868   65.6111 H   0  0  0  0  0  0  0  0  0  0  0  0
   -0.5559   69.9585   65.8737 H   0  0  0  0  0  0  0  0  0  0  0  0
    4.0859   70.1276   67.8524 H   0  0  0  0  0  0  0  0  0  0  0  0
    5.7243   70.1799   65.9865 H   0  0  0  0  0  0  0  0  0  0  0  0
    1.1780   68.2880   65.2357 H   0  0  0  0  0  0  0  0  0  0  0  0
    0.7540   67.7298   63.9955 H   0  0  0  0  0  0  0  0  0  0  0  0
    0.3874   68.5101   62.5513 H   0  0  0  0  0  0  0  0  0  0  0  0
    1.3533   70.3746   69.3923 H   0  0  0  0  0  0  0  0  0  0  0  0
  2  1  2  0
  3  2  1  0
  4  3  1  0
  5  4  1  0
  6  5  2  0
  6  2  1  0
  7  6  1  0
  8  7  2  0
  9  8  1  0
 10  9  2  0
 10  5  1  0
 11  4  1  0
 12 11  2  0
 13 12  1  0
 14 13  2  0
 15 14  1  0
 16 15  2  0
 16 11  1  0
 17 14  1  0
 18 15  1  0
 19 18  2  0
 20 18  2  0
 21 18  1  0
  4 22  1  1
  3 23  1  0
  7 24  1  0
  8 25  1  0
  9 26  1  0
 10 27  1  0
 12 28  1  0
 13 29  1  0
 16 30  1  0
 21 31  1  0
 21 32  1  0
 22 33  1  0
M  END
>  <score>  (1) 
-10.5

$$$$
=
     RDKit          3D

 33 35  0  0  0  0  0  0  0  0999 V2000
    3.4000   69.0300   60.5580 O   0  0  0  0  0  0  0  0  0  0  0  0
    3.0320   68.7440   61.6780 C   0  0  0  0  0  0  0  0  0  0  0  0
    3.7930   68.1770   62.6760 N   0  0  0  0  0  0  0  0  0  0  0  0
    3.0780   68.0300   63.9080 C   0  0  2  0  0  0  0  0  0  0  0  0
    1.7000   68.5100   63.5540 C   0  0  0  0  0  0  0  0  0  0  0  0
    1.6850   68.9380   62.2260 C   0  0  0  0  0  0  0  0  0  0  0  0
    0.5570   69.4460   61.6110 C   0  0  0  0  0  0  0  0  0  0  0  0
   -0.6080   69.5150   62.3770 C   0  0  0  0  0  0  0  0  0  0  0  0
   -0.6140   69.0780   63.7160 C   0  0  0  0  0  0  0  0  0  0  0  0
    0.5440   68.5690   64.3150 C   0  0  0  0  0  0  0  0  0  0  0  0
    3.7350   68.7850   65.0530 C   0  0  0  0  0  0  0  0  0  0  0  0
    5.0580   69.2490   64.9560 C   0  0  0  0  0  0  0  0  0  0  0  0
    5.6670   69.9230   66.0190 C   0  0  0  0  0  0  0  0  0  0  0  0
    4.9760   70.1490   67.2120 C   0  0  0  0  0  0  0  0  0  0  0  0
    3.6630   69.6930   67.3320 C   0  0  0  0  0  0  0  0  0  0  0  0
    3.0490   69.0170   66.2610 C   0  0  0  0  0  0  0  0  0  0  0  0
    5.8140   71.0190   68.4430 Cl  0  0  0  0  0  0  0  0  0  0  0  0
    2.7380   69.9050   68.8270 S   0  0  0  0  0  6  0  0  0  0  0  0
    3.4040   70.8970   69.6390 O   0  0  0  0  0  0  0  0  0  0  0  0
    2.4120   68.5950   69.3430 O   0  0  0  0  0  0  0  0  0  0  0  0
    1.2880   70.5860   68.3090 N   0  0  0  0  0  0  0  0  0  0  0  0
    3.0420   66.6410   64.1450 O   0  0  0  0  0  0  0  0  0  0  0  0
    4.7737   67.8888   62.5495 H   0  0  0  0  0  0  0  0  0  0  0  0
    0.5760   69.7814   60.5636 H   0  0  0  0  0  0  0  0  0  0  0  0
   -1.5305   69.9146   61.9305 H   0  0  0  0  0  0  0  0  0  0  0  0
   -1.5440   69.1377   64.3005 H   0  0  0  0  0  0  0  0  0  0  0  0
    0.5364   68.2257   65.3600 H   0  0  0  0  0  0  0  0  0  0  0  0
    5.6240   69.0791   64.0282 H   0  0  0  0  0  0  0  0  0  0  0  0
    6.7024   70.2795   65.9147 H   0  0  0  0  0  0  0  0  0  0  0  0
    2.0132   68.6630   66.3695 H   0  0  0  0  0  0  0  0  0  0  0  0
    0.7219   70.8519   69.1274 H   0  0  0  0  0  0  0  0  0  0  0  0
    1.4850   71.4226   67.7414 H   0  0  0  0  0  0  0  0  0  0  0  0
    3.0376   66.4727   65.1206 H   0  0  0  0  0  0  0  0  0  0  0  0
  2  1  2  0
  3  2  1  0
  4  3  1  0
  5  4  1  0
  6  5  2  0
  6  2  1  0
  7  6  1  0
  8  7  2  0
  9  8  1  0
 10  9  2  0
 10  5  1  0
 11  4  1  0
 12 11  2  0
 13 12  1  0
 14 13  2  0
 15 14  1  0
 16 15  2  0
 16 11  1  0
 17 14  1  0
 18 15  1  0
 19 18  2  0
 20 18  2  0
 21 18  1  0
  4 22  1  1
  3 23  1  0
  7 24  1  0
  8 25  1  0
  9 26  1  0
 10 27  1  0
 12 28  1  0
 13 29  1  0
 16 30  1  0
 21 31  1  0
 21 32  1  0
 22 33  1  0
M  END
>  <score>  (2) 
-10.234

$$$$
=
     RDKit          3D

 33 35  0  0  0  0  0  0  0  0999 V2000
    0.3870   66.0620   69.4800 O   0  0  0  0  0  0  0  0  0  0  0  0
    0.4140   67.0790   68.8180 C   0  0  0  0  0  0  0  0  0  0  0  0
    1.4050   68.0340   68.8140 N   0  0  0  0  0  0  0  0  0  0  0  0
    1.1690   69.0800   67.8650 C   0  0  2  0  0  0  0  0  0  0  0  0
   -0.1730   68.7190   67.2960 C   0  0  0  0  0  0  0  0  0  0  0  0
   -0.6100   67.5220   67.8660 C   0  0  0  0  0  0  0  0  0  0  0  0
   -1.8110   66.9260   67.5330 C   0  0  0  0  0  0  0  0  0  0  0  0
   -2.6050   67.5770   66.5870 C   0  0  0  0  0  0  0  0  0  0  0  0
   -2.1840   68.7900   66.0090 C   0  0  0  0  0  0  0  0  0  0  0  0
   -0.9610   69.3720   66.3630 C   0  0  0  0  0  0  0  0  0  0  0  0
    2.2830   69.1910   66.8350 C   0  0  0  0  0  0  0  0  0  0  0  0
    2.0870   68.7870   65.5040 C   0  0  0  0  0  0  0  0  0  0  0  0
    3.1200   68.8700   64.5640 C   0  0  0  0  0  0  0  0  0  0  0  0
    4.3790   69.3540   64.9280 C   0  0  0  0  0  0  0  0  0  0  0  0
    4.5970   69.7570   66.2450 C   0  0  0  0  0  0  0  0  0  0  0  0
    3.5570   69.6750   67.1900 C   0  0  0  0  0  0  0  0  0  0  0  0
    5.5670   69.4430   63.6800 Cl  0  0  0  0  0  0  0  0  0  0  0  0
    6.1780   70.3410   66.7900 S   0  0  0  0  0  6  0  0  0  0  0  0
    6.4050   71.6460   66.2140 O   0  0  0  0  0  0  0  0  0  0  0  0
    7.1310   69.2650   66.6350 O   0  0  0  0  0  0  0  0  0  0  0  0
    5.9750   70.5620   68.4460 N   0  0  0  0  0  0  0  0  0  0  0  0
    1.0480   70.2530   68.6380 O   0  0  0  0  0  0  0  0  0  0  0  0
    2.2303   67.9999   69.4294 H   0  0  0  0  0  0  0  0  0  0  0  0
   -2.1282   65.9788   67.9936 H   0  0  0  0  0  0  0  0  0  0  0  0
   -3.5690   67.1380   66.2903 H   0  0  0  0  0  0  0  0  0  0  0  0
   -2.8262   69.2881   65.2677 H   0  0  0  0  0  0  0  0  0  0  0  0
   -0.6351   70.3213   65.9128 H   0  0  0  0  0  0  0  0  0  0  0  0
    1.1050   68.3989   65.1956 H   0  0  0  0  0  0  0  0  0  0  0  0
    2.9389   68.5507   63.5271 H   0  0  0  0  0  0  0  0  0  0  0  0
    3.7430   69.9952   68.2258 H   0  0  0  0  0  0  0  0  0  0  0  0
    6.5800   69.9034   68.9570 H   0  0  0  0  0  0  0  0  0  0  0  0
    6.2297   71.5279   68.6973 H   0  0  0  0  0  0  0  0  0  0  0  0
    1.0722   70.0185   69.5995 H   0  0  0  0  0  0  0  0  0  0  0  0
  2  1  2  0
  3  2  1  0
  4  3  1  0
  5  4  1  0
  6  5  2  0
  6  2  1  0
  7  6  1  0
  8  7  2  0
  9  8  1  0
 10  9  2  0
 10  5  1  0
 11  4  1  0
 12 11  2  0
 13 12  1  0
 14 13  2  0
 15 14  1  0
 16 15  2  0
 16 11  1  0
 17 14  1  0
 18 15  1  0
 19 18  2  0
 20 18  2  0
 21 18  1  0
  4 22  1  1
  3 23  1  0
  7 24  1  0
  8 25  1  0
  9 26  1  0
 10 27  1  0
 12 28  1  0
 13 29  1  0
 16 30  1  0
 21 31  1  0
 21 32  1  0
 22 33  1  0
M  END
>  <score>  (3) 
-9.839

$$$$
=
     RDKit          3D

 33 35  0  0  0  0  0  0  0  0999 V2000
    4.7800   68.2350   61.9460 O   0  0  0  0  0  0  0  0  0  0  0  0
    3.9520   68.1670   62.8310 C   0  0  0  0  0  0  0  0  0  0  0  0
    4.1480   67.6920   64.1080 N   0  0  0  0  0  0  0  0  0  0  0  0
    2.9850   67.8150   64.9340 C   0  0  2  0  0  0  0  0  0  0  0  0
    1.9590   68.3680   63.9880 C   0  0  0  0  0  0  0  0  0  0  0  0
    2.5470   68.5800   62.7400 C   0  0  0  0  0  0  0  0  0  0  0  0
    1.8570   69.0950   61.6600 C   0  0  0  0  0  0  0  0  0  0  0  0
    0.5080   69.4010   61.8550 C   0  0  0  0  0  0  0  0  0  0  0  0
   -0.1040   69.1840   63.1040 C   0  0  0  0  0  0  0  0  0  0  0  0
    0.6200   68.6630   64.1820 C   0  0  0  0  0  0  0  0  0  0  0  0
    3.2350   68.6710   66.1660 C   0  0  0  0  0  0  0  0  0  0  0  0
    2.2930   68.7460   67.2050 C   0  0  0  0  0  0  0  0  0  0  0  0
    2.5160   69.5520   68.3270 C   0  0  0  0  0  0  0  0  0  0  0  0
    3.6830   70.3100   68.4400 C   0  0  0  0  0  0  0  0  0  0  0  0
    4.6310   70.2540   67.4190 C   0  0  0  0  0  0  0  0  0  0  0  0
    4.4080   69.4420   66.2920 C   0  0  0  0  0  0  0  0  0  0  0  0
    3.8680   71.2400   69.8810 Cl  0  0  0  0  0  0  0  0  0  0  0  0
    6.1150   71.2190   67.4730 S   0  0  0  0  0  6  0  0  0  0  0  0
    5.7810   72.5440   67.9380 O   0  0  0  0  0  0  0  0  0  0  0  0
    6.8350   71.0050   66.2380 O   0  0  0  0  0  0  0  0  0  0  0  0
    7.0250   70.4860   68.6860 N   0  0  0  0  0  0  0  0  0  0  0  0
    2.6390   66.4910   65.2750 O   0  0  0  0  0  0  0  0  0  0  0  0
    5.0382   67.2901   64.4351 H   0  0  0  0  0  0  0  0  0  0  0  0
    2.3481   69.2571   60.6891 H   0  0  0  0  0  0  0  0  0  0  0  0
   -0.0819   69.8157   61.0243 H   0  0  0  0  0  0  0  0  0  0  0  0
   -1.1686   69.4280   63.2346 H   0  0  0  0  0  0  0  0  0  0  0  0
    0.1390   68.4925   65.1564 H   0  0  0  0  0  0  0  0  0  0  0  0
    1.3640   68.1611   67.1356 H   0  0  0  0  0  0  0  0  0  0  0  0
    1.7637   69.5888   69.1286 H   0  0  0  0  0  0  0  0  0  0  0  0
    5.1639   69.4082   65.4936 H   0  0  0  0  0  0  0  0  0  0  0  0
    6.6658   70.7753   69.6070 H   0  0  0  0  0  0  0  0  0  0  0  0
    6.9553   69.4623   68.5964 H   0  0  0  0  0  0  0  0  0  0  0  0
    2.6151   66.3995   66.2605 H   0  0  0  0  0  0  0  0  0  0  0  0
  2  1  2  0
  3  2  1  0
  4  3  1  0
  5  4  1  0
  6  5  2  0
  6  2  1  0
  7  6  1  0
  8  7  2  0
  9  8  1  0
 10  9  2  0
 10  5  1  0
 11  4  1  0
 12 11  2  0
 13 12  1  0
 14 13  2  0
 15 14  1  0
 16 15  2  0
 16 11  1  0
 17 14  1  0
 18 15  1  0
 19 18  2  0
 20 18  2  0
 21 18  1  0
  4 22  1  1
  3 23  1  0
  7 24  1  0
  8 25  1  0
  9 26  1  0
 10 27  1  0
 12 28  1  0
 13 29  1  0
 16 30  1  0
 21 31  1  0
 21 32  1  0
 22 33  1  0
M  END
>  <score>  (4) 
-9.608

$$$$
=
     RDKit          3D

 33 35  0  0  0  0  0  0  0  0999 V2000
    0.3810   66.8040   65.5450 O   0  0  0  0  0  0  0  0  0  0  0  0
    1.4760   67.1230   65.1300 C   0  0  0  0  0  0  0  0  0  0  0  0
    1.9410   68.4040   64.9330 N   0  0  0  0  0  0  0  0  0  0  0  0
    3.3060   68.4420   64.5010 C   0  0  2  0  0  0  0  0  0  0  0  0
    3.6530   66.9880   64.3610 C   0  0  0  0  0  0  0  0  0  0  0  0
    2.5590   66.2120   64.7450 C   0  0  0  0  0  0  0  0  0  0  0  0
    2.5760   64.8300   64.7350 C   0  0  0  0  0  0  0  0  0  0  0  0
    3.7530   64.2120   64.3110 C   0  0  0  0  0  0  0  0  0  0  0  0
    4.8640   64.9790   63.9110 C   0  0  0  0  0  0  0  0  0  0  0  0
    4.8200   66.3780   63.9320 C   0  0  0  0  0  0  0  0  0  0  0  0
    4.1970   69.2150   65.4610 C   0  0  0  0  0  0  0  0  0  0  0  0
    5.4990   69.5970   65.0990 C   0  0  0  0  0  0  0  0  0  0  0  0
    6.3250   70.2890   65.9920 C   0  0  0  0  0  0  0  0  0  0  0  0
    5.8750   70.6140   67.2740 C   0  0  0  0  0  0  0  0  0  0  0  0
    4.5870   70.2420   67.6560 C   0  0  0  0  0  0  0  0  0  0  0  0
    3.7560   69.5480   66.7570 C   0  0  0  0  0  0  0  0  0  0  0  0
    6.9650   71.4970   68.2780 Cl  0  0  0  0  0  0  0  0  0  0  0  0
    3.9630   70.5830   69.2780 S   0  0  0  0  0  6  0  0  0  0  0  0
    3.3060   71.8680   69.2530 O   0  0  0  0  0  0  0  0  0  0  0  0
    5.0060   70.2800   70.2320 O   0  0  0  0  0  0  0  0  0  0  0  0
    2.7650   69.4210   69.5000 N   0  0  0  0  0  0  0  0  0  0  0  0
    3.2670   69.0380   63.2240 O   0  0  0  0  0  0  0  0  0  0  0  0
    1.3673   69.2466   65.0808 H   0  0  0  0  0  0  0  0  0  0  0  0
    1.6999   64.2429   65.0477 H   0  0  0  0  0  0  0  0  0  0  0  0
    3.8136   63.1139   64.2890 H   0  0  0  0  0  0  0  0  0  0  0  0
    5.7807   64.4710   63.5768 H   0  0  0  0  0  0  0  0  0  0  0  0
    5.6878   66.9759   63.6167 H   0  0  0  0  0  0  0  0  0  0  0  0
    5.8762   69.3480   64.0961 H   0  0  0  0  0  0  0  0  0  0  0  0
    7.3392   70.5801   65.6812 H   0  0  0  0  0  0  0  0  0  0  0  0
    2.7423   69.2599   67.0723 H   0  0  0  0  0  0  0  0  0  0  0  0
    2.6126   69.2732   70.5079 H   0  0  0  0  0  0  0  0  0  0  0  0
    1.8892   69.7431   69.0640 H   0  0  0  0  0  0  0  0  0  0  0  0
    3.2027   70.0212   63.3205 H   0  0  0  0  0  0  0  0  0  0  0  0
  2  1  2  0
  3  2  1  0
  4  3  1  0
  5  4  1  0
  6  5  2  0
  6  2  1  0
  7  6  1  0
  8  7  2  0
  9  8  1  0
 10  9  2  0
 10  5  1  0
 11  4  1  0
 12 11  2  0
 13 12  1  0
 14 13  2  0
 15 14  1  0
 16 15  2  0
 16 11  1  0
 17 14  1  0
 18 15  1  0
 19 18  2  0
 20 18  2  0
 21 18  1  0
  4 22  1  6
  3 23  1  0
  7 24  1  0
  8 25  1  0
  9 26  1  0
 10 27  1  0
 12 28  1  0
 13 29  1  0
 16 30  1  0
 21 31  1  0
 21 32  1  0
 22 33  1  0
M  END
>  <score>  (5) 
-9.477

$$$$
=
     RDKit          3D

 33 35  0  0  0  0  0  0  0  0999 V2000
    1.2360   66.0800   68.8080 O   0  0  0  0  0  0  0  0  0  0  0  0
    0.9420   67.0050   68.0800 C   0  0  0  0  0  0  0  0  0  0  0  0
    1.8060   67.9180   67.5180 N   0  0  0  0  0  0  0  0  0  0  0  0
    1.1490   68.8460   66.6480 C   0  0  2  0  0  0  0  0  0  0  0  0
   -0.2970   68.4630   66.7810 C   0  0  0  0  0  0  0  0  0  0  0  0
   -0.4080   67.3620   67.6310 C   0  0  0  0  0  0  0  0  0  0  0  0
   -1.6170   66.7700   67.9410 C   0  0  0  0  0  0  0  0  0  0  0  0
   -2.7630   67.3250   67.3690 C   0  0  0  0  0  0  0  0  0  0  0  0
   -2.6710   68.4430   66.5170 C   0  0  0  0  0  0  0  0  0  0  0  0
   -1.4320   69.0220   66.2180 C   0  0  0  0  0  0  0  0  0  0  0  0
    1.6890   68.7920   65.2270 C   0  0  0  0  0  0  0  0  0  0  0  0
    0.8250   68.7390   64.1210 C   0  0  0  0  0  0  0  0  0  0  0  0
    1.3250   68.6670   62.8170 C   0  0  0  0  0  0  0  0  0  0  0  0
    2.7010   68.6400   62.5800 C   0  0  0  0  0  0  0  0  0  0  0  0
    3.5780   68.6880   63.6630 C   0  0  0  0  0  0  0  0  0  0  0  0
    3.0750   68.7630   64.9760 C   0  0  0  0  0  0  0  0  0  0  0  0
    3.2040   68.5840   60.9300 Cl  0  0  0  0  0  0  0  0  0  0  0  0
    5.3330   68.6170   63.4430 S   0  0  0  0  0  6  0  0  0  0  0  0
    5.9300   68.1700   64.6800 O   0  0  0  0  0  0  0  0  0  0  0  0
    5.7540   69.8380   62.7940 O   0  0  0  0  0  0  0  0  0  0  0  0
    5.5470   67.3830   62.3180 N   0  0  0  0  0  0  0  0  0  0  0  0
    1.3530   70.1090   67.2410 O   0  0  0  0  0  0  0  0  0  0  0  0
    2.8190   67.9319   67.7040 H   0  0  0  0  0  0  0  0  0  0  0  0
   -1.6742   65.8986   68.6099 H   0  0  0  0  0  0  0  0  0  0  0  0
   -3.7476   66.8850   67.5857 H   0  0  0  0  0  0  0  0  0  0  0  0
   -3.5868   68.8676   66.0799 H   0  0  0  0  0  0  0  0  0  0  0  0
   -1.3620   69.8965   65.5544 H   0  0  0  0  0  0  0  0  0  0  0  0
   -0.2629   68.7544   64.2832 H   0  0  0  0  0  0  0  0  0  0  0  0
    0.6264   68.6312   61.9681 H   0  0  0  0  0  0  0  0  0  0  0  0
    3.7774   68.7996   65.8217 H   0  0  0  0  0  0  0  0  0  0  0  0
    5.7015   66.4920   62.8110 H   0  0  0  0  0  0  0  0  0  0  0  0
    4.7066   67.3073   61.7273 H   0  0  0  0  0  0  0  0  0  0  0  0
    1.3382   70.0171   68.2266 H   0  0  0  0  0  0  0  0  0  0  0  0
  2  1  2  0
  3  2  1  0
  4  3  1  0
  5  4  1  0
  6  5  2  0
  6  2  1  0
  7  6  1  0
  8  7  2  0
  9  8  1  0
 10  9  2  0
 10  5  1  0
 11  4  1  0
 12 11  2  0
 13 12  1  0
 14 13  2  0
 15 14  1  0
 16 15  2  0
 16 11  1  0
 17 14  1  0
 18 15  1  0
 19 18  2  0
 20 18  2  0
 21 18  1  0
  4 22  1  1
  3 23  1  0
  7 24  1  0
  8 25  1  0
  9 26  1  0
 10 27  1  0
 12 28  1  0
 13 29  1  0
 16 30  1  0
 21 31  1  0
 21 32  1  0
 22 33  1  0
M  END
>  <score>  (6) 
-8.407

$$$$
=
     RDKit          3D

 33 35  0  0  0  0  0  0  0  0999 V2000
    1.7540   63.3720   73.1530 O   0  0  0  0  0  0  0  0  0  0  0  0
    2.1880   62.2560   72.9550 C   0  0  0  0  0  0  0  0  0  0  0  0
    2.4030   61.2770   73.8980 N   0  0  0  0  0  0  0  0  0  0  0  0
    2.8570   60.0440   73.3300 C   0  0  2  0  0  0  0  0  0  0  0  0
    2.9900   60.3770   71.8720 C   0  0  0  0  0  0  0  0  0  0  0  0
    2.5830   61.6950   71.6590 C   0  0  0  0  0  0  0  0  0  0  0  0
    2.5810   62.2900   70.4120 C   0  0  0  0  0  0  0  0  0  0  0  0
    3.0180   61.5140   69.3370 C   0  0  0  0  0  0  0  0  0  0  0  0
    3.4420   60.1860   69.5340 C   0  0  0  0  0  0  0  0  0  0  0  0
    3.4320   59.6070   70.8080 C   0  0  0  0  0  0  0  0  0  0  0  0
    1.9180   58.8860   73.6310 C   0  0  0  0  0  0  0  0  0  0  0  0
    0.5350   58.9930   73.4090 C   0  0  0  0  0  0  0  0  0  0  0  0
   -0.3290   57.9340   73.7070 C   0  0  0  0  0  0  0  0  0  0  0  0
    0.1620   56.7400   74.2400 C   0  0  0  0  0  0  0  0  0  0  0  0
    1.5320   56.6130   74.4720 C   0  0  0  0  0  0  0  0  0  0  0  0
    2.4010   57.6770   74.1700 C   0  0  0  0  0  0  0  0  0  0  0  0
   -0.9890   55.4910   74.5380 Cl  0  0  0  0  0  0  0  0  0  0  0  0
    2.2220   55.1460   75.1840 S   0  0  0  0  0  6  0  0  0  0  0  0
    2.3000   54.1340   74.1560 O   0  0  0  0  0  0  0  0  0  0  0  0
    1.5550   54.9010   76.4420 O   0  0  0  0  0  0  0  0  0  0  0  0
    3.8020   55.5880   75.5610 N   0  0  0  0  0  0  0  0  0  0  0  0
    4.1390   59.8380   73.8800 O   0  0  0  0  0  0  0  0  0  0  0  0
    2.2529   61.4169   74.9073 H   0  0  0  0  0  0  0  0  0  0  0  0
    2.2496   63.3296   70.2724 H   0  0  0  0  0  0  0  0  0  0  0  0
    3.0312   61.9448   68.3250 H   0  0  0  0  0  0  0  0  0  0  0  0
    3.7865   59.5943   68.6731 H   0  0  0  0  0  0  0  0  0  0  0  0
    3.7656   58.5700   70.9605 H   0  0  0  0  0  0  0  0  0  0  0  0
    0.1245   59.9253   72.9938 H   0  0  0  0  0  0  0  0  0  0  0  0
   -1.4074   58.0428   73.5194 H   0  0  0  0  0  0  0  0  0  0  0  0
    3.4788   57.5630   74.3583 H   0  0  0  0  0  0  0  0  0  0  0  0
    3.9148   55.6196   76.5843 H   0  0  0  0  0  0  0  0  0  0  0  0
    4.4555   54.8975   75.1647 H   0  0  0  0  0  0  0  0  0  0  0  0
    4.0796   59.8475   74.8682 H   0  0  0  0  0  0  0  0  0  0  0  0
  2  1  2  0
  3  2  1  0
  4  3  1  0
  5  4  1  0
  6  5  2  0
  6  2  1  0
  7  6  1  0
  8  7  2  0
  9  8  1  0
 10  9  2  0
 10  5  1  0
 11  4  1  0
 12 11  2  0
 13 12  1  0
 14 13  2  0
 15 14  1  0
 16 15  2  0
 16 11  1  0
 17 14  1  0
 18 15  1  0
 19 18  2  0
 20 18  2  0
 21 18  1  0
  4 22  1  1
  3 23  1  0
  7 24  1  0
  8 25  1  0
  9 26  1  0
 10 27  1  0
 12 28  1  0
 13 29  1  0
 16 30  1  0
 21 31  1  0
 21 32  1  0
 22 33  1  0
M  END
>  <score>  (7) 
-8.038

$$$$
=
     RDKit          3D

 33 35  0  0  0  0  0  0  0  0999 V2000
    2.0110   61.1880   76.6980 O   0  0  0  0  0  0  0  0  0  0  0  0
    1.4300   61.6200   75.7250 C   0  0  0  0  0  0  0  0  0  0  0  0
    1.8060   62.6930   74.9490 N   0  0  0  0  0  0  0  0  0  0  0  0
    0.9410   62.9030   73.8280 C   0  0  2  0  0  0  0  0  0  0  0  0
   -0.1180   61.8560   74.0220 C   0  0  0  0  0  0  0  0  0  0  0  0
    0.1860   61.0940   75.1510 C   0  0  0  0  0  0  0  0  0  0  0  0
   -0.5990   60.0430   75.5830 C   0  0  0  0  0  0  0  0  0  0  0  0
   -1.7460   59.7580   74.8400 C   0  0  0  0  0  0  0  0  0  0  0  0
   -2.0740   60.5230   73.7040 C   0  0  0  0  0  0  0  0  0  0  0  0
   -1.2600   61.5820   73.2870 C   0  0  0  0  0  0  0  0  0  0  0  0
    1.6790   62.8170   72.5010 C   0  0  0  0  0  0  0  0  0  0  0  0
    1.4990   63.7900   71.5030 C   0  0  0  0  0  0  0  0  0  0  0  0
    2.1630   63.6960   70.2750 C   0  0  0  0  0  0  0  0  0  0  0  0
    3.0190   62.6260   70.0060 C   0  0  0  0  0  0  0  0  0  0  0  0
    3.2090   61.6460   70.9800 C   0  0  0  0  0  0  0  0  0  0  0  0
    2.5440   61.7420   72.2160 C   0  0  0  0  0  0  0  0  0  0  0  0
    3.8090   62.6300   68.4720 Cl  0  0  0  0  0  0  0  0  0  0  0  0
    4.2460   60.2400   70.6950 S   0  0  0  0  0  6  0  0  0  0  0  0
    5.6240   60.6570   70.8150 O   0  0  0  0  0  0  0  0  0  0  0  0
    3.7600   59.5540   69.5200 O   0  0  0  0  0  0  0  0  0  0  0  0
    3.9220   59.2300   72.0020 N   0  0  0  0  0  0  0  0  0  0  0  0
    0.3780   64.1790   74.0350 O   0  0  0  0  0  0  0  0  0  0  0  0
    2.6247   63.2835   75.1537 H   0  0  0  0  0  0  0  0  0  0  0  0
   -0.3320   59.4558   76.4740 H   0  0  0  0  0  0  0  0  0  0  0  0
   -2.4000   58.9277   75.1449 H   0  0  0  0  0  0  0  0  0  0  0  0
   -2.9848   60.2842   73.1353 H   0  0  0  0  0  0  0  0  0  0  0  0
   -1.5194   62.1799   72.4009 H   0  0  0  0  0  0  0  0  0  0  0  0
    0.8253   64.6391   71.6903 H   0  0  0  0  0  0  0  0  0  0  0  0
    2.0090   64.4739   69.5127 H   0  0  0  0  0  0  0  0  0  0  0  0
    2.7026   60.9620   72.9753 H   0  0  0  0  0  0  0  0  0  0  0  0
    4.0862   59.7420   72.8805 H   0  0  0  0  0  0  0  0  0  0  0  0
    2.9400   58.9219   71.9626 H   0  0  0  0  0  0  0  0  0  0  0  0
    0.3015   64.3523   75.0067 H   0  0  0  0  0  0  0  0  0  0  0  0
  2  1  2  0
  3  2  1  0
  4  3  1  0
  5  4  1  0
  6  5  2  0
  6  2  1  0
  7  6  1  0
  8  7  2  0
  9  8  1  0
 10  9  2  0
 10  5  1  0
 11  4  1  0
 12 11  2  0
 13 12  1  0
 14 13  2  0
 15 14  1  0
 16 15  2  0
 16 11  1  0
 17 14  1  0
 18 15  1  0
 19 18  2  0
 20 18  2  0
 21 18  1  0
  4 22  1  1
  3 23  1  0
  7 24  1  0
  8 25  1  0
  9 26  1  0
 10 27  1  0
 12 28  1  0
 13 29  1  0
 16 30  1  0
 21 31  1  0
 21 32  1  0
 22 33  1  0
M  END
>  <score>  (8) 
-7.904

$$$$
