=
     RDKit          3D

 25 25  0  0  0  0  0  0  0  0999 V2000
    4.0890   69.4600   65.8320 C   0  0  0  0  0  0  0  0  0  0  0  0
    4.5470   69.9300   67.2170 C   0  0  0  0  0  0  0  0  0  0  0  0
    6.0350   70.2570   67.2870 C   0  0  0  0  0  0  0  0  0  0  0  0
    5.9400   72.4700   68.0700 O   0  0  0  0  0  1  0  0  0  0  0  0
    6.4270   71.3270   68.3110 C   0  0  0  0  0  0  0  0  0  0  0  0
    7.1840   70.9610   69.2500 O   0  0  0  0  0  0  0  0  0  0  0  0
    5.2010   68.9580   64.8990 C   0  0  0  0  0  0  0  0  0  0  0  0
    4.8350   67.7250   64.0550 C   0  0  1  0  0  0  0  0  0  0  0  0
    3.0480   67.3530   64.1330 S   0  0  0  0  0  0  0  0  0  0  0  0
    2.4760   68.4310   62.4840 S   0  0  0  0  0  0  0  0  0  0  0  0
    4.1340   68.9170   61.9420 C   0  0  0  0  0  0  0  0  0  0  0  0
    5.1220   67.9350   62.5610 C   0  0  0  0  0  0  0  0  0  0  0  0
    3.3704   68.6393   65.9739 H   0  0  0  0  0  0  0  0  0  0  0  0
    3.6615   70.3462   65.3402 H   0  0  0  0  0  0  0  0  0  0  0  0
    3.9790   70.8335   67.4835 H   0  0  0  0  0  0  0  0  0  0  0  0
    4.3646   69.1011   67.9167 H   0  0  0  0  0  0  0  0  0  0  0  0
    6.5739   69.3320   67.5400 H   0  0  0  0  0  0  0  0  0  0  0  0
    6.3006   70.6692   66.3023 H   0  0  0  0  0  0  0  0  0  0  0  0
    5.4648   69.7756   64.2120 H   0  0  0  0  0  0  0  0  0  0  0  0
    6.0320   68.6489   65.5501 H   0  0  0  0  0  0  0  0  0  0  0  0
    5.4463   66.9134   64.4765 H   0  0  0  0  0  0  0  0  0  0  0  0
    4.1986   68.8739   60.8447 H   0  0  0  0  0  0  0  0  0  0  0  0
    4.3598   69.9462   62.2579 H   0  0  0  0  0  0  0  0  0  0  0  0
    5.0412   66.9691   62.0410 H   0  0  0  0  0  0  0  0  0  0  0  0
    6.1359   68.3486   62.4561 H   0  0  0  0  0  0  0  0  0  0  0  0
  2  1  1  0
  3  2  1  0
  5  3  1  0
  5  4  1  0
  6  5  2  0
  7  1  1  0
  8  7  1  0
  9  8  1  0
 10  9  1  0
 11 10  1  0
 12 11  1  0
 12  8  1  0
  1 13  1  0
  1 14  1  0
  2 15  1  0
  2 16  1  0
  3 17  1  0
  3 18  1  0
  7 19  1  0
  7 20  1  0
  8 21  1  1
 11 22  1  0
 11 23  1  0
 12 24  1  0
 12 25  1  0
M  CHG  1   4  -1
M  END
>  <score>  (1) 
-6.221

$$$$
=
     RDKit          3D

 25 25  0  0  0  0  0  0  0  0999 V2000
    4.6980   69.8350   66.7000 C   0  0  0  0  0  0  0  0  0  0  0  0
    5.5850   70.8850   67.3780 C   0  0  0  0  0  0  0  0  0  0  0  0
    6.8510   70.3040   68.0000 C   0  0  0  0  0  0  0  0  0  0  0  0
    8.0730   71.8560   69.2700 O   0  0  0  0  0  1  0  0  0  0  0  0
    7.2520   70.8960   69.3540 C   0  0  0  0  0  0  0  0  0  0  0  0
    6.7420   70.3650   70.3770 O   0  0  0  0  0  0  0  0  0  0  0  0
    5.3140   69.1320   65.4810 C   0  0  0  0  0  0  0  0  0  0  0  0
    4.6240   69.4330   64.1390 C   0  0  1  0  0  0  0  0  0  0  0  0
    5.5570   68.7470   62.7270 S   0  0  0  0  0  0  0  0  0  0  0  0
    4.5890   66.9410   62.6160 S   0  0  0  0  0  0  0  0  0  0  0  0
    3.3440   67.2720   63.8880 C   0  0  0  0  0  0  0  0  0  0  0  0
    3.2360   68.7840   64.0390 C   0  0  0  0  0  0  0  0  0  0  0  0
    4.4538   69.0652   67.4469 H   0  0  0  0  0  0  0  0  0  0  0  0
    3.8217   70.3813   66.3210 H   0  0  0  0  0  0  0  0  0  0  0  0
    5.8782   71.6314   66.6250 H   0  0  0  0  0  0  0  0  0  0  0  0
    4.9962   71.3257   68.1960 H   0  0  0  0  0  0  0  0  0  0  0  0
    6.6970   69.2232   68.1349 H   0  0  0  0  0  0  0  0  0  0  0  0
    7.6689   70.5524   67.3077 H   0  0  0  0  0  0  0  0  0  0  0  0
    6.3655   69.4452   65.4018 H   0  0  0  0  0  0  0  0  0  0  0  0
    5.1915   68.0527   65.6543 H   0  0  0  0  0  0  0  0  0  0  0  0
    4.5628   70.5307   64.1017 H   0  0  0  0  0  0  0  0  0  0  0  0
    2.3735   66.8547   63.5815 H   0  0  0  0  0  0  0  0  0  0  0  0
    3.6312   66.8064   64.8423 H   0  0  0  0  0  0  0  0  0  0  0  0
    2.7099   69.1951   63.1648 H   0  0  0  0  0  0  0  0  0  0  0  0
    2.6819   69.0028   64.9637 H   0  0  0  0  0  0  0  0  0  0  0  0
  2  1  1  0
  3  2  1  0
  5  3  1  0
  5  4  1  0
  6  5  2  0
  7  1  1  0
  8  7  1  0
  9  8  1  0
 10  9  1  0
 11 10  1  0
 12 11  1  0
 12  8  1  0
  1 13  1  0
  1 14  1  0
  2 15  1  0
  2 16  1  0
  3 17  1  0
  3 18  1  0
  7 19  1  0
  7 20  1  0
  8 21  1  6
 11 22  1  0
 11 23  1  0
 12 24  1  0
 12 25  1  0
M  CHG  1   4  -1
M  END
>  <score>  (2) 
-5.736

$$$$
=
     RDKit          3D

 25 25  0  0  0  0  0  0  0  0999 V2000
    3.0190   69.3790   66.6520 C   0  0  0  0  0  0  0  0  0  0  0  0
    2.0110   68.3080   67.0820 C   0  0  0  0  0  0  0  0  0  0  0  0
    0.5650   68.7960   67.0770 C   0  0  0  0  0  0  0  0  0  0  0  0
   -0.8710   68.5590   65.2330 O   0  0  0  0  0  1  0  0  0  0  0  0
   -0.4110   67.9560   66.2460 C   0  0  0  0  0  0  0  0  0  0  0  0
   -0.6500   66.7910   66.6630 O   0  0  0  0  0  0  0  0  0  0  0  0
    3.7590   69.1040   65.3340 C   0  0  0  0  0  0  0  0  0  0  0  0
    3.2640   67.8750   64.5530 C   0  0  1  0  0  0  0  0  0  0  0  0
    2.1330   68.3420   63.1970 S   0  0  0  0  0  0  0  0  0  0  0  0
    3.5410   68.4960   61.7120 S   0  0  0  0  0  0  0  0  0  0  0  0
    4.9580   67.9190   62.6810 C   0  0  0  0  0  0  0  0  0  0  0  0
    4.4100   67.1240   63.8610 C   0  0  0  0  0  0  0  0  0  0  0  0
    2.4767   70.3299   66.5435 H   0  0  0  0  0  0  0  0  0  0  0  0
    3.7928   69.3946   67.4336 H   0  0  0  0  0  0  0  0  0  0  0  0
    2.0931   67.4554   66.3918 H   0  0  0  0  0  0  0  0  0  0  0  0
    2.2554   68.0310   68.1181 H   0  0  0  0  0  0  0  0  0  0  0  0
    0.2060   68.8032   68.1167 H   0  0  0  0  0  0  0  0  0  0  0  0
    0.5832   69.7908   66.6078 H   0  0  0  0  0  0  0  0  0  0  0  0
    3.6447   69.9871   64.6882 H   0  0  0  0  0  0  0  0  0  0  0  0
    4.8036   68.8937   65.6069 H   0  0  0  0  0  0  0  0  0  0  0  0
    2.7677   67.2502   65.3102 H   0  0  0  0  0  0  0  0  0  0  0  0
    5.6010   67.2768   62.0611 H   0  0  0  0  0  0  0  0  0  0  0  0
    5.5607   68.7696   63.0321 H   0  0  0  0  0  0  0  0  0  0  0  0
    4.0364   66.1551   63.4982 H   0  0  0  0  0  0  0  0  0  0  0  0
    5.2212   66.9791   64.5897 H   0  0  0  0  0  0  0  0  0  0  0  0
  2  1  1  0
  3  2  1  0
  5  3  1  0
  5  4  1  0
  6  5  2  0
  7  1  1  0
  8  7  1  0
  9  8  1  0
 10  9  1  0
 11 10  1  0
 12 11  1  0
 12  8  1  0
  1 13  1  0
  1 14  1  0
  2 15  1  0
  2 16  1  0
  3 17  1  0
  3 18  1  0
  7 19  1  0
  7 20  1  0
  8 21  1  1
 11 22  1  0
 11 23  1  0
 12 24  1  0
 12 25  1  0
M  CHG  1   4  -1
M  END
>  <score>  (3) 
-5.411

$$$$
=
     RDKit          3D

 25 25  0  0  0  0  0  0  0  0999 V2000
    3.7010   63.0360   69.5140 C   0  0  0  0  0  0  0  0  0  0  0  0
    3.0060   63.8850   70.5840 C   0  0  0  0  0  0  0  0  0  0  0  0
    1.8800   63.1510   71.3060 C   0  0  0  0  0  0  0  0  0  0  0  0
   -0.0220   64.1890   72.2150 O   0  0  0  0  0  1  0  0  0  0  0  0
    0.4830   63.7580   71.1370 C   0  0  0  0  0  0  0  0  0  0  0  0
    0.0000   63.7490   69.9730 O   0  0  0  0  0  0  0  0  0  0  0  0
    3.1760   61.6010   69.3580 C   0  0  0  0  0  0  0  0  0  0  0  0
    4.1700   60.4980   69.7610 C   0  0  1  0  0  0  0  0  0  0  0  0
    5.2720   61.0370   71.1140 S   0  0  0  0  0  0  0  0  0  0  0  0
    4.1400   60.3420   72.6780 S   0  0  0  0  0  0  0  0  0  0  0  0
    2.8690   59.5150   71.6890 C   0  0  0  0  0  0  0  0  0  0  0  0
    3.4640   59.2500   70.3110 C   0  0  0  0  0  0  0  0  0  0  0  0
    3.5815   63.5466   68.5471 H   0  0  0  0  0  0  0  0  0  0  0  0
    4.7469   62.9389   69.8407 H   0  0  0  0  0  0  0  0  0  0  0  0
    3.7564   64.1899   71.3283 H   0  0  0  0  0  0  0  0  0  0  0  0
    2.5540   64.7465   70.0706 H   0  0  0  0  0  0  0  0  0  0  0  0
    1.8496   62.1192   70.9260 H   0  0  0  0  0  0  0  0  0  0  0  0
    2.1124   63.2213   72.3789 H   0  0  0  0  0  0  0  0  0  0  0  0
    2.2777   61.4963   69.9841 H   0  0  0  0  0  0  0  0  0  0  0  0
    2.9790   61.4605   68.2849 H   0  0  0  0  0  0  0  0  0  0  0  0
    4.7246   60.2779   68.8369 H   0  0  0  0  0  0  0  0  0  0  0  0
    2.5823   58.5650   72.1637 H   0  0  0  0  0  0  0  0  0  0  0  0
    1.9694   60.1430   71.6092 H   0  0  0  0  0  0  0  0  0  0  0  0
    4.1929   58.4296   70.3867 H   0  0  0  0  0  0  0  0  0  0  0  0
    2.6472   58.9814   69.6249 H   0  0  0  0  0  0  0  0  0  0  0  0
  2  1  1  0
  3  2  1  0
  5  3  1  0
  5  4  1  0
  6  5  2  0
  7  1  1  0
  8  7  1  0
  9  8  1  0
 10  9  1  0
 11 10  1  0
 12 11  1  0
 12  8  1  0
  1 13  1  0
  1 14  1  0
  2 15  1  0
  2 16  1  0
  3 17  1  0
  3 18  1  0
  7 19  1  0
  7 20  1  0
  8 21  1  6
 11 22  1  0
 11 23  1  0
 12 24  1  0
 12 25  1  0
M  CHG  1   4  -1
M  END
>  <score>  (4) 
-5.363

$$$$
=
     RDKit          3D

 25 25  0  0  0  0  0  0  0  0999 V2000
    2.6680   68.3720   65.3700 C   0  0  0  0  0  0  0  0  0  0  0  0
    3.3440   69.1910   66.4750 C   0  0  0  0  0  0  0  0  0  0  0  0
    4.6760   69.8020   66.0510 C   0  0  0  0  0  0  0  0  0  0  0  0
    4.9650   71.0390   68.0270 O   0  0  0  0  0  1  0  0  0  0  0  0
    5.5660   70.3000   67.1940 C   0  0  0  0  0  0  0  0  0  0  0  0
    6.7720   69.9350   67.1710 O   0  0  0  0  0  0  0  0  0  0  0  0
    1.2390   67.8970   65.6730 C   0  0  0  0  0  0  0  0  0  0  0  0
    0.4680   68.7600   66.6860 C   0  0  1  0  0  0  0  0  0  0  0  0
   -1.2730   68.9990   66.1890 S   0  0  0  0  0  0  0  0  0  0  0  0
   -2.0670   67.4050   67.2110 S   0  0  0  0  0  0  0  0  0  0  0  0
   -0.5480   66.8990   68.0580 C   0  0  0  0  0  0  0  0  0  0  0  0
    0.3890   68.1010   68.0710 C   0  0  0  0  0  0  0  0  0  0  0  0
    2.6326   68.9929   64.4627 H   0  0  0  0  0  0  0  0  0  0  0  0
    3.2712   67.4585   65.2619 H   0  0  0  0  0  0  0  0  0  0  0  0
    2.6655   70.0052   66.7696 H   0  0  0  0  0  0  0  0  0  0  0  0
    3.5541   68.5018   67.3062 H   0  0  0  0  0  0  0  0  0  0  0  0
    5.2370   69.0381   65.4927 H   0  0  0  0  0  0  0  0  0  0  0  0
    4.4244   70.6912   65.4544 H   0  0  0  0  0  0  0  0  0  0  0  0
    0.6739   67.8918   64.7293 H   0  0  0  0  0  0  0  0  0  0  0  0
    1.3365   66.9009   66.1293 H   0  0  0  0  0  0  0  0  0  0  0  0
    1.0238   69.7087   66.7180 H   0  0  0  0  0  0  0  0  0  0  0  0
   -0.7773   66.5899   69.0885 H   0  0  0  0  0  0  0  0  0  0  0  0
   -0.0805   66.0478   67.5414 H   0  0  0  0  0  0  0  0  0  0  0  0
    0.0169   68.8379   68.7980 H   0  0  0  0  0  0  0  0  0  0  0  0
    1.3953   67.7546   68.3493 H   0  0  0  0  0  0  0  0  0  0  0  0
  2  1  1  0
  3  2  1  0
  5  3  1  0
  5  4  1  0
  6  5  2  0
  7  1  1  0
  8  7  1  0
  9  8  1  0
 10  9  1  0
 11 10  1  0
 12 11  1  0
 12  8  1  0
  1 13  1  0
  1 14  1  0
  2 15  1  0
  2 16  1  0
  3 17  1  0
  3 18  1  0
  7 19  1  0
  7 20  1  0
  8 21  1  1
 11 22  1  0
 11 23  1  0
 12 24  1  0
 12 25  1  0
M  CHG  1   4  -1
M  END
>  <score>  (5) 
-5.361

$$$$
=
     RDKit          3D

 25 25  0  0  0  0  0  0  0  0999 V2000
    4.3360   69.4560   64.8800 C   0  0  0  0  0  0  0  0  0  0  0  0
    5.1210   68.6180   63.8650 C   0  0  0  0  0  0  0  0  0  0  0  0
    4.9270   69.0710   62.4210 C   0  0  0  0  0  0  0  0  0  0  0  0
    3.9700   67.0830   61.6140 O   0  0  0  0  0  1  0  0  0  0  0  0
    3.8270   68.3410   61.6450 C   0  0  0  0  0  0  0  0  0  0  0  0
    2.9310   69.0580   61.1250 O   0  0  0  0  0  0  0  0  0  0  0  0
    2.8640   69.0610   65.0710 C   0  0  0  0  0  0  0  0  0  0  0  0
    2.5690   68.2480   66.3430 C   0  0  1  0  0  0  0  0  0  0  0  0
    1.9190   69.3000   67.6870 S   0  0  0  0  0  0  0  0  0  0  0  0
   -0.0780   69.0550   67.2810 S   0  0  0  0  0  0  0  0  0  0  0  0
    0.1080   67.8350   65.9550 C   0  0  0  0  0  0  0  0  0  0  0  0
    1.4790   67.1900   66.1190 C   0  0  0  0  0  0  0  0  0  0  0  0
    4.8394   69.3665   65.8540 H   0  0  0  0  0  0  0  0  0  0  0  0
    4.3227   70.4799   64.4782 H   0  0  0  0  0  0  0  0  0  0  0  0
    6.1911   68.6865   64.1105 H   0  0  0  0  0  0  0  0  0  0  0  0
    4.7419   67.5877   63.9343 H   0  0  0  0  0  0  0  0  0  0  0  0
    4.6802   70.1429   62.4320 H   0  0  0  0  0  0  0  0  0  0  0  0
    5.8686   68.8391   61.9018 H   0  0  0  0  0  0  0  0  0  0  0  0
    2.2654   69.9831   65.1089 H   0  0  0  0  0  0  0  0  0  0  0  0
    2.6082   68.4088   64.2230 H   0  0  0  0  0  0  0  0  0  0  0  0
    3.5339   67.7892   66.6046 H   0  0  0  0  0  0  0  0  0  0  0  0
   -0.6791   67.0707   66.0341 H   0  0  0  0  0  0  0  0  0  0  0  0
    0.0200   68.3157   64.9695 H   0  0  0  0  0  0  0  0  0  0  0  0
    1.4548   66.5115   66.9844 H   0  0  0  0  0  0  0  0  0  0  0  0
    1.7154   66.6370   65.1980 H   0  0  0  0  0  0  0  0  0  0  0  0
  2  1  1  0
  3  2  1  0
  5  3  1  0
  5  4  1  0
  6  5  2  0
  7  1  1  0
  8  7  1  0
  9  8  1  0
 10  9  1  0
 11 10  1  0
 12 11  1  0
 12  8  1  0
  1 13  1  0
  1 14  1  0
  2 15  1  0
  2 16  1  0
  3 17  1  0
  3 18  1  0
  7 19  1  0
  7 20  1  0
  8 21  1  1
 11 22  1  0
 11 23  1  0
 12 24  1  0
 12 25  1  0
M  CHG  1   4  -1
M  END
>  <score>  (6) 
-5.24

$$$$
=
     RDKit          3D

 25 25  0  0  0  0  0  0  0  0999 V2000
    3.3010   63.7120   70.6320 C   0  0  0  0  0  0  0  0  0  0  0  0
    4.1880   62.8910   69.6900 C   0  0  0  0  0  0  0  0  0  0  0  0
    3.5700   61.5590   69.2790 C   0  0  0  0  0  0  0  0  0  0  0  0
    5.2560   60.5600   70.5750 O   0  0  0  0  0  1  0  0  0  0  0  0
    4.3030   60.3100   69.7800 C   0  0  0  0  0  0  0  0  0  0  0  0
    3.8930   59.2010   69.3440 O   0  0  0  0  0  0  0  0  0  0  0  0
    1.8720   63.1840   70.8290 C   0  0  0  0  0  0  0  0  0  0  0  0
    1.3890   63.1380   72.2890 C   0  0  1  0  0  0  0  0  0  0  0  0
   -0.2110   62.2720   72.4490 S   0  0  0  0  0  0  0  0  0  0  0  0
    0.5340   60.3960   72.8220 S   0  0  0  0  0  0  0  0  0  0  0  0
    2.2830   60.8580   72.9010 C   0  0  0  0  0  0  0  0  0  0  0  0
    2.3480   62.3520   73.1940 C   0  0  0  0  0  0  0  0  0  0  0  0
    3.7896   63.7407   71.6171 H   0  0  0  0  0  0  0  0  0  0  0  0
    3.1937   64.6992   70.1588 H   0  0  0  0  0  0  0  0  0  0  0  0
    4.3736   63.4836   68.7820 H   0  0  0  0  0  0  0  0  0  0  0  0
    5.1152   62.6626   70.2361 H   0  0  0  0  0  0  0  0  0  0  0  0
    2.5417   61.5278   69.6685 H   0  0  0  0  0  0  0  0  0  0  0  0
    3.6291   61.5242   68.1811 H   0  0  0  0  0  0  0  0  0  0  0  0
    1.1876   63.8339   70.2639 H   0  0  0  0  0  0  0  0  0  0  0  0
    1.8787   62.1424   70.4755 H   0  0  0  0  0  0  0  0  0  0  0  0
    1.3199   64.1940   72.5892 H   0  0  0  0  0  0  0  0  0  0  0  0
    2.7844   60.2957   73.7025 H   0  0  0  0  0  0  0  0  0  0  0  0
    2.7887   60.6264   71.9520 H   0  0  0  0  0  0  0  0  0  0  0  0
    2.0715   62.5238   74.2447 H   0  0  0  0  0  0  0  0  0  0  0  0
    3.3733   62.7004   73.0005 H   0  0  0  0  0  0  0  0  0  0  0  0
  2  1  1  0
  3  2  1  0
  5  3  1  0
  5  4  1  0
  6  5  2  0
  7  1  1  0
  8  7  1  0
  9  8  1  0
 10  9  1  0
 11 10  1  0
 12 11  1  0
 12  8  1  0
  1 13  1  0
  1 14  1  0
  2 15  1  0
  2 16  1  0
  3 17  1  0
  3 18  1  0
  7 19  1  0
  7 20  1  0
  8 21  1  1
 11 22  1  0
 11 23  1  0
 12 24  1  0
 12 25  1  0
M  CHG  1   4  -1
M  END
>  <score>  (7) 
-5.142

$$$$
=
     RDKit          3D

 25 25  0  0  0  0  0  0  0  0999 V2000
    4.0570   68.8500   63.9490 C   0  0  0  0  0  0  0  0  0  0  0  0
    4.7450   67.4980   64.1680 C   0  0  0  0  0  0  0  0  0  0  0  0
    4.3340   66.4350   63.1550 C   0  0  0  0  0  0  0  0  0  0  0  0
    3.2400   64.7130   64.3190 O   0  0  0  0  0  1  0  0  0  0  0  0
    4.2980   64.9980   63.6850 C   0  0  0  0  0  0  0  0  0  0  0  0
    5.3070   64.2820   63.4460 O   0  0  0  0  0  0  0  0  0  0  0  0
    2.7680   69.0790   64.7520 C   0  0  0  0  0  0  0  0  0  0  0  0
    2.6270   68.2160   66.0170 C   0  0  1  0  0  0  0  0  0  0  0  0
    2.2600   69.2270   67.4930 S   0  0  0  0  0  0  0  0  0  0  0  0
    0.2130   69.1090   67.3990 S   0  0  0  0  0  0  0  0  0  0  0  0
    0.1160   67.9540   66.0080 C   0  0  0  0  0  0  0  0  0  0  0  0
    1.4540   67.2300   65.9220 C   0  0  0  0  0  0  0  0  0  0  0  0
    4.7709   69.6408   64.2229 H   0  0  0  0  0  0  0  0  0  0  0  0
    3.7578   68.8663   62.8906 H   0  0  0  0  0  0  0  0  0  0  0  0
    5.8327   67.6452   64.0962 H   0  0  0  0  0  0  0  0  0  0  0  0
    4.4375   67.1355   65.1600 H   0  0  0  0  0  0  0  0  0  0  0  0
    3.3276   66.6866   62.7891 H   0  0  0  0  0  0  0  0  0  0  0  0
    5.1066   66.4490   62.3722 H   0  0  0  0  0  0  0  0  0  0  0  0
    2.7384   70.1360   65.0552 H   0  0  0  0  0  0  0  0  0  0  0  0
    1.9385   68.7906   64.0897 H   0  0  0  0  0  0  0  0  0  0  0  0
    3.5916   67.6940   66.1013 H   0  0  0  0  0  0  0  0  0  0  0  0
   -0.6936   67.2288   66.1773 H   0  0  0  0  0  0  0  0  0  0  0  0
   -0.0957   68.4910   65.0716 H   0  0  0  0  0  0  0  0  0  0  0  0
    1.5247   66.5078   66.7487 H   0  0  0  0  0  0  0  0  0  0  0  0
    1.5095   66.7157   64.9512 H   0  0  0  0  0  0  0  0  0  0  0  0
  2  1  1  0
  3  2  1  0
  5  3  1  0
  5  4  1  0
  6  5  2  0
  7  1  1  0
  8  7  1  0
  9  8  1  0
 10  9  1  0
 11 10  1  0
 12 11  1  0
 12  8  1  0
  1 13  1  0
  1 14  1  0
  2 15  1  0
  2 16  1  0
  3 17  1  0
  3 18  1  0
  7 19  1  0
  7 20  1  0
  8 21  1  1
 11 22  1  0
 11 23  1  0
 12 24  1  0
 12 25  1  0
M  CHG  1   4  -1
M  END
>  <score>  (8) 
-5.136

$$$$
=
     RDKit          3D

 25 25  0  0  0  0  0  0  0  0999 V2000
    5.1600   61.4070   71.0070 C   0  0  0  0  0  0  0  0  0  0  0  0
    5.1140   62.9330   70.8640 C   0  0  0  0  0  0  0  0  0  0  0  0
    3.7210   63.4730   70.5570 C   0  0  0  0  0  0  0  0  0  0  0  0
    3.7400   63.1000   68.2380 O   0  0  0  0  0  1  0  0  0  0  0  0
    3.0620   62.9160   69.2910 C   0  0  0  0  0  0  0  0  0  0  0  0
    1.9400   62.3610   69.4340 O   0  0  0  0  0  0  0  0  0  0  0  0
    4.9270   60.8640   72.4240 C   0  0  0  0  0  0  0  0  0  0  0  0
    4.1640   59.5300   72.4930 C   0  0  1  0  0  0  0  0  0  0  0  0
    3.6480   59.1290   74.1990 S   0  0  0  0  0  0  0  0  0  0  0  0
    1.7850   59.9870   74.1270 S   0  0  0  0  0  0  0  0  0  0  0  0
    1.8120   60.4430   72.3740 C   0  0  0  0  0  0  0  0  0  0  0  0
    2.8550   59.5660   71.6910 C   0  0  0  0  0  0  0  0  0  0  0  0
    4.3859   60.9825   70.3508 H   0  0  0  0  0  0  0  0  0  0  0  0
    6.1846   61.1112   70.7372 H   0  0  0  0  0  0  0  0  0  0  0  0
    5.4616   63.3817   71.8062 H   0  0  0  0  0  0  0  0  0  0  0  0
    5.7588   63.1981   70.0131 H   0  0  0  0  0  0  0  0  0  0  0  0
    3.0696   63.2352   71.4109 H   0  0  0  0  0  0  0  0  0  0  0  0
    3.8470   64.5517   70.3823 H   0  0  0  0  0  0  0  0  0  0  0  0
    5.9083   60.7206   72.8999 H   0  0  0  0  0  0  0  0  0  0  0  0
    4.2963   61.6051   72.9368 H   0  0  0  0  0  0  0  0  0  0  0  0
    4.8693   58.7892   72.0882 H   0  0  0  0  0  0  0  0  0  0  0  0
    0.8228   60.2697   71.9251 H   0  0  0  0  0  0  0  0  0  0  0  0
    2.0606   61.5077   72.2534 H   0  0  0  0  0  0  0  0  0  0  0  0
    2.4606   58.5430   71.6024 H   0  0  0  0  0  0  0  0  0  0  0  0
    3.0675   59.9881   70.6977 H   0  0  0  0  0  0  0  0  0  0  0  0
  2  1  1  0
  3  2  1  0
  5  3  1  0
  5  4  1  0
  6  5  2  0
  7  1  1  0
  8  7  1  0
  9  8  1  0
 10  9  1  0
 11 10  1  0
 12 11  1  0
 12  8  1  0
  1 13  1  0
  1 14  1  0
  2 15  1  0
  2 16  1  0
  3 17  1  0
  3 18  1  0
  7 19  1  0
  7 20  1  0
  8 21  1  6
 11 22  1  0
 11 23  1  0
 12 24  1  0
 12 25  1  0
M  CHG  1   4  -1
M  END
>  <score>  (9) 
-5.063

$$$$
