=
     RDKit          3D

135137  0  0  0  0  0  0  0  0999 V2000
    1.1660   59.3950   79.7650 N   0  0  0  0  0  0  0  0  0  0  0  0
    2.3480   59.0850   79.3130 C   0  0  0  0  0  0  0  0  0  0  0  0
    3.1530   59.9330   78.2840 C   0  0  2  0  0  0  0  0  0  0  0  0
    3.5820   61.2550   78.9340 C   0  0  0  0  0  0  0  0  0  0  0  0
    2.4750   60.2200   76.9050 C   0  0  0  0  0  0  0  0  0  0  0  0
    2.2730   58.9670   76.0220 C   0  0  2  0  0  0  0  0  0  0  0  0
    3.6550   58.4090   75.6210 C   0  0  0  0  0  0  0  0  0  0  0  0
    1.4390   59.1760   74.7100 C   0  0  1  0  0  0  0  0  0  0  0  0
   -0.1080   59.2920   74.8920 C   0  0  1  0  0  0  0  0  0  0  0  0
   -0.7810   59.8280   73.6110 C   0  0  0  0  0  0  0  0  0  0  0  0
   -0.9080   58.0320   75.3910 C   0  0  1  0  0  0  0  0  0  0  0  0
   -0.5720   56.5780   74.9600 C   0  0  2  0  0  0  0  0  0  0  0  0
    0.6860   55.9270   75.5350 C   0  0  0  0  0  0  0  0  0  0  0  0
    1.6910   55.6920   74.8740 O   0  0  0  0  0  0  0  0  0  0  0  0
    0.5100   55.5870   76.8450 O   0  0  0  0  0  0  0  0  0  0  0  0
    1.6060   54.9270   77.5600 C   0  0  1  0  0  0  0  0  0  0  0  0
    1.8000   55.5980   78.9900 C   0  0  1  0  0  0  0  0  0  0  0  0
    3.0250   56.5980   78.9620 C   0  0  1  0  0  0  0  0  0  0  0  0
    2.9920   57.8080   79.9370 C   0  0  1  0  0  0  0  0  0  0  0  0
    4.3550   58.1670   80.5420 C   0  0  0  0  0  0  0  0  0  0  0  0
    0.4840   56.1940   79.4880 C   0  0  0  0  0  0  0  0  0  0  0  0
   -0.6050   56.3980   73.4400 C   0  0  0  0  0  0  0  0  0  0  0  0
    1.2320   53.4320   77.5900 C   0  0  0  0  0  0  0  0  0  0  0  0
   -0.2690   53.1800   77.5360 C   0  0  0  0  0  0  0  0  0  0  0  0
    2.1310   54.5920   79.9770 O   0  0  0  0  0  0  0  0  0  0  0  0
    4.2010   55.7770   79.2000 O   0  0  0  0  0  0  0  0  0  0  0  0
    1.6270   58.0140   76.8360 O   0  0  0  0  0  0  0  0  0  0  0  0
    1.9420   60.3670   74.0620 O   0  0  0  0  0  0  0  0  0  0  0  0
    2.0430   60.2610   72.6390 C   0  0  2  0  0  0  0  0  0  0  0  0
    2.7800   59.1090   72.2450 O   0  0  0  0  0  0  0  0  0  0  0  0
    2.8940   58.9530   70.8300 C   0  0  2  0  0  0  0  0  0  0  0  0
    3.6000   57.6310   70.5640 C   0  0  0  0  0  0  0  0  0  0  0  0
    3.6820   60.1300   70.2400 C   0  0  0  0  0  0  0  0  0  0  0  0
    2.9920   61.4240   70.6520 C   0  0  1  0  0  0  0  0  0  0  0  0
    2.8090   61.5090   72.1720 C   0  0  1  0  0  0  0  0  0  0  0  0
    3.6980   62.6910   70.1580 N   0  0  0  0  0  4  0  0  0  0  0  0
    3.7100   62.8210   68.6630 C   0  0  0  0  0  0  0  0  0  0  0  0
    5.0440   62.9830   70.7560 C   0  0  0  0  0  0  0  0  0  0  0  0
    2.1360   62.7390   72.4740 O   0  0  0  0  0  0  0  0  0  0  0  0
   -1.0220   58.0930   76.8260 O   0  0  0  0  0  0  0  0  0  0  0  0
   -2.3860   58.0610   77.2790 C   0  0  2  0  0  0  0  0  0  0  0  0
   -2.8660   56.7250   77.2150 O   0  0  0  0  0  0  0  0  0  0  0  0
   -4.2350   56.5520   77.6020 C   0  0  1  0  0  0  0  0  0  0  0  0
   -4.3590   56.5350   79.1220 C   0  0  0  0  0  0  0  0  0  0  0  0
   -5.1950   57.5200   76.8820 C   0  0  1  0  0  0  0  0  0  0  0  0
   -4.6920   58.9840   76.7570 C   0  0  2  0  0  0  0  0  0  0  0  0
   -3.2060   58.9780   76.3840 C   0  0  0  0  0  0  0  0  0  0  0  0
   -4.9590   59.7710   78.0480 C   0  0  0  0  0  0  0  0  0  0  0  0
   -5.3850   57.0170   75.5360 O   0  0  0  0  0  0  0  0  0  0  0  0
   -5.5100   59.5570   75.6980 O   0  0  0  0  0  0  0  0  0  0  0  0
   -4.8640   60.4370   74.7860 C   0  0  0  0  0  0  0  0  0  0  0  0
    0.6650   60.5700   79.1950 O   0  0  0  0  0  0  0  0  0  0  0  0
   -0.7580   60.6180   79.3420 C   0  0  0  0  0  0  0  0  0  0  0  0
   -1.2900   61.7680   78.6840 O   0  0  0  0  0  0  0  0  0  0  0  0
   -0.8550   61.8740   77.3310 C   0  0  0  0  0  0  0  0  0  0  0  0
   -1.9450   62.3890   76.3920 C   0  0  0  0  0  0  0  0  0  0  0  0
   -0.0630   63.1670   75.2100 C   0  0  0  0  0  0  0  0  0  0  0  0
   -1.4090   63.4320   75.5790 O   0  0  0  0  0  0  0  0  0  0  0  0
    4.0099   59.2934   78.0258 H   0  0  0  0  0  0  0  0  0  0  0  0
    3.5489   61.1530   80.0288 H   0  0  0  0  0  0  0  0  0  0  0  0
    4.6066   61.5026   78.6196 H   0  0  0  0  0  0  0  0  0  0  0  0
    2.8980   62.0571   78.6196 H   0  0  0  0  0  0  0  0  0  0  0  0
    1.4897   60.6714   77.0929 H   0  0  0  0  0  0  0  0  0  0  0  0
    3.1532   60.8878   76.3536 H   0  0  0  0  0  0  0  0  0  0  0  0
    4.2332   58.1756   76.5272 H   0  0  0  0  0  0  0  0  0  0  0  0
    3.5221   57.4941   75.0250 H   0  0  0  0  0  0  0  0  0  0  0  0
    4.1947   59.1597   75.0250 H   0  0  0  0  0  0  0  0  0  0  0  0
    1.5712   58.2647   74.1083 H   0  0  0  0  0  0  0  0  0  0  0  0
   -0.1694   59.9974   75.7338 H   0  0  0  0  0  0  0  0  0  0  0  0
   -1.6144   60.4917   73.8848 H   0  0  0  0  0  0  0  0  0  0  0  0
   -0.0447   60.3897   73.0175 H   0  0  0  0  0  0  0  0  0  0  0  0
   -1.1637   58.9846   73.0175 H   0  0  0  0  0  0  0  0  0  0  0  0
   -1.8352   58.1657   74.8144 H   0  0  0  0  0  0  0  0  0  0  0  0
   -1.3950   56.0257   75.4372 H   0  0  0  0  0  0  0  0  0  0  0  0
    2.5867   55.0376   77.0743 H   0  0  0  0  0  0  0  0  0  0  0  0
    3.0092   57.1035   77.9852 H   0  0  0  0  0  0  0  0  0  0  0  0
    2.3487   57.4535   80.7558 H   0  0  0  0  0  0  0  0  0  0  0  0
    4.2852   58.1486   81.6396 H   0  0  0  0  0  0  0  0  0  0  0  0
    5.1074   57.4364   80.2101 H   0  0  0  0  0  0  0  0  0  0  0  0
    4.6499   59.1734   80.2101 H   0  0  0  0  0  0  0  0  0  0  0  0
    0.4761   56.1976   80.5880 H   0  0  0  0  0  0  0  0  0  0  0  0
    0.3848   57.2249   79.1173 H   0  0  0  0  0  0  0  0  0  0  0  0
   -0.3562   55.5886   79.1173 H   0  0  0  0  0  0  0  0  0  0  0  0
   -0.7986   55.3421   73.1999 H   0  0  0  0  0  0  0  0  0  0  0  0
   -1.4035   57.0232   73.0140 H   0  0  0  0  0  0  0  0  0  0  0  0
    0.3634   56.6993   73.0140 H   0  0  0  0  0  0  0  0  0  0  0  0
    1.6992   52.9388   76.7248 H   0  0  0  0  0  0  0  0  0  0  0  0
    1.5938   53.0271   78.5467 H   0  0  0  0  0  0  0  0  0  0  0  0
   -0.6666   53.1132   78.5594 H   0  0  0  0  0  0  0  0  0  0  0  0
   -0.7610   54.0081   77.0048 H   0  0  0  0  0  0  0  0  0  0  0  0
   -0.4635   52.2366   77.0048 H   0  0  0  0  0  0  0  0  0  0  0  0
    2.0076   54.9672   80.8848 H   0  0  0  0  0  0  0  0  0  0  0  0
    4.3426   55.6781   80.1748 H   0  0  0  0  0  0  0  0  0  0  0  0
    1.7782   58.2370   77.7886 H   0  0  0  0  0  0  0  0  0  0  0  0
    1.0381   60.1796   72.1990 H   0  0  0  0  0  0  0  0  0  0  0  0
    1.9027   58.9444   70.3534 H   0  0  0  0  0  0  0  0  0  0  0  0
    3.8554   57.1527   71.5211 H   0  0  0  0  0  0  0  0  0  0  0  0
    2.9351   56.9694   69.9894 H   0  0  0  0  0  0  0  0  0  0  0  0
    4.5196   57.8156   69.9894 H   0  0  0  0  0  0  0  0  0  0  0  0
    4.7119   60.1187   70.6263 H   0  0  0  0  0  0  0  0  0  0  0  0
    3.7150   60.0514   69.1433 H   0  0  0  0  0  0  0  0  0  0  0  0
    2.0094   61.3834   70.1592 H   0  0  0  0  0  0  0  0  0  0  0  0
    3.7678   61.5201   72.7110 H   0  0  0  0  0  0  0  0  0  0  0  0
    3.0931   63.4352   70.5337 H   0  0  0  0  0  0  0  0  0  0  0  0
    3.8079   63.8815   68.3879 H   0  0  0  0  0  0  0  0  0  0  0  0
    4.5598   62.2558   68.2526 H   0  0  0  0  0  0  0  0  0  0  0  0
    2.7711   62.4209   68.2526 H   0  0  0  0  0  0  0  0  0  0  0  0
    4.9690   62.9667   71.8533 H   0  0  0  0  0  0  0  0  0  0  0  0
    5.7649   62.2204   70.4264 H   0  0  0  0  0  0  0  0  0  0  0  0
    5.3841   63.9758   70.4264 H   0  0  0  0  0  0  0  0  0  0  0  0
    2.0755   62.8496   73.4559 H   0  0  0  0  0  0  0  0  0  0  0  0
   -2.4650   58.4069   78.3202 H   0  0  0  0  0  0  0  0  0  0  0  0
   -4.5716   55.5642   77.2543 H   0  0  0  0  0  0  0  0  0  0  0  0
   -3.3648   56.6713   79.5725 H   0  0  0  0  0  0  0  0  0  0  0  0
   -5.0228   57.3505   79.4449 H   0  0  0  0  0  0  0  0  0  0  0  0
   -4.7788   55.5709   79.4449 H   0  0  0  0  0  0  0  0  0  0  0  0
   -6.1105   57.5562   77.4907 H   0  0  0  0  0  0  0  0  0  0  0  0
   -3.1047   58.6380   75.3428 H   0  0  0  0  0  0  0  0  0  0  0  0
   -2.8241   60.0014   76.5134 H   0  0  0  0  0  0  0  0  0  0  0  0
   -4.7426   59.1331   78.9177 H   0  0  0  0  0  0  0  0  0  0  0  0
   -4.3123   60.6604   78.0756 H   0  0  0  0  0  0  0  0  0  0  0  0
   -6.0134   60.0833   78.0756 H   0  0  0  0  0  0  0  0  0  0  0  0
   -5.7345   56.0916   75.5758 H   0  0  0  0  0  0  0  0  0  0  0  0
   -4.3040   61.1998   75.3468 H   0  0  0  0  0  0  0  0  0  0  0  0
   -4.1702   59.8644   74.1530 H   0  0  0  0  0  0  0  0  0  0  0  0
   -5.6182   60.9273   74.1530 H   0  0  0  0  0  0  0  0  0  0  0  0
   -1.1984   59.7120   78.9001 H   0  0  0  0  0  0  0  0  0  0  0  0
   -1.0034   60.6754   80.4127 H   0  0  0  0  0  0  0  0  0  0  0  0
   -0.0014   62.5666   77.2905 H   0  0  0  0  0  0  0  0  0  0  0  0
   -0.5804   60.8637   76.9936 H   0  0  0  0  0  0  0  0  0  0  0  0
   -2.2972   61.5672   75.7513 H   0  0  0  0  0  0  0  0  0  0  0  0
   -2.7886   62.7766   76.9821 H   0  0  0  0  0  0  0  0  0  0  0  0
    0.5487   63.0466   76.1163 H   0  0  0  0  0  0  0  0  0  0  0  0
   -0.0212   62.2434   74.6140 H   0  0  0  0  0  0  0  0  0  0  0  0
    0.3258   64.0058   74.6140 H   0  0  0  0  0  0  0  0  0  0  0  0
  2  1  2  0
  3  2  1  0
  4  3  1  0
  5  3  1  0
  6  5  1  0
  7  6  1  0
  8  6  1  0
  9  8  1  0
 10  9  1  0
 11  9  1  0
 12 11  1  0
 13 12  1  0
 14 13  2  0
 15 13  1  0
 16 15  1  0
 17 16  1  0
 18 17  1  0
 19 18  1  0
 19  2  1  0
 20 19  1  0
 21 17  1  0
 22 12  1  0
 23 16  1  0
 24 23  1  0
 17 25  1  1
 26 18  1  0
  6 27  1  1
 28  8  1  0
 29 28  1  0
 30 29  1  0
 31 30  1  0
 32 31  1  0
 33 31  1  0
 34 33  1  0
 35 34  1  0
 35 29  1  0
 36 34  1  0
 37 36  1  0
 38 36  1  0
 39 35  1  0
 40 11  1  0
 41 40  1  0
 42 41  1  0
 43 42  1  0
 44 43  1  0
 45 43  1  0
 46 45  1  0
 47 46  1  0
 47 41  1  0
 48 46  1  0
 49 45  1  0
 46 50  1  6
 51 50  1  0
 52  1  1  0
 53 52  1  0
 54 53  1  0
 55 54  1  0
 56 55  1  0
 58 57  1  0
 58 56  1  0
  3 59  1  6
  4 60  1  0
  4 61  1  0
  4 62  1  0
  5 63  1  0
  5 64  1  0
  7 65  1  0
  7 66  1  0
  7 67  1  0
  8 68  1  6
  9 69  1  1
 10 70  1  0
 10 71  1  0
 10 72  1  0
 11 73  1  6
 12 74  1  1
 16 75  1  6
 18 76  1  6
 19 77  1  1
 20 78  1  0
 20 79  1  0
 20 80  1  0
 21 81  1  0
 21 82  1  0
 21 83  1  0
 22 84  1  0
 22 85  1  0
 22 86  1  0
 23 87  1  0
 23 88  1  0
 24 89  1  0
 24 90  1  0
 24 91  1  0
 25 92  1  0
 26 93  1  0
 27 94  1  0
 29 95  1  6
 31 96  1  6
 32 97  1  0
 32 98  1  0
 32 99  1  0
 33100  1  0
 33101  1  0
 34102  1  6
 35103  1  1
 36104  1  0
 37105  1  0
 37106  1  0
 37107  1  0
 38108  1  0
 38109  1  0
 38110  1  0
 39111  1  0
 41112  1  1
 43113  1  6
 44114  1  0
 44115  1  0
 44116  1  0
 45117  1  1
 47118  1  0
 47119  1  0
 48120  1  0
 48121  1  0
 48122  1  0
 49123  1  0
 51124  1  0
 51125  1  0
 51126  1  0
 53127  1  0
 53128  1  0
 55129  1  0
 55130  1  0
 56131  1  0
 56132  1  0
 57133  1  0
 57134  1  0
 57135  1  0
M  CHG  1  36   1
M  END
>  <score>  (1) 
-6.463

$$$$
=
     RDKit          3D

135137  0  0  0  0  0  0  0  0999 V2000
   -3.2250   59.1790   76.7360 N   0  0  0  0  0  0  0  0  0  0  0  0
   -2.7570   60.3920   76.8140 C   0  0  0  0  0  0  0  0  0  0  0  0
   -2.5070   61.3250   75.5920 C   0  0  2  0  0  0  0  0  0  0  0  0
   -3.8500   61.7210   74.9660 C   0  0  0  0  0  0  0  0  0  0  0  0
   -1.5400   60.8040   74.4790 C   0  0  0  0  0  0  0  0  0  0  0  0
   -0.0690   60.6610   74.9300 C   0  0  2  0  0  0  0  0  0  0  0  0
    0.4950   62.0610   75.2530 C   0  0  0  0  0  0  0  0  0  0  0  0
    0.9030   59.9750   73.9060 C   0  0  1  0  0  0  0  0  0  0  0  0
    0.7900   58.4220   73.7890 C   0  0  1  0  0  0  0  0  0  0  0  0
    1.5280   57.9030   72.5370 C   0  0  0  0  0  0  0  0  0  0  0  0
    1.2100   57.5380   75.0220 C   0  0  1  0  0  0  0  0  0  0  0  0
    2.4080   57.8760   75.9500 C   0  0  2  0  0  0  0  0  0  0  0  0
    2.2610   59.0470   76.9220 C   0  0  0  0  0  0  0  0  0  0  0  0
    2.8610   60.1090   76.7990 O   0  0  0  0  0  0  0  0  0  0  0  0
    1.4380   58.7250   77.9620 O   0  0  0  0  0  0  0  0  0  0  0  0
    1.1970   59.7210   79.0100 C   0  0  1  0  0  0  0  0  0  0  0  0
   -0.3560   59.7820   79.3490 C   0  0  1  0  0  0  0  0  0  0  0  0
   -1.0210   61.0320   78.6420 C   0  0  1  0  0  0  0  0  0  0  0  0
   -2.5240   60.9300   78.2600 C   0  0  1  0  0  0  0  0  0  0  0  0
   -3.3120   62.2320   78.4540 C   0  0  0  0  0  0  0  0  0  0  0  0
   -1.0250   58.4380   79.0590 C   0  0  0  0  0  0  0  0  0  0  0  0
    3.7260   57.9980   75.1800 C   0  0  0  0  0  0  0  0  0  0  0  0
    2.1020   59.3020   80.1860 C   0  0  0  0  0  0  0  0  0  0  0  0
    2.4000   57.8100   80.2230 C   0  0  0  0  0  0  0  0  0  0  0  0
   -0.5540   59.9780   80.7700 O   0  0  0  0  0  0  0  0  0  0  0  0
   -0.7910   62.1520   79.5400 O   0  0  0  0  0  0  0  0  0  0  0  0
   -0.0960   59.9060   76.1210 O   0  0  0  0  0  0  0  0  0  0  0  0
    0.6630   60.5780   72.6130 O   0  0  0  0  0  0  0  0  0  0  0  0
    1.3150   61.8380   72.4260 C   0  0  2  0  0  0  0  0  0  0  0  0
    0.4090   62.8410   71.9800 O   0  0  0  0  0  0  0  0  0  0  0  0
    1.0130   64.1220   71.7930 C   0  0  2  0  0  0  0  0  0  0  0  0
   -0.0900   65.1070   71.4320 C   0  0  0  0  0  0  0  0  0  0  0  0
    2.0690   64.0400   70.6830 C   0  0  0  0  0  0  0  0  0  0  0  0
    3.0670   62.9500   71.0480 C   0  0  1  0  0  0  0  0  0  0  0  0
    2.3670   61.6140   71.3280 C   0  0  1  0  0  0  0  0  0  0  0  0
    4.1640   62.7330   70.0010 N   0  0  0  0  0  4  0  0  0  0  0  0
    5.3900   63.5640   70.2440 C   0  0  0  0  0  0  0  0  0  0  0  0
    3.7350   62.7760   68.5630 C   0  0  0  0  0  0  0  0  0  0  0  0
    3.3690   60.6500   71.6840 O   0  0  0  0  0  0  0  0  0  0  0  0
    0.0410   57.2760   75.8230 O   0  0  0  0  0  0  0  0  0  0  0  0
   -0.0930   55.8890   76.1760 C   0  0  2  0  0  0  0  0  0  0  0  0
    0.2920   55.0870   75.0680 O   0  0  0  0  0  0  0  0  0  0  0  0
    0.1680   53.6740   75.2680 C   0  0  1  0  0  0  0  0  0  0  0  0
    1.3500   53.1450   76.0730 C   0  0  0  0  0  0  0  0  0  0  0  0
   -1.2190   53.2570   75.7970 C   0  0  1  0  0  0  0  0  0  0  0  0
   -1.8060   54.1660   76.9110 C   0  0  2  0  0  0  0  0  0  0  0  0
   -1.5440   55.6340   76.5560 C   0  0  0  0  0  0  0  0  0  0  0  0
   -1.2320   53.7950   78.2860 C   0  0  0  0  0  0  0  0  0  0  0  0
   -2.1390   53.3010   74.6790 O   0  0  0  0  0  0  0  0  0  0  0  0
   -3.2290   53.8590   76.9130 O   0  0  0  0  0  0  0  0  0  0  0  0
   -3.9310   54.0570   78.1350 C   0  0  0  0  0  0  0  0  0  0  0  0
   -3.4490   58.7740   75.4150 O   0  0  0  0  0  0  0  0  0  0  0  0
   -4.6870   58.0610   75.3250 C   0  0  0  0  0  0  0  0  0  0  0  0
   -5.7900   58.9570   75.4550 O   0  0  0  0  0  0  0  0  0  0  0  0
   -6.4760   59.1610   74.2230 C   0  0  0  0  0  0  0  0  0  0  0  0
   -6.7510   60.6350   73.9290 C   0  0  0  0  0  0  0  0  0  0  0  0
   -8.3740   61.9850   72.8840 C   0  0  0  0  0  0  0  0  0  0  0  0
   -8.1380   60.8070   73.6440 O   0  0  0  0  0  0  0  0  0  0  0  0
   -1.9733   62.1861   76.0205 H   0  0  0  0  0  0  0  0  0  0  0  0
   -4.5771   61.9354   75.7631 H   0  0  0  0  0  0  0  0  0  0  0  0
   -3.7140   62.6173   74.3430 H   0  0  0  0  0  0  0  0  0  0  0  0
   -4.2221   60.8943   74.3430 H   0  0  0  0  0  0  0  0  0  0  0  0
   -1.8961   59.8174   74.1475 H   0  0  0  0  0  0  0  0  0  0  0  0
   -1.5513   61.5550   73.6753 H   0  0  0  0  0  0  0  0  0  0  0  0
    0.5479   62.1923   76.3439 H   0  0  0  0  0  0  0  0  0  0  0  0
    1.5026   62.1586   74.8227 H   0  0  0  0  0  0  0  0  0  0  0  0
   -0.1636   62.8298   74.8227 H   0  0  0  0  0  0  0  0  0  0  0  0
    1.9230   60.1424   74.2823 H   0  0  0  0  0  0  0  0  0  0  0  0
   -0.3006   58.2930   73.7264 H   0  0  0  0  0  0  0  0  0  0  0  0
    2.3916   57.2957   72.8459 H   0  0  0  0  0  0  0  0  0  0  0  0
    0.8426   57.2870   71.9364 H   0  0  0  0  0  0  0  0  0  0  0  0
    1.8759   58.7564   71.9364 H   0  0  0  0  0  0  0  0  0  0  0  0
    1.6495   56.6809   74.4908 H   0  0  0  0  0  0  0  0  0  0  0  0
    2.4179   56.9919   76.6045 H   0  0  0  0  0  0  0  0  0  0  0  0
    1.4506   60.7502   78.7160 H   0  0  0  0  0  0  0  0  0  0  0  0
   -0.5512   61.1349   77.6527 H   0  0  0  0  0  0  0  0  0  0  0  0
   -2.9171   60.1939   78.9767 H   0  0  0  0  0  0  0  0  0  0  0  0
   -3.4324   62.4310   79.5291 H   0  0  0  0  0  0  0  0  0  0  0  0
   -2.7659   63.0643   77.9860 H   0  0  0  0  0  0  0  0  0  0  0  0
   -4.3027   62.1342   77.9860 H   0  0  0  0  0  0  0  0  0  0  0  0
   -1.2731   57.9396   80.0077 H   0  0  0  0  0  0  0  0  0  0  0  0
   -1.9456   58.6040   78.4803 H   0  0  0  0  0  0  0  0  0  0  0  0
   -0.3376   57.8035   78.4803 H   0  0  0  0  0  0  0  0  0  0  0  0
    4.5609   58.0753   75.8921 H   0  0  0  0  0  0  0  0  0  0  0  0
    3.8647   57.1089   74.5474 H   0  0  0  0  0  0  0  0  0  0  0  0
    3.6992   58.8975   74.5474 H   0  0  0  0  0  0  0  0  0  0  0  0
    3.0549   59.8451   80.1023 H   0  0  0  0  0  0  0  0  0  0  0  0
    1.5615   59.5464   81.1124 H   0  0  0  0  0  0  0  0  0  0  0  0
    2.4669   57.4753   81.2687 H   0  0  0  0  0  0  0  0  0  0  0  0
    1.5935   57.2623   79.7135 H   0  0  0  0  0  0  0  0  0  0  0  0
    3.3550   57.6141   79.7135 H   0  0  0  0  0  0  0  0  0  0  0  0
    0.0518   59.3783   81.2734 H   0  0  0  0  0  0  0  0  0  0  0  0
   -0.8548   61.8415   80.4779 H   0  0  0  0  0  0  0  0  0  0  0  0
   -0.0741   60.5170   76.8996 H   0  0  0  0  0  0  0  0  0  0  0  0
    1.7477   62.1793   73.3780 H   0  0  0  0  0  0  0  0  0  0  0  0
    1.5203   64.4569   72.7098 H   0  0  0  0  0  0  0  0  0  0  0  0
   -0.5391   65.5081   72.3526 H   0  0  0  0  0  0  0  0  0  0  0  0
    0.3343   65.9323   70.8413 H   0  0  0  0  0  0  0  0  0  0  0  0
   -0.8622   64.5924   70.8413 H   0  0  0  0  0  0  0  0  0  0  0  0
    1.5842   63.7945   69.7266 H   0  0  0  0  0  0  0  0  0  0  0  0
    2.5853   65.0059   70.5807 H   0  0  0  0  0  0  0  0  0  0  0  0
    3.5558   63.3162   71.9628 H   0  0  0  0  0  0  0  0  0  0  0  0
    1.8360   61.2243   70.4470 H   0  0  0  0  0  0  0  0  0  0  0  0
    4.4162   61.7462   70.1543 H   0  0  0  0  0  0  0  0  0  0  0  0
    5.5505   63.6728   71.3268 H   0  0  0  0  0  0  0  0  0  0  0  0
    6.2629   63.0707   69.7917 H   0  0  0  0  0  0  0  0  0  0  0  0
    5.2551   64.5576   69.7917 H   0  0  0  0  0  0  0  0  0  0  0  0
    2.6418   62.8856   68.5096 H   0  0  0  0  0  0  0  0  0  0  0  0
    4.2140   63.6306   68.0629 H   0  0  0  0  0  0  0  0  0  0  0  0
    4.0349   61.8433   68.0629 H   0  0  0  0  0  0  0  0  0  0  0  0
    3.4325   60.5889   72.6701 H   0  0  0  0  0  0  0  0  0  0  0  0
    0.5544   55.6333   77.0277 H   0  0  0  0  0  0  0  0  0  0  0  0
    0.2187   53.1790   74.2870 H   0  0  0  0  0  0  0  0  0  0  0  0
    1.1345   53.2415   77.1474 H   0  0  0  0  0  0  0  0  0  0  0  0
    1.5172   52.0862   75.8262 H   0  0  0  0  0  0  0  0  0  0  0  0
    2.2510   53.7257   75.8262 H   0  0  0  0  0  0  0  0  0  0  0  0
   -1.0912   52.2602   76.2442 H   0  0  0  0  0  0  0  0  0  0  0  0
   -2.1856   55.9120   75.7068 H   0  0  0  0  0  0  0  0  0  0  0  0
   -1.7688   56.2395   77.4464 H   0  0  0  0  0  0  0  0  0  0  0  0
   -1.8749   54.2105   79.0760 H   0  0  0  0  0  0  0  0  0  0  0  0
   -1.1925   52.7000   78.3835 H   0  0  0  0  0  0  0  0  0  0  0  0
   -0.2174   54.2087   78.3835 H   0  0  0  0  0  0  0  0  0  0  0  0
   -3.0682   53.3454   75.0178 H   0  0  0  0  0  0  0  0  0  0  0  0
   -3.2548   53.8663   78.9814 H   0  0  0  0  0  0  0  0  0  0  0  0
   -4.2966   55.0933   78.1841 H   0  0  0  0  0  0  0  0  0  0  0  0
   -4.7842   53.3645   78.1841 H   0  0  0  0  0  0  0  0  0  0  0  0
   -4.7438   57.5560   74.3495 H   0  0  0  0  0  0  0  0  0  0  0  0
   -4.7316   57.3213   76.1379 H   0  0  0  0  0  0  0  0  0  0  0  0
   -5.8624   58.7497   73.4080 H   0  0  0  0  0  0  0  0  0  0  0  0
   -7.4492   58.6542   74.3008 H   0  0  0  0  0  0  0  0  0  0  0  0
   -6.4776   61.2418   74.8048 H   0  0  0  0  0  0  0  0  0  0  0  0
   -6.1538   60.9561   73.0629 H   0  0  0  0  0  0  0  0  0  0  0  0
   -8.5438   62.8325   73.5644 H   0  0  0  0  0  0  0  0  0  0  0  0
   -7.4998   62.1934   72.2498 H   0  0  0  0  0  0  0  0  0  0  0  0
   -9.2611   61.8406   72.2498 H   0  0  0  0  0  0  0  0  0  0  0  0
  2  1  2  0
  3  2  1  0
  4  3  1  0
  5  3  1  0
  6  5  1  0
  7  6  1  0
  8  6  1  0
  9  8  1  0
 10  9  1  0
 11  9  1  0
 12 11  1  0
 13 12  1  0
 14 13  2  0
 15 13  1  0
 16 15  1  0
 17 16  1  0
 18 17  1  0
 19 18  1  0
 19  2  1  0
 20 19  1  0
 21 17  1  0
 22 12  1  0
 23 16  1  0
 24 23  1  0
 17 25  1  1
 26 18  1  0
  6 27  1  1
 28  8  1  0
 29 28  1  0
 30 29  1  0
 31 30  1  0
 32 31  1  0
 33 31  1  0
 34 33  1  0
 35 34  1  0
 35 29  1  0
 36 34  1  0
 37 36  1  0
 38 36  1  0
 39 35  1  0
 40 11  1  0
 41 40  1  0
 42 41  1  0
 43 42  1  0
 44 43  1  0
 45 43  1  0
 46 45  1  0
 47 46  1  0
 47 41  1  0
 48 46  1  0
 49 45  1  0
 46 50  1  1
 51 50  1  0
 52  1  1  0
 53 52  1  0
 54 53  1  0
 55 54  1  0
 56 55  1  0
 58 57  1  0
 58 56  1  0
  3 59  1  1
  4 60  1  0
  4 61  1  0
  4 62  1  0
  5 63  1  0
  5 64  1  0
  7 65  1  0
  7 66  1  0
  7 67  1  0
  8 68  1  1
  9 69  1  6
 10 70  1  0
 10 71  1  0
 10 72  1  0
 11 73  1  6
 12 74  1  1
 16 75  1  6
 18 76  1  6
 19 77  1  1
 20 78  1  0
 20 79  1  0
 20 80  1  0
 21 81  1  0
 21 82  1  0
 21 83  1  0
 22 84  1  0
 22 85  1  0
 22 86  1  0
 23 87  1  0
 23 88  1  0
 24 89  1  0
 24 90  1  0
 24 91  1  0
 25 92  1  0
 26 93  1  0
 27 94  1  0
 29 95  1  1
 31 96  1  1
 32 97  1  0
 32 98  1  0
 32 99  1  0
 33100  1  0
 33101  1  0
 34102  1  1
 35103  1  6
 36104  1  0
 37105  1  0
 37106  1  0
 37107  1  0
 38108  1  0
 38109  1  0
 38110  1  0
 39111  1  0
 41112  1  1
 43113  1  6
 44114  1  0
 44115  1  0
 44116  1  0
 45117  1  1
 47118  1  0
 47119  1  0
 48120  1  0
 48121  1  0
 48122  1  0
 49123  1  0
 51124  1  0
 51125  1  0
 51126  1  0
 53127  1  0
 53128  1  0
 55129  1  0
 55130  1  0
 56131  1  0
 56132  1  0
 57133  1  0
 57134  1  0
 57135  1  0
M  CHG  1  36   1
M  END
>  <score>  (2) 
-5.92

$$$$
=
     RDKit          3D

135137  0  0  0  0  0  0  0  0999 V2000
    0.9330   61.2840   79.9250 N   0  0  0  0  0  0  0  0  0  0  0  0
    1.4480   60.2010   79.4170 C   0  0  0  0  0  0  0  0  0  0  0  0
    2.5740   60.1770   78.3410 C   0  0  2  0  0  0  0  0  0  0  0  0
    3.8810   60.6920   78.9560 C   0  0  0  0  0  0  0  0  0  0  0  0
    2.2950   60.9230   76.9950 C   0  0  0  0  0  0  0  0  0  0  0  0
    1.1790   60.2870   76.1350 C   0  0  2  0  0  0  0  0  0  0  0  0
    1.6390   58.8900   75.6700 C   0  0  0  0  0  0  0  0  0  0  0  0
    0.7420   61.0980   74.8640 C   0  0  1  0  0  0  0  0  0  0  0  0
   -0.1690   62.3410   75.1240 C   0  0  1  0  0  0  0  0  0  0  0  0
   -0.2510   63.2420   73.8730 C   0  0  0  0  0  0  0  0  0  0  0  0
   -1.6250   62.1090   75.6730 C   0  0  1  0  0  0  0  0  0  0  0  0
   -2.5270   60.9210   75.2390 C   0  0  2  0  0  0  0  0  0  0  0  0
   -2.1790   59.5250   75.7560 C   0  0  0  0  0  0  0  0  0  0  0  0
   -1.7290   58.6320   75.0470 O   0  0  0  0  0  0  0  0  0  0  0  0
   -2.4990   59.3940   77.0770 O   0  0  0  0  0  0  0  0  0  0  0  0
   -2.2580   58.1100   77.7410 C   0  0  1  0  0  0  0  0  0  0  0  0
   -1.5670   58.3540   79.1530 C   0  0  1  0  0  0  0  0  0  0  0  0
   -0.0110   58.0780   79.0540 C   0  0  1  0  0  0  0  0  0  0  0  0
    0.9230   58.8600   80.0190 C   0  0  1  0  0  0  0  0  0  0  0  0
    2.1070   58.0420   80.5510 C   0  0  0  0  0  0  0  0  0  0  0  0
   -1.9500   59.7240   79.7120 C   0  0  0  0  0  0  0  0  0  0  0  0
   -2.7450   60.8780   73.7240 C   0  0  0  0  0  0  0  0  0  0  0  0
   -3.6340   57.4190   77.8030 C   0  0  0  0  0  0  0  0  0  0  0  0
   -3.6830   56.0910   77.0590 C   0  0  0  0  0  0  0  0  0  0  0  0
   -2.0750   57.4150   80.1310 O   0  0  0  0  0  0  0  0  0  0  0  0
    0.1400   56.6440   79.2390 O   0  0  0  0  0  0  0  0  0  0  0  0
    0.0680   60.1290   76.9890 O   0  0  0  0  0  0  0  0  0  0  0  0
    1.9480   61.5140   74.1820 O   0  0  0  0  0  0  0  0  0  0  0  0
    1.9930   61.1460   72.8000 C   0  0  2  0  0  0  0  0  0  0  0  0
    2.6690   59.9100   72.6040 O   0  0  0  0  0  0  0  0  0  0  0  0
    2.7260   59.4940   71.2380 C   0  0  2  0  0  0  0  0  0  0  0  0
    3.3680   58.1140   71.2000 C   0  0  0  0  0  0  0  0  0  0  0  0
    3.5400   60.5060   70.4220 C   0  0  0  0  0  0  0  0  0  0  0  0
    2.9180   61.8840   70.6080 C   0  0  1  0  0  0  0  0  0  0  0  0
    2.7920   62.2520   72.0920 C   0  0  1  0  0  0  0  0  0  0  0  0
    3.6570   63.0060   69.8710 N   0  0  0  0  0  4  0  0  0  0  0  0
    3.6880   62.8200   68.3820 C   0  0  0  0  0  0  0  0  0  0  0  0
    5.0020   63.3900   70.4160 C   0  0  0  0  0  0  0  0  0  0  0  0
    2.1810   63.5470   72.1810 O   0  0  0  0  0  0  0  0  0  0  0  0
   -1.5950   62.1890   77.1120 O   0  0  0  0  0  0  0  0  0  0  0  0
   -2.2470   63.3660   77.6190 C   0  0  2  0  0  0  0  0  0  0  0  0
   -2.7290   63.1030   78.9280 O   0  0  0  0  0  0  0  0  0  0  0  0
   -3.4410   64.1850   79.5430 C   0  0  1  0  0  0  0  0  0  0  0  0
   -2.4640   65.2150   80.0990 C   0  0  0  0  0  0  0  0  0  0  0  0
   -4.5560   64.7630   78.6480 C   0  0  1  0  0  0  0  0  0  0  0  0
   -4.1790   64.9440   77.1520 C   0  0  2  0  0  0  0  0  0  0  0  0
   -3.3870   63.7210   76.6770 C   0  0  0  0  0  0  0  0  0  0  0  0
   -3.4040   66.2510   76.9330 C   0  0  0  0  0  0  0  0  0  0  0  0
   -5.6710   63.8400   78.6990 O   0  0  0  0  0  0  0  0  0  0  0  0
   -5.4600   65.0540   76.4690 O   0  0  0  0  0  0  0  0  0  0  0  0
   -6.0040   66.3610   76.3220 C   0  0  0  0  0  0  0  0  0  0  0  0
    1.4750   62.4480   79.3700 O   0  0  0  0  0  0  0  0  0  0  0  0
    0.8640   63.6010   79.9580 C   0  0  0  0  0  0  0  0  0  0  0  0
    1.7600   64.7120   79.9250 O   0  0  0  0  0  0  0  0  0  0  0  0
    2.7190   64.6090   78.8760 C   0  0  0  0  0  0  0  0  0  0  0  0
    4.0220   65.3460   79.1840 C   0  0  0  0  0  0  0  0  0  0  0  0
    4.9580   67.4880   79.4710 C   0  0  0  0  0  0  0  0  0  0  0  0
    3.7810   66.7520   79.1690 O   0  0  0  0  0  0  0  0  0  0  0  0
    2.6366   59.1192   78.0457 H   0  0  0  0  0  0  0  0  0  0  0  0
    3.8065   60.6627   80.0531 H   0  0  0  0  0  0  0  0  0  0  0  0
    4.7162   60.0558   78.6280 H   0  0  0  0  0  0  0  0  0  0  0  0
    4.0577   61.7270   78.6280 H   0  0  0  0  0  0  0  0  0  0  0  0
    2.0028   61.9574   77.2285 H   0  0  0  0  0  0  0  0  0  0  0  0
    3.2208   60.8635   76.4040 H   0  0  0  0  0  0  0  0  0  0  0  0
    1.8461   58.2610   76.5483 H   0  0  0  0  0  0  0  0  0  0  0  0
    0.8464   58.4255   75.0650 H   0  0  0  0  0  0  0  0  0  0  0  0
    2.5525   58.9873   75.0650 H   0  0  0  0  0  0  0  0  0  0  0  0
    0.1126   60.4245   74.2638 H   0  0  0  0  0  0  0  0  0  0  0  0
    0.3590   62.8203   75.9616 H   0  0  0  0  0  0  0  0  0  0  0  0
   -0.3466   64.2929   74.1836 H   0  0  0  0  0  0  0  0  0  0  0  0
    0.6621   63.1189   73.2720 H   0  0  0  0  0  0  0  0  0  0  0  0
   -1.1268   62.9561   73.2720 H   0  0  0  0  0  0  0  0  0  0  0  0
   -2.1504   62.9162   75.1415 H   0  0  0  0  0  0  0  0  0  0  0  0
   -3.4627   61.1690   75.7615 H   0  0  0  0  0  0  0  0  0  0  0  0
   -1.5553   57.4546   77.2056 H   0  0  0  0  0  0  0  0  0  0  0  0
    0.3245   58.4510   78.0751 H   0  0  0  0  0  0  0  0  0  0  0  0
    0.2675   59.0891   80.8721 H   0  0  0  0  0  0  0  0  0  0  0  0
    2.0941   58.0509   81.6509 H   0  0  0  0  0  0  0  0  0  0  0  0
    2.0274   57.0054   80.1918 H   0  0  0  0  0  0  0  0  0  0  0  0
    3.0484   58.4832   80.1918 H   0  0  0  0  0  0  0  0  0  0  0  0
   -1.9398   59.6874   80.8113 H   0  0  0  0  0  0  0  0  0  0  0  0
   -1.2280   60.4771   79.3635 H   0  0  0  0  0  0  0  0  0  0  0  0
   -2.9579   59.9935   79.3635 H   0  0  0  0  0  0  0  0  0  0  0  0
   -3.8039   60.6691   73.5117 H   0  0  0  0  0  0  0  0  0  0  0  0
   -2.4677   61.8482   73.2860 H   0  0  0  0  0  0  0  0  0  0  0  0
   -2.1200   60.0858   73.2860 H   0  0  0  0  0  0  0  0  0  0  0  0
   -3.8840   57.2358   78.8584 H   0  0  0  0  0  0  0  0  0  0  0  0
   -4.3546   58.0903   77.3130 H   0  0  0  0  0  0  0  0  0  0  0  0
   -3.7135   55.2650   77.7848 H   0  0  0  0  0  0  0  0  0  0  0  0
   -4.5830   56.0575   76.4274 H   0  0  0  0  0  0  0  0  0  0  0  0
   -2.7879   55.9913   76.4274 H   0  0  0  0  0  0  0  0  0  0  0  0
   -1.8908   57.7555   81.0422 H   0  0  0  0  0  0  0  0  0  0  0  0
    0.1618   56.4366   80.2068 H   0  0  0  0  0  0  0  0  0  0  0  0
    0.3676   60.1716   77.9316 H   0  0  0  0  0  0  0  0  0  0  0  0
    0.9708   61.0317   72.4102 H   0  0  0  0  0  0  0  0  0  0  0  0
    1.7191   59.4449   70.7978 H   0  0  0  0  0  0  0  0  0  0  0  0
    3.5335   57.7582   72.2276 H   0  0  0  0  0  0  0  0  0  0  0  0
    2.7028   57.4145   70.6725 H   0  0  0  0  0  0  0  0  0  0  0  0
    4.3315   58.1722   70.6725 H   0  0  0  0  0  0  0  0  0  0  0  0
    4.5813   60.5174   70.7764 H   0  0  0  0  0  0  0  0  0  0  0  0
    3.5317   60.2278   69.3578 H   0  0  0  0  0  0  0  0  0  0  0  0
    1.9180   61.8006   70.1574 H   0  0  0  0  0  0  0  0  0  0  0  0
    3.7683   62.3161   72.5948 H   0  0  0  0  0  0  0  0  0  0  0  0
    3.0649   63.8243   70.0728 H   0  0  0  0  0  0  0  0  0  0  0  0
    3.8647   61.7597   68.1485 H   0  0  0  0  0  0  0  0  0  0  0  0
    2.7251   63.1343   67.9531 H   0  0  0  0  0  0  0  0  0  0  0  0
    4.4969   63.4297   67.9531 H   0  0  0  0  0  0  0  0  0  0  0  0
    4.9685   63.3804   71.5154 H   0  0  0  0  0  0  0  0  0  0  0  0
    5.7581   62.6718   70.0660 H   0  0  0  0  0  0  0  0  0  0  0  0
    5.2650   64.3991   70.0660 H   0  0  0  0  0  0  0  0  0  0  0  0
    2.0652   63.7925   73.1331 H   0  0  0  0  0  0  0  0  0  0  0  0
   -1.5478   64.2134   77.6738 H   0  0  0  0  0  0  0  0  0  0  0  0
   -3.9959   63.7889   80.4062 H   0  0  0  0  0  0  0  0  0  0  0  0
   -2.4893   65.1883   81.1984 H   0  0  0  0  0  0  0  0  0  0  0  0
   -1.4473   64.9818   79.7499 H   0  0  0  0  0  0  0  0  0  0  0  0
   -2.7505   66.2180   79.7499 H   0  0  0  0  0  0  0  0  0  0  0  0
   -4.7758   65.7678   79.0379 H   0  0  0  0  0  0  0  0  0  0  0  0
   -4.0706   62.8618   76.6103 H   0  0  0  0  0  0  0  0  0  0  0  0
   -2.9490   63.9650   75.6979 H   0  0  0  0  0  0  0  0  0  0  0  0
   -3.1434   66.6904   77.9072 H   0  0  0  0  0  0  0  0  0  0  0  0
   -2.4841   66.0415   76.3675 H   0  0  0  0  0  0  0  0  0  0  0  0
   -4.0292   66.9576   76.3675 H   0  0  0  0  0  0  0  0  0  0  0  0
   -5.8997   63.6507   79.6434 H   0  0  0  0  0  0  0  0  0  0  0  0
   -6.1853   66.7966   77.3157 H   0  0  0  0  0  0  0  0  0  0  0  0
   -5.2944   66.9934   75.7684 H   0  0  0  0  0  0  0  0  0  0  0  0
   -6.9528   66.3031   75.7684 H   0  0  0  0  0  0  0  0  0  0  0  0
   -0.0474   63.8540   79.3965 H   0  0  0  0  0  0  0  0  0  0  0  0
    0.6135   63.3764   81.0053 H   0  0  0  0  0  0  0  0  0  0  0  0
    2.9478   63.5454   78.7134 H   0  0  0  0  0  0  0  0  0  0  0  0
    2.2802   65.0759   77.9819 H   0  0  0  0  0  0  0  0  0  0  0  0
    4.3883   65.0462   80.1769 H   0  0  0  0  0  0  0  0  0  0  0  0
    4.7777   65.0927   78.4259 H   0  0  0  0  0  0  0  0  0  0  0  0
    5.0749   67.5611   80.5623 H   0  0  0  0  0  0  0  0  0  0  0  0
    5.8314   66.9749   79.0423 H   0  0  0  0  0  0  0  0  0  0  0  0
    4.8791   68.4979   79.0423 H   0  0  0  0  0  0  0  0  0  0  0  0
  2  1  2  0
  3  2  1  0
  4  3  1  0
  5  3  1  0
  6  5  1  0
  7  6  1  0
  8  6  1  0
  9  8  1  0
 10  9  1  0
 11  9  1  0
 12 11  1  0
 13 12  1  0
 14 13  2  0
 15 13  1  0
 16 15  1  0
 17 16  1  0
 18 17  1  0
 19 18  1  0
 19  2  1  0
 20 19  1  0
 21 17  1  0
 22 12  1  0
 23 16  1  0
 24 23  1  0
 17 25  1  1
 26 18  1  0
  6 27  1  1
 28  8  1  0
 29 28  1  0
 30 29  1  0
 31 30  1  0
 32 31  1  0
 33 31  1  0
 34 33  1  0
 35 34  1  0
 35 29  1  0
 36 34  1  0
 37 36  1  0
 38 36  1  0
 39 35  1  0
 40 11  1  0
 41 40  1  0
 42 41  1  0
 43 42  1  0
 44 43  1  0
 45 43  1  0
 46 45  1  0
 47 46  1  0
 47 41  1  0
 48 46  1  0
 49 45  1  0
 46 50  1  6
 51 50  1  0
 52  1  1  0
 53 52  1  0
 54 53  1  0
 55 54  1  0
 56 55  1  0
 58 57  1  0
 58 56  1  0
  3 59  1  6
  4 60  1  0
  4 61  1  0
  4 62  1  0
  5 63  1  0
  5 64  1  0
  7 65  1  0
  7 66  1  0
  7 67  1  0
  8 68  1  6
  9 69  1  1
 10 70  1  0
 10 71  1  0
 10 72  1  0
 11 73  1  6
 12 74  1  1
 16 75  1  6
 18 76  1  6
 19 77  1  1
 20 78  1  0
 20 79  1  0
 20 80  1  0
 21 81  1  0
 21 82  1  0
 21 83  1  0
 22 84  1  0
 22 85  1  0
 22 86  1  0
 23 87  1  0
 23 88  1  0
 24 89  1  0
 24 90  1  0
 24 91  1  0
 25 92  1  0
 26 93  1  0
 27 94  1  0
 29 95  1  6
 31 96  1  6
 32 97  1  0
 32 98  1  0
 32 99  1  0
 33100  1  0
 33101  1  0
 34102  1  6
 35103  1  1
 36104  1  0
 37105  1  0
 37106  1  0
 37107  1  0
 38108  1  0
 38109  1  0
 38110  1  0
 39111  1  0
 41112  1  1
 43113  1  1
 44114  1  0
 44115  1  0
 44116  1  0
 45117  1  1
 47118  1  0
 47119  1  0
 48120  1  0
 48121  1  0
 48122  1  0
 49123  1  0
 51124  1  0
 51125  1  0
 51126  1  0
 53127  1  0
 53128  1  0
 55129  1  0
 55130  1  0
 56131  1  0
 56132  1  0
 57133  1  0
 57134  1  0
 57135  1  0
M  CHG  1  36   1
M  END
>  <score>  (3) 
-5.425

$$$$
=
     RDKit          3D

135137  0  0  0  0  0  0  0  0999 V2000
   -2.8770   58.8110   76.7430 N   0  0  0  0  0  0  0  0  0  0  0  0
   -2.6310   60.0870   76.6630 C   0  0  0  0  0  0  0  0  0  0  0  0
   -2.6070   60.9020   75.3360 C   0  0  2  0  0  0  0  0  0  0  0  0
   -4.0280   60.9860   74.7620 C   0  0  0  0  0  0  0  0  0  0  0  0
   -1.6170   60.4310   74.2220 C   0  0  0  0  0  0  0  0  0  0  0  0
   -0.1240   60.5960   74.5880 C   0  0  2  0  0  0  0  0  0  0  0  0
    0.1950   62.1000   74.7240 C   0  0  0  0  0  0  0  0  0  0  0  0
    0.9050   59.9750   73.5790 C   0  0  1  0  0  0  0  0  0  0  0  0
    1.0670   58.4230   73.6330 C   0  0  1  0  0  0  0  0  0  0  0  0
    1.8260   57.8980   72.3960 C   0  0  0  0  0  0  0  0  0  0  0  0
    1.6950   57.7720   74.9210 C   0  0  1  0  0  0  0  0  0  0  0  0
    2.8560   58.4150   75.7280 C   0  0  2  0  0  0  0  0  0  0  0  0
    2.5470   59.6470   76.5790 C   0  0  0  0  0  0  0  0  0  0  0  0
    2.9410   60.7750   76.3060 O   0  0  0  0  0  0  0  0  0  0  0  0
    1.8450   59.3100   77.6990 O   0  0  0  0  0  0  0  0  0  0  0  0
    1.4790   60.3630   78.6510 C   0  0  1  0  0  0  0  0  0  0  0  0
   -0.0430   60.1940   79.0840 C   0  0  1  0  0  0  0  0  0  0  0  0
   -0.9520   61.2210   78.2950 C   0  0  1  0  0  0  0  0  0  0  0  0
   -2.4300   60.8190   78.0260 C   0  0  1  0  0  0  0  0  0  0  0  0
   -3.4270   61.9800   78.1340 C   0  0  0  0  0  0  0  0  0  0  0  0
   -0.4740   58.7310   78.9810 C   0  0  0  0  0  0  0  0  0  0  0  0
    4.0930   58.6730   74.8630 C   0  0  0  0  0  0  0  0  0  0  0  0
    2.4970   60.2440   79.8020 C   0  0  0  0  0  0  0  0  0  0  0  0
    3.4850   61.4010   79.8620 C   0  0  0  0  0  0  0  0  0  0  0  0
   -0.2060   60.5150   80.4860 O   0  0  0  0  0  0  0  0  0  0  0  0
   -0.8840   62.4590   79.0530 O   0  0  0  0  0  0  0  0  0  0  0  0
    0.0400   59.9900   75.8500 O   0  0  0  0  0  0  0  0  0  0  0  0
    0.5020   60.3750   72.2490 O   0  0  0  0  0  0  0  0  0  0  0  0
    1.4680   61.1770   71.5610 C   0  0  2  0  0  0  0  0  0  0  0  0
    2.7520   61.0910   72.1660 O   0  0  0  0  0  0  0  0  0  0  0  0
    3.7540   61.8640   71.5030 C   0  0  2  0  0  0  0  0  0  0  0  0
    5.0850   61.5830   72.1870 C   0  0  0  0  0  0  0  0  0  0  0  0
    3.3950   63.3540   71.5810 C   0  0  0  0  0  0  0  0  0  0  0  0
    2.0020   63.5430   70.9960 C   0  0  1  0  0  0  0  0  0  0  0  0
    0.9750   62.6280   71.6750 C   0  0  1  0  0  0  0  0  0  0  0  0
    1.4970   64.9890   71.0430 N   0  0  0  0  0  4  0  0  0  0  0  0
    0.2810   65.1670   71.9040 C   0  0  0  0  0  0  0  0  0  0  0  0
    1.3560   65.6910   69.7240 C   0  0  0  0  0  0  0  0  0  0  0  0
   -0.3000   62.8500   71.0560 O   0  0  0  0  0  0  0  0  0  0  0  0
    0.6300   57.4060   75.8210 O   0  0  0  0  0  0  0  0  0  0  0  0
    0.3760   55.9910   75.8380 C   0  0  2  0  0  0  0  0  0  0  0  0
   -0.0430   55.5780   74.5460 O   0  0  0  0  0  0  0  0  0  0  0  0
   -0.3720   54.1880   74.4280 C   0  0  1  0  0  0  0  0  0  0  0  0
    0.8960   53.3520   74.2950 C   0  0  0  0  0  0  0  0  0  0  0  0
   -1.3580   53.7050   75.5110 C   0  0  1  0  0  0  0  0  0  0  0  0
   -1.0790   54.2310   76.9460 C   0  0  2  0  0  0  0  0  0  0  0  0
   -0.7010   55.7140   76.8760 C   0  0  0  0  0  0  0  0  0  0  0  0
    0.0050   53.3930   77.6390 C   0  0  0  0  0  0  0  0  0  0  0  0
   -2.6760   54.1720   75.1330 O   0  0  0  0  0  0  0  0  0  0  0  0
   -2.3340   54.0280   77.6540 O   0  0  0  0  0  0  0  0  0  0  0  0
   -2.8220   55.1170   78.4290 C   0  0  0  0  0  0  0  0  0  0  0  0
   -3.0870   58.2240   75.4900 O   0  0  0  0  0  0  0  0  0  0  0  0
   -4.1260   57.2440   75.5760 C   0  0  0  0  0  0  0  0  0  0  0  0
   -5.3440   57.7590   75.0370 O   0  0  0  0  0  0  0  0  0  0  0  0
   -6.3370   57.9700   76.0370 C   0  0  0  0  0  0  0  0  0  0  0  0
   -7.1020   59.2800   75.8520 C   0  0  0  0  0  0  0  0  0  0  0  0
   -6.1260   59.4470   77.9890 C   0  0  0  0  0  0  0  0  0  0  0  0
   -6.8960   60.1090   76.9950 O   0  0  0  0  0  0  0  0  0  0  0  0
   -2.2141   61.8848   75.6356 H   0  0  0  0  0  0  0  0  0  0  0  0
   -4.7546   61.0290   75.5867 H   0  0  0  0  0  0  0  0  0  0  0  0
   -4.1209   61.8912   74.1440 H   0  0  0  0  0  0  0  0  0  0  0  0
   -4.2269   60.0980   74.1440 H   0  0  0  0  0  0  0  0  0  0  0  0
   -1.8067   59.3665   74.0198 H   0  0  0  0  0  0  0  0  0  0  0  0
   -1.7998   61.0711   73.3463 H   0  0  0  0  0  0  0  0  0  0  0  0
    0.2518   62.3679   75.7894 H   0  0  0  0  0  0  0  0  0  0  0  0
    1.1589   62.3156   74.2398 H   0  0  0  0  0  0  0  0  0  0  0  0
   -0.5983   62.6883   74.2398 H   0  0  0  0  0  0  0  0  0  0  0  0
    1.8949   60.3583   73.8675 H   0  0  0  0  0  0  0  0  0  0  0  0
    0.0152   58.1020   73.6567 H   0  0  0  0  0  0  0  0  0  0  0  0
    2.6900   57.3004   72.7223 H   0  0  0  0  0  0  0  0  0  0  0  0
    1.1536   57.2710   71.7920 H   0  0  0  0  0  0  0  0  0  0  0  0
    2.1754   58.7484   71.7920 H   0  0  0  0  0  0  0  0  0  0  0  0
    2.2552   56.9486   74.4538 H   0  0  0  0  0  0  0  0  0  0  0  0
    3.0552   57.6275   76.4698 H   0  0  0  0  0  0  0  0  0  0  0  0
    1.5311   61.3797   78.2344 H   0  0  0  0  0  0  0  0  0  0  0  0
   -0.5545   61.2882   77.2716 H   0  0  0  0  0  0  0  0  0  0  0  0
   -2.6518   60.1135   78.8403 H   0  0  0  0  0  0  0  0  0  0  0  0
   -3.6177   62.2021   79.1943 H   0  0  0  0  0  0  0  0  0  0  0  0
   -3.0077   62.8703   77.6426 H   0  0  0  0  0  0  0  0  0  0  0  0
   -4.3705   61.7000   77.6426 H   0  0  0  0  0  0  0  0  0  0  0  0
   -0.5971   58.3131   79.9910 H   0  0  0  0  0  0  0  0  0  0  0  0
   -1.4290   58.6674   78.4389 H   0  0  0  0  0  0  0  0  0  0  0  0
    0.2940   58.1598   78.4389 H   0  0  0  0  0  0  0  0  0  0  0  0
    4.9627   58.8544   75.5117 H   0  0  0  0  0  0  0  0  0  0  0  0
    4.2858   57.7957   74.2280 H   0  0  0  0  0  0  0  0  0  0  0  0
    3.9191   59.5542   74.2280 H   0  0  0  0  0  0  0  0  0  0  0  0
    1.9448   60.2082   80.7527 H   0  0  0  0  0  0  0  0  0  0  0  0
    3.0811   59.3291   79.6236 H   0  0  0  0  0  0  0  0  0  0  0  0
    3.6964   61.6485   80.9127 H   0  0  0  0  0  0  0  0  0  0  0  0
    4.4192   61.1119   79.3583 H   0  0  0  0  0  0  0  0  0  0  0  0
    3.0532   62.2784   79.3583 H   0  0  0  0  0  0  0  0  0  0  0  0
    0.1662   59.7821   81.0378 H   0  0  0  0  0  0  0  0  0  0  0  0
   -0.8953   62.2540   80.0215 H   0  0  0  0  0  0  0  0  0  0  0  0
   -0.1399   60.6548   76.5612 H   0  0  0  0  0  0  0  0  0  0  0  0
    1.5663   60.8336   70.5206 H   0  0  0  0  0  0  0  0  0  0  0  0
    3.8215   61.5933   70.4390 H   0  0  0  0  0  0  0  0  0  0  0  0
    4.9497   61.6116   73.2783 H   0  0  0  0  0  0  0  0  0  0  0  0
    5.4479   60.5884   71.8884 H   0  0  0  0  0  0  0  0  0  0  0  0
    5.8190   62.3460   71.8884 H   0  0  0  0  0  0  0  0  0  0  0  0
    3.4055   63.6844   72.6302 H   0  0  0  0  0  0  0  0  0  0  0  0
    4.1268   63.9496   71.0156 H   0  0  0  0  0  0  0  0  0  0  0  0
    2.1061   63.2674   69.9362 H   0  0  0  0  0  0  0  0  0  0  0  0
    0.8602   62.8462   72.7470 H   0  0  0  0  0  0  0  0  0  0  0  0
    2.2806   65.4761   71.5008 H   0  0  0  0  0  0  0  0  0  0  0  0
    0.5727   65.1243   72.9638 H   0  0  0  0  0  0  0  0  0  0  0  0
   -0.1804   66.1423   71.6897 H   0  0  0  0  0  0  0  0  0  0  0  0
   -0.4406   64.3649   71.6897 H   0  0  0  0  0  0  0  0  0  0  0  0
    1.1421   66.7561   69.8965 H   0  0  0  0  0  0  0  0  0  0  0  0
    2.2919   65.5926   69.1544 H   0  0  0  0  0  0  0  0  0  0  0  0
    0.5307   65.2388   69.1544 H   0  0  0  0  0  0  0  0  0  0  0  0
   -0.9901   62.9702   71.7556 H   0  0  0  0  0  0  0  0  0  0  0  0
    1.2843   55.4292   76.1013 H   0  0  0  0  0  0  0  0  0  0  0  0
   -0.9364   54.0431   73.4950 H   0  0  0  0  0  0  0  0  0  0  0  0
    1.2765   53.1011   75.2962 H   0  0  0  0  0  0  0  0  0  0  0  0
    0.6688   52.4260   73.7464 H   0  0  0  0  0  0  0  0  0  0  0  0
    1.6576   53.9257   73.7464 H   0  0  0  0  0  0  0  0  0  0  0  0
   -1.2558   52.6107   75.5554 H   0  0  0  0  0  0  0  0  0  0  0  0
   -1.5984   56.2952   76.6173 H   0  0  0  0  0  0  0  0  0  0  0  0
   -0.3013   56.0044   77.8588 H   0  0  0  0  0  0  0  0  0  0  0  0
   -0.1065   53.4792   78.7299 H   0  0  0  0  0  0  0  0  0  0  0  0
   -0.1003   52.3392   77.3418 H   0  0  0  0  0  0  0  0  0  0  0  0
    0.9983   53.7603   77.3418 H   0  0  0  0  0  0  0  0  0  0  0  0
   -3.2059   54.3597   75.9479 H   0  0  0  0  0  0  0  0  0  0  0  0
   -2.7168   54.8821   79.4985 H   0  0  0  0  0  0  0  0  0  0  0  0
   -2.2436   56.0226   78.1938 H   0  0  0  0  0  0  0  0  0  0  0  0
   -3.8829   55.2881   78.1938 H   0  0  0  0  0  0  0  0  0  0  0  0
   -3.8284   56.3499   75.0086 H   0  0  0  0  0  0  0  0  0  0  0  0
   -4.2855   56.9859   76.6333 H   0  0  0  0  0  0  0  0  0  0  0  0
   -7.0544   57.1369   75.9999 H   0  0  0  0  0  0  0  0  0  0  0  0
   -5.8208   58.0246   77.0068 H   0  0  0  0  0  0  0  0  0  0  0  0
   -6.7356   59.7961   74.9523 H   0  0  0  0  0  0  0  0  0  0  0  0
   -8.1753   59.0682   75.7376 H   0  0  0  0  0  0  0  0  0  0  0  0
   -6.4774   59.7491   78.9866 H   0  0  0  0  0  0  0  0  0  0  0  0
   -6.2378   58.3587   77.8749 H   0  0  0  0  0  0  0  0  0  0  0  0
   -5.0667   59.7208   77.8749 H   0  0  0  0  0  0  0  0  0  0  0  0
  2  1  2  0
  3  2  1  0
  4  3  1  0
  5  3  1  0
  6  5  1  0
  7  6  1  0
  8  6  1  0
  9  8  1  0
 10  9  1  0
 11  9  1  0
 12 11  1  0
 13 12  1  0
 14 13  2  0
 15 13  1  0
 16 15  1  0
 17 16  1  0
 18 17  1  0
 19 18  1  0
 19  2  1  0
 20 19  1  0
 21 17  1  0
 22 12  1  0
 23 16  1  0
 24 23  1  0
 17 25  1  1
 26 18  1  0
  6 27  1  1
 28  8  1  0
 29 28  1  0
 30 29  1  0
 31 30  1  0
 32 31  1  0
 33 31  1  0
 34 33  1  0
 35 34  1  0
 35 29  1  0
 36 34  1  0
 37 36  1  0
 38 36  1  0
 39 35  1  0
 40 11  1  0
 41 40  1  0
 42 41  1  0
 43 42  1  0
 44 43  1  0
 45 43  1  0
 46 45  1  0
 47 46  1  0
 47 41  1  0
 48 46  1  0
 49 45  1  0
 46 50  1  1
 51 50  1  0
 52  1  1  0
 53 52  1  0
 54 53  1  0
 55 54  1  0
 56 55  1  0
 58 57  1  0
 58 56  1  0
  3 59  1  1
  4 60  1  0
  4 61  1  0
  4 62  1  0
  5 63  1  0
  5 64  1  0
  7 65  1  0
  7 66  1  0
  7 67  1  0
  8 68  1  1
  9 69  1  6
 10 70  1  0
 10 71  1  0
 10 72  1  0
 11 73  1  6
 12 74  1  1
 16 75  1  6
 18 76  1  6
 19 77  1  1
 20 78  1  0
 20 79  1  0
 20 80  1  0
 21 81  1  0
 21 82  1  0
 21 83  1  0
 22 84  1  0
 22 85  1  0
 22 86  1  0
 23 87  1  0
 23 88  1  0
 24 89  1  0
 24 90  1  0
 24 91  1  0
 25 92  1  0
 26 93  1  0
 27 94  1  0
 29 95  1  6
 31 96  1  6
 32 97  1  0
 32 98  1  0
 32 99  1  0
 33100  1  0
 33101  1  0
 34102  1  6
 35103  1  1
 36104  1  0
 37105  1  0
 37106  1  0
 37107  1  0
 38108  1  0
 38109  1  0
 38110  1  0
 39111  1  0
 41112  1  1
 43113  1  6
 44114  1  0
 44115  1  0
 44116  1  0
 45117  1  1
 47118  1  0
 47119  1  0
 48120  1  0
 48121  1  0
 48122  1  0
 49123  1  0
 51124  1  0
 51125  1  0
 51126  1  0
 53127  1  0
 53128  1  0
 55129  1  0
 55130  1  0
 56131  1  0
 56132  1  0
 57133  1  0
 57134  1  0
 57135  1  0
M  CHG  1  36   1
M  END
>  <score>  (4) 
-5.423

$$$$
=
     RDKit          3D

135137  0  0  0  0  0  0  0  0999 V2000
   -0.2100   60.8210   79.1100 N   0  0  0  0  0  0  0  0  0  0  0  0
    0.7900   61.4690   78.5850 C   0  0  0  0  0  0  0  0  0  0  0  0
    0.7550   62.1820   77.2010 C   0  0  2  0  0  0  0  0  0  0  0  0
   -0.1880   63.3910   77.2720 C   0  0  0  0  0  0  0  0  0  0  0  0
    0.3990   61.3090   75.9540 C   0  0  0  0  0  0  0  0  0  0  0  0
    1.4570   60.2390   75.6040 C   0  0  2  0  0  0  0  0  0  0  0  0
    2.7600   60.9450   75.1730 C   0  0  0  0  0  0  0  0  0  0  0  0
    1.0630   59.2240   74.4730 C   0  0  1  0  0  0  0  0  0  0  0  0
    0.0630   58.0960   74.8810 C   0  0  1  0  0  0  0  0  0  0  0  0
   -0.5090   57.3820   73.6390 C   0  0  0  0  0  0  0  0  0  0  0  0
    0.5320   57.0070   75.9160 C   0  0  1  0  0  0  0  0  0  0  0  0
    1.9710   56.4240   75.9540 C   0  0  2  0  0  0  0  0  0  0  0  0
    3.0970   57.3150   76.4790 C   0  0  0  0  0  0  0  0  0  0  0  0
    3.9760   57.7870   75.7670 O   0  0  0  0  0  0  0  0  0  0  0  0
    3.0270   57.4510   77.8350 O   0  0  0  0  0  0  0  0  0  0  0  0
    4.0430   58.2550   78.5210 C   0  0  1  0  0  0  0  0  0  0  0  0
    3.3460   59.2200   79.5760 C   0  0  1  0  0  0  0  0  0  0  0  0
    3.2380   60.6860   78.9870 C   0  0  1  0  0  0  0  0  0  0  0  0
    2.0640   61.5770   79.4800 C   0  0  1  0  0  0  0  0  0  0  0  0
    2.4320   63.0540   79.6680 C   0  0  0  0  0  0  0  0  0  0  0  0
    2.0310   58.6200   80.0700 C   0  0  0  0  0  0  0  0  0  0  0  0
    2.3810   55.7960   74.6190 C   0  0  0  0  0  0  0  0  0  0  0  0
    5.0280   57.2360   79.1260 C   0  0  0  0  0  0  0  0  0  0  0  0
    4.3510   55.9910   79.6820 C   0  0  0  0  0  0  0  0  0  0  0  0
    4.1580   59.3320   80.7700 O   0  0  0  0  0  0  0  0  0  0  0  0
    4.5180   61.3130   79.2730 O   0  0  0  0  0  0  0  0  0  0  0  0
    1.7070   59.5300   76.7960 O   0  0  0  0  0  0  0  0  0  0  0  0
    0.5100   59.9910   73.3780 O   0  0  0  0  0  0  0  0  0  0  0  0
    1.2410   59.8720   72.1530 C   0  0  2  0  0  0  0  0  0  0  0  0
    2.0960   58.7340   72.1560 O   0  0  0  0  0  0  0  0  0  0  0  0
    2.8350   58.5660   70.9450 C   0  0  2  0  0  0  0  0  0  0  0  0
    3.6070   57.2580   71.0510 C   0  0  0  0  0  0  0  0  0  0  0  0
    3.7850   59.7550   70.7490 C   0  0  0  0  0  0  0  0  0  0  0  0
    2.9620   61.0370   70.7810 C   0  0  1  0  0  0  0  0  0  0  0  0
    2.1150   61.1320   72.0550 C   0  0  1  0  0  0  0  0  0  0  0  0
    3.7940   62.3150   70.6310 N   0  0  0  0  0  4  0  0  0  0  0  0
    3.7190   62.9160   69.2590 C   0  0  0  0  0  0  0  0  0  0  0  0
    5.2050   62.2570   71.1410 C   0  0  0  0  0  0  0  0  0  0  0  0
    1.3580   62.3500   71.9980 O   0  0  0  0  0  0  0  0  0  0  0  0
    0.1510   57.4310   77.2390 O   0  0  0  0  0  0  0  0  0  0  0  0
   -0.8330   56.5700   77.8390 C   0  0  2  0  0  0  0  0  0  0  0  0
   -0.6990   55.2640   77.2980 O   0  0  0  0  0  0  0  0  0  0  0  0
   -1.6500   54.3050   77.7790 C   0  0  1  0  0  0  0  0  0  0  0  0
   -1.2350   53.7900   79.1530 C   0  0  0  0  0  0  0  0  0  0  0  0
   -3.1080   54.7980   77.6820 C   0  0  1  0  0  0  0  0  0  0  0  0
   -3.3400   56.2750   78.1050 C   0  0  2  0  0  0  0  0  0  0  0  0
   -2.2100   57.1450   77.5440 C   0  0  0  0  0  0  0  0  0  0  0  0
   -3.4580   56.4000   79.6310 C   0  0  0  0  0  0  0  0  0  0  0  0
   -3.5110   54.6810   76.2960 O   0  0  0  0  0  0  0  0  0  0  0  0
   -4.6260   56.6190   77.5180 O   0  0  0  0  0  0  0  0  0  0  0  0
   -4.7900   57.9550   77.0570 C   0  0  0  0  0  0  0  0  0  0  0  0
   -1.3320   60.7960   78.2740 O   0  0  0  0  0  0  0  0  0  0  0  0
   -2.5140   61.0740   79.0320 C   0  0  0  0  0  0  0  0  0  0  0  0
   -3.6500   61.1540   78.1710 O   0  0  0  0  0  0  0  0  0  0  0  0
   -3.7350   62.4040   77.4920 C   0  0  0  0  0  0  0  0  0  0  0  0
   -3.5610   62.2750   75.9800 C   0  0  0  0  0  0  0  0  0  0  0  0
   -2.9820   60.3750   74.7130 C   0  0  0  0  0  0  0  0  0  0  0  0
   -3.9490   60.9640   75.5730 O   0  0  0  0  0  0  0  0  0  0  0  0
    1.8010   62.4738   77.0257 H   0  0  0  0  0  0  0  0  0  0  0  0
   -0.3838   63.6420   78.3249 H   0  0  0  0  0  0  0  0  0  0  0  0
    0.2802   64.2511   76.7710 H   0  0  0  0  0  0  0  0  0  0  0  0
   -1.1362   63.1463   76.7710 H   0  0  0  0  0  0  0  0  0  0  0  0
   -0.5550   60.7984   76.1520 H   0  0  0  0  0  0  0  0  0  0  0  0
    0.3472   61.9937   75.0946 H   0  0  0  0  0  0  0  0  0  0  0  0
    3.3242   61.2507   76.0664 H   0  0  0  0  0  0  0  0  0  0  0  0
    3.3701   60.2541   74.5727 H   0  0  0  0  0  0  0  0  0  0  0  0
    2.5144   61.8334   74.5727 H   0  0  0  0  0  0  0  0  0  0  0  0
    1.9823   58.6826   74.2051 H   0  0  0  0  0  0  0  0  0  0  0  0
   -0.6961   58.6745   75.4278 H   0  0  0  0  0  0  0  0  0  0  0  0
   -1.1670   56.5606   73.9589 H   0  0  0  0  0  0  0  0  0  0  0  0
   -1.0849   58.0997   73.0362 H   0  0  0  0  0  0  0  0  0  0  0  0
    0.3170   56.9766   73.0362 H   0  0  0  0  0  0  0  0  0  0  0  0
    0.0093   56.1300   75.5065 H   0  0  0  0  0  0  0  0  0  0  0  0
    1.8617   55.6535   76.7314 H   0  0  0  0  0  0  0  0  0  0  0  0
    4.5979   58.9350   77.8579 H   0  0  0  0  0  0  0  0  0  0  0  0
    3.0044   60.5907   77.9163 H   0  0  0  0  0  0  0  0  0  0  0  0
    1.8326   61.1629   80.4725 H   0  0  0  0  0  0  0  0  0  0  0  0
    2.4892   63.2837   80.7422 H   0  0  0  0  0  0  0  0  0  0  0  0
    3.4068   63.2516   79.1983 H   0  0  0  0  0  0  0  0  0  0  0  0
    1.6638   63.6859   79.1983 H   0  0  0  0  0  0  0  0  0  0  0  0
    2.0205   58.6152   81.1699 H   0  0  0  0  0  0  0  0  0  0  0  0
    1.1899   59.2235   79.6979 H   0  0  0  0  0  0  0  0  0  0  0  0
    1.9356   57.5893   79.6979 H   0  0  0  0  0  0  0  0  0  0  0  0
    2.9735   54.8885   74.8073 H   0  0  0  0  0  0  0  0  0  0  0  0
    1.4800   55.5332   74.0453 H   0  0  0  0  0  0  0  0  0  0  0  0
    2.9841   56.5152   74.0453 H   0  0  0  0  0  0  0  0  0  0  0  0
    5.7343   56.9269   78.3414 H   0  0  0  0  0  0  0  0  0  0  0  0
    5.5305   57.7337   79.9685 H   0  0  0  0  0  0  0  0  0  0  0  0
    4.3689   56.0239   80.7814 H   0  0  0  0  0  0  0  0  0  0  0  0
    3.3084   55.9538   79.3332 H   0  0  0  0  0  0  0  0  0  0  0  0
    4.8865   55.0957   79.3332 H   0  0  0  0  0  0  0  0  0  0  0  0
    3.5807   59.2524   81.5703 H   0  0  0  0  0  0  0  0  0  0  0  0
    4.6437   61.3746   80.2531 H   0  0  0  0  0  0  0  0  0  0  0  0
    1.5030   60.1085   77.5730 H   0  0  0  0  0  0  0  0  0  0  0  0
    0.5422   59.7621   71.3107 H   0  0  0  0  0  0  0  0  0  0  0  0
    2.1637   58.5292   70.0744 H   0  0  0  0  0  0  0  0  0  0  0  0
    3.7562   57.0052   72.1111 H   0  0  0  0  0  0  0  0  0  0  0  0
    3.0378   56.4554   70.5592 H   0  0  0  0  0  0  0  0  0  0  0  0
    4.5847   57.3684   70.5592 H   0  0  0  0  0  0  0  0  0  0  0  0
    4.5310   59.7719   71.5572 H   0  0  0  0  0  0  0  0  0  0  0  0
    4.3093   59.6658   69.7861 H   0  0  0  0  0  0  0  0  0  0  0  0
    2.3062   60.9694   69.9005 H   0  0  0  0  0  0  0  0  0  0  0  0
    2.7292   61.1696   72.9668 H   0  0  0  0  0  0  0  0  0  0  0  0
    3.3212   62.9584   71.2817 H   0  0  0  0  0  0  0  0  0  0  0  0
    3.5832   64.0044   69.3424 H   0  0  0  0  0  0  0  0  0  0  0  0
    4.6506   62.7034   68.7141 H   0  0  0  0  0  0  0  0  0  0  0  0
    2.8682   62.4810   68.7141 H   0  0  0  0  0  0  0  0  0  0  0  0
    5.1976   62.2573   72.2410 H   0  0  0  0  0  0  0  0  0  0  0  0
    5.6887   61.3382   70.7778 H   0  0  0  0  0  0  0  0  0  0  0  0
    5.7625   63.1330   70.7778 H   0  0  0  0  0  0  0  0  0  0  0  0
    1.1644   62.6615   72.9175 H   0  0  0  0  0  0  0  0  0  0  0  0
   -0.6937   56.5077   78.9284 H   0  0  0  0  0  0  0  0  0  0  0  0
   -1.6367   53.4345   77.1067 H   0  0  0  0  0  0  0  0  0  0  0  0
   -1.7215   54.3938   79.9332 H   0  0  0  0  0  0  0  0  0  0  0  0
   -1.5414   52.7388   79.2585 H   0  0  0  0  0  0  0  0  0  0  0  0
   -0.1427   53.8659   79.2585 H   0  0  0  0  0  0  0  0  0  0  0  0
   -3.6901   54.1796   78.3811 H   0  0  0  0  0  0  0  0  0  0  0  0
   -2.3334   57.2242   76.4538 H   0  0  0  0  0  0  0  0  0  0  0  0
   -2.2728   58.1299   78.0299 H   0  0  0  0  0  0  0  0  0  0  0  0
   -2.7787   55.6804   80.1114 H   0  0  0  0  0  0  0  0  0  0  0  0
   -3.1868   57.4211   79.9373 H   0  0  0  0  0  0  0  0  0  0  0  0
   -4.4930   56.1880   79.9373 H   0  0  0  0  0  0  0  0  0  0  0  0
   -4.4607   54.4053   76.2506 H   0  0  0  0  0  0  0  0  0  0  0  0
   -4.8732   58.6328   77.9193 H   0  0  0  0  0  0  0  0  0  0  0  0
   -3.9203   58.2420   76.4476 H   0  0  0  0  0  0  0  0  0  0  0  0
   -5.7032   58.0231   76.4476 H   0  0  0  0  0  0  0  0  0  0  0  0
   -2.6714   60.2699   79.7659 H   0  0  0  0  0  0  0  0  0  0  0  0
   -2.3887   62.0374   79.5479 H   0  0  0  0  0  0  0  0  0  0  0  0
   -4.7214   62.8467   77.6948 H   0  0  0  0  0  0  0  0  0  0  0  0
   -2.9162   63.0371   77.8646 H   0  0  0  0  0  0  0  0  0  0  0  0
   -4.1918   63.0195   75.4723 H   0  0  0  0  0  0  0  0  0  0  0  0
   -2.5080   62.4481   75.7132 H   0  0  0  0  0  0  0  0  0  0  0  0
   -2.1969   59.8968   75.3171 H   0  0  0  0  0  0  0  0  0  0  0  0
   -3.4677   59.6192   74.0783 H   0  0  0  0  0  0  0  0  0  0  0  0
   -2.5333   61.1533   74.0783 H   0  0  0  0  0  0  0  0  0  0  0  0
  2  1  2  0
  3  2  1  0
  4  3  1  0
  5  3  1  0
  6  5  1  0
  7  6  1  0
  8  6  1  0
  9  8  1  0
 10  9  1  0
 11  9  1  0
 12 11  1  0
 13 12  1  0
 14 13  2  0
 15 13  1  0
 16 15  1  0
 17 16  1  0
 18 17  1  0
 19 18  1  0
 19  2  1  0
 20 19  1  0
 21 17  1  0
 22 12  1  0
 23 16  1  0
 24 23  1  0
 17 25  1  1
 26 18  1  0
  6 27  1  1
 28  8  1  0
 29 28  1  0
 30 29  1  0
 31 30  1  0
 32 31  1  0
 33 31  1  0
 34 33  1  0
 35 34  1  0
 35 29  1  0
 36 34  1  0
 37 36  1  0
 38 36  1  0
 39 35  1  0
 40 11  1  0
 41 40  1  0
 42 41  1  0
 43 42  1  0
 44 43  1  0
 45 43  1  0
 46 45  1  0
 47 46  1  0
 47 41  1  0
 48 46  1  0
 49 45  1  0
 46 50  1  6
 51 50  1  0
 52  1  1  0
 53 52  1  0
 54 53  1  0
 55 54  1  0
 56 55  1  0
 58 57  1  0
 58 56  1  0
  3 59  1  6
  4 60  1  0
  4 61  1  0
  4 62  1  0
  5 63  1  0
  5 64  1  0
  7 65  1  0
  7 66  1  0
  7 67  1  0
  8 68  1  6
  9 69  1  1
 10 70  1  0
 10 71  1  0
 10 72  1  0
 11 73  1  6
 12 74  1  1
 16 75  1  6
 18 76  1  6
 19 77  1  1
 20 78  1  0
 20 79  1  0
 20 80  1  0
 21 81  1  0
 21 82  1  0
 21 83  1  0
 22 84  1  0
 22 85  1  0
 22 86  1  0
 23 87  1  0
 23 88  1  0
 24 89  1  0
 24 90  1  0
 24 91  1  0
 25 92  1  0
 26 93  1  0
 27 94  1  0
 29 95  1  6
 31 96  1  6
 32 97  1  0
 32 98  1  0
 32 99  1  0
 33100  1  0
 33101  1  0
 34102  1  6
 35103  1  1
 36104  1  0
 37105  1  0
 37106  1  0
 37107  1  0
 38108  1  0
 38109  1  0
 38110  1  0
 39111  1  0
 41112  1  1
 43113  1  6
 44114  1  0
 44115  1  0
 44116  1  0
 45117  1  1
 47118  1  0
 47119  1  0
 48120  1  0
 48121  1  0
 48122  1  0
 49123  1  0
 51124  1  0
 51125  1  0
 51126  1  0
 53127  1  0
 53128  1  0
 55129  1  0
 55130  1  0
 56131  1  0
 56132  1  0
 57133  1  0
 57134  1  0
 57135  1  0
M  CHG  1  36   1
M  END
>  <score>  (5) 
-5.381

$$$$
=
     RDKit          3D

135137  0  0  0  0  0  0  0  0999 V2000
    1.8470   63.1080   75.8160 N   0  0  0  0  0  0  0  0  0  0  0  0
    1.1120   63.0910   74.7410 C   0  0  0  0  0  0  0  0  0  0  0  0
   -0.3500   63.6210   74.6590 C   0  0  2  0  0  0  0  0  0  0  0  0
   -0.3500   65.1480   74.8170 C   0  0  0  0  0  0  0  0  0  0  0  0
   -1.3980   62.9910   75.6330 C   0  0  0  0  0  0  0  0  0  0  0  0
   -1.7060   61.5020   75.3580 C   0  0  2  0  0  0  0  0  0  0  0  0
   -2.3940   61.3790   73.9810 C   0  0  0  0  0  0  0  0  0  0  0  0
   -2.6140   60.7800   76.4150 C   0  0  1  0  0  0  0  0  0  0  0  0
   -1.9200   60.3850   77.7580 C   0  0  1  0  0  0  0  0  0  0  0  0
   -2.9610   60.0030   78.8310 C   0  0  0  0  0  0  0  0  0  0  0  0
   -0.7960   59.2830   77.7330 C   0  0  1  0  0  0  0  0  0  0  0  0
   -0.8450   58.0290   76.8180 C   0  0  2  0  0  0  0  0  0  0  0  0
   -0.6020   58.2190   75.3200 C   0  0  0  0  0  0  0  0  0  0  0  0
   -1.4780   58.1050   74.4710 O   0  0  0  0  0  0  0  0  0  0  0  0
    0.7160   58.4600   75.0620 O   0  0  0  0  0  0  0  0  0  0  0  0
    1.1440   58.6440   73.6720 C   0  0  1  0  0  0  0  0  0  0  0  0
    2.1160   59.9000   73.5680 C   0  0  1  0  0  0  0  0  0  0  0  0
    1.3290   61.1560   73.0150 C   0  0  1  0  0  0  0  0  0  0  0  0
    1.8190   62.5650   73.4530 C   0  0  1  0  0  0  0  0  0  0  0  0
    1.7350   63.6310   72.3530 C   0  0  0  0  0  0  0  0  0  0  0  0
    2.8520   60.1220   74.8890 C   0  0  0  0  0  0  0  0  0  0  0  0
   -2.1090   57.1930   77.0400 C   0  0  0  0  0  0  0  0  0  0  0  0
    1.7740   57.3000   73.2570 C   0  0  0  0  0  0  0  0  0  0  0  0
    2.1580   56.4190   74.4370 C   0  0  0  0  0  0  0  0  0  0  0  0
    3.1720   59.6410   72.6120 O   0  0  0  0  0  0  0  0  0  0  0  0
    1.3600   61.0260   71.5680 O   0  0  0  0  0  0  0  0  0  0  0  0
   -0.4590   60.8480   75.2930 O   0  0  0  0  0  0  0  0  0  0  0  0
   -3.7370   61.6490   76.6870 O   0  0  0  0  0  0  0  0  0  0  0  0
   -5.0110   61.0650   76.3990 C   0  0  2  0  0  0  0  0  0  0  0  0
   -4.8810   59.8240   75.7160 O   0  0  0  0  0  0  0  0  0  0  0  0
   -6.1300   59.1950   75.4210 C   0  0  2  0  0  0  0  0  0  0  0  0
   -5.8300   57.8370   74.8010 C   0  0  0  0  0  0  0  0  0  0  0  0
   -6.9390   60.0760   74.4600 C   0  0  0  0  0  0  0  0  0  0  0  0
   -7.0920   61.4550   75.0860 C   0  0  1  0  0  0  0  0  0  0  0  0
   -5.7330   62.0550   75.4710 C   0  0  1  0  0  0  0  0  0  0  0  0
   -7.8550   62.4560   74.2120 N   0  0  0  0  0  4  0  0  0  0  0  0
   -8.9930   63.1240   74.9270 C   0  0  0  0  0  0  0  0  0  0  0  0
   -8.2540   61.9810   72.8450 C   0  0  0  0  0  0  0  0  0  0  0  0
   -5.9640   63.3380   76.0700 O   0  0  0  0  0  0  0  0  0  0  0  0
    0.4830   59.9300   77.5940 O   0  0  0  0  0  0  0  0  0  0  0  0
    1.4570   59.4500   78.5370 C   0  0  2  0  0  0  0  0  0  0  0  0
    2.6970   60.0990   78.2970 O   0  0  0  0  0  0  0  0  0  0  0  0
    3.7760   59.6830   79.1440 C   0  0  1  0  0  0  0  0  0  0  0  0
    3.6730   60.3620   80.5060 C   0  0  0  0  0  0  0  0  0  0  0  0
    3.9520   58.1520   79.1920 C   0  0  1  0  0  0  0  0  0  0  0  0
    2.6360   57.3340   79.2970 C   0  0  2  0  0  0  0  0  0  0  0  0
    1.5850   57.9440   78.3620 C   0  0  0  0  0  0  0  0  0  0  0  0
    2.1430   57.2660   80.7500 C   0  0  0  0  0  0  0  0  0  0  0  0
    4.6060   57.7540   77.9620 O   0  0  0  0  0  0  0  0  0  0  0  0
    3.0120   55.9910   78.8800 O   0  0  0  0  0  0  0  0  0  0  0  0
    2.0120   55.2100   78.2370 C   0  0  0  0  0  0  0  0  0  0  0  0
    1.1660   63.6280   76.9230 O   0  0  0  0  0  0  0  0  0  0  0  0
    1.8110   63.2150   78.1330 C   0  0  0  0  0  0  0  0  0  0  0  0
    1.9790   64.3260   79.0130 O   0  0  0  0  0  0  0  0  0  0  0  0
    3.1150   65.1200   78.6800 C   0  0  0  0  0  0  0  0  0  0  0  0
    3.8400   65.6690   79.9090 C   0  0  0  0  0  0  0  0  0  0  0  0
    5.5840   64.0860   79.9430 C   0  0  0  0  0  0  0  0  0  0  0  0
    5.2420   65.4540   79.7600 O   0  0  0  0  0  0  0  0  0  0  0  0
   -0.6929   63.2999   73.6644 H   0  0  0  0  0  0  0  0  0  0  0  0
    0.6871   65.5127   74.8547 H   0  0  0  0  0  0  0  0  0  0  0  0
   -0.8685   65.6052   73.9614 H   0  0  0  0  0  0  0  0  0  0  0  0
   -0.8685   65.4203   75.7481 H   0  0  0  0  0  0  0  0  0  0  0  0
   -1.0115   63.0792   76.6591 H   0  0  0  0  0  0  0  0  0  0  0  0
   -2.3388   63.5406   75.4823 H   0  0  0  0  0  0  0  0  0  0  0  0
   -3.4677   61.1870   74.1234 H   0  0  0  0  0  0  0  0  0  0  0  0
   -2.2602   62.3153   73.4193 H   0  0  0  0  0  0  0  0  0  0  0  0
   -1.9441   60.5470   73.4193 H   0  0  0  0  0  0  0  0  0  0  0  0
   -2.9068   59.8178   75.9696 H   0  0  0  0  0  0  0  0  0  0  0  0
   -1.3796   61.3125   77.9983 H   0  0  0  0  0  0  0  0  0  0  0  0
   -2.5313   60.1607   79.8313 H   0  0  0  0  0  0  0  0  0  0  0  0
   -3.8563   60.6312   78.7133 H   0  0  0  0  0  0  0  0  0  0  0  0
   -3.2375   58.9448   78.7133 H   0  0  0  0  0  0  0  0  0  0  0  0
   -1.0010   58.7917   78.6956 H   0  0  0  0  0  0  0  0  0  0  0  0
    0.0476   57.4865   77.1630 H   0  0  0  0  0  0  0  0  0  0  0  0
    0.3226   58.8793   72.9792 H   0  0  0  0  0  0  0  0  0  0  0  0
    0.3214   61.1284   73.4554 H   0  0  0  0  0  0  0  0  0  0  0  0
    2.8835   62.4024   73.6773 H   0  0  0  0  0  0  0  0  0  0  0  0
    1.6565   64.6271   72.8130 H   0  0  0  0  0  0  0  0  0  0  0  0
    2.6395   63.5857   71.7286 H   0  0  0  0  0  0  0  0  0  0  0  0
    0.8488   63.4446   71.7286 H   0  0  0  0  0  0  0  0  0  0  0  0
    2.1704   59.9164   75.7275 H   0  0  0  0  0  0  0  0  0  0  0  0
    3.7170   59.4448   74.9451 H   0  0  0  0  0  0  0  0  0  0  0  0
    3.1983   61.1646   74.9451 H   0  0  0  0  0  0  0  0  0  0  0  0
   -2.2862   57.0758   78.1193 H   0  0  0  0  0  0  0  0  0  0  0  0
   -2.9698   57.7005   76.5801 H   0  0  0  0  0  0  0  0  0  0  0  0
   -1.9788   56.2023   76.5801 H   0  0  0  0  0  0  0  0  0  0  0  0
    1.0496   56.7532   72.6355 H   0  0  0  0  0  0  0  0  0  0  0  0
    2.7007   57.5320   72.7116 H   0  0  0  0  0  0  0  0  0  0  0  0
    1.9292   56.9439   75.3762 H   0  0  0  0  0  0  0  0  0  0  0  0
    1.5878   55.4793   74.3938 H   0  0  0  0  0  0  0  0  0  0  0  0
    3.2345   56.1970   74.3938 H   0  0  0  0  0  0  0  0  0  0  0  0
    4.0113   59.4352   73.0951 H   0  0  0  0  0  0  0  0  0  0  0  0
    1.5826   60.0924   71.3252 H   0  0  0  0  0  0  0  0  0  0  0  0
   -0.1290   60.6749   76.2102 H   0  0  0  0  0  0  0  0  0  0  0  0
   -5.5547   60.8741   77.3360 H   0  0  0  0  0  0  0  0  0  0  0  0
   -6.7296   59.0599   76.3333 H   0  0  0  0  0  0  0  0  0  0  0  0
   -5.6667   57.0977   75.5989 H   0  0  0  0  0  0  0  0  0  0  0  0
   -6.6803   57.5224   74.1781 H   0  0  0  0  0  0  0  0  0  0  0  0
   -4.9263   57.9099   74.1781 H   0  0  0  0  0  0  0  0  0  0  0  0
   -6.4101   60.1607   73.4993 H   0  0  0  0  0  0  0  0  0  0  0  0
   -7.9286   59.6303   74.2810 H   0  0  0  0  0  0  0  0  0  0  0  0
   -7.6956   61.2840   75.9896 H   0  0  0  0  0  0  0  0  0  0  0  0
   -5.0806   62.2142   74.5997 H   0  0  0  0  0  0  0  0  0  0  0  0
   -7.1376   63.1714   74.0263 H   0  0  0  0  0  0  0  0  0  0  0  0
   -8.8449   63.0371   76.0135 H   0  0  0  0  0  0  0  0  0  0  0  0
   -9.0294   64.1868   74.6458 H   0  0  0  0  0  0  0  0  0  0  0  0
   -9.9387   62.6377   74.6458 H   0  0  0  0  0  0  0  0  0  0  0  0
   -8.9589   61.1419   72.9397 H   0  0  0  0  0  0  0  0  0  0  0  0
   -8.7355   62.8042   72.2968 H   0  0  0  0  0  0  0  0  0  0  0  0
   -7.3600   61.6489   72.2968 H   0  0  0  0  0  0  0  0  0  0  0  0
   -5.9481   63.2496   77.0559 H   0  0  0  0  0  0  0  0  0  0  0  0
    1.1491   59.6688   79.5701 H   0  0  0  0  0  0  0  0  0  0  0  0
    4.7207   60.0277   78.6983 H   0  0  0  0  0  0  0  0  0  0  0  0
    3.7871   59.6097   81.3003 H   0  0  0  0  0  0  0  0  0  0  0  0
    4.4668   61.1177   80.5999 H   0  0  0  0  0  0  0  0  0  0  0  0
    2.6908   60.8483   80.5999 H   0  0  0  0  0  0  0  0  0  0  0  0
    4.5256   57.9366   80.1056 H   0  0  0  0  0  0  0  0  0  0  0  0
    1.8725   57.7325   77.3215 H   0  0  0  0  0  0  0  0  0  0  0  0
    0.6128   57.4936   78.6111 H   0  0  0  0  0  0  0  0  0  0  0  0
    2.9972   57.3838   81.4329 H   0  0  0  0  0  0  0  0  0  0  0  0
    1.4166   58.0725   80.9289 H   0  0  0  0  0  0  0  0  0  0  0  0
    1.6621   56.2930   80.9289 H   0  0  0  0  0  0  0  0  0  0  0  0
    5.4319   57.2514   78.1751 H   0  0  0  0  0  0  0  0  0  0  0  0
    1.3848   54.7201   78.9963 H   0  0  0  0  0  0  0  0  0  0  0  0
    1.3861   55.8608   77.6087 H   0  0  0  0  0  0  0  0  0  0  0  0
    2.4918   54.4451   77.6087 H   0  0  0  0  0  0  0  0  0  0  0  0
    1.1953   62.4501   78.6288 H   0  0  0  0  0  0  0  0  0  0  0  0
    2.8007   62.8030   77.8864 H   0  0  0  0  0  0  0  0  0  0  0  0
    3.8192   64.5009   78.1049 H   0  0  0  0  0  0  0  0  0  0  0  0
    2.7557   65.9811   78.0975 H   0  0  0  0  0  0  0  0  0  0  0  0
    3.6408   66.7467   80.0030 H   0  0  0  0  0  0  0  0  0  0  0  0
    3.4804   65.1535   80.8117 H   0  0  0  0  0  0  0  0  0  0  0  0
    5.6398   63.8627   81.0187 H   0  0  0  0  0  0  0  0  0  0  0  0
    4.8170   63.4507   79.4760 H   0  0  0  0  0  0  0  0  0  0  0  0
    6.5597   63.8863   79.4760 H   0  0  0  0  0  0  0  0  0  0  0  0
  2  1  2  0
  3  2  1  0
  4  3  1  0
  5  3  1  0
  6  5  1  0
  7  6  1  0
  8  6  1  0
  9  8  1  0
 10  9  1  0
 11  9  1  0
 12 11  1  0
 13 12  1  0
 14 13  2  0
 15 13  1  0
 16 15  1  0
 17 16  1  0
 18 17  1  0
 19 18  1  0
 19  2  1  0
 20 19  1  0
 21 17  1  0
 22 12  1  0
 23 16  1  0
 24 23  1  0
 17 25  1  6
 26 18  1  0
  6 27  1  6
 28  8  1  0
 29 28  1  0
 30 29  1  0
 31 30  1  0
 32 31  1  0
 33 31  1  0
 34 33  1  0
 35 34  1  0
 35 29  1  0
 36 34  1  0
 37 36  1  0
 38 36  1  0
 39 35  1  0
 40 11  1  0
 41 40  1  0
 42 41  1  0
 43 42  1  0
 44 43  1  0
 45 43  1  0
 46 45  1  0
 47 46  1  0
 47 41  1  0
 48 46  1  0
 49 45  1  0
 46 50  1  6
 51 50  1  0
 52  1  1  0
 53 52  1  0
 54 53  1  0
 55 54  1  0
 56 55  1  0
 58 57  1  0
 58 56  1  0
  3 59  1  6
  4 60  1  0
  4 61  1  0
  4 62  1  0
  5 63  1  0
  5 64  1  0
  7 65  1  0
  7 66  1  0
  7 67  1  0
  8 68  1  6
  9 69  1  1
 10 70  1  0
 10 71  1  0
 10 72  1  0
 11 73  1  1
 12 74  1  1
 16 75  1  6
 18 76  1  1
 19 77  1  1
 20 78  1  0
 20 79  1  0
 20 80  1  0
 21 81  1  0
 21 82  1  0
 21 83  1  0
 22 84  1  0
 22 85  1  0
 22 86  1  0
 23 87  1  0
 23 88  1  0
 24 89  1  0
 24 90  1  0
 24 91  1  0
 25 92  1  0
 26 93  1  0
 27 94  1  0
 29 95  1  1
 31 96  1  1
 32 97  1  0
 32 98  1  0
 32 99  1  0
 33100  1  0
 33101  1  0
 34102  1  1
 35103  1  6
 36104  1  0
 37105  1  0
 37106  1  0
 37107  1  0
 38108  1  0
 38109  1  0
 38110  1  0
 39111  1  0
 41112  1  1
 43113  1  6
 44114  1  0
 44115  1  0
 44116  1  0
 45117  1  1
 47118  1  0
 47119  1  0
 48120  1  0
 48121  1  0
 48122  1  0
 49123  1  0
 51124  1  0
 51125  1  0
 51126  1  0
 53127  1  0
 53128  1  0
 55129  1  0
 55130  1  0
 56131  1  0
 56132  1  0
 57133  1  0
 57134  1  0
 57135  1  0
M  CHG  1  36   1
M  END
>  <score>  (6) 
-5.298

$$$$
=
     RDKit          3D

135137  0  0  0  0  0  0  0  0999 V2000
   -0.6840   62.5120   74.3360 N   0  0  0  0  0  0  0  0  0  0  0  0
    0.2900   62.6690   75.1850 C   0  0  0  0  0  0  0  0  0  0  0  0
    1.6100   61.8430   75.1820 C   0  0  2  0  0  0  0  0  0  0  0  0
    2.4350   62.2010   73.9390 C   0  0  0  0  0  0  0  0  0  0  0  0
    1.4840   60.2890   75.3000 C   0  0  0  0  0  0  0  0  0  0  0  0
    0.9400   59.7970   76.6610 C   0  0  2  0  0  0  0  0  0  0  0  0
    1.9610   60.1480   77.7640 C   0  0  0  0  0  0  0  0  0  0  0  0
    0.6280   58.2630   76.7640 C   0  0  1  0  0  0  0  0  0  0  0  0
   -0.6850   57.7820   76.0690 C   0  0  1  0  0  0  0  0  0  0  0  0
   -0.7150   56.2450   75.9380 C   0  0  0  0  0  0  0  0  0  0  0  0
   -2.0680   58.2650   76.6470 C   0  0  1  0  0  0  0  0  0  0  0  0
   -2.3490   58.4360   78.1640 C   0  0  2  0  0  0  0  0  0  0  0  0
   -1.7060   59.6190   78.8890 C   0  0  0  0  0  0  0  0  0  0  0  0
   -0.7990   59.5020   79.7050 O   0  0  0  0  0  0  0  0  0  0  0  0
   -2.3190   60.7920   78.5570 O   0  0  0  0  0  0  0  0  0  0  0  0
   -1.8510   62.0360   79.1760 C   0  0  1  0  0  0  0  0  0  0  0  0
   -1.7110   63.1700   78.0690 C   0  0  1  0  0  0  0  0  0  0  0  0
   -0.1930   63.3410   77.6520 C   0  0  1  0  0  0  0  0  0  0  0  0
    0.1080   63.8330   76.2090 C   0  0  1  0  0  0  0  0  0  0  0  0
    1.2990   64.7940   76.1080 C   0  0  0  0  0  0  0  0  0  0  0  0
   -2.6790   62.9190   76.9130 C   0  0  0  0  0  0  0  0  0  0  0  0
   -2.1050   57.1450   78.9520 C   0  0  0  0  0  0  0  0  0  0  0  0
   -2.8680   62.3430   80.2930 C   0  0  0  0  0  0  0  0  0  0  0  0
   -4.2720   61.8360   79.9950 C   0  0  0  0  0  0  0  0  0  0  0  0
   -2.1210   64.4510   78.6050 O   0  0  0  0  0  0  0  0  0  0  0  0
    0.3790   64.2440   78.6360 O   0  0  0  0  0  0  0  0  0  0  0  0
   -0.2420   60.5280   76.8980 O   0  0  0  0  0  0  0  0  0  0  0  0
    1.7600   57.5540   76.2080 O   0  0  0  0  0  0  0  0  0  0  0  0
    2.4360   56.7080   77.1430 C   0  0  2  0  0  0  0  0  0  0  0  0
    1.5960   56.3470   78.2330 O   0  0  0  0  0  0  0  0  0  0  0  0
    2.2260   55.4880   79.1860 C   0  0  2  0  0  0  0  0  0  0  0  0
    1.1790   55.0980   80.2210 C   0  0  0  0  0  0  0  0  0  0  0  0
    3.4050   56.2190   79.8410 C   0  0  0  0  0  0  0  0  0  0  0  0
    4.3470   56.6920   78.7410 C   0  0  1  0  0  0  0  0  0  0  0  0
    3.6110   57.5340   77.6910 C   0  0  1  0  0  0  0  0  0  0  0  0
    5.5600   57.4750   79.2540 N   0  0  0  0  0  4  0  0  0  0  0  0
    6.5850   56.6090   79.9260 C   0  0  0  0  0  0  0  0  0  0  0  0
    5.2690   58.7160   80.0470 C   0  0  0  0  0  0  0  0  0  0  0  0
    4.5570   57.9210   76.6850 O   0  0  0  0  0  0  0  0  0  0  0  0
   -2.4710   59.4570   75.9460 O   0  0  0  0  0  0  0  0  0  0  0  0
   -3.8840   59.7100   76.0440 C   0  0  2  0  0  0  0  0  0  0  0  0
   -4.5540   58.4940   76.3390 O   0  0  0  0  0  0  0  0  0  0  0  0
   -5.9820   58.5910   76.4260 C   0  0  1  0  0  0  0  0  0  0  0  0
   -6.3940   59.1590   77.7800 C   0  0  0  0  0  0  0  0  0  0  0  0
   -6.6150   59.2910   75.2060 C   0  0  1  0  0  0  0  0  0  0  0  0
   -5.8650   60.5540   74.7000 C   0  0  2  0  0  0  0  0  0  0  0  0
   -4.3560   60.2860   74.7180 C   0  0  0  0  0  0  0  0  0  0  0  0
   -6.2400   61.7890   75.5330 C   0  0  0  0  0  0  0  0  0  0  0  0
   -6.6260   58.3350   74.1180 O   0  0  0  0  0  0  0  0  0  0  0  0
   -6.3610   60.7490   73.3460 O   0  0  0  0  0  0  0  0  0  0  0  0
   -7.6620   61.3100   73.2090 C   0  0  0  0  0  0  0  0  0  0  0  0
   -0.4390   61.4810   73.4230 O   0  0  0  0  0  0  0  0  0  0  0  0
   -0.3970   62.0040   72.0910 C   0  0  0  0  0  0  0  0  0  0  0  0
    0.8630   61.7210   71.4830 O   0  0  0  0  0  0  0  0  0  0  0  0
    1.2790   62.7460   70.5840 C   0  0  0  0  0  0  0  0  0  0  0  0
    0.7020   64.1170   70.9350 C   0  0  0  0  0  0  0  0  0  0  0  0
    0.4770   66.3280   70.1530 C   0  0  0  0  0  0  0  0  0  0  0  0
    1.0060   65.0360   69.8860 O   0  0  0  0  0  0  0  0  0  0  0  0
    2.1086   62.1367   76.1175 H   0  0  0  0  0  0  0  0  0  0  0  0
    3.4030   62.6210   74.2499 H   0  0  0  0  0  0  0  0  0  0  0  0
    2.6043   61.2954   73.3380 H   0  0  0  0  0  0  0  0  0  0  0  0
    1.8892   62.9432   73.3380 H   0  0  0  0  0  0  0  0  0  0  0  0
    0.8044   59.9373   74.5098 H   0  0  0  0  0  0  0  0  0  0  0  0
    2.5011   59.8818   75.2011 H   0  0  0  0  0  0  0  0  0  0  0  0
    1.5027   59.9904   78.7515 H   0  0  0  0  0  0  0  0  0  0  0  0
    2.8460   59.5025   77.6633 H   0  0  0  0  0  0  0  0  0  0  0  0
    2.2620   61.2012   77.6633 H   0  0  0  0  0  0  0  0  0  0  0  0
    0.4607   58.0489   77.8299 H   0  0  0  0  0  0  0  0  0  0  0  0
   -0.6091   58.2918   75.0972 H   0  0  0  0  0  0  0  0  0  0  0  0
   -0.7238   55.7917   76.9402 H   0  0  0  0  0  0  0  0  0  0  0  0
   -1.6192   55.9413   75.3902 H   0  0  0  0  0  0  0  0  0  0  0  0
    0.1767   55.9062   75.3902 H   0  0  0  0  0  0  0  0  0  0  0  0
   -2.6669   57.3595   76.4697 H   0  0  0  0  0  0  0  0  0  0  0  0
   -3.4196   58.6882   78.1483 H   0  0  0  0  0  0  0  0  0  0  0  0
   -0.8469   61.9644   79.6194 H   0  0  0  0  0  0  0  0  0  0  0  0
    0.2560   62.3369   77.6374 H   0  0  0  0  0  0  0  0  0  0  0  0
   -0.7976   64.3971   75.9414 H   0  0  0  0  0  0  0  0  0  0  0  0
    1.6369   65.0666   77.1187 H   0  0  0  0  0  0  0  0  0  0  0  0
    2.1212   64.3033   75.5664 H   0  0  0  0  0  0  0  0  0  0  0  0
    0.9932   65.7013   75.5664 H   0  0  0  0  0  0  0  0  0  0  0  0
   -3.6704   62.6619   77.3142 H   0  0  0  0  0  0  0  0  0  0  0  0
   -2.7570   63.8266   76.2964 H   0  0  0  0  0  0  0  0  0  0  0  0
   -2.3062   62.0878   76.2964 H   0  0  0  0  0  0  0  0  0  0  0  0
   -2.1457   57.3602   80.0300 H   0  0  0  0  0  0  0  0  0  0  0  0
   -2.8796   56.4072   78.6959 H   0  0  0  0  0  0  0  0  0  0  0  0
   -1.1146   56.7407   78.6959 H   0  0  0  0  0  0  0  0  0  0  0  0
   -2.5174   61.8700   81.2222 H   0  0  0  0  0  0  0  0  0  0  0  0
   -2.9319   63.4378   80.3791 H   0  0  0  0  0  0  0  0  0  0  0  0
   -4.8012   61.6449   80.9402 H   0  0  0  0  0  0  0  0  0  0  0  0
   -4.8198   62.5931   79.4147 H   0  0  0  0  0  0  0  0  0  0  0  0
   -4.2097   60.9036   79.4147 H   0  0  0  0  0  0  0  0  0  0  0  0
   -2.1091   64.4139   79.5942 H   0  0  0  0  0  0  0  0  0  0  0  0
    0.1706   63.9151   79.5462 H   0  0  0  0  0  0  0  0  0  0  0  0
   -0.3852   60.6166   77.8736 H   0  0  0  0  0  0  0  0  0  0  0  0
    2.7528   55.7797   76.6452 H   0  0  0  0  0  0  0  0  0  0  0  0
    2.6222   54.5833   78.7016 H   0  0  0  0  0  0  0  0  0  0  0  0
    1.5874   55.2501   81.2310 H   0  0  0  0  0  0  0  0  0  0  0  0
    0.2832   55.7227   80.0898 H   0  0  0  0  0  0  0  0  0  0  0  0
    0.9102   54.0394   80.0898 H   0  0  0  0  0  0  0  0  0  0  0  0
    3.0355   57.0840   80.4113 H   0  0  0  0  0  0  0  0  0  0  0  0
    3.9348   55.5429   80.5282 H   0  0  0  0  0  0  0  0  0  0  0  0
    4.7252   55.7669   78.2814 H   0  0  0  0  0  0  0  0  0  0  0  0
    3.1869   58.4570   78.1132 H   0  0  0  0  0  0  0  0  0  0  0  0
    5.9723   57.8313   78.3800 H   0  0  0  0  0  0  0  0  0  0  0  0
    6.4807   56.6971   81.0175 H   0  0  0  0  0  0  0  0  0  0  0  0
    6.4332   55.5615   79.6265 H   0  0  0  0  0  0  0  0  0  0  0  0
    7.5924   56.9336   79.6265 H   0  0  0  0  0  0  0  0  0  0  0  0
    5.3230   58.4857   81.1213 H   0  0  0  0  0  0  0  0  0  0  0  0
    6.0098   59.4908   79.8004 H   0  0  0  0  0  0  0  0  0  0  0  0
    4.2610   59.0808   79.8004 H   0  0  0  0  0  0  0  0  0  0  0  0
    5.3807   58.2580   77.1187 H   0  0  0  0  0  0  0  0  0  0  0  0
   -4.1032   60.4280   76.8480 H   0  0  0  0  0  0  0  0  0  0  0  0
   -6.4038   57.5762   76.3775 H   0  0  0  0  0  0  0  0  0  0  0  0
   -5.9524   58.5502   78.5827 H   0  0  0  0  0  0  0  0  0  0  0  0
   -6.0364   60.1956   77.8670 H   0  0  0  0  0  0  0  0  0  0  0  0
   -7.4904   59.1409   77.8670 H   0  0  0  0  0  0  0  0  0  0  0  0
   -7.6110   59.6295   75.5276 H   0  0  0  0  0  0  0  0  0  0  0  0
   -4.1147   59.5718   73.9170 H   0  0  0  0  0  0  0  0  0  0  0  0
   -3.8433   61.2478   74.5693 H   0  0  0  0  0  0  0  0  0  0  0  0
   -6.1661   61.5457   76.6032 H   0  0  0  0  0  0  0  0  0  0  0  0
   -5.5518   62.6138   75.2961 H   0  0  0  0  0  0  0  0  0  0  0  0
   -7.2706   62.0919   75.2961 H   0  0  0  0  0  0  0  0  0  0  0  0
   -6.6366   57.4161   74.4862 H   0  0  0  0  0  0  0  0  0  0  0  0
   -8.0888   61.4940   74.2060 H   0  0  0  0  0  0  0  0  0  0  0  0
   -7.5957   62.2595   72.6576 H   0  0  0  0  0  0  0  0  0  0  0  0
   -8.3069   60.6100   72.6576 H   0  0  0  0  0  0  0  0  0  0  0  0
   -1.1983   61.5424   71.4953 H   0  0  0  0  0  0  0  0  0  0  0  0
   -0.5356   63.0945   72.1321 H   0  0  0  0  0  0  0  0  0  0  0  0
    2.3768   62.8105   70.6095 H   0  0  0  0  0  0  0  0  0  0  0  0
    0.9070   62.4782   69.5840 H   0  0  0  0  0  0  0  0  0  0  0  0
   -0.3891   64.0384   71.0508 H   0  0  0  0  0  0  0  0  0  0  0  0
    1.1424   64.4732   71.8779 H   0  0  0  0  0  0  0  0  0  0  0  0
    0.4144   66.4810   71.2405 H   0  0  0  0  0  0  0  0  0  0  0  0
    1.1348   67.0917   69.7126 H   0  0  0  0  0  0  0  0  0  0  0  0
   -0.5275   66.4111   69.7126 H   0  0  0  0  0  0  0  0  0  0  0  0
  2  1  2  0
  3  2  1  0
  4  3  1  0
  5  3  1  0
  6  5  1  0
  7  6  1  0
  8  6  1  0
  9  8  1  0
 10  9  1  0
 11  9  1  0
 12 11  1  0
 13 12  1  0
 14 13  2  0
 15 13  1  0
 16 15  1  0
 17 16  1  0
 18 17  1  0
 19 18  1  0
 19  2  1  0
 20 19  1  0
 21 17  1  0
 22 12  1  0
 23 16  1  0
 24 23  1  0
 17 25  1  1
 26 18  1  0
  6 27  1  1
 28  8  1  0
 29 28  1  0
 30 29  1  0
 31 30  1  0
 32 31  1  0
 33 31  1  0
 34 33  1  0
 35 34  1  0
 35 29  1  0
 36 34  1  0
 37 36  1  0
 38 36  1  0
 39 35  1  0
 40 11  1  0
 41 40  1  0
 42 41  1  0
 43 42  1  0
 44 43  1  0
 45 43  1  0
 46 45  1  0
 47 46  1  0
 47 41  1  0
 48 46  1  0
 49 45  1  0
 46 50  1  6
 51 50  1  0
 52  1  1  0
 53 52  1  0
 54 53  1  0
 55 54  1  0
 56 55  1  0
 58 57  1  0
 58 56  1  0
  3 59  1  1
  4 60  1  0
  4 61  1  0
  4 62  1  0
  5 63  1  0
  5 64  1  0
  7 65  1  0
  7 66  1  0
  7 67  1  0
  8 68  1  1
  9 69  1  6
 10 70  1  0
 10 71  1  0
 10 72  1  0
 11 73  1  6
 12 74  1  6
 16 75  1  1
 18 76  1  6
 19 77  1  6
 20 78  1  0
 20 79  1  0
 20 80  1  0
 21 81  1  0
 21 82  1  0
 21 83  1  0
 22 84  1  0
 22 85  1  0
 22 86  1  0
 23 87  1  0
 23 88  1  0
 24 89  1  0
 24 90  1  0
 24 91  1  0
 25 92  1  0
 26 93  1  0
 27 94  1  0
 29 95  1  6
 31 96  1  6
 32 97  1  0
 32 98  1  0
 32 99  1  0
 33100  1  0
 33101  1  0
 34102  1  6
 35103  1  1
 36104  1  0
 37105  1  0
 37106  1  0
 37107  1  0
 38108  1  0
 38109  1  0
 38110  1  0
 39111  1  0
 41112  1  1
 43113  1  1
 44114  1  0
 44115  1  0
 44116  1  0
 45117  1  1
 47118  1  0
 47119  1  0
 48120  1  0
 48121  1  0
 48122  1  0
 49123  1  0
 51124  1  0
 51125  1  0
 51126  1  0
 53127  1  0
 53128  1  0
 55129  1  0
 55130  1  0
 56131  1  0
 56132  1  0
 57133  1  0
 57134  1  0
 57135  1  0
M  CHG  1  36   1
M  END
>  <score>  (7) 
-5.286

$$$$
=
     RDKit          3D

135137  0  0  0  0  0  0  0  0999 V2000
    0.6610   63.4410   77.1320 N   0  0  0  0  0  0  0  0  0  0  0  0
   -0.2500   63.6260   76.2200 C   0  0  0  0  0  0  0  0  0  0  0  0
   -1.7820   63.4750   76.4550 C   0  0  2  0  0  0  0  0  0  0  0  0
   -2.2700   64.5930   77.3860 C   0  0  0  0  0  0  0  0  0  0  0  0
   -2.2940   62.0940   76.9780 C   0  0  0  0  0  0  0  0  0  0  0  0
   -2.1280   60.9320   75.9730 C   0  0  2  0  0  0  0  0  0  0  0  0
   -3.0290   61.1960   74.7480 C   0  0  0  0  0  0  0  0  0  0  0  0
   -2.4610   59.4970   76.5150 C   0  0  1  0  0  0  0  0  0  0  0  0
   -1.3840   58.8470   77.4410 C   0  0  1  0  0  0  0  0  0  0  0  0
   -1.9530   57.6160   78.1780 C   0  0  0  0  0  0  0  0  0  0  0  0
    0.0120   58.4630   76.8230 C   0  0  1  0  0  0  0  0  0  0  0  0
    0.1870   57.8920   75.3890 C   0  0  2  0  0  0  0  0  0  0  0  0
   -0.0030   58.8420   74.2060 C   0  0  0  0  0  0  0  0  0  0  0  0
   -0.9580   58.7880   73.4400 O   0  0  0  0  0  0  0  0  0  0  0  0
    1.0540   59.6960   74.0850 O   0  0  0  0  0  0  0  0  0  0  0  0
    1.0590   60.6680   72.9880 C   0  0  1  0  0  0  0  0  0  0  0  0
    1.4890   62.0980   73.5350 C   0  0  1  0  0  0  0  0  0  0  0  0
    0.2130   63.0130   73.7340 C   0  0  1  0  0  0  0  0  0  0  0  0
    0.2760   64.1110   74.8330 C   0  0  1  0  0  0  0  0  0  0  0  0
   -0.4200   65.4230   74.4520 C   0  0  0  0  0  0  0  0  0  0  0  0
    2.3880   61.9580   74.7630 C   0  0  0  0  0  0  0  0  0  0  0  0
   -0.6250   56.6130   75.1680 C   0  0  0  0  0  0  0  0  0  0  0  0
    1.9980   60.0720   71.9200 C   0  0  0  0  0  0  0  0  0  0  0  0
    3.0670   59.1540   72.4950 C   0  0  0  0  0  0  0  0  0  0  0  0
    2.3180   62.7800   72.5640 O   0  0  0  0  0  0  0  0  0  0  0  0
   -0.0490   63.6020   72.4320 O   0  0  0  0  0  0  0  0  0  0  0  0
   -0.7820   60.9670   75.5520 O   0  0  0  0  0  0  0  0  0  0  0  0
   -3.7200   59.5850   77.2230 O   0  0  0  0  0  0  0  0  0  0  0  0
   -4.8460   59.1200   76.4710 C   0  0  2  0  0  0  0  0  0  0  0  0
   -5.5320   60.1900   75.8320 O   0  0  0  0  0  0  0  0  0  0  0  0
   -6.6570   59.7710   75.0570 C   0  0  2  0  0  0  0  0  0  0  0  0
   -7.2140   60.9980   74.3470 C   0  0  0  0  0  0  0  0  0  0  0  0
   -7.7110   59.1360   75.9740 C   0  0  0  0  0  0  0  0  0  0  0  0
   -7.0530   58.0000   76.7450 C   0  0  1  0  0  0  0  0  0  0  0  0
   -5.7980   58.4740   77.4900 C   0  0  1  0  0  0  0  0  0  0  0  0
   -7.9880   57.2940   77.7330 N   0  0  0  0  0  4  0  0  0  0  0  0
   -9.1120   56.5570   77.0660 C   0  0  0  0  0  0  0  0  0  0  0  0
   -8.4690   58.1110   78.8980 C   0  0  0  0  0  0  0  0  0  0  0  0
   -5.2290   57.3460   78.1700 O   0  0  0  0  0  0  0  0  0  0  0  0
    0.9220   59.5630   77.0160 O   0  0  0  0  0  0  0  0  0  0  0  0
    1.8380   59.3440   78.1040 C   0  0  2  0  0  0  0  0  0  0  0  0
    3.0670   59.9950   77.8150 O   0  0  0  0  0  0  0  0  0  0  0  0
    4.0920   59.8250   78.8020 C   0  0  1  0  0  0  0  0  0  0  0  0
    3.8580   60.7670   79.9790 C   0  0  0  0  0  0  0  0  0  0  0  0
    4.3240   58.3500   79.1850 C   0  0  1  0  0  0  0  0  0  0  0  0
    3.0370   57.5010   79.3720 C   0  0  2  0  0  0  0  0  0  0  0  0
    2.0390   57.8440   78.2610 C   0  0  0  0  0  0  0  0  0  0  0  0
    2.4360   57.7110   80.7700 C   0  0  0  0  0  0  0  0  0  0  0  0
    5.0860   57.7410   78.1140 O   0  0  0  0  0  0  0  0  0  0  0  0
    3.4960   56.1240   79.2760 O   0  0  0  0  0  0  0  0  0  0  0  0
    3.6380   55.4030   80.4950 C   0  0  0  0  0  0  0  0  0  0  0  0
    0.1190   63.0470   78.3600 O   0  0  0  0  0  0  0  0  0  0  0  0
    1.1030   63.1720   79.3930 C   0  0  0  0  0  0  0  0  0  0  0  0
    2.3360   63.6460   78.8520 O   0  0  0  0  0  0  0  0  0  0  0  0
    2.8990   64.7040   79.6240 C   0  0  0  0  0  0  0  0  0  0  0  0
    4.4200   64.6090   79.7450 C   0  0  0  0  0  0  0  0  0  0  0  0
    4.4280   66.8690   79.0810 C   0  0  0  0  0  0  0  0  0  0  0  0
    4.9530   65.9100   79.9890 O   0  0  0  0  0  0  0  0  0  0  0  0
   -2.2137   63.5491   75.4460 H   0  0  0  0  0  0  0  0  0  0  0  0
   -2.1349   64.2835   78.4329 H   0  0  0  0  0  0  0  0  0  0  0  0
   -1.6893   65.5078   77.1962 H   0  0  0  0  0  0  0  0  0  0  0  0
   -3.3356   64.7892   77.1962 H   0  0  0  0  0  0  0  0  0  0  0  0
   -1.7344   61.8424   77.8910 H   0  0  0  0  0  0  0  0  0  0  0  0
   -3.3739   62.2051   77.1554 H   0  0  0  0  0  0  0  0  0  0  0  0
   -4.0330   61.4902   75.0879 H   0  0  0  0  0  0  0  0  0  0  0  0
   -2.5955   62.0049   74.1415 H   0  0  0  0  0  0  0  0  0  0  0  0
   -3.1006   60.2811   74.1415 H   0  0  0  0  0  0  0  0  0  0  0  0
   -2.4986   58.8326   75.6391 H   0  0  0  0  0  0  0  0  0  0  0  0
   -1.1551   59.6822   78.1193 H   0  0  0  0  0  0  0  0  0  0  0  0
   -1.8804   57.7731   79.2643 H   0  0  0  0  0  0  0  0  0  0  0  0
   -3.0073   57.4756   77.8975 H   0  0  0  0  0  0  0  0  0  0  0  0
   -1.3768   56.7220   77.8975 H   0  0  0  0  0  0  0  0  0  0  0  0
    0.2165   57.5443   77.3924 H   0  0  0  0  0  0  0  0  0  0  0  0
    1.2656   57.6762   75.3818 H   0  0  0  0  0  0  0  0  0  0  0  0
    0.0703   60.8379   72.5368 H   0  0  0  0  0  0  0  0  0  0  0  0
   -0.5926   62.3681   74.1149 H   0  0  0  0  0  0  0  0  0  0  0  0
    1.3525   64.3198   74.9192 H   0  0  0  0  0  0  0  0  0  0  0  0
   -0.7072   65.9644   75.3655 H   0  0  0  0  0  0  0  0  0  0  0  0
    0.2674   66.0438   73.8586 H   0  0  0  0  0  0  0  0  0  0  0  0
   -1.3195   65.2020   73.8586 H   0  0  0  0  0  0  0  0  0  0  0  0
    1.7803   62.0526   75.6750 H   0  0  0  0  0  0  0  0  0  0  0  0
    2.8772   60.9729   74.7489 H   0  0  0  0  0  0  0  0  0  0  0  0
    3.1536   62.7477   74.7489 H   0  0  0  0  0  0  0  0  0  0  0  0
   -0.8997   56.1803   76.1413 H   0  0  0  0  0  0  0  0  0  0  0  0
   -1.5376   56.8513   74.6020 H   0  0  0  0  0  0  0  0  0  0  0  0
   -0.0211   55.8885   74.6020 H   0  0  0  0  0  0  0  0  0  0  0  0
    1.3915   59.4956   71.2059 H   0  0  0  0  0  0  0  0  0  0  0  0
    2.5187   60.9143   71.4409 H   0  0  0  0  0  0  0  0  0  0  0  0
    3.0273   59.1881   73.5938 H   0  0  0  0  0  0  0  0  0  0  0  0
    2.8881   58.1238   72.1534 H   0  0  0  0  0  0  0  0  0  0  0  0
    4.0583   59.4866   72.1534 H   0  0  0  0  0  0  0  0  0  0  0  0
    2.9905   63.3333   73.0348 H   0  0  0  0  0  0  0  0  0  0  0  0
   -0.4485   64.5001   72.5504 H   0  0  0  0  0  0  0  0  0  0  0  0
   -0.1887   60.9824   76.3444 H   0  0  0  0  0  0  0  0  0  0  0  0
   -4.5119   58.4240   75.6875 H   0  0  0  0  0  0  0  0  0  0  0  0
   -6.3643   59.0150   74.3135 H   0  0  0  0  0  0  0  0  0  0  0  0
   -7.5479   61.7336   75.0936 H   0  0  0  0  0  0  0  0  0  0  0  0
   -6.4304   61.4445   73.7173 H   0  0  0  0  0  0  0  0  0  0  0  0
   -8.0660   60.7020   73.7173 H   0  0  0  0  0  0  0  0  0  0  0  0
   -8.0944   59.8897   76.6775 H   0  0  0  0  0  0  0  0  0  0  0  0
   -8.5506   58.7515   75.3764 H   0  0  0  0  0  0  0  0  0  0  0  0
   -6.7757   57.2656   75.9744 H   0  0  0  0  0  0  0  0  0  0  0  0
   -6.0217   59.2357   78.2515 H   0  0  0  0  0  0  0  0  0  0  0  0
   -7.3630   56.5953   78.1597 H   0  0  0  0  0  0  0  0  0  0  0  0
   -9.7722   56.1241   77.8320 H   0  0  0  0  0  0  0  0  0  0  0  0
   -9.6864   57.2544   76.4385 H   0  0  0  0  0  0  0  0  0  0  0  0
   -8.7014   55.7522   76.4385 H   0  0  0  0  0  0  0  0  0  0  0  0
   -8.1783   57.6173   79.8370 H   0  0  0  0  0  0  0  0  0  0  0  0
   -8.0165   59.1127   78.8551 H   0  0  0  0  0  0  0  0  0  0  0  0
   -9.5644   58.2014   78.8551 H   0  0  0  0  0  0  0  0  0  0  0  0
   -5.2974   57.4815   79.1483 H   0  0  0  0  0  0  0  0  0  0  0  0
    1.4420   59.7560   79.0439 H   0  0  0  0  0  0  0  0  0  0  0  0
    5.0541   60.1208   78.3582 H   0  0  0  0  0  0  0  0  0  0  0  0
    3.9947   60.2169   80.9217 H   0  0  0  0  0  0  0  0  0  0  0  0
    4.5770   61.5982   79.9320 H   0  0  0  0  0  0  0  0  0  0  0  0
    2.8337   61.1651   79.9320 H   0  0  0  0  0  0  0  0  0  0  0  0
    4.8333   58.3614   80.1599 H   0  0  0  0  0  0  0  0  0  0  0  0
    2.4146   57.4366   77.3107 H   0  0  0  0  0  0  0  0  0  0  0  0
    1.0691   57.4026   78.5337 H   0  0  0  0  0  0  0  0  0  0  0  0
    3.1836   57.4498   81.5335 H   0  0  0  0  0  0  0  0  0  0  0  0
    2.1433   58.7647   80.8888 H   0  0  0  0  0  0  0  0  0  0  0  0
    1.5508   57.0689   80.8888 H   0  0  0  0  0  0  0  0  0  0  0  0
    5.7986   57.1715   78.4985 H   0  0  0  0  0  0  0  0  0  0  0  0
    3.5029   56.0887   81.3444 H   0  0  0  0  0  0  0  0  0  0  0  0
    2.8792   54.6080   80.5413 H   0  0  0  0  0  0  0  0  0  0  0  0
    4.6416   54.9551   80.5413 H   0  0  0  0  0  0  0  0  0  0  0  0
    0.7434   63.8825   80.1519 H   0  0  0  0  0  0  0  0  0  0  0  0
    1.2696   62.1845   79.8480 H   0  0  0  0  0  0  0  0  0  0  0  0
    2.6442   65.6613   79.1458 H   0  0  0  0  0  0  0  0  0  0  0  0
    2.4821   64.6294   80.6392 H   0  0  0  0  0  0  0  0  0  0  0  0
    4.6818   63.9416   80.5793 H   0  0  0  0  0  0  0  0  0  0  0  0
    4.8407   64.2061   78.8119 H   0  0  0  0  0  0  0  0  0  0  0  0
    3.9744   67.6976   79.6446 H   0  0  0  0  0  0  0  0  0  0  0  0
    5.2395   67.2571   78.4478 H   0  0  0  0  0  0  0  0  0  0  0  0
    3.6638   66.3945   78.4478 H   0  0  0  0  0  0  0  0  0  0  0  0
  2  1  2  0
  3  2  1  0
  4  3  1  0
  5  3  1  0
  6  5  1  0
  7  6  1  0
  8  6  1  0
  9  8  1  0
 10  9  1  0
 11  9  1  0
 12 11  1  0
 13 12  1  0
 14 13  2  0
 15 13  1  0
 16 15  1  0
 17 16  1  0
 18 17  1  0
 19 18  1  0
 19  2  1  0
 20 19  1  0
 21 17  1  0
 22 12  1  0
 23 16  1  0
 24 23  1  0
 17 25  1  6
 26 18  1  0
  6 27  1  6
 28  8  1  0
 29 28  1  0
 30 29  1  0
 31 30  1  0
 32 31  1  0
 33 31  1  0
 34 33  1  0
 35 34  1  0
 35 29  1  0
 36 34  1  0
 37 36  1  0
 38 36  1  0
 39 35  1  0
 40 11  1  0
 41 40  1  0
 42 41  1  0
 43 42  1  0
 44 43  1  0
 45 43  1  0
 46 45  1  0
 47 46  1  0
 47 41  1  0
 48 46  1  0
 49 45  1  0
 46 50  1  1
 51 50  1  0
 52  1  1  0
 53 52  1  0
 54 53  1  0
 55 54  1  0
 56 55  1  0
 58 57  1  0
 58 56  1  0
  3 59  1  6
  4 60  1  0
  4 61  1  0
  4 62  1  0
  5 63  1  0
  5 64  1  0
  7 65  1  0
  7 66  1  0
  7 67  1  0
  8 68  1  6
  9 69  1  1
 10 70  1  0
 10 71  1  0
 10 72  1  0
 11 73  1  1
 12 74  1  1
 16 75  1  6
 18 76  1  1
 19 77  1  1
 20 78  1  0
 20 79  1  0
 20 80  1  0
 21 81  1  0
 21 82  1  0
 21 83  1  0
 22 84  1  0
 22 85  1  0
 22 86  1  0
 23 87  1  0
 23 88  1  0
 24 89  1  0
 24 90  1  0
 24 91  1  0
 25 92  1  0
 26 93  1  0
 27 94  1  0
 29 95  1  6
 31 96  1  6
 32 97  1  0
 32 98  1  0
 32 99  1  0
 33100  1  0
 33101  1  0
 34102  1  6
 35103  1  1
 36104  1  0
 37105  1  0
 37106  1  0
 37107  1  0
 38108  1  0
 38109  1  0
 38110  1  0
 39111  1  0
 41112  1  1
 43113  1  6
 44114  1  0
 44115  1  0
 44116  1  0
 45117  1  1
 47118  1  0
 47119  1  0
 48120  1  0
 48121  1  0
 48122  1  0
 49123  1  0
 51124  1  0
 51125  1  0
 51126  1  0
 53127  1  0
 53128  1  0
 55129  1  0
 55130  1  0
 56131  1  0
 56132  1  0
 57133  1  0
 57134  1  0
 57135  1  0
M  CHG  1  36   1
M  END
>  <score>  (8) 
-5.173

$$$$
=
     RDKit          3D

135137  0  0  0  0  0  0  0  0999 V2000
   -1.1480   62.6460   74.4980 N   0  0  0  0  0  0  0  0  0  0  0  0
   -0.4780   61.9120   75.3390 C   0  0  0  0  0  0  0  0  0  0  0  0
   -0.1350   60.4080   75.1240 C   0  0  2  0  0  0  0  0  0  0  0  0
    0.8690   60.2710   73.9720 C   0  0  0  0  0  0  0  0  0  0  0  0
   -1.3300   59.4250   74.9010 C   0  0  0  0  0  0  0  0  0  0  0  0
   -2.2480   59.2500   76.1320 C   0  0  2  0  0  0  0  0  0  0  0  0
   -1.4460   58.5710   77.2630 C   0  0  0  0  0  0  0  0  0  0  0  0
   -3.5570   58.4160   75.9030 C   0  0  1  0  0  0  0  0  0  0  0  0
   -4.7130   59.1470   75.1480 C   0  0  1  0  0  0  0  0  0  0  0  0
   -5.7940   58.1490   74.6840 C   0  0  0  0  0  0  0  0  0  0  0  0
   -5.4220   60.3660   75.8490 C   0  0  1  0  0  0  0  0  0  0  0  0
   -5.7140   60.4260   77.3740 C   0  0  2  0  0  0  0  0  0  0  0  0
   -4.5380   60.6460   78.3260 C   0  0  0  0  0  0  0  0  0  0  0  0
   -4.1020   59.7800   79.0760 O   0  0  0  0  0  0  0  0  0  0  0  0
   -4.0950   61.9360   78.2740 O   0  0  0  0  0  0  0  0  0  0  0  0
   -2.9840   62.3390   79.1400 C   0  0  1  0  0  0  0  0  0  0  0  0
   -1.9330   63.1940   78.3060 C   0  0  1  0  0  0  0  0  0  0  0  0
   -0.6950   62.2950   77.9030 C   0  0  1  0  0  0  0  0  0  0  0  0
    0.0670   62.6580   76.5970 C   0  0  1  0  0  0  0  0  0  0  0  0
    1.5870   62.4740   76.6820 C   0  0  0  0  0  0  0  0  0  0  0  0
   -2.6210   63.9120   77.1460 C   0  0  0  0  0  0  0  0  0  0  0  0
   -6.5610   59.2440   77.8520 C   0  0  0  0  0  0  0  0  0  0  0  0
   -3.6370   63.0860   80.3200 C   0  0  0  0  0  0  0  0  0  0  0  0
   -4.9160   63.8200   79.9430 C   0  0  0  0  0  0  0  0  0  0  0  0
   -1.3970   64.2650   79.1200 O   0  0  0  0  0  0  0  0  0  0  0  0
    0.2000   62.3320   79.0480 O   0  0  0  0  0  0  0  0  0  0  0  0
   -2.5950   60.5510   76.5510 O   0  0  0  0  0  0  0  0  0  0  0  0
   -3.1860   57.2200   75.1790 O   0  0  0  0  0  0  0  0  0  0  0  0
   -3.3520   56.0100   75.9250 C   0  0  2  0  0  0  0  0  0  0  0  0
   -3.7120   56.2680   77.2770 O   0  0  0  0  0  0  0  0  0  0  0  0
   -3.9040   55.0870   78.0580 C   0  0  2  0  0  0  0  0  0  0  0  0
   -4.3950   55.5160   79.4340 C   0  0  0  0  0  0  0  0  0  0  0  0
   -2.5840   54.3120   78.1570 C   0  0  0  0  0  0  0  0  0  0  0  0
   -2.0870   54.0280   76.7460 C   0  0  1  0  0  0  0  0  0  0  0  0
   -1.9830   55.3130   75.9150 C   0  0  1  0  0  0  0  0  0  0  0  0
   -0.7480   53.2850   76.6950 N   0  0  0  0  0  4  0  0  0  0  0  0
   -0.8580   51.8340   77.0630 C   0  0  0  0  0  0  0  0  0  0  0  0
    0.4120   53.9490   77.3790 C   0  0  0  0  0  0  0  0  0  0  0  0
   -1.5310   54.9580   74.6000 O   0  0  0  0  0  0  0  0  0  0  0  0
   -4.7680   61.5810   75.4370 O   0  0  0  0  0  0  0  0  0  0  0  0
   -5.6960   62.6270   75.0990 C   0  0  2  0  0  0  0  0  0  0  0  0
   -5.5820   63.6750   76.0500 O   0  0  0  0  0  0  0  0  0  0  0  0
   -6.4840   64.7720   75.8570 C   0  0  1  0  0  0  0  0  0  0  0  0
   -5.9680   65.6970   74.7600 C   0  0  0  0  0  0  0  0  0  0  0  0
   -7.9520   64.3270   75.6950 C   0  0  1  0  0  0  0  0  0  0  0  0
   -8.1740   63.0830   74.7930 C   0  0  2  0  0  0  0  0  0  0  0  0
   -7.0980   62.0360   75.1010 C   0  0  0  0  0  0  0  0  0  0  0  0
   -8.1880   63.4730   73.3080 C   0  0  0  0  0  0  0  0  0  0  0  0
   -8.4490   63.9940   77.0140 O   0  0  0  0  0  0  0  0  0  0  0  0
   -9.5030   62.6100   75.1520 O   0  0  0  0  0  0  0  0  0  0  0  0
   -9.6510   61.2150   75.3870 C   0  0  0  0  0  0  0  0  0  0  0  0
   -1.5710   61.9260   73.3750 O   0  0  0  0  0  0  0  0  0  0  0  0
   -0.8050   62.3110   72.2280 C   0  0  0  0  0  0  0  0  0  0  0  0
   -0.1600   63.5640   72.4570 O   0  0  0  0  0  0  0  0  0  0  0  0
    1.2060   63.5570   72.0510 C   0  0  0  0  0  0  0  0  0  0  0  0
    1.4130   64.1030   70.6390 C   0  0  0  0  0  0  0  0  0  0  0  0
    3.1860   62.9560   69.5960 C   0  0  0  0  0  0  0  0  0  0  0  0
    1.7770   63.0310   69.7710 O   0  0  0  0  0  0  0  0  0  0  0  0
    0.2870   60.0917   76.0893 H   0  0  0  0  0  0  0  0  0  0  0  0
    1.8805   60.1330   74.3816 H   0  0  0  0  0  0  0  0  0  0  0  0
    0.6017   59.4010   73.3542 H   0  0  0  0  0  0  0  0  0  0  0  0
    0.8446   61.1808   73.3542 H   0  0  0  0  0  0  0  0  0  0  0  0
   -1.9392   59.8067   74.0684 H   0  0  0  0  0  0  0  0  0  0  0  0
   -0.8913   58.4381   74.6925 H   0  0  0  0  0  0  0  0  0  0  0  0
   -1.8354   58.9007   78.2375 H   0  0  0  0  0  0  0  0  0  0  0  0
   -1.5459   57.4788   77.1787 H   0  0  0  0  0  0  0  0  0  0  0  0
   -0.3852   58.8497   77.1787 H   0  0  0  0  0  0  0  0  0  0  0  0
   -3.9744   58.2106   76.8998 H   0  0  0  0  0  0  0  0  0  0  0  0
   -4.1643   59.6019   74.3101 H   0  0  0  0  0  0  0  0  0  0  0  0
   -6.2801   57.7002   75.5628 H   0  0  0  0  0  0  0  0  0  0  0  0
   -6.5456   58.6775   74.0792 H   0  0  0  0  0  0  0  0  0  0  0  0
   -5.3271   57.3577   74.0792 H   0  0  0  0  0  0  0  0  0  0  0  0
   -6.4501   60.2106   75.4900 H   0  0  0  0  0  0  0  0  0  0  0  0
   -6.2826   61.3653   77.4395 H   0  0  0  0  0  0  0  0  0  0  0  0
   -2.3963   61.4969   79.5345 H   0  0  0  0  0  0  0  0  0  0  0  0
   -1.0853   61.2961   77.6585 H   0  0  0  0  0  0  0  0  0  0  0  0
   -0.1298   63.7341   76.4814 H   0  0  0  0  0  0  0  0  0  0  0  0
    1.8934   62.4369   77.7378 H   0  0  0  0  0  0  0  0  0  0  0  0
    1.8711   61.5349   76.1846 H   0  0  0  0  0  0  0  0  0  0  0  0
    2.0869   63.3182   76.1846 H   0  0  0  0  0  0  0  0  0  0  0  0
   -3.3309   64.6528   77.5426 H   0  0  0  0  0  0  0  0  0  0  0  0
   -1.8652   64.4214   76.5301 H   0  0  0  0  0  0  0  0  0  0  0  0
   -3.1622   63.1787   76.5301 H   0  0  0  0  0  0  0  0  0  0  0  0
   -6.5753   59.2241   78.9517 H   0  0  0  0  0  0  0  0  0  0  0  0
   -7.5883   59.3524   77.4739 H   0  0  0  0  0  0  0  0  0  0  0  0
   -6.1282   58.3061   77.4739 H   0  0  0  0  0  0  0  0  0  0  0  0
   -3.8747   62.3543   81.1062 H   0  0  0  0  0  0  0  0  0  0  0  0
   -2.9171   63.8453   80.6594 H   0  0  0  0  0  0  0  0  0  0  0  0
   -5.4469   64.1247   80.8570 H   0  0  0  0  0  0  0  0  0  0  0  0
   -4.6657   64.7119   79.3498 H   0  0  0  0  0  0  0  0  0  0  0  0
   -5.5598   63.1539   79.3498 H   0  0  0  0  0  0  0  0  0  0  0  0
   -1.5097   64.0399   80.0775 H   0  0  0  0  0  0  0  0  0  0  0  0
   -0.3314   62.3100   79.8830 H   0  0  0  0  0  0  0  0  0  0  0  0
   -2.6047   60.5875   77.5403 H   0  0  0  0  0  0  0  0  0  0  0  0
   -4.1518   55.4021   75.4769 H   0  0  0  0  0  0  0  0  0  0  0  0
   -4.6461   54.4215   77.5927 H   0  0  0  0  0  0  0  0  0  0  0  0
   -3.8075   55.0027   80.2094 H   0  0  0  0  0  0  0  0  0  0  0  0
   -4.2752   56.6040   79.5433 H   0  0  0  0  0  0  0  0  0  0  0  0
   -5.4571   55.2513   79.5433 H   0  0  0  0  0  0  0  0  0  0  0  0
   -1.8396   54.9137   78.6991 H   0  0  0  0  0  0  0  0  0  0  0  0
   -2.7394   53.3682   78.7003 H   0  0  0  0  0  0  0  0  0  0  0  0
   -2.8470   53.3618   76.3118 H   0  0  0  0  0  0  0  0  0  0  0  0
   -1.2558   56.0261   76.3306 H   0  0  0  0  0  0  0  0  0  0  0  0
   -0.5099   53.3389   75.6943 H   0  0  0  0  0  0  0  0  0  0  0  0
   -0.8657   51.7331   78.1583 H   0  0  0  0  0  0  0  0  0  0  0  0
   -1.7901   51.4207   76.6502 H   0  0  0  0  0  0  0  0  0  0  0  0
    0.0011   51.2849   76.6502 H   0  0  0  0  0  0  0  0  0  0  0  0
    0.2852   53.8764   78.4693 H   0  0  0  0  0  0  0  0  0  0  0  0
    1.3465   53.4490   77.0844 H   0  0  0  0  0  0  0  0  0  0  0  0
    0.4541   55.0080   77.0844 H   0  0  0  0  0  0  0  0  0  0  0  0
   -0.7545   54.3481   74.6714 H   0  0  0  0  0  0  0  0  0  0  0  0
   -5.4805   63.0417   74.1032 H   0  0  0  0  0  0  0  0  0  0  0  0
   -6.5054   65.3704   76.7798 H   0  0  0  0  0  0  0  0  0  0  0  0
   -5.4805   66.5710   75.2166 H   0  0  0  0  0  0  0  0  0  0  0  0
   -5.2413   65.1561   74.1360 H   0  0  0  0  0  0  0  0  0  0  0  0
   -6.8100   66.0312   74.1360 H   0  0  0  0  0  0  0  0  0  0  0  0
   -8.4754   65.1620   75.2062 H   0  0  0  0  0  0  0  0  0  0  0  0
   -7.2982   61.6050   76.0930 H   0  0  0  0  0  0  0  0  0  0  0  0
   -7.1401   61.2700   74.3127 H   0  0  0  0  0  0  0  0  0  0  0  0
   -8.2273   64.5685   73.2170 H   0  0  0  0  0  0  0  0  0  0  0  0
   -7.2758   63.0972   72.8216 H   0  0  0  0  0  0  0  0  0  0  0  0
   -9.0709   63.0327   72.8216 H   0  0  0  0  0  0  0  0  0  0  0  0
   -7.8561   64.3913   77.7001 H   0  0  0  0  0  0  0  0  0  0  0  0
   -9.6711   61.0258   76.4704 H   0  0  0  0  0  0  0  0  0  0  0  0
  -10.5913   60.8649   74.9362 H   0  0  0  0  0  0  0  0  0  0  0  0
   -8.8051   60.6754   74.9362 H   0  0  0  0  0  0  0  0  0  0  0  0
   -0.0436   61.5431   72.0264 H   0  0  0  0  0  0  0  0  0  0  0  0
   -1.4802   62.4101   71.3653 H   0  0  0  0  0  0  0  0  0  0  0  0
    1.7836   64.1753   72.7539 H   0  0  0  0  0  0  0  0  0  0  0  0
    1.5435   62.5101   72.0512 H   0  0  0  0  0  0  0  0  0  0  0  0
    0.4804   64.5647   70.2825 H   0  0  0  0  0  0  0  0  0  0  0  0
    2.2119   64.8590   70.6482 H   0  0  0  0  0  0  0  0  0  0  0  0
    3.6768   62.9299   70.5801 H   0  0  0  0  0  0  0  0  0  0  0  0
    3.4379   62.0432   69.0363 H   0  0  0  0  0  0  0  0  0  0  0  0
    3.5334   63.8369   69.0363 H   0  0  0  0  0  0  0  0  0  0  0  0
  2  1  2  0
  3  2  1  0
  4  3  1  0
  5  3  1  0
  6  5  1  0
  7  6  1  0
  8  6  1  0
  9  8  1  0
 10  9  1  0
 11  9  1  0
 12 11  1  0
 13 12  1  0
 14 13  2  0
 15 13  1  0
 16 15  1  0
 17 16  1  0
 18 17  1  0
 19 18  1  0
 19  2  1  0
 20 19  1  0
 21 17  1  0
 22 12  1  0
 23 16  1  0
 24 23  1  0
 17 25  1  1
 26 18  1  0
  6 27  1  1
 28  8  1  0
 29 28  1  0
 30 29  1  0
 31 30  1  0
 32 31  1  0
 33 31  1  0
 34 33  1  0
 35 34  1  0
 35 29  1  0
 36 34  1  0
 37 36  1  0
 38 36  1  0
 39 35  1  0
 40 11  1  0
 41 40  1  0
 42 41  1  0
 43 42  1  0
 44 43  1  0
 45 43  1  0
 46 45  1  0
 47 46  1  0
 47 41  1  0
 48 46  1  0
 49 45  1  0
 46 50  1  1
 51 50  1  0
 52  1  1  0
 53 52  1  0
 54 53  1  0
 55 54  1  0
 56 55  1  0
 58 57  1  0
 58 56  1  0
  3 59  1  1
  4 60  1  0
  4 61  1  0
  4 62  1  0
  5 63  1  0
  5 64  1  0
  7 65  1  0
  7 66  1  0
  7 67  1  0
  8 68  1  1
  9 69  1  6
 10 70  1  0
 10 71  1  0
 10 72  1  0
 11 73  1  6
 12 74  1  6
 16 75  1  1
 18 76  1  6
 19 77  1  6
 20 78  1  0
 20 79  1  0
 20 80  1  0
 21 81  1  0
 21 82  1  0
 21 83  1  0
 22 84  1  0
 22 85  1  0
 22 86  1  0
 23 87  1  0
 23 88  1  0
 24 89  1  0
 24 90  1  0
 24 91  1  0
 25 92  1  0
 26 93  1  0
 27 94  1  0
 29 95  1  6
 31 96  1  6
 32 97  1  0
 32 98  1  0
 32 99  1  0
 33100  1  0
 33101  1  0
 34102  1  6
 35103  1  1
 36104  1  0
 37105  1  0
 37106  1  0
 37107  1  0
 38108  1  0
 38109  1  0
 38110  1  0
 39111  1  0
 41112  1  6
 43113  1  1
 44114  1  0
 44115  1  0
 44116  1  0
 45117  1  6
 47118  1  0
 47119  1  0
 48120  1  0
 48121  1  0
 48122  1  0
 49123  1  0
 51124  1  0
 51125  1  0
 51126  1  0
 53127  1  0
 53128  1  0
 55129  1  0
 55130  1  0
 56131  1  0
 56132  1  0
 57133  1  0
 57134  1  0
 57135  1  0
M  CHG  1  36   1
M  END
>  <score>  (9) 
-5.107

$$$$
