=
     RDKit          3D

 28 28  0  0  0  0  0  0  0  0999 V2000
    2.6710   68.9360   66.1360 C   0  0  0  0  0  0  0  0  0  0  0  0
    3.9780   69.1940   65.6850 C   0  0  0  0  0  0  0  0  0  0  0  0
    4.9120   69.8340   66.5080 C   0  0  0  0  0  0  0  0  0  0  0  0
    4.5610   70.2140   67.8000 C   0  0  0  0  0  0  0  0  0  0  0  0
    3.2800   69.9390   68.2570 C   0  0  0  0  0  0  0  0  0  0  0  0
    2.3410   69.3020   67.4460 C   0  0  0  0  0  0  0  0  0  0  0  0
    1.6770   68.2090   65.2200 N   0  0  0  0  0  4  0  0  0  0  0  0
    0.2690   68.3680   65.7970 C   0  0  0  0  0  0  0  0  0  0  0  0
    1.9790   66.7080   65.1760 C   0  0  0  0  0  0  0  0  0  0  0  0
    0.4910   69.1300   63.1510 C   0  0  0  0  0  0  0  0  0  0  0  0
    1.8240   68.8460   63.8270 C   0  0  0  0  0  0  0  0  0  0  0  0
    2.8860   70.2760   69.5170 O   0  0  0  0  0  0  0  0  0  0  0  0
    4.2707   68.8881   64.6698 H   0  0  0  0  0  0  0  0  0  0  0  0
    5.9258   70.0371   66.1327 H   0  0  0  0  0  0  0  0  0  0  0  0
    5.2879   70.7245   68.4489 H   0  0  0  0  0  0  0  0  0  0  0  0
    1.3361   69.0862   67.8379 H   0  0  0  0  0  0  0  0  0  0  0  0
    0.3202   68.3622   66.8958 H   0  0  0  0  0  0  0  0  0  0  0  0
   -0.1620   69.3205   65.4550 H   0  0  0  0  0  0  0  0  0  0  0  0
   -0.3636   67.5356   65.4550 H   0  0  0  0  0  0  0  0  0  0  0  0
    2.0572   66.3195   66.2021 H   0  0  0  0  0  0  0  0  0  0  0  0
    1.1679   66.1861   64.6471 H   0  0  0  0  0  0  0  0  0  0  0  0
    2.9289   66.5404   64.6471 H   0  0  0  0  0  0  0  0  0  0  0  0
   -0.2810   69.2945   63.9172 H   0  0  0  0  0  0  0  0  0  0  0  0
    0.5822   70.0289   62.5235 H   0  0  0  0  0  0  0  0  0  0  0  0
    0.2079   68.2720   62.5235 H   0  0  0  0  0  0  0  0  0  0  0  0
    2.4000   68.1600   63.1885 H   0  0  0  0  0  0  0  0  0  0  0  0
    2.3326   69.8119   63.9627 H   0  0  0  0  0  0  0  0  0  0  0  0
    1.9665   70.0692   69.8201 H   0  0  0  0  0  0  0  0  0  0  0  0
  2  1  2  0
  3  2  1  0
  4  3  2  0
  5  4  1  0
  6  5  2  0
  6  1  1  0
  7  1  1  0
  8  7  1  0
  9  7  1  0
 11 10  1  0
 11  7  1  0
 12  5  1  0
  2 13  1  0
  3 14  1  0
  4 15  1  0
  6 16  1  0
  8 17  1  0
  8 18  1  0
  8 19  1  0
  9 20  1  0
  9 21  1  0
  9 22  1  0
 10 23  1  0
 10 24  1  0
 10 25  1  0
 11 26  1  0
 11 27  1  0
 12 28  1  0
M  CHG  1   7   1
M  END
>  <score>  (1) 
-6.623

$$$$
=
     RDKit          3D

 28 28  0  0  0  0  0  0  0  0999 V2000
    2.6600   68.8230   66.2050 C   0  0  0  0  0  0  0  0  0  0  0  0
    3.9430   69.1010   65.7000 C   0  0  0  0  0  0  0  0  0  0  0  0
    4.8840   69.8000   66.4650 C   0  0  0  0  0  0  0  0  0  0  0  0
    4.5660   70.2190   67.7530 C   0  0  0  0  0  0  0  0  0  0  0  0
    3.3100   69.9240   68.2650 C   0  0  0  0  0  0  0  0  0  0  0  0
    2.3640   69.2290   67.5120 C   0  0  0  0  0  0  0  0  0  0  0  0
    1.6590   68.0330   65.3530 N   0  0  0  0  0  4  0  0  0  0  0  0
    2.2490   66.6550   65.0480 C   0  0  0  0  0  0  0  0  0  0  0  0
    1.4240   68.7290   64.0090 C   0  0  0  0  0  0  0  0  0  0  0  0
   -0.7840   68.7580   65.5650 C   0  0  0  0  0  0  0  0  0  0  0  0
    0.3570   67.9550   66.1710 C   0  0  0  0  0  0  0  0  0  0  0  0
    2.9480   70.2980   69.5250 O   0  0  0  0  0  0  0  0  0  0  0  0
    4.2111   68.7638   64.6879 H   0  0  0  0  0  0  0  0  0  0  0  0
    5.8776   70.0186   66.0467 H   0  0  0  0  0  0  0  0  0  0  0  0
    5.2985   70.7754   68.3562 H   0  0  0  0  0  0  0  0  0  0  0  0
    1.3803   68.9986   67.9470 H   0  0  0  0  0  0  0  0  0  0  0  0
    2.4718   66.1346   65.9912 H   0  0  0  0  0  0  0  0  0  0  0  0
    1.5241   66.0662   64.4668 H   0  0  0  0  0  0  0  0  0  0  0  0
    3.1754   66.7732   64.4668 H   0  0  0  0  0  0  0  0  0  0  0  0
    1.0766   69.7578   64.1847 H   0  0  0  0  0  0  0  0  0  0  0  0
    2.3643   68.7518   63.4386 H   0  0  0  0  0  0  0  0  0  0  0  0
    0.6624   68.1772   63.4386 H   0  0  0  0  0  0  0  0  0  0  0  0
   -1.3969   69.1893   66.3702 H   0  0  0  0  0  0  0  0  0  0  0  0
   -0.3732   69.5672   64.9433 H   0  0  0  0  0  0  0  0  0  0  0  0
   -1.4070   68.0982   64.9433 H   0  0  0  0  0  0  0  0  0  0  0  0
    0.5564   68.3400   67.1820 H   0  0  0  0  0  0  0  0  0  0  0  0
    0.0428   66.9009   66.1831 H   0  0  0  0  0  0  0  0  0  0  0  0
    2.0461   70.0757   69.8674 H   0  0  0  0  0  0  0  0  0  0  0  0
  2  1  2  0
  3  2  1  0
  4  3  2  0
  5  4  1  0
  6  5  2  0
  6  1  1  0
  7  1  1  0
  8  7  1  0
  9  7  1  0
 11 10  1  0
 11  7  1  0
 12  5  1  0
  2 13  1  0
  3 14  1  0
  4 15  1  0
  6 16  1  0
  8 17  1  0
  8 18  1  0
  8 19  1  0
  9 20  1  0
  9 21  1  0
  9 22  1  0
 10 23  1  0
 10 24  1  0
 10 25  1  0
 11 26  1  0
 11 27  1  0
 12 28  1  0
M  CHG  1   7   1
M  END
>  <score>  (2) 
-6.525

$$$$
=
     RDKit          3D

 28 28  0  0  0  0  0  0  0  0999 V2000
    3.9810   69.1500   65.5380 C   0  0  0  0  0  0  0  0  0  0  0  0
    5.2590   69.6310   65.8750 C   0  0  0  0  0  0  0  0  0  0  0  0
    5.5100   70.1910   67.1340 C   0  0  0  0  0  0  0  0  0  0  0  0
    4.4940   70.2650   68.0810 C   0  0  0  0  0  0  0  0  0  0  0  0
    3.2390   69.7690   67.7610 C   0  0  0  0  0  0  0  0  0  0  0  0
    2.9760   69.2100   66.5100 C   0  0  0  0  0  0  0  0  0  0  0  0
    3.7430   68.5190   64.1600 N   0  0  0  0  0  4  0  0  0  0  0  0
    4.0970   67.0320   64.2300 C   0  0  0  0  0  0  0  0  0  0  0  0
    4.6600   69.1510   63.1090 C   0  0  0  0  0  0  0  0  0  0  0  0
    1.9660   68.6920   62.3300 C   0  0  0  0  0  0  0  0  0  0  0  0
    2.2610   68.7620   63.8210 C   0  0  0  0  0  0  0  0  0  0  0  0
    2.2100   69.8030   68.6550 O   0  0  0  0  0  0  0  0  0  0  0  0
    6.0737   69.5664   65.1387 H   0  0  0  0  0  0  0  0  0  0  0  0
    6.5131   70.5732   67.3744 H   0  0  0  0  0  0  0  0  0  0  0  0
    4.6830   70.7102   69.0689 H   0  0  0  0  0  0  0  0  0  0  0  0
    1.9741   68.8146   66.2867 H   0  0  0  0  0  0  0  0  0  0  0  0
    4.1708   66.7218   65.2828 H   0  0  0  0  0  0  0  0  0  0  0  0
    3.3136   66.4446   63.7288 H   0  0  0  0  0  0  0  0  0  0  0  0
    5.0610   66.8606   63.7288 H   0  0  0  0  0  0  0  0  0  0  0  0
    5.4657   69.7063   63.6116 H   0  0  0  0  0  0  0  0  0  0  0  0
    5.0962   68.3608   62.4802 H   0  0  0  0  0  0  0  0  0  0  0  0
    4.0769   69.8399   62.4802 H   0  0  0  0  0  0  0  0  0  0  0  0
    0.9061   68.4405   62.1774 H   0  0  0  0  0  0  0  0  0  0  0  0
    2.1820   69.6663   61.8674 H   0  0  0  0  0  0  0  0  0  0  0  0
    2.5967   67.9186   61.8674 H   0  0  0  0  0  0  0  0  0  0  0  0
    1.9783   69.7602   64.1865 H   0  0  0  0  0  0  0  0  0  0  0  0
    1.6804   67.9635   64.3061 H   0  0  0  0  0  0  0  0  0  0  0  0
    1.3231   69.4426   68.4028 H   0  0  0  0  0  0  0  0  0  0  0  0
  2  1  2  0
  3  2  1  0
  4  3  2  0
  5  4  1  0
  6  5  2  0
  6  1  1  0
  7  1  1  0
  8  7  1  0
  9  7  1  0
 11 10  1  0
 11  7  1  0
 12  5  1  0
  2 13  1  0
  3 14  1  0
  4 15  1  0
  6 16  1  0
  8 17  1  0
  8 18  1  0
  8 19  1  0
  9 20  1  0
  9 21  1  0
  9 22  1  0
 10 23  1  0
 10 24  1  0
 10 25  1  0
 11 26  1  0
 11 27  1  0
 12 28  1  0
M  CHG  1   7   1
M  END
>  <score>  (3) 
-6.447

$$$$
=
     RDKit          3D

 28 28  0  0  0  0  0  0  0  0999 V2000
    3.6670   69.0140   65.4060 C   0  0  0  0  0  0  0  0  0  0  0  0
    2.8510   69.2080   66.5350 C   0  0  0  0  0  0  0  0  0  0  0  0
    3.3620   69.7810   67.7050 C   0  0  0  0  0  0  0  0  0  0  0  0
    4.6920   70.1840   67.7630 C   0  0  0  0  0  0  0  0  0  0  0  0
    5.4940   70.0180   66.6430 C   0  0  0  0  0  0  0  0  0  0  0  0
    4.9960   69.4470   65.4720 C   0  0  0  0  0  0  0  0  0  0  0  0
    3.0720   68.4060   64.1290 N   0  0  0  0  0  4  0  0  0  0  0  0
    3.2590   66.8870   64.1730 C   0  0  0  0  0  0  0  0  0  0  0  0
    3.8140   68.9150   62.8900 C   0  0  0  0  0  0  0  0  0  0  0  0
    1.0310   68.9490   62.6900 C   0  0  0  0  0  0  0  0  0  0  0  0
    1.5910   68.8220   64.0990 C   0  0  0  0  0  0  0  0  0  0  0  0
    6.8010   70.4070   66.6370 O   0  0  0  0  0  0  0  0  0  0  0  0
    1.7944   68.9045   66.4977 H   0  0  0  0  0  0  0  0  0  0  0  0
    2.7101   69.9130   68.5811 H   0  0  0  0  0  0  0  0  0  0  0  0
    5.1016   70.6274   68.6825 H   0  0  0  0  0  0  0  0  0  0  0  0
    5.6515   69.3364   64.5956 H   0  0  0  0  0  0  0  0  0  0  0  0
    3.3001   66.5528   65.2202 H   0  0  0  0  0  0  0  0  0  0  0  0
    2.4142   66.3987   63.6652 H   0  0  0  0  0  0  0  0  0  0  0  0
    4.1970   66.6182   63.6652 H   0  0  0  0  0  0  0  0  0  0  0  0
    4.6837   69.5116   63.2027 H   0  0  0  0  0  0  0  0  0  0  0  0
    4.1537   68.0589   62.2886 H   0  0  0  0  0  0  0  0  0  0  0  0
    3.1376   69.5402   62.2886 H   0  0  0  0  0  0  0  0  0  0  0  0
   -0.0406   69.1920   62.7419 H   0  0  0  0  0  0  0  0  0  0  0  0
    1.5630   69.7493   62.1547 H   0  0  0  0  0  0  0  0  0  0  0  0
    1.1657   67.9975   62.1547 H   0  0  0  0  0  0  0  0  0  0  0  0
    1.4910   69.7943   64.6036 H   0  0  0  0  0  0  0  0  0  0  0  0
    1.0196   68.0312   64.6071 H   0  0  0  0  0  0  0  0  0  0  0  0
    7.3523   70.2776   65.8249 H   0  0  0  0  0  0  0  0  0  0  0  0
  2  1  2  0
  3  2  1  0
  4  3  2  0
  5  4  1  0
  6  5  2  0
  6  1  1  0
  7  1  1  0
  8  7  1  0
  9  7  1  0
 11 10  1  0
 11  7  1  0
 12  5  1  0
  2 13  1  0
  3 14  1  0
  4 15  1  0
  6 16  1  0
  8 17  1  0
  8 18  1  0
  8 19  1  0
  9 20  1  0
  9 21  1  0
  9 22  1  0
 10 23  1  0
 10 24  1  0
 10 25  1  0
 11 26  1  0
 11 27  1  0
 12 28  1  0
M  CHG  1   7   1
M  END
>  <score>  (4) 
-6.348

$$$$
=
     RDKit          3D

 28 28  0  0  0  0  0  0  0  0999 V2000
    2.9200   60.4400   71.2300 C   0  0  0  0  0  0  0  0  0  0  0  0
    2.0610   60.2060   72.3190 C   0  0  0  0  0  0  0  0  0  0  0  0
    1.7880   58.9040   72.7560 C   0  0  0  0  0  0  0  0  0  0  0  0
    2.3790   57.8150   72.1230 C   0  0  0  0  0  0  0  0  0  0  0  0
    3.2460   58.0430   71.0640 C   0  0  0  0  0  0  0  0  0  0  0  0
    3.5260   59.3350   70.6190 C   0  0  0  0  0  0  0  0  0  0  0  0
    3.2210   61.8780   70.7900 N   0  0  0  0  0  4  0  0  0  0  0  0
    4.7140   62.1520   70.9870 C   0  0  0  0  0  0  0  0  0  0  0  0
    2.4600   62.8810   71.6620 C   0  0  0  0  0  0  0  0  0  0  0  0
    3.7390   62.8110   68.4670 C   0  0  0  0  0  0  0  0  0  0  0  0
    2.7870   61.9820   69.3170 C   0  0  0  0  0  0  0  0  0  0  0  0
    3.8640   57.0150   70.4150 O   0  0  0  0  0  0  0  0  0  0  0  0
    1.5965   61.0590   72.8353 H   0  0  0  0  0  0  0  0  0  0  0  0
    1.1043   58.7417   73.6023 H   0  0  0  0  0  0  0  0  0  0  0  0
    2.1623   56.7895   72.4568 H   0  0  0  0  0  0  0  0  0  0  0  0
    4.2261   59.4867   69.7842 H   0  0  0  0  0  0  0  0  0  0  0  0
    4.9404   62.1935   72.0627 H   0  0  0  0  0  0  0  0  0  0  0  0
    5.2994   61.3463   70.5200 H   0  0  0  0  0  0  0  0  0  0  0  0
    4.9752   63.1131   70.5200 H   0  0  0  0  0  0  0  0  0  0  0  0
    2.6347   62.6507   72.7233 H   0  0  0  0  0  0  0  0  0  0  0  0
    2.8149   63.8992   71.4445 H   0  0  0  0  0  0  0  0  0  0  0  0
    1.3838   62.8135   71.4445 H   0  0  0  0  0  0  0  0  0  0  0  0
    4.4052   63.3911   69.1225 H   0  0  0  0  0  0  0  0  0  0  0  0
    4.3398   62.1432   67.8321 H   0  0  0  0  0  0  0  0  0  0  0  0
    3.1601   63.4979   67.8321 H   0  0  0  0  0  0  0  0  0  0  0  0
    1.7903   62.4458   69.2784 H   0  0  0  0  0  0  0  0  0  0  0  0
    2.7854   60.9622   68.9046 H   0  0  0  0  0  0  0  0  0  0  0  0
    4.4786   57.2032   69.6620 H   0  0  0  0  0  0  0  0  0  0  0  0
  2  1  2  0
  3  2  1  0
  4  3  2  0
  5  4  1  0
  6  5  2  0
  6  1  1  0
  7  1  1  0
  8  7  1  0
  9  7  1  0
 11 10  1  0
 11  7  1  0
 12  5  1  0
  2 13  1  0
  3 14  1  0
  4 15  1  0
  6 16  1  0
  8 17  1  0
  8 18  1  0
  8 19  1  0
  9 20  1  0
  9 21  1  0
  9 22  1  0
 10 23  1  0
 10 24  1  0
 10 25  1  0
 11 26  1  0
 11 27  1  0
 12 28  1  0
M  CHG  1   7   1
M  END
>  <score>  (5) 
-5.994

$$$$
=
     RDKit          3D

 28 28  0  0  0  0  0  0  0  0999 V2000
    2.8760   68.3130   65.0190 C   0  0  0  0  0  0  0  0  0  0  0  0
    3.2820   69.1580   66.0680 C   0  0  0  0  0  0  0  0  0  0  0  0
    2.5330   69.2540   67.2470 C   0  0  0  0  0  0  0  0  0  0  0  0
    1.3760   68.4980   67.4040 C   0  0  0  0  0  0  0  0  0  0  0  0
    0.9860   67.6450   66.3820 C   0  0  0  0  0  0  0  0  0  0  0  0
    1.7230   67.5410   65.2020 C   0  0  0  0  0  0  0  0  0  0  0  0
    3.7310   68.2090   63.7490 N   0  0  0  0  0  4  0  0  0  0  0  0
    4.4950   66.8840   63.7760 C   0  0  0  0  0  0  0  0  0  0  0  0
    4.7740   69.3290   63.7040 C   0  0  0  0  0  0  0  0  0  0  0  0
    3.4140   68.8230   61.2870 C   0  0  0  0  0  0  0  0  0  0  0  0
    2.7580   68.3100   62.5610 C   0  0  0  0  0  0  0  0  0  0  0  0
   -0.1300   66.8700   66.4870 O   0  0  0  0  0  0  0  0  0  0  0  0
    4.2015   69.7521   65.9603 H   0  0  0  0  0  0  0  0  0  0  0  0
    2.8604   69.9291   68.0514 H   0  0  0  0  0  0  0  0  0  0  0  0
    0.7792   68.5754   68.3248 H   0  0  0  0  0  0  0  0  0  0  0  0
    1.3964   66.8490   64.4118 H   0  0  0  0  0  0  0  0  0  0  0  0
    4.6690   66.5823   64.8194 H   0  0  0  0  0  0  0  0  0  0  0  0
    3.9046   66.1098   63.2640 H   0  0  0  0  0  0  0  0  0  0  0  0
    5.4608   67.0071   63.2640 H   0  0  0  0  0  0  0  0  0  0  0  0
    5.0445   69.6195   64.7299 H   0  0  0  0  0  0  0  0  0  0  0  0
    5.6707   68.9740   63.1749 H   0  0  0  0  0  0  0  0  0  0  0  0
    4.3561   70.1982   63.1749 H   0  0  0  0  0  0  0  0  0  0  0  0
    4.2559   69.4813   61.5475 H   0  0  0  0  0  0  0  0  0  0  0  0
    3.7834   67.9717   60.6964 H   0  0  0  0  0  0  0  0  0  0  0  0
    2.6769   69.3867   60.6964 H   0  0  0  0  0  0  0  0  0  0  0  0
    1.9430   68.9962   62.8347 H   0  0  0  0  0  0  0  0  0  0  0  0
    2.3921   67.2938   62.3525 H   0  0  0  0  0  0  0  0  0  0  0  0
   -0.3872   66.2692   65.7434 H   0  0  0  0  0  0  0  0  0  0  0  0
  2  1  2  0
  3  2  1  0
  4  3  2  0
  5  4  1  0
  6  5  2  0
  6  1  1  0
  7  1  1  0
  8  7  1  0
  9  7  1  0
 11 10  1  0
 11  7  1  0
 12  5  1  0
  2 13  1  0
  3 14  1  0
  4 15  1  0
  6 16  1  0
  8 17  1  0
  8 18  1  0
  8 19  1  0
  9 20  1  0
  9 21  1  0
  9 22  1  0
 10 23  1  0
 10 24  1  0
 10 25  1  0
 11 26  1  0
 11 27  1  0
 12 28  1  0
M  CHG  1   7   1
M  END
>  <score>  (6) 
-5.826

$$$$
=
     RDKit          3D

 28 28  0  0  0  0  0  0  0  0999 V2000
    3.1270   68.7930   64.8980 C   0  0  0  0  0  0  0  0  0  0  0  0
    3.3900   68.5960   63.5300 C   0  0  0  0  0  0  0  0  0  0  0  0
    4.5970   69.0160   62.9600 C   0  0  0  0  0  0  0  0  0  0  0  0
    5.5680   69.6260   63.7480 C   0  0  0  0  0  0  0  0  0  0  0  0
    5.3230   69.8000   65.1020 C   0  0  0  0  0  0  0  0  0  0  0  0
    4.1230   69.3860   65.6820 C   0  0  0  0  0  0  0  0  0  0  0  0
    1.8050   68.3000   65.5000 N   0  0  0  0  0  4  0  0  0  0  0  0
    1.8430   66.7720   65.5870 C   0  0  0  0  0  0  0  0  0  0  0  0
    0.6260   68.6690   64.5950 C   0  0  0  0  0  0  0  0  0  0  0  0
    0.6870   68.2730   67.7980 C   0  0  0  0  0  0  0  0  0  0  0  0
    1.6770   68.9710   66.8790 C   0  0  0  0  0  0  0  0  0  0  0  0
    6.2430   70.3790   65.9250 O   0  0  0  0  0  0  0  0  0  0  0  0
    2.6352   68.1042   62.8988 H   0  0  0  0  0  0  0  0  0  0  0  0
    4.7787   68.8635   61.8859 H   0  0  0  0  0  0  0  0  0  0  0  0
    6.5155   69.9651   63.3039 H   0  0  0  0  0  0  0  0  0  0  0  0
    3.9593   69.5265   66.7606 H   0  0  0  0  0  0  0  0  0  0  0  0
    1.8506   66.4650   66.6433 H   0  0  0  0  0  0  0  0  0  0  0  0
    0.9550   66.3542   65.0901 H   0  0  0  0  0  0  0  0  0  0  0  0
    2.7507   66.3989   65.0901 H   0  0  0  0  0  0  0  0  0  0  0  0
   -0.2412   68.9404   65.2149 H   0  0  0  0  0  0  0  0  0  0  0  0
    0.9044   69.5230   63.9600 H   0  0  0  0  0  0  0  0  0  0  0  0
    0.3679   67.8087   63.9600 H   0  0  0  0  0  0  0  0  0  0  0  0
    0.9606   68.4659   68.8458 H   0  0  0  0  0  0  0  0  0  0  0  0
   -0.3254   68.6581   67.6065 H   0  0  0  0  0  0  0  0  0  0  0  0
    0.7096   67.1900   67.6065 H   0  0  0  0  0  0  0  0  0  0  0  0
    1.3451   70.0094   66.7325 H   0  0  0  0  0  0  0  0  0  0  0  0
    2.6641   68.9154   67.3612 H   0  0  0  0  0  0  0  0  0  0  0  0
    6.0439   70.4918   66.8882 H   0  0  0  0  0  0  0  0  0  0  0  0
  2  1  2  0
  3  2  1  0
  4  3  2  0
  5  4  1  0
  6  5  2  0
  6  1  1  0
  7  1  1  0
  8  7  1  0
  9  7  1  0
 11 10  1  0
 11  7  1  0
 12  5  1  0
  2 13  1  0
  3 14  1  0
  4 15  1  0
  6 16  1  0
  8 17  1  0
  8 18  1  0
  8 19  1  0
  9 20  1  0
  9 21  1  0
  9 22  1  0
 10 23  1  0
 10 24  1  0
 10 25  1  0
 11 26  1  0
 11 27  1  0
 12 28  1  0
M  CHG  1   7   1
M  END
>  <score>  (7) 
-5.729

$$$$
=
     RDKit          3D

 28 28  0  0  0  0  0  0  0  0999 V2000
    1.6490   68.6290   64.0320 C   0  0  0  0  0  0  0  0  0  0  0  0
    0.2970   69.0060   63.9340 C   0  0  0  0  0  0  0  0  0  0  0  0
   -0.2560   69.4010   62.7100 C   0  0  0  0  0  0  0  0  0  0  0  0
    0.5270   69.4120   61.5600 C   0  0  0  0  0  0  0  0  0  0  0  0
    1.8550   69.0170   61.6470 C   0  0  0  0  0  0  0  0  0  0  0  0
    2.4170   68.6220   62.8610 C   0  0  0  0  0  0  0  0  0  0  0  0
    2.2210   68.1770   65.3820 N   0  0  0  0  0  4  0  0  0  0  0  0
    3.4710   69.0050   65.6900 C   0  0  0  0  0  0  0  0  0  0  0  0
    2.6560   66.7100   65.3220 C   0  0  0  0  0  0  0  0  0  0  0  0
    1.5140   69.2710   67.5820 C   0  0  0  0  0  0  0  0  0  0  0  0
    1.1010   68.3820   66.4180 C   0  0  0  0  0  0  0  0  0  0  0  0
    2.6650   68.9940   60.5510 O   0  0  0  0  0  0  0  0  0  0  0  0
   -0.3357   68.9901   64.8337 H   0  0  0  0  0  0  0  0  0  0  0  0
   -1.3123   69.7034   62.6574 H   0  0  0  0  0  0  0  0  0  0  0  0
    0.1004   69.7288   60.5968 H   0  0  0  0  0  0  0  0  0  0  0  0
    3.4691   68.3033   62.8988 H   0  0  0  0  0  0  0  0  0  0  0  0
    3.5965   69.0881   66.7797 H   0  0  0  0  0  0  0  0  0  0  0  0
    4.3534   68.5122   65.2558 H   0  0  0  0  0  0  0  0  0  0  0  0
    3.3614   70.0097   65.2558 H   0  0  0  0  0  0  0  0  0  0  0  0
    2.7717   66.3198   66.3439 H   0  0  0  0  0  0  0  0  0  0  0  0
    1.8933   66.1229   64.7895 H   0  0  0  0  0  0  0  0  0  0  0  0
    3.6155   66.6335   64.7895 H   0  0  0  0  0  0  0  0  0  0  0  0
    1.2793   68.7658   68.5305 H   0  0  0  0  0  0  0  0  0  0  0  0
    2.5952   69.4665   67.5284 H   0  0  0  0  0  0  0  0  0  0  0  0
    0.9661   70.2233   67.5284 H   0  0  0  0  0  0  0  0  0  0  0  0
    0.8090   67.3989   66.8158 H   0  0  0  0  0  0  0  0  0  0  0  0
    0.2687   68.8843   65.9033 H   0  0  0  0  0  0  0  0  0  0  0  0
    3.6088   68.7083   60.6389 H   0  0  0  0  0  0  0  0  0  0  0  0
  2  1  2  0
  3  2  1  0
  4  3  2  0
  5  4  1  0
  6  5  2  0
  6  1  1  0
  7  1  1  0
  8  7  1  0
  9  7  1  0
 11 10  1  0
 11  7  1  0
 12  5  1  0
  2 13  1  0
  3 14  1  0
  4 15  1  0
  6 16  1  0
  8 17  1  0
  8 18  1  0
  8 19  1  0
  9 20  1  0
  9 21  1  0
  9 22  1  0
 10 23  1  0
 10 24  1  0
 10 25  1  0
 11 26  1  0
 11 27  1  0
 12 28  1  0
M  CHG  1   7   1
M  END
>  <score>  (8) 
-5.71

$$$$
=
     RDKit          3D

 28 28  0  0  0  0  0  0  0  0999 V2000
    3.0620   68.5720   64.1600 C   0  0  0  0  0  0  0  0  0  0  0  0
    3.6080   68.5740   62.8630 C   0  0  0  0  0  0  0  0  0  0  0  0
    4.8870   69.0880   62.6200 C   0  0  0  0  0  0  0  0  0  0  0  0
    5.6490   69.5940   63.6690 C   0  0  0  0  0  0  0  0  0  0  0  0
    5.1240   69.5700   64.9530 C   0  0  0  0  0  0  0  0  0  0  0  0
    3.8500   69.0620   65.2080 C   0  0  0  0  0  0  0  0  0  0  0  0
    1.6670   67.9790   64.4000 N   0  0  0  0  0  4  0  0  0  0  0  0
    1.0130   68.7170   65.5700 C   0  0  0  0  0  0  0  0  0  0  0  0
    1.7670   66.5040   64.7980 C   0  0  0  0  0  0  0  0  0  0  0  0
   -0.1470   69.2580   63.1320 C   0  0  0  0  0  0  0  0  0  0  0  0
    0.8910   68.1460   63.0820 C   0  0  0  0  0  0  0  0  0  0  0  0
    5.8300   70.0390   66.0200 O   0  0  0  0  0  0  0  0  0  0  0  0
    3.0207   68.1654   62.0275 H   0  0  0  0  0  0  0  0  0  0  0  0
    5.2911   69.0920   61.5969 H   0  0  0  0  0  0  0  0  0  0  0  0
    6.6516   70.0064   63.4830 H   0  0  0  0  0  0  0  0  0  0  0  0
    3.4629   69.0464   66.2375 H   0  0  0  0  0  0  0  0  0  0  0  0
    1.3822   68.3003   66.5187 H   0  0  0  0  0  0  0  0  0  0  0  0
    1.2655   69.7863   65.5162 H   0  0  0  0  0  0  0  0  0  0  0  0
   -0.0789   68.5949   65.5162 H   0  0  0  0  0  0  0  0  0  0  0  0
    1.7727   66.4197   65.8948 H   0  0  0  0  0  0  0  0  0  0  0  0
    0.9040   65.9555   64.3926 H   0  0  0  0  0  0  0  0  0  0  0  0
    2.6962   66.0770   64.3926 H   0  0  0  0  0  0  0  0  0  0  0  0
   -0.3738   69.5010   64.1806 H   0  0  0  0  0  0  0  0  0  0  0  0
    0.2479   70.1512   62.6258 H   0  0  0  0  0  0  0  0  0  0  0  0
   -1.0652   68.9255   62.6258 H   0  0  0  0  0  0  0  0  0  0  0  0
    0.3782   67.1994   62.8563 H   0  0  0  0  0  0  0  0  0  0  0  0
    1.6216   68.4166   62.3055 H   0  0  0  0  0  0  0  0  0  0  0  0
    5.4336   70.0111   66.9267 H   0  0  0  0  0  0  0  0  0  0  0  0
  2  1  2  0
  3  2  1  0
  4  3  2  0
  5  4  1  0
  6  5  2  0
  6  1  1  0
  7  1  1  0
  8  7  1  0
  9  7  1  0
 11 10  1  0
 11  7  1  0
 12  5  1  0
  2 13  1  0
  3 14  1  0
  4 15  1  0
  6 16  1  0
  8 17  1  0
  8 18  1  0
  8 19  1  0
  9 20  1  0
  9 21  1  0
  9 22  1  0
 10 23  1  0
 10 24  1  0
 10 25  1  0
 11 26  1  0
 11 27  1  0
 12 28  1  0
M  CHG  1   7   1
M  END
>  <score>  (9) 
-5.484

$$$$
