=
     RDKit          3D

 36 37  0  0  0  0  0  0  0  0999 V2000
    1.8370   69.5360   67.2710 O   0  0  0  0  0  0  0  0  0  0  0  0
    2.9070   69.5150   66.6680 C   0  0  0  0  0  0  0  0  0  0  0  0
    2.9900   69.0830   65.3570 N   0  0  0  0  0  0  0  0  0  0  0  0
    4.1730   69.9320   67.3310 C   0  0  0  0  0  0  0  0  0  0  0  0
    5.4010   69.9340   66.6560 C   0  0  0  0  0  0  0  0  0  0  0  0
    6.5630   70.3390   67.3220 C   0  0  0  0  0  0  0  0  0  0  0  0
    6.4960   70.7490   68.6540 C   0  0  0  0  0  0  0  0  0  0  0  0
    5.2760   70.7620   69.3280 C   0  0  0  0  0  0  0  0  0  0  0  0
    4.1130   70.3580   68.6650 C   0  0  0  0  0  0  0  0  0  0  0  0
    7.9260   71.2470   69.4670 Cl  0  0  0  0  0  0  0  0  0  0  0  0
    1.8330   68.4830   64.7150 C   0  0  0  0  0  0  0  0  0  0  0  0
    1.2980   67.2280   65.4420 C   0  0  0  0  0  0  0  0  0  0  0  0
   -0.1560   67.3670   65.8330 N   0  0  0  0  0  4  0  0  0  0  0  0
   -0.4180   67.0520   67.3090 C   0  0  0  0  0  0  0  0  0  0  0  0
   -1.8450   67.4780   67.6980 C   0  0  0  0  0  0  0  0  0  0  0  0
   -2.6740   67.5810   66.5350 O   0  0  0  0  0  0  0  0  0  0  0  0
   -2.2690   68.6700   65.6920 C   0  0  0  0  0  0  0  0  0  0  0  0
   -0.7450   68.7200   65.4880 C   0  0  0  0  0  0  0  0  0  0  0  0
    3.8722   69.1866   64.8356 H   0  0  0  0  0  0  0  0  0  0  0  0
    5.4514   69.6175   65.6037 H   0  0  0  0  0  0  0  0  0  0  0  0
    7.5289   70.3342   66.7957 H   0  0  0  0  0  0  0  0  0  0  0  0
    5.2283   71.0888   70.3773 H   0  0  0  0  0  0  0  0  0  0  0  0
    3.1477   70.3746   69.1922 H   0  0  0  0  0  0  0  0  0  0  0  0
    1.0286   69.2325   64.6790 H   0  0  0  0  0  0  0  0  0  0  0  0
    2.1531   68.1612   63.7130 H   0  0  0  0  0  0  0  0  0  0  0  0
    1.4032   66.3605   64.7739 H   0  0  0  0  0  0  0  0  0  0  0  0
    1.8834   67.0984   66.3642 H   0  0  0  0  0  0  0  0  0  0  0  0
   -0.6360   66.6560   65.2629 H   0  0  0  0  0  0  0  0  0  0  0  0
   -0.3034   65.9708   67.4757 H   0  0  0  0  0  0  0  0  0  0  0  0
    0.3033   67.6059   67.9278 H   0  0  0  0  0  0  0  0  0  0  0  0
   -2.2722   66.7295   68.3815 H   0  0  0  0  0  0  0  0  0  0  0  0
   -1.8004   68.4607   68.1903 H   0  0  0  0  0  0  0  0  0  0  0  0
   -2.7530   68.5558   64.7108 H   0  0  0  0  0  0  0  0  0  0  0  0
   -2.5717   69.6056   66.1850 H   0  0  0  0  0  0  0  0  0  0  0  0
   -0.5212   68.9629   64.4387 H   0  0  0  0  0  0  0  0  0  0  0  0
   -0.3083   69.4921   66.1385 H   0  0  0  0  0  0  0  0  0  0  0  0
  2  1  2  0
  3  2  1  0
  4  2  1  0
  5  4  2  0
  6  5  1  0
  7  6  2  0
  8  7  1  0
  9  8  2  0
  9  4  1  0
 10  7  1  0
 11  3  1  0
 12 11  1  0
 13 12  1  0
 14 13  1  0
 15 14  1  0
 16 15  1  0
 17 16  1  0
 18 17  1  0
 18 13  1  0
  3 19  1  0
  5 20  1  0
  6 21  1  0
  8 22  1  0
  9 23  1  0
 11 24  1  0
 11 25  1  0
 12 26  1  0
 12 27  1  0
 13 28  1  0
 14 29  1  0
 14 30  1  0
 15 31  1  0
 15 32  1  0
 17 33  1  0
 17 34  1  0
 18 35  1  0
 18 36  1  0
M  CHG  1  13   1
M  END
>  <score>  (1) 
-8.789

$$$$
=
     RDKit          3D

 36 37  0  0  0  0  0  0  0  0999 V2000
    3.9240   69.4640   64.0430 O   0  0  0  0  0  0  0  0  0  0  0  0
    3.7810   69.0960   65.2060 C   0  0  0  0  0  0  0  0  0  0  0  0
    2.8020   68.1890   65.5640 N   0  0  0  0  0  0  0  0  0  0  0  0
    4.6440   69.6330   66.2940 C   0  0  0  0  0  0  0  0  0  0  0  0
    4.1190   70.0510   67.5240 C   0  0  0  0  0  0  0  0  0  0  0  0
    4.9720   70.5430   68.5170 C   0  0  0  0  0  0  0  0  0  0  0  0
    6.3460   70.6100   68.2850 C   0  0  0  0  0  0  0  0  0  0  0  0
    6.8780   70.1830   67.0700 C   0  0  0  0  0  0  0  0  0  0  0  0
    6.0280   69.6900   66.0760 C   0  0  0  0  0  0  0  0  0  0  0  0
    7.3900   71.2150   69.5100 Cl  0  0  0  0  0  0  0  0  0  0  0  0
    1.8050   67.7750   64.5900 C   0  0  0  0  0  0  0  0  0  0  0  0
    0.4870   68.5780   64.6670 C   0  0  0  0  0  0  0  0  0  0  0  0
   -0.5110   67.9550   65.6160 N   0  0  0  0  0  4  0  0  0  0  0  0
    0.1190   67.4790   66.9290 C   0  0  0  0  0  0  0  0  0  0  0  0
   -0.9790   67.1160   67.9440 C   0  0  0  0  0  0  0  0  0  0  0  0
   -2.2160   66.8490   67.2740 O   0  0  0  0  0  0  0  0  0  0  0  0
   -2.7600   68.0350   66.6740 C   0  0  0  0  0  0  0  0  0  0  0  0
   -1.6980   68.8490   65.9150 C   0  0  0  0  0  0  0  0  0  0  0  0
    2.7785   67.8065   66.5201 H   0  0  0  0  0  0  0  0  0  0  0  0
    3.0362   69.9922   67.7085 H   0  0  0  0  0  0  0  0  0  0  0  0
    4.5597   70.8770   69.4806 H   0  0  0  0  0  0  0  0  0  0  0  0
    7.9626   70.2337   66.8938 H   0  0  0  0  0  0  0  0  0  0  0  0
    6.4464   69.3453   65.1189 H   0  0  0  0  0  0  0  0  0  0  0  0
    2.2300   67.9017   63.5834 H   0  0  0  0  0  0  0  0  0  0  0  0
    1.5553   66.7271   64.8127 H   0  0  0  0  0  0  0  0  0  0  0  0
    0.7139   69.5976   65.0118 H   0  0  0  0  0  0  0  0  0  0  0  0
    0.0377   68.5835   63.6629 H   0  0  0  0  0  0  0  0  0  0  0  0
   -0.8556   67.1289   65.1064 H   0  0  0  0  0  0  0  0  0  0  0  0
    0.7406   66.5927   66.7335 H   0  0  0  0  0  0  0  0  0  0  0  0
    0.7384   68.2878   67.3440 H   0  0  0  0  0  0  0  0  0  0  0  0
   -0.6712   66.2213   68.5050 H   0  0  0  0  0  0  0  0  0  0  0  0
   -1.1228   67.9641   68.6296 H   0  0  0  0  0  0  0  0  0  0  0  0
   -3.5516   67.7426   65.9685 H   0  0  0  0  0  0  0  0  0  0  0  0
   -3.1538   68.6690   67.4821 H   0  0  0  0  0  0  0  0  0  0  0  0
   -2.1243   69.2233   64.9726 H   0  0  0  0  0  0  0  0  0  0  0  0
   -1.3749   69.7023   66.5294 H   0  0  0  0  0  0  0  0  0  0  0  0
  2  1  2  0
  3  2  1  0
  4  2  1  0
  5  4  2  0
  6  5  1  0
  7  6  2  0
  8  7  1  0
  9  8  2  0
  9  4  1  0
 10  7  1  0
 11  3  1  0
 12 11  1  0
 13 12  1  0
 14 13  1  0
 15 14  1  0
 16 15  1  0
 17 16  1  0
 18 17  1  0
 18 13  1  0
  3 19  1  0
  5 20  1  0
  6 21  1  0
  8 22  1  0
  9 23  1  0
 11 24  1  0
 11 25  1  0
 12 26  1  0
 12 27  1  0
 13 28  1  0
 14 29  1  0
 14 30  1  0
 15 31  1  0
 15 32  1  0
 17 33  1  0
 17 34  1  0
 18 35  1  0
 18 36  1  0
M  CHG  1  13   1
M  END
>  <score>  (2) 
-8.559

$$$$
=
     RDKit          3D

 36 37  0  0  0  0  0  0  0  0999 V2000
    3.9440   69.4950   64.6910 O   0  0  0  0  0  0  0  0  0  0  0  0
    3.7550   69.3600   65.8970 C   0  0  0  0  0  0  0  0  0  0  0  0
    2.6150   68.7520   66.3880 N   0  0  0  0  0  0  0  0  0  0  0  0
    4.7380   69.8710   66.8910 C   0  0  0  0  0  0  0  0  0  0  0  0
    4.3580   70.2590   68.1830 C   0  0  0  0  0  0  0  0  0  0  0  0
    5.3210   70.7270   69.0840 C   0  0  0  0  0  0  0  0  0  0  0  0
    6.6590   70.8010   68.6980 C   0  0  0  0  0  0  0  0  0  0  0  0
    7.0480   70.4050   67.4200 C   0  0  0  0  0  0  0  0  0  0  0  0
    6.0880   69.9350   66.5180 C   0  0  0  0  0  0  0  0  0  0  0  0
    7.8380   71.3770   69.8090 Cl  0  0  0  0  0  0  0  0  0  0  0  0
    1.5310   68.4060   65.4840 C   0  0  0  0  0  0  0  0  0  0  0  0
    1.5050   66.9130   65.0840 C   0  0  0  0  0  0  0  0  0  0  0  0
    2.8380   66.4390   64.5510 N   0  0  0  0  0  4  0  0  0  0  0  0
    3.0380   64.9250   64.6820 C   0  0  0  0  0  0  0  0  0  0  0  0
    4.2740   64.4820   63.8810 C   0  0  0  0  0  0  0  0  0  0  0  0
    5.1520   65.5900   63.6530 O   0  0  0  0  0  0  0  0  0  0  0  0
    4.5660   66.5560   62.7670 C   0  0  0  0  0  0  0  0  0  0  0  0
    3.1010   66.8660   63.1210 C   0  0  0  0  0  0  0  0  0  0  0  0
    2.5338   68.5443   67.3936 H   0  0  0  0  0  0  0  0  0  0  0  0
    3.3032   70.1957   68.4887 H   0  0  0  0  0  0  0  0  0  0  0  0
    5.0226   71.0365   70.0965 H   0  0  0  0  0  0  0  0  0  0  0  0
    8.1053   70.4618   67.1218 H   0  0  0  0  0  0  0  0  0  0  0  0
    6.3936   69.6141   65.5112 H   0  0  0  0  0  0  0  0  0  0  0  0
    0.5779   68.6499   65.9760 H   0  0  0  0  0  0  0  0  0  0  0  0
    1.6876   68.9826   64.5604 H   0  0  0  0  0  0  0  0  0  0  0  0
    1.2446   66.3140   65.9691 H   0  0  0  0  0  0  0  0  0  0  0  0
    0.7600   66.7917   64.2838 H   0  0  0  0  0  0  0  0  0  0  0  0
    3.5281   66.9078   65.1550 H   0  0  0  0  0  0  0  0  0  0  0  0
    3.1803   64.6675   65.7419 H   0  0  0  0  0  0  0  0  0  0  0  0
    2.1501   64.4098   64.2867 H   0  0  0  0  0  0  0  0  0  0  0  0
    4.8111   63.7056   64.4455 H   0  0  0  0  0  0  0  0  0  0  0  0
    3.9432   64.0866   62.9093 H   0  0  0  0  0  0  0  0  0  0  0  0
    5.1480   67.4875   62.8257 H   0  0  0  0  0  0  0  0  0  0  0  0
    4.5827   66.1326   61.7519 H   0  0  0  0  0  0  0  0  0  0  0  0
    2.9174   67.9458   63.0188 H   0  0  0  0  0  0  0  0  0  0  0  0
    2.4308   66.3199   62.4409 H   0  0  0  0  0  0  0  0  0  0  0  0
  2  1  2  0
  3  2  1  0
  4  2  1  0
  5  4  2  0
  6  5  1  0
  7  6  2  0
  8  7  1  0
  9  8  2  0
  9  4  1  0
 10  7  1  0
 11  3  1  0
 12 11  1  0
 13 12  1  0
 14 13  1  0
 15 14  1  0
 16 15  1  0
 17 16  1  0
 18 17  1  0
 18 13  1  0
  3 19  1  0
  5 20  1  0
  6 21  1  0
  8 22  1  0
  9 23  1  0
 11 24  1  0
 11 25  1  0
 12 26  1  0
 12 27  1  0
 13 28  1  0
 14 29  1  0
 14 30  1  0
 15 31  1  0
 15 32  1  0
 17 33  1  0
 17 34  1  0
 18 35  1  0
 18 36  1  0
M  CHG  1  13   1
M  END
>  <score>  (3) 
-8.49

$$$$
=
     RDKit          3D

 36 37  0  0  0  0  0  0  0  0999 V2000
    1.4510   69.5580   67.8660 O   0  0  0  0  0  0  0  0  0  0  0  0
    2.4890   69.4600   67.2180 C   0  0  0  0  0  0  0  0  0  0  0  0
    2.5050   68.8880   65.9590 N   0  0  0  0  0  0  0  0  0  0  0  0
    3.7890   69.9290   67.7700 C   0  0  0  0  0  0  0  0  0  0  0  0
    3.9210   70.3660   69.0950 C   0  0  0  0  0  0  0  0  0  0  0  0
    5.1660   70.7930   69.5690 C   0  0  0  0  0  0  0  0  0  0  0  0
    6.2770   70.7760   68.7250 C   0  0  0  0  0  0  0  0  0  0  0  0
    6.1570   70.3300   67.4100 C   0  0  0  0  0  0  0  0  0  0  0  0
    4.9140   69.9020   66.9340 C   0  0  0  0  0  0  0  0  0  0  0  0
    7.8050   71.3010   69.3130 Cl  0  0  0  0  0  0  0  0  0  0  0  0
    1.3130   68.2370   65.4420 C   0  0  0  0  0  0  0  0  0  0  0  0
    1.2030   68.2720   63.9000 C   0  0  0  0  0  0  0  0  0  0  0  0
    2.5560   68.3280   63.2300 N   0  0  0  0  0  4  0  0  0  0  0  0
    3.3590   67.0310   63.3770 C   0  0  0  0  0  0  0  0  0  0  0  0
    4.5870   67.0580   62.4500 C   0  0  0  0  0  0  0  0  0  0  0  0
    4.9190   68.4040   62.0920 O   0  0  0  0  0  0  0  0  0  0  0  0
    3.9120   68.9910   61.2530 C   0  0  0  0  0  0  0  0  0  0  0  0
    2.4880   68.7200   61.7670 C   0  0  0  0  0  0  0  0  0  0  0  0
    3.3615   68.9234   65.3879 H   0  0  0  0  0  0  0  0  0  0  0  0
    3.0462   70.3732   69.7619 H   0  0  0  0  0  0  0  0  0  0  0  0
    5.2691   71.1421   70.6070 H   0  0  0  0  0  0  0  0  0  0  0  0
    7.0365   70.3148   66.7495 H   0  0  0  0  0  0  0  0  0  0  0  0
    4.8184   69.5425   65.8988 H   0  0  0  0  0  0  0  0  0  0  0  0
    1.3239   67.1856   65.7653 H   0  0  0  0  0  0  0  0  0  0  0  0
    0.4483   68.7897   65.8379 H   0  0  0  0  0  0  0  0  0  0  0  0
    0.6781   67.3663   63.5621 H   0  0  0  0  0  0  0  0  0  0  0  0
    0.6520   69.1827   63.6224 H   0  0  0  0  0  0  0  0  0  0  0  0
    3.0529   69.0737   63.7379 H   0  0  0  0  0  0  0  0  0  0  0  0
    3.6932   66.9268   64.4198 H   0  0  0  0  0  0  0  0  0  0  0  0
    2.7195   66.1797   63.1007 H   0  0  0  0  0  0  0  0  0  0  0  0
    5.4421   66.6007   62.9694 H   0  0  0  0  0  0  0  0  0  0  0  0
    4.3525   66.4952   61.5344 H   0  0  0  0  0  0  0  0  0  0  0  0
    4.0731   70.0785   61.2162 H   0  0  0  0  0  0  0  0  0  0  0  0
    4.0002   68.5359   60.2554 H   0  0  0  0  0  0  0  0  0  0  0  0
    1.8773   69.6283   61.6568 H   0  0  0  0  0  0  0  0  0  0  0  0
    2.0324   67.9051   61.1853 H   0  0  0  0  0  0  0  0  0  0  0  0
  2  1  2  0
  3  2  1  0
  4  2  1  0
  5  4  2  0
  6  5  1  0
  7  6  2  0
  8  7  1  0
  9  8  2  0
  9  4  1  0
 10  7  1  0
 11  3  1  0
 12 11  1  0
 13 12  1  0
 14 13  1  0
 15 14  1  0
 16 15  1  0
 17 16  1  0
 18 17  1  0
 18 13  1  0
  3 19  1  0
  5 20  1  0
  6 21  1  0
  8 22  1  0
  9 23  1  0
 11 24  1  0
 11 25  1  0
 12 26  1  0
 12 27  1  0
 13 28  1  0
 14 29  1  0
 14 30  1  0
 15 31  1  0
 15 32  1  0
 17 33  1  0
 17 34  1  0
 18 35  1  0
 18 36  1  0
M  CHG  1  13   1
M  END
>  <score>  (4) 
-8.366

$$$$
=
     RDKit          3D

 36 37  0  0  0  0  0  0  0  0999 V2000
    0.0440   63.8000   69.9920 O   0  0  0  0  0  0  0  0  0  0  0  0
    1.1730   64.2520   70.1590 C   0  0  0  0  0  0  0  0  0  0  0  0
    1.4380   65.6030   70.0340 N   0  0  0  0  0  0  0  0  0  0  0  0
    2.3200   63.3580   70.4800 C   0  0  0  0  0  0  0  0  0  0  0  0
    2.1450   62.0010   70.7830 C   0  0  0  0  0  0  0  0  0  0  0  0
    3.2560   61.2010   71.0730 C   0  0  0  0  0  0  0  0  0  0  0  0
    4.5360   61.7530   71.0510 C   0  0  0  0  0  0  0  0  0  0  0  0
    4.7200   63.0980   70.7370 C   0  0  0  0  0  0  0  0  0  0  0  0
    3.6120   63.9000   70.4460 C   0  0  0  0  0  0  0  0  0  0  0  0
    5.8980   60.7650   71.4070 Cl  0  0  0  0  0  0  0  0  0  0  0  0
    0.4110   66.5010   69.5360 C   0  0  0  0  0  0  0  0  0  0  0  0
    0.9380   67.5600   68.5410 C   0  0  0  0  0  0  0  0  0  0  0  0
   -0.1550   68.1010   67.6470 N   0  0  0  0  0  4  0  0  0  0  0  0
    0.3380   68.4670   66.2430 C   0  0  0  0  0  0  0  0  0  0  0  0
   -0.8580   68.7430   65.3160 C   0  0  0  0  0  0  0  0  0  0  0  0
   -2.0260   69.0620   66.0800 O   0  0  0  0  0  0  0  0  0  0  0  0
   -2.4960   67.9290   66.8260 C   0  0  0  0  0  0  0  0  0  0  0  0
   -1.3560   67.1830   67.5410 C   0  0  0  0  0  0  0  0  0  0  0  0
    2.3636   65.9726   70.2940 H   0  0  0  0  0  0  0  0  0  0  0  0
    1.1351   61.5650   70.7929 H   0  0  0  0  0  0  0  0  0  0  0  0
    3.1194   60.1374   71.3181 H   0  0  0  0  0  0  0  0  0  0  0  0
    5.7326   63.5272   70.7181 H   0  0  0  0  0  0  0  0  0  0  0  0
    3.7550   64.9601   70.1895 H   0  0  0  0  0  0  0  0  0  0  0  0
   -0.3584   65.9006   69.0284 H   0  0  0  0  0  0  0  0  0  0  0  0
    0.0137   67.0468   70.4045 H   0  0  0  0  0  0  0  0  0  0  0  0
    1.3747   68.3939   69.1102 H   0  0  0  0  0  0  0  0  0  0  0  0
    1.6886   67.0751   67.8995 H   0  0  0  0  0  0  0  0  0  0  0  0
   -0.4558   68.9660   68.1184 H   0  0  0  0  0  0  0  0  0  0  0  0
    0.9675   69.3672   66.3020 H   0  0  0  0  0  0  0  0  0  0  0  0
    0.9211   67.6274   65.8368 H   0  0  0  0  0  0  0  0  0  0  0  0
   -0.6158   69.5890   64.6560 H   0  0  0  0  0  0  0  0  0  0  0  0
   -1.0600   67.8406   64.7203 H   0  0  0  0  0  0  0  0  0  0  0  0
   -3.2176   68.2771   67.5797 H   0  0  0  0  0  0  0  0  0  0  0  0
   -2.9607   67.2294   66.1157 H   0  0  0  0  0  0  0  0  0  0  0  0
   -1.6839   66.8871   68.5484 H   0  0  0  0  0  0  0  0  0  0  0  0
   -1.0859   66.2825   66.9699 H   0  0  0  0  0  0  0  0  0  0  0  0
  2  1  2  0
  3  2  1  0
  4  2  1  0
  5  4  2  0
  6  5  1  0
  7  6  2  0
  8  7  1  0
  9  8  2  0
  9  4  1  0
 10  7  1  0
 11  3  1  0
 12 11  1  0
 13 12  1  0
 14 13  1  0
 15 14  1  0
 16 15  1  0
 17 16  1  0
 18 17  1  0
 18 13  1  0
  3 19  1  0
  5 20  1  0
  6 21  1  0
  8 22  1  0
  9 23  1  0
 11 24  1  0
 11 25  1  0
 12 26  1  0
 12 27  1  0
 13 28  1  0
 14 29  1  0
 14 30  1  0
 15 31  1  0
 15 32  1  0
 17 33  1  0
 17 34  1  0
 18 35  1  0
 18 36  1  0
M  CHG  1  13   1
M  END
>  <score>  (5) 
-7.733

$$$$
=
     RDKit          3D

 36 37  0  0  0  0  0  0  0  0999 V2000
    3.5650   69.5160   64.9740 O   0  0  0  0  0  0  0  0  0  0  0  0
    3.4780   69.4730   66.1980 C   0  0  0  0  0  0  0  0  0  0  0  0
    2.3220   69.0490   66.8270 N   0  0  0  0  0  0  0  0  0  0  0  0
    4.6090   69.9030   67.0650 C   0  0  0  0  0  0  0  0  0  0  0  0
    5.9300   69.9470   66.6000 C   0  0  0  0  0  0  0  0  0  0  0  0
    6.9570   70.3640   67.4530 C   0  0  0  0  0  0  0  0  0  0  0  0
    6.6650   70.7420   68.7630 C   0  0  0  0  0  0  0  0  0  0  0  0
    5.3520   70.7150   69.2300 C   0  0  0  0  0  0  0  0  0  0  0  0
    4.3230   70.2990   68.3790 C   0  0  0  0  0  0  0  0  0  0  0  0
    7.9320   71.2540   69.8070 Cl  0  0  0  0  0  0  0  0  0  0  0  0
    1.1210   68.8010   66.0480 C   0  0  0  0  0  0  0  0  0  0  0  0
    1.3470   67.8730   64.8320 C   0  0  0  0  0  0  0  0  0  0  0  0
    1.3390   68.6300   63.5240 N   0  0  0  0  0  4  0  0  0  0  0  0
    2.5130   68.2680   62.6090 C   0  0  0  0  0  0  0  0  0  0  0  0
    2.2930   68.8570   61.2040 C   0  0  0  0  0  0  0  0  0  0  0  0
    1.3610   69.9430   61.2530 O   0  0  0  0  0  0  0  0  0  0  0  0
    0.0400   69.4910   61.5860 C   0  0  0  0  0  0  0  0  0  0  0  0
    0.0370   68.4950   62.7580 C   0  0  0  0  0  0  0  0  0  0  0  0
    2.3123   68.9090   67.8474 H   0  0  0  0  0  0  0  0  0  0  0  0
    6.1592   69.6538   65.5649 H   0  0  0  0  0  0  0  0  0  0  0  0
    7.9951   70.3938   67.0904 H   0  0  0  0  0  0  0  0  0  0  0  0
    5.1262   71.0193   70.2627 H   0  0  0  0  0  0  0  0  0  0  0  0
    3.2849   70.2825   68.7423 H   0  0  0  0  0  0  0  0  0  0  0  0
    0.3714   68.3357   66.7049 H   0  0  0  0  0  0  0  0  0  0  0  0
    0.7890   69.7723   65.6527 H   0  0  0  0  0  0  0  0  0  0  0  0
    2.3199   67.3723   64.9450 H   0  0  0  0  0  0  0  0  0  0  0  0
    0.5219   67.1460   64.8053 H   0  0  0  0  0  0  0  0  0  0  0  0
    1.4425   69.6151   63.8064 H   0  0  0  0  0  0  0  0  0  0  0  0
    3.4428   68.6756   63.0324 H   0  0  0  0  0  0  0  0  0  0  0  0
    2.5839   67.1730   62.5321 H   0  0  0  0  0  0  0  0  0  0  0  0
    3.2532   69.2221   60.8107 H   0  0  0  0  0  0  0  0  0  0  0  0
    1.8878   68.0712   60.5495 H   0  0  0  0  0  0  0  0  0  0  0  0
   -0.5721   70.3624   61.8619 H   0  0  0  0  0  0  0  0  0  0  0  0
   -0.3681   68.9729   60.7057 H   0  0  0  0  0  0  0  0  0  0  0  0
   -0.8086   68.7145   63.4264 H   0  0  0  0  0  0  0  0  0  0  0  0
   -0.0635   67.4692   62.3737 H   0  0  0  0  0  0  0  0  0  0  0  0
  2  1  2  0
  3  2  1  0
  4  2  1  0
  5  4  2  0
  6  5  1  0
  7  6  2  0
  8  7  1  0
  9  8  2  0
  9  4  1  0
 10  7  1  0
 11  3  1  0
 12 11  1  0
 13 12  1  0
 14 13  1  0
 15 14  1  0
 16 15  1  0
 17 16  1  0
 18 17  1  0
 18 13  1  0
  3 19  1  0
  5 20  1  0
  6 21  1  0
  8 22  1  0
  9 23  1  0
 11 24  1  0
 11 25  1  0
 12 26  1  0
 12 27  1  0
 13 28  1  0
 14 29  1  0
 14 30  1  0
 15 31  1  0
 15 32  1  0
 17 33  1  0
 17 34  1  0
 18 35  1  0
 18 36  1  0
M  CHG  1  13   1
M  END
>  <score>  (6) 
-7.712

$$$$
=
     RDKit          3D

 36 37  0  0  0  0  0  0  0  0999 V2000
    0.3870   64.6060   71.6900 O   0  0  0  0  0  0  0  0  0  0  0  0
    1.1670   64.3300   70.7830 C   0  0  0  0  0  0  0  0  0  0  0  0
    1.4900   65.2470   69.8010 N   0  0  0  0  0  0  0  0  0  0  0  0
    1.7840   62.9780   70.6840 C   0  0  0  0  0  0  0  0  0  0  0  0
    2.5610   62.5930   69.5830 C   0  0  0  0  0  0  0  0  0  0  0  0
    3.1240   61.3130   69.5400 C   0  0  0  0  0  0  0  0  0  0  0  0
    2.9170   60.4240   70.5940 C   0  0  0  0  0  0  0  0  0  0  0  0
    2.1560   60.8040   71.6980 C   0  0  0  0  0  0  0  0  0  0  0  0
    1.5930   62.0830   71.7460 C   0  0  0  0  0  0  0  0  0  0  0  0
    3.6120   58.8520   70.5350 Cl  0  0  0  0  0  0  0  0  0  0  0  0
    0.7800   66.5130   69.7280 C   0  0  0  0  0  0  0  0  0  0  0  0
   -0.5640   66.4310   68.9690 C   0  0  0  0  0  0  0  0  0  0  0  0
   -0.4910   67.0700   67.6020 N   0  0  0  0  0  4  0  0  0  0  0  0
   -1.7580   67.8480   67.2290 C   0  0  0  0  0  0  0  0  0  0  0  0
   -1.5120   68.6900   65.9660 C   0  0  0  0  0  0  0  0  0  0  0  0
   -0.4010   68.1740   65.2240 O   0  0  0  0  0  0  0  0  0  0  0  0
    0.8350   68.3500   65.9320 C   0  0  0  0  0  0  0  0  0  0  0  0
    0.7230   67.9570   67.4160 C   0  0  0  0  0  0  0  0  0  0  0  0
    2.2336   65.0334   69.1211 H   0  0  0  0  0  0  0  0  0  0  0  0
    2.7279   63.2963   68.7538 H   0  0  0  0  0  0  0  0  0  0  0  0
    3.7302   61.0078   68.6743 H   0  0  0  0  0  0  0  0  0  0  0  0
    1.9988   60.1002   72.5287 H   0  0  0  0  0  0  0  0  0  0  0  0
    0.9984   62.3879   72.6198 H   0  0  0  0  0  0  0  0  0  0  0  0
    0.5790   66.8576   70.7531 H   0  0  0  0  0  0  0  0  0  0  0  0
    1.4223   67.2090   69.1684 H   0  0  0  0  0  0  0  0  0  0  0  0
   -0.8391   65.3726   68.8504 H   0  0  0  0  0  0  0  0  0  0  0  0
   -1.3159   66.9784   69.5564 H   0  0  0  0  0  0  0  0  0  0  0  0
   -0.4032   66.2702   66.9589 H   0  0  0  0  0  0  0  0  0  0  0  0
   -2.5771   67.1388   67.0390 H   0  0  0  0  0  0  0  0  0  0  0  0
   -2.0257   68.5173   68.0599 H   0  0  0  0  0  0  0  0  0  0  0  0
   -2.4118   68.6647   65.3338 H   0  0  0  0  0  0  0  0  0  0  0  0
   -1.2874   69.7238   66.2675 H   0  0  0  0  0  0  0  0  0  0  0  0
    1.6056   67.7242   65.4581 H   0  0  0  0  0  0  0  0  0  0  0  0
    1.0980   69.4171   65.8869 H   0  0  0  0  0  0  0  0  0  0  0  0
    1.6281   67.4121   67.7224 H   0  0  0  0  0  0  0  0  0  0  0  0
    0.6197   68.8619   68.0329 H   0  0  0  0  0  0  0  0  0  0  0  0
  2  1  2  0
  3  2  1  0
  4  2  1  0
  5  4  2  0
  6  5  1  0
  7  6  2  0
  8  7  1  0
  9  8  2  0
  9  4  1  0
 10  7  1  0
 11  3  1  0
 12 11  1  0
 13 12  1  0
 14 13  1  0
 15 14  1  0
 16 15  1  0
 17 16  1  0
 18 17  1  0
 18 13  1  0
  3 19  1  0
  5 20  1  0
  6 21  1  0
  8 22  1  0
  9 23  1  0
 11 24  1  0
 11 25  1  0
 12 26  1  0
 12 27  1  0
 13 28  1  0
 14 29  1  0
 14 30  1  0
 15 31  1  0
 15 32  1  0
 17 33  1  0
 17 34  1  0
 18 35  1  0
 18 36  1  0
M  CHG  1  13   1
M  END
>  <score>  (7) 
-7.647

$$$$
=
     RDKit          3D

 36 37  0  0  0  0  0  0  0  0999 V2000
    5.6540   69.8300   63.3040 O   0  0  0  0  0  0  0  0  0  0  0  0
    5.0920   69.1200   64.1340 C   0  0  0  0  0  0  0  0  0  0  0  0
    4.5020   67.9210   63.7800 N   0  0  0  0  0  0  0  0  0  0  0  0
    4.9980   69.5310   65.5610 C   0  0  0  0  0  0  0  0  0  0  0  0
    6.0930   70.0600   66.2580 C   0  0  0  0  0  0  0  0  0  0  0  0
    5.9520   70.4370   67.5980 C   0  0  0  0  0  0  0  0  0  0  0  0
    4.7210   70.2940   68.2370 C   0  0  0  0  0  0  0  0  0  0  0  0
    3.6240   69.7810   67.5470 C   0  0  0  0  0  0  0  0  0  0  0  0
    3.7610   69.4040   66.2080 C   0  0  0  0  0  0  0  0  0  0  0  0
    4.5540   70.7600   69.8830 Cl  0  0  0  0  0  0  0  0  0  0  0  0
    4.3880   67.5540   62.3780 C   0  0  0  0  0  0  0  0  0  0  0  0
    3.2550   68.2920   61.6300 C   0  0  0  0  0  0  0  0  0  0  0  0
    2.0880   68.6180   62.5340 N   0  0  0  0  0  4  0  0  0  0  0  0
    0.8330   69.0540   61.7700 C   0  0  0  0  0  0  0  0  0  0  0  0
   -0.3770   69.0990   62.7180 C   0  0  0  0  0  0  0  0  0  0  0  0
    0.0520   69.2090   64.0790 O   0  0  0  0  0  0  0  0  0  0  0  0
    0.7190   68.0170   64.5210 C   0  0  0  0  0  0  0  0  0  0  0  0
    1.7360   67.4970   63.4910 C   0  0  0  0  0  0  0  0  0  0  0  0
    4.1434   67.2881   64.5092 H   0  0  0  0  0  0  0  0  0  0  0  0
    7.0624   70.1787   65.7519 H   0  0  0  0  0  0  0  0  0  0  0  0
    6.8125   70.8463   68.1475 H   0  0  0  0  0  0  0  0  0  0  0  0
    2.6540   69.6732   68.0543 H   0  0  0  0  0  0  0  0  0  0  0  0
    2.8944   69.0060   65.6597 H   0  0  0  0  0  0  0  0  0  0  0  0
    5.3410   67.7864   61.8801 H   0  0  0  0  0  0  0  0  0  0  0  0
    4.1469   66.4812   62.3464 H   0  0  0  0  0  0  0  0  0  0  0  0
    3.6557   69.2297   61.2175 H   0  0  0  0  0  0  0  0  0  0  0  0
    2.8885   67.6272   60.8340 H   0  0  0  0  0  0  0  0  0  0  0  0
    2.4214   69.4190   63.0891 H   0  0  0  0  0  0  0  0  0  0  0  0
    0.9970   70.0542   61.3425 H   0  0  0  0  0  0  0  0  0  0  0  0
    0.6325   68.3303   60.9663 H   0  0  0  0  0  0  0  0  0  0  0  0
   -1.0022   69.9679   62.4649 H   0  0  0  0  0  0  0  0  0  0  0  0
   -0.9526   68.1688   62.6021 H   0  0  0  0  0  0  0  0  0  0  0  0
    1.2482   68.2361   65.4602 H   0  0  0  0  0  0  0  0  0  0  0  0
   -0.0448   67.2378   64.6605 H   0  0  0  0  0  0  0  0  0  0  0  0
    2.6443   67.1562   64.0095 H   0  0  0  0  0  0  0  0  0  0  0  0
    1.3010   66.6551   62.9324 H   0  0  0  0  0  0  0  0  0  0  0  0
  2  1  2  0
  3  2  1  0
  4  2  1  0
  5  4  2  0
  6  5  1  0
  7  6  2  0
  8  7  1  0
  9  8  2  0
  9  4  1  0
 10  7  1  0
 11  3  1  0
 12 11  1  0
 13 12  1  0
 14 13  1  0
 15 14  1  0
 16 15  1  0
 17 16  1  0
 18 17  1  0
 18 13  1  0
  3 19  1  0
  5 20  1  0
  6 21  1  0
  8 22  1  0
  9 23  1  0
 11 24  1  0
 11 25  1  0
 12 26  1  0
 12 27  1  0
 13 28  1  0
 14 29  1  0
 14 30  1  0
 15 31  1  0
 15 32  1  0
 17 33  1  0
 17 34  1  0
 18 35  1  0
 18 36  1  0
M  CHG  1  13   1
M  END
>  <score>  (8) 
-7.642

$$$$
=
     RDKit          3D

 36 37  0  0  0  0  0  0  0  0999 V2000
    0.1450   69.1550   67.3400 O   0  0  0  0  0  0  0  0  0  0  0  0
    1.0270   68.3310   67.1200 C   0  0  0  0  0  0  0  0  0  0  0  0
    1.0440   67.1010   67.7520 N   0  0  0  0  0  0  0  0  0  0  0  0
    2.1410   68.6280   66.1770 C   0  0  0  0  0  0  0  0  0  0  0  0
    2.0640   68.3170   64.8130 C   0  0  0  0  0  0  0  0  0  0  0  0
    3.1360   68.6220   63.9660 C   0  0  0  0  0  0  0  0  0  0  0  0
    4.2750   69.2410   64.4790 C   0  0  0  0  0  0  0  0  0  0  0  0
    4.3540   69.5660   65.8320 C   0  0  0  0  0  0  0  0  0  0  0  0
    3.2840   69.2630   66.6810 C   0  0  0  0  0  0  0  0  0  0  0  0
    5.5890   69.6140   63.4340 Cl  0  0  0  0  0  0  0  0  0  0  0  0
    0.1020   66.8230   68.8230 C   0  0  0  0  0  0  0  0  0  0  0  0
    0.7740   66.4750   70.1700 C   0  0  0  0  0  0  0  0  0  0  0  0
    0.9730   64.9870   70.3450 N   0  0  0  0  0  4  0  0  0  0  0  0
    2.4480   64.5720   70.3610 C   0  0  0  0  0  0  0  0  0  0  0  0
    2.5820   63.1080   70.8140 C   0  0  0  0  0  0  0  0  0  0  0  0
    1.3480   62.4060   70.6270 O   0  0  0  0  0  0  0  0  0  0  0  0
    0.3260   62.8880   71.5120 C   0  0  0  0  0  0  0  0  0  0  0  0
    0.2730   64.4250   71.5660 C   0  0  0  0  0  0  0  0  0  0  0  0
    1.7237   66.3827   67.4639 H   0  0  0  0  0  0  0  0  0  0  0  0
    1.1625   67.8339   64.4083 H   0  0  0  0  0  0  0  0  0  0  0  0
    3.0797   68.3733   62.8960 H   0  0  0  0  0  0  0  0  0  0  0  0
    5.2533   70.0584   66.2305 H   0  0  0  0  0  0  0  0  0  0  0  0
    3.3402   69.5242   67.7481 H   0  0  0  0  0  0  0  0  0  0  0  0
   -0.5287   67.7122   68.9696 H   0  0  0  0  0  0  0  0  0  0  0  0
   -0.4790   65.9404   68.5174 H   0  0  0  0  0  0  0  0  0  0  0  0
    1.7550   66.9706   70.2142 H   0  0  0  0  0  0  0  0  0  0  0  0
    0.1112   66.8227   70.9761 H   0  0  0  0  0  0  0  0  0  0  0  0
    0.5324   64.5777   69.5088 H   0  0  0  0  0  0  0  0  0  0  0  0
    2.8669   64.6794   69.3495 H   0  0  0  0  0  0  0  0  0  0  0  0
    2.9953   65.2172   71.0640 H   0  0  0  0  0  0  0  0  0  0  0  0
    3.3696   62.6177   70.2231 H   0  0  0  0  0  0  0  0  0  0  0  0
    2.8406   63.0905   71.8830 H   0  0  0  0  0  0  0  0  0  0  0  0
   -0.6479   62.5131   71.1643 H   0  0  0  0  0  0  0  0  0  0  0  0
    0.5601   62.5250   72.5236 H   0  0  0  0  0  0  0  0  0  0  0  0
   -0.7755   64.7576   71.5755 H   0  0  0  0  0  0  0  0  0  0  0  0
    0.7737   64.7819   72.4781 H   0  0  0  0  0  0  0  0  0  0  0  0
  2  1  2  0
  3  2  1  0
  4  2  1  0
  5  4  2  0
  6  5  1  0
  7  6  2  0
  8  7  1  0
  9  8  2  0
  9  4  1  0
 10  7  1  0
 11  3  1  0
 12 11  1  0
 13 12  1  0
 14 13  1  0
 15 14  1  0
 16 15  1  0
 17 16  1  0
 18 17  1  0
 18 13  1  0
  3 19  1  0
  5 20  1  0
  6 21  1  0
  8 22  1  0
  9 23  1  0
 11 24  1  0
 11 25  1  0
 12 26  1  0
 12 27  1  0
 13 28  1  0
 14 29  1  0
 14 30  1  0
 15 31  1  0
 15 32  1  0
 17 33  1  0
 17 34  1  0
 18 35  1  0
 18 36  1  0
M  CHG  1  13   1
M  END
>  <score>  (9) 
-7.626

$$$$
