=
     RDKit          3D

 48 51  0  0  0  0  0  0  0  0999 V2000
    1.8370   64.8900   69.8700 N   0  0  0  0  0  0  0  0  0  0  0  0
    0.8580   65.8210   70.1950 C   0  0  0  0  0  0  0  0  0  0  0  0
    0.1500   65.7220   71.1920 O   0  0  0  0  0  0  0  0  0  0  0  0
    3.4160   62.0020   68.4680 C   0  0  0  0  0  0  0  0  0  0  0  0
    3.7390   61.6470   69.8920 N   0  0  0  0  0  4  0  0  0  0  0  0
    4.6830   62.5150   70.6190 C   0  0  2  0  0  0  0  0  0  0  0  0
    5.0860   61.6560   71.8920 C   0  0  0  0  0  0  0  0  0  0  0  0
    4.3710   60.2240   72.0310 C   0  0  0  0  0  0  0  0  0  0  0  0
    2.8510   60.1640   71.5660 C   0  0  0  0  0  0  0  0  0  0  0  0
    2.6280   61.4980   70.9200 C   0  0  2  0  0  0  0  0  0  0  0  0
    1.5680   62.5030   70.6420 C   0  0  0  0  0  0  0  0  0  0  0  0
    2.3120   63.8990   70.8240 C   0  0  0  0  0  0  0  0  0  0  0  0
    3.9260   63.8730   70.8530 C   0  0  0  0  0  0  0  0  0  0  0  0
    0.7820   66.9260   69.2290 C   0  0  0  0  0  0  0  0  0  0  0  0
    1.8030   67.8040   69.1080 N   0  0  0  0  0  0  0  0  0  0  0  0
    1.3730   68.6620   68.1570 N   0  0  0  0  0  0  0  0  0  0  0  0
    0.1300   68.3720   67.6560 C   0  0  0  0  0  0  0  0  0  0  0  0
   -0.2880   67.2370   68.3450 C   0  0  0  0  0  0  0  0  0  0  0  0
   -1.5520   66.6880   68.0530 C   0  0  0  0  0  0  0  0  0  0  0  0
   -2.3520   67.2970   67.0800 C   0  0  0  0  0  0  0  0  0  0  0  0
   -1.9100   68.4330   66.4040 C   0  0  0  0  0  0  0  0  0  0  0  0
   -0.6590   68.9950   66.6780 C   0  0  0  0  0  0  0  0  0  0  0  0
    2.2140   69.7670   67.7580 C   0  0  0  0  0  0  0  0  0  0  0  0
    2.2400   64.9017   68.9222 H   0  0  0  0  0  0  0  0  0  0  0  0
    2.6758   62.8155   68.4518 H   0  0  0  0  0  0  0  0  0  0  0  0
    4.3322   62.3296   67.9549 H   0  0  0  0  0  0  0  0  0  0  0  0
    3.0036   61.1207   67.9549 H   0  0  0  0  0  0  0  0  0  0  0  0
    4.1226   60.7326   69.6135 H   0  0  0  0  0  0  0  0  0  0  0  0
    5.6222   62.8029   70.1240 H   0  0  0  0  0  0  0  0  0  0  0  0
    6.1723   61.4874   71.8540 H   0  0  0  0  0  0  0  0  0  0  0  0
    4.7511   62.2402   72.7618 H   0  0  0  0  0  0  0  0  0  0  0  0
    4.9386   59.5026   71.4249 H   0  0  0  0  0  0  0  0  0  0  0  0
    4.3647   59.9952   73.1069 H   0  0  0  0  0  0  0  0  0  0  0  0
    2.6923   59.3475   70.8462 H   0  0  0  0  0  0  0  0  0  0  0  0
    2.1568   59.9697   72.3969 H   0  0  0  0  0  0  0  0  0  0  0  0
    2.2445   61.7658   71.9156 H   0  0  0  0  0  0  0  0  0  0  0  0
    1.1839   62.3943   69.6170 H   0  0  0  0  0  0  0  0  0  0  0  0
    0.6959   62.3960   71.3038 H   0  0  0  0  0  0  0  0  0  0  0  0
    2.0314   64.1874   71.8478 H   0  0  0  0  0  0  0  0  0  0  0  0
    4.2712   64.5698   70.0750 H   0  0  0  0  0  0  0  0  0  0  0  0
    4.1697   64.1282   71.8949 H   0  0  0  0  0  0  0  0  0  0  0  0
   -1.9057   65.7916   68.5834 H   0  0  0  0  0  0  0  0  0  0  0  0
   -3.3404   66.8747   66.8460 H   0  0  0  0  0  0  0  0  0  0  0  0
   -2.5556   68.8950   65.6426 H   0  0  0  0  0  0  0  0  0  0  0  0
   -0.3072   69.8916   66.1466 H   0  0  0  0  0  0  0  0  0  0  0  0
    2.6009   70.2753   68.6535 H   0  0  0  0  0  0  0  0  0  0  0  0
    3.0554   69.3895   67.1584 H   0  0  0  0  0  0  0  0  0  0  0  0
    1.6260   70.4774   67.1584 H   0  0  0  0  0  0  0  0  0  0  0  0
  2  1  1  0
  3  2  2  0
  5  4  1  0
  6  5  1  0
  7  6  1  0
  8  7  1  0
  9  8  1  0
 10  5  1  0
 10  9  1  0
 11 10  1  0
 12 11  1  0
 12  1  1  0
 13 12  1  0
 13  6  1  0
 14  2  1  0
 15 14  2  0
 16 15  1  0
 17 16  1  0
 18 17  2  0
 18 14  1  0
 19 18  1  0
 20 19  2  0
 21 20  1  0
 22 21  2  0
 22 17  1  0
 23 16  1  0
  1 24  1  0
  4 25  1  0
  4 26  1  0
  4 27  1  0
  5 28  1  0
  6 29  1  6
  7 30  1  0
  7 31  1  0
  8 32  1  0
  8 33  1  0
  9 34  1  0
  9 35  1  0
 10 36  1  1
 11 37  1  0
 11 38  1  0
 12 39  1  0
 13 40  1  0
 13 41  1  0
 19 42  1  0
 20 43  1  0
 21 44  1  0
 22 45  1  0
 23 46  1  0
 23 47  1  0
 23 48  1  0
M  CHG  1   5   1
M  END
>  <score>  (1) 
-9.769

$$$$
=
     RDKit          3D

 48 51  0  0  0  0  0  0  0  0999 V2000
    1.4130   64.5160   70.1360 N   0  0  0  0  0  0  0  0  0  0  0  0
    0.4820   65.4730   70.5200 C   0  0  0  0  0  0  0  0  0  0  0  0
    0.0240   65.5400   71.6550 O   0  0  0  0  0  0  0  0  0  0  0  0
    2.8260   61.4700   68.8990 C   0  0  0  0  0  0  0  0  0  0  0  0
    3.4730   61.3730   70.2520 N   0  0  0  0  0  4  0  0  0  0  0  0
    4.4970   62.3770   70.5970 C   0  0  2  0  0  0  0  0  0  0  0  0
    5.2210   61.7600   71.8680 C   0  0  0  0  0  0  0  0  0  0  0  0
    4.6460   60.3550   72.3940 C   0  0  0  0  0  0  0  0  0  0  0  0
    3.0690   60.1780   72.3010 C   0  0  0  0  0  0  0  0  0  0  0  0
    2.6260   61.3750   71.5150 C   0  0  2  0  0  0  0  0  0  0  0  0
    1.4700   62.2910   71.3240 C   0  0  0  0  0  0  0  0  0  0  0  0
    2.1460   63.7150   71.1050 C   0  0  0  0  0  0  0  0  0  0  0  0
    3.7260   63.7360   70.7730 C   0  0  0  0  0  0  0  0  0  0  0  0
    0.1270   66.3900   69.4270 C   0  0  0  0  0  0  0  0  0  0  0  0
   -1.0250   66.2240   68.7390 N   0  0  0  0  0  0  0  0  0  0  0  0
   -0.9990   67.2220   67.8300 N   0  0  0  0  0  0  0  0  0  0  0  0
    0.1100   68.0260   67.9060 C   0  0  0  0  0  0  0  0  0  0  0  0
    0.8720   67.5020   68.9460 C   0  0  0  0  0  0  0  0  0  0  0  0
    2.0960   68.1170   69.2730 C   0  0  0  0  0  0  0  0  0  0  0  0
    2.5120   69.2380   68.5450 C   0  0  0  0  0  0  0  0  0  0  0  0
    1.7300   69.7430   67.5080 C   0  0  0  0  0  0  0  0  0  0  0  0
    0.5120   69.1480   67.1670 C   0  0  0  0  0  0  0  0  0  0  0  0
   -2.0870   67.3620   66.8890 C   0  0  0  0  0  0  0  0  0  0  0  0
    1.5903   64.3685   69.1322 H   0  0  0  0  0  0  0  0  0  0  0  0
    1.7448   61.6321   69.0204 H   0  0  0  0  0  0  0  0  0  0  0  0
    3.2630   62.3127   68.3432 H   0  0  0  0  0  0  0  0  0  0  0  0
    2.9967   60.5362   68.3432 H   0  0  0  0  0  0  0  0  0  0  0  0
    3.8419   60.4338   70.0455 H   0  0  0  0  0  0  0  0  0  0  0  0
    5.2854   62.5989   69.8626 H   0  0  0  0  0  0  0  0  0  0  0  0
    6.2815   61.6156   71.6140 H   0  0  0  0  0  0  0  0  0  0  0  0
    5.0468   62.4759   72.6848 H   0  0  0  0  0  0  0  0  0  0  0  0
    5.1116   59.5552   71.7994 H   0  0  0  0  0  0  0  0  0  0  0  0
    4.8900   60.3133   73.4658 H   0  0  0  0  0  0  0  0  0  0  0  0
    2.8085   59.2461   71.7778 H   0  0  0  0  0  0  0  0  0  0  0  0
    2.5872   60.1122   73.2877 H   0  0  0  0  0  0  0  0  0  0  0  0
    2.4528   61.7985   72.5153 H   0  0  0  0  0  0  0  0  0  0  0  0
    0.8793   61.9981   70.4435 H   0  0  0  0  0  0  0  0  0  0  0  0
    0.7719   62.2778   72.1740 H   0  0  0  0  0  0  0  0  0  0  0  0
    2.0777   64.1668   72.1056 H   0  0  0  0  0  0  0  0  0  0  0  0
    3.8487   64.2975   69.8351 H   0  0  0  0  0  0  0  0  0  0  0  0
    4.1748   64.1730   71.6772 H   0  0  0  0  0  0  0  0  0  0  0  0
    2.7173   67.7215   70.0901 H   0  0  0  0  0  0  0  0  0  0  0  0
    3.4662   69.7253   68.7941 H   0  0  0  0  0  0  0  0  0  0  0  0
    2.0769   70.6243   66.9486 H   0  0  0  0  0  0  0  0  0  0  0  0
   -0.1079   69.5450   66.3496 H   0  0  0  0  0  0  0  0  0  0  0  0
   -3.0327   67.4837   67.4374 H   0  0  0  0  0  0  0  0  0  0  0  0
   -1.9135   68.2452   66.2567 H   0  0  0  0  0  0  0  0  0  0  0  0
   -2.1428   66.4636   66.2567 H   0  0  0  0  0  0  0  0  0  0  0  0
  2  1  1  0
  3  2  2  0
  5  4  1  0
  6  5  1  0
  7  6  1  0
  8  7  1  0
  9  8  1  0
 10  5  1  0
 10  9  1  0
 11 10  1  0
 12 11  1  0
 12  1  1  0
 13 12  1  0
 13  6  1  0
 14  2  1  0
 15 14  2  0
 16 15  1  0
 17 16  1  0
 18 17  2  0
 18 14  1  0
 19 18  1  0
 20 19  2  0
 21 20  1  0
 22 21  2  0
 22 17  1  0
 23 16  1  0
  1 24  1  0
  4 25  1  0
  4 26  1  0
  4 27  1  0
  5 28  1  0
  6 29  1  6
  7 30  1  0
  7 31  1  0
  8 32  1  0
  8 33  1  0
  9 34  1  0
  9 35  1  0
 10 36  1  1
 11 37  1  0
 11 38  1  0
 12 39  1  0
 13 40  1  0
 13 41  1  0
 19 42  1  0
 20 43  1  0
 21 44  1  0
 22 45  1  0
 23 46  1  0
 23 47  1  0
 23 48  1  0
M  CHG  1   5   1
M  END
>  <score>  (2) 
-9.008

$$$$
=
     RDKit          3D

 48 51  0  0  0  0  0  0  0  0999 V2000
    1.3430   65.5290   69.7950 N   0  0  0  0  0  0  0  0  0  0  0  0
    0.9720   64.6340   70.7910 C   0  0  0  0  0  0  0  0  0  0  0  0
    0.1220   64.8920   71.6350 O   0  0  0  0  0  0  0  0  0  0  0  0
    1.5840   66.7210   66.4300 C   0  0  0  0  0  0  0  0  0  0  0  0
    0.4920   67.6730   66.8260 N   0  0  0  0  0  4  0  0  0  0  0  0
   -0.8340   67.1070   67.1360 C   0  0  2  0  0  0  0  0  0  0  0  0
   -1.7990   68.3680   67.1180 C   0  0  0  0  0  0  0  0  0  0  0  0
   -1.1000   69.7870   66.8340 C   0  0  0  0  0  0  0  0  0  0  0  0
    0.3410   69.9860   67.4760 C   0  0  0  0  0  0  0  0  0  0  0  0
    0.6840   68.6230   67.9990 C   0  0  2  0  0  0  0  0  0  0  0  0
    1.4730   67.9370   69.0570 C   0  0  0  0  0  0  0  0  0  0  0  0
    0.5530   66.7100   69.4800 C   0  0  0  0  0  0  0  0  0  0  0  0
   -0.6630   66.3270   68.4900 C   0  0  0  0  0  0  0  0  0  0  0  0
    1.6980   63.3580   70.7070 C   0  0  0  0  0  0  0  0  0  0  0  0
    2.6730   63.1830   69.7880 N   0  0  0  0  0  0  0  0  0  0  0  0
    3.0870   61.9150   70.0020 N   0  0  0  0  0  0  0  0  0  0  0  0
    2.4300   61.2710   71.0200 C   0  0  0  0  0  0  0  0  0  0  0  0
    1.5070   62.1940   71.5020 C   0  0  0  0  0  0  0  0  0  0  0  0
    0.6620   61.8220   72.5660 C   0  0  0  0  0  0  0  0  0  0  0  0
    0.7740   60.5380   73.1100 C   0  0  0  0  0  0  0  0  0  0  0  0
    1.7080   59.6320   72.6090 C   0  0  0  0  0  0  0  0  0  0  0  0
    2.5560   59.9800   71.5530 C   0  0  0  0  0  0  0  0  0  0  0  0
    4.1390   61.3570   69.1830 C   0  0  0  0  0  0  0  0  0  0  0  0
    2.2060   65.3507   69.2618 H   0  0  0  0  0  0  0  0  0  0  0  0
    2.0567   66.3089   67.3337 H   0  0  0  0  0  0  0  0  0  0  0  0
    1.1573   65.9014   65.8331 H   0  0  0  0  0  0  0  0  0  0  0  0
    2.3377   67.2554   65.8331 H   0  0  0  0  0  0  0  0  0  0  0  0
    0.5497   68.1674   65.9243 H   0  0  0  0  0  0  0  0  0  0  0  0
   -1.2669   66.3697   66.4440 H   0  0  0  0  0  0  0  0  0  0  0  0
   -2.5543   68.2025   66.3356 H   0  0  0  0  0  0  0  0  0  0  0  0
   -2.2120   68.4395   68.1350 H   0  0  0  0  0  0  0  0  0  0  0  0
   -1.0039   69.9045   65.7445 H   0  0  0  0  0  0  0  0  0  0  0  0
   -1.7464   70.5402   67.3083 H   0  0  0  0  0  0  0  0  0  0  0  0
    1.0681   70.3100   66.7168 H   0  0  0  0  0  0  0  0  0  0  0  0
    0.3583   70.7607   68.2567 H   0  0  0  0  0  0  0  0  0  0  0  0
    0.2803   69.0293   68.9381 H   0  0  0  0  0  0  0  0  0  0  0  0
    2.4373   67.5857   68.6612 H   0  0  0  0  0  0  0  0  0  0  0  0
    1.7166   68.5976   69.9021 H   0  0  0  0  0  0  0  0  0  0  0  0
    0.0518   67.0881   70.3832 H   0  0  0  0  0  0  0  0  0  0  0  0
   -0.5443   65.2638   68.2339 H   0  0  0  0  0  0  0  0  0  0  0  0
   -1.5599   66.6048   69.0631 H   0  0  0  0  0  0  0  0  0  0  0  0
   -0.0771   62.5327   72.9643 H   0  0  0  0  0  0  0  0  0  0  0  0
    0.1185   60.2401   73.9416 H   0  0  0  0  0  0  0  0  0  0  0  0
    1.7789   58.6274   73.0515 H   0  0  0  0  0  0  0  0  0  0  0  0
    3.2941   59.2679   71.1553 H   0  0  0  0  0  0  0  0  0  0  0  0
    4.9251   60.9401   69.8297 H   0  0  0  0  0  0  0  0  0  0  0  0
    3.7254   60.5597   68.5480 H   0  0  0  0  0  0  0  0  0  0  0  0
    4.5672   62.1466   68.5480 H   0  0  0  0  0  0  0  0  0  0  0  0
  2  1  1  0
  3  2  2  0
  5  4  1  0
  6  5  1  0
  7  6  1  0
  8  7  1  0
  9  8  1  0
 10  5  1  0
 10  9  1  0
 11 10  1  0
 12 11  1  0
 12  1  1  0
 13 12  1  0
 13  6  1  0
 14  2  1  0
 15 14  2  0
 16 15  1  0
 17 16  1  0
 18 17  2  0
 18 14  1  0
 19 18  1  0
 20 19  2  0
 21 20  1  0
 22 21  2  0
 22 17  1  0
 23 16  1  0
  1 24  1  0
  4 25  1  0
  4 26  1  0
  4 27  1  0
  5 28  1  0
  6 29  1  6
  7 30  1  0
  7 31  1  0
  8 32  1  0
  8 33  1  0
  9 34  1  0
  9 35  1  0
 10 36  1  1
 11 37  1  0
 11 38  1  0
 12 39  1  0
 13 40  1  0
 13 41  1  0
 19 42  1  0
 20 43  1  0
 21 44  1  0
 22 45  1  0
 23 46  1  0
 23 47  1  0
 23 48  1  0
M  CHG  1   5   1
M  END
>  <score>  (3) 
-7.944

$$$$
=
     RDKit          3D

 48 51  0  0  0  0  0  0  0  0999 V2000
    1.0990   65.3270   70.1150 N   0  0  0  0  0  0  0  0  0  0  0  0
    0.7080   64.6190   71.2440 C   0  0  0  0  0  0  0  0  0  0  0  0
   -0.0140   65.0950   72.1140 O   0  0  0  0  0  0  0  0  0  0  0  0
    1.6850   66.3830   66.7470 C   0  0  0  0  0  0  0  0  0  0  0  0
    0.6660   67.4470   67.0400 N   0  0  0  0  0  4  0  0  0  0  0  0
   -0.7270   67.0200   67.2690 C   0  0  2  0  0  0  0  0  0  0  0  0
   -1.5610   68.3660   67.1500 C   0  0  0  0  0  0  0  0  0  0  0  0
   -0.7090   69.7010   66.8810 C   0  0  0  0  0  0  0  0  0  0  0  0
    0.6960   69.7830   67.6190 C   0  0  0  0  0  0  0  0  0  0  0  0
    0.8690   68.4110   68.2000 C   0  0  2  0  0  0  0  0  0  0  0  0
    1.5130   67.6880   69.3280 C   0  0  0  0  0  0  0  0  0  0  0  0
    0.4510   66.5680   69.7150 C   0  0  0  0  0  0  0  0  0  0  0  0
   -0.7260   66.2700   68.6510 C   0  0  0  0  0  0  0  0  0  0  0  0
    1.2400   63.2490   71.2680 C   0  0  0  0  0  0  0  0  0  0  0  0
    0.7700   62.3450   72.1570 N   0  0  0  0  0  0  0  0  0  0  0  0
    1.4890   61.2330   71.8910 N   0  0  0  0  0  0  0  0  0  0  0  0
    2.3940   61.3770   70.8700 C   0  0  0  0  0  0  0  0  0  0  0  0
    2.2570   62.6940   70.4410 C   0  0  0  0  0  0  0  0  0  0  0  0
    3.0680   63.1580   69.3870 C   0  0  0  0  0  0  0  0  0  0  0  0
    3.9880   62.2830   68.7990 C   0  0  0  0  0  0  0  0  0  0  0  0
    4.1060   60.9680   69.2470 C   0  0  0  0  0  0  0  0  0  0  0  0
    3.3110   60.4870   70.2920 C   0  0  0  0  0  0  0  0  0  0  0  0
    1.2660   60.0340   72.6650 C   0  0  0  0  0  0  0  0  0  0  0  0
    1.8730   64.9621   69.5417 H   0  0  0  0  0  0  0  0  0  0  0  0
    2.0737   65.9772   67.6926 H   0  0  0  0  0  0  0  0  0  0  0  0
    1.2151   65.5751   66.1669 H   0  0  0  0  0  0  0  0  0  0  0  0
    2.5124   66.8175   66.1669 H   0  0  0  0  0  0  0  0  0  0  0  0
    0.8327   67.9048   66.1325 H   0  0  0  0  0  0  0  0  0  0  0  0
   -1.1815   66.3055   66.5669 H   0  0  0  0  0  0  0  0  0  0  0  0
   -2.2732   68.2483   66.3200 H   0  0  0  0  0  0  0  0  0  0  0  0
   -2.0344   68.5093   68.1325 H   0  0  0  0  0  0  0  0  0  0  0  0
   -0.5268   69.7731   65.7986 H   0  0  0  0  0  0  0  0  0  0  0  0
   -1.3101   70.5272   67.2885 H   0  0  0  0  0  0  0  0  0  0  0  0
    1.5016   70.0121   66.9059 H   0  0  0  0  0  0  0  0  0  0  0  0
    0.7342   70.5773   68.3790 H   0  0  0  0  0  0  0  0  0  0  0  0
    0.4447   68.8827   69.0986 H   0  0  0  0  0  0  0  0  0  0  0  0
    2.4636   67.2342   69.0111 H   0  0  0  0  0  0  0  0  0  0  0  0
    1.7611   68.3492   70.1714 H   0  0  0  0  0  0  0  0  0  0  0  0
   -0.0714   67.0218   70.5701 H   0  0  0  0  0  0  0  0  0  0  0  0
   -0.6932   65.1928   68.4307 H   0  0  0  0  0  0  0  0  0  0  0  0
   -1.6294   66.6485   69.1516 H   0  0  0  0  0  0  0  0  0  0  0  0
    2.9792   64.1949   69.0307 H   0  0  0  0  0  0  0  0  0  0  0  0
    4.6249   62.6363   67.9746 H   0  0  0  0  0  0  0  0  0  0  0  0
    4.8366   60.2978   68.7705 H   0  0  0  0  0  0  0  0  0  0  0  0
    3.4014   59.4499   70.6473 H   0  0  0  0  0  0  0  0  0  0  0  0
    1.3110   60.2760   73.7371 H   0  0  0  0  0  0  0  0  0  0  0  0
    0.2756   59.6207   72.4237 H   0  0  0  0  0  0  0  0  0  0  0  0
    2.0416   59.2922   72.4237 H   0  0  0  0  0  0  0  0  0  0  0  0
  2  1  1  0
  3  2  2  0
  5  4  1  0
  6  5  1  0
  7  6  1  0
  8  7  1  0
  9  8  1  0
 10  5  1  0
 10  9  1  0
 11 10  1  0
 12 11  1  0
 12  1  1  0
 13 12  1  0
 13  6  1  0
 14  2  1  0
 15 14  2  0
 16 15  1  0
 17 16  1  0
 18 17  2  0
 18 14  1  0
 19 18  1  0
 20 19  2  0
 21 20  1  0
 22 21  2  0
 22 17  1  0
 23 16  1  0
  1 24  1  0
  4 25  1  0
  4 26  1  0
  4 27  1  0
  5 28  1  0
  6 29  1  6
  7 30  1  0
  7 31  1  0
  8 32  1  0
  8 33  1  0
  9 34  1  0
  9 35  1  0
 10 36  1  1
 11 37  1  0
 11 38  1  0
 12 39  1  0
 13 40  1  0
 13 41  1  0
 19 42  1  0
 20 43  1  0
 21 44  1  0
 22 45  1  0
 23 46  1  0
 23 47  1  0
 23 48  1  0
M  CHG  1   5   1
M  END
>  <score>  (4) 
-7.685

$$$$
=
     RDKit          3D

 48 51  0  0  0  0  0  0  0  0999 V2000
    2.0500   58.2570   73.4300 N   0  0  0  0  0  0  0  0  0  0  0  0
    2.5130   58.6960   72.1960 C   0  0  0  0  0  0  0  0  0  0  0  0
    3.0660   57.9560   71.3900 O   0  0  0  0  0  0  0  0  0  0  0  0
   -0.1010   57.4840   76.1820 C   0  0  0  0  0  0  0  0  0  0  0  0
    0.1040   56.0530   75.7730 N   0  0  0  0  0  4  0  0  0  0  0  0
   -0.4530   55.6230   74.4760 C   0  0  2  0  0  0  0  0  0  0  0  0
   -0.4070   54.0370   74.5510 C   0  0  0  0  0  0  0  0  0  0  0  0
    0.2240   53.4130   75.8900 C   0  0  0  0  0  0  0  0  0  0  0  0
    1.4580   54.2030   76.5050 C   0  0  0  0  0  0  0  0  0  0  0  0
    1.5050   55.4660   75.6970 C   0  0  2  0  0  0  0  0  0  0  0  0
    2.4440   56.5070   75.2030 C   0  0  0  0  0  0  0  0  0  0  0  0
    1.9030   56.8440   73.7450 C   0  0  0  0  0  0  0  0  0  0  0  0
    0.4150   56.3370   73.3770 C   0  0  0  0  0  0  0  0  0  0  0  0
    2.2550   60.1250   71.9680 C   0  0  0  0  0  0  0  0  0  0  0  0
    1.0410   60.6550   72.2390 N   0  0  0  0  0  0  0  0  0  0  0  0
    1.1780   61.9550   71.8980 N   0  0  0  0  0  0  0  0  0  0  0  0
    2.4240   62.2870   71.4290 C   0  0  0  0  0  0  0  0  0  0  0  0
    3.1550   61.1030   71.4590 C   0  0  0  0  0  0  0  0  0  0  0  0
    4.4950   61.1160   71.0260 C   0  0  0  0  0  0  0  0  0  0  0  0
    5.0550   62.3180   70.5780 C   0  0  0  0  0  0  0  0  0  0  0  0
    4.3020   63.4900   70.5580 C   0  0  0  0  0  0  0  0  0  0  0  0
    2.9700   63.5000   70.9840 C   0  0  0  0  0  0  0  0  0  0  0  0
    0.0580   62.8560   72.0450 C   0  0  0  0  0  0  0  0  0  0  0  0
    1.8025   58.9550   74.1459 H   0  0  0  0  0  0  0  0  0  0  0  0
   -0.1110   57.5538   77.2797 H   0  0  0  0  0  0  0  0  0  0  0  0
    0.7180   58.1004   75.7829 H   0  0  0  0  0  0  0  0  0  0  0  0
   -1.0601   57.8456   75.7829 H   0  0  0  0  0  0  0  0  0  0  0  0
   -0.4074   55.7075   76.5976 H   0  0  0  0  0  0  0  0  0  0  0  0
   -1.4898   55.8965   74.2304 H   0  0  0  0  0  0  0  0  0  0  0  0
   -1.4385   53.6658   74.4604 H   0  0  0  0  0  0  0  0  0  0  0  0
    0.2587   53.7208   73.7344 H   0  0  0  0  0  0  0  0  0  0  0  0
   -0.5683   53.3780   76.6522 H   0  0  0  0  0  0  0  0  0  0  0  0
    0.6136   52.4246   75.6048 H   0  0  0  0  0  0  0  0  0  0  0  0
    1.2920   54.4237   77.5698 H   0  0  0  0  0  0  0  0  0  0  0  0
    2.3969   53.6316   76.4607 H   0  0  0  0  0  0  0  0  0  0  0  0
    2.2435   54.9034   75.1070 H   0  0  0  0  0  0  0  0  0  0  0  0
    2.4156   57.3981   75.8473 H   0  0  0  0  0  0  0  0  0  0  0  0
    3.4910   56.1695   75.2011 H   0  0  0  0  0  0  0  0  0  0  0  0
    2.5578   56.2374   73.1021 H   0  0  0  0  0  0  0  0  0  0  0  0
   -0.1512   57.2200   73.0458 H   0  0  0  0  0  0  0  0  0  0  0  0
    0.5881   55.5474   72.6310 H   0  0  0  0  0  0  0  0  0  0  0  0
    5.0938   60.1934   71.0397 H   0  0  0  0  0  0  0  0  0  0  0  0
    6.1010   62.3375   70.2380 H   0  0  0  0  0  0  0  0  0  0  0  0
    4.7628   64.4229   70.2012 H   0  0  0  0  0  0  0  0  0  0  0  0
    2.3732   64.4239   70.9706 H   0  0  0  0  0  0  0  0  0  0  0  0
   -0.1440   63.0185   73.1140 H   0  0  0  0  0  0  0  0  0  0  0  0
    0.2957   63.8175   71.5664 H   0  0  0  0  0  0  0  0  0  0  0  0
   -0.8303   62.4179   71.5664 H   0  0  0  0  0  0  0  0  0  0  0  0
  2  1  1  0
  3  2  2  0
  5  4  1  0
  6  5  1  0
  7  6  1  0
  8  7  1  0
  9  8  1  0
 10  5  1  0
 10  9  1  0
 11 10  1  0
 12 11  1  0
 12  1  1  0
 13 12  1  0
 13  6  1  0
 14  2  1  0
 15 14  2  0
 16 15  1  0
 17 16  1  0
 18 17  2  0
 18 14  1  0
 19 18  1  0
 20 19  2  0
 21 20  1  0
 22 21  2  0
 22 17  1  0
 23 16  1  0
  1 24  1  0
  4 25  1  0
  4 26  1  0
  4 27  1  0
  5 28  1  0
  6 29  1  1
  7 30  1  0
  7 31  1  0
  8 32  1  0
  8 33  1  0
  9 34  1  0
  9 35  1  0
 10 36  1  6
 11 37  1  0
 11 38  1  0
 12 39  1  0
 13 40  1  0
 13 41  1  0
 19 42  1  0
 20 43  1  0
 21 44  1  0
 22 45  1  0
 23 46  1  0
 23 47  1  0
 23 48  1  0
M  CHG  1   5   1
M  END
>  <score>  (5) 
-7.577

$$$$
=
     RDKit          3D

 48 51  0  0  0  0  0  0  0  0999 V2000
    2.6460   58.7680   73.1850 N   0  0  0  0  0  0  0  0  0  0  0  0
    3.0410   59.0300   71.8790 C   0  0  0  0  0  0  0  0  0  0  0  0
    3.3520   58.1460   71.0880 O   0  0  0  0  0  0  0  0  0  0  0  0
    0.1240   58.6090   75.7180 C   0  0  0  0  0  0  0  0  0  0  0  0
    0.1760   57.1250   75.4940 N   0  0  0  0  0  4  0  0  0  0  0  0
   -0.2910   56.6090   74.1930 C   0  0  2  0  0  0  0  0  0  0  0  0
   -0.4690   55.0520   74.4440 C   0  0  0  0  0  0  0  0  0  0  0  0
   -0.0780   54.5240   75.9110 C   0  0  0  0  0  0  0  0  0  0  0  0
    1.1780   55.2280   76.5840 C   0  0  0  0  0  0  0  0  0  0  0  0
    1.4840   56.3650   75.6560 C   0  0  2  0  0  0  0  0  0  0  0  0
    2.6030   57.2150   75.1720 C   0  0  0  0  0  0  0  0  0  0  0  0
    2.2740   57.4330   73.6300 C   0  0  0  0  0  0  0  0  0  0  0  0
    0.7800   57.0710   73.1390 C   0  0  0  0  0  0  0  0  0  0  0  0
    3.0290   60.4640   71.5580 C   0  0  0  0  0  0  0  0  0  0  0  0
    4.1330   61.0640   71.0570 N   0  0  0  0  0  0  0  0  0  0  0  0
    3.7540   62.3520   70.9060 N   0  0  0  0  0  0  0  0  0  0  0  0
    2.4580   62.6060   71.2780 C   0  0  0  0  0  0  0  0  0  0  0  0
    1.9550   61.3840   71.7150 C   0  0  0  0  0  0  0  0  0  0  0  0
    0.6260   61.3170   72.1750 C   0  0  0  0  0  0  0  0  0  0  0  0
   -0.1540   62.4790   72.1790 C   0  0  0  0  0  0  0  0  0  0  0  0
    0.3730   63.6910   71.7350 C   0  0  0  0  0  0  0  0  0  0  0  0
    1.6910   63.7800   71.2750 C   0  0  0  0  0  0  0  0  0  0  0  0
    4.6950   63.3190   70.3900 C   0  0  0  0  0  0  0  0  0  0  0  0
    2.6154   59.5445   73.8610 H   0  0  0  0  0  0  0  0  0  0  0  0
    0.1167   58.8167   76.7982 H   0  0  0  0  0  0  0  0  0  0  0  0
    1.0062   59.0801   75.2599 H   0  0  0  0  0  0  0  0  0  0  0  0
   -0.7890   59.0172   75.2599 H   0  0  0  0  0  0  0  0  0  0  0  0
   -0.4640   56.9502   76.2819 H   0  0  0  0  0  0  0  0  0  0  0  0
   -1.2487   56.9739   73.7935 H   0  0  0  0  0  0  0  0  0  0  0  0
   -1.5253   54.8014   74.2669 H   0  0  0  0  0  0  0  0  0  0  0  0
    0.2329   54.5591   73.7553 H   0  0  0  0  0  0  0  0  0  0  0  0
   -0.9457   54.6799   76.5688 H   0  0  0  0  0  0  0  0  0  0  0  0
    0.2018   53.4676   75.7851 H   0  0  0  0  0  0  0  0  0  0  0  0
    0.9289   55.5979   77.5895 H   0  0  0  0  0  0  0  0  0  0  0  0
    2.0297   54.5450   76.7185 H   0  0  0  0  0  0  0  0  0  0  0  0
    2.1978   55.6464   75.2270 H   0  0  0  0  0  0  0  0  0  0  0  0
    2.6256   58.1755   75.7076 H   0  0  0  0  0  0  0  0  0  0  0  0
    3.5886   56.7550   75.3360 H   0  0  0  0  0  0  0  0  0  0  0  0
    2.9052   56.6761   73.1415 H   0  0  0  0  0  0  0  0  0  0  0  0
    0.3783   57.9694   72.6475 H   0  0  0  0  0  0  0  0  0  0  0  0
    0.9238   56.1803   72.5097 H   0  0  0  0  0  0  0  0  0  0  0  0
    0.2060   60.3632   72.5269 H   0  0  0  0  0  0  0  0  0  0  0  0
   -1.1935   62.4356   72.5361 H   0  0  0  0  0  0  0  0  0  0  0  0
   -0.2580   64.5920   71.7466 H   0  0  0  0  0  0  0  0  0  0  0  0
    2.1099   64.7347   70.9242 H   0  0  0  0  0  0  0  0  0  0  0  0
    5.1922   63.8299   71.2277 H   0  0  0  0  0  0  0  0  0  0  0  0
    5.4484   62.8053   69.7747 H   0  0  0  0  0  0  0  0  0  0  0  0
    4.1610   64.0581   69.7747 H   0  0  0  0  0  0  0  0  0  0  0  0
  2  1  1  0
  3  2  2  0
  5  4  1  0
  6  5  1  0
  7  6  1  0
  8  7  1  0
  9  8  1  0
 10  5  1  0
 10  9  1  0
 11 10  1  0
 12 11  1  0
 12  1  1  0
 13 12  1  0
 13  6  1  0
 14  2  1  0
 15 14  2  0
 16 15  1  0
 17 16  1  0
 18 17  2  0
 18 14  1  0
 19 18  1  0
 20 19  2  0
 21 20  1  0
 22 21  2  0
 22 17  1  0
 23 16  1  0
  1 24  1  0
  4 25  1  0
  4 26  1  0
  4 27  1  0
  5 28  1  0
  6 29  1  6
  7 30  1  0
  7 31  1  0
  8 32  1  0
  8 33  1  0
  9 34  1  0
  9 35  1  0
 10 36  1  6
 11 37  1  0
 11 38  1  0
 12 39  1  0
 13 40  1  0
 13 41  1  0
 19 42  1  0
 20 43  1  0
 21 44  1  0
 22 45  1  0
 23 46  1  0
 23 47  1  0
 23 48  1  0
M  CHG  1   5   1
M  END
>  <score>  (6) 
-7.5

$$$$
=
     RDKit          3D

 48 51  0  0  0  0  0  0  0  0999 V2000
    2.1790   59.5410   73.2960 N   0  0  0  0  0  0  0  0  0  0  0  0
    1.0390   58.9430   73.8190 C   0  0  0  0  0  0  0  0  0  0  0  0
   -0.0960   59.3000   73.5230 O   0  0  0  0  0  0  0  0  0  0  0  0
    5.2340   61.2120   72.4730 C   0  0  0  0  0  0  0  0  0  0  0  0
    4.4990   61.6760   71.2480 N   0  0  0  0  0  4  0  0  0  0  0  0
    4.1190   60.6600   70.2490 C   0  0  2  0  0  0  0  0  0  0  0  0
    3.7430   61.5130   68.9640 C   0  0  0  0  0  0  0  0  0  0  0  0
    3.8350   63.1090   69.1260 C   0  0  0  0  0  0  0  0  0  0  0  0
    3.3840   63.6860   70.5370 C   0  0  0  0  0  0  0  0  0  0  0  0
    3.2010   62.4580   71.3770 C   0  0  2  0  0  0  0  0  0  0  0  0
    2.4290   61.9330   72.5340 C   0  0  0  0  0  0  0  0  0  0  0  0
    2.1310   60.4210   72.1370 C   0  0  0  0  0  0  0  0  0  0  0  0
    2.9890   59.7970   70.9200 C   0  0  0  0  0  0  0  0  0  0  0  0
    1.3480   57.8430   74.7430 C   0  0  0  0  0  0  0  0  0  0  0  0
    2.1460   58.0500   75.8140 N   0  0  0  0  0  0  0  0  0  0  0  0
    2.2080   56.8360   76.4040 N   0  0  0  0  0  0  0  0  0  0  0  0
    1.4820   55.8620   75.7670 C   0  0  0  0  0  0  0  0  0  0  0  0
    0.9070   56.4920   74.6680 C   0  0  0  0  0  0  0  0  0  0  0  0
    0.0910   55.7410   73.7990 C   0  0  0  0  0  0  0  0  0  0  0  0
   -0.1200   54.3840   74.0650 C   0  0  0  0  0  0  0  0  0  0  0  0
    0.4680   53.7760   75.1730 C   0  0  0  0  0  0  0  0  0  0  0  0
    1.2810   54.5020   76.0480 C   0  0  0  0  0  0  0  0  0  0  0  0
    2.9970   56.6610   77.6010 C   0  0  0  0  0  0  0  0  0  0  0  0
    3.0882   59.3556   73.7431 H   0  0  0  0  0  0  0  0  0  0  0  0
    4.6982   61.5502   73.3722 H   0  0  0  0  0  0  0  0  0  0  0  0
    5.2916   60.1135   72.4720 H   0  0  0  0  0  0  0  0  0  0  0  0
    6.2505   61.6324   72.4720 H   0  0  0  0  0  0  0  0  0  0  0  0
    5.2813   62.2845   70.9675 H   0  0  0  0  0  0  0  0  0  0  0  0
    4.8744   59.9268   69.9299 H   0  0  0  0  0  0  0  0  0  0  0  0
    4.4243   61.2173   68.1526 H   0  0  0  0  0  0  0  0  0  0  0  0
    2.6834   61.2960   68.7637 H   0  0  0  0  0  0  0  0  0  0  0  0
    4.8808   63.4060   68.9581 H   0  0  0  0  0  0  0  0  0  0  0  0
    3.1295   63.5259   68.3923 H   0  0  0  0  0  0  0  0  0  0  0  0
    4.1608   64.3396   70.9606 H   0  0  0  0  0  0  0  0  0  0  0  0
    2.4747   64.3021   70.4763 H   0  0  0  0  0  0  0  0  0  0  0  0
    2.1504   62.5688   71.0706 H   0  0  0  0  0  0  0  0  0  0  0  0
    3.0234   61.9856   73.4580 H   0  0  0  0  0  0  0  0  0  0  0  0
    1.5131   62.5095   72.7310 H   0  0  0  0  0  0  0  0  0  0  0  0
    1.1068   60.4766   71.7396 H   0  0  0  0  0  0  0  0  0  0  0  0
    3.4679   58.8831   71.3014 H   0  0  0  0  0  0  0  0  0  0  0  0
    2.2472   59.6724   70.1174 H   0  0  0  0  0  0  0  0  0  0  0  0
   -0.3742   56.2157   72.9225 H   0  0  0  0  0  0  0  0  0  0  0  0
   -0.7568   53.7903   73.3926 H   0  0  0  0  0  0  0  0  0  0  0  0
    0.2892   52.7072   75.3619 H   0  0  0  0  0  0  0  0  0  0  0  0
    1.7456   54.0253   76.9237 H   0  0  0  0  0  0  0  0  0  0  0  0
    2.3582   56.8027   78.4852 H   0  0  0  0  0  0  0  0  0  0  0  0
    3.4224   55.6467   77.6147 H   0  0  0  0  0  0  0  0  0  0  0  0
    3.8114   57.4003   77.6147 H   0  0  0  0  0  0  0  0  0  0  0  0
  2  1  1  0
  3  2  2  0
  5  4  1  0
  6  5  1  0
  7  6  1  0
  8  7  1  0
  9  8  1  0
 10  5  1  0
 10  9  1  0
 11 10  1  0
 12 11  1  0
 12  1  1  0
 13 12  1  0
 13  6  1  0
 14  2  1  0
 15 14  2  0
 16 15  1  0
 17 16  1  0
 18 17  2  0
 18 14  1  0
 19 18  1  0
 20 19  2  0
 21 20  1  0
 22 21  2  0
 22 17  1  0
 23 16  1  0
  1 24  1  0
  4 25  1  0
  4 26  1  0
  4 27  1  0
  5 28  1  0
  6 29  1  6
  7 30  1  0
  7 31  1  0
  8 32  1  0
  8 33  1  0
  9 34  1  0
  9 35  1  0
 10 36  1  6
 11 37  1  0
 11 38  1  0
 12 39  1  0
 13 40  1  0
 13 41  1  0
 19 42  1  0
 20 43  1  0
 21 44  1  0
 22 45  1  0
 23 46  1  0
 23 47  1  0
 23 48  1  0
M  CHG  1   5   1
M  END
>  <score>  (7) 
-7.468

$$$$
=
     RDKit          3D

 48 51  0  0  0  0  0  0  0  0999 V2000
    1.8470   58.8640   73.4100 N   0  0  0  0  0  0  0  0  0  0  0  0
    1.7560   58.3260   74.6870 C   0  0  0  0  0  0  0  0  0  0  0  0
    2.4550   58.7040   75.6210 O   0  0  0  0  0  0  0  0  0  0  0  0
    3.3540   59.1470   70.1770 C   0  0  0  0  0  0  0  0  0  0  0  0
    3.6390   60.5670   70.5770 N   0  0  0  0  0  4  0  0  0  0  0  0
    2.4910   61.4760   70.7520 C   0  0  2  0  0  0  0  0  0  0  0  0
    3.1500   62.9210   70.7730 C   0  0  0  0  0  0  0  0  0  0  0  0
    4.7520   62.9660   70.6530 C   0  0  0  0  0  0  0  0  0  0  0  0
    5.5330   61.8020   71.4020 C   0  0  0  0  0  0  0  0  0  0  0  0
    4.4420   60.8670   71.8340 C   0  0  2  0  0  0  0  0  0  0  0  0
    4.0990   59.8700   72.8810 C   0  0  0  0  0  0  0  0  0  0  0  0
    2.5480   60.1110   73.1410 C   0  0  0  0  0  0  0  0  0  0  0  0
    1.7460   60.9840   72.0460 C   0  0  0  0  0  0  0  0  0  0  0  0
    0.7310   57.2780   74.7900 C   0  0  0  0  0  0  0  0  0  0  0  0
   -0.5250   57.5840   75.1870 N   0  0  0  0  0  0  0  0  0  0  0  0
   -1.1620   56.3920   75.1730 N   0  0  0  0  0  0  0  0  0  0  0  0
   -0.3770   55.3380   74.7800 C   0  0  0  0  0  0  0  0  0  0  0  0
    0.8760   55.8880   74.5250 C   0  0  0  0  0  0  0  0  0  0  0  0
    1.9190   55.0430   74.1000 C   0  0  0  0  0  0  0  0  0  0  0  0
    1.6690   53.6750   73.9450 C   0  0  0  0  0  0  0  0  0  0  0  0
    0.4050   53.1490   74.2070 C   0  0  0  0  0  0  0  0  0  0  0  0
   -0.6450   53.9700   74.6300 C   0  0  0  0  0  0  0  0  0  0  0  0
   -2.5530   56.3190   75.5570 C   0  0  0  0  0  0  0  0  0  0  0  0
    1.4034   58.3636   72.6266 H   0  0  0  0  0  0  0  0  0  0  0  0
    3.2301   58.5298   71.0791 H   0  0  0  0  0  0  0  0  0  0  0  0
    2.4310   59.1126   69.5796 H   0  0  0  0  0  0  0  0  0  0  0  0
    4.1922   58.7591   69.5796 H   0  0  0  0  0  0  0  0  0  0  0  0
    4.1924   60.7323   69.7242 H   0  0  0  0  0  0  0  0  0  0  0  0
    1.7123   61.4972   69.9753 H   0  0  0  0  0  0  0  0  0  0  0  0
    2.7332   63.4934   69.9312 H   0  0  0  0  0  0  0  0  0  0  0  0
    2.9146   63.3402   71.7624 H   0  0  0  0  0  0  0  0  0  0  0  0
    5.0124   62.9150   69.5855 H   0  0  0  0  0  0  0  0  0  0  0  0
    5.0630   63.8997   71.1443 H   0  0  0  0  0  0  0  0  0  0  0  0
    6.2351   61.2986   70.7211 H   0  0  0  0  0  0  0  0  0  0  0  0
    6.1411   62.1671   72.2428 H   0  0  0  0  0  0  0  0  0  0  0  0
    4.5144   61.4305   72.7759 H   0  0  0  0  0  0  0  0  0  0  0  0
    4.2818   58.8463   72.5222 H   0  0  0  0  0  0  0  0  0  0  0  0
    4.7056   59.9835   73.7915 H   0  0  0  0  0  0  0  0  0  0  0  0
    2.5530   60.7484   74.0375 H   0  0  0  0  0  0  0  0  0  0  0  0
    0.8938   60.3738   71.7121 H   0  0  0  0  0  0  0  0  0  0  0  0
    1.5123   61.9168   72.5801 H   0  0  0  0  0  0  0  0  0  0  0  0
    2.9183   55.4533   73.8923 H   0  0  0  0  0  0  0  0  0  0  0  0
    2.4782   53.0079   73.6130 H   0  0  0  0  0  0  0  0  0  0  0  0
    0.2306   52.0705   74.0789 H   0  0  0  0  0  0  0  0  0  0  0  0
   -1.6437   53.5580   74.8373 H   0  0  0  0  0  0  0  0  0  0  0  0
   -2.6307   56.3149   76.6542 H   0  0  0  0  0  0  0  0  0  0  0  0
   -3.0907   57.1902   75.1546 H   0  0  0  0  0  0  0  0  0  0  0  0
   -2.9965   55.3963   75.1546 H   0  0  0  0  0  0  0  0  0  0  0  0
  2  1  1  0
  3  2  2  0
  5  4  1  0
  6  5  1  0
  7  6  1  0
  8  7  1  0
  9  8  1  0
 10  5  1  0
 10  9  1  0
 11 10  1  0
 12 11  1  0
 12  1  1  0
 13 12  1  0
 13  6  1  0
 14  2  1  0
 15 14  2  0
 16 15  1  0
 17 16  1  0
 18 17  2  0
 18 14  1  0
 19 18  1  0
 20 19  2  0
 21 20  1  0
 22 21  2  0
 22 17  1  0
 23 16  1  0
  1 24  1  0
  4 25  1  0
  4 26  1  0
  4 27  1  0
  5 28  1  0
  6 29  1  6
  7 30  1  0
  7 31  1  0
  8 32  1  0
  8 33  1  0
  9 34  1  0
  9 35  1  0
 10 36  1  1
 11 37  1  0
 11 38  1  0
 12 39  1  0
 13 40  1  0
 13 41  1  0
 19 42  1  0
 20 43  1  0
 21 44  1  0
 22 45  1  0
 23 46  1  0
 23 47  1  0
 23 48  1  0
M  CHG  1   5   1
M  END
>  <score>  (8) 
-7.374

$$$$
=
     RDKit          3D

 48 51  0  0  0  0  0  0  0  0999 V2000
    0.6970   60.1150   73.4100 N   0  0  0  0  0  0  0  0  0  0  0  0
    0.8850   61.3980   73.9080 C   0  0  0  0  0  0  0  0  0  0  0  0
    0.7280   61.6840   75.0900 O   0  0  0  0  0  0  0  0  0  0  0  0
    2.2280   57.1190   72.1930 C   0  0  0  0  0  0  0  0  0  0  0  0
    1.9080   56.5580   73.5500 N   0  0  0  0  0  4  0  0  0  0  0  0
    2.6150   57.1270   74.7130 C   0  0  2  0  0  0  0  0  0  0  0  0
    2.3480   56.0750   75.8710 C   0  0  0  0  0  0  0  0  0  0  0  0
    1.4220   54.8200   75.4840 C   0  0  0  0  0  0  0  0  0  0  0  0
    0.2170   55.1310   74.4950 C   0  0  0  0  0  0  0  0  0  0  0  0
    0.4750   56.5420   74.0590 C   0  0  2  0  0  0  0  0  0  0  0  0
   -0.2200   57.7720   73.5960 C   0  0  0  0  0  0  0  0  0  0  0  0
    0.6000   58.9520   74.2800 C   0  0  0  0  0  0  0  0  0  0  0  0
    2.0480   58.5830   74.8910 C   0  0  0  0  0  0  0  0  0  0  0  0
    1.3000   62.3540   72.8720 C   0  0  0  0  0  0  0  0  0  0  0  0
    0.4460   63.3060   72.4350 N   0  0  0  0  0  0  0  0  0  0  0  0
    1.1590   63.9680   71.4980 N   0  0  0  0  0  0  0  0  0  0  0  0
    2.4340   63.4930   71.3190 C   0  0  0  0  0  0  0  0  0  0  0  0
    2.5560   62.4280   72.2070 C   0  0  0  0  0  0  0  0  0  0  0  0
    3.7710   61.7170   72.2580 C   0  0  0  0  0  0  0  0  0  0  0  0
    4.8210   62.1010   71.4160 C   0  0  0  0  0  0  0  0  0  0  0  0
    4.6730   63.1720   70.5360 C   0  0  0  0  0  0  0  0  0  0  0  0
    3.4760   63.8910   70.4700 C   0  0  0  0  0  0  0  0  0  0  0  0
    0.5580   65.0730   70.7880 C   0  0  0  0  0  0  0  0  0  0  0  0
    0.6238   59.9821   72.3912 H   0  0  0  0  0  0  0  0  0  0  0  0
    2.7701   58.0693   72.3076 H   0  0  0  0  0  0  0  0  0  0  0  0
    2.8542   56.4042   71.6391 H   0  0  0  0  0  0  0  0  0  0  0  0
    1.2939   57.2942   71.6391 H   0  0  0  0  0  0  0  0  0  0  0  0
    2.2224   55.6170   73.2733 H   0  0  0  0  0  0  0  0  0  0  0  0
    3.7054   57.2597   74.6541 H   0  0  0  0  0  0  0  0  0  0  0  0
    3.3217   55.6851   76.2023 H   0  0  0  0  0  0  0  0  0  0  0  0
    1.7944   56.6233   76.6474 H   0  0  0  0  0  0  0  0  0  0  0  0
    2.0618   54.0617   75.0090 H   0  0  0  0  0  0  0  0  0  0  0  0
    0.9593   54.4876   76.4249 H   0  0  0  0  0  0  0  0  0  0  0  0
    0.2280   54.4457   73.6346 H   0  0  0  0  0  0  0  0  0  0  0  0
   -0.7681   55.0026   74.9674 H   0  0  0  0  0  0  0  0  0  0  0  0
   -0.2215   56.7797   74.8765 H   0  0  0  0  0  0  0  0  0  0  0  0
   -0.1834   57.8536   72.4996 H   0  0  0  0  0  0  0  0  0  0  0  0
   -1.2867   57.7843   73.8642 H   0  0  0  0  0  0  0  0  0  0  0  0
   -0.0110   59.1852   75.1645 H   0  0  0  0  0  0  0  0  0  0  0  0
    2.7743   59.2679   74.4291 H   0  0  0  0  0  0  0  0  0  0  0  0
    1.9004   58.6719   75.9774 H   0  0  0  0  0  0  0  0  0  0  0  0
    3.8929   60.8711   72.9505 H   0  0  0  0  0  0  0  0  0  0  0  0
    5.7734   61.5517   71.4490 H   0  0  0  0  0  0  0  0  0  0  0  0
    5.5115   63.4559   69.8831 H   0  0  0  0  0  0  0  0  0  0  0  0
    3.3562   64.7374   69.7777 H   0  0  0  0  0  0  0  0  0  0  0  0
    0.1619   65.8013   71.5109 H   0  0  0  0  0  0  0  0  0  0  0  0
    1.3162   65.5587   70.1562 H   0  0  0  0  0  0  0  0  0  0  0  0
   -0.2618   64.7005   70.1562 H   0  0  0  0  0  0  0  0  0  0  0  0
  2  1  1  0
  3  2  2  0
  5  4  1  0
  6  5  1  0
  7  6  1  0
  8  7  1  0
  9  8  1  0
 10  5  1  0
 10  9  1  0
 11 10  1  0
 12 11  1  0
 12  1  1  0
 13 12  1  0
 13  6  1  0
 14  2  1  0
 15 14  2  0
 16 15  1  0
 17 16  1  0
 18 17  2  0
 18 14  1  0
 19 18  1  0
 20 19  2  0
 21 20  1  0
 22 21  2  0
 22 17  1  0
 23 16  1  0
  1 24  1  0
  4 25  1  0
  4 26  1  0
  4 27  1  0
  5 28  1  0
  6 29  1  6
  7 30  1  0
  7 31  1  0
  8 32  1  0
  8 33  1  0
  9 34  1  0
  9 35  1  0
 10 36  1  1
 11 37  1  0
 11 38  1  0
 12 39  1  0
 13 40  1  0
 13 41  1  0
 19 42  1  0
 20 43  1  0
 21 44  1  0
 22 45  1  0
 23 46  1  0
 23 47  1  0
 23 48  1  0
M  CHG  1   5   1
M  END
>  <score>  (9) 
-7.371

$$$$
