=
     RDKit          3D

 38 39  0  0  0  0  0  0  0  0999 V2000
    3.9920   61.7090   72.4880 C   0  0  0  0  0  0  0  0  0  0  0  0
    3.1130   61.6080   73.5640 C   0  0  0  0  0  0  0  0  0  0  0  0
    1.9390   62.3660   73.5830 C   0  0  0  0  0  0  0  0  0  0  0  0
    1.6210   63.2300   72.5260 C   0  0  0  0  0  0  0  0  0  0  0  0
    2.5130   63.3510   71.4490 C   0  0  0  0  0  0  0  0  0  0  0  0
    3.6850   62.5770   71.4380 C   0  0  0  0  0  0  0  0  0  0  0  0
    2.2200   64.2520   70.2730 C   0  0  0  0  0  0  0  0  0  0  0  0
    1.1020   65.2760   70.5400 C   0  0  2  0  0  0  0  0  0  0  0  0
   -0.0750   64.6010   71.2450 C   0  0  0  0  0  0  0  0  0  0  0  0
    0.3610   64.0530   72.6020 C   0  0  0  0  0  0  0  0  0  0  0  0
    0.6400   65.9050   69.3030 N   0  0  0  0  0  0  0  0  0  0  0  0
    1.0710   67.1610   68.9530 C   0  0  0  0  0  0  0  0  0  0  0  0
    1.8270   67.8160   69.6640 O   0  0  0  0  0  0  0  0  0  0  0  0
    0.5870   67.6180   67.7330 N   0  0  0  0  0  0  0  0  0  0  0  0
    1.0340   68.9320   67.3030 C   0  0  0  0  0  0  0  0  0  0  0  0
   -0.6610   67.1560   67.1390 C   0  0  0  0  0  0  0  0  0  0  0  0
    5.6310   60.8250   71.0110 C   0  0  0  0  0  0  0  0  0  0  0  0
    5.1680   61.0250   72.3400 O   0  0  0  0  0  0  0  0  0  0  0  0
    3.3432   60.9308   74.3997 H   0  0  0  0  0  0  0  0  0  0  0  0
    1.2544   62.2834   74.4401 H   0  0  0  0  0  0  0  0  0  0  0  0
    4.3750   62.6562   70.5850 H   0  0  0  0  0  0  0  0  0  0  0  0
    3.1391   64.8001   70.0183 H   0  0  0  0  0  0  0  0  0  0  0  0
    1.8745   63.6063   69.4522 H   0  0  0  0  0  0  0  0  0  0  0  0
    1.5191   66.0612   71.1877 H   0  0  0  0  0  0  0  0  0  0  0  0
   -0.8794   65.3366   71.3926 H   0  0  0  0  0  0  0  0  0  0  0  0
   -0.4341   63.7683   70.6224 H   0  0  0  0  0  0  0  0  0  0  0  0
    0.5354   64.8995   73.2825 H   0  0  0  0  0  0  0  0  0  0  0  0
   -0.4417   63.3941   72.9647 H   0  0  0  0  0  0  0  0  0  0  0  0
   -0.0150   65.4010   68.6884 H   0  0  0  0  0  0  0  0  0  0  0  0
    1.2456   69.5541   68.1851 H   0  0  0  0  0  0  0  0  0  0  0  0
    1.9477   68.8291   66.6992 H   0  0  0  0  0  0  0  0  0  0  0  0
    0.2471   69.4076   66.6992 H   0  0  0  0  0  0  0  0  0  0  0  0
   -1.3714   66.8930   67.9366 H   0  0  0  0  0  0  0  0  0  0  0  0
   -1.0886   67.9554   66.5160 H   0  0  0  0  0  0  0  0  0  0  0  0
   -0.4650   66.2709   66.5160 H   0  0  0  0  0  0  0  0  0  0  0  0
    6.6406   60.3889   71.0362 H   0  0  0  0  0  0  0  0  0  0  0  0
    4.9492   60.1412   70.4842 H   0  0  0  0  0  0  0  0  0  0  0  0
    5.6615   61.7902   70.4842 H   0  0  0  0  0  0  0  0  0  0  0  0
  2  1  2  0
  3  2  1  0
  4  3  2  0
  5  4  1  0
  6  5  2  0
  6  1  1  0
  7  5  1  0
  8  7  1  0
  9  8  1  0
 10  9  1  0
 10  4  1  0
 11  8  1  0
 12 11  1  0
 13 12  2  0
 14 12  1  0
 15 14  1  0
 16 14  1  0
 18  1  1  0
 18 17  1  0
  2 19  1  0
  3 20  1  0
  6 21  1  0
  7 22  1  0
  7 23  1  0
  8 24  1  1
  9 25  1  0
  9 26  1  0
 10 27  1  0
 10 28  1  0
 11 29  1  0
 15 30  1  0
 15 31  1  0
 15 32  1  0
 16 33  1  0
 16 34  1  0
 16 35  1  0
 17 36  1  0
 17 37  1  0
 17 38  1  0
M  END
>  <score>  (1) 
-7.298

$$$$
=
     RDKit          3D

 38 39  0  0  0  0  0  0  0  0999 V2000
    2.3520   63.6080   70.3070 C   0  0  0  0  0  0  0  0  0  0  0  0
    3.1720   63.3090   69.2210 C   0  0  0  0  0  0  0  0  0  0  0  0
    3.6960   62.0200   69.0730 C   0  0  0  0  0  0  0  0  0  0  0  0
    3.4020   61.0120   70.0020 C   0  0  0  0  0  0  0  0  0  0  0  0
    2.5930   61.3140   71.1080 C   0  0  0  0  0  0  0  0  0  0  0  0
    2.0660   62.6090   71.2400 C   0  0  0  0  0  0  0  0  0  0  0  0
    2.2280   60.2670   72.1340 C   0  0  0  0  0  0  0  0  0  0  0  0
    3.1080   59.0050   72.0730 C   0  0  2  0  0  0  0  0  0  0  0  0
    3.2950   58.5620   70.6220 C   0  0  0  0  0  0  0  0  0  0  0  0
    4.0140   59.6460   69.8220 C   0  0  0  0  0  0  0  0  0  0  0  0
    2.5340   57.9090   72.8530 N   0  0  0  0  0  0  0  0  0  0  0  0
    2.7830   57.8030   74.1990 C   0  0  0  0  0  0  0  0  0  0  0  0
    3.5110   58.5910   74.7950 O   0  0  0  0  0  0  0  0  0  0  0  0
    2.1400   56.7400   74.8220 N   0  0  0  0  0  0  0  0  0  0  0  0
    2.3490   56.5970   76.2530 C   0  0  0  0  0  0  0  0  0  0  0  0
    1.7320   55.5270   74.1260 C   0  0  0  0  0  0  0  0  0  0  0  0
    0.4650   64.7970   71.1290 C   0  0  0  0  0  0  0  0  0  0  0  0
    1.7710   64.8190   70.5690 O   0  0  0  0  0  0  0  0  0  0  0  0
    3.4076   64.0866   68.4795 H   0  0  0  0  0  0  0  0  0  0  0  0
    4.3476   61.7945   68.2159 H   0  0  0  0  0  0  0  0  0  0  0  0
    1.4148   62.8412   72.0956 H   0  0  0  0  0  0  0  0  0  0  0  0
    2.3286   60.7121   73.1349 H   0  0  0  0  0  0  0  0  0  0  0  0
    1.1974   59.9502   71.9163 H   0  0  0  0  0  0  0  0  0  0  0  0
    4.0849   59.2598   72.5098 H   0  0  0  0  0  0  0  0  0  0  0  0
    3.8924   57.6386   70.5992 H   0  0  0  0  0  0  0  0  0  0  0  0
    2.3065   58.3844   70.1733 H   0  0  0  0  0  0  0  0  0  0  0  0
    5.0634   59.6858   70.1493 H   0  0  0  0  0  0  0  0  0  0  0  0
    3.9266   59.3831   68.7575 H   0  0  0  0  0  0  0  0  0  0  0  0
    1.9372   57.2100   72.3881 H   0  0  0  0  0  0  0  0  0  0  0  0
    1.5589   57.1376   76.7948 H   0  0  0  0  0  0  0  0  0  0  0  0
    2.3160   55.5313   76.5237 H   0  0  0  0  0  0  0  0  0  0  0  0
    3.3303   57.0138   76.5237 H   0  0  0  0  0  0  0  0  0  0  0  0
    1.4713   54.7521   74.8619 H   0  0  0  0  0  0  0  0  0  0  0  0
    0.8570   55.7428   73.4953 H   0  0  0  0  0  0  0  0  0  0  0  0
    2.5596   55.1702   73.4953 H   0  0  0  0  0  0  0  0  0  0  0  0
    0.5367   64.7982   72.2267 H   0  0  0  0  0  0  0  0  0  0  0  0
   -0.0914   65.6859   70.7969 H   0  0  0  0  0  0  0  0  0  0  0  0
   -0.0611   63.8899   70.7969 H   0  0  0  0  0  0  0  0  0  0  0  0
  2  1  2  0
  3  2  1  0
  4  3  2  0
  5  4  1  0
  6  5  2  0
  6  1  1  0
  7  5  1  0
  8  7  1  0
  9  8  1  0
 10  9  1  0
 10  4  1  0
 11  8  1  0
 12 11  1  0
 13 12  2  0
 14 12  1  0
 15 14  1  0
 16 14  1  0
 18  1  1  0
 18 17  1  0
  2 19  1  0
  3 20  1  0
  6 21  1  0
  7 22  1  0
  7 23  1  0
  8 24  1  1
  9 25  1  0
  9 26  1  0
 10 27  1  0
 10 28  1  0
 11 29  1  0
 15 30  1  0
 15 31  1  0
 15 32  1  0
 16 33  1  0
 16 34  1  0
 16 35  1  0
 17 36  1  0
 17 37  1  0
 17 38  1  0
M  END
>  <score>  (2) 
-6.956

$$$$
=
     RDKit          3D

 38 39  0  0  0  0  0  0  0  0999 V2000
    1.8720   62.9580   70.2730 C   0  0  0  0  0  0  0  0  0  0  0  0
    0.6420   63.4500   70.7040 C   0  0  0  0  0  0  0  0  0  0  0  0
   -0.0850   62.7610   71.6800 C   0  0  0  0  0  0  0  0  0  0  0  0
    0.4090   61.5770   72.2450 C   0  0  0  0  0  0  0  0  0  0  0  0
    1.6380   61.0670   71.8000 C   0  0  0  0  0  0  0  0  0  0  0  0
    2.3630   61.7730   70.8250 C   0  0  0  0  0  0  0  0  0  0  0  0
    2.2310   59.8050   72.3800 C   0  0  0  0  0  0  0  0  0  0  0  0
    1.2250   58.9570   73.1790 C   0  0  2  0  0  0  0  0  0  0  0  0
    0.3900   59.8530   74.0950 C   0  0  0  0  0  0  0  0  0  0  0  0
   -0.4210   60.8490   73.2710 C   0  0  0  0  0  0  0  0  0  0  0  0
    1.8960   57.9290   73.9730 N   0  0  0  0  0  0  0  0  0  0  0  0
    1.4930   56.6180   73.9060 C   0  0  0  0  0  0  0  0  0  0  0  0
    0.5470   56.2580   73.2120 O   0  0  0  0  0  0  0  0  0  0  0  0
    2.2460   55.7430   74.6800 N   0  0  0  0  0  0  0  0  0  0  0  0
    1.8770   54.3380   74.6240 C   0  0  0  0  0  0  0  0  0  0  0  0
    2.9810   56.1490   75.8700 C   0  0  0  0  0  0  0  0  0  0  0  0
    3.7680   62.7450   68.8560 C   0  0  0  0  0  0  0  0  0  0  0  0
    2.6850   63.5320   69.3340 O   0  0  0  0  0  0  0  0  0  0  0  0
    0.2422   64.3813   70.2763 H   0  0  0  0  0  0  0  0  0  0  0  0
   -1.0584   63.1538   72.0090 H   0  0  0  0  0  0  0  0  0  0  0  0
    3.3362   61.3847   70.4901 H   0  0  0  0  0  0  0  0  0  0  0  0
    2.6210   59.1931   71.5533 H   0  0  0  0  0  0  0  0  0  0  0  0
    3.0190   60.1143   73.0825 H   0  0  0  0  0  0  0  0  0  0  0  0
    0.5670   58.4534   72.4555 H   0  0  0  0  0  0  0  0  0  0  0  0
   -0.2959   59.2282   74.6858 H   0  0  0  0  0  0  0  0  0  0  0  0
    1.0653   60.4087   74.7622 H   0  0  0  0  0  0  0  0  0  0  0  0
   -1.2223   60.3036   72.7509 H   0  0  0  0  0  0  0  0  0  0  0  0
   -0.8214   61.6023   73.9655 H   0  0  0  0  0  0  0  0  0  0  0  0
    2.6790   58.1908   74.5889 H   0  0  0  0  0  0  0  0  0  0  0  0
    1.7738   53.9450   75.6462 H   0  0  0  0  0  0  0  0  0  0  0  0
    0.9203   54.2311   74.0917 H   0  0  0  0  0  0  0  0  0  0  0  0
    2.6577   53.7748   74.0917 H   0  0  0  0  0  0  0  0  0  0  0  0
    2.4243   55.8415   76.7675 H   0  0  0  0  0  0  0  0  0  0  0  0
    3.9712   55.6699   75.8706 H   0  0  0  0  0  0  0  0  0  0  0  0
    3.1026   57.2423   75.8706 H   0  0  0  0  0  0  0  0  0  0  0  0
    4.3295   62.3370   69.7094 H   0  0  0  0  0  0  0  0  0  0  0  0
    3.3783   61.9179   68.2444 H   0  0  0  0  0  0  0  0  0  0  0  0
    4.4343   63.3711   68.2444 H   0  0  0  0  0  0  0  0  0  0  0  0
  2  1  2  0
  3  2  1  0
  4  3  2  0
  5  4  1  0
  6  5  2  0
  6  1  1  0
  7  5  1  0
  8  7  1  0
  9  8  1  0
 10  9  1  0
 10  4  1  0
 11  8  1  0
 12 11  1  0
 13 12  2  0
 14 12  1  0
 15 14  1  0
 16 14  1  0
 18  1  1  0
 18 17  1  0
  2 19  1  0
  3 20  1  0
  6 21  1  0
  7 22  1  0
  7 23  1  0
  8 24  1  6
  9 25  1  0
  9 26  1  0
 10 27  1  0
 10 28  1  0
 11 29  1  0
 15 30  1  0
 15 31  1  0
 15 32  1  0
 16 33  1  0
 16 34  1  0
 16 35  1  0
 17 36  1  0
 17 37  1  0
 17 38  1  0
M  END
>  <score>  (3) 
-6.729

$$$$
=
     RDKit          3D

 38 39  0  0  0  0  0  0  0  0999 V2000
   -2.4000   68.3620   66.3660 C   0  0  0  0  0  0  0  0  0  0  0  0
   -2.5550   67.2630   67.2080 C   0  0  0  0  0  0  0  0  0  0  0  0
   -1.5040   66.8640   68.0410 C   0  0  0  0  0  0  0  0  0  0  0  0
   -0.2880   67.5610   68.0500 C   0  0  0  0  0  0  0  0  0  0  0  0
   -0.1190   68.6560   67.1900 C   0  0  0  0  0  0  0  0  0  0  0  0
   -1.1850   69.0520   66.3650 C   0  0  0  0  0  0  0  0  0  0  0  0
    1.1600   69.4570   67.1650 C   0  0  0  0  0  0  0  0  0  0  0  0
    2.3470   68.7520   67.8470 C   0  0  2  0  0  0  0  0  0  0  0  0
    1.9020   68.1380   69.1750 C   0  0  0  0  0  0  0  0  0  0  0  0
    0.8290   67.0780   68.9400 C   0  0  0  0  0  0  0  0  0  0  0  0
    3.4610   69.6710   68.0780 N   0  0  0  0  0  0  0  0  0  0  0  0
    4.4480   69.8230   67.1350 C   0  0  0  0  0  0  0  0  0  0  0  0
    4.4580   69.1850   66.0870 O   0  0  0  0  0  0  0  0  0  0  0  0
    5.4210   70.7600   67.4660 N   0  0  0  0  0  0  0  0  0  0  0  0
    6.4750   70.9790   66.4910 C   0  0  0  0  0  0  0  0  0  0  0  0
    5.7510   71.1270   68.8370 C   0  0  0  0  0  0  0  0  0  0  0  0
   -2.9210   69.1340   64.1800 C   0  0  0  0  0  0  0  0  0  0  0  0
   -3.3430   68.8600   65.5100 O   0  0  0  0  0  0  0  0  0  0  0  0
   -3.5048   66.7082   67.2180 H   0  0  0  0  0  0  0  0  0  0  0  0
   -1.6338   65.9913   68.6979 H   0  0  0  0  0  0  0  0  0  0  0  0
   -1.0606   69.9230   65.7048 H   0  0  0  0  0  0  0  0  0  0  0  0
    1.4277   69.6507   66.1158 H   0  0  0  0  0  0  0  0  0  0  0  0
    0.9700   70.3826   67.7282 H   0  0  0  0  0  0  0  0  0  0  0  0
    2.6951   67.9578   67.1702 H   0  0  0  0  0  0  0  0  0  0  0  0
    2.7687   67.6730   69.6675 H   0  0  0  0  0  0  0  0  0  0  0  0
    1.4850   68.9317   69.8123 H   0  0  0  0  0  0  0  0  0  0  0  0
    1.2986   66.2015   68.4696 H   0  0  0  0  0  0  0  0  0  0  0  0
    0.3890   66.8314   69.9175 H   0  0  0  0  0  0  0  0  0  0  0  0
    3.5058   70.2088   68.9553 H   0  0  0  0  0  0  0  0  0  0  0  0
    7.4227   71.1759   67.0135 H   0  0  0  0  0  0  0  0  0  0  0  0
    6.5830   70.0841   65.8605 H   0  0  0  0  0  0  0  0  0  0  0  0
    6.2176   71.8428   65.8605 H   0  0  0  0  0  0  0  0  0  0  0  0
    5.1816   70.4938   69.5333 H   0  0  0  0  0  0  0  0  0  0  0  0
    6.8281   70.9816   69.0064 H   0  0  0  0  0  0  0  0  0  0  0  0
    5.4924   72.1827   69.0064 H   0  0  0  0  0  0  0  0  0  0  0  0
   -1.9986   69.7329   64.2040 H   0  0  0  0  0  0  0  0  0  0  0  0
   -2.7299   68.1872   63.6536 H   0  0  0  0  0  0  0  0  0  0  0  0
   -3.7081   69.6938   63.6536 H   0  0  0  0  0  0  0  0  0  0  0  0
  2  1  2  0
  3  2  1  0
  4  3  2  0
  5  4  1  0
  6  5  2  0
  6  1  1  0
  7  5  1  0
  8  7  1  0
  9  8  1  0
 10  9  1  0
 10  4  1  0
 11  8  1  0
 12 11  1  0
 13 12  2  0
 14 12  1  0
 15 14  1  0
 16 14  1  0
 18  1  1  0
 18 17  1  0
  2 19  1  0
  3 20  1  0
  6 21  1  0
  7 22  1  0
  7 23  1  0
  8 24  1  6
  9 25  1  0
  9 26  1  0
 10 27  1  0
 10 28  1  0
 11 29  1  0
 15 30  1  0
 15 31  1  0
 15 32  1  0
 16 33  1  0
 16 34  1  0
 16 35  1  0
 17 36  1  0
 17 37  1  0
 17 38  1  0
M  END
>  <score>  (4) 
-6.672

$$$$
=
     RDKit          3D

 38 39  0  0  0  0  0  0  0  0999 V2000
    3.3960   60.2920   70.1720 C   0  0  0  0  0  0  0  0  0  0  0  0
    3.3820   61.3420   69.2560 C   0  0  0  0  0  0  0  0  0  0  0  0
    2.5700   62.4590   69.4820 C   0  0  0  0  0  0  0  0  0  0  0  0
    1.7690   62.5460   70.6290 C   0  0  0  0  0  0  0  0  0  0  0  0
    1.7640   61.4830   71.5440 C   0  0  0  0  0  0  0  0  0  0  0  0
    2.5900   60.3710   71.3100 C   0  0  0  0  0  0  0  0  0  0  0  0
    0.9340   61.5240   72.8050 C   0  0  0  0  0  0  0  0  0  0  0  0
   -0.1560   62.6110   72.7950 C   0  0  2  0  0  0  0  0  0  0  0  0
    0.4130   63.9250   72.2590 C   0  0  0  0  0  0  0  0  0  0  0  0
    0.8850   63.7520   70.8180 C   0  0  0  0  0  0  0  0  0  0  0  0
   -0.7180   62.8240   74.1290 N   0  0  0  0  0  0  0  0  0  0  0  0
   -1.8260   62.1250   74.5410 C   0  0  0  0  0  0  0  0  0  0  0  0
   -2.4040   61.3240   73.8130 O   0  0  0  0  0  0  0  0  0  0  0  0
   -2.2250   62.3960   75.8450 N   0  0  0  0  0  0  0  0  0  0  0  0
   -3.3780   61.6630   76.3410 C   0  0  0  0  0  0  0  0  0  0  0  0
   -1.9400   63.6490   76.5300 C   0  0  0  0  0  0  0  0  0  0  0  0
    3.6080   57.9820   70.6850 C   0  0  0  0  0  0  0  0  0  0  0  0
    4.1430   59.1500   70.0770 O   0  0  0  0  0  0  0  0  0  0  0  0
    4.0100   61.2927   68.3542 H   0  0  0  0  0  0  0  0  0  0  0  0
    2.5602   63.2798   68.7497 H   0  0  0  0  0  0  0  0  0  0  0  0
    2.6023   59.5460   72.0375 H   0  0  0  0  0  0  0  0  0  0  0  0
    0.4473   60.5457   72.9321 H   0  0  0  0  0  0  0  0  0  0  0  0
    1.6185   61.7637   73.6320 H   0  0  0  0  0  0  0  0  0  0  0  0
   -0.9649   62.2637   72.1354 H   0  0  0  0  0  0  0  0  0  0  0  0
   -0.3677   64.6991   72.2942 H   0  0  0  0  0  0  0  0  0  0  0  0
    1.2694   64.2232   72.8816 H   0  0  0  0  0  0  0  0  0  0  0  0
    0.0023   63.6446   70.1704 H   0  0  0  0  0  0  0  0  0  0  0  0
    1.4796   64.6400   70.5575 H   0  0  0  0  0  0  0  0  0  0  0  0
   -0.2785   63.5046   74.7650 H   0  0  0  0  0  0  0  0  0  0  0  0
   -3.3702   61.6680   77.4410 H   0  0  0  0  0  0  0  0  0  0  0  0
   -4.3000   62.1411   75.9787 H   0  0  0  0  0  0  0  0  0  0  0  0
   -3.3363   60.6252   75.9787 H   0  0  0  0  0  0  0  0  0  0  0  0
   -1.9764   63.4888   77.6177 H   0  0  0  0  0  0  0  0  0  0  0  0
   -0.9384   64.0032   76.2449 H   0  0  0  0  0  0  0  0  0  0  0  0
   -2.6899   64.4016   76.2449 H   0  0  0  0  0  0  0  0  0  0  0  0
    3.6547   58.0840   71.7793 H   0  0  0  0  0  0  0  0  0  0  0  0
    2.5610   57.8530   70.3731 H   0  0  0  0  0  0  0  0  0  0  0  0
    4.1942   57.1050   70.3731 H   0  0  0  0  0  0  0  0  0  0  0  0
  2  1  2  0
  3  2  1  0
  4  3  2  0
  5  4  1  0
  6  5  2  0
  6  1  1  0
  7  5  1  0
  8  7  1  0
  9  8  1  0
 10  9  1  0
 10  4  1  0
 11  8  1  0
 12 11  1  0
 13 12  2  0
 14 12  1  0
 15 14  1  0
 16 14  1  0
 18  1  1  0
 18 17  1  0
  2 19  1  0
  3 20  1  0
  6 21  1  0
  7 22  1  0
  7 23  1  0
  8 24  1  6
  9 25  1  0
  9 26  1  0
 10 27  1  0
 10 28  1  0
 11 29  1  0
 15 30  1  0
 15 31  1  0
 15 32  1  0
 16 33  1  0
 16 34  1  0
 16 35  1  0
 17 36  1  0
 17 37  1  0
 17 38  1  0
M  END
>  <score>  (5) 
-6.609

$$$$
=
     RDKit          3D

 38 39  0  0  0  0  0  0  0  0999 V2000
    0.0270   66.5070   69.2820 C   0  0  0  0  0  0  0  0  0  0  0  0
   -1.2490   66.7060   68.7590 C   0  0  0  0  0  0  0  0  0  0  0  0
   -1.4090   67.3400   67.5230 C   0  0  0  0  0  0  0  0  0  0  0  0
   -0.2970   67.7760   66.7880 C   0  0  0  0  0  0  0  0  0  0  0  0
    0.9890   67.5950   67.3190 C   0  0  0  0  0  0  0  0  0  0  0  0
    1.1360   66.9500   68.5570 C   0  0  0  0  0  0  0  0  0  0  0  0
    2.2250   68.0280   66.5680 C   0  0  0  0  0  0  0  0  0  0  0  0
    1.9390   68.9990   65.4080 C   0  0  2  0  0  0  0  0  0  0  0  0
    0.7350   68.5130   64.6000 C   0  0  0  0  0  0  0  0  0  0  0  0
   -0.5160   68.4830   65.4750 C   0  0  0  0  0  0  0  0  0  0  0  0
    3.0980   69.1430   64.5270 N   0  0  0  0  0  0  0  0  0  0  0  0
    3.5420   68.0830   63.7760 C   0  0  0  0  0  0  0  0  0  0  0  0
    3.0170   66.9760   63.8290 O   0  0  0  0  0  0  0  0  0  0  0  0
    4.6240   68.3740   62.9530 N   0  0  0  0  0  0  0  0  0  0  0  0
    5.1180   67.2940   62.1160 C   0  0  0  0  0  0  0  0  0  0  0  0
    5.5790   69.4400   63.2250 C   0  0  0  0  0  0  0  0  0  0  0  0
    1.4620   65.0470   70.4890 C   0  0  0  0  0  0  0  0  0  0  0  0
    0.3250   65.8990   70.4710 O   0  0  0  0  0  0  0  0  0  0  0  0
   -2.1317   66.3639   69.3192 H   0  0  0  0  0  0  0  0  0  0  0  0
   -2.4208   67.4989   67.1217 H   0  0  0  0  0  0  0  0  0  0  0  0
    2.1451   66.7901   68.9647 H   0  0  0  0  0  0  0  0  0  0  0  0
    2.9050   68.5243   67.2761 H   0  0  0  0  0  0  0  0  0  0  0  0
    2.6653   67.1219   66.1262 H   0  0  0  0  0  0  0  0  0  0  0  0
    1.7180   69.9840   65.8450 H   0  0  0  0  0  0  0  0  0  0  0  0
    0.5683   69.1942   63.7526 H   0  0  0  0  0  0  0  0  0  0  0  0
    0.9384   67.4961   64.2331 H   0  0  0  0  0  0  0  0  0  0  0  0
   -0.8249   69.5184   65.6812 H   0  0  0  0  0  0  0  0  0  0  0  0
   -1.2896   67.9265   64.9256 H   0  0  0  0  0  0  0  0  0  0  0  0
    3.5856   70.0484   64.4696 H   0  0  0  0  0  0  0  0  0  0  0  0
    5.4912   66.4781   62.7525 H   0  0  0  0  0  0  0  0  0  0  0  0
    4.3017   66.9195   61.4809 H   0  0  0  0  0  0  0  0  0  0  0  0
    5.9352   67.6667   61.4809 H   0  0  0  0  0  0  0  0  0  0  0  0
    5.6902   69.5641   64.3123 H   0  0  0  0  0  0  0  0  0  0  0  0
    6.5529   69.1811   62.7840 H   0  0  0  0  0  0  0  0  0  0  0  0
    5.2150   70.3797   62.7840 H   0  0  0  0  0  0  0  0  0  0  0  0
    1.7449   64.8350   71.5307 H   0  0  0  0  0  0  0  0  0  0  0  0
    1.2221   64.1045   69.9751 H   0  0  0  0  0  0  0  0  0  0  0  0
    2.2992   65.5419   69.9751 H   0  0  0  0  0  0  0  0  0  0  0  0
  2  1  2  0
  3  2  1  0
  4  3  2  0
  5  4  1  0
  6  5  2  0
  6  1  1  0
  7  5  1  0
  8  7  1  0
  9  8  1  0
 10  9  1  0
 10  4  1  0
 11  8  1  0
 12 11  1  0
 13 12  2  0
 14 12  1  0
 15 14  1  0
 16 14  1  0
 18  1  1  0
 18 17  1  0
  2 19  1  0
  3 20  1  0
  6 21  1  0
  7 22  1  0
  7 23  1  0
  8 24  1  1
  9 25  1  0
  9 26  1  0
 10 27  1  0
 10 28  1  0
 11 29  1  0
 15 30  1  0
 15 31  1  0
 15 32  1  0
 16 33  1  0
 16 34  1  0
 16 35  1  0
 17 36  1  0
 17 37  1  0
 17 38  1  0
M  END
>  <score>  (6) 
-6.316

$$$$
=
     RDKit          3D

 38 39  0  0  0  0  0  0  0  0999 V2000
    2.8810   61.8040   71.0250 C   0  0  0  0  0  0  0  0  0  0  0  0
    1.7210   62.5270   71.2950 C   0  0  0  0  0  0  0  0  0  0  0  0
    0.7020   61.9560   72.0650 C   0  0  0  0  0  0  0  0  0  0  0  0
    0.8310   60.6600   72.5820 C   0  0  0  0  0  0  0  0  0  0  0  0
    1.9880   59.9200   72.2960 C   0  0  0  0  0  0  0  0  0  0  0  0
    3.0080   60.5080   71.5300 C   0  0  0  0  0  0  0  0  0  0  0  0
    2.1930   58.5250   72.8370 C   0  0  0  0  0  0  0  0  0  0  0  0
    0.9050   57.8720   73.3720 C   0  0  2  0  0  0  0  0  0  0  0  0
    0.1210   58.8710   74.2230 C   0  0  0  0  0  0  0  0  0  0  0  0
   -0.3040   60.0700   73.3800 C   0  0  0  0  0  0  0  0  0  0  0  0
    1.1950   56.6730   74.1590 N   0  0  0  0  0  0  0  0  0  0  0  0
    0.3570   55.5870   74.1120 C   0  0  0  0  0  0  0  0  0  0  0  0
   -0.6720   55.5800   73.4430 O   0  0  0  0  0  0  0  0  0  0  0  0
    0.7760   54.5030   74.8750 N   0  0  0  0  0  0  0  0  0  0  0  0
   -0.0620   53.3160   74.8410 C   0  0  0  0  0  0  0  0  0  0  0  0
    1.6360   54.6270   76.0450 C   0  0  0  0  0  0  0  0  0  0  0  0
    3.6760   62.7620   69.0010 C   0  0  0  0  0  0  0  0  0  0  0  0
    3.9510   62.2420   70.2940 O   0  0  0  0  0  0  0  0  0  0  0  0
    1.6062   63.5481   70.9022 H   0  0  0  0  0  0  0  0  0  0  0  0
   -0.2129   62.5322   72.2673 H   0  0  0  0  0  0  0  0  0  0  0  0
    3.9250   59.9365   71.3238 H   0  0  0  0  0  0  0  0  0  0  0  0
    2.5920   57.8944   72.0288 H   0  0  0  0  0  0  0  0  0  0  0  0
    2.8871   58.6088   73.6862 H   0  0  0  0  0  0  0  0  0  0  0  0
    0.2991   57.5722   72.5043 H   0  0  0  0  0  0  0  0  0  0  0  0
   -0.7745   58.3774   74.6284 H   0  0  0  0  0  0  0  0  0  0  0  0
    0.7637   59.2219   75.0439 H   0  0  0  0  0  0  0  0  0  0  0  0
   -1.0918   59.7473   72.6834 H   0  0  0  0  0  0  0  0  0  0  0  0
   -0.6606   60.8484   74.0706 H   0  0  0  0  0  0  0  0  0  0  0  0
    2.0355   56.6437   74.7536 H   0  0  0  0  0  0  0  0  0  0  0  0
   -0.2874   52.9967   75.8692 H   0  0  0  0  0  0  0  0  0  0  0  0
   -1.0001   53.5444   74.3140 H   0  0  0  0  0  0  0  0  0  0  0  0
    0.4673   52.5085   74.3140 H   0  0  0  0  0  0  0  0  0  0  0  0
    1.0283   54.5394   76.9577 H   0  0  0  0  0  0  0  0  0  0  0  0
    2.3926   53.8287   76.0302 H   0  0  0  0  0  0  0  0  0  0  0  0
    2.1362   55.6066   76.0302 H   0  0  0  0  0  0  0  0  0  0  0  0
    3.1637   63.7307   69.0967 H   0  0  0  0  0  0  0  0  0  0  0  0
    4.6196   62.8989   68.4525 H   0  0  0  0  0  0  0  0  0  0  0  0
    3.0317   62.0591   68.4525 H   0  0  0  0  0  0  0  0  0  0  0  0
  2  1  2  0
  3  2  1  0
  4  3  2  0
  5  4  1  0
  6  5  2  0
  6  1  1  0
  7  5  1  0
  8  7  1  0
  9  8  1  0
 10  9  1  0
 10  4  1  0
 11  8  1  0
 12 11  1  0
 13 12  2  0
 14 12  1  0
 15 14  1  0
 16 14  1  0
 18  1  1  0
 18 17  1  0
  2 19  1  0
  3 20  1  0
  6 21  1  0
  7 22  1  0
  7 23  1  0
  8 24  1  6
  9 25  1  0
  9 26  1  0
 10 27  1  0
 10 28  1  0
 11 29  1  0
 15 30  1  0
 15 31  1  0
 15 32  1  0
 16 33  1  0
 16 34  1  0
 16 35  1  0
 17 36  1  0
 17 37  1  0
 17 38  1  0
M  END
>  <score>  (7) 
-6.149

$$$$
=
     RDKit          3D

 38 39  0  0  0  0  0  0  0  0999 V2000
    0.8460   62.6010   72.3250 C   0  0  0  0  0  0  0  0  0  0  0  0
    1.9930   62.6020   71.5330 C   0  0  0  0  0  0  0  0  0  0  0  0
    2.7230   61.4220   71.3550 C   0  0  0  0  0  0  0  0  0  0  0  0
    2.3140   60.2240   71.9590 C   0  0  0  0  0  0  0  0  0  0  0  0
    1.1710   60.2220   72.7730 C   0  0  0  0  0  0  0  0  0  0  0  0
    0.4420   61.4120   72.9370 C   0  0  0  0  0  0  0  0  0  0  0  0
    0.6710   58.9620   73.4370 C   0  0  0  0  0  0  0  0  0  0  0  0
    1.7050   57.8210   73.4610 C   0  0  2  0  0  0  0  0  0  0  0  0
    2.3890   57.7000   72.0980 C   0  0  0  0  0  0  0  0  0  0  0  0
    3.1470   58.9830   71.7670 C   0  0  0  0  0  0  0  0  0  0  0  0
    1.0910   56.5430   73.8200 N   0  0  0  0  0  0  0  0  0  0  0  0
    1.6530   55.7430   74.7830 C   0  0  0  0  0  0  0  0  0  0  0  0
    2.6960   56.0420   75.3580 O   0  0  0  0  0  0  0  0  0  0  0  0
    0.9410   54.5800   75.0540 N   0  0  0  0  0  0  0  0  0  0  0  0
    1.4800   53.7090   76.0850 C   0  0  0  0  0  0  0  0  0  0  0  0
    0.0560   53.9370   74.0920 C   0  0  0  0  0  0  0  0  0  0  0  0
    0.1840   64.8010   71.7200 C   0  0  0  0  0  0  0  0  0  0  0  0
    0.0400   63.6770   72.5770 O   0  0  0  0  0  0  0  0  0  0  0  0
    2.3245   63.5317   71.0474 H   0  0  0  0  0  0  0  0  0  0  0  0
    3.6301   61.4338   70.7329 H   0  0  0  0  0  0  0  0  0  0  0  0
   -0.4648   61.4072   73.5596 H   0  0  0  0  0  0  0  0  0  0  0  0
    0.3954   59.2024   74.4744 H   0  0  0  0  0  0  0  0  0  0  0  0
   -0.1858   58.6062   72.8460 H   0  0  0  0  0  0  0  0  0  0  0  0
    2.4532   58.0672   74.2289 H   0  0  0  0  0  0  0  0  0  0  0  0
    3.0955   56.8572   72.1206 H   0  0  0  0  0  0  0  0  0  0  0  0
    1.6222   57.5299   71.3279 H   0  0  0  0  0  0  0  0  0  0  0  0
    4.0290   59.0480   72.4211 H   0  0  0  0  0  0  0  0  0  0  0  0
    3.4271   58.9354   70.7043 H   0  0  0  0  0  0  0  0  0  0  0  0
    0.2284   56.2405   73.3454 H   0  0  0  0  0  0  0  0  0  0  0  0
    1.2288   54.1149   77.0761 H   0  0  0  0  0  0  0  0  0  0  0  0
    1.0458   52.7038   75.9797 H   0  0  0  0  0  0  0  0  0  0  0  0
    2.5733   53.6491   75.9797 H   0  0  0  0  0  0  0  0  0  0  0  0
   -0.7208   53.3726   74.6287 H   0  0  0  0  0  0  0  0  0  0  0  0
   -0.4176   54.7030   73.4605 H   0  0  0  0  0  0  0  0  0  0  0  0
    0.6382   53.2498   73.4605 H   0  0  0  0  0  0  0  0  0  0  0  0
    0.3007   65.7116   72.3260 H   0  0  0  0  0  0  0  0  0  0  0  0
    1.0723   64.6667   71.0852 H   0  0  0  0  0  0  0  0  0  0  0  0
   -0.7094   64.8950   71.0852 H   0  0  0  0  0  0  0  0  0  0  0  0
  2  1  2  0
  3  2  1  0
  4  3  2  0
  5  4  1  0
  6  5  2  0
  6  1  1  0
  7  5  1  0
  8  7  1  0
  9  8  1  0
 10  9  1  0
 10  4  1  0
 11  8  1  0
 12 11  1  0
 13 12  2  0
 14 12  1  0
 15 14  1  0
 16 14  1  0
 18  1  1  0
 18 17  1  0
  2 19  1  0
  3 20  1  0
  6 21  1  0
  7 22  1  0
  7 23  1  0
  8 24  1  1
  9 25  1  0
  9 26  1  0
 10 27  1  0
 10 28  1  0
 11 29  1  0
 15 30  1  0
 15 31  1  0
 15 32  1  0
 16 33  1  0
 16 34  1  0
 16 35  1  0
 17 36  1  0
 17 37  1  0
 17 38  1  0
M  END
>  <score>  (8) 
-6.092

$$$$
=
     RDKit          3D

 38 39  0  0  0  0  0  0  0  0999 V2000
   -0.8360   55.3580   74.7550 C   0  0  0  0  0  0  0  0  0  0  0  0
   -1.8170   56.1680   75.3220 C   0  0  0  0  0  0  0  0  0  0  0  0
   -1.7900   57.5510   75.1150 C   0  0  0  0  0  0  0  0  0  0  0  0
   -0.7880   58.1430   74.3330 C   0  0  0  0  0  0  0  0  0  0  0  0
    0.2140   57.3340   73.7770 C   0  0  0  0  0  0  0  0  0  0  0  0
    0.1700   55.9450   73.9850 C   0  0  0  0  0  0  0  0  0  0  0  0
    1.3100   57.9090   72.9130 C   0  0  0  0  0  0  0  0  0  0  0  0
    1.4500   59.4390   73.0230 C   0  0  2  0  0  0  0  0  0  0  0  0
    0.0710   60.0980   72.9780 C   0  0  0  0  0  0  0  0  0  0  0  0
   -0.7770   59.6400   74.1620 C   0  0  0  0  0  0  0  0  0  0  0  0
    2.2910   59.9820   71.9580 N   0  0  0  0  0  0  0  0  0  0  0  0
    3.6150   60.2640   72.1870 C   0  0  0  0  0  0  0  0  0  0  0  0
    4.1390   60.1040   73.2850 O   0  0  0  0  0  0  0  0  0  0  0  0
    4.3050   60.7340   71.0760 N   0  0  0  0  0  0  0  0  0  0  0  0
    5.7180   61.0230   71.2580 C   0  0  0  0  0  0  0  0  0  0  0  0
    3.6650   61.4220   69.9630 C   0  0  0  0  0  0  0  0  0  0  0  0
    0.1830   53.3400   74.0230 C   0  0  0  0  0  0  0  0  0  0  0  0
   -0.7470   53.9980   74.8730 O   0  0  0  0  0  0  0  0  0  0  0  0
   -2.6139   55.7195   75.9333 H   0  0  0  0  0  0  0  0  0  0  0  0
   -2.5656   58.1830   75.5721 H   0  0  0  0  0  0  0  0  0  0  0  0
    0.9436   55.3074   73.5322 H   0  0  0  0  0  0  0  0  0  0  0  0
    2.2642   57.4510   73.2126 H   0  0  0  0  0  0  0  0  0  0  0  0
    1.0454   57.6857   71.8689 H   0  0  0  0  0  0  0  0  0  0  0  0
    1.9343   59.6604   73.9855 H   0  0  0  0  0  0  0  0  0  0  0  0
    0.1901   61.1908   73.0187 H   0  0  0  0  0  0  0  0  0  0  0  0
   -0.4330   59.8071   72.0446 H   0  0  0  0  0  0  0  0  0  0  0  0
   -0.3738   60.0948   75.0789 H   0  0  0  0  0  0  0  0  0  0  0  0
   -1.8123   59.9570   73.9679 H   0  0  0  0  0  0  0  0  0  0  0  0
    1.8864   60.1548   71.0267 H   0  0  0  0  0  0  0  0  0  0  0  0
    5.9472   61.0699   72.3328 H   0  0  0  0  0  0  0  0  0  0  0  0
    6.3180   60.2290   70.7894 H   0  0  0  0  0  0  0  0  0  0  0  0
    5.9580   61.9888   70.7894 H   0  0  0  0  0  0  0  0  0  0  0  0
    2.9642   62.1754   70.3519 H   0  0  0  0  0  0  0  0  0  0  0  0
    4.4314   61.9168   69.3483 H   0  0  0  0  0  0  0  0  0  0  0  0
    3.1162   60.6933   69.3483 H   0  0  0  0  0  0  0  0  0  0  0  0
    0.9292   52.8121   74.6350 H   0  0  0  0  0  0  0  0  0  0  0  0
   -0.3490   52.6162   73.3881 H   0  0  0  0  0  0  0  0  0  0  0  0
    0.6885   54.0825   73.3881 H   0  0  0  0  0  0  0  0  0  0  0  0
  2  1  2  0
  3  2  1  0
  4  3  2  0
  5  4  1  0
  6  5  2  0
  6  1  1  0
  7  5  1  0
  8  7  1  0
  9  8  1  0
 10  9  1  0
 10  4  1  0
 11  8  1  0
 12 11  1  0
 13 12  2  0
 14 12  1  0
 15 14  1  0
 16 14  1  0
 18  1  1  0
 18 17  1  0
  2 19  1  0
  3 20  1  0
  6 21  1  0
  7 22  1  0
  7 23  1  0
  8 24  1  1
  9 25  1  0
  9 26  1  0
 10 27  1  0
 10 28  1  0
 11 29  1  0
 15 30  1  0
 15 31  1  0
 15 32  1  0
 16 33  1  0
 16 34  1  0
 16 35  1  0
 17 36  1  0
 17 37  1  0
 17 38  1  0
M  END
>  <score>  (9) 
-6.087

$$$$
