=
     RDKit          3D

 22 23  0  0  0  0  0  0  0  0999 V2000
    2.7470   69.6070   67.4650 N   0  0  0  0  0  0  0  0  0  0  0  0
    3.3940   69.4260   66.2290 C   0  0  0  0  0  0  0  0  0  0  0  0
    2.8740   68.9580   65.0360 C   0  0  0  0  0  0  0  0  0  0  0  0
    3.7340   68.8680   63.9340 C   0  0  0  0  0  0  0  0  0  0  0  0
    5.0890   69.2410   64.0350 C   0  0  0  0  0  0  0  0  0  0  0  0
    5.6090   69.7080   65.2420 C   0  0  0  0  0  0  0  0  0  0  0  0
    4.7390   69.7860   66.3120 C   0  0  0  0  0  0  0  0  0  0  0  0
    4.9930   70.2210   67.6850 C   0  0  0  0  0  0  0  0  0  0  0  0
    6.0450   70.6030   68.1440 O   0  0  0  0  0  0  0  0  0  0  0  0
    3.6380   70.0780   68.4220 C   0  0  0  0  0  0  0  0  0  0  0  0
    3.4500   70.3260   69.5930 O   0  0  0  0  0  0  0  0  0  0  0  0
    1.3440   69.3550   67.7210 C   0  0  0  0  0  0  0  0  0  0  0  0
   -0.7170   67.3870   67.2770 Br  0  0  0  0  0  0  0  0  0  0  0  0
    1.0120   67.8960   68.0120 C   0  0  0  0  0  0  0  0  0  0  0  0
    1.8168   68.6652   64.9549 H   0  0  0  0  0  0  0  0  0  0  0  0
    3.3449   68.4998   62.9733 H   0  0  0  0  0  0  0  0  0  0  0  0
    5.7428   69.1632   63.1538 H   0  0  0  0  0  0  0  0  0  0  0  0
    6.6649   70.0011   65.3375 H   0  0  0  0  0  0  0  0  0  0  0  0
    1.0385   69.9576   68.5890 H   0  0  0  0  0  0  0  0  0  0  0  0
    0.8026   69.6242   66.8020 H   0  0  0  0  0  0  0  0  0  0  0  0
    0.9939   67.7455   69.1015 H   0  0  0  0  0  0  0  0  0  0  0  0
    1.7823   67.2693   67.5388 H   0  0  0  0  0  0  0  0  0  0  0  0
  2  1  1  0
  3  2  2  0
  4  3  1  0
  5  4  2  0
  6  5  1  0
  7  2  1  0
  7  6  2  0
  8  7  1  0
  9  8  2  0
 10  8  1  0
 10  1  1  0
 11 10  2  0
 12  1  1  0
 14 13  1  0
 14 12  1  0
  3 15  1  0
  4 16  1  0
  5 17  1  0
  6 18  1  0
 12 19  1  0
 12 20  1  0
 14 21  1  0
 14 22  1  0
M  END
>  <score>  (1) 
-7.765

$$$$
=
     RDKit          3D

 22 23  0  0  0  0  0  0  0  0999 V2000
    2.5910   69.3980   66.9540 N   0  0  0  0  0  0  0  0  0  0  0  0
    3.7920   69.8680   67.5150 C   0  0  0  0  0  0  0  0  0  0  0  0
    4.0340   70.3140   68.8020 C   0  0  0  0  0  0  0  0  0  0  0  0
    5.3320   70.7370   69.1180 C   0  0  0  0  0  0  0  0  0  0  0  0
    6.3610   70.7100   68.1570 C   0  0  0  0  0  0  0  0  0  0  0  0
    6.1100   70.2640   66.8590 C   0  0  0  0  0  0  0  0  0  0  0  0
    4.8220   69.8540   66.5750 C   0  0  0  0  0  0  0  0  0  0  0  0
    4.2640   69.3530   65.3200 C   0  0  0  0  0  0  0  0  0  0  0  0
    4.8480   69.2020   64.2730 O   0  0  0  0  0  0  0  0  0  0  0  0
    2.7700   69.0680   65.6160 C   0  0  0  0  0  0  0  0  0  0  0  0
    1.9630   68.6560   64.8110 O   0  0  0  0  0  0  0  0  0  0  0  0
    1.3350   69.2570   67.6610 C   0  0  0  0  0  0  0  0  0  0  0  0
   -0.7380   67.2710   67.3810 Br  0  0  0  0  0  0  0  0  0  0  0  0
    0.9990   67.8250   68.0620 C   0  0  0  0  0  0  0  0  0  0  0  0
    3.2319   70.3359   69.5544 H   0  0  0  0  0  0  0  0  0  0  0  0
    5.5509   71.0964   70.1343 H   0  0  0  0  0  0  0  0  0  0  0  0
    7.3724   71.0437   68.4323 H   0  0  0  0  0  0  0  0  0  0  0  0
    6.9022   70.2400   66.0962 H   0  0  0  0  0  0  0  0  0  0  0  0
    1.3830   69.8684   68.5742 H   0  0  0  0  0  0  0  0  0  0  0  0
    0.5451   69.5843   66.9689 H   0  0  0  0  0  0  0  0  0  0  0  0
    0.9894   67.7558   69.1598 H   0  0  0  0  0  0  0  0  0  0  0  0
    1.7626   67.1614   67.6301 H   0  0  0  0  0  0  0  0  0  0  0  0
  2  1  1  0
  3  2  2  0
  4  3  1  0
  5  4  2  0
  6  5  1  0
  7  2  1  0
  7  6  2  0
  8  7  1  0
  9  8  2  0
 10  8  1  0
 10  1  1  0
 11 10  2  0
 12  1  1  0
 14 13  1  0
 14 12  1  0
  3 15  1  0
  4 16  1  0
  5 17  1  0
  6 18  1  0
 12 19  1  0
 12 20  1  0
 14 21  1  0
 14 22  1  0
M  END
>  <score>  (2) 
-7.764

$$$$
=
     RDKit          3D

 22 23  0  0  0  0  0  0  0  0999 V2000
    1.3830   68.8230   66.0220 N   0  0  0  0  0  0  0  0  0  0  0  0
    2.7260   69.1990   66.2010 C   0  0  0  0  0  0  0  0  0  0  0  0
    3.3620   69.6270   67.3530 C   0  0  0  0  0  0  0  0  0  0  0  0
    4.7240   69.9460   67.2710 C   0  0  0  0  0  0  0  0  0  0  0  0
    5.4260   69.8380   66.0550 C   0  0  0  0  0  0  0  0  0  0  0  0
    4.7780   69.4100   64.8960 C   0  0  0  0  0  0  0  0  0  0  0  0
    3.4360   69.1010   65.0050 C   0  0  0  0  0  0  0  0  0  0  0  0
    2.5030   68.6430   63.9770 C   0  0  0  0  0  0  0  0  0  0  0  0
    2.7470   68.4460   62.8100 O   0  0  0  0  0  0  0  0  0  0  0  0
    1.1420   68.4770   64.6980 C   0  0  0  0  0  0  0  0  0  0  0  0
    0.1080   68.1290   64.1690 O   0  0  0  0  0  0  0  0  0  0  0  0
    0.3770   68.7820   67.0640 C   0  0  0  0  0  0  0  0  0  0  0  0
   -1.9370   67.1140   67.4850 Br  0  0  0  0  0  0  0  0  0  0  0  0
   -0.0090   67.3760   67.5080 C   0  0  0  0  0  0  0  0  0  0  0  0
    2.8154   69.7141   68.3036 H   0  0  0  0  0  0  0  0  0  0  0  0
    5.2543   70.2868   68.1725 H   0  0  0  0  0  0  0  0  0  0  0  0
    6.4953   70.0935   66.0186 H   0  0  0  0  0  0  0  0  0  0  0  0
    5.3118   69.3225   63.9382 H   0  0  0  0  0  0  0  0  0  0  0  0
    0.7644   69.3253   67.9385 H   0  0  0  0  0  0  0  0  0  0  0  0
   -0.5306   69.2400   66.6439 H   0  0  0  0  0  0  0  0  0  0  0  0
    0.3604   67.2118   68.5310 H   0  0  0  0  0  0  0  0  0  0  0  0
    0.4416   66.6599   66.8050 H   0  0  0  0  0  0  0  0  0  0  0  0
  2  1  1  0
  3  2  2  0
  4  3  1  0
  5  4  2  0
  6  5  1  0
  7  2  1  0
  7  6  2  0
  8  7  1  0
  9  8  2  0
 10  8  1  0
 10  1  1  0
 11 10  2  0
 12  1  1  0
 14 13  1  0
 14 12  1  0
  3 15  1  0
  4 16  1  0
  5 17  1  0
  6 18  1  0
 12 19  1  0
 12 20  1  0
 14 21  1  0
 14 22  1  0
M  END
>  <score>  (3) 
-7.697

$$$$
=
     RDKit          3D

 22 23  0  0  0  0  0  0  0  0999 V2000
    4.4200   69.5240   65.5350 N   0  0  0  0  0  0  0  0  0  0  0  0
    5.0280   69.9820   66.7170 C   0  0  0  0  0  0  0  0  0  0  0  0
    6.3390   70.3720   66.9250 C   0  0  0  0  0  0  0  0  0  0  0  0
    6.7030   70.7940   68.2110 C   0  0  0  0  0  0  0  0  0  0  0  0
    5.7660   70.8180   69.2620 C   0  0  0  0  0  0  0  0  0  0  0  0
    4.4470   70.4190   69.0480 C   0  0  0  0  0  0  0  0  0  0  0  0
    4.1150   70.0080   67.7710 C   0  0  0  0  0  0  0  0  0  0  0  0
    2.8340   69.5300   67.2530 C   0  0  0  0  0  0  0  0  0  0  0  0
    1.8020   69.4060   67.8700 O   0  0  0  0  0  0  0  0  0  0  0  0
    3.0850   69.2110   65.7580 C   0  0  0  0  0  0  0  0  0  0  0  0
    2.2580   68.7700   64.9890 O   0  0  0  0  0  0  0  0  0  0  0  0
    5.0750   69.4000   64.2480 C   0  0  0  0  0  0  0  0  0  0  0  0
    4.4480   67.3260   62.3460 Br  0  0  0  0  0  0  0  0  0  0  0  0
    5.4610   67.9730   63.8760 C   0  0  0  0  0  0  0  0  0  0  0  0
    7.0732   70.3515   66.1061 H   0  0  0  0  0  0  0  0  0  0  0  0
    7.7385   71.1119   68.4027 H   0  0  0  0  0  0  0  0  0  0  0  0
    6.0776   71.1548   70.2617 H   0  0  0  0  0  0  0  0  0  0  0  0
    3.7042   70.4309   69.8592 H   0  0  0  0  0  0  0  0  0  0  0  0
    4.3928   69.7849   63.4757 H   0  0  0  0  0  0  0  0  0  0  0  0
    6.0118   69.9728   64.3146 H   0  0  0  0  0  0  0  0  0  0  0  0
    5.2657   67.3156   64.7361 H   0  0  0  0  0  0  0  0  0  0  0  0
    6.5277   67.9663   63.6074 H   0  0  0  0  0  0  0  0  0  0  0  0
  2  1  1  0
  3  2  2  0
  4  3  1  0
  5  4  2  0
  6  5  1  0
  7  2  1  0
  7  6  2  0
  8  7  1  0
  9  8  2  0
 10  8  1  0
 10  1  1  0
 11 10  2  0
 12  1  1  0
 14 13  1  0
 14 12  1  0
  3 15  1  0
  4 16  1  0
  5 17  1  0
  6 18  1  0
 12 19  1  0
 12 20  1  0
 14 21  1  0
 14 22  1  0
M  END
>  <score>  (4) 
-7.626

$$$$
=
     RDKit          3D

 22 23  0  0  0  0  0  0  0  0999 V2000
    1.8600   68.2280   64.8960 N   0  0  0  0  0  0  0  0  0  0  0  0
    2.9760   68.8020   65.5300 C   0  0  0  0  0  0  0  0  0  0  0  0
    4.2670   68.9470   65.0530 C   0  0  0  0  0  0  0  0  0  0  0  0
    5.2110   69.5610   65.8870 C   0  0  0  0  0  0  0  0  0  0  0  0
    4.8600   70.0160   67.1720 C   0  0  0  0  0  0  0  0  0  0  0  0
    3.5590   69.8640   67.6500 C   0  0  0  0  0  0  0  0  0  0  0  0
    2.6480   69.2550   66.8070 C   0  0  0  0  0  0  0  0  0  0  0  0
    1.2350   68.9530   67.0310 C   0  0  0  0  0  0  0  0  0  0  0  0
    0.5900   69.1880   68.0250 O   0  0  0  0  0  0  0  0  0  0  0  0
    0.7500   68.2600   65.7330 C   0  0  0  0  0  0  0  0  0  0  0  0
   -0.3710   67.8400   65.5410 O   0  0  0  0  0  0  0  0  0  0  0  0
    1.8450   67.6840   63.5540 C   0  0  0  0  0  0  0  0  0  0  0  0
    3.3040   68.7690   61.3160 Br  0  0  0  0  0  0  0  0  0  0  0  0
    1.7260   68.7340   62.4540 C   0  0  0  0  0  0  0  0  0  0  0  0
    4.5437   68.5911   64.0496 H   0  0  0  0  0  0  0  0  0  0  0  0
    6.2440   69.6896   65.5314 H   0  0  0  0  0  0  0  0  0  0  0  0
    5.6200   70.4965   67.8057 H   0  0  0  0  0  0  0  0  0  0  0  0
    3.2705   70.2129   68.6525 H   0  0  0  0  0  0  0  0  0  0  0  0
    2.7797   67.1255   63.3979 H   0  0  0  0  0  0  0  0  0  0  0  0
    0.9506   67.0478   63.4812 H   0  0  0  0  0  0  0  0  0  0  0  0
    1.5995   69.7233   62.9181 H   0  0  0  0  0  0  0  0  0  0  0  0
    0.8584   68.4774   61.8283 H   0  0  0  0  0  0  0  0  0  0  0  0
  2  1  1  0
  3  2  2  0
  4  3  1  0
  5  4  2  0
  6  5  1  0
  7  2  1  0
  7  6  2  0
  8  7  1  0
  9  8  2  0
 10  8  1  0
 10  1  1  0
 11 10  2  0
 12  1  1  0
 14 13  1  0
 14 12  1  0
  3 15  1  0
  4 16  1  0
  5 17  1  0
  6 18  1  0
 12 19  1  0
 12 20  1  0
 14 21  1  0
 14 22  1  0
M  END
>  <score>  (5) 
-7.362

$$$$
=
     RDKit          3D

 22 23  0  0  0  0  0  0  0  0999 V2000
    2.9020   68.9520   64.9530 N   0  0  0  0  0  0  0  0  0  0  0  0
    3.7020   69.4450   65.9990 C   0  0  0  0  0  0  0  0  0  0  0  0
    3.3720   69.6370   67.3280 C   0  0  0  0  0  0  0  0  0  0  0  0
    4.3590   70.1470   68.1830 C   0  0  0  0  0  0  0  0  0  0  0  0
    5.6470   70.4580   67.7060 C   0  0  0  0  0  0  0  0  0  0  0  0
    5.9720   70.2670   66.3640 C   0  0  0  0  0  0  0  0  0  0  0  0
    4.9810   69.7620   65.5430 C   0  0  0  0  0  0  0  0  0  0  0  0
    5.0220   69.4700   64.1110 C   0  0  0  0  0  0  0  0  0  0  0  0
    5.9610   69.6210   63.3650 O   0  0  0  0  0  0  0  0  0  0  0  0
    3.6110   68.9370   63.7570 C   0  0  0  0  0  0  0  0  0  0  0  0
    3.2470   68.6040   62.6500 O   0  0  0  0  0  0  0  0  0  0  0  0
    1.5320   68.5030   65.0850 C   0  0  0  0  0  0  0  0  0  0  0  0
    2.5970   65.8310   64.8810 Br  0  0  0  0  0  0  0  0  0  0  0  0
    1.3830   67.1140   65.6970 C   0  0  0  0  0  0  0  0  0  0  0  0
    2.3661   69.3970   67.7028 H   0  0  0  0  0  0  0  0  0  0  0  0
    4.1232   70.3071   69.2454 H   0  0  0  0  0  0  0  0  0  0  0  0
    6.4035   70.8553   68.3987 H   0  0  0  0  0  0  0  0  0  0  0  0
    6.9726   70.5074   65.9755 H   0  0  0  0  0  0  0  0  0  0  0  0
    0.9944   69.2200   65.7229 H   0  0  0  0  0  0  0  0  0  0  0  0
    1.1202   68.4444   64.0667 H   0  0  0  0  0  0  0  0  0  0  0  0
    0.3489   66.7691   65.5498 H   0  0  0  0  0  0  0  0  0  0  0  0
    1.6279   67.1837   66.7671 H   0  0  0  0  0  0  0  0  0  0  0  0
  2  1  1  0
  3  2  2  0
  4  3  1  0
  5  4  2  0
  6  5  1  0
  7  2  1  0
  7  6  2  0
  8  7  1  0
  9  8  2  0
 10  8  1  0
 10  1  1  0
 11 10  2  0
 12  1  1  0
 14 13  1  0
 14 12  1  0
  3 15  1  0
  4 16  1  0
  5 17  1  0
  6 18  1  0
 12 19  1  0
 12 20  1  0
 14 21  1  0
 14 22  1  0
M  END
>  <score>  (6) 
-7.295

$$$$
=
     RDKit          3D

 22 23  0  0  0  0  0  0  0  0999 V2000
    1.9960   68.5240   65.8350 N   0  0  0  0  0  0  0  0  0  0  0  0
    3.1150   68.7950   65.0280 C   0  0  0  0  0  0  0  0  0  0  0  0
    3.3190   68.4890   63.6950 C   0  0  0  0  0  0  0  0  0  0  0  0
    4.5350   68.8700   63.1120 C   0  0  0  0  0  0  0  0  0  0  0  0
    5.5220   69.5420   63.8580 C   0  0  0  0  0  0  0  0  0  0  0  0
    5.3130   69.8440   65.2040 C   0  0  0  0  0  0  0  0  0  0  0  0
    4.1060   69.4560   65.7540 C   0  0  0  0  0  0  0  0  0  0  0  0
    3.6120   69.6230   67.1200 C   0  0  0  0  0  0  0  0  0  0  0  0
    4.1910   70.1470   68.0430 O   0  0  0  0  0  0  0  0  0  0  0  0
    2.2030   68.9800   67.1320 C   0  0  0  0  0  0  0  0  0  0  0  0
    1.4780   68.9030   68.1000 O   0  0  0  0  0  0  0  0  0  0  0  0
    0.7800   67.8740   65.3920 C   0  0  0  0  0  0  0  0  0  0  0  0
   -0.2190   69.0420   62.9510 Br  0  0  0  0  0  0  0  0  0  0  0  0
   -0.2930   68.8310   64.8850 C   0  0  0  0  0  0  0  0  0  0  0  0
    2.5503   67.9626   63.1102 H   0  0  0  0  0  0  0  0  0  0  0  0
    4.7217   68.6400   62.0527 H   0  0  0  0  0  0  0  0  0  0  0  0
    6.4669   69.8317   63.3750 H   0  0  0  0  0  0  0  0  0  0  0  0
    6.0747   70.3674   65.8006 H   0  0  0  0  0  0  0  0  0  0  0  0
    1.0367   67.1811   64.5771 H   0  0  0  0  0  0  0  0  0  0  0  0
    0.3577   67.3631   66.2698 H   0  0  0  0  0  0  0  0  0  0  0  0
   -0.1449   69.8138   65.3562 H   0  0  0  0  0  0  0  0  0  0  0  0
   -1.2759   68.4114   65.1456 H   0  0  0  0  0  0  0  0  0  0  0  0
  2  1  1  0
  3  2  2  0
  4  3  1  0
  5  4  2  0
  6  5  1  0
  7  2  1  0
  7  6  2  0
  8  7  1  0
  9  8  2  0
 10  8  1  0
 10  1  1  0
 11 10  2  0
 12  1  1  0
 14 13  1  0
 14 12  1  0
  3 15  1  0
  4 16  1  0
  5 17  1  0
  6 18  1  0
 12 19  1  0
 12 20  1  0
 14 21  1  0
 14 22  1  0
M  END
>  <score>  (7) 
-6.977

$$$$
=
     RDKit          3D

 22 23  0  0  0  0  0  0  0  0999 V2000
    4.7640   69.1510   65.8870 N   0  0  0  0  0  0  0  0  0  0  0  0
    3.4070   69.0530   66.2430 C   0  0  0  0  0  0  0  0  0  0  0  0
    2.3720   68.4390   65.5620 C   0  0  0  0  0  0  0  0  0  0  0  0
    1.0940   68.4790   66.1330 C   0  0  0  0  0  0  0  0  0  0  0  0
    0.8650   69.1260   67.3640 C   0  0  0  0  0  0  0  0  0  0  0  0
    1.9120   69.7470   68.0440 C   0  0  0  0  0  0  0  0  0  0  0  0
    3.1620   69.6920   67.4580 C   0  0  0  0  0  0  0  0  0  0  0  0
    4.4300   70.2520   67.9230 C   0  0  0  0  0  0  0  0  0  0  0  0
    4.6180   70.8830   68.9370 O   0  0  0  0  0  0  0  0  0  0  0  0
    5.4710   69.8740   66.8400 C   0  0  0  0  0  0  0  0  0  0  0  0
    6.6440   70.1800   66.8600 O   0  0  0  0  0  0  0  0  0  0  0  0
    5.3630   68.5750   64.7010 C   0  0  0  0  0  0  0  0  0  0  0  0
    4.0570   68.6780   62.1320 Br  0  0  0  0  0  0  0  0  0  0  0  0
    5.2560   69.4490   63.4560 C   0  0  0  0  0  0  0  0  0  0  0  0
    2.5473   67.9342   64.6005 H   0  0  0  0  0  0  0  0  0  0  0  0
    0.2540   67.9969   65.6115 H   0  0  0  0  0  0  0  0  0  0  0  0
   -0.1482   69.1412   67.7919 H   0  0  0  0  0  0  0  0  0  0  0  0
    1.7499   70.2581   69.0045 H   0  0  0  0  0  0  0  0  0  0  0  0
    6.4289   68.3960   64.9057 H   0  0  0  0  0  0  0  0  0  0  0  0
    4.8078   67.6502   64.4852 H   0  0  0  0  0  0  0  0  0  0  0  0
    6.2558   69.5576   63.0104 H   0  0  0  0  0  0  0  0  0  0  0  0
    4.8492   70.4254   63.7579 H   0  0  0  0  0  0  0  0  0  0  0  0
  2  1  1  0
  3  2  2  0
  4  3  1  0
  5  4  2  0
  6  5  1  0
  7  2  1  0
  7  6  2  0
  8  7  1  0
  9  8  2  0
 10  8  1  0
 10  1  1  0
 11 10  2  0
 12  1  1  0
 14 13  1  0
 14 12  1  0
  3 15  1  0
  4 16  1  0
  5 17  1  0
  6 18  1  0
 12 19  1  0
 12 20  1  0
 14 21  1  0
 14 22  1  0
M  END
>  <score>  (8) 
-6.924

$$$$
=
     RDKit          3D

 22 23  0  0  0  0  0  0  0  0999 V2000
    2.7040   69.4210   66.7710 N   0  0  0  0  0  0  0  0  0  0  0  0
    4.0900   69.6560   66.7230 C   0  0  0  0  0  0  0  0  0  0  0  0
    4.9830   69.3750   65.7050 C   0  0  0  0  0  0  0  0  0  0  0  0
    6.3300   69.7090   65.9020 C   0  0  0  0  0  0  0  0  0  0  0  0
    6.7640   70.3110   67.0990 C   0  0  0  0  0  0  0  0  0  0  0  0
    5.8590   70.5870   68.1240 C   0  0  0  0  0  0  0  0  0  0  0  0
    4.5380   70.2470   67.9030 C   0  0  0  0  0  0  0  0  0  0  0  0
    3.3810   70.4030   68.7830 C   0  0  0  0  0  0  0  0  0  0  0  0
    3.3730   70.8720   69.8980 O   0  0  0  0  0  0  0  0  0  0  0  0
    2.1790   69.8310   67.9910 C   0  0  0  0  0  0  0  0  0  0  0  0
    1.0390   69.7660   68.3990 O   0  0  0  0  0  0  0  0  0  0  0  0
    1.9130   68.8450   65.7030 C   0  0  0  0  0  0  0  0  0  0  0  0
   -0.3790   67.3310   66.5800 Br  0  0  0  0  0  0  0  0  0  0  0  0
    1.4640   67.4110   65.9590 C   0  0  0  0  0  0  0  0  0  0  0  0
    4.6466   68.9039   64.7696 H   0  0  0  0  0  0  0  0  0  0  0  0
    7.0610   69.4972   65.1077 H   0  0  0  0  0  0  0  0  0  0  0  0
    7.8264   70.5659   67.2268 H   0  0  0  0  0  0  0  0  0  0  0  0
    6.1824   71.0543   69.0658 H   0  0  0  0  0  0  0  0  0  0  0  0
    1.0166   69.4672   65.5640 H   0  0  0  0  0  0  0  0  0  0  0  0
    2.5575   68.8192   64.8120 H   0  0  0  0  0  0  0  0  0  0  0  0
    2.1170   66.9644   66.7233 H   0  0  0  0  0  0  0  0  0  0  0  0
    1.5297   66.8575   65.0107 H   0  0  0  0  0  0  0  0  0  0  0  0
  2  1  1  0
  3  2  2  0
  4  3  1  0
  5  4  2  0
  6  5  1  0
  7  2  1  0
  7  6  2  0
  8  7  1  0
  9  8  2  0
 10  8  1  0
 10  1  1  0
 11 10  2  0
 12  1  1  0
 14 13  1  0
 14 12  1  0
  3 15  1  0
  4 16  1  0
  5 17  1  0
  6 18  1  0
 12 19  1  0
 12 20  1  0
 14 21  1  0
 14 22  1  0
M  END
>  <score>  (9) 
-6.87

$$$$
