=
     RDKit          3D

 51 53  0  0  0  0  0  0  0  0999 V2000
    2.8050   61.7530   73.4050 C   0  0  0  0  0  0  0  0  0  0  0  0
    1.7230   62.6380   73.3910 C   0  0  0  0  0  0  0  0  0  0  0  0
    1.5380   63.4030   72.2540 C   0  0  0  0  0  0  0  0  0  0  0  0
    2.3680   63.3350   71.1480 C   0  0  0  0  0  0  0  0  0  0  0  0
    3.4490   62.4660   71.1490 C   0  0  0  0  0  0  0  0  0  0  0  0
    3.6710   61.6650   72.2800 C   0  0  0  0  0  0  0  0  0  0  0  0
    1.9750   64.3020   70.0770 C   0  0  0  0  0  0  0  0  0  0  0  0
    0.6080   64.8620   70.5450 C   0  0  1  0  0  0  0  0  0  0  0  0
    0.4960   64.3860   71.9860 C   0  0  0  0  0  0  0  0  0  0  0  0
   -0.3310   64.7280   72.8150 O   0  0  0  0  0  0  0  0  0  0  0  0
    2.0780   60.6210   75.3850 C   0  0  0  0  0  0  0  0  0  0  0  0
    3.1130   60.9290   74.4600 O   0  0  0  0  0  0  0  0  0  0  0  0
    4.7060   60.7690   72.3970 O   0  0  0  0  0  0  0  0  0  0  0  0
    5.7650   60.8470   71.4530 C   0  0  0  0  0  0  0  0  0  0  0  0
    0.5360   66.3870   70.4180 C   0  0  0  0  0  0  0  0  0  0  0  0
    0.2320   66.8410   69.0070 C   0  0  0  0  0  0  0  0  0  0  0  0
   -1.0410   66.6490   68.4580 C   0  0  0  0  0  0  0  0  0  0  0  0
   -1.3340   67.1040   67.1720 C   0  0  0  0  0  0  0  0  0  0  0  0
   -0.3610   67.7660   66.4230 C   0  0  0  0  0  0  0  0  0  0  0  0
    0.9170   67.9760   66.9550 C   0  0  0  0  0  0  0  0  0  0  0  0
    1.2050   67.4960   68.2420 C   0  0  0  0  0  0  0  0  0  0  0  0
    1.9740   68.6960   66.1650 C   0  0  0  0  0  0  0  0  0  0  0  0
    2.2990   68.0170   64.8530 N   0  0  0  0  0  4  0  0  0  0  0  0
    2.6820   66.5730   65.0220 C   0  0  0  0  0  0  0  0  0  0  0  0
    3.3370   68.7770   64.0820 C   0  0  0  0  0  0  0  0  0  0  0  0
    1.0441   62.7227   74.2523 H   0  0  0  0  0  0  0  0  0  0  0  0
    4.1200   62.4057   70.2794 H   0  0  0  0  0  0  0  0  0  0  0  0
    2.7171   65.1093   69.9902 H   0  0  0  0  0  0  0  0  0  0  0  0
    1.9167   63.8285   69.0858 H   0  0  0  0  0  0  0  0  0  0  0  0
   -0.2301   64.5084   69.9265 H   0  0  0  0  0  0  0  0  0  0  0  0
    2.4578   60.7340   76.4112 H   0  0  0  0  0  0  0  0  0  0  0  0
    1.2316   61.3062   75.2297 H   0  0  0  0  0  0  0  0  0  0  0  0
    1.7439   59.5845   75.2297 H   0  0  0  0  0  0  0  0  0  0  0  0
    6.7255   60.9177   71.9845 H   0  0  0  0  0  0  0  0  0  0  0  0
    5.7607   59.9461   70.8218 H   0  0  0  0  0  0  0  0  0  0  0  0
    5.6287   61.7375   70.8218 H   0  0  0  0  0  0  0  0  0  0  0  0
   -0.2552   66.7589   71.0856 H   0  0  0  0  0  0  0  0  0  0  0  0
    1.5220   66.7905   70.6920 H   0  0  0  0  0  0  0  0  0  0  0  0
   -1.8166   66.1353   69.0450 H   0  0  0  0  0  0  0  0  0  0  0  0
   -2.3354   66.9402   66.7474 H   0  0  0  0  0  0  0  0  0  0  0  0
   -0.5987   68.1244   65.4106 H   0  0  0  0  0  0  0  0  0  0  0  0
    2.2137   67.6369   68.6575 H   0  0  0  0  0  0  0  0  0  0  0  0
    1.6193   69.7155   65.9533 H   0  0  0  0  0  0  0  0  0  0  0  0
    2.8925   68.6972   66.7703 H   0  0  0  0  0  0  0  0  0  0  0  0
    1.4300   68.0227   64.3001 H   0  0  0  0  0  0  0  0  0  0  0  0
    2.7455   66.3335   66.0937 H   0  0  0  0  0  0  0  0  0  0  0  0
    1.9222   65.9342   64.5480 H   0  0  0  0  0  0  0  0  0  0  0  0
    3.6585   66.3948   64.5480 H   0  0  0  0  0  0  0  0  0  0  0  0
    4.0209   69.2777   64.7831 H   0  0  0  0  0  0  0  0  0  0  0  0
    3.9063   68.0807   63.4487 H   0  0  0  0  0  0  0  0  0  0  0  0
    2.8451   69.5300   63.4487 H   0  0  0  0  0  0  0  0  0  0  0  0
  2  1  2  0
  3  2  1  0
  4  3  2  0
  5  4  1  0
  6  5  2  0
  6  1  1  0
  7  4  1  0
  8  7  1  0
  9  8  1  0
  9  3  1  0
 10  9  2  0
 12 11  1  0
 12  1  1  0
 13  6  1  0
 14 13  1  0
 15  8  1  0
 16 15  1  0
 17 16  2  0
 18 17  1  0
 19 18  2  0
 20 19  1  0
 21 20  2  0
 21 16  1  0
 22 20  1  0
 23 22  1  0
 24 23  1  0
 25 23  1  0
  2 26  1  0
  5 27  1  0
  7 28  1  0
  7 29  1  0
  8 30  1  6
 11 31  1  0
 11 32  1  0
 11 33  1  0
 14 34  1  0
 14 35  1  0
 14 36  1  0
 15 37  1  0
 15 38  1  0
 17 39  1  0
 18 40  1  0
 19 41  1  0
 21 42  1  0
 22 43  1  0
 22 44  1  0
 23 45  1  0
 24 46  1  0
 24 47  1  0
 24 48  1  0
 25 49  1  0
 25 50  1  0
 25 51  1  0
M  CHG  1  23   1
M  END
>  <score>  (1) 
-8.87

$$$$
=
     RDKit          3D

 51 53  0  0  0  0  0  0  0  0999 V2000
    0.5030   68.9080   62.4850 C   0  0  0  0  0  0  0  0  0  0  0  0
    1.8670   68.9880   62.1910 C   0  0  0  0  0  0  0  0  0  0  0  0
    2.7570   68.8620   63.2410 C   0  0  0  0  0  0  0  0  0  0  0  0
    2.3610   68.6660   64.5540 C   0  0  0  0  0  0  0  0  0  0  0  0
    1.0120   68.5900   64.8640 C   0  0  0  0  0  0  0  0  0  0  0  0
    0.0720   68.7070   63.8270 C   0  0  0  0  0  0  0  0  0  0  0  0
    3.5190   68.6120   65.4980 C   0  0  0  0  0  0  0  0  0  0  0  0
    4.7660   68.5650   64.5800 C   0  0  1  0  0  0  0  0  0  0  0  0
    4.2130   68.9030   63.2020 C   0  0  0  0  0  0  0  0  0  0  0  0
    4.8490   69.1530   62.1920 O   0  0  0  0  0  0  0  0  0  0  0  0
   -0.3730   70.0270   60.5610 C   0  0  0  0  0  0  0  0  0  0  0  0
   -0.4950   69.0130   61.5480 O   0  0  0  0  0  0  0  0  0  0  0  0
   -1.2870   68.6470   64.0100 O   0  0  0  0  0  0  0  0  0  0  0  0
   -1.7880   68.7900   65.3320 C   0  0  0  0  0  0  0  0  0  0  0  0
    5.8550   69.5420   65.0360 C   0  0  0  0  0  0  0  0  0  0  0  0
    5.6970   69.9580   66.4810 C   0  0  0  0  0  0  0  0  0  0  0  0
    6.7860   70.4650   67.1980 C   0  0  0  0  0  0  0  0  0  0  0  0
    6.6310   70.8870   68.5190 C   0  0  0  0  0  0  0  0  0  0  0  0
    5.3820   70.8180   69.1360 C   0  0  0  0  0  0  0  0  0  0  0  0
    4.2760   70.3200   68.4360 C   0  0  0  0  0  0  0  0  0  0  0  0
    4.4490   69.8810   67.1140 C   0  0  0  0  0  0  0  0  0  0  0  0
    2.9210   70.2470   69.0820 C   0  0  0  0  0  0  0  0  0  0  0  0
    1.9250   69.4350   68.2820 N   0  0  0  0  0  4  0  0  0  0  0  0
    0.6470   70.1780   68.0150 C   0  0  0  0  0  0  0  0  0  0  0  0
    1.6680   68.1010   68.9160 C   0  0  0  0  0  0  0  0  0  0  0  0
    2.2196   69.1456   61.1610 H   0  0  0  0  0  0  0  0  0  0  0  0
    0.6837   68.4408   65.9032 H   0  0  0  0  0  0  0  0  0  0  0  0
    3.5409   69.5063   66.1381 H   0  0  0  0  0  0  0  0  0  0  0  0
    3.4659   67.7474   66.1760 H   0  0  0  0  0  0  0  0  0  0  0  0
    5.2689   67.5868   64.5962 H   0  0  0  0  0  0  0  0  0  0  0  0
   -0.2554   71.0043   61.0520 H   0  0  0  0  0  0  0  0  0  0  0  0
    0.5072   69.8237   59.9333 H   0  0  0  0  0  0  0  0  0  0  0  0
   -1.2763   70.0383   59.9333 H   0  0  0  0  0  0  0  0  0  0  0  0
   -0.9895   68.5621   66.0534 H   0  0  0  0  0  0  0  0  0  0  0  0
   -2.1347   69.8230   65.4830 H   0  0  0  0  0  0  0  0  0  0  0  0
   -2.6277   68.0957   65.4830 H   0  0  0  0  0  0  0  0  0  0  0  0
    6.8354   69.0583   64.9141 H   0  0  0  0  0  0  0  0  0  0  0  0
    5.7690   70.4478   64.4179 H   0  0  0  0  0  0  0  0  0  0  0  0
    7.7727   70.5315   66.7164 H   0  0  0  0  0  0  0  0  0  0  0  0
    7.4967   71.2754   69.0756 H   0  0  0  0  0  0  0  0  0  0  0  0
    5.2653   71.1560   70.1763 H   0  0  0  0  0  0  0  0  0  0  0  0
    3.5895   69.4691   66.5649 H   0  0  0  0  0  0  0  0  0  0  0  0
    3.0309   69.7866   70.0750 H   0  0  0  0  0  0  0  0  0  0  0  0
    2.5318   71.2739   69.1450 H   0  0  0  0  0  0  0  0  0  0  0  0
    2.3578   69.2672   67.3625 H   0  0  0  0  0  0  0  0  0  0  0  0
    0.1757   70.4520   68.9704 H   0  0  0  0  0  0  0  0  0  0  0  0
    0.8662   71.0895   67.4395 H   0  0  0  0  0  0  0  0  0  0  0  0
   -0.0367   69.5366   67.4395 H   0  0  0  0  0  0  0  0  0  0  0  0
    1.6881   68.2054   70.0108 H   0  0  0  0  0  0  0  0  0  0  0  0
    0.6817   67.7293   68.6012 H   0  0  0  0  0  0  0  0  0  0  0  0
    2.4456   67.3895   68.6012 H   0  0  0  0  0  0  0  0  0  0  0  0
  2  1  2  0
  3  2  1  0
  4  3  2  0
  5  4  1  0
  6  5  2  0
  6  1  1  0
  7  4  1  0
  8  7  1  0
  9  8  1  0
  9  3  1  0
 10  9  2  0
 12 11  1  0
 12  1  1  0
 13  6  1  0
 14 13  1  0
 15  8  1  0
 16 15  1  0
 17 16  2  0
 18 17  1  0
 19 18  2  0
 20 19  1  0
 21 20  2  0
 21 16  1  0
 22 20  1  0
 23 22  1  0
 24 23  1  0
 25 23  1  0
  2 26  1  0
  5 27  1  0
  7 28  1  0
  7 29  1  0
  8 30  1  6
 11 31  1  0
 11 32  1  0
 11 33  1  0
 14 34  1  0
 14 35  1  0
 14 36  1  0
 15 37  1  0
 15 38  1  0
 17 39  1  0
 18 40  1  0
 19 41  1  0
 21 42  1  0
 22 43  1  0
 22 44  1  0
 23 45  1  0
 24 46  1  0
 24 47  1  0
 24 48  1  0
 25 49  1  0
 25 50  1  0
 25 51  1  0
M  CHG  1  23   1
M  END
>  <score>  (2) 
-8.759

$$$$
=
     RDKit          3D

 51 53  0  0  0  0  0  0  0  0999 V2000
    2.6100   62.1750   73.2030 C   0  0  0  0  0  0  0  0  0  0  0  0
    2.7140   62.7290   71.9240 C   0  0  0  0  0  0  0  0  0  0  0  0
    1.8170   63.7240   71.5820 C   0  0  0  0  0  0  0  0  0  0  0  0
    0.8320   64.1860   72.4390 C   0  0  0  0  0  0  0  0  0  0  0  0
    0.7110   63.6430   73.7090 C   0  0  0  0  0  0  0  0  0  0  0  0
    1.6060   62.6340   74.1010 C   0  0  0  0  0  0  0  0  0  0  0  0
   -0.0340   65.2280   71.8060 C   0  0  0  0  0  0  0  0  0  0  0  0
    0.6770   65.5610   70.4700 C   0  0  1  0  0  0  0  0  0  0  0  0
    1.7170   64.4590   70.3280 C   0  0  0  0  0  0  0  0  0  0  0  0
    2.3980   64.2070   69.3480 O   0  0  0  0  0  0  0  0  0  0  0  0
    4.3900   60.6290   72.7940 C   0  0  0  0  0  0  0  0  0  0  0  0
    3.4300   61.1840   73.6830 O   0  0  0  0  0  0  0  0  0  0  0  0
    1.5860   62.0230   75.3300 O   0  0  0  0  0  0  0  0  0  0  0  0
    0.4890   61.1710   75.6320 C   0  0  0  0  0  0  0  0  0  0  0  0
   -0.3020   65.6060   69.2920 C   0  0  0  0  0  0  0  0  0  0  0  0
   -0.1620   66.8640   68.4650 C   0  0  0  0  0  0  0  0  0  0  0  0
   -1.2360   67.3360   67.7010 C   0  0  0  0  0  0  0  0  0  0  0  0
   -1.1200   68.5190   66.9710 C   0  0  0  0  0  0  0  0  0  0  0  0
    0.0660   69.2520   67.0040 C   0  0  0  0  0  0  0  0  0  0  0  0
    1.1520   68.8030   67.7670 C   0  0  0  0  0  0  0  0  0  0  0  0
    1.0290   67.6010   68.4820 C   0  0  0  0  0  0  0  0  0  0  0  0
    2.4340   69.5850   67.8210 C   0  0  0  0  0  0  0  0  0  0  0  0
    3.4660   69.1000   66.8250 N   0  0  0  0  0  4  0  0  0  0  0  0
    4.7630   69.8530   66.9150 C   0  0  0  0  0  0  0  0  0  0  0  0
    2.9230   69.1010   65.4270 C   0  0  0  0  0  0  0  0  0  0  0  0
    3.4818   62.3857   71.2151 H   0  0  0  0  0  0  0  0  0  0  0  0
   -0.0715   63.9959   74.3969 H   0  0  0  0  0  0  0  0  0  0  0  0
   -1.0446   64.8346   71.6215 H   0  0  0  0  0  0  0  0  0  0  0  0
   -0.1598   66.1138   72.4460 H   0  0  0  0  0  0  0  0  0  0  0  0
    1.1330   66.5620   70.4699 H   0  0  0  0  0  0  0  0  0  0  0  0
    5.1993   60.1611   73.3738 H   0  0  0  0  0  0  0  0  0  0  0  0
    3.9073   59.8706   72.1601 H   0  0  0  0  0  0  0  0  0  0  0  0
    4.8064   61.4257   72.1601 H   0  0  0  0  0  0  0  0  0  0  0  0
    0.3800   61.0864   76.7233 H   0  0  0  0  0  0  0  0  0  0  0  0
   -0.4319   61.5930   75.2032 H   0  0  0  0  0  0  0  0  0  0  0  0
    0.6699   60.1743   75.2032 H   0  0  0  0  0  0  0  0  0  0  0  0
   -0.1141   64.7366   68.6448 H   0  0  0  0  0  0  0  0  0  0  0  0
   -1.3210   65.5921   69.7060 H   0  0  0  0  0  0  0  0  0  0  0  0
   -2.1786   66.7696   67.6762 H   0  0  0  0  0  0  0  0  0  0  0  0
   -1.9674   68.8752   66.3669 H   0  0  0  0  0  0  0  0  0  0  0  0
    0.1492   70.1860   66.4289 H   0  0  0  0  0  0  0  0  0  0  0  0
    1.8842   67.2310   69.0666 H   0  0  0  0  0  0  0  0  0  0  0  0
    2.2098   70.6405   67.6074 H   0  0  0  0  0  0  0  0  0  0  0  0
    2.8590   69.4504   68.8266 H   0  0  0  0  0  0  0  0  0  0  0  0
    3.6799   68.1251   67.0792 H   0  0  0  0  0  0  0  0  0  0  0  0
    5.0258   70.0056   67.9722 H   0  0  0  0  0  0  0  0  0  0  0  0
    5.5573   69.2756   66.4193 H   0  0  0  0  0  0  0  0  0  0  0  0
    4.6554   70.8291   66.4193 H   0  0  0  0  0  0  0  0  0  0  0  0
    1.8235   69.1030   65.4607 H   0  0  0  0  0  0  0  0  0  0  0  0
    3.2753   69.9985   64.8975 H   0  0  0  0  0  0  0  0  0  0  0  0
    3.2720   68.2022   64.8975 H   0  0  0  0  0  0  0  0  0  0  0  0
  2  1  2  0
  3  2  1  0
  4  3  2  0
  5  4  1  0
  6  5  2  0
  6  1  1  0
  7  4  1  0
  8  7  1  0
  9  8  1  0
  9  3  1  0
 10  9  2  0
 12 11  1  0
 12  1  1  0
 13  6  1  0
 14 13  1  0
 15  8  1  0
 16 15  1  0
 17 16  2  0
 18 17  1  0
 19 18  2  0
 20 19  1  0
 21 20  2  0
 21 16  1  0
 22 20  1  0
 23 22  1  0
 24 23  1  0
 25 23  1  0
  2 26  1  0
  5 27  1  0
  7 28  1  0
  7 29  1  0
  8 30  1  1
 11 31  1  0
 11 32  1  0
 11 33  1  0
 14 34  1  0
 14 35  1  0
 14 36  1  0
 15 37  1  0
 15 38  1  0
 17 39  1  0
 18 40  1  0
 19 41  1  0
 21 42  1  0
 22 43  1  0
 22 44  1  0
 23 45  1  0
 24 46  1  0
 24 47  1  0
 24 48  1  0
 25 49  1  0
 25 50  1  0
 25 51  1  0
M  CHG  1  23   1
M  END
>  <score>  (3) 
-7.83

$$$$
=
     RDKit          3D

 51 53  0  0  0  0  0  0  0  0999 V2000
    1.7100   62.1490   72.3720 C   0  0  0  0  0  0  0  0  0  0  0  0
    2.1400   62.8820   71.2620 C   0  0  0  0  0  0  0  0  0  0  0  0
    1.5230   64.0950   71.0170 C   0  0  0  0  0  0  0  0  0  0  0  0
    0.5070   64.6050   71.8100 C   0  0  0  0  0  0  0  0  0  0  0  0
    0.0640   63.8870   72.9110 C   0  0  0  0  0  0  0  0  0  0  0  0
    0.6680   62.6530   73.2010 C   0  0  0  0  0  0  0  0  0  0  0  0
   -0.0190   65.9060   71.2970 C   0  0  0  0  0  0  0  0  0  0  0  0
    0.9650   66.3040   70.1690 C   0  0  1  0  0  0  0  0  0  0  0  0
    1.7860   65.0430   69.9420 C   0  0  0  0  0  0  0  0  0  0  0  0
    2.5690   64.8230   69.0330 O   0  0  0  0  0  0  0  0  0  0  0  0
    3.5540   60.9050   73.2530 C   0  0  0  0  0  0  0  0  0  0  0  0
    2.2290   60.9330   72.7410 O   0  0  0  0  0  0  0  0  0  0  0  0
    0.3170   61.8540   74.2610 O   0  0  0  0  0  0  0  0  0  0  0  0
    0.3270   62.4300   75.5600 C   0  0  0  0  0  0  0  0  0  0  0  0
    0.2360   66.7700   68.9040 C   0  0  0  0  0  0  0  0  0  0  0  0
    1.1090   67.6180   68.0070 C   0  0  0  0  0  0  0  0  0  0  0  0
    1.7750   68.7380   68.5160 C   0  0  0  0  0  0  0  0  0  0  0  0
    2.6120   69.4970   67.6980 C   0  0  0  0  0  0  0  0  0  0  0  0
    2.8030   69.1390   66.3630 C   0  0  0  0  0  0  0  0  0  0  0  0
    2.1530   68.0180   65.8340 C   0  0  0  0  0  0  0  0  0  0  0  0
    1.2980   67.2740   66.6620 C   0  0  0  0  0  0  0  0  0  0  0  0
    2.3550   67.6120   64.4010 C   0  0  0  0  0  0  0  0  0  0  0  0
    3.5680   66.7300   64.2000 N   0  0  0  0  0  4  0  0  0  0  0  0
    4.2040   66.9100   62.8510 C   0  0  0  0  0  0  0  0  0  0  0  0
    3.2520   65.2900   64.4740 C   0  0  0  0  0  0  0  0  0  0  0  0
    2.9404   62.5073   70.6070 H   0  0  0  0  0  0  0  0  0  0  0  0
   -0.7456   64.2771   73.5453 H   0  0  0  0  0  0  0  0  0  0  0  0
   -1.0374   65.7841   70.8996 H   0  0  0  0  0  0  0  0  0  0  0  0
   -0.0839   66.6709   72.0848 H   0  0  0  0  0  0  0  0  0  0  0  0
    1.5942   67.1646   70.4402 H   0  0  0  0  0  0  0  0  0  0  0  0
    3.5223   60.9057   74.3525 H   0  0  0  0  0  0  0  0  0  0  0  0
    4.0638   59.9959   72.9014 H   0  0  0  0  0  0  0  0  0  0  0  0
    4.1018   61.7918   72.9014 H   0  0  0  0  0  0  0  0  0  0  0  0
    0.3131   61.6307   76.3156 H   0  0  0  0  0  0  0  0  0  0  0  0
    1.2358   63.0370   75.6850 H   0  0  0  0  0  0  0  0  0  0  0  0
   -0.5602   63.0682   75.6850 H   0  0  0  0  0  0  0  0  0  0  0  0
   -0.0923   65.8842   68.3404 H   0  0  0  0  0  0  0  0  0  0  0  0
   -0.6162   67.3893   69.2205 H   0  0  0  0  0  0  0  0  0  0  0  0
    1.6375   69.0224   69.5697 H   0  0  0  0  0  0  0  0  0  0  0  0
    3.1233   70.3810   68.1069 H   0  0  0  0  0  0  0  0  0  0  0  0
    3.4668   69.7399   65.7240 H   0  0  0  0  0  0  0  0  0  0  0  0
    0.7665   66.4048   66.2473 H   0  0  0  0  0  0  0  0  0  0  0  0
    1.4633   67.0634   64.0634 H   0  0  0  0  0  0  0  0  0  0  0  0
    2.5174   68.5312   63.8191 H   0  0  0  0  0  0  0  0  0  0  0  0
    4.2673   67.0359   64.8916 H   0  0  0  0  0  0  0  0  0  0  0  0
    5.2553   67.2075   62.9781 H   0  0  0  0  0  0  0  0  0  0  0  0
    4.1558   65.9629   62.2936 H   0  0  0  0  0  0  0  0  0  0  0  0
    3.6666   67.6913   62.2936 H   0  0  0  0  0  0  0  0  0  0  0  0
    3.2154   65.1230   65.5606 H   0  0  0  0  0  0  0  0  0  0  0  0
    2.2771   65.0378   64.0312 H   0  0  0  0  0  0  0  0  0  0  0  0
    4.0317   64.6528   64.0312 H   0  0  0  0  0  0  0  0  0  0  0  0
  2  1  2  0
  3  2  1  0
  4  3  2  0
  5  4  1  0
  6  5  2  0
  6  1  1  0
  7  4  1  0
  8  7  1  0
  9  8  1  0
  9  3  1  0
 10  9  2  0
 12 11  1  0
 12  1  1  0
 13  6  1  0
 14 13  1  0
 15  8  1  0
 16 15  1  0
 17 16  2  0
 18 17  1  0
 19 18  2  0
 20 19  1  0
 21 20  2  0
 21 16  1  0
 22 20  1  0
 23 22  1  0
 24 23  1  0
 25 23  1  0
  2 26  1  0
  5 27  1  0
  7 28  1  0
  7 29  1  0
  8 30  1  1
 11 31  1  0
 11 32  1  0
 11 33  1  0
 14 34  1  0
 14 35  1  0
 14 36  1  0
 15 37  1  0
 15 38  1  0
 17 39  1  0
 18 40  1  0
 19 41  1  0
 21 42  1  0
 22 43  1  0
 22 44  1  0
 23 45  1  0
 24 46  1  0
 24 47  1  0
 24 48  1  0
 25 49  1  0
 25 50  1  0
 25 51  1  0
M  CHG  1  23   1
M  END
>  <score>  (4) 
-7.688

$$$$
=
     RDKit          3D

 51 53  0  0  0  0  0  0  0  0999 V2000
    2.0240   57.1600   73.3780 C   0  0  0  0  0  0  0  0  0  0  0  0
    2.3230   57.6840   72.1170 C   0  0  0  0  0  0  0  0  0  0  0  0
    3.2130   58.7410   72.0590 C   0  0  0  0  0  0  0  0  0  0  0  0
    3.8070   59.2980   73.1790 C   0  0  0  0  0  0  0  0  0  0  0  0
    3.5160   58.7930   74.4380 C   0  0  0  0  0  0  0  0  0  0  0  0
    2.6230   57.7150   74.5440 C   0  0  0  0  0  0  0  0  0  0  0  0
    4.6870   60.4580   72.8430 C   0  0  0  0  0  0  0  0  0  0  0  0
    4.7740   60.4420   71.2960 C   0  0  1  0  0  0  0  0  0  0  0  0
    3.6910   59.4560   70.8830 C   0  0  0  0  0  0  0  0  0  0  0  0
    3.2710   59.2480   69.7560 O   0  0  0  0  0  0  0  0  0  0  0  0
   -0.2320   56.3720   73.5110 C   0  0  0  0  0  0  0  0  0  0  0  0
    1.1630   56.1120   73.5920 O   0  0  0  0  0  0  0  0  0  0  0  0
    2.2580   57.1310   75.7320 O   0  0  0  0  0  0  0  0  0  0  0  0
    1.4890   57.9020   76.6440 C   0  0  0  0  0  0  0  0  0  0  0  0
    4.5680   61.8350   70.6920 C   0  0  0  0  0  0  0  0  0  0  0  0
    3.2240   62.4310   71.0470 C   0  0  0  0  0  0  0  0  0  0  0  0
    2.2700   62.6750   70.0530 C   0  0  0  0  0  0  0  0  0  0  0  0
    1.0150   63.1860   70.3850 C   0  0  0  0  0  0  0  0  0  0  0  0
    0.6940   63.4500   71.7160 C   0  0  0  0  0  0  0  0  0  0  0  0
    1.6310   63.2070   72.7290 C   0  0  0  0  0  0  0  0  0  0  0  0
    2.8970   62.7110   72.3800 C   0  0  0  0  0  0  0  0  0  0  0  0
    1.2990   63.4770   74.1700 C   0  0  0  0  0  0  0  0  0  0  0  0
   -0.1800   63.6980   74.4060 N   0  0  0  0  0  4  0  0  0  0  0  0
   -0.4610   64.8980   75.2660 C   0  0  0  0  0  0  0  0  0  0  0  0
   -0.8410   62.4650   74.9450 C   0  0  0  0  0  0  0  0  0  0  0  0
    1.8674   57.2711   71.2049 H   0  0  0  0  0  0  0  0  0  0  0  0
    3.9765   59.2293   75.3367 H   0  0  0  0  0  0  0  0  0  0  0  0
    4.2422   61.3994   73.1979 H   0  0  0  0  0  0  0  0  0  0  0  0
    5.6761   60.3850   73.3188 H   0  0  0  0  0  0  0  0  0  0  0  0
    5.7672   60.1431   70.9297 H   0  0  0  0  0  0  0  0  0  0  0  0
   -0.6500   56.4499   74.5255 H   0  0  0  0  0  0  0  0  0  0  0  0
   -0.3983   57.3166   72.9724 H   0  0  0  0  0  0  0  0  0  0  0  0
   -0.7274   55.5507   72.9724 H   0  0  0  0  0  0  0  0  0  0  0  0
    1.7607   57.6296   77.6745 H   0  0  0  0  0  0  0  0  0  0  0  0
    1.6913   58.9710   76.4819 H   0  0  0  0  0  0  0  0  0  0  0  0
    0.4195   57.7025   76.4819 H   0  0  0  0  0  0  0  0  0  0  0  0
    5.3588   62.5016   71.0665 H   0  0  0  0  0  0  0  0  0  0  0  0
    4.6078   61.7323   69.5975 H   0  0  0  0  0  0  0  0  0  0  0  0
    2.5115   62.4622   69.0011 H   0  0  0  0  0  0  0  0  0  0  0  0
    0.2761   63.3813   69.5939 H   0  0  0  0  0  0  0  0  0  0  0  0
   -0.2982   63.8504   71.9716 H   0  0  0  0  0  0  0  0  0  0  0  0
    3.6457   62.5391   73.1674 H   0  0  0  0  0  0  0  0  0  0  0  0
    1.6250   62.6159   74.7719 H   0  0  0  0  0  0  0  0  0  0  0  0
    1.8197   64.4017   74.4595 H   0  0  0  0  0  0  0  0  0  0  0  0
   -0.5944   63.8997   73.4849 H   0  0  0  0  0  0  0  0  0  0  0  0
   -0.3942   64.6129   76.3263 H   0  0  0  0  0  0  0  0  0  0  0  0
    0.2773   65.6845   75.0506 H   0  0  0  0  0  0  0  0  0  0  0  0
   -1.4717   65.2749   75.0506 H   0  0  0  0  0  0  0  0  0  0  0  0
   -0.8265   62.4921   76.0446 H   0  0  0  0  0  0  0  0  0  0  0  0
   -1.8823   62.4235   74.5929 H   0  0  0  0  0  0  0  0  0  0  0  0
   -0.2992   61.5748   74.5929 H   0  0  0  0  0  0  0  0  0  0  0  0
  2  1  2  0
  3  2  1  0
  4  3  2  0
  5  4  1  0
  6  5  2  0
  6  1  1  0
  7  4  1  0
  8  7  1  0
  9  8  1  0
  9  3  1  0
 10  9  2  0
 12 11  1  0
 12  1  1  0
 13  6  1  0
 14 13  1  0
 15  8  1  0
 16 15  1  0
 17 16  2  0
 18 17  1  0
 19 18  2  0
 20 19  1  0
 21 20  2  0
 21 16  1  0
 22 20  1  0
 23 22  1  0
 24 23  1  0
 25 23  1  0
  2 26  1  0
  5 27  1  0
  7 28  1  0
  7 29  1  0
  8 30  1  1
 11 31  1  0
 11 32  1  0
 11 33  1  0
 14 34  1  0
 14 35  1  0
 14 36  1  0
 15 37  1  0
 15 38  1  0
 17 39  1  0
 18 40  1  0
 19 41  1  0
 21 42  1  0
 22 43  1  0
 22 44  1  0
 23 45  1  0
 24 46  1  0
 24 47  1  0
 24 48  1  0
 25 49  1  0
 25 50  1  0
 25 51  1  0
M  CHG  1  23   1
M  END
>  <score>  (5) 
-7.59

$$$$
=
     RDKit          3D

 51 53  0  0  0  0  0  0  0  0999 V2000
    4.3290   69.4960   65.6630 C   0  0  0  0  0  0  0  0  0  0  0  0
    3.1270   68.9010   65.2690 C   0  0  0  0  0  0  0  0  0  0  0  0
    2.1720   68.6800   66.2440 C   0  0  0  0  0  0  0  0  0  0  0  0
    2.3550   69.0110   67.5760 C   0  0  0  0  0  0  0  0  0  0  0  0
    3.5440   69.5960   67.9850 C   0  0  0  0  0  0  0  0  0  0  0  0
    4.5390   69.8460   67.0270 C   0  0  0  0  0  0  0  0  0  0  0  0
    1.1900   68.6200   68.4270 C   0  0  0  0  0  0  0  0  0  0  0  0
    0.0990   68.1880   67.4160 C   0  0  1  0  0  0  0  0  0  0  0  0
    0.8490   68.0870   66.0950 C   0  0  0  0  0  0  0  0  0  0  0  0
    0.4420   67.6130   65.0480 O   0  0  0  0  0  0  0  0  0  0  0  0
    5.2330   69.3820   63.4510 C   0  0  0  0  0  0  0  0  0  0  0  0
    5.3660   69.7790   64.8090 O   0  0  0  0  0  0  0  0  0  0  0  0
    5.7540   70.4190   67.3100 O   0  0  0  0  0  0  0  0  0  0  0  0
    5.8260   71.3200   68.4070 C   0  0  0  0  0  0  0  0  0  0  0  0
   -0.5710   66.8700   67.8180 C   0  0  0  0  0  0  0  0  0  0  0  0
   -0.0150   66.3030   69.1050 C   0  0  0  0  0  0  0  0  0  0  0  0
   -0.6930   66.4890   70.3150 C   0  0  0  0  0  0  0  0  0  0  0  0
   -0.2020   65.9310   71.4960 C   0  0  0  0  0  0  0  0  0  0  0  0
    0.9670   65.1710   71.4800 C   0  0  0  0  0  0  0  0  0  0  0  0
    1.6590   64.9650   70.2800 C   0  0  0  0  0  0  0  0  0  0  0  0
    1.1650   65.5480   69.1020 C   0  0  0  0  0  0  0  0  0  0  0  0
    2.9150   64.1410   70.2430 C   0  0  0  0  0  0  0  0  0  0  0  0
    2.7620   62.8630   69.4470 N   0  0  0  0  0  4  0  0  0  0  0  0
    2.7720   61.6330   70.3100 C   0  0  0  0  0  0  0  0  0  0  0  0
    3.7780   62.7750   68.3470 C   0  0  0  0  0  0  0  0  0  0  0  0
    2.9474   68.6188   64.2211 H   0  0  0  0  0  0  0  0  0  0  0  0
    3.7044   69.8593   69.0409 H   0  0  0  0  0  0  0  0  0  0  0  0
    1.4568   67.7850   69.0916 H   0  0  0  0  0  0  0  0  0  0  0  0
    0.8547   69.4397   69.0794 H   0  0  0  0  0  0  0  0  0  0  0  0
   -0.7372   68.9008   67.3638 H   0  0  0  0  0  0  0  0  0  0  0  0
    4.8839   68.3398   63.4062 H   0  0  0  0  0  0  0  0  0  0  0  0
    4.5045   70.0347   62.9478 H   0  0  0  0  0  0  0  0  0  0  0  0
    6.2077   69.4641   62.9478 H   0  0  0  0  0  0  0  0  0  0  0  0
    5.7808   70.7546   69.3495 H   0  0  0  0  0  0  0  0  0  0  0  0
    6.7717   71.8798   68.3602 H   0  0  0  0  0  0  0  0  0  0  0  0
    4.9812   72.0229   68.3602 H   0  0  0  0  0  0  0  0  0  0  0  0
   -1.6486   67.0481   67.9482 H   0  0  0  0  0  0  0  0  0  0  0  0
   -0.3737   66.1393   67.0198 H   0  0  0  0  0  0  0  0  0  0  0  0
   -1.6206   67.0799   70.3353 H   0  0  0  0  0  0  0  0  0  0  0  0
   -0.7389   66.0912   72.4426 H   0  0  0  0  0  0  0  0  0  0  0  0
    1.3473   64.7314   72.4139 H   0  0  0  0  0  0  0  0  0  0  0  0
    1.7147   65.4093   68.1594 H   0  0  0  0  0  0  0  0  0  0  0  0
    3.7156   64.7430   69.7885 H   0  0  0  0  0  0  0  0  0  0  0  0
    3.1519   63.8565   71.2788 H   0  0  0  0  0  0  0  0  0  0  0  0
    1.8296   62.9019   69.0111 H   0  0  0  0  0  0  0  0  0  0  0  0
    2.7696   61.9285   71.3696 H   0  0  0  0  0  0  0  0  0  0  0  0
    1.8787   61.0277   70.0961 H   0  0  0  0  0  0  0  0  0  0  0  0
    3.6750   61.0423   70.0961 H   0  0  0  0  0  0  0  0  0  0  0  0
    4.7840   62.6879   68.7832 H   0  0  0  0  0  0  0  0  0  0  0  0
    3.5700   61.8915   67.7256 H   0  0  0  0  0  0  0  0  0  0  0  0
    3.7250   63.6811   67.7256 H   0  0  0  0  0  0  0  0  0  0  0  0
  2  1  2  0
  3  2  1  0
  4  3  2  0
  5  4  1  0
  6  5  2  0
  6  1  1  0
  7  4  1  0
  8  7  1  0
  9  8  1  0
  9  3  1  0
 10  9  2  0
 12 11  1  0
 12  1  1  0
 13  6  1  0
 14 13  1  0
 15  8  1  0
 16 15  1  0
 17 16  2  0
 18 17  1  0
 19 18  2  0
 20 19  1  0
 21 20  2  0
 21 16  1  0
 22 20  1  0
 23 22  1  0
 24 23  1  0
 25 23  1  0
  2 26  1  0
  5 27  1  0
  7 28  1  0
  7 29  1  0
  8 30  1  6
 11 31  1  0
 11 32  1  0
 11 33  1  0
 14 34  1  0
 14 35  1  0
 14 36  1  0
 15 37  1  0
 15 38  1  0
 17 39  1  0
 18 40  1  0
 19 41  1  0
 21 42  1  0
 22 43  1  0
 22 44  1  0
 23 45  1  0
 24 46  1  0
 24 47  1  0
 24 48  1  0
 25 49  1  0
 25 50  1  0
 25 51  1  0
M  CHG  1  23   1
M  END
>  <score>  (6) 
-7.587

$$$$
=
     RDKit          3D

 51 53  0  0  0  0  0  0  0  0999 V2000
   -1.9820   57.3980   75.1860 C   0  0  0  0  0  0  0  0  0  0  0  0
   -2.4160   58.6980   74.9100 C   0  0  0  0  0  0  0  0  0  0  0  0
   -1.5600   59.5220   74.2020 C   0  0  0  0  0  0  0  0  0  0  0  0
   -0.3080   59.1220   73.7660 C   0  0  0  0  0  0  0  0  0  0  0  0
    0.1400   57.8380   74.0380 C   0  0  0  0  0  0  0  0  0  0  0  0
   -0.6990   56.9650   74.7480 C   0  0  0  0  0  0  0  0  0  0  0  0
    0.4320   60.2190   73.0700 C   0  0  0  0  0  0  0  0  0  0  0  0
   -0.6170   61.3460   72.9000 C   0  0  1  0  0  0  0  0  0  0  0  0
   -1.7730   60.9020   73.7860 C   0  0  0  0  0  0  0  0  0  0  0  0
   -2.7520   61.5550   74.1060 O   0  0  0  0  0  0  0  0  0  0  0  0
   -3.6310   56.9420   76.8600 C   0  0  0  0  0  0  0  0  0  0  0  0
   -2.7210   56.4690   75.8760 O   0  0  0  0  0  0  0  0  0  0  0  0
   -0.3670   55.6730   75.0750 O   0  0  0  0  0  0  0  0  0  0  0  0
   -0.1280   54.7590   74.0140 C   0  0  0  0  0  0  0  0  0  0  0  0
   -0.0600   62.7170   73.2980 C   0  0  0  0  0  0  0  0  0  0  0  0
    0.7660   63.3510   72.2010 C   0  0  0  0  0  0  0  0  0  0  0  0
    0.2770   64.4510   71.4880 C   0  0  0  0  0  0  0  0  0  0  0  0
    1.0560   65.0610   70.5050 C   0  0  0  0  0  0  0  0  0  0  0  0
    2.3380   64.5860   70.2290 C   0  0  0  0  0  0  0  0  0  0  0  0
    2.8510   63.4900   70.9340 C   0  0  0  0  0  0  0  0  0  0  0  0
    2.0500   62.8730   71.9080 C   0  0  0  0  0  0  0  0  0  0  0  0
    4.2340   62.9710   70.6570 C   0  0  0  0  0  0  0  0  0  0  0  0
    4.3300   61.4630   70.7470 N   0  0  0  0  0  4  0  0  0  0  0  0
    5.6110   60.9960   71.3790 C   0  0  0  0  0  0  0  0  0  0  0  0
    4.1040   60.8170   69.4120 C   0  0  0  0  0  0  0  0  0  0  0  0
   -3.4023   59.0526   75.2438 H   0  0  0  0  0  0  0  0  0  0  0  0
    1.1351   57.5096   73.7033 H   0  0  0  0  0  0  0  0  0  0  0  0
    1.2792   60.5650   73.6804 H   0  0  0  0  0  0  0  0  0  0  0  0
    0.8563   59.8935   72.1087 H   0  0  0  0  0  0  0  0  0  0  0  0
   -0.9267   61.4830   71.8534 H   0  0  0  0  0  0  0  0  0  0  0  0
   -3.2287   56.7329   77.8622 H   0  0  0  0  0  0  0  0  0  0  0  0
   -3.7701   58.0265   76.7397 H   0  0  0  0  0  0  0  0  0  0  0  0
   -4.5985   56.4327   76.7397 H   0  0  0  0  0  0  0  0  0  0  0  0
    0.1296   53.7738   74.4298 H   0  0  0  0  0  0  0  0  0  0  0  0
   -1.0332   54.6706   73.3953 H   0  0  0  0  0  0  0  0  0  0  0  0
    0.7046   55.1250   73.3953 H   0  0  0  0  0  0  0  0  0  0  0  0
   -0.9021   63.3839   73.5349 H   0  0  0  0  0  0  0  0  0  0  0  0
    0.5981   62.5693   74.1670 H   0  0  0  0  0  0  0  0  0  0  0  0
   -0.7298   64.8378   71.7044 H   0  0  0  0  0  0  0  0  0  0  0  0
    0.6578   65.9201   69.9452 H   0  0  0  0  0  0  0  0  0  0  0  0
    2.9483   65.0740   69.4548 H   0  0  0  0  0  0  0  0  0  0  0  0
    2.4375   61.9984   72.4510 H   0  0  0  0  0  0  0  0  0  0  0  0
    4.5280   63.2809   69.6433 H   0  0  0  0  0  0  0  0  0  0  0  0
    4.9017   63.3891   71.4247 H   0  0  0  0  0  0  0  0  0  0  0  0
    3.5718   61.1603   71.3751 H   0  0  0  0  0  0  0  0  0  0  0  0
    5.5138   61.0314   72.4741 H   0  0  0  0  0  0  0  0  0  0  0  0
    5.8208   59.9635   71.0627 H   0  0  0  0  0  0  0  0  0  0  0  0
    6.4360   61.6512   71.0627 H   0  0  0  0  0  0  0  0  0  0  0  0
    3.7440   59.7880   69.5588 H   0  0  0  0  0  0  0  0  0  0  0  0
    3.3534   61.3913   68.8491 H   0  0  0  0  0  0  0  0  0  0  0  0
    5.0489   60.7981   68.8491 H   0  0  0  0  0  0  0  0  0  0  0  0
  2  1  2  0
  3  2  1  0
  4  3  2  0
  5  4  1  0
  6  5  2  0
  6  1  1  0
  7  4  1  0
  8  7  1  0
  9  8  1  0
  9  3  1  0
 10  9  2  0
 12 11  1  0
 12  1  1  0
 13  6  1  0
 14 13  1  0
 15  8  1  0
 16 15  1  0
 17 16  2  0
 18 17  1  0
 19 18  2  0
 20 19  1  0
 21 20  2  0
 21 16  1  0
 22 20  1  0
 23 22  1  0
 24 23  1  0
 25 23  1  0
  2 26  1  0
  5 27  1  0
  7 28  1  0
  7 29  1  0
  8 30  1  6
 11 31  1  0
 11 32  1  0
 11 33  1  0
 14 34  1  0
 14 35  1  0
 14 36  1  0
 15 37  1  0
 15 38  1  0
 17 39  1  0
 18 40  1  0
 19 41  1  0
 21 42  1  0
 22 43  1  0
 22 44  1  0
 23 45  1  0
 24 46  1  0
 24 47  1  0
 24 48  1  0
 25 49  1  0
 25 50  1  0
 25 51  1  0
M  CHG  1  23   1
M  END
>  <score>  (7) 
-7.537

$$$$
=
     RDKit          3D

 51 53  0  0  0  0  0  0  0  0999 V2000
    2.3470   60.2790   72.8230 C   0  0  0  0  0  0  0  0  0  0  0  0
    1.4110   61.2460   73.2020 C   0  0  0  0  0  0  0  0  0  0  0  0
    1.1230   62.2480   72.2930 C   0  0  0  0  0  0  0  0  0  0  0  0
    1.7170   62.3360   71.0450 C   0  0  0  0  0  0  0  0  0  0  0  0
    2.6520   61.3880   70.6570 C   0  0  0  0  0  0  0  0  0  0  0  0
    2.9690   60.3490   71.5450 C   0  0  0  0  0  0  0  0  0  0  0  0
    1.2670   63.5400   70.2820 C   0  0  0  0  0  0  0  0  0  0  0  0
    0.0990   64.1160   71.1210 C   0  0  1  0  0  0  0  0  0  0  0  0
    0.1930   63.3600   72.4390 C   0  0  0  0  0  0  0  0  0  0  0  0
   -0.4120   63.5970   73.4710 O   0  0  0  0  0  0  0  0  0  0  0  0
    1.7550   58.2420   73.9310 C   0  0  0  0  0  0  0  0  0  0  0  0
    2.7300   59.2260   73.6170 O   0  0  0  0  0  0  0  0  0  0  0  0
    3.8760   59.3540   71.2740 O   0  0  0  0  0  0  0  0  0  0  0  0
    3.8020   58.7130   70.0080 C   0  0  0  0  0  0  0  0  0  0  0  0
    0.2120   65.6340   71.3010 C   0  0  0  0  0  0  0  0  0  0  0  0
    0.2990   66.3720   69.9830 C   0  0  0  0  0  0  0  0  0  0  0  0
    1.5090   66.9370   69.5640 C   0  0  0  0  0  0  0  0  0  0  0  0
    1.5990   67.5820   68.3300 C   0  0  0  0  0  0  0  0  0  0  0  0
    0.4850   67.6610   67.4950 C   0  0  0  0  0  0  0  0  0  0  0  0
   -0.7340   67.0970   67.8910 C   0  0  0  0  0  0  0  0  0  0  0  0
   -0.8180   66.4670   69.1430 C   0  0  0  0  0  0  0  0  0  0  0  0
   -1.9430   67.1640   67.0000 C   0  0  0  0  0  0  0  0  0  0  0  0
   -2.5300   68.5550   66.9020 N   0  0  0  0  0  4  0  0  0  0  0  0
   -3.4760   68.7100   65.7450 C   0  0  0  0  0  0  0  0  0  0  0  0
   -1.4580   69.6040   66.8830 C   0  0  0  0  0  0  0  0  0  0  0  0
    0.9218   61.2112   74.1866 H   0  0  0  0  0  0  0  0  0  0  0  0
    3.1362   61.4496   69.6712 H   0  0  0  0  0  0  0  0  0  0  0  0
    2.0826   64.2731   70.1960 H   0  0  0  0  0  0  0  0  0  0  0  0
    0.9624   63.2942   69.2540 H   0  0  0  0  0  0  0  0  0  0  0  0
   -0.8789   63.9820   70.6354 H   0  0  0  0  0  0  0  0  0  0  0  0
    1.6647   58.1508   75.0235 H   0  0  0  0  0  0  0  0  0  0  0  0
    0.7846   58.5387   73.5063 H   0  0  0  0  0  0  0  0  0  0  0  0
    2.0606   57.2744   73.5063 H   0  0  0  0  0  0  0  0  0  0  0  0
    3.6769   57.6297   70.1523 H   0  0  0  0  0  0  0  0  0  0  0  0
    2.9437   59.1095   69.4458 H   0  0  0  0  0  0  0  0  0  0  0  0
    4.7281   58.9035   69.4458 H   0  0  0  0  0  0  0  0  0  0  0  0
   -0.6740   65.9909   71.8466 H   0  0  0  0  0  0  0  0  0  0  0  0
    1.1396   65.8351   71.8570 H   0  0  0  0  0  0  0  0  0  0  0  0
    2.3954   66.8721   70.2122 H   0  0  0  0  0  0  0  0  0  0  0  0
    2.5528   68.0301   68.0145 H   0  0  0  0  0  0  0  0  0  0  0  0
    0.5641   68.1680   66.5220 H   0  0  0  0  0  0  0  0  0  0  0  0
   -1.7778   66.0405   69.4700 H   0  0  0  0  0  0  0  0  0  0  0  0
   -1.6536   66.8340   65.9914 H   0  0  0  0  0  0  0  0  0  0  0  0
   -2.7124   66.5129   67.4406 H   0  0  0  0  0  0  0  0  0  0  0  0
   -3.0915   68.6938   67.7542 H   0  0  0  0  0  0  0  0  0  0  0  0
   -4.4949   68.8770   66.1243 H   0  0  0  0  0  0  0  0  0  0  0  0
   -3.1676   69.5696   65.1318 H   0  0  0  0  0  0  0  0  0  0  0  0
   -3.4580   67.7969   65.1318 H   0  0  0  0  0  0  0  0  0  0  0  0
   -1.1866   69.8696   67.9154 H   0  0  0  0  0  0  0  0  0  0  0  0
   -0.5725   69.2139   66.3599 H   0  0  0  0  0  0  0  0  0  0  0  0
   -1.8288   70.4978   66.3599 H   0  0  0  0  0  0  0  0  0  0  0  0
  2  1  2  0
  3  2  1  0
  4  3  2  0
  5  4  1  0
  6  5  2  0
  6  1  1  0
  7  4  1  0
  8  7  1  0
  9  8  1  0
  9  3  1  0
 10  9  2  0
 12 11  1  0
 12  1  1  0
 13  6  1  0
 14 13  1  0
 15  8  1  0
 16 15  1  0
 17 16  2  0
 18 17  1  0
 19 18  2  0
 20 19  1  0
 21 20  2  0
 21 16  1  0
 22 20  1  0
 23 22  1  0
 24 23  1  0
 25 23  1  0
  2 26  1  0
  5 27  1  0
  7 28  1  0
  7 29  1  0
  8 30  1  6
 11 31  1  0
 11 32  1  0
 11 33  1  0
 14 34  1  0
 14 35  1  0
 14 36  1  0
 15 37  1  0
 15 38  1  0
 17 39  1  0
 18 40  1  0
 19 41  1  0
 21 42  1  0
 22 43  1  0
 22 44  1  0
 23 45  1  0
 24 46  1  0
 24 47  1  0
 24 48  1  0
 25 49  1  0
 25 50  1  0
 25 51  1  0
M  CHG  1  23   1
M  END
>  <score>  (8) 
-7.425

$$$$
=
     RDKit          3D

 51 53  0  0  0  0  0  0  0  0999 V2000
    2.5320   62.8980   70.6210 C   0  0  0  0  0  0  0  0  0  0  0  0
    2.5470   61.6690   71.2860 C   0  0  0  0  0  0  0  0  0  0  0  0
    1.4100   61.3050   71.9850 C   0  0  0  0  0  0  0  0  0  0  0  0
    0.2770   62.0980   72.0580 C   0  0  0  0  0  0  0  0  0  0  0  0
    0.2490   63.3240   71.4100 C   0  0  0  0  0  0  0  0  0  0  0  0
    1.3780   63.7300   70.6820 C   0  0  0  0  0  0  0  0  0  0  0  0
   -0.7880   61.4950   72.9170 C   0  0  0  0  0  0  0  0  0  0  0  0
   -0.2790   60.0620   73.2150 C   0  0  1  0  0  0  0  0  0  0  0  0
    1.1690   60.0880   72.7480 C   0  0  0  0  0  0  0  0  0  0  0  0
    2.0230   59.2380   72.9400 O   0  0  0  0  0  0  0  0  0  0  0  0
    4.8580   63.4500   70.5120 C   0  0  0  0  0  0  0  0  0  0  0  0
    3.5830   63.3900   69.8870 O   0  0  0  0  0  0  0  0  0  0  0  0
    1.4690   64.9180   70.0000 O   0  0  0  0  0  0  0  0  0  0  0  0
    0.5350   65.9410   70.3180 C   0  0  0  0  0  0  0  0  0  0  0  0
   -0.4170   59.6980   74.6970 C   0  0  0  0  0  0  0  0  0  0  0  0
   -1.0200   58.3270   74.9060 C   0  0  0  0  0  0  0  0  0  0  0  0
   -2.2420   58.1820   75.5730 C   0  0  0  0  0  0  0  0  0  0  0  0
   -2.8180   56.9210   75.7310 C   0  0  0  0  0  0  0  0  0  0  0  0
   -2.1860   55.7910   75.2140 C   0  0  0  0  0  0  0  0  0  0  0  0
   -0.9660   55.9120   74.5360 C   0  0  0  0  0  0  0  0  0  0  0  0
   -0.3870   57.1830   74.4010 C   0  0  0  0  0  0  0  0  0  0  0  0
   -0.2760   54.7050   73.9650 C   0  0  0  0  0  0  0  0  0  0  0  0
    0.5010   53.9210   75.0000 N   0  0  0  0  0  4  0  0  0  0  0  0
    1.9730   54.2190   74.9750 C   0  0  0  0  0  0  0  0  0  0  0  0
    0.2330   52.4500   74.8910 C   0  0  0  0  0  0  0  0  0  0  0  0
    3.4308   61.0148   71.2548 H   0  0  0  0  0  0  0  0  0  0  0  0
   -0.6421   63.9665   71.4657 H   0  0  0  0  0  0  0  0  0  0  0  0
   -0.9067   62.0673   73.8488 H   0  0  0  0  0  0  0  0  0  0  0  0
   -1.7725   61.4962   72.4263 H   0  0  0  0  0  0  0  0  0  0  0  0
   -0.8656   59.2870   72.7000 H   0  0  0  0  0  0  0  0  0  0  0  0
    4.7314   63.4440   71.6047 H   0  0  0  0  0  0  0  0  0  0  0  0
    5.4570   62.5790   70.2075 H   0  0  0  0  0  0  0  0  0  0  0  0
    5.3725   64.3734   70.2075 H   0  0  0  0  0  0  0  0  0  0  0  0
    0.4505   66.0336   71.4108 H   0  0  0  0  0  0  0  0  0  0  0  0
    0.8791   66.8962   69.8946 H   0  0  0  0  0  0  0  0  0  0  0  0
   -0.4475   65.6850   69.8946 H   0  0  0  0  0  0  0  0  0  0  0  0
    0.5811   59.7179   75.1590 H   0  0  0  0  0  0  0  0  0  0  0  0
   -1.0929   60.4328   75.1587 H   0  0  0  0  0  0  0  0  0  0  0  0
   -2.7523   59.0693   75.9758 H   0  0  0  0  0  0  0  0  0  0  0  0
   -3.7740   56.8181   76.2653 H   0  0  0  0  0  0  0  0  0  0  0  0
   -2.6472   54.8002   75.3390 H   0  0  0  0  0  0  0  0  0  0  0  0
    0.5816   57.2834   73.8894 H   0  0  0  0  0  0  0  0  0  0  0  0
   -1.0358   54.0439   73.5226 H   0  0  0  0  0  0  0  0  0  0  0  0
    0.4449   55.0631   73.2153 H   0  0  0  0  0  0  0  0  0  0  0  0
    0.1590   54.2356   75.9192 H   0  0  0  0  0  0  0  0  0  0  0  0
    2.3492   54.2952   76.0058 H   0  0  0  0  0  0  0  0  0  0  0  0
    2.5021   53.4097   74.4504 H   0  0  0  0  0  0  0  0  0  0  0  0
    2.1457   55.1703   74.4504 H   0  0  0  0  0  0  0  0  0  0  0  0
    0.1539   52.0160   75.8987 H   0  0  0  0  0  0  0  0  0  0  0  0
   -0.7094   52.2883   74.3472 H   0  0  0  0  0  0  0  0  0  0  0  0
    1.0578   51.9663   74.3472 H   0  0  0  0  0  0  0  0  0  0  0  0
  2  1  2  0
  3  2  1  0
  4  3  2  0
  5  4  1  0
  6  5  2  0
  6  1  1  0
  7  4  1  0
  8  7  1  0
  9  8  1  0
  9  3  1  0
 10  9  2  0
 12 11  1  0
 12  1  1  0
 13  6  1  0
 14 13  1  0
 15  8  1  0
 16 15  1  0
 17 16  2  0
 18 17  1  0
 19 18  2  0
 20 19  1  0
 21 20  2  0
 21 16  1  0
 22 20  1  0
 23 22  1  0
 24 23  1  0
 25 23  1  0
  2 26  1  0
  5 27  1  0
  7 28  1  0
  7 29  1  0
  8 30  1  6
 11 31  1  0
 11 32  1  0
 11 33  1  0
 14 34  1  0
 14 35  1  0
 14 36  1  0
 15 37  1  0
 15 38  1  0
 17 39  1  0
 18 40  1  0
 19 41  1  0
 21 42  1  0
 22 43  1  0
 22 44  1  0
 23 45  1  0
 24 46  1  0
 24 47  1  0
 24 48  1  0
 25 49  1  0
 25 50  1  0
 25 51  1  0
M  CHG  1  23   1
M  END
>  <score>  (9) 
-7.253

$$$$
