=
     RDKit          3D

 76 80  0  0  0  0  0  0  0  0999 V2000
    1.2890   68.5970   64.5020 C   0  0  2  0  0  0  0  0  0  0  0  0
    0.1810   68.3230   65.5210 C   0  0  0  0  0  0  0  0  0  0  0  0
   -1.0800   68.9270   65.3580 C   0  0  0  0  0  0  0  0  0  0  0  0
   -2.1070   68.7300   66.2840 C   0  0  0  0  0  0  0  0  0  0  0  0
   -1.8940   67.9290   67.4020 C   0  0  0  0  0  0  0  0  0  0  0  0
   -0.6560   67.3150   67.5970 C   0  0  0  0  0  0  0  0  0  0  0  0
    0.3760   67.5350   66.6700 C   0  0  0  0  0  0  0  0  0  0  0  0
   -0.4550   66.4630   68.7740 C   0  0  0  0  0  0  0  0  0  0  0  0
    0.7600   66.0170   69.1330 C   0  0  0  0  0  0  0  0  0  0  0  0
    1.0130   65.1440   70.2870 C   0  0  0  0  0  0  0  0  0  0  0  0
    0.1570   65.1820   71.3790 C   0  0  0  0  0  0  0  0  0  0  0  0
    0.4160   64.3460   72.4610 C   0  0  0  0  0  0  0  0  0  0  0  0
    1.5210   63.4910   72.4260 C   0  0  0  0  0  0  0  0  0  0  0  0
    2.3390   63.5150   71.2770 C   0  0  0  0  0  0  0  0  0  0  0  0
    2.0900   64.3230   70.2320 N   0  0  0  0  0  0  0  0  0  0  0  0
    3.4380   62.6710   71.2280 C   0  0  0  0  0  0  0  0  0  0  0  0
    3.7350   61.8160   72.2890 C   0  0  0  0  0  0  0  0  0  0  0  0
    2.9320   61.7910   73.4250 C   0  0  0  0  0  0  0  0  0  0  0  0
    1.8220   62.6300   73.4950 C   0  0  0  0  0  0  0  0  0  0  0  0
    5.1080   60.7810   72.1970 Cl  0  0  0  0  0  0  0  0  0  0  0  0
    1.7120   67.1210   63.4760 S   0  0  0  0  0  0  0  0  0  0  0  0
    2.5670   66.0110   64.6270 C   0  0  0  0  0  0  0  0  0  0  0  0
    3.9540   65.5700   64.2170 C   0  0  0  0  0  0  0  0  0  0  0  0
    4.5240   64.3650   64.9530 C   0  0  0  0  0  0  0  0  0  0  0  0
    4.1320   64.2320   63.5170 C   0  0  0  0  0  0  0  0  0  0  0  0
    4.9570   66.6860   63.9170 C   0  0  0  0  0  0  0  0  0  0  0  0
    4.3810   66.5660   61.6020 O   0  0  0  0  0  1  0  0  0  0  0  0
    4.8860   67.2950   62.5050 C   0  0  0  0  0  0  0  0  0  0  0  0
    5.3170   68.4810   62.4190 O   0  0  0  0  0  0  0  0  0  0  0  0
    2.5190   69.3770   65.0190 C   0  0  0  0  0  0  0  0  0  0  0  0
    3.2850   68.6620   66.1410 C   0  0  0  0  0  0  0  0  0  0  0  0
    4.3350   69.5660   66.7670 C   0  0  0  0  0  0  0  0  0  0  0  0
    5.5270   69.7310   66.0270 C   0  0  0  0  0  0  0  0  0  0  0  0
    6.5660   70.5290   66.4920 C   0  0  0  0  0  0  0  0  0  0  0  0
    6.4330   71.1790   67.7060 C   0  0  0  0  0  0  0  0  0  0  0  0
    5.2630   71.0260   68.4560 C   0  0  0  0  0  0  0  0  0  0  0  0
    4.1900   70.2110   68.0250 C   0  0  0  0  0  0  0  0  0  0  0  0
    2.9230   70.1140   68.8900 C   0  0  0  0  0  0  0  0  0  0  0  0
    2.7250   68.6630   69.3570 C   0  0  0  0  0  0  0  0  0  0  0  0
    1.6330   70.5880   68.1950 C   0  0  0  0  0  0  0  0  0  0  0  0
    3.0480   70.9670   70.0320 O   0  0  0  0  0  0  0  0  0  0  0  0
    0.8270   69.3246   63.8186 H   0  0  0  0  0  0  0  0  0  0  0  0
   -1.2605   69.5680   64.4825 H   0  0  0  0  0  0  0  0  0  0  0  0
   -3.0853   69.2085   66.1294 H   0  0  0  0  0  0  0  0  0  0  0  0
   -2.7024   67.7797   68.1329 H   0  0  0  0  0  0  0  0  0  0  0  0
    1.3616   67.0797   66.8469 H   0  0  0  0  0  0  0  0  0  0  0  0
   -1.3271   66.1804   69.3820 H   0  0  0  0  0  0  0  0  0  0  0  0
    1.6218   66.3256   68.5231 H   0  0  0  0  0  0  0  0  0  0  0  0
   -0.7093   65.8598   71.3890 H   0  0  0  0  0  0  0  0  0  0  0  0
   -0.2458   64.3581   73.3396 H   0  0  0  0  0  0  0  0  0  0  0  0
    4.0855   62.6759   70.3387 H   0  0  0  0  0  0  0  0  0  0  0  0
    3.1712   61.1155   74.2595 H   0  0  0  0  0  0  0  0  0  0  0  0
    1.1803   62.6184   74.3883 H   0  0  0  0  0  0  0  0  0  0  0  0
    2.6507   66.5287   65.5940 H   0  0  0  0  0  0  0  0  0  0  0  0
    1.9615   65.0932   64.6582 H   0  0  0  0  0  0  0  0  0  0  0  0
    5.5870   64.3471   65.2354 H   0  0  0  0  0  0  0  0  0  0  0  0
    4.2669   63.8300   65.8791 H   0  0  0  0  0  0  0  0  0  0  0  0
    4.9075   64.1158   62.7456 H   0  0  0  0  0  0  0  0  0  0  0  0
    3.4684   63.5582   62.9551 H   0  0  0  0  0  0  0  0  0  0  0  0
    4.7864   67.4957   64.6418 H   0  0  0  0  0  0  0  0  0  0  0  0
    5.9505   66.2194   63.9893 H   0  0  0  0  0  0  0  0  0  0  0  0
    3.2078   69.5350   64.1760 H   0  0  0  0  0  0  0  0  0  0  0  0
    2.1432   70.3206   65.4413 H   0  0  0  0  0  0  0  0  0  0  0  0
    2.5716   68.3519   66.9187 H   0  0  0  0  0  0  0  0  0  0  0  0
    3.7966   67.7904   65.7067 H   0  0  0  0  0  0  0  0  0  0  0  0
    5.6355   69.2163   65.0609 H   0  0  0  0  0  0  0  0  0  0  0  0
    7.4860   70.6426   65.8998 H   0  0  0  0  0  0  0  0  0  0  0  0
    7.2476   71.8160   68.0811 H   0  0  0  0  0  0  0  0  0  0  0  0
    5.1737   71.5579   69.4147 H   0  0  0  0  0  0  0  0  0  0  0  0
    2.7204   68.6291   70.4565 H   0  0  0  0  0  0  0  0  0  0  0  0
    1.7666   68.2822   68.9744 H   0  0  0  0  0  0  0  0  0  0  0  0
    3.5464   68.0393   68.9744 H   0  0  0  0  0  0  0  0  0  0  0  0
    0.8866   70.8623   68.9550 H   0  0  0  0  0  0  0  0  0  0  0  0
    1.8553   71.4632   67.5668 H   0  0  0  0  0  0  0  0  0  0  0  0
    1.2358   69.7771   67.5668 H   0  0  0  0  0  0  0  0  0  0  0  0
    2.9688   70.4267   70.8577 H   0  0  0  0  0  0  0  0  0  0  0  0
  2  1  1  0
  3  2  2  0
  4  3  1  0
  5  4  2  0
  6  5  1  0
  7  6  2  0
  7  2  1  0
  8  6  1  0
  9  8  2  0
 10  9  1  0
 11 10  2  0
 12 11  1  0
 13 12  2  0
 14 13  1  0
 15 10  1  0
 15 14  2  0
 16 14  1  0
 17 16  2  0
 18 17  1  0
 19 18  2  0
 19 13  1  0
 20 17  1  0
 21  1  1  0
 22 21  1  0
 23 22  1  0
 24 23  1  0
 25 24  1  0
 25 23  1  0
 26 23  1  0
 28 27  1  0
 28 26  1  0
 29 28  2  0
 30  1  1  0
 31 30  1  0
 32 31  1  0
 33 32  2  0
 34 33  1  0
 35 34  2  0
 36 35  1  0
 37 32  1  0
 37 36  2  0
 38 37  1  0
 39 38  1  0
 40 38  1  0
 41 38  1  0
  1 42  1  6
  3 43  1  0
  4 44  1  0
  5 45  1  0
  7 46  1  0
  8 47  1  0
  9 48  1  0
 11 49  1  0
 12 50  1  0
 16 51  1  0
 18 52  1  0
 19 53  1  0
 22 54  1  0
 22 55  1  0
 24 56  1  0
 24 57  1  0
 25 58  1  0
 25 59  1  0
 26 60  1  0
 26 61  1  0
 30 62  1  0
 30 63  1  0
 31 64  1  0
 31 65  1  0
 33 66  1  0
 34 67  1  0
 35 68  1  0
 36 69  1  0
 39 70  1  0
 39 71  1  0
 39 72  1  0
 40 73  1  0
 40 74  1  0
 40 75  1  0
 41 76  1  0
M  CHG  1  27  -1
M  END
>  <score>  (1) 
-10.825

$$$$
=
     RDKit          3D

 76 80  0  0  0  0  0  0  0  0999 V2000
    1.4030   68.7590   65.2110 C   0  0  2  0  0  0  0  0  0  0  0  0
    0.2300   68.2720   66.0640 C   0  0  0  0  0  0  0  0  0  0  0  0
   -1.0770   68.6930   65.7570 C   0  0  0  0  0  0  0  0  0  0  0  0
   -2.1700   68.2980   66.5310 C   0  0  0  0  0  0  0  0  0  0  0  0
   -1.9800   67.4770   67.6390 C   0  0  0  0  0  0  0  0  0  0  0  0
   -0.6980   67.0410   67.9750 C   0  0  0  0  0  0  0  0  0  0  0  0
    0.3970   67.4590   67.2000 C   0  0  0  0  0  0  0  0  0  0  0  0
   -0.5190   66.1660   69.1370 C   0  0  0  0  0  0  0  0  0  0  0  0
    0.6970   65.8350   69.6020 C   0  0  0  0  0  0  0  0  0  0  0  0
    0.9320   64.9440   70.7470 C   0  0  0  0  0  0  0  0  0  0  0  0
    0.0720   64.9830   71.8360 C   0  0  0  0  0  0  0  0  0  0  0  0
    0.3130   64.1310   72.9080 C   0  0  0  0  0  0  0  0  0  0  0  0
    1.4050   63.2590   72.8680 C   0  0  0  0  0  0  0  0  0  0  0  0
    2.2270   63.2840   71.7220 C   0  0  0  0  0  0  0  0  0  0  0  0
    1.9950   64.1070   70.6860 N   0  0  0  0  0  0  0  0  0  0  0  0
    3.3140   62.4220   71.6680 C   0  0  0  0  0  0  0  0  0  0  0  0
    3.5930   61.5510   72.7200 C   0  0  0  0  0  0  0  0  0  0  0  0
    2.7850   61.5250   73.8520 C   0  0  0  0  0  0  0  0  0  0  0  0
    1.6870   62.3810   73.9270 C   0  0  0  0  0  0  0  0  0  0  0  0
    4.9490   60.4960   72.6210 Cl  0  0  0  0  0  0  0  0  0  0  0  0
    1.0470   68.7240   63.3990 S   0  0  0  0  0  0  0  0  0  0  0  0
    2.1290   67.4180   62.7600 C   0  0  0  0  0  0  0  0  0  0  0  0
    3.4290   67.8760   62.1370 C   0  0  0  0  0  0  0  0  0  0  0  0
    3.3110   68.7800   60.9170 C   0  0  0  0  0  0  0  0  0  0  0  0
    3.8080   69.3460   62.2070 C   0  0  0  0  0  0  0  0  0  0  0  0
    4.5510   66.8380   62.0740 C   0  0  0  0  0  0  0  0  0  0  0  0
    4.1190   64.5830   62.7330 O   0  0  0  0  0  1  0  0  0  0  0  0
    4.4970   65.7220   63.1330 C   0  0  0  0  0  0  0  0  0  0  0  0
    4.8740   66.0730   64.2890 O   0  0  0  0  0  0  0  0  0  0  0  0
    2.7990   68.2150   65.5880 C   0  0  0  0  0  0  0  0  0  0  0  0
    3.8790   69.3000   65.7140 C   0  0  0  0  0  0  0  0  0  0  0  0
    3.9570   69.8510   67.1280 C   0  0  0  0  0  0  0  0  0  0  0  0
    2.7480   69.8540   67.8570 C   0  0  0  0  0  0  0  0  0  0  0  0
    2.6850   70.3360   69.1590 C   0  0  0  0  0  0  0  0  0  0  0  0
    3.8330   70.8250   69.7590 C   0  0  0  0  0  0  0  0  0  0  0  0
    5.0390   70.8350   69.0540 C   0  0  0  0  0  0  0  0  0  0  0  0
    5.1410   70.3680   67.7220 C   0  0  0  0  0  0  0  0  0  0  0  0
    6.5080   70.3850   67.0200 C   0  0  0  0  0  0  0  0  0  0  0  0
    7.6190   70.6240   68.0540 C   0  0  0  0  0  0  0  0  0  0  0  0
    6.6420   71.4340   65.9010 C   0  0  0  0  0  0  0  0  0  0  0  0
    6.7320   69.1320   66.3640 O   0  0  0  0  0  0  0  0  0  0  0  0
    1.4890   69.8202   65.4873 H   0  0  0  0  0  0  0  0  0  0  0  0
   -1.2413   69.3476   64.8883 H   0  0  0  0  0  0  0  0  0  0  0  0
   -3.1824   68.6360   66.2649 H   0  0  0  0  0  0  0  0  0  0  0  0
   -2.8418   67.1716   68.2505 H   0  0  0  0  0  0  0  0  0  0  0  0
    1.4102   67.1426   67.4887 H   0  0  0  0  0  0  0  0  0  0  0  0
   -1.4095   65.7673   69.6450 H   0  0  0  0  0  0  0  0  0  0  0  0
    1.5748   66.2588   69.0922 H   0  0  0  0  0  0  0  0  0  0  0  0
   -0.7834   65.6744   71.8505 H   0  0  0  0  0  0  0  0  0  0  0  0
   -0.3526   64.1430   73.7837 H   0  0  0  0  0  0  0  0  0  0  0  0
    3.9651   62.4264   70.7814 H   0  0  0  0  0  0  0  0  0  0  0  0
    3.0100   60.8361   74.6795 H   0  0  0  0  0  0  0  0  0  0  0  0
    1.0407   62.3685   74.8170 H   0  0  0  0  0  0  0  0  0  0  0  0
    2.3751   66.7466   63.5959 H   0  0  0  0  0  0  0  0  0  0  0  0
    1.5646   66.9385   61.9467 H   0  0  0  0  0  0  0  0  0  0  0  0
    4.0025   68.6529   60.0710 H   0  0  0  0  0  0  0  0  0  0  0  0
    2.5010   69.0375   60.2187 H   0  0  0  0  0  0  0  0  0  0  0  0
    4.8645   69.6354   62.3076 H   0  0  0  0  0  0  0  0  0  0  0  0
    3.5127   70.1915   62.8457 H   0  0  0  0  0  0  0  0  0  0  0  0
    4.5152   66.3632   61.0824 H   0  0  0  0  0  0  0  0  0  0  0  0
    5.4799   67.3923   62.2739 H   0  0  0  0  0  0  0  0  0  0  0  0
    2.7180   67.6937   66.5533 H   0  0  0  0  0  0  0  0  0  0  0  0
    3.1118   67.5478   64.7713 H   0  0  0  0  0  0  0  0  0  0  0  0
    4.8536   68.8662   65.4458 H   0  0  0  0  0  0  0  0  0  0  0  0
    3.6167   70.1264   65.0370 H   0  0  0  0  0  0  0  0  0  0  0  0
    1.8343   69.4657   67.3833 H   0  0  0  0  0  0  0  0  0  0  0  0
    1.7317   70.3291   69.7079 H   0  0  0  0  0  0  0  0  0  0  0  0
    3.7955   71.2055   70.7904 H   0  0  0  0  0  0  0  0  0  0  0  0
    5.9414   71.2195   69.5519 H   0  0  0  0  0  0  0  0  0  0  0  0
    7.2018   70.5342   69.0678 H   0  0  0  0  0  0  0  0  0  0  0  0
    8.4142   69.8764   67.9172 H   0  0  0  0  0  0  0  0  0  0  0  0
    8.0364   71.6325   67.9172 H   0  0  0  0  0  0  0  0  0  0  0  0
    6.7694   72.4315   66.3469 H   0  0  0  0  0  0  0  0  0  0  0  0
    7.5171   71.1962   65.2783 H   0  0  0  0  0  0  0  0  0  0  0  0
    5.7353   71.4238   65.2783 H   0  0  0  0  0  0  0  0  0  0  0  0
    6.8589   68.4223   67.0425 H   0  0  0  0  0  0  0  0  0  0  0  0
  2  1  1  0
  3  2  2  0
  4  3  1  0
  5  4  2  0
  6  5  1  0
  7  6  2  0
  7  2  1  0
  8  6  1  0
  9  8  2  0
 10  9  1  0
 11 10  2  0
 12 11  1  0
 13 12  2  0
 14 13  1  0
 15 10  1  0
 15 14  2  0
 16 14  1  0
 17 16  2  0
 18 17  1  0
 19 18  2  0
 19 13  1  0
 20 17  1  0
 21  1  1  0
 22 21  1  0
 23 22  1  0
 24 23  1  0
 25 24  1  0
 25 23  1  0
 26 23  1  0
 28 27  1  0
 28 26  1  0
 29 28  2  0
 30  1  1  0
 31 30  1  0
 32 31  1  0
 33 32  2  0
 34 33  1  0
 35 34  2  0
 36 35  1  0
 37 32  1  0
 37 36  2  0
 38 37  1  0
 39 38  1  0
 40 38  1  0
 41 38  1  0
  1 42  1  1
  3 43  1  0
  4 44  1  0
  5 45  1  0
  7 46  1  0
  8 47  1  0
  9 48  1  0
 11 49  1  0
 12 50  1  0
 16 51  1  0
 18 52  1  0
 19 53  1  0
 22 54  1  0
 22 55  1  0
 24 56  1  0
 24 57  1  0
 25 58  1  0
 25 59  1  0
 26 60  1  0
 26 61  1  0
 30 62  1  0
 30 63  1  0
 31 64  1  0
 31 65  1  0
 33 66  1  0
 34 67  1  0
 35 68  1  0
 36 69  1  0
 39 70  1  0
 39 71  1  0
 39 72  1  0
 40 73  1  0
 40 74  1  0
 40 75  1  0
 41 76  1  0
M  CHG  1  27  -1
M  END
>  <score>  (2) 
-10.825

$$$$
=
     RDKit          3D

 76 80  0  0  0  0  0  0  0  0999 V2000
    1.1860   61.7630   73.6180 C   0  0  2  0  0  0  0  0  0  0  0  0
    0.6720   63.2030   73.6480 C   0  0  0  0  0  0  0  0  0  0  0  0
    0.3500   63.8040   74.8790 C   0  0  0  0  0  0  0  0  0  0  0  0
   -0.1540   65.1040   74.9460 C   0  0  0  0  0  0  0  0  0  0  0  0
   -0.3560   65.8350   73.7780 C   0  0  0  0  0  0  0  0  0  0  0  0
   -0.0490   65.2720   72.5390 C   0  0  0  0  0  0  0  0  0  0  0  0
    0.4400   63.9560   72.4820 C   0  0  0  0  0  0  0  0  0  0  0  0
   -0.2560   66.0620   71.3210 C   0  0  0  0  0  0  0  0  0  0  0  0
    0.1900   65.6540   70.1210 C   0  0  0  0  0  0  0  0  0  0  0  0
    0.0300   66.4170   68.8750 C   0  0  0  0  0  0  0  0  0  0  0  0
   -1.2430   66.7240   68.4160 C   0  0  0  0  0  0  0  0  0  0  0  0
   -1.3710   67.4480   67.2350 C   0  0  0  0  0  0  0  0  0  0  0  0
   -0.2250   67.8490   66.5410 C   0  0  0  0  0  0  0  0  0  0  0  0
    1.0300   67.4950   67.0800 C   0  0  0  0  0  0  0  0  0  0  0  0
    1.1540   66.7960   68.2200 N   0  0  0  0  0  0  0  0  0  0  0  0
    2.1750   67.8880   66.4030 C   0  0  0  0  0  0  0  0  0  0  0  0
    2.0940   68.6150   65.2150 C   0  0  0  0  0  0  0  0  0  0  0  0
    0.8580   68.9640   64.6810 C   0  0  0  0  0  0  0  0  0  0  0  0
   -0.3050   68.5810   65.3450 C   0  0  0  0  0  0  0  0  0  0  0  0
    3.5350   69.0860   64.4000 Cl  0  0  0  0  0  0  0  0  0  0  0  0
    0.0090   60.5570   74.3740 S   0  0  0  0  0  0  0  0  0  0  0  0
    0.1830   59.0690   73.3530 C   0  0  0  0  0  0  0  0  0  0  0  0
    0.5450   57.7980   74.0870 C   0  0  0  0  0  0  0  0  0  0  0  0
   -0.4130   56.6250   73.9200 C   0  0  0  0  0  0  0  0  0  0  0  0
    0.9410   56.5660   73.2890 C   0  0  0  0  0  0  0  0  0  0  0  0
    1.1260   57.9710   75.4920 C   0  0  0  0  0  0  0  0  0  0  0  0
    3.4640   58.4340   75.3300 O   0  0  0  0  0  1  0  0  0  0  0  0
    2.6020   57.5700   75.6650 C   0  0  0  0  0  0  0  0  0  0  0  0
    2.7820   56.4200   76.1610 O   0  0  0  0  0  0  0  0  0  0  0  0
    2.6590   61.5510   74.0350 C   0  0  0  0  0  0  0  0  0  0  0  0
    3.6760   61.9380   72.9510 C   0  0  0  0  0  0  0  0  0  0  0  0
    3.6410   60.9710   71.7800 C   0  0  0  0  0  0  0  0  0  0  0  0
    3.4940   59.6050   72.1110 C   0  0  0  0  0  0  0  0  0  0  0  0
    3.4520   58.6200   71.1310 C   0  0  0  0  0  0  0  0  0  0  0  0
    3.5550   58.9820   69.7990 C   0  0  0  0  0  0  0  0  0  0  0  0
    3.7040   60.3270   69.4500 C   0  0  0  0  0  0  0  0  0  0  0  0
    3.7670   61.3570   70.4180 C   0  0  0  0  0  0  0  0  0  0  0  0
    3.9040   62.8170   69.9570 C   0  0  0  0  0  0  0  0  0  0  0  0
    3.7780   62.8910   68.4270 C   0  0  0  0  0  0  0  0  0  0  0  0
    5.2170   63.5020   70.3770 C   0  0  0  0  0  0  0  0  0  0  0  0
    2.8770   63.6140   70.5560 O   0  0  0  0  0  0  0  0  0  0  0  0
    1.2172   61.5300   72.5434 H   0  0  0  0  0  0  0  0  0  0  0  0
    0.4988   63.2365   75.8095 H   0  0  0  0  0  0  0  0  0  0  0  0
   -0.3918   65.5515   75.9223 H   0  0  0  0  0  0  0  0  0  0  0  0
   -0.7581   66.8574   73.8324 H   0  0  0  0  0  0  0  0  0  0  0  0
    0.6467   63.5029   71.5012 H   0  0  0  0  0  0  0  0  0  0  0  0
   -0.7935   67.0191   71.3920 H   0  0  0  0  0  0  0  0  0  0  0  0
    0.7089   64.6855   70.0676 H   0  0  0  0  0  0  0  0  0  0  0  0
   -2.1336   66.4012   68.9751 H   0  0  0  0  0  0  0  0  0  0  0  0
   -2.3688   67.7038   66.8489 H   0  0  0  0  0  0  0  0  0  0  0  0
    3.1622   67.6224   66.8090 H   0  0  0  0  0  0  0  0  0  0  0  0
    0.7995   69.5367   63.7437 H   0  0  0  0  0  0  0  0  0  0  0  0
   -1.2878   68.8523   64.9320 H   0  0  0  0  0  0  0  0  0  0  0  0
   -0.7750   58.8996   72.8397 H   0  0  0  0  0  0  0  0  0  0  0  0
    1.0273   59.2710   72.6774 H   0  0  0  0  0  0  0  0  0  0  0  0
   -0.6461   55.9802   74.7802 H   0  0  0  0  0  0  0  0  0  0  0  0
   -1.4442   56.5126   73.5539 H   0  0  0  0  0  0  0  0  0  0  0  0
    1.7010   55.8769   73.6859 H   0  0  0  0  0  0  0  0  0  0  0  0
    1.3119   56.3916   72.2682 H   0  0  0  0  0  0  0  0  0  0  0  0
    1.0307   59.0317   75.7675 H   0  0  0  0  0  0  0  0  0  0  0  0
    0.5548   57.2861   76.1359 H   0  0  0  0  0  0  0  0  0  0  0  0
    2.8569   62.1609   74.9288 H   0  0  0  0  0  0  0  0  0  0  0  0
    2.7857   60.4743   74.2211 H   0  0  0  0  0  0  0  0  0  0  0  0
    3.4415   62.9489   72.5862 H   0  0  0  0  0  0  0  0  0  0  0  0
    4.6818   61.9039   73.3952 H   0  0  0  0  0  0  0  0  0  0  0  0
    3.4109   59.3144   73.1687 H   0  0  0  0  0  0  0  0  0  0  0  0
    3.3379   57.5625   71.4115 H   0  0  0  0  0  0  0  0  0  0  0  0
    3.5196   58.2110   69.0152 H   0  0  0  0  0  0  0  0  0  0  0  0
    3.7748   60.5943   68.3853 H   0  0  0  0  0  0  0  0  0  0  0  0
    2.8577   63.4315   68.1606 H   0  0  0  0  0  0  0  0  0  0  0  0
    4.6479   63.4217   68.0127 H   0  0  0  0  0  0  0  0  0  0  0  0
    3.7382   61.8728   68.0127 H   0  0  0  0  0  0  0  0  0  0  0  0
    5.2789   63.5343   71.4748 H   0  0  0  0  0  0  0  0  0  0  0  0
    6.0706   62.9343   69.9782 H   0  0  0  0  0  0  0  0  0  0  0  0
    5.2398   64.5269   69.9782 H   0  0  0  0  0  0  0  0  0  0  0  0
    2.9488   63.5583   71.5418 H   0  0  0  0  0  0  0  0  0  0  0  0
  2  1  1  0
  3  2  2  0
  4  3  1  0
  5  4  2  0
  6  5  1  0
  7  6  2  0
  7  2  1  0
  8  6  1  0
  9  8  2  0
 10  9  1  0
 11 10  2  0
 12 11  1  0
 13 12  2  0
 14 13  1  0
 15 10  1  0
 15 14  2  0
 16 14  1  0
 17 16  2  0
 18 17  1  0
 19 18  2  0
 19 13  1  0
 20 17  1  0
 21  1  1  0
 22 21  1  0
 23 22  1  0
 24 23  1  0
 25 24  1  0
 25 23  1  0
 26 23  1  0
 28 27  1  0
 28 26  1  0
 29 28  2  0
 30  1  1  0
 31 30  1  0
 32 31  1  0
 33 32  2  0
 34 33  1  0
 35 34  2  0
 36 35  1  0
 37 32  1  0
 37 36  2  0
 38 37  1  0
 39 38  1  0
 40 38  1  0
 41 38  1  0
  1 42  1  6
  3 43  1  0
  4 44  1  0
  5 45  1  0
  7 46  1  0
  8 47  1  0
  9 48  1  0
 11 49  1  0
 12 50  1  0
 16 51  1  0
 18 52  1  0
 19 53  1  0
 22 54  1  0
 22 55  1  0
 24 56  1  0
 24 57  1  0
 25 58  1  0
 25 59  1  0
 26 60  1  0
 26 61  1  0
 30 62  1  0
 30 63  1  0
 31 64  1  0
 31 65  1  0
 33 66  1  0
 34 67  1  0
 35 68  1  0
 36 69  1  0
 39 70  1  0
 39 71  1  0
 39 72  1  0
 40 73  1  0
 40 74  1  0
 40 75  1  0
 41 76  1  0
M  CHG  1  27  -1
M  END
>  <score>  (3) 
-10.613

$$$$
=
     RDKit          3D

 76 80  0  0  0  0  0  0  0  0999 V2000
    1.3090   61.8060   73.5830 C   0  0  2  0  0  0  0  0  0  0  0  0
    0.7520   63.2310   73.5600 C   0  0  0  0  0  0  0  0  0  0  0  0
    0.4850   63.8950   74.7710 C   0  0  0  0  0  0  0  0  0  0  0  0
   -0.0550   65.1830   74.7930 C   0  0  0  0  0  0  0  0  0  0  0  0
   -0.3500   65.8350   73.5990 C   0  0  0  0  0  0  0  0  0  0  0  0
   -0.1000   65.2080   72.3780 C   0  0  0  0  0  0  0  0  0  0  0  0
    0.4260   63.9050   72.3680 C   0  0  0  0  0  0  0  0  0  0  0  0
   -0.4050   65.9170   71.1310 C   0  0  0  0  0  0  0  0  0  0  0  0
    0.4330   65.9050   70.0810 C   0  0  0  0  0  0  0  0  0  0  0  0
    0.1870   66.6160   68.8190 C   0  0  0  0  0  0  0  0  0  0  0  0
   -1.1160   66.8890   68.4260 C   0  0  0  0  0  0  0  0  0  0  0  0
   -1.3250   67.5650   67.2270 C   0  0  0  0  0  0  0  0  0  0  0  0
   -0.2290   67.9520   66.4510 C   0  0  0  0  0  0  0  0  0  0  0  0
    1.0620   67.6360   66.9260 C   0  0  0  0  0  0  0  0  0  0  0  0
    1.2640   66.9830   68.0830 N   0  0  0  0  0  0  0  0  0  0  0  0
    2.1580   68.0160   66.1660 C   0  0  0  0  0  0  0  0  0  0  0  0
    1.9960   68.6950   64.9590 C   0  0  0  0  0  0  0  0  0  0  0  0
    0.7250   69.0080   64.4870 C   0  0  0  0  0  0  0  0  0  0  0  0
   -0.3910   68.6360   65.2350 C   0  0  0  0  0  0  0  0  0  0  0  0
    3.3780   69.1520   64.0410 Cl  0  0  0  0  0  0  0  0  0  0  0  0
    3.1550   61.7490   73.5890 S   0  0  0  0  0  0  0  0  0  0  0  0
    3.6180   62.1990   71.8960 C   0  0  0  0  0  0  0  0  0  0  0  0
    4.0290   61.0570   70.9930 C   0  0  0  0  0  0  0  0  0  0  0  0
    5.5080   60.6960   70.9910 C   0  0  0  0  0  0  0  0  0  0  0  0
    4.5230   59.7610   71.6130 C   0  0  0  0  0  0  0  0  0  0  0  0
    3.3390   60.9940   69.6290 C   0  0  0  0  0  0  0  0  0  0  0  0
    3.5290   62.9770   68.3100 O   0  0  0  0  0  1  0  0  0  0  0  0
    2.7800   62.3250   69.0930 C   0  0  0  0  0  0  0  0  0  0  0  0
    1.6060   62.5970   69.4800 O   0  0  0  0  0  0  0  0  0  0  0  0
    0.6510   60.7960   72.6160 C   0  0  0  0  0  0  0  0  0  0  0  0
    0.2890   59.4540   73.2690 C   0  0  0  0  0  0  0  0  0  0  0  0
   -1.0970   59.4890   73.8900 C   0  0  0  0  0  0  0  0  0  0  0  0
   -1.8400   60.6720   73.6750 C   0  0  0  0  0  0  0  0  0  0  0  0
   -3.1190   60.8310   74.1940 C   0  0  0  0  0  0  0  0  0  0  0  0
   -3.6820   59.8100   74.9400 C   0  0  0  0  0  0  0  0  0  0  0  0
   -2.9640   58.6330   75.1680 C   0  0  0  0  0  0  0  0  0  0  0  0
   -1.6540   58.4390   74.6690 C   0  0  0  0  0  0  0  0  0  0  0  0
   -0.9360   57.1060   74.9370 C   0  0  0  0  0  0  0  0  0  0  0  0
    0.2100   57.3280   75.9360 C   0  0  0  0  0  0  0  0  0  0  0  0
   -0.3690   56.4190   73.6810 C   0  0  0  0  0  0  0  0  0  0  0  0
   -1.8600   56.1570   75.4780 O   0  0  0  0  0  0  0  0  0  0  0  0
    0.9864   61.4263   74.5637 H   0  0  0  0  0  0  0  0  0  0  0  0
    0.7064   63.3885   75.7220 H   0  0  0  0  0  0  0  0  0  0  0  0
   -0.2472   65.6823   75.7541 H   0  0  0  0  0  0  0  0  0  0  0  0
   -0.7812   66.8468   73.6182 H   0  0  0  0  0  0  0  0  0  0  0  0
    0.5870   63.3991   71.4046 H   0  0  0  0  0  0  0  0  0  0  0  0
   -1.3492   66.4760   71.0530 H   0  0  0  0  0  0  0  0  0  0  0  0
    1.3635   65.3254   70.1720 H   0  0  0  0  0  0  0  0  0  0  0  0
   -1.9668   66.5773   69.0497 H   0  0  0  0  0  0  0  0  0  0  0  0
   -2.3476   67.7934   66.8921 H   0  0  0  0  0  0  0  0  0  0  0  0
    3.1715   67.7779   66.5211 H   0  0  0  0  0  0  0  0  0  0  0  0
    0.6022   69.5432   63.5339 H   0  0  0  0  0  0  0  0  0  0  0  0
   -1.4007   68.8787   64.8721 H   0  0  0  0  0  0  0  0  0  0  0  0
    2.7547   62.6996   71.4332 H   0  0  0  0  0  0  0  0  0  0  0  0
    4.5101   62.8353   71.9927 H   0  0  0  0  0  0  0  0  0  0  0  0
    6.0047   60.4223   70.0485 H   0  0  0  0  0  0  0  0  0  0  0  0
    6.4276   61.1932   71.3334 H   0  0  0  0  0  0  0  0  0  0  0  0
    4.2973   58.8002   71.1274 H   0  0  0  0  0  0  0  0  0  0  0  0
    4.4223   59.2884   72.6012 H   0  0  0  0  0  0  0  0  0  0  0  0
    4.0707   60.6179   68.8988 H   0  0  0  0  0  0  0  0  0  0  0  0
    2.4654   60.3403   69.7686 H   0  0  0  0  0  0  0  0  0  0  0  0
   -0.2700   61.2471   72.2181 H   0  0  0  0  0  0  0  0  0  0  0  0
    1.3892   60.5795   71.8298 H   0  0  0  0  0  0  0  0  0  0  0  0
    0.3168   58.6653   72.5027 H   0  0  0  0  0  0  0  0  0  0  0  0
    1.0183   59.2525   74.0674 H   0  0  0  0  0  0  0  0  0  0  0  0
   -1.3954   61.4856   73.0831 H   0  0  0  0  0  0  0  0  0  0  0  0
   -3.6793   61.7602   74.0136 H   0  0  0  0  0  0  0  0  0  0  0  0
   -4.6948   59.9251   75.3535 H   0  0  0  0  0  0  0  0  0  0  0  0
   -3.4331   57.8299   75.7554 H   0  0  0  0  0  0  0  0  0  0  0  0
   -0.1785   57.2527   76.9623 H   0  0  0  0  0  0  0  0  0  0  0  0
    0.9853   56.5633   75.7804 H   0  0  0  0  0  0  0  0  0  0  0  0
    0.6437   58.3269   75.7804 H   0  0  0  0  0  0  0  0  0  0  0  0
    0.3045   55.6030   73.9819 H   0  0  0  0  0  0  0  0  0  0  0  0
   -1.1959   56.0099   73.0819 H   0  0  0  0  0  0  0  0  0  0  0  0
    0.1895   57.1533   73.0819 H   0  0  0  0  0  0  0  0  0  0  0  0
   -1.8269   56.1910   76.4669 H   0  0  0  0  0  0  0  0  0  0  0  0
  2  1  1  0
  3  2  2  0
  4  3  1  0
  5  4  2  0
  6  5  1  0
  7  6  2  0
  7  2  1  0
  8  6  1  0
  9  8  2  0
 10  9  1  0
 11 10  2  0
 12 11  1  0
 13 12  2  0
 14 13  1  0
 15 10  1  0
 15 14  2  0
 16 14  1  0
 17 16  2  0
 18 17  1  0
 19 18  2  0
 19 13  1  0
 20 17  1  0
 21  1  1  0
 22 21  1  0
 23 22  1  0
 24 23  1  0
 25 24  1  0
 25 23  1  0
 26 23  1  0
 28 27  1  0
 28 26  1  0
 29 28  2  0
 30  1  1  0
 31 30  1  0
 32 31  1  0
 33 32  2  0
 34 33  1  0
 35 34  2  0
 36 35  1  0
 37 32  1  0
 37 36  2  0
 38 37  1  0
 39 38  1  0
 40 38  1  0
 41 38  1  0
  1 42  1  1
  3 43  1  0
  4 44  1  0
  5 45  1  0
  7 46  1  0
  8 47  1  0
  9 48  1  0
 11 49  1  0
 12 50  1  0
 16 51  1  0
 18 52  1  0
 19 53  1  0
 22 54  1  0
 22 55  1  0
 24 56  1  0
 24 57  1  0
 25 58  1  0
 25 59  1  0
 26 60  1  0
 26 61  1  0
 30 62  1  0
 30 63  1  0
 31 64  1  0
 31 65  1  0
 33 66  1  0
 34 67  1  0
 35 68  1  0
 36 69  1  0
 39 70  1  0
 39 71  1  0
 39 72  1  0
 40 73  1  0
 40 74  1  0
 40 75  1  0
 41 76  1  0
M  CHG  1  27  -1
M  END
>  <score>  (4) 
-10.512

$$$$
=
     RDKit          3D

 76 80  0  0  0  0  0  0  0  0999 V2000
    1.3590   61.4890   74.1860 C   0  0  2  0  0  0  0  0  0  0  0  0
    0.8510   62.8760   73.7870 C   0  0  0  0  0  0  0  0  0  0  0  0
    0.4090   63.7690   74.7800 C   0  0  0  0  0  0  0  0  0  0  0  0
   -0.0940   65.0310   74.4540 C   0  0  0  0  0  0  0  0  0  0  0  0
   -0.1730   65.4270   73.1220 C   0  0  0  0  0  0  0  0  0  0  0  0
    0.2550   64.5670   72.1100 C   0  0  0  0  0  0  0  0  0  0  0  0
    0.7410   63.2920   72.4470 C   0  0  0  0  0  0  0  0  0  0  0  0
    0.1760   65.0070   70.7130 C   0  0  0  0  0  0  0  0  0  0  0  0
    0.2870   66.3000   70.3650 C   0  0  0  0  0  0  0  0  0  0  0  0
    0.1920   66.7970   68.9850 C   0  0  0  0  0  0  0  0  0  0  0  0
   -1.0330   66.7830   68.3320 C   0  0  0  0  0  0  0  0  0  0  0  0
   -1.0990   67.2590   67.0270 C   0  0  0  0  0  0  0  0  0  0  0  0
    0.0570   67.7390   66.4050 C   0  0  0  0  0  0  0  0  0  0  0  0
    1.2600   67.7190   67.1420 C   0  0  0  0  0  0  0  0  0  0  0  0
    1.3250   67.2580   68.4030 N   0  0  0  0  0  0  0  0  0  0  0  0
    2.4150   68.1940   66.5380 C   0  0  0  0  0  0  0  0  0  0  0  0
    2.3940   68.6810   65.2320 C   0  0  0  0  0  0  0  0  0  0  0  0
    1.2100   68.7020   64.5020 C   0  0  0  0  0  0  0  0  0  0  0  0
    0.0380   68.2300   65.0890 C   0  0  0  0  0  0  0  0  0  0  0  0
    3.8460   69.2630   64.5120 Cl  0  0  0  0  0  0  0  0  0  0  0  0
    2.2980   60.6440   72.8390 S   0  0  0  0  0  0  0  0  0  0  0  0
    3.7700   61.6780   72.6100 C   0  0  0  0  0  0  0  0  0  0  0  0
    4.3730   61.6780   71.2230 C   0  0  0  0  0  0  0  0  0  0  0  0
    5.7380   61.0200   71.0800 C   0  0  0  0  0  0  0  0  0  0  0  0
    4.5370   60.3610   70.4840 C   0  0  0  0  0  0  0  0  0  0  0  0
    4.1720   62.9530   70.4010 C   0  0  0  0  0  0  0  0  0  0  0  0
    3.8070   63.0650   68.0430 O   0  0  0  0  0  1  0  0  0  0  0  0
    3.2680   62.8220   69.1620 C   0  0  0  0  0  0  0  0  0  0  0  0
    2.0850   62.4490   69.4090 O   0  0  0  0  0  0  0  0  0  0  0  0
    0.3530   60.5750   74.9200 C   0  0  0  0  0  0  0  0  0  0  0  0
   -0.7270   59.9750   74.0070 C   0  0  0  0  0  0  0  0  0  0  0  0
   -0.9200   58.4910   74.2670 C   0  0  0  0  0  0  0  0  0  0  0  0
    0.0170   57.6300   73.6520 C   0  0  0  0  0  0  0  0  0  0  0  0
   -0.0520   56.2500   73.8090 C   0  0  0  0  0  0  0  0  0  0  0  0
   -1.0590   55.7040   74.5840 C   0  0  0  0  0  0  0  0  0  0  0  0
   -1.9990   56.5370   75.1980 C   0  0  0  0  0  0  0  0  0  0  0  0
   -1.9710   57.9440   75.0510 C   0  0  0  0  0  0  0  0  0  0  0  0
   -3.0210   58.7980   75.7800 C   0  0  0  0  0  0  0  0  0  0  0  0
   -3.6940   59.7530   74.7820 C   0  0  0  0  0  0  0  0  0  0  0  0
   -2.4720   59.6230   76.9590 C   0  0  0  0  0  0  0  0  0  0  0  0
   -4.0130   57.9510   76.3690 O   0  0  0  0  0  0  0  0  0  0  0  0
    2.0895   61.7087   74.9785 H   0  0  0  0  0  0  0  0  0  0  0  0
    0.4605   63.4670   75.8365 H   0  0  0  0  0  0  0  0  0  0  0  0
   -0.4278   65.7122   75.2506 H   0  0  0  0  0  0  0  0  0  0  0  0
   -0.5734   66.4193   72.8668 H   0  0  0  0  0  0  0  0  0  0  0  0
    1.0426   62.6029   71.6444 H   0  0  0  0  0  0  0  0  0  0  0  0
    0.0210   64.2548   69.9255 H   0  0  0  0  0  0  0  0  0  0  0  0
    0.4603   67.0346   71.1652 H   0  0  0  0  0  0  0  0  0  0  0  0
   -1.9335   66.4030   68.8367 H   0  0  0  0  0  0  0  0  0  0  0  0
   -2.0570   67.2578   66.4865 H   0  0  0  0  0  0  0  0  0  0  0  0
    3.3617   68.1862   67.0981 H   0  0  0  0  0  0  0  0  0  0  0  0
    1.1992   69.0874   63.4718 H   0  0  0  0  0  0  0  0  0  0  0  0
   -0.9039   68.2418   64.5210 H   0  0  0  0  0  0  0  0  0  0  0  0
    3.4949   62.7140   72.8570 H   0  0  0  0  0  0  0  0  0  0  0  0
    4.5396   61.2467   73.2671 H   0  0  0  0  0  0  0  0  0  0  0  0
    6.4983   61.4705   70.4251 H   0  0  0  0  0  0  0  0  0  0  0  0
    6.5251   60.7076   71.7820 H   0  0  0  0  0  0  0  0  0  0  0  0
    4.4162   60.3270   69.3912 H   0  0  0  0  0  0  0  0  0  0  0  0
    4.0795   59.3642   70.5683 H   0  0  0  0  0  0  0  0  0  0  0  0
    3.7293   63.7130   71.0617 H   0  0  0  0  0  0  0  0  0  0  0  0
    5.1677   63.2168   70.0149 H   0  0  0  0  0  0  0  0  0  0  0  0
    0.9113   59.7489   75.3846 H   0  0  0  0  0  0  0  0  0  0  0  0
   -0.1672   61.2026   75.6586 H   0  0  0  0  0  0  0  0  0  0  0  0
   -1.6784   60.4959   74.1900 H   0  0  0  0  0  0  0  0  0  0  0  0
   -0.4034   60.1015   72.9633 H   0  0  0  0  0  0  0  0  0  0  0  0
    0.8191   58.0613   73.0351 H   0  0  0  0  0  0  0  0  0  0  0  0
    0.6878   55.5984   73.3211 H   0  0  0  0  0  0  0  0  0  0  0  0
   -1.1203   54.6138   74.7173 H   0  0  0  0  0  0  0  0  0  0  0  0
   -2.7873   56.0831   75.8165 H   0  0  0  0  0  0  0  0  0  0  0  0
   -4.2426   60.5315   75.3324 H   0  0  0  0  0  0  0  0  0  0  0  0
   -2.9264   60.2230   74.1496 H   0  0  0  0  0  0  0  0  0  0  0  0
   -4.3947   59.1882   74.1496 H   0  0  0  0  0  0  0  0  0  0  0  0
   -2.7811   59.1585   77.9070 H   0  0  0  0  0  0  0  0  0  0  0  0
   -1.3737   59.6523   76.9060 H   0  0  0  0  0  0  0  0  0  0  0  0
   -2.8691   60.6475   76.9060 H   0  0  0  0  0  0  0  0  0  0  0  0
   -3.9496   58.0051   77.3555 H   0  0  0  0  0  0  0  0  0  0  0  0
  2  1  1  0
  3  2  2  0
  4  3  1  0
  5  4  2  0
  6  5  1  0
  7  6  2  0
  7  2  1  0
  8  6  1  0
  9  8  2  0
 10  9  1  0
 11 10  2  0
 12 11  1  0
 13 12  2  0
 14 13  1  0
 15 10  1  0
 15 14  2  0
 16 14  1  0
 17 16  2  0
 18 17  1  0
 19 18  2  0
 19 13  1  0
 20 17  1  0
 21  1  1  0
 22 21  1  0
 23 22  1  0
 24 23  1  0
 25 24  1  0
 25 23  1  0
 26 23  1  0
 28 27  1  0
 28 26  1  0
 29 28  2  0
 30  1  1  0
 31 30  1  0
 32 31  1  0
 33 32  2  0
 34 33  1  0
 35 34  2  0
 36 35  1  0
 37 32  1  0
 37 36  2  0
 38 37  1  0
 39 38  1  0
 40 38  1  0
 41 38  1  0
  1 42  1  1
  3 43  1  0
  4 44  1  0
  5 45  1  0
  7 46  1  0
  8 47  1  0
  9 48  1  0
 11 49  1  0
 12 50  1  0
 16 51  1  0
 18 52  1  0
 19 53  1  0
 22 54  1  0
 22 55  1  0
 24 56  1  0
 24 57  1  0
 25 58  1  0
 25 59  1  0
 26 60  1  0
 26 61  1  0
 30 62  1  0
 30 63  1  0
 31 64  1  0
 31 65  1  0
 33 66  1  0
 34 67  1  0
 35 68  1  0
 36 69  1  0
 39 70  1  0
 39 71  1  0
 39 72  1  0
 40 73  1  0
 40 74  1  0
 40 75  1  0
 41 76  1  0
M  CHG  1  27  -1
M  END
>  <score>  (5) 
-10.343

$$$$
=
     RDKit          3D

 76 80  0  0  0  0  0  0  0  0999 V2000
    1.1390   61.0090   73.8710 C   0  0  2  0  0  0  0  0  0  0  0  0
    0.7800   62.4620   73.5530 C   0  0  0  0  0  0  0  0  0  0  0  0
    0.3800   63.3250   74.5910 C   0  0  0  0  0  0  0  0  0  0  0  0
    0.0120   64.6480   74.3370 C   0  0  0  0  0  0  0  0  0  0  0  0
    0.0270   65.1380   73.0350 C   0  0  0  0  0  0  0  0  0  0  0  0
    0.4160   64.3120   71.9800 C   0  0  0  0  0  0  0  0  0  0  0  0
    0.7670   62.9770   72.2440 C   0  0  0  0  0  0  0  0  0  0  0  0
    0.4390   64.8510   70.6170 C   0  0  0  0  0  0  0  0  0  0  0  0
    0.0920   66.1200   70.3450 C   0  0  0  0  0  0  0  0  0  0  0  0
    0.0750   66.7030   68.9960 C   0  0  0  0  0  0  0  0  0  0  0  0
   -1.1170   66.7620   68.2880 C   0  0  0  0  0  0  0  0  0  0  0  0
   -1.1100   67.3200   67.0140 C   0  0  0  0  0  0  0  0  0  0  0  0
    0.0850   67.8060   66.4770 C   0  0  0  0  0  0  0  0  0  0  0  0
    1.2510   67.7070   67.2650 C   0  0  0  0  0  0  0  0  0  0  0  0
    1.2450   67.1690   68.4960 N   0  0  0  0  0  0  0  0  0  0  0  0
    2.4440   68.1870   66.7460 C   0  0  0  0  0  0  0  0  0  0  0  0
    2.4980   68.7540   65.4730 C   0  0  0  0  0  0  0  0  0  0  0  0
    1.3500   68.8510   64.6920 C   0  0  0  0  0  0  0  0  0  0  0  0
    0.1400   68.3760   65.1940 C   0  0  0  0  0  0  0  0  0  0  0  0
    3.9950   69.3390   64.8580 Cl  0  0  0  0  0  0  0  0  0  0  0  0
    2.9590   60.7230   74.0000 S   0  0  0  0  0  0  0  0  0  0  0  0
    3.6810   61.9530   72.8810 C   0  0  0  0  0  0  0  0  0  0  0  0
    4.1850   61.4310   71.5550 C   0  0  0  0  0  0  0  0  0  0  0  0
    5.1280   62.3440   70.7840 C   0  0  0  0  0  0  0  0  0  0  0  0
    5.6580   61.0910   71.4020 C   0  0  0  0  0  0  0  0  0  0  0  0
    3.1700   60.6680   70.7000 C   0  0  0  0  0  0  0  0  0  0  0  0
    3.3880   58.3680   71.3050 O   0  0  0  0  0  1  0  0  0  0  0  0
    3.5290   59.2080   70.3700 C   0  0  0  0  0  0  0  0  0  0  0  0
    3.8960   59.0120   69.1750 O   0  0  0  0  0  0  0  0  0  0  0  0
    0.3860   59.9250   73.0680 C   0  0  0  0  0  0  0  0  0  0  0  0
   -0.5610   59.0640   73.9180 C   0  0  0  0  0  0  0  0  0  0  0  0
    0.1500   58.4710   75.1230 C   0  0  0  0  0  0  0  0  0  0  0  0
    0.1140   59.2460   76.3040 C   0  0  0  0  0  0  0  0  0  0  0  0
    0.7300   58.8170   77.4730 C   0  0  0  0  0  0  0  0  0  0  0  0
    1.3950   57.6030   77.4850 C   0  0  0  0  0  0  0  0  0  0  0  0
    1.4460   56.8230   76.3270 C   0  0  0  0  0  0  0  0  0  0  0  0
    0.8450   57.2310   75.1130 C   0  0  0  0  0  0  0  0  0  0  0  0
    0.9180   56.3070   73.8870 C   0  0  0  0  0  0  0  0  0  0  0  0
   -0.4990   55.8810   73.4740 C   0  0  0  0  0  0  0  0  0  0  0  0
    1.7750   55.0430   74.0860 C   0  0  0  0  0  0  0  0  0  0  0  0
    1.5440   56.9940   72.7980 O   0  0  0  0  0  0  0  0  0  0  0  0
    0.7335   60.8657   74.8834 H   0  0  0  0  0  0  0  0  0  0  0  0
    0.3568   62.9490   75.6245 H   0  0  0  0  0  0  0  0  0  0  0  0
   -0.2900   65.3033   75.1672 H   0  0  0  0  0  0  0  0  0  0  0  0
   -0.2685   66.1789   72.8369 H   0  0  0  0  0  0  0  0  0  0  0  0
    1.0384   62.3182   71.4059 H   0  0  0  0  0  0  0  0  0  0  0  0
    0.7504   64.1954   69.7904 H   0  0  0  0  0  0  0  0  0  0  0  0
   -0.1985   66.7651   71.1873 H   0  0  0  0  0  0  0  0  0  0  0  0
   -2.0490   66.3751   68.7257 H   0  0  0  0  0  0  0  0  0  0  0  0
   -2.0413   67.3785   66.4316 H   0  0  0  0  0  0  0  0  0  0  0  0
    3.3622   68.1195   67.3479 H   0  0  0  0  0  0  0  0  0  0  0  0
    1.3974   69.2983   63.6882 H   0  0  0  0  0  0  0  0  0  0  0  0
   -0.7733   68.4474   64.5850 H   0  0  0  0  0  0  0  0  0  0  0  0
    2.9114   62.7110   72.6732 H   0  0  0  0  0  0  0  0  0  0  0  0
    4.5684   62.3416   73.4021 H   0  0  0  0  0  0  0  0  0  0  0  0
    5.0430   62.4228   69.6901 H   0  0  0  0  0  0  0  0  0  0  0  0
    5.3947   63.4096   70.8420 H   0  0  0  0  0  0  0  0  0  0  0  0
    5.9628   60.2503   70.7614 H   0  0  0  0  0  0  0  0  0  0  0  0
    6.4751   60.8584   72.1007 H   0  0  0  0  0  0  0  0  0  0  0  0
    2.2107   60.6654   71.2383 H   0  0  0  0  0  0  0  0  0  0  0  0
    3.1420   61.1926   69.7335 H   0  0  0  0  0  0  0  0  0  0  0  0
   -0.2066   60.4226   72.2862 H   0  0  0  0  0  0  0  0  0  0  0  0
    1.1479   59.2477   72.6547 H   0  0  0  0  0  0  0  0  0  0  0  0
   -1.3947   59.6902   74.2683 H   0  0  0  0  0  0  0  0  0  0  0  0
   -0.9264   58.2359   73.2929 H   0  0  0  0  0  0  0  0  0  0  0  0
   -0.4138   60.2111   76.2976 H   0  0  0  0  0  0  0  0  0  0  0  0
    0.6897   59.4366   78.3810 H   0  0  0  0  0  0  0  0  0  0  0  0
    1.8833   57.2524   78.4062 H   0  0  0  0  0  0  0  0  0  0  0  0
    1.9720   55.8575   76.3604 H   0  0  0  0  0  0  0  0  0  0  0  0
   -1.1042   55.6990   74.3743 H   0  0  0  0  0  0  0  0  0  0  0  0
   -0.9623   56.6796   72.8760 H   0  0  0  0  0  0  0  0  0  0  0  0
   -0.4451   54.9593   72.8760 H   0  0  0  0  0  0  0  0  0  0  0  0
    1.9038   54.8530   75.1618 H   0  0  0  0  0  0  0  0  0  0  0  0
    1.2733   54.1826   73.6192 H   0  0  0  0  0  0  0  0  0  0  0  0
    2.7600   55.1906   73.6192 H   0  0  0  0  0  0  0  0  0  0  0  0
    2.1665   57.6771   73.1529 H   0  0  0  0  0  0  0  0  0  0  0  0
  2  1  1  0
  3  2  2  0
  4  3  1  0
  5  4  2  0
  6  5  1  0
  7  6  2  0
  7  2  1  0
  8  6  1  0
  9  8  2  0
 10  9  1  0
 11 10  2  0
 12 11  1  0
 13 12  2  0
 14 13  1  0
 15 10  1  0
 15 14  2  0
 16 14  1  0
 17 16  2  0
 18 17  1  0
 19 18  2  0
 19 13  1  0
 20 17  1  0
 21  1  1  0
 22 21  1  0
 23 22  1  0
 24 23  1  0
 25 24  1  0
 25 23  1  0
 26 23  1  0
 28 27  1  0
 28 26  1  0
 29 28  2  0
 30  1  1  0
 31 30  1  0
 32 31  1  0
 33 32  2  0
 34 33  1  0
 35 34  2  0
 36 35  1  0
 37 32  1  0
 37 36  2  0
 38 37  1  0
 39 38  1  0
 40 38  1  0
 41 38  1  0
  1 42  1  1
  3 43  1  0
  4 44  1  0
  5 45  1  0
  7 46  1  0
  8 47  1  0
  9 48  1  0
 11 49  1  0
 12 50  1  0
 16 51  1  0
 18 52  1  0
 19 53  1  0
 22 54  1  0
 22 55  1  0
 24 56  1  0
 24 57  1  0
 25 58  1  0
 25 59  1  0
 26 60  1  0
 26 61  1  0
 30 62  1  0
 30 63  1  0
 31 64  1  0
 31 65  1  0
 33 66  1  0
 34 67  1  0
 35 68  1  0
 36 69  1  0
 39 70  1  0
 39 71  1  0
 39 72  1  0
 40 73  1  0
 40 74  1  0
 40 75  1  0
 41 76  1  0
M  CHG  1  27  -1
M  END
>  <score>  (6) 
-10.305

$$$$
=
     RDKit          3D

 76 80  0  0  0  0  0  0  0  0999 V2000
    0.6230   61.2130   73.2060 C   0  0  2  0  0  0  0  0  0  0  0  0
    0.4290   62.7010   72.9080 C   0  0  0  0  0  0  0  0  0  0  0  0
    0.2380   63.6060   73.9690 C   0  0  0  0  0  0  0  0  0  0  0  0
    0.0230   64.9660   73.7360 C   0  0  0  0  0  0  0  0  0  0  0  0
   -0.0120   65.4540   72.4330 C   0  0  0  0  0  0  0  0  0  0  0  0
    0.1730   64.5860   71.3560 C   0  0  0  0  0  0  0  0  0  0  0  0
    0.3690   63.2160   71.6000 C   0  0  0  0  0  0  0  0  0  0  0  0
    0.1450   65.1210   69.9910 C   0  0  0  0  0  0  0  0  0  0  0  0
    0.1200   66.4410   69.7420 C   0  0  0  0  0  0  0  0  0  0  0  0
    0.0690   67.0290   68.3960 C   0  0  0  0  0  0  0  0  0  0  0  0
   -1.1600   67.2560   67.7920 C   0  0  0  0  0  0  0  0  0  0  0  0
   -1.1840   67.8150   66.5180 C   0  0  0  0  0  0  0  0  0  0  0  0
    0.0170   68.1340   65.8790 C   0  0  0  0  0  0  0  0  0  0  0  0
    1.2210   67.8720   66.5660 C   0  0  0  0  0  0  0  0  0  0  0  0
    1.2450   67.3320   67.7960 N   0  0  0  0  0  0  0  0  0  0  0  0
    2.4210   68.1860   65.9440 C   0  0  0  0  0  0  0  0  0  0  0  0
    2.4430   68.7470   64.6680 C   0  0  0  0  0  0  0  0  0  0  0  0
    1.2580   69.0060   63.9870 C   0  0  0  0  0  0  0  0  0  0  0  0
    0.0410   68.7000   64.5930 C   0  0  0  0  0  0  0  0  0  0  0  0
    3.9490   69.1240   63.9250 Cl  0  0  0  0  0  0  0  0  0  0  0  0
    1.9300   60.4280   72.1640 S   0  0  0  0  0  0  0  0  0  0  0  0
    3.3490   61.5460   72.3160 C   0  0  0  0  0  0  0  0  0  0  0  0
    4.2450   61.6520   71.1030 C   0  0  0  0  0  0  0  0  0  0  0  0
    5.6890   61.2070   71.2880 C   0  0  0  0  0  0  0  0  0  0  0  0
    4.7660   60.3820   70.4500 C   0  0  0  0  0  0  0  0  0  0  0  0
    4.0510   62.8920   70.2270 C   0  0  0  0  0  0  0  0  0  0  0  0
    2.1840   62.0450   69.0010 O   0  0  0  0  0  1  0  0  0  0  0  0
    3.2760   62.6770   68.9140 C   0  0  0  0  0  0  0  0  0  0  0  0
    3.8170   63.1920   67.8920 O   0  0  0  0  0  0  0  0  0  0  0  0
   -0.6630   60.3680   73.3460 C   0  0  0  0  0  0  0  0  0  0  0  0
   -0.7730   59.6160   74.6810 C   0  0  0  0  0  0  0  0  0  0  0  0
    0.0610   58.3460   74.6790 C   0  0  0  0  0  0  0  0  0  0  0  0
   -0.3090   57.3660   73.7300 C   0  0  0  0  0  0  0  0  0  0  0  0
    0.3720   56.1580   73.6300 C   0  0  0  0  0  0  0  0  0  0  0  0
    1.4390   55.9070   74.4760 C   0  0  0  0  0  0  0  0  0  0  0  0
    1.8190   56.8610   75.4240 C   0  0  0  0  0  0  0  0  0  0  0  0
    1.1420   58.0950   75.5670 C   0  0  0  0  0  0  0  0  0  0  0  0
    1.6350   59.1080   76.6130 C   0  0  0  0  0  0  0  0  0  0  0  0
    2.5830   60.1180   75.9490 C   0  0  0  0  0  0  0  0  0  0  0  0
    2.3500   58.4830   77.8250 C   0  0  0  0  0  0  0  0  0  0  0  0
    0.5190   59.8050   77.1770 O   0  0  0  0  0  0  0  0  0  0  0  0
    1.0102   61.2120   74.2356 H   0  0  0  0  0  0  0  0  0  0  0  0
    0.2585   63.2340   75.0040 H   0  0  0  0  0  0  0  0  0  0  0  0
   -0.1189   65.6527   74.5836 H   0  0  0  0  0  0  0  0  0  0  0  0
   -0.1857   66.5250   72.2519 H   0  0  0  0  0  0  0  0  0  0  0  0
    0.4782   62.5294   70.7475 H   0  0  0  0  0  0  0  0  0  0  0  0
    0.1444   64.4192   69.1439 H   0  0  0  0  0  0  0  0  0  0  0  0
    0.1389   67.1266   70.6020 H   0  0  0  0  0  0  0  0  0  0  0  0
   -2.0958   66.9992   68.3099 H   0  0  0  0  0  0  0  0  0  0  0  0
   -2.1442   68.0050   66.0161 H   0  0  0  0  0  0  0  0  0  0  0  0
    3.3692   67.9893   66.4657 H   0  0  0  0  0  0  0  0  0  0  0  0
    1.2814   69.4480   62.9800 H   0  0  0  0  0  0  0  0  0  0  0  0
   -0.9021   68.9018   64.0640 H   0  0  0  0  0  0  0  0  0  0  0  0
    2.9623   62.5518   72.5371 H   0  0  0  0  0  0  0  0  0  0  0  0
    3.9777   61.1191   73.1113 H   0  0  0  0  0  0  0  0  0  0  0  0
    6.5030   61.7737   70.8123 H   0  0  0  0  0  0  0  0  0  0  0  0
    6.3331   61.0077   72.1571 H   0  0  0  0  0  0  0  0  0  0  0  0
    4.9033   60.3429   69.3593 H   0  0  0  0  0  0  0  0  0  0  0  0
    4.4543   59.3271   70.4511 H   0  0  0  0  0  0  0  0  0  0  0  0
    3.5064   63.6412   70.8203 H   0  0  0  0  0  0  0  0  0  0  0  0
    5.0622   63.2037   69.9266 H   0  0  0  0  0  0  0  0  0  0  0  0
   -1.5298   61.0391   73.2543 H   0  0  0  0  0  0  0  0  0  0  0  0
   -0.6319   59.6065   72.5529 H   0  0  0  0  0  0  0  0  0  0  0  0
   -0.4212   60.2726   75.4904 H   0  0  0  0  0  0  0  0  0  0  0  0
   -1.8259   59.3355   74.8316 H   0  0  0  0  0  0  0  0  0  0  0  0
   -1.1550   57.5636   73.0552 H   0  0  0  0  0  0  0  0  0  0  0  0
    0.0659   55.4084   72.8855 H   0  0  0  0  0  0  0  0  0  0  0  0
    1.9877   54.9565   74.4019 H   0  0  0  0  0  0  0  0  0  0  0  0
    2.6739   56.6450   76.0816 H   0  0  0  0  0  0  0  0  0  0  0  0
    3.1161   60.6859   76.7257 H   0  0  0  0  0  0  0  0  0  0  0  0
    3.3108   59.5810   75.3229 H   0  0  0  0  0  0  0  0  0  0  0  0
    2.0010   60.8103   75.3229 H   0  0  0  0  0  0  0  0  0  0  0  0
    1.9056   58.8714   78.7533 H   0  0  0  0  0  0  0  0  0  0  0  0
    2.2365   57.3893   77.7938 H   0  0  0  0  0  0  0  0  0  0  0  0
    3.4187   58.7417   77.7938 H   0  0  0  0  0  0  0  0  0  0  0  0
    0.5736   59.7709   78.1649 H   0  0  0  0  0  0  0  0  0  0  0  0
  2  1  1  0
  3  2  2  0
  4  3  1  0
  5  4  2  0
  6  5  1  0
  7  6  2  0
  7  2  1  0
  8  6  1  0
  9  8  2  0
 10  9  1  0
 11 10  2  0
 12 11  1  0
 13 12  2  0
 14 13  1  0
 15 10  1  0
 15 14  2  0
 16 14  1  0
 17 16  2  0
 18 17  1  0
 19 18  2  0
 19 13  1  0
 20 17  1  0
 21  1  1  0
 22 21  1  0
 23 22  1  0
 24 23  1  0
 25 24  1  0
 25 23  1  0
 26 23  1  0
 28 27  1  0
 28 26  1  0
 29 28  2  0
 30  1  1  0
 31 30  1  0
 32 31  1  0
 33 32  2  0
 34 33  1  0
 35 34  2  0
 36 35  1  0
 37 32  1  0
 37 36  2  0
 38 37  1  0
 39 38  1  0
 40 38  1  0
 41 38  1  0
  1 42  1  1
  3 43  1  0
  4 44  1  0
  5 45  1  0
  7 46  1  0
  8 47  1  0
  9 48  1  0
 11 49  1  0
 12 50  1  0
 16 51  1  0
 18 52  1  0
 19 53  1  0
 22 54  1  0
 22 55  1  0
 24 56  1  0
 24 57  1  0
 25 58  1  0
 25 59  1  0
 26 60  1  0
 26 61  1  0
 30 62  1  0
 30 63  1  0
 31 64  1  0
 31 65  1  0
 33 66  1  0
 34 67  1  0
 35 68  1  0
 36 69  1  0
 39 70  1  0
 39 71  1  0
 39 72  1  0
 40 73  1  0
 40 74  1  0
 40 75  1  0
 41 76  1  0
M  CHG  1  27  -1
M  END
>  <score>  (7) 
-10.271

$$$$
=
     RDKit          3D

 76 80  0  0  0  0  0  0  0  0999 V2000
    0.8050   62.0370   74.0760 C   0  0  2  0  0  0  0  0  0  0  0  0
    0.4270   63.4340   73.5790 C   0  0  0  0  0  0  0  0  0  0  0  0
   -0.0280   64.4010   74.4960 C   0  0  0  0  0  0  0  0  0  0  0  0
   -0.4160   65.6750   74.0770 C   0  0  0  0  0  0  0  0  0  0  0  0
   -0.3630   66.0130   72.7280 C   0  0  0  0  0  0  0  0  0  0  0  0
    0.0820   65.0800   71.7900 C   0  0  0  0  0  0  0  0  0  0  0  0
    0.4510   63.7940   72.2190 C   0  0  0  0  0  0  0  0  0  0  0  0
    0.1420   65.4580   70.3750 C   0  0  0  0  0  0  0  0  0  0  0  0
    0.2210   66.7400   69.9820 C   0  0  0  0  0  0  0  0  0  0  0  0
    0.2610   67.1750   68.5780 C   0  0  0  0  0  0  0  0  0  0  0  0
   -0.8950   67.1300   67.8120 C   0  0  0  0  0  0  0  0  0  0  0  0
   -0.8340   67.5470   66.4860 C   0  0  0  0  0  0  0  0  0  0  0  0
    0.3780   68.0000   65.9580 C   0  0  0  0  0  0  0  0  0  0  0  0
    1.5050   68.0140   66.8070 C   0  0  0  0  0  0  0  0  0  0  0  0
    1.4460   67.6110   68.0870 N   0  0  0  0  0  0  0  0  0  0  0  0
    2.7140   68.4630   66.2970 C   0  0  0  0  0  0  0  0  0  0  0  0
    2.8210   68.8910   64.9740 C   0  0  0  0  0  0  0  0  0  0  0  0
    1.7130   68.8770   64.1330 C   0  0  0  0  0  0  0  0  0  0  0  0
    0.4870   68.4310   64.6250 C   0  0  0  0  0  0  0  0  0  0  0  0
    4.3370   69.4410   64.3720 Cl  0  0  0  0  0  0  0  0  0  0  0  0
   -0.0560   61.5660   75.6400 S   0  0  0  0  0  0  0  0  0  0  0  0
    0.0670   59.7580   75.6860 C   0  0  0  0  0  0  0  0  0  0  0  0
   -0.7090   59.0110   74.6240 C   0  0  0  0  0  0  0  0  0  0  0  0
    0.1140   58.2060   73.6270 C   0  0  0  0  0  0  0  0  0  0  0  0
   -0.7200   57.4920   74.6420 C   0  0  0  0  0  0  0  0  0  0  0  0
   -1.9180   59.7400   74.0340 C   0  0  0  0  0  0  0  0  0  0  0  0
   -3.1940   58.9270   75.8820 O   0  0  0  0  0  1  0  0  0  0  0  0
   -3.2160   59.6700   74.8590 C   0  0  0  0  0  0  0  0  0  0  0  0
   -4.1560   60.3990   74.4270 O   0  0  0  0  0  0  0  0  0  0  0  0
    2.3090   61.6850   74.0550 C   0  0  0  0  0  0  0  0  0  0  0  0
    3.0380   62.1370   72.7810 C   0  0  0  0  0  0  0  0  0  0  0  0
    3.2000   60.9930   71.7930 C   0  0  0  0  0  0  0  0  0  0  0  0
    3.1020   59.6920   72.3340 C   0  0  0  0  0  0  0  0  0  0  0  0
    3.2360   58.5610   71.5370 C   0  0  0  0  0  0  0  0  0  0  0  0
    3.4690   58.7100   70.1810 C   0  0  0  0  0  0  0  0  0  0  0  0
    3.5730   59.9880   69.6260 C   0  0  0  0  0  0  0  0  0  0  0  0
    3.4580   61.1630   70.4060 C   0  0  0  0  0  0  0  0  0  0  0  0
    3.5550   62.5360   69.7200 C   0  0  0  0  0  0  0  0  0  0  0  0
    3.8480   62.3470   68.2240 C   0  0  0  0  0  0  0  0  0  0  0  0
    4.6170   63.4770   70.3160 C   0  0  0  0  0  0  0  0  0  0  0  0
    2.3210   63.2440   69.8770 O   0  0  0  0  0  0  0  0  0  0  0  0
    0.4047   61.3756   73.2936 H   0  0  0  0  0  0  0  0  0  0  0  0
   -0.0788   64.1472   75.5651 H   0  0  0  0  0  0  0  0  0  0  0  0
   -0.7643   66.4131   74.8146 H   0  0  0  0  0  0  0  0  0  0  0  0
   -0.6722   67.0166   72.4006 H   0  0  0  0  0  0  0  0  0  0  0  0
    0.7666   63.0499   71.4729 H   0  0  0  0  0  0  0  0  0  0  0  0
    0.1217   64.6669   69.6110 H   0  0  0  0  0  0  0  0  0  0  0  0
    0.2582   67.5152   70.7615 H   0  0  0  0  0  0  0  0  0  0  0  0
   -1.8409   66.7718   68.2444 H   0  0  0  0  0  0  0  0  0  0  0  0
   -1.7355   67.5202   65.8563 H   0  0  0  0  0  0  0  0  0  0  0  0
    3.6020   68.4818   66.9459 H   0  0  0  0  0  0  0  0  0  0  0  0
    1.8032   69.2145   63.0900 H   0  0  0  0  0  0  0  0  0  0  0  0
   -0.3958   68.4165   63.9690 H   0  0  0  0  0  0  0  0  0  0  0  0
    1.1284   59.4905   75.5773 H   0  0  0  0  0  0  0  0  0  0  0  0
   -0.3788   59.4558   76.6451 H   0  0  0  0  0  0  0  0  0  0  0  0
   -0.1758   58.1855   72.5661 H   0  0  0  0  0  0  0  0  0  0  0  0
    1.1754   58.1807   73.3394 H   0  0  0  0  0  0  0  0  0  0  0  0
   -1.6212   56.9466   74.3252 H   0  0  0  0  0  0  0  0  0  0  0  0
   -0.5215   56.7258   75.4059 H   0  0  0  0  0  0  0  0  0  0  0  0
   -1.6488   60.8003   73.9193 H   0  0  0  0  0  0  0  0  0  0  0  0
   -2.1404   59.2274   73.0865 H   0  0  0  0  0  0  0  0  0  0  0  0
    2.7895   62.1682   74.9185 H   0  0  0  0  0  0  0  0  0  0  0  0
    2.3799   60.5879   74.0903 H   0  0  0  0  0  0  0  0  0  0  0  0
    2.4582   62.9410   72.3042 H   0  0  0  0  0  0  0  0  0  0  0  0
    4.0401   62.4906   73.0652 H   0  0  0  0  0  0  0  0  0  0  0  0
    2.9153   59.5709   73.4113 H   0  0  0  0  0  0  0  0  0  0  0  0
    3.1576   57.5572   71.9799 H   0  0  0  0  0  0  0  0  0  0  0  0
    3.5723   57.8221   69.5400 H   0  0  0  0  0  0  0  0  0  0  0  0
    3.7505   60.0841   68.5447 H   0  0  0  0  0  0  0  0  0  0  0  0
    4.7667   61.7544   68.1023 H   0  0  0  0  0  0  0  0  0  0  0  0
    3.0067   61.8209   67.7492 H   0  0  0  0  0  0  0  0  0  0  0  0
    3.9804   63.3304   67.7492 H   0  0  0  0  0  0  0  0  0  0  0  0
    4.5694   63.4348   71.4142 H   0  0  0  0  0  0  0  0  0  0  0  0
    5.6160   63.1621   69.9799 H   0  0  0  0  0  0  0  0  0  0  0  0
    4.4247   64.5066   69.9799 H   0  0  0  0  0  0  0  0  0  0  0  0
    2.1253   63.3563   70.8409 H   0  0  0  0  0  0  0  0  0  0  0  0
  2  1  1  0
  3  2  2  0
  4  3  1  0
  5  4  2  0
  6  5  1  0
  7  6  2  0
  7  2  1  0
  8  6  1  0
  9  8  2  0
 10  9  1  0
 11 10  2  0
 12 11  1  0
 13 12  2  0
 14 13  1  0
 15 10  1  0
 15 14  2  0
 16 14  1  0
 17 16  2  0
 18 17  1  0
 19 18  2  0
 19 13  1  0
 20 17  1  0
 21  1  1  0
 22 21  1  0
 23 22  1  0
 24 23  1  0
 25 24  1  0
 25 23  1  0
 26 23  1  0
 28 27  1  0
 28 26  1  0
 29 28  2  0
 30  1  1  0
 31 30  1  0
 32 31  1  0
 33 32  2  0
 34 33  1  0
 35 34  2  0
 36 35  1  0
 37 32  1  0
 37 36  2  0
 38 37  1  0
 39 38  1  0
 40 38  1  0
 41 38  1  0
  1 42  1  6
  3 43  1  0
  4 44  1  0
  5 45  1  0
  7 46  1  0
  8 47  1  0
  9 48  1  0
 11 49  1  0
 12 50  1  0
 16 51  1  0
 18 52  1  0
 19 53  1  0
 22 54  1  0
 22 55  1  0
 24 56  1  0
 24 57  1  0
 25 58  1  0
 25 59  1  0
 26 60  1  0
 26 61  1  0
 30 62  1  0
 30 63  1  0
 31 64  1  0
 31 65  1  0
 33 66  1  0
 34 67  1  0
 35 68  1  0
 36 69  1  0
 39 70  1  0
 39 71  1  0
 39 72  1  0
 40 73  1  0
 40 74  1  0
 40 75  1  0
 41 76  1  0
M  CHG  1  27  -1
M  END
>  <score>  (8) 
-9.932

$$$$
=
     RDKit          3D

 76 80  0  0  0  0  0  0  0  0999 V2000
    0.7490   64.4110   70.5060 C   0  0  2  0  0  0  0  0  0  0  0  0
    0.3800   63.7970   71.8580 C   0  0  0  0  0  0  0  0  0  0  0  0
    0.1810   64.6330   72.9720 C   0  0  0  0  0  0  0  0  0  0  0  0
   -0.1240   64.1100   74.2310 C   0  0  0  0  0  0  0  0  0  0  0  0
   -0.2290   62.7330   74.4070 C   0  0  0  0  0  0  0  0  0  0  0  0
   -0.0370   61.8730   73.3250 C   0  0  0  0  0  0  0  0  0  0  0  0
    0.2880   62.4090   72.0670 C   0  0  0  0  0  0  0  0  0  0  0  0
   -0.1650   60.4260   73.5270 C   0  0  0  0  0  0  0  0  0  0  0  0
    0.8850   59.5950   73.4220 C   0  0  0  0  0  0  0  0  0  0  0  0
    0.8070   58.1370   73.5920 C   0  0  0  0  0  0  0  0  0  0  0  0
    1.8510   57.3370   73.1490 C   0  0  0  0  0  0  0  0  0  0  0  0
    1.7560   55.9600   73.3210 C   0  0  0  0  0  0  0  0  0  0  0  0
    0.6240   55.4140   73.9320 C   0  0  0  0  0  0  0  0  0  0  0  0
   -0.3900   56.3000   74.3540 C   0  0  0  0  0  0  0  0  0  0  0  0
   -0.3000   57.6300   74.1870 N   0  0  0  0  0  0  0  0  0  0  0  0
   -1.5190   55.7730   74.9640 C   0  0  0  0  0  0  0  0  0  0  0  0
   -1.6560   54.3990   75.1560 C   0  0  0  0  0  0  0  0  0  0  0  0
   -0.6590   53.5220   74.7410 C   0  0  0  0  0  0  0  0  0  0  0  0
    0.4850   54.0300   74.1270 C   0  0  0  0  0  0  0  0  0  0  0  0
   -3.0700   53.7770   75.9160 Cl  0  0  0  0  0  0  0  0  0  0  0  0
    2.4860   64.0470   69.9940 S   0  0  0  0  0  0  0  0  0  0  0  0
    2.4130   62.3530   69.3530 C   0  0  0  0  0  0  0  0  0  0  0  0
    3.2700   61.3340   70.0700 C   0  0  0  0  0  0  0  0  0  0  0  0
    3.0760   59.8800   69.6600 C   0  0  0  0  0  0  0  0  0  0  0  0
    4.3410   60.5860   69.2940 C   0  0  0  0  0  0  0  0  0  0  0  0
    3.4850   61.5660   71.5670 C   0  0  0  0  0  0  0  0  0  0  0  0
    5.5300   62.7910   71.4100 O   0  0  0  0  0  1  0  0  0  0  0  0
    4.9350   61.8470   72.0050 C   0  0  0  0  0  0  0  0  0  0  0  0
    5.3540   61.1100   72.9440 O   0  0  0  0  0  0  0  0  0  0  0  0
    0.3200   65.8770   70.2780 C   0  0  0  0  0  0  0  0  0  0  0  0
    0.9650   66.5320   69.0470 C   0  0  0  0  0  0  0  0  0  0  0  0
   -0.0800   67.0940   68.0990 C   0  0  0  0  0  0  0  0  0  0  0  0
   -1.4270   66.8740   68.4640 C   0  0  0  0  0  0  0  0  0  0  0  0
   -2.4780   67.3330   67.6790 C   0  0  0  0  0  0  0  0  0  0  0  0
   -2.2020   68.0240   66.5120 C   0  0  0  0  0  0  0  0  0  0  0  0
   -0.8770   68.2500   66.1300 C   0  0  0  0  0  0  0  0  0  0  0  0
    0.2190   67.7850   66.8930 C   0  0  0  0  0  0  0  0  0  0  0  0
    1.6500   68.0960   66.4250 C   0  0  0  0  0  0  0  0  0  0  0  0
    2.3260   69.0500   67.4220 C   0  0  0  0  0  0  0  0  0  0  0  0
    1.7450   68.7080   65.0150 C   0  0  0  0  0  0  0  0  0  0  0  0
    2.4070   66.8840   66.3400 O   0  0  0  0  0  0  0  0  0  0  0  0
    0.1006   63.8712   69.8001 H   0  0  0  0  0  0  0  0  0  0  0  0
    0.2675   65.7227   72.8489 H   0  0  0  0  0  0  0  0  0  0  0  0
   -0.2813   64.7867   75.0839 H   0  0  0  0  0  0  0  0  0  0  0  0
   -0.4636   62.3224   75.4002 H   0  0  0  0  0  0  0  0  0  0  0  0
    0.4750   61.7262   71.2251 H   0  0  0  0  0  0  0  0  0  0  0  0
   -1.1524   60.0079   73.7723 H   0  0  0  0  0  0  0  0  0  0  0  0
    1.8674   60.0342   73.1939 H   0  0  0  0  0  0  0  0  0  0  0  0
    2.7359   57.7830   72.6714 H   0  0  0  0  0  0  0  0  0  0  0  0
    2.5688   55.3033   72.9774 H   0  0  0  0  0  0  0  0  0  0  0  0
   -2.3182   56.4495   75.3013 H   0  0  0  0  0  0  0  0  0  0  0  0
   -0.7721   52.4388   74.8957 H   0  0  0  0  0  0  0  0  0  0  0  0
    1.2798   53.3460   73.7948 H   0  0  0  0  0  0  0  0  0  0  0  0
    1.3678   62.0154   69.4132 H   0  0  0  0  0  0  0  0  0  0  0  0
    2.8112   62.4066   68.3290 H   0  0  0  0  0  0  0  0  0  0  0  0
    3.0907   59.0880   70.4233 H   0  0  0  0  0  0  0  0  0  0  0  0
    2.3062   59.3287   69.1001 H   0  0  0  0  0  0  0  0  0  0  0  0
    5.2846   60.3113   69.7881 H   0  0  0  0  0  0  0  0  0  0  0  0
    4.8825   60.7655   68.3535 H   0  0  0  0  0  0  0  0  0  0  0  0
    2.8701   62.4277   71.8658 H   0  0  0  0  0  0  0  0  0  0  0  0
    3.2047   60.6218   72.0569 H   0  0  0  0  0  0  0  0  0  0  0  0
   -0.7723   65.9021   70.1508 H   0  0  0  0  0  0  0  0  0  0  0  0
    0.6572   66.4477   71.1558 H   0  0  0  0  0  0  0  0  0  0  0  0
    1.6207   67.3498   69.3805 H   0  0  0  0  0  0  0  0  0  0  0  0
    1.5382   65.7624   68.5092 H   0  0  0  0  0  0  0  0  0  0  0  0
   -1.6492   66.3263   69.3917 H   0  0  0  0  0  0  0  0  0  0  0  0
   -3.5192   67.1489   67.9823 H   0  0  0  0  0  0  0  0  0  0  0  0
   -3.0260   68.3954   65.8850 H   0  0  0  0  0  0  0  0  0  0  0  0
   -0.6797   68.8091   65.2035 H   0  0  0  0  0  0  0  0  0  0  0  0
    2.0983   68.7286   68.4491 H   0  0  0  0  0  0  0  0  0  0  0  0
    3.4147   69.0329   67.2653 H   0  0  0  0  0  0  0  0  0  0  0  0
    1.9490   70.0714   67.2653 H   0  0  0  0  0  0  0  0  0  0  0  0
    1.9133   69.7920   65.0964 H   0  0  0  0  0  0  0  0  0  0  0  0
    2.5823   68.2468   64.4708 H   0  0  0  0  0  0  0  0  0  0  0  0
    0.8073   68.5223   64.4708 H   0  0  0  0  0  0  0  0  0  0  0  0
    2.6109   66.5576   67.2521 H   0  0  0  0  0  0  0  0  0  0  0  0
  2  1  1  0
  3  2  2  0
  4  3  1  0
  5  4  2  0
  6  5  1  0
  7  6  2  0
  7  2  1  0
  8  6  1  0
  9  8  2  0
 10  9  1  0
 11 10  2  0
 12 11  1  0
 13 12  2  0
 14 13  1  0
 15 10  1  0
 15 14  2  0
 16 14  1  0
 17 16  2  0
 18 17  1  0
 19 18  2  0
 19 13  1  0
 20 17  1  0
 21  1  1  0
 22 21  1  0
 23 22  1  0
 24 23  1  0
 25 24  1  0
 25 23  1  0
 26 23  1  0
 28 27  1  0
 28 26  1  0
 29 28  2  0
 30  1  1  0
 31 30  1  0
 32 31  1  0
 33 32  2  0
 34 33  1  0
 35 34  2  0
 36 35  1  0
 37 32  1  0
 37 36  2  0
 38 37  1  0
 39 38  1  0
 40 38  1  0
 41 38  1  0
  1 42  1  6
  3 43  1  0
  4 44  1  0
  5 45  1  0
  7 46  1  0
  8 47  1  0
  9 48  1  0
 11 49  1  0
 12 50  1  0
 16 51  1  0
 18 52  1  0
 19 53  1  0
 22 54  1  0
 22 55  1  0
 24 56  1  0
 24 57  1  0
 25 58  1  0
 25 59  1  0
 26 60  1  0
 26 61  1  0
 30 62  1  0
 30 63  1  0
 31 64  1  0
 31 65  1  0
 33 66  1  0
 34 67  1  0
 35 68  1  0
 36 69  1  0
 39 70  1  0
 39 71  1  0
 39 72  1  0
 40 73  1  0
 40 74  1  0
 40 75  1  0
 41 76  1  0
M  CHG  1  27  -1
M  END
>  <score>  (9) 
-9.914

$$$$
