=
     RDKit          3D

 40 44  0  0  0  0  0  0  0  0999 V2000
    1.1580   68.5220   67.6790 C   0  0  0  0  0  0  0  0  0  0  0  0
    1.8360   68.9450   66.4520 N   0  0  0  0  0  0  0  0  0  0  0  0
    1.1190   68.8830   65.2380 C   0  0  0  0  0  0  0  0  0  0  0  0
   -0.2830   68.8140   65.1730 C   0  0  0  0  0  0  0  0  0  0  0  0
   -0.9590   68.7770   63.9490 C   0  0  0  0  0  0  0  0  0  0  0  0
   -0.2460   68.8140   62.7570 C   0  0  0  0  0  0  0  0  0  0  0  0
    1.1420   68.8950   62.7910 C   0  0  0  0  0  0  0  0  0  0  0  0
    1.8270   68.9350   64.0230 C   0  0  0  0  0  0  0  0  0  0  0  0
    3.3430   69.0080   64.0450 C   0  0  0  0  0  0  0  0  0  0  0  0
    3.9560   69.4260   65.3680 C   0  0  0  0  0  0  0  0  0  0  0  0
    3.1820   69.3590   66.5420 C   0  0  0  0  0  0  0  0  0  0  0  0
    3.7880   69.7550   67.7450 C   0  0  0  0  0  0  0  0  0  0  0  0
    5.1210   70.1800   67.7900 C   0  0  0  0  0  0  0  0  0  0  0  0
    5.8760   70.2280   66.6260 C   0  0  0  0  0  0  0  0  0  0  0  0
    5.2980   69.8550   65.4180 C   0  0  0  0  0  0  0  0  0  0  0  0
    3.9360   67.7560   63.5640 N   0  0  0  0  0  0  0  0  0  0  0  0
    4.7570   67.7290   62.4860 N   0  0  0  0  0  0  0  0  0  0  0  0
    5.1330   66.4720   62.2940 N   0  0  0  0  0  0  0  0  0  0  0  0
    4.5460   65.7000   63.2580 C   0  0  0  0  0  0  0  0  0  0  0  0
    3.7680   66.4950   64.0930 C   0  0  0  0  0  0  0  0  0  0  0  0
    3.0460   65.9780   65.1750 C   0  0  0  0  0  0  0  0  0  0  0  0
    3.1350   64.5980   65.3930 C   0  0  0  0  0  0  0  0  0  0  0  0
    3.9090   63.7800   64.5670 C   0  0  0  0  0  0  0  0  0  0  0  0
    4.6240   64.3190   63.4910 C   0  0  0  0  0  0  0  0  0  0  0  0
    1.7255   68.8761   68.5522 H   0  0  0  0  0  0  0  0  0  0  0  0
    0.1442   68.9481   67.7033 H   0  0  0  0  0  0  0  0  0  0  0  0
    1.0950   67.4241   67.7033 H   0  0  0  0  0  0  0  0  0  0  0  0
   -0.8629   68.7885   66.1074 H   0  0  0  0  0  0  0  0  0  0  0  0
   -2.0573   68.7185   63.9301 H   0  0  0  0  0  0  0  0  0  0  0  0
   -0.7755   68.7795   61.7934 H   0  0  0  0  0  0  0  0  0  0  0  0
    1.7099   68.9281   61.8495 H   0  0  0  0  0  0  0  0  0  0  0  0
    3.5915   69.8262   63.3530 H   0  0  0  0  0  0  0  0  0  0  0  0
    3.2009   69.7307   68.6749 H   0  0  0  0  0  0  0  0  0  0  0  0
    5.5709   70.4764   68.7490 H   0  0  0  0  0  0  0  0  0  0  0  0
    6.9245   70.5589   66.6593 H   0  0  0  0  0  0  0  0  0  0  0  0
    5.8927   69.8949   64.4935 H   0  0  0  0  0  0  0  0  0  0  0  0
    2.4374   66.6255   65.8234 H   0  0  0  0  0  0  0  0  0  0  0  0
    2.5839   64.1486   66.2323 H   0  0  0  0  0  0  0  0  0  0  0  0
    3.9574   62.6989   64.7644 H   0  0  0  0  0  0  0  0  0  0  0  0
    5.2340   63.6734   62.8421 H   0  0  0  0  0  0  0  0  0  0  0  0
  2  1  1  0
  3  2  1  0
  4  3  2  0
  5  4  1  0
  6  5  2  0
  7  6  1  0
  8  7  2  0
  8  3  1  0
  9  8  1  0
 10  9  1  0
 11 10  2  0
 11  2  1  0
 12 11  1  0
 13 12  2  0
 14 13  1  0
 15 10  1  0
 15 14  2  0
 16  9  1  0
 17 16  1  0
 18 17  2  0
 19 18  1  0
 20 19  2  0
 20 16  1  0
 21 20  1  0
 22 21  2  0
 23 22  1  0
 24 23  2  0
 24 19  1  0
  1 25  1  0
  1 26  1  0
  1 27  1  0
  4 28  1  0
  5 29  1  0
  6 30  1  0
  7 31  1  0
  9 32  1  0
 12 33  1  0
 13 34  1  0
 14 35  1  0
 15 36  1  0
 21 37  1  0
 22 38  1  0
 23 39  1  0
 24 40  1  0
M  END
>  <score>  (1) 
-12.237

$$$$
=
     RDKit          3D

 40 44  0  0  0  0  0  0  0  0999 V2000
    4.4890   67.7710   61.6490 C   0  0  0  0  0  0  0  0  0  0  0  0
    3.4020   67.4240   62.5660 N   0  0  0  0  0  0  0  0  0  0  0  0
    2.2330   68.2130   62.5460 C   0  0  0  0  0  0  0  0  0  0  0  0
    1.8860   69.0500   61.4710 C   0  0  0  0  0  0  0  0  0  0  0  0
    0.7060   69.8010   61.4780 C   0  0  0  0  0  0  0  0  0  0  0  0
   -0.1610   69.7280   62.5600 C   0  0  0  0  0  0  0  0  0  0  0  0
    0.1500   68.8980   63.6330 C   0  0  0  0  0  0  0  0  0  0  0  0
    1.3370   68.1370   63.6290 C   0  0  0  0  0  0  0  0  0  0  0  0
    1.6720   67.2480   64.8120 C   0  0  0  0  0  0  0  0  0  0  0  0
    2.7420   66.2030   64.5600 C   0  0  0  0  0  0  0  0  0  0  0  0
    3.5930   66.3380   63.4480 C   0  0  0  0  0  0  0  0  0  0  0  0
    4.5710   65.3480   63.2510 C   0  0  0  0  0  0  0  0  0  0  0  0
    4.7150   64.2750   64.1360 C   0  0  0  0  0  0  0  0  0  0  0  0
    3.8770   64.1610   65.2370 C   0  0  0  0  0  0  0  0  0  0  0  0
    2.8910   65.1190   65.4490 C   0  0  0  0  0  0  0  0  0  0  0  0
    1.9900   68.0490   65.9980 N   0  0  0  0  0  0  0  0  0  0  0  0
    1.1280   68.1480   67.0390 N   0  0  0  0  0  0  0  0  0  0  0  0
    1.6850   68.9300   67.9540 N   0  0  0  0  0  0  0  0  0  0  0  0
    2.9070   69.3270   67.4880 C   0  0  0  0  0  0  0  0  0  0  0  0
    3.1360   68.7780   66.2310 C   0  0  0  0  0  0  0  0  0  0  0  0
    4.3100   69.0100   65.5050 C   0  0  0  0  0  0  0  0  0  0  0  0
    5.2700   69.8350   66.1020 C   0  0  0  0  0  0  0  0  0  0  0  0
    5.0610   70.3980   67.3630 C   0  0  0  0  0  0  0  0  0  0  0  0
    3.8800   70.1510   68.0710 C   0  0  0  0  0  0  0  0  0  0  0  0
    5.3802   68.0555   62.2277 H   0  0  0  0  0  0  0  0  0  0  0  0
    4.7250   66.9035   61.0151 H   0  0  0  0  0  0  0  0  0  0  0  0
    4.1787   68.6147   61.0151 H   0  0  0  0  0  0  0  0  0  0  0  0
    2.5589   69.1159   60.6033 H   0  0  0  0  0  0  0  0  0  0  0  0
    0.4643   70.4510   60.6242 H   0  0  0  0  0  0  0  0  0  0  0  0
   -1.0869   70.3218   62.5691 H   0  0  0  0  0  0  0  0  0  0  0  0
   -0.5356   68.8352   64.4909 H   0  0  0  0  0  0  0  0  0  0  0  0
    0.7545   66.6683   64.9910 H   0  0  0  0  0  0  0  0  0  0  0  0
    5.2390   65.4189   62.3799 H   0  0  0  0  0  0  0  0  0  0  0  0
    5.4944   63.5191   63.9594 H   0  0  0  0  0  0  0  0  0  0  0  0
    3.9919   63.3197   65.9362 H   0  0  0  0  0  0  0  0  0  0  0  0
    2.2219   65.0300   66.3176 H   0  0  0  0  0  0  0  0  0  0  0  0
    4.4705   68.5648   64.5120 H   0  0  0  0  0  0  0  0  0  0  0  0
    6.2082   70.0443   65.5672 H   0  0  0  0  0  0  0  0  0  0  0  0
    5.8344   71.0435   67.8048 H   0  0  0  0  0  0  0  0  0  0  0  0
    3.7181   70.5942   69.0647 H   0  0  0  0  0  0  0  0  0  0  0  0
  2  1  1  0
  3  2  1  0
  4  3  2  0
  5  4  1  0
  6  5  2  0
  7  6  1  0
  8  7  2  0
  8  3  1  0
  9  8  1  0
 10  9  1  0
 11 10  2  0
 11  2  1  0
 12 11  1  0
 13 12  2  0
 14 13  1  0
 15 10  1  0
 15 14  2  0
 16  9  1  0
 17 16  1  0
 18 17  2  0
 19 18  1  0
 20 19  2  0
 20 16  1  0
 21 20  1  0
 22 21  2  0
 23 22  1  0
 24 23  2  0
 24 19  1  0
  1 25  1  0
  1 26  1  0
  1 27  1  0
  4 28  1  0
  5 29  1  0
  6 30  1  0
  7 31  1  0
  9 32  1  0
 12 33  1  0
 13 34  1  0
 14 35  1  0
 15 36  1  0
 21 37  1  0
 22 38  1  0
 23 39  1  0
 24 40  1  0
M  END
>  <score>  (2) 
-11.573

$$$$
=
     RDKit          3D

 40 44  0  0  0  0  0  0  0  0999 V2000
    5.7840   68.1690   64.6400 C   0  0  0  0  0  0  0  0  0  0  0  0
    4.5490   68.8340   65.0590 N   0  0  0  0  0  0  0  0  0  0  0  0
    4.5220   69.4590   66.3240 C   0  0  0  0  0  0  0  0  0  0  0  0
    5.6820   69.8160   67.0320 C   0  0  0  0  0  0  0  0  0  0  0  0
    5.6140   70.4550   68.2750 C   0  0  0  0  0  0  0  0  0  0  0  0
    4.3810   70.7590   68.8360 C   0  0  0  0  0  0  0  0  0  0  0  0
    3.2160   70.4300   68.1510 C   0  0  0  0  0  0  0  0  0  0  0  0
    3.2790   69.7870   66.8980 C   0  0  0  0  0  0  0  0  0  0  0  0
    2.0000   69.4200   66.1690 C   0  0  0  0  0  0  0  0  0  0  0  0
    2.1610   69.0930   64.6960 C   0  0  0  0  0  0  0  0  0  0  0  0
    3.4380   68.7870   64.1900 C   0  0  0  0  0  0  0  0  0  0  0  0
    3.5420   68.4890   62.8210 C   0  0  0  0  0  0  0  0  0  0  0  0
    2.4180   68.4730   61.9870 C   0  0  0  0  0  0  0  0  0  0  0  0
    1.1630   68.7630   62.5030 C   0  0  0  0  0  0  0  0  0  0  0  0
    1.0310   69.0750   63.8520 C   0  0  0  0  0  0  0  0  0  0  0  0
    1.2850   68.3490   66.8690 N   0  0  0  0  0  0  0  0  0  0  0  0
    1.9470   67.3690   67.5310 N   0  0  0  0  0  0  0  0  0  0  0  0
    1.0430   66.5540   68.0590 N   0  0  0  0  0  0  0  0  0  0  0  0
   -0.1980   67.0230   67.7280 C   0  0  0  0  0  0  0  0  0  0  0  0
   -0.0790   68.1780   66.9620 C   0  0  0  0  0  0  0  0  0  0  0  0
   -1.1880   68.8830   66.4780 C   0  0  0  0  0  0  0  0  0  0  0  0
   -2.4510   68.3720   66.7980 C   0  0  0  0  0  0  0  0  0  0  0  0
   -2.5940   67.2140   67.5650 C   0  0  0  0  0  0  0  0  0  0  0  0
   -1.4710   66.5260   68.0400 C   0  0  0  0  0  0  0  0  0  0  0  0
    6.3547   67.8617   65.5288 H   0  0  0  0  0  0  0  0  0  0  0  0
    5.5368   67.2820   64.0382 H   0  0  0  0  0  0  0  0  0  0  0  0
    6.3885   68.8636   64.0382 H   0  0  0  0  0  0  0  0  0  0  0  0
    6.6670   69.5877   66.5988 H   0  0  0  0  0  0  0  0  0  0  0  0
    6.5394   70.7170   68.8088 H   0  0  0  0  0  0  0  0  0  0  0  0
    4.3258   71.2566   69.8155 H   0  0  0  0  0  0  0  0  0  0  0  0
    2.2375   70.6735   68.5906 H   0  0  0  0  0  0  0  0  0  0  0  0
    1.3974   70.3401   66.1855 H   0  0  0  0  0  0  0  0  0  0  0  0
    4.5303   68.2629   62.3944 H   0  0  0  0  0  0  0  0  0  0  0  0
    2.5298   68.2300   60.9200 H   0  0  0  0  0  0  0  0  0  0  0  0
    0.2783   68.7463   61.8495 H   0  0  0  0  0  0  0  0  0  0  0  0
    0.0382   69.3094   64.2636 H   0  0  0  0  0  0  0  0  0  0  0  0
   -1.0719   69.7954   65.8747 H   0  0  0  0  0  0  0  0  0  0  0  0
   -3.3500   68.8936   66.4377 H   0  0  0  0  0  0  0  0  0  0  0  0
   -3.6009   66.8379   67.7988 H   0  0  0  0  0  0  0  0  0  0  0  0
   -1.5852   65.6146   68.6453 H   0  0  0  0  0  0  0  0  0  0  0  0
  2  1  1  0
  3  2  1  0
  4  3  2  0
  5  4  1  0
  6  5  2  0
  7  6  1  0
  8  7  2  0
  8  3  1  0
  9  8  1  0
 10  9  1  0
 11 10  2  0
 11  2  1  0
 12 11  1  0
 13 12  2  0
 14 13  1  0
 15 10  1  0
 15 14  2  0
 16  9  1  0
 17 16  1  0
 18 17  2  0
 19 18  1  0
 20 19  2  0
 20 16  1  0
 21 20  1  0
 22 21  2  0
 23 22  1  0
 24 23  2  0
 24 19  1  0
  1 25  1  0
  1 26  1  0
  1 27  1  0
  4 28  1  0
  5 29  1  0
  6 30  1  0
  7 31  1  0
  9 32  1  0
 12 33  1  0
 13 34  1  0
 14 35  1  0
 15 36  1  0
 21 37  1  0
 22 38  1  0
 23 39  1  0
 24 40  1  0
M  END
>  <score>  (3) 
-10.683

$$$$
=
     RDKit          3D

 40 44  0  0  0  0  0  0  0  0999 V2000
   -1.7950   68.7590   65.7060 C   0  0  0  0  0  0  0  0  0  0  0  0
   -0.4330   68.3130   66.0020 N   0  0  0  0  0  0  0  0  0  0  0  0
   -0.1940   67.6660   67.2330 C   0  0  0  0  0  0  0  0  0  0  0  0
   -1.2120   67.0870   68.0100 C   0  0  0  0  0  0  0  0  0  0  0  0
   -0.9320   66.4350   69.2150 C   0  0  0  0  0  0  0  0  0  0  0  0
    0.3760   66.3390   69.6700 C   0  0  0  0  0  0  0  0  0  0  0  0
    1.4060   66.8910   68.9140 C   0  0  0  0  0  0  0  0  0  0  0  0
    1.1290   67.5480   67.6980 C   0  0  0  0  0  0  0  0  0  0  0  0
    2.2610   68.1590   66.8920 C   0  0  0  0  0  0  0  0  0  0  0  0
    1.9270   68.4960   65.4510 C   0  0  0  0  0  0  0  0  0  0  0  0
    0.5790   68.5840   65.0550 C   0  0  0  0  0  0  0  0  0  0  0  0
    0.3140   68.8980   63.7120 C   0  0  0  0  0  0  0  0  0  0  0  0
    1.3450   69.1390   62.7980 C   0  0  0  0  0  0  0  0  0  0  0  0
    2.6700   69.0620   63.2060 C   0  0  0  0  0  0  0  0  0  0  0  0
    2.9630   68.7390   64.5260 C   0  0  0  0  0  0  0  0  0  0  0  0
    2.8310   69.3200   67.5830 N   0  0  0  0  0  0  0  0  0  0  0  0
    2.0950   70.0680   68.4400 N   0  0  0  0  0  0  0  0  0  0  0  0
    2.8720   71.0360   68.9040 N   0  0  0  0  0  0  0  0  0  0  0  0
    4.1090   70.8980   68.3380 C   0  0  0  0  0  0  0  0  0  0  0  0
    4.1180   69.8030   67.4820 C   0  0  0  0  0  0  0  0  0  0  0  0
    5.2530   69.4150   66.7590 C   0  0  0  0  0  0  0  0  0  0  0  0
    6.4070   70.1880   66.9320 C   0  0  0  0  0  0  0  0  0  0  0  0
    6.4210   71.2930   67.7860 C   0  0  0  0  0  0  0  0  0  0  0  0
    5.2740   71.6610   68.4990 C   0  0  0  0  0  0  0  0  0  0  0  0
   -2.3356   68.9360   66.6475 H   0  0  0  0  0  0  0  0  0  0  0  0
   -1.7571   69.6917   65.1240 H   0  0  0  0  0  0  0  0  0  0  0  0
   -2.3161   67.9846   65.1240 H   0  0  0  0  0  0  0  0  0  0  0  0
   -2.2537   67.1482   67.6620 H   0  0  0  0  0  0  0  0  0  0  0  0
   -1.7509   65.9967   69.8043 H   0  0  0  0  0  0  0  0  0  0  0  0
    0.5966   65.8308   70.6203 H   0  0  0  0  0  0  0  0  0  0  0  0
    2.4445   66.8140   69.2683 H   0  0  0  0  0  0  0  0  0  0  0  0
    3.0147   67.3607   66.8236 H   0  0  0  0  0  0  0  0  0  0  0  0
   -0.7301   68.9558   63.3705 H   0  0  0  0  0  0  0  0  0  0  0  0
    1.1057   69.3900   61.7541 H   0  0  0  0  0  0  0  0  0  0  0  0
    3.4822   69.2552   62.4897 H   0  0  0  0  0  0  0  0  0  0  0  0
    4.0116   68.6725   64.8515 H   0  0  0  0  0  0  0  0  0  0  0  0
    5.2382   68.5442   66.0871 H   0  0  0  0  0  0  0  0  0  0  0  0
    7.3221   69.9195   66.3838 H   0  0  0  0  0  0  0  0  0  0  0  0
    7.3438   71.8808   67.8996 H   0  0  0  0  0  0  0  0  0  0  0  0
    5.2865   72.5311   69.1719 H   0  0  0  0  0  0  0  0  0  0  0  0
  2  1  1  0
  3  2  1  0
  4  3  2  0
  5  4  1  0
  6  5  2  0
  7  6  1  0
  8  7  2  0
  8  3  1  0
  9  8  1  0
 10  9  1  0
 11 10  2  0
 11  2  1  0
 12 11  1  0
 13 12  2  0
 14 13  1  0
 15 10  1  0
 15 14  2  0
 16  9  1  0
 17 16  1  0
 18 17  2  0
 19 18  1  0
 20 19  2  0
 20 16  1  0
 21 20  1  0
 22 21  2  0
 23 22  1  0
 24 23  2  0
 24 19  1  0
  1 25  1  0
  1 26  1  0
  1 27  1  0
  4 28  1  0
  5 29  1  0
  6 30  1  0
  7 31  1  0
  9 32  1  0
 12 33  1  0
 13 34  1  0
 14 35  1  0
 15 36  1  0
 21 37  1  0
 22 38  1  0
 23 39  1  0
 24 40  1  0
M  END
>  <score>  (4) 
-10.485

$$$$
