=
     RDKit          3D

 88 93  0  0  0  0  0  0  0  0999 V2000
    3.3910   63.0780   69.7630 C   0  0  1  0  0  0  0  0  0  0  0  0
    4.2180   62.0260   70.5290 C   0  0  0  0  0  0  0  0  0  0  0  0
    5.2410   62.3960   71.1090 O   0  0  0  0  0  0  0  0  0  0  0  0
    3.7480   60.7460   70.5460 N   0  0  0  0  0  0  0  0  0  0  0  0
    4.3620   59.7090   71.3690 C   0  0  0  0  0  0  0  0  0  0  0  0
    3.3670   58.5740   71.6410 C   0  0  0  0  0  0  0  0  0  0  0  0
    3.1220   58.4490   73.1040 N   0  0  0  0  0  0  0  0  0  0  0  0
    1.7250   58.2630   73.3730 C   0  0  0  0  0  0  0  0  0  0  0  0
    0.8930   59.3870   73.4690 C   0  0  0  0  0  0  0  0  0  0  0  0
    1.3320   60.8040   73.2170 C   0  0  0  0  0  0  0  0  0  0  0  0
    0.2900   61.5820   72.4060 C   0  0  0  0  0  0  0  0  0  0  0  0
   -1.1660   61.3510   72.8330 C   0  0  0  0  0  0  0  0  0  0  0  0
   -1.3280   60.3900   74.0080 C   0  0  0  0  0  0  0  0  0  0  0  0
   -0.4360   59.1870   73.8400 C   0  0  0  0  0  0  0  0  0  0  0  0
   -0.9680   57.9760   74.0930 N   0  0  0  0  0  0  0  0  0  0  0  0
   -0.1870   56.8940   73.9770 C   0  0  0  0  0  0  0  0  0  0  0  0
    1.1790   56.9660   73.6230 C   0  0  0  0  0  0  0  0  0  0  0  0
    1.9130   55.7520   73.5440 C   0  0  0  0  0  0  0  0  0  0  0  0
    1.3140   54.5190   73.8020 C   0  0  0  0  0  0  0  0  0  0  0  0
   -0.0270   54.4710   74.1450 C   0  0  0  0  0  0  0  0  0  0  0  0
   -0.7590   55.6560   74.2290 C   0  0  0  0  0  0  0  0  0  0  0  0
    2.2500   62.3530   69.0940 N   0  0  0  0  0  4  0  0  0  0  0  0
    2.8360   64.1780   70.6610 C   0  0  0  0  0  0  0  0  0  0  0  0
    1.3060   64.2440   70.6770 C   0  0  0  0  0  0  0  0  0  0  0  0
    0.0070   66.2450   70.9960 O   0  0  0  0  0  0  0  0  0  0  0  0
    0.8200   65.6340   70.3140 C   0  0  0  0  0  0  0  0  0  0  0  0
    1.3510   66.1070   69.1430 N   0  0  0  0  0  0  0  0  0  0  0  0
    1.1020   67.4710   68.6950 C   0  0  0  0  0  0  0  0  0  0  0  0
    1.4710   67.6340   67.2130 C   0  0  0  0  0  0  0  0  0  0  0  0
    1.6170   69.0800   66.9120 N   0  0  0  0  0  0  0  0  0  0  0  0
    2.9350   69.3720   66.4310 C   0  0  0  0  0  0  0  0  0  0  0  0
    3.2840   69.1160   65.0870 C   0  0  0  0  0  0  0  0  0  0  0  0
    2.2880   68.5850   64.0820 C   0  0  0  0  0  0  0  0  0  0  0  0
    2.7570   68.6420   62.6290 C   0  0  0  0  0  0  0  0  0  0  0  0
    4.1930   68.1570   62.5110 C   0  0  0  0  0  0  0  0  0  0  0  0
    5.1070   69.0720   63.3140 C   0  0  0  0  0  0  0  0  0  0  0  0
    4.6200   69.3090   64.7210 C   0  0  0  0  0  0  0  0  0  0  0  0
    5.5680   69.7550   65.5790 N   0  0  0  0  0  0  0  0  0  0  0  0
    5.2330   70.0110   66.8490 C   0  0  0  0  0  0  0  0  0  0  0  0
    3.9280   69.8360   67.3420 C   0  0  0  0  0  0  0  0  0  0  0  0
    3.6730   70.1420   68.7030 C   0  0  0  0  0  0  0  0  0  0  0  0
    4.6840   70.5940   69.5490 C   0  0  0  0  0  0  0  0  0  0  0  0
    5.9680   70.7550   69.0490 C   0  0  0  0  0  0  0  0  0  0  0  0
    6.2260   70.4640   67.7090 C   0  0  0  0  0  0  0  0  0  0  0  0
    4.0507   63.5766   69.0376 H   0  0  0  0  0  0  0  0  0  0  0  0
    2.9357   60.5040   69.9607 H   0  0  0  0  0  0  0  0  0  0  0  0
    5.2387   59.3026   70.8434 H   0  0  0  0  0  0  0  0  0  0  0  0
    4.6647   60.1521   72.3292 H   0  0  0  0  0  0  0  0  0  0  0  0
    2.4175   58.7922   71.1303 H   0  0  0  0  0  0  0  0  0  0  0  0
    3.7860   57.6294   71.2638 H   0  0  0  0  0  0  0  0  0  0  0  0
    3.8560   58.4904   73.8254 H   0  0  0  0  0  0  0  0  0  0  0  0
    1.4817   61.3084   74.1830 H   0  0  0  0  0  0  0  0  0  0  0  0
    2.2674   60.7766   72.6388 H   0  0  0  0  0  0  0  0  0  0  0  0
    0.5097   62.6550   72.5076 H   0  0  0  0  0  0  0  0  0  0  0  0
    0.3694   61.2171   71.3713 H   0  0  0  0  0  0  0  0  0  0  0  0
   -1.6000   62.3207   73.1180 H   0  0  0  0  0  0  0  0  0  0  0  0
   -1.6780   60.8908   71.9751 H   0  0  0  0  0  0  0  0  0  0  0  0
   -1.0606   60.9104   74.9395 H   0  0  0  0  0  0  0  0  0  0  0  0
   -2.3740   60.0517   74.0462 H   0  0  0  0  0  0  0  0  0  0  0  0
    2.9786   55.7853   73.2730 H   0  0  0  0  0  0  0  0  0  0  0  0
    1.9021   53.5919   73.7336 H   0  0  0  0  0  0  0  0  0  0  0  0
   -0.5118   53.5051   74.3499 H   0  0  0  0  0  0  0  0  0  0  0  0
   -1.8230   55.6067   74.5037 H   0  0  0  0  0  0  0  0  0  0  0  0
    1.6267   61.9570   69.8121 H   0  0  0  0  0  0  0  0  0  0  0  0
    1.7210   63.0133   68.5065 H   0  0  0  0  0  0  0  0  0  0  0  0
    2.6231   61.5936   68.5065 H   0  0  0  0  0  0  0  0  0  0  0  0
    3.1869   63.9985   71.6879 H   0  0  0  0  0  0  0  0  0  0  0  0
    3.1956   65.1358   70.2570 H   0  0  0  0  0  0  0  0  0  0  0  0
    0.9068   63.5217   69.9498 H   0  0  0  0  0  0  0  0  0  0  0  0
    0.9546   64.0027   71.6910 H   0  0  0  0  0  0  0  0  0  0  0  0
    1.9379   65.4860   68.5678 H   0  0  0  0  0  0  0  0  0  0  0  0
    0.0357   67.7057   68.8291 H   0  0  0  0  0  0  0  0  0  0  0  0
    1.7227   68.1567   69.2905 H   0  0  0  0  0  0  0  0  0  0  0  0
    2.4200   67.1164   67.0094 H   0  0  0  0  0  0  0  0  0  0  0  0
    0.6822   67.1989   66.5817 H   0  0  0  0  0  0  0  0  0  0  0  0
    0.8710   69.7799   67.0327 H   0  0  0  0  0  0  0  0  0  0  0  0
    2.0745   67.5354   64.3325 H   0  0  0  0  0  0  0  0  0  0  0  0
    1.4023   69.2339   64.1489 H   0  0  0  0  0  0  0  0  0  0  0  0
    2.1075   68.0017   62.0141 H   0  0  0  0  0  0  0  0  0  0  0  0
    2.7047   69.6839   62.2800 H   0  0  0  0  0  0  0  0  0  0  0  0
    4.2665   67.1313   62.9015 H   0  0  0  0  0  0  0  0  0  0  0  0
    4.4982   68.1706   61.4543 H   0  0  0  0  0  0  0  0  0  0  0  0
    6.1060   68.6142   63.3620 H   0  0  0  0  0  0  0  0  0  0  0  0
    5.1242   70.0468   62.8047 H   0  0  0  0  0  0  0  0  0  0  0  0
    2.6544   70.0199   69.0998 H   0  0  0  0  0  0  0  0  0  0  0  0
    4.4660   70.8209   70.6030 H   0  0  0  0  0  0  0  0  0  0  0  0
    6.7771   71.1096   69.7044 H   0  0  0  0  0  0  0  0  0  0  0  0
    7.2468   70.5973   67.3215 H   0  0  0  0  0  0  0  0  0  0  0  0
  2  1  1  0
  3  2  2  0
  4  2  1  0
  5  4  1  0
  6  5  1  0
  7  6  1  0
  8  7  1  0
  9  8  1  0
 10  9  1  0
 11 10  1  0
 12 11  1  0
 13 12  1  0
 14  9  2  0
 14 13  1  0
 15 14  1  0
 16 15  2  0
 17 16  1  0
 17  8  2  0
 18 17  1  0
 19 18  2  0
 20 19  1  0
 21 20  2  0
 21 16  1  0
 22  1  1  0
 23  1  1  0
 24 23  1  0
 26 24  1  0
 26 25  2  0
 27 26  1  0
 28 27  1  0
 29 28  1  0
 30 29  1  0
 31 30  1  0
 32 31  1  0
 33 32  1  0
 34 33  1  0
 35 34  1  0
 36 35  1  0
 37 36  1  0
 37 32  2  0
 38 37  1  0
 39 38  2  0
 40 39  1  0
 40 31  2  0
 41 40  1  0
 42 41  2  0
 43 42  1  0
 44 39  1  0
 44 43  2  0
  1 45  1  6
  4 46  1  0
  5 47  1  0
  5 48  1  0
  6 49  1  0
  6 50  1  0
  7 51  1  0
 10 52  1  0
 10 53  1  0
 11 54  1  0
 11 55  1  0
 12 56  1  0
 12 57  1  0
 13 58  1  0
 13 59  1  0
 18 60  1  0
 19 61  1  0
 20 62  1  0
 21 63  1  0
 22 64  1  0
 22 65  1  0
 22 66  1  0
 23 67  1  0
 23 68  1  0
 24 69  1  0
 24 70  1  0
 27 71  1  0
 28 72  1  0
 28 73  1  0
 29 74  1  0
 29 75  1  0
 30 76  1  0
 33 77  1  0
 33 78  1  0
 34 79  1  0
 34 80  1  0
 35 81  1  0
 35 82  1  0
 36 83  1  0
 36 84  1  0
 41 85  1  0
 42 86  1  0
 43 87  1  0
 44 88  1  0
M  CHG  1  22   1
M  END
>  <score>  (1) 
-12.771

$$$$
=
     RDKit          3D

 88 93  0  0  0  0  0  0  0  0999 V2000
    3.4660   63.0300   69.7610 C   0  0  1  0  0  0  0  0  0  0  0  0
    4.2060   61.9890   70.6240 C   0  0  0  0  0  0  0  0  0  0  0  0
    5.1490   62.3700   71.3210 O   0  0  0  0  0  0  0  0  0  0  0  0
    3.7490   60.7040   70.5900 N   0  0  0  0  0  0  0  0  0  0  0  0
    4.2700   59.6760   71.4850 C   0  0  0  0  0  0  0  0  0  0  0  0
    3.2490   58.5440   71.6610 C   0  0  0  0  0  0  0  0  0  0  0  0
    3.0600   58.2490   73.1080 N   0  0  0  0  0  0  0  0  0  0  0  0
    1.6700   58.0670   73.4140 C   0  0  0  0  0  0  0  0  0  0  0  0
    0.8440   59.1930   73.5310 C   0  0  0  0  0  0  0  0  0  0  0  0
    1.2790   60.6090   73.2680 C   0  0  0  0  0  0  0  0  0  0  0  0
    0.2180   61.3900   72.4850 C   0  0  0  0  0  0  0  0  0  0  0  0
   -1.2260   61.1620   72.9500 C   0  0  0  0  0  0  0  0  0  0  0  0
   -1.3590   60.2010   74.1290 C   0  0  0  0  0  0  0  0  0  0  0  0
   -0.4750   58.9960   73.9380 C   0  0  0  0  0  0  0  0  0  0  0  0
   -1.0040   57.7860   74.2040 N   0  0  0  0  0  0  0  0  0  0  0  0
   -0.2290   56.7020   74.0680 C   0  0  0  0  0  0  0  0  0  0  0  0
    1.1280   56.7710   73.6780 C   0  0  0  0  0  0  0  0  0  0  0  0
    1.8560   55.5550   73.5800 C   0  0  0  0  0  0  0  0  0  0  0  0
    1.2600   54.3230   73.8530 C   0  0  0  0  0  0  0  0  0  0  0  0
   -0.0710   54.2790   74.2310 C   0  0  0  0  0  0  0  0  0  0  0  0
   -0.7980   55.4650   74.3340 C   0  0  0  0  0  0  0  0  0  0  0  0
    2.3320   62.3170   69.0680 N   0  0  0  0  0  4  0  0  0  0  0  0
    2.9120   64.1980   70.5690 C   0  0  0  0  0  0  0  0  0  0  0  0
    1.3810   64.2460   70.6070 C   0  0  0  0  0  0  0  0  0  0  0  0
    0.0150   66.2020   70.9260 O   0  0  0  0  0  0  0  0  0  0  0  0
    0.8740   65.6340   70.2640 C   0  0  0  0  0  0  0  0  0  0  0  0
    1.4460   66.1580   69.1350 N   0  0  0  0  0  0  0  0  0  0  0  0
    1.1810   67.5290   68.7170 C   0  0  0  0  0  0  0  0  0  0  0  0
    1.3190   67.6710   67.1940 C   0  0  0  0  0  0  0  0  0  0  0  0
    1.5800   69.0950   66.8680 N   0  0  0  0  0  0  0  0  0  0  0  0
    2.9020   69.2650   66.3380 C   0  0  0  0  0  0  0  0  0  0  0  0
    3.9390   69.7860   67.1420 C   0  0  0  0  0  0  0  0  0  0  0  0
    3.7340   70.1310   68.6000 C   0  0  0  0  0  0  0  0  0  0  0  0
    5.0210   70.4040   69.3770 C   0  0  0  0  0  0  0  0  0  0  0  0
    5.9510   71.2980   68.5730 C   0  0  0  0  0  0  0  0  0  0  0  0
    6.3470   70.5910   67.2830 C   0  0  0  0  0  0  0  0  0  0  0  0
    5.1670   70.0400   66.5230 C   0  0  0  0  0  0  0  0  0  0  0  0
    5.4070   69.7810   65.2170 N   0  0  0  0  0  0  0  0  0  0  0  0
    4.4280   69.2740   64.4590 C   0  0  0  0  0  0  0  0  0  0  0  0
    3.1450   68.9950   64.9600 C   0  0  0  0  0  0  0  0  0  0  0  0
    2.1780   68.4530   64.0770 C   0  0  0  0  0  0  0  0  0  0  0  0
    2.4710   68.2070   62.7360 C   0  0  0  0  0  0  0  0  0  0  0  0
    3.7400   68.4950   62.2560 C   0  0  0  0  0  0  0  0  0  0  0  0
    4.7010   69.0210   63.1200 C   0  0  0  0  0  0  0  0  0  0  0  0
    4.1841   63.4618   69.0484 H   0  0  0  0  0  0  0  0  0  0  0  0
    3.0149   60.4522   69.9129 H   0  0  0  0  0  0  0  0  0  0  0  0
    5.1973   59.2636   71.0606 H   0  0  0  0  0  0  0  0  0  0  0  0
    4.4693   60.1293   72.4673 H   0  0  0  0  0  0  0  0  0  0  0  0
    2.2874   58.8495   71.2229 H   0  0  0  0  0  0  0  0  0  0  0  0
    3.6200   57.6411   71.1539 H   0  0  0  0  0  0  0  0  0  0  0  0
    3.8236   58.1843   73.7962 H   0  0  0  0  0  0  0  0  0  0  0  0
    1.4552   61.1126   74.2299 H   0  0  0  0  0  0  0  0  0  0  0  0
    2.1986   60.5796   72.6651 H   0  0  0  0  0  0  0  0  0  0  0  0
    0.4427   62.4625   72.5814 H   0  0  0  0  0  0  0  0  0  0  0  0
    0.2694   61.0258   71.4483 H   0  0  0  0  0  0  0  0  0  0  0  0
   -1.6504   62.1326   73.2464 H   0  0  0  0  0  0  0  0  0  0  0  0
   -1.7614   60.7030   72.1058 H   0  0  0  0  0  0  0  0  0  0  0  0
   -1.0658   60.7208   75.0530 H   0  0  0  0  0  0  0  0  0  0  0  0
   -2.4044   59.8651   74.1945 H   0  0  0  0  0  0  0  0  0  0  0  0
    2.9144   55.5853   73.2819 H   0  0  0  0  0  0  0  0  0  0  0  0
    1.8432   53.3942   73.7685 H   0  0  0  0  0  0  0  0  0  0  0  0
   -0.5526   53.3143   74.4489 H   0  0  0  0  0  0  0  0  0  0  0  0
   -1.8549   55.4180   74.6354 H   0  0  0  0  0  0  0  0  0  0  0  0
    1.6961   61.9172   69.7727 H   0  0  0  0  0  0  0  0  0  0  0  0
    1.8151   62.9854   68.4790 H   0  0  0  0  0  0  0  0  0  0  0  0
    2.7104   61.5615   68.4790 H   0  0  0  0  0  0  0  0  0  0  0  0
    3.2830   64.1139   71.6011 H   0  0  0  0  0  0  0  0  0  0  0  0
    3.2516   65.1210   70.0763 H   0  0  0  0  0  0  0  0  0  0  0  0
    0.9800   63.5259   69.8785 H   0  0  0  0  0  0  0  0  0  0  0  0
    1.0466   63.9911   71.6235 H   0  0  0  0  0  0  0  0  0  0  0  0
    2.0763   65.5712   68.5699 H   0  0  0  0  0  0  0  0  0  0  0  0
    0.1585   67.8053   69.0138 H   0  0  0  0  0  0  0  0  0  0  0  0
    1.9126   68.1928   69.2008 H   0  0  0  0  0  0  0  0  0  0  0  0
    2.1557   67.0512   66.8392 H   0  0  0  0  0  0  0  0  0  0  0  0
    0.3928   67.3388   66.7023 H   0  0  0  0  0  0  0  0  0  0  0  0
    0.9026   69.8589   67.0041 H   0  0  0  0  0  0  0  0  0  0  0  0
    3.1034   71.0306   68.6541 H   0  0  0  0  0  0  0  0  0  0  0  0
    3.2699   69.2494   69.0663 H   0  0  0  0  0  0  0  0  0  0  0  0
    4.7719   70.9016   70.3259 H   0  0  0  0  0  0  0  0  0  0  0  0
    5.5282   69.4474   69.5711 H   0  0  0  0  0  0  0  0  0  0  0  0
    5.4362   72.2397   68.3317 H   0  0  0  0  0  0  0  0  0  0  0  0
    6.8532   71.5139   69.1642 H   0  0  0  0  0  0  0  0  0  0  0  0
    6.8741   71.3093   66.6379 H   0  0  0  0  0  0  0  0  0  0  0  0
    6.9855   69.7389   67.5592 H   0  0  0  0  0  0  0  0  0  0  0  0
    1.1727   68.2209   64.4584 H   0  0  0  0  0  0  0  0  0  0  0  0
    1.7045   67.7894   62.0666 H   0  0  0  0  0  0  0  0  0  0  0  0
    3.9873   68.3098   61.2003 H   0  0  0  0  0  0  0  0  0  0  0  0
    5.7053   69.2422   62.7295 H   0  0  0  0  0  0  0  0  0  0  0  0
  2  1  1  0
  3  2  2  0
  4  2  1  0
  5  4  1  0
  6  5  1  0
  7  6  1  0
  8  7  1  0
  9  8  1  0
 10  9  1  0
 11 10  1  0
 12 11  1  0
 13 12  1  0
 14  9  2  0
 14 13  1  0
 15 14  1  0
 16 15  2  0
 17 16  1  0
 17  8  2  0
 18 17  1  0
 19 18  2  0
 20 19  1  0
 21 20  2  0
 21 16  1  0
 22  1  1  0
 23  1  1  0
 24 23  1  0
 26 24  1  0
 26 25  2  0
 27 26  1  0
 28 27  1  0
 29 28  1  0
 30 29  1  0
 31 30  1  0
 32 31  1  0
 33 32  1  0
 34 33  1  0
 35 34  1  0
 36 35  1  0
 37 36  1  0
 37 32  2  0
 38 37  1  0
 39 38  2  0
 40 39  1  0
 40 31  2  0
 41 40  1  0
 42 41  2  0
 43 42  1  0
 44 39  1  0
 44 43  2  0
  1 45  1  6
  4 46  1  0
  5 47  1  0
  5 48  1  0
  6 49  1  0
  6 50  1  0
  7 51  1  0
 10 52  1  0
 10 53  1  0
 11 54  1  0
 11 55  1  0
 12 56  1  0
 12 57  1  0
 13 58  1  0
 13 59  1  0
 18 60  1  0
 19 61  1  0
 20 62  1  0
 21 63  1  0
 22 64  1  0
 22 65  1  0
 22 66  1  0
 23 67  1  0
 23 68  1  0
 24 69  1  0
 24 70  1  0
 27 71  1  0
 28 72  1  0
 28 73  1  0
 29 74  1  0
 29 75  1  0
 30 76  1  0
 33 77  1  0
 33 78  1  0
 34 79  1  0
 34 80  1  0
 35 81  1  0
 35 82  1  0
 36 83  1  0
 36 84  1  0
 41 85  1  0
 42 86  1  0
 43 87  1  0
 44 88  1  0
M  CHG  1  22   1
M  END
>  <score>  (2) 
-12.543

$$$$
=
     RDKit          3D

 88 93  0  0  0  0  0  0  0  0999 V2000
    3.3680   63.0300   69.7650 C   0  0  1  0  0  0  0  0  0  0  0  0
    4.1790   61.9120   70.4500 C   0  0  0  0  0  0  0  0  0  0  0  0
    5.2450   62.2100   70.9920 O   0  0  0  0  0  0  0  0  0  0  0  0
    3.6490   60.6550   70.4430 N   0  0  0  0  0  0  0  0  0  0  0  0
    4.2510   59.5600   71.1960 C   0  0  0  0  0  0  0  0  0  0  0  0
    3.2100   58.4710   71.4910 C   0  0  0  0  0  0  0  0  0  0  0  0
    3.1110   58.2450   72.9590 N   0  0  0  0  0  0  0  0  0  0  0  0
    1.7390   58.1520   73.3700 C   0  0  0  0  0  0  0  0  0  0  0  0
    1.2170   56.9010   73.7220 C   0  0  0  0  0  0  0  0  0  0  0  0
    2.0130   55.6270   73.7970 C   0  0  0  0  0  0  0  0  0  0  0  0
    1.6430   54.8010   75.0330 C   0  0  0  0  0  0  0  0  0  0  0  0
    0.1400   54.7210   75.3300 C   0  0  0  0  0  0  0  0  0  0  0  0
   -0.7360   55.4710   74.3310 C   0  0  0  0  0  0  0  0  0  0  0  0
   -0.1450   56.8190   74.0100 C   0  0  0  0  0  0  0  0  0  0  0  0
   -0.9800   57.8770   73.9870 N   0  0  0  0  0  0  0  0  0  0  0  0
   -0.4820   59.0810   73.6780 C   0  0  0  0  0  0  0  0  0  0  0  0
    0.8760   59.2920   73.3520 C   0  0  0  0  0  0  0  0  0  0  0  0
    1.2880   60.6120   73.0270 C   0  0  0  0  0  0  0  0  0  0  0  0
    0.3890   61.6790   73.0310 C   0  0  0  0  0  0  0  0  0  0  0  0
   -0.9390   61.4510   73.3560 C   0  0  0  0  0  0  0  0  0  0  0  0
   -1.3570   60.1580   73.6740 C   0  0  0  0  0  0  0  0  0  0  0  0
    2.2580   62.3690   68.9860 N   0  0  0  0  0  4  0  0  0  0  0  0
    2.7710   64.0300   70.7490 C   0  0  0  0  0  0  0  0  0  0  0  0
    1.2430   64.1180   70.6840 C   0  0  0  0  0  0  0  0  0  0  0  0
    0.0650   66.1670   71.1380 O   0  0  0  0  0  0  0  0  0  0  0  0
    0.7950   65.5360   70.3840 C   0  0  0  0  0  0  0  0  0  0  0  0
    1.2580   66.0110   69.1860 N   0  0  0  0  0  0  0  0  0  0  0  0
    1.0380   67.3940   68.7830 C   0  0  0  0  0  0  0  0  0  0  0  0
    1.3400   67.5810   67.2890 C   0  0  0  0  0  0  0  0  0  0  0  0
    1.4670   69.0320   67.0050 N   0  0  0  0  0  0  0  0  0  0  0  0
    2.7490   69.3320   66.4380 C   0  0  0  0  0  0  0  0  0  0  0  0
    3.0140   69.0690   65.0760 C   0  0  0  0  0  0  0  0  0  0  0  0
    1.9600   68.5220   64.1400 C   0  0  0  0  0  0  0  0  0  0  0  0
    2.3340   68.5720   62.6600 C   0  0  0  0  0  0  0  0  0  0  0  0
    3.7640   68.0980   62.4530 C   0  0  0  0  0  0  0  0  0  0  0  0
    4.7190   69.0280   63.1900 C   0  0  0  0  0  0  0  0  0  0  0  0
    4.3220   69.2710   64.6240 C   0  0  0  0  0  0  0  0  0  0  0  0
    5.3180   69.7310   65.4160 N   0  0  0  0  0  0  0  0  0  0  0  0
    5.0630   69.9940   66.7020 C   0  0  0  0  0  0  0  0  0  0  0  0
    3.7950   69.8110   67.2800 C   0  0  0  0  0  0  0  0  0  0  0  0
    3.6250   70.1250   68.6520 C   0  0  0  0  0  0  0  0  0  0  0  0
    4.6840   70.5920   69.4290 C   0  0  0  0  0  0  0  0  0  0  0  0
    5.9310   70.7600   68.8460 C   0  0  0  0  0  0  0  0  0  0  0  0
    6.1060   70.4620   67.4940 C   0  0  0  0  0  0  0  0  0  0  0  0
    4.0474   63.6034   69.1172 H   0  0  0  0  0  0  0  0  0  0  0  0
    2.7991   60.4737   69.8900 H   0  0  0  0  0  0  0  0  0  0  0  0
    5.0723   59.1251   70.6075 H   0  0  0  0  0  0  0  0  0  0  0  0
    4.6330   59.9532   72.1496 H   0  0  0  0  0  0  0  0  0  0  0  0
    2.2305   58.7893   71.1046 H   0  0  0  0  0  0  0  0  0  0  0  0
    3.5181   57.5352   71.0018 H   0  0  0  0  0  0  0  0  0  0  0  0
    3.9181   58.1660   73.5940 H   0  0  0  0  0  0  0  0  0  0  0  0
    1.8143   55.0287   72.8956 H   0  0  0  0  0  0  0  0  0  0  0  0
    3.0785   55.8914   73.8670 H   0  0  0  0  0  0  0  0  0  0  0  0
    2.0169   53.7772   74.8843 H   0  0  0  0  0  0  0  0  0  0  0  0
    2.1008   55.3110   75.8934 H   0  0  0  0  0  0  0  0  0  0  0  0
   -0.1572   53.6619   75.3223 H   0  0  0  0  0  0  0  0  0  0  0  0
   -0.0148   55.2002   76.3080 H   0  0  0  0  0  0  0  0  0  0  0  0
   -0.8140   54.8815   73.4056 H   0  0  0  0  0  0  0  0  0  0  0  0
   -1.7315   55.6185   74.7752 H   0  0  0  0  0  0  0  0  0  0  0  0
    2.3404   60.7973   72.7661 H   0  0  0  0  0  0  0  0  0  0  0  0
    0.7315   62.6933   72.7782 H   0  0  0  0  0  0  0  0  0  0  0  0
   -1.6583   62.2832   73.3632 H   0  0  0  0  0  0  0  0  0  0  0  0
   -2.4132   59.9873   73.9295 H   0  0  0  0  0  0  0  0  0  0  0  0
    1.5745   61.9620   69.6403 H   0  0  0  0  0  0  0  0  0  0  0  0
    1.7905   63.0694   68.3929 H   0  0  0  0  0  0  0  0  0  0  0  0
    2.6511   61.6243   68.3929 H   0  0  0  0  0  0  0  0  0  0  0  0
    3.0589   63.7298   71.7673 H   0  0  0  0  0  0  0  0  0  0  0  0
    3.1627   65.0216   70.4782 H   0  0  0  0  0  0  0  0  0  0  0  0
    0.8771   63.4493   69.8910 H   0  0  0  0  0  0  0  0  0  0  0  0
    0.8318   63.8183   71.6592 H   0  0  0  0  0  0  0  0  0  0  0  0
    1.7722   65.3779   68.5570 H   0  0  0  0  0  0  0  0  0  0  0  0
   -0.0111   67.6632   68.9754 H   0  0  0  0  0  0  0  0  0  0  0  0
    1.7119   68.0418   69.3628 H   0  0  0  0  0  0  0  0  0  0  0  0
    2.2809   67.0708   67.0353 H   0  0  0  0  0  0  0  0  0  0  0  0
    0.5258   67.1520   66.6864 H   0  0  0  0  0  0  0  0  0  0  0  0
    0.7326   69.7299   67.1904 H   0  0  0  0  0  0  0  0  0  0  0  0
    1.7723   67.4725   64.4109 H   0  0  0  0  0  0  0  0  0  0  0  0
    1.0748   69.1641   64.2590 H   0  0  0  0  0  0  0  0  0  0  0  0
    1.6519   67.9218   62.0926 H   0  0  0  0  0  0  0  0  0  0  0  0
    2.2503   69.6108   62.3080 H   0  0  0  0  0  0  0  0  0  0  0  0
    3.8719   67.0760   62.8451 H   0  0  0  0  0  0  0  0  0  0  0  0
    4.0009   68.1056   61.3788 H   0  0  0  0  0  0  0  0  0  0  0  0
    5.7236   68.5800   63.1763 H   0  0  0  0  0  0  0  0  0  0  0  0
    4.6930   69.9993   62.6743 H   0  0  0  0  0  0  0  0  0  0  0  0
    2.6349   69.9972   69.1139 H   0  0  0  0  0  0  0  0  0  0  0  0
    4.5321   70.8248   70.4933 H   0  0  0  0  0  0  0  0  0  0  0  0
    6.7773   71.1260   69.4458 H   0  0  0  0  0  0  0  0  0  0  0  0
    7.0987   70.6014   67.0411 H   0  0  0  0  0  0  0  0  0  0  0  0
  2  1  1  0
  3  2  2  0
  4  2  1  0
  5  4  1  0
  6  5  1  0
  7  6  1  0
  8  7  1  0
  9  8  1  0
 10  9  1  0
 11 10  1  0
 12 11  1  0
 13 12  1  0
 14  9  2  0
 14 13  1  0
 15 14  1  0
 16 15  2  0
 17 16  1  0
 17  8  2  0
 18 17  1  0
 19 18  2  0
 20 19  1  0
 21 20  2  0
 21 16  1  0
 22  1  1  0
 23  1  1  0
 24 23  1  0
 26 24  1  0
 26 25  2  0
 27 26  1  0
 28 27  1  0
 29 28  1  0
 30 29  1  0
 31 30  1  0
 32 31  1  0
 33 32  1  0
 34 33  1  0
 35 34  1  0
 36 35  1  0
 37 36  1  0
 37 32  2  0
 38 37  1  0
 39 38  2  0
 40 39  1  0
 40 31  2  0
 41 40  1  0
 42 41  2  0
 43 42  1  0
 44 39  1  0
 44 43  2  0
  1 45  1  6
  4 46  1  0
  5 47  1  0
  5 48  1  0
  6 49  1  0
  6 50  1  0
  7 51  1  0
 10 52  1  0
 10 53  1  0
 11 54  1  0
 11 55  1  0
 12 56  1  0
 12 57  1  0
 13 58  1  0
 13 59  1  0
 18 60  1  0
 19 61  1  0
 20 62  1  0
 21 63  1  0
 22 64  1  0
 22 65  1  0
 22 66  1  0
 23 67  1  0
 23 68  1  0
 24 69  1  0
 24 70  1  0
 27 71  1  0
 28 72  1  0
 28 73  1  0
 29 74  1  0
 29 75  1  0
 30 76  1  0
 33 77  1  0
 33 78  1  0
 34 79  1  0
 34 80  1  0
 35 81  1  0
 35 82  1  0
 36 83  1  0
 36 84  1  0
 41 85  1  0
 42 86  1  0
 43 87  1  0
 44 88  1  0
M  CHG  1  22   1
M  END
>  <score>  (3) 
-12.497

$$$$
=
     RDKit          3D

 88 93  0  0  0  0  0  0  0  0999 V2000
    1.1440   64.8210   70.5710 C   0  0  1  0  0  0  0  0  0  0  0  0
    1.0630   66.1850   69.8550 C   0  0  0  0  0  0  0  0  0  0  0  0
    1.7810   67.1010   70.2580 O   0  0  0  0  0  0  0  0  0  0  0  0
    0.2170   66.2870   68.7900 N   0  0  0  0  0  0  0  0  0  0  0  0
    0.1800   67.4760   67.9450 C   0  0  0  0  0  0  0  0  0  0  0  0
    1.4450   67.5660   67.0820 C   0  0  0  0  0  0  0  0  0  0  0  0
    1.5950   68.9440   66.5390 N   0  0  0  0  0  0  0  0  0  0  0  0
    2.9520   69.1910   66.1410 C   0  0  0  0  0  0  0  0  0  0  0  0
    3.3660   68.8100   64.8580 C   0  0  0  0  0  0  0  0  0  0  0  0
    2.4650   68.2320   63.8010 C   0  0  0  0  0  0  0  0  0  0  0  0
    2.7560   68.8320   62.4210 C   0  0  0  0  0  0  0  0  0  0  0  0
    4.2460   68.9840   62.0840 C   0  0  0  0  0  0  0  0  0  0  0  0
    5.1880   68.4970   63.1820 C   0  0  0  0  0  0  0  0  0  0  0  0
    4.7140   68.9590   64.5350 C   0  0  0  0  0  0  0  0  0  0  0  0
    5.6340   69.4650   65.3790 N   0  0  0  0  0  0  0  0  0  0  0  0
    5.2410   69.8570   66.5980 C   0  0  0  0  0  0  0  0  0  0  0  0
    3.9070   69.7430   67.0500 C   0  0  0  0  0  0  0  0  0  0  0  0
    3.6100   70.1790   68.3690 C   0  0  0  0  0  0  0  0  0  0  0  0
    4.5950   70.7100   69.2020 C   0  0  0  0  0  0  0  0  0  0  0  0
    5.8960   70.8150   68.7380 C   0  0  0  0  0  0  0  0  0  0  0  0
    6.2030   70.3880   67.4460 C   0  0  0  0  0  0  0  0  0  0  0  0
    0.0370   63.9570   70.0210 N   0  0  0  0  0  4  0  0  0  0  0  0
    2.4820   64.1170   70.3750 C   0  0  0  0  0  0  0  0  0  0  0  0
    2.3590   62.7360   69.7240 C   0  0  0  0  0  0  0  0  0  0  0  0
    4.4980   62.1960   70.6860 O   0  0  0  0  0  0  0  0  0  0  0  0
    3.4280   61.7950   70.2440 C   0  0  0  0  0  0  0  0  0  0  0  0
    3.0880   60.4730   70.1350 N   0  0  0  0  0  0  0  0  0  0  0  0
    3.9320   59.4250   70.6960 C   0  0  0  0  0  0  0  0  0  0  0  0
    3.0760   58.3060   71.3080 C   0  0  0  0  0  0  0  0  0  0  0  0
    3.0190   58.4970   72.7780 N   0  0  0  0  0  0  0  0  0  0  0  0
    1.6730   58.3830   73.2580 C   0  0  0  0  0  0  0  0  0  0  0  0
    1.1530   57.1320   73.6540 C   0  0  0  0  0  0  0  0  0  0  0  0
    1.9910   55.8730   73.6540 C   0  0  0  0  0  0  0  0  0  0  0  0
    1.3580   54.6860   74.3790 C   0  0  0  0  0  0  0  0  0  0  0  0
   -0.1070   54.5480   74.0000 C   0  0  0  0  0  0  0  0  0  0  0  0
   -0.8650   55.7960   74.4340 C   0  0  0  0  0  0  0  0  0  0  0  0
   -0.2030   57.0760   73.9920 C   0  0  0  0  0  0  0  0  0  0  0  0
   -1.0150   58.1590   73.9850 N   0  0  0  0  0  0  0  0  0  0  0  0
   -0.5190   59.3470   73.6220 C   0  0  0  0  0  0  0  0  0  0  0  0
    0.8230   59.5270   73.2410 C   0  0  0  0  0  0  0  0  0  0  0  0
    1.2530   60.8290   72.8810 C   0  0  0  0  0  0  0  0  0  0  0  0
    0.3780   61.9130   72.8840 C   0  0  0  0  0  0  0  0  0  0  0  0
   -0.9440   61.7170   73.2560 C   0  0  0  0  0  0  0  0  0  0  0  0
   -1.3750   60.4410   73.6200 C   0  0  0  0  0  0  0  0  0  0  0  0
    1.0411   64.9910   71.6529 H   0  0  0  0  0  0  0  0  0  0  0  0
   -0.4142   65.5017   68.5760 H   0  0  0  0  0  0  0  0  0  0  0  0
   -0.7018   67.4260   67.2894 H   0  0  0  0  0  0  0  0  0  0  0  0
    0.1263   68.3664   68.5887 H   0  0  0  0  0  0  0  0  0  0  0  0
    2.3233   67.3192   67.6965 H   0  0  0  0  0  0  0  0  0  0  0  0
    1.3626   66.8559   66.2460 H   0  0  0  0  0  0  0  0  0  0  0  0
    0.8288   69.6277   66.4596 H   0  0  0  0  0  0  0  0  0  0  0  0
    2.6192   67.1438   63.7567 H   0  0  0  0  0  0  0  0  0  0  0  0
    1.4249   68.4712   64.0675 H   0  0  0  0  0  0  0  0  0  0  0  0
    2.2986   68.1807   61.6617 H   0  0  0  0  0  0  0  0  0  0  0  0
    2.3366   69.8489   62.4318 H   0  0  0  0  0  0  0  0  0  0  0  0
    4.4537   68.4077   61.1704 H   0  0  0  0  0  0  0  0  0  0  0  0
    4.4342   70.0607   61.9602 H   0  0  0  0  0  0  0  0  0  0  0  0
    5.2216   67.3976   63.1674 H   0  0  0  0  0  0  0  0  0  0  0  0
    6.1898   68.9123   62.9979 H   0  0  0  0  0  0  0  0  0  0  0  0
    2.5787   70.0959   68.7424 H   0  0  0  0  0  0  0  0  0  0  0  0
    4.3406   71.0427   70.2192 H   0  0  0  0  0  0  0  0  0  0  0  0
    6.6821   71.2325   69.3843 H   0  0  0  0  0  0  0  0  0  0  0  0
    7.2395   70.4748   67.0882 H   0  0  0  0  0  0  0  0  0  0  0  0
   -0.4942   63.5424   70.8000 H   0  0  0  0  0  0  0  0  0  0  0  0
   -0.5929   64.5322   69.4437 H   0  0  0  0  0  0  0  0  0  0  0  0
    0.4420   63.2063   69.4437 H   0  0  0  0  0  0  0  0  0  0  0  0
    3.1164   64.7478   69.7350 H   0  0  0  0  0  0  0  0  0  0  0  0
    2.9158   63.9649   71.3743 H   0  0  0  0  0  0  0  0  0  0  0  0
    1.3681   62.3170   69.9530 H   0  0  0  0  0  0  0  0  0  0  0  0
    2.4875   62.8473   68.6372 H   0  0  0  0  0  0  0  0  0  0  0  0
    2.2187   60.2139   69.6470 H   0  0  0  0  0  0  0  0  0  0  0  0
    4.5612   59.0029   69.8985 H   0  0  0  0  0  0  0  0  0  0  0  0
    4.5592   59.8623   71.4868 H   0  0  0  0  0  0  0  0  0  0  0  0
    2.0593   58.3478   70.8901 H   0  0  0  0  0  0  0  0  0  0  0  0
    3.5195   57.3266   71.0754 H   0  0  0  0  0  0  0  0  0  0  0  0
    3.8373   58.6863   73.3742 H   0  0  0  0  0  0  0  0  0  0  0  0
    2.1703   55.5805   72.6089 H   0  0  0  0  0  0  0  0  0  0  0  0
    2.9151   56.1142   74.1998 H   0  0  0  0  0  0  0  0  0  0  0  0
    1.8919   53.7655   74.1003 H   0  0  0  0  0  0  0  0  0  0  0  0
    1.4297   54.8535   75.4638 H   0  0  0  0  0  0  0  0  0  0  0  0
   -0.1937   54.4271   72.9101 H   0  0  0  0  0  0  0  0  0  0  0  0
   -0.5337   53.6673   74.5024 H   0  0  0  0  0  0  0  0  0  0  0  0
   -1.8764   55.7584   74.0030 H   0  0  0  0  0  0  0  0  0  0  0  0
   -0.8847   55.8008   75.5338 H   0  0  0  0  0  0  0  0  0  0  0  0
    2.3026   60.9871   72.5924 H   0  0  0  0  0  0  0  0  0  0  0  0
    0.7315   62.9136   72.5945 H   0  0  0  0  0  0  0  0  0  0  0  0
   -1.6479   62.5622   73.2639 H   0  0  0  0  0  0  0  0  0  0  0  0
   -2.4250   60.2968   73.9145 H   0  0  0  0  0  0  0  0  0  0  0  0
  2  1  1  0
  3  2  2  0
  4  2  1  0
  5  4  1  0
  6  5  1  0
  7  6  1  0
  8  7  1  0
  9  8  1  0
 10  9  1  0
 11 10  1  0
 12 11  1  0
 13 12  1  0
 14  9  2  0
 14 13  1  0
 15 14  1  0
 16 15  2  0
 17 16  1  0
 17  8  2  0
 18 17  1  0
 19 18  2  0
 20 19  1  0
 21 20  2  0
 21 16  1  0
 22  1  1  0
 23  1  1  0
 24 23  1  0
 26 24  1  0
 26 25  2  0
 27 26  1  0
 28 27  1  0
 29 28  1  0
 30 29  1  0
 31 30  1  0
 32 31  1  0
 33 32  1  0
 34 33  1  0
 35 34  1  0
 36 35  1  0
 37 36  1  0
 37 32  2  0
 38 37  1  0
 39 38  2  0
 40 39  1  0
 40 31  2  0
 41 40  1  0
 42 41  2  0
 43 42  1  0
 44 39  1  0
 44 43  2  0
  1 45  1  1
  4 46  1  0
  5 47  1  0
  5 48  1  0
  6 49  1  0
  6 50  1  0
  7 51  1  0
 10 52  1  0
 10 53  1  0
 11 54  1  0
 11 55  1  0
 12 56  1  0
 12 57  1  0
 13 58  1  0
 13 59  1  0
 18 60  1  0
 19 61  1  0
 20 62  1  0
 21 63  1  0
 22 64  1  0
 22 65  1  0
 22 66  1  0
 23 67  1  0
 23 68  1  0
 24 69  1  0
 24 70  1  0
 27 71  1  0
 28 72  1  0
 28 73  1  0
 29 74  1  0
 29 75  1  0
 30 76  1  0
 33 77  1  0
 33 78  1  0
 34 79  1  0
 34 80  1  0
 35 81  1  0
 35 82  1  0
 36 83  1  0
 36 84  1  0
 41 85  1  0
 42 86  1  0
 43 87  1  0
 44 88  1  0
M  CHG  1  22   1
M  END
>  <score>  (4) 
-12.39

$$$$
=
     RDKit          3D

 88 93  0  0  0  0  0  0  0  0999 V2000
    3.3990   63.0370   69.7760 C   0  0  1  0  0  0  0  0  0  0  0  0
    4.0610   61.9380   70.6310 C   0  0  0  0  0  0  0  0  0  0  0  0
    4.7420   62.2800   71.5990 O   0  0  0  0  0  0  0  0  0  0  0  0
    3.8250   60.6400   70.2800 N   0  0  0  0  0  0  0  0  0  0  0  0
    4.2680   59.5240   71.1090 C   0  0  0  0  0  0  0  0  0  0  0  0
    3.1060   58.5600   71.3830 C   0  0  0  0  0  0  0  0  0  0  0  0
    3.0590   58.2160   72.8310 N   0  0  0  0  0  0  0  0  0  0  0  0
    1.7030   58.1600   73.2980 C   0  0  0  0  0  0  0  0  0  0  0  0
    1.1720   56.9280   73.7020 C   0  0  0  0  0  0  0  0  0  0  0  0
    1.9470   55.6410   73.7760 C   0  0  0  0  0  0  0  0  0  0  0  0
    1.6120   54.8520   75.0470 C   0  0  0  0  0  0  0  0  0  0  0  0
    0.1200   54.8090   75.4060 C   0  0  0  0  0  0  0  0  0  0  0  0
   -0.7810   55.5520   74.4230 C   0  0  0  0  0  0  0  0  0  0  0  0
   -0.1780   56.8810   74.0460 C   0  0  0  0  0  0  0  0  0  0  0  0
   -0.9930   57.9530   74.0310 N   0  0  0  0  0  0  0  0  0  0  0  0
   -0.4860   59.1400   73.6720 C   0  0  0  0  0  0  0  0  0  0  0  0
    0.8620   59.3160   73.2860 C   0  0  0  0  0  0  0  0  0  0  0  0
    1.2850   60.6200   72.9130 C   0  0  0  0  0  0  0  0  0  0  0  0
    0.4060   61.7030   72.9260 C   0  0  0  0  0  0  0  0  0  0  0  0
   -0.9110   61.5090   73.3090 C   0  0  0  0  0  0  0  0  0  0  0  0
   -1.3400   60.2330   73.6760 C   0  0  0  0  0  0  0  0  0  0  0  0
    2.2670   62.3950   69.0140 N   0  0  0  0  0  4  0  0  0  0  0  0
    2.8590   64.1990   70.6020 C   0  0  0  0  0  0  0  0  0  0  0  0
    1.3290   64.2520   70.6580 C   0  0  0  0  0  0  0  0  0  0  0  0
    0.0120   66.2330   71.0290 O   0  0  0  0  0  0  0  0  0  0  0  0
    0.8230   65.6430   70.3260 C   0  0  0  0  0  0  0  0  0  0  0  0
    1.3360   66.1440   69.1590 N   0  0  0  0  0  0  0  0  0  0  0  0
    1.0670   67.5130   68.7390 C   0  0  0  0  0  0  0  0  0  0  0  0
    1.3600   67.6920   67.2420 C   0  0  0  0  0  0  0  0  0  0  0  0
    1.6390   69.1250   66.9770 N   0  0  0  0  0  0  0  0  0  0  0  0
    2.9580   69.2990   66.4420 C   0  0  0  0  0  0  0  0  0  0  0  0
    3.9970   69.8210   67.2440 C   0  0  0  0  0  0  0  0  0  0  0  0
    3.7960   70.1610   68.7030 C   0  0  0  0  0  0  0  0  0  0  0  0
    5.0850   70.4350   69.4760 C   0  0  0  0  0  0  0  0  0  0  0  0
    6.0100   71.3340   68.6720 C   0  0  0  0  0  0  0  0  0  0  0  0
    6.4030   70.6320   67.3780 C   0  0  0  0  0  0  0  0  0  0  0  0
    5.2210   70.0800   66.6210 C   0  0  0  0  0  0  0  0  0  0  0  0
    5.4580   69.8260   65.3130 N   0  0  0  0  0  0  0  0  0  0  0  0
    4.4770   69.3180   64.5570 C   0  0  0  0  0  0  0  0  0  0  0  0
    3.1960   69.0350   65.0620 C   0  0  0  0  0  0  0  0  0  0  0  0
    2.2270   68.4920   64.1810 C   0  0  0  0  0  0  0  0  0  0  0  0
    2.5170   68.2520   62.8390 C   0  0  0  0  0  0  0  0  0  0  0  0
    3.7830   68.5440   62.3540 C   0  0  0  0  0  0  0  0  0  0  0  0
    4.7460   69.0710   63.2160 C   0  0  0  0  0  0  0  0  0  0  0  0
    4.1624   63.4623   69.1080 H   0  0  0  0  0  0  0  0  0  0  0  0
    3.3195   60.4428   69.4045 H   0  0  0  0  0  0  0  0  0  0  0  0
    5.0713   58.9829   70.5875 H   0  0  0  0  0  0  0  0  0  0  0  0
    4.6351   59.9185   72.0680 H   0  0  0  0  0  0  0  0  0  0  0  0
    2.1594   59.0386   71.0916 H   0  0  0  0  0  0  0  0  0  0  0  0
    3.2550   57.6402   70.7984 H   0  0  0  0  0  0  0  0  0  0  0  0
    3.8873   58.0418   73.4179 H   0  0  0  0  0  0  0  0  0  0  0  0
    1.7008   55.0252   72.8984 H   0  0  0  0  0  0  0  0  0  0  0  0
    3.0192   55.8860   73.7961 H   0  0  0  0  0  0  0  0  0  0  0  0
    1.9603   53.8178   74.9091 H   0  0  0  0  0  0  0  0  0  0  0  0
    2.1140   55.3734   75.8754 H   0  0  0  0  0  0  0  0  0  0  0  0
   -0.1973   53.7562   75.4370 H   0  0  0  0  0  0  0  0  0  0  0  0
    0.0135   55.3146   76.3771 H   0  0  0  0  0  0  0  0  0  0  0  0
   -0.9060   54.9421   73.5161 H   0  0  0  0  0  0  0  0  0  0  0  0
   -1.7554   55.7293   74.9016 H   0  0  0  0  0  0  0  0  0  0  0  0
    2.3295   60.7792   72.6070 H   0  0  0  0  0  0  0  0  0  0  0  0
    0.7562   62.7041   72.6342 H   0  0  0  0  0  0  0  0  0  0  0  0
   -1.6138   62.3551   73.3237 H   0  0  0  0  0  0  0  0  0  0  0  0
   -2.3880   60.0894   73.9779 H   0  0  0  0  0  0  0  0  0  0  0  0
    1.5825   62.0068   69.6785 H   0  0  0  0  0  0  0  0  0  0  0  0
    1.8078   63.1014   68.4215 H   0  0  0  0  0  0  0  0  0  0  0  0
    2.6376   61.6383   68.4215 H   0  0  0  0  0  0  0  0  0  0  0  0
    3.2416   64.1032   71.6289 H   0  0  0  0  0  0  0  0  0  0  0  0
    3.1965   65.1257   70.1149 H   0  0  0  0  0  0  0  0  0  0  0  0
    0.9170   63.5360   69.9316 H   0  0  0  0  0  0  0  0  0  0  0  0
    1.0055   63.9944   71.6773 H   0  0  0  0  0  0  0  0  0  0  0  0
    1.9239   65.5407   68.5663 H   0  0  0  0  0  0  0  0  0  0  0  0
    0.0094   67.7476   68.9300 H   0  0  0  0  0  0  0  0  0  0  0  0
    1.7188   68.1912   69.3093 H   0  0  0  0  0  0  0  0  0  0  0  0
    2.2349   67.0871   66.9617 H   0  0  0  0  0  0  0  0  0  0  0  0
    0.4928   67.3645   66.6498 H   0  0  0  0  0  0  0  0  0  0  0  0
    0.9744   69.8919   67.1536 H   0  0  0  0  0  0  0  0  0  0  0  0
    3.1632   71.0588   68.7620 H   0  0  0  0  0  0  0  0  0  0  0  0
    3.3355   69.2770   69.1684 H   0  0  0  0  0  0  0  0  0  0  0  0
    4.8380   70.9288   70.4274 H   0  0  0  0  0  0  0  0  0  0  0  0
    5.5954   69.4790   69.6648 H   0  0  0  0  0  0  0  0  0  0  0  0
    5.4922   72.2753   68.4357 H   0  0  0  0  0  0  0  0  0  0  0  0
    6.9137   71.5502   69.2607 H   0  0  0  0  0  0  0  0  0  0  0  0
    6.9255   71.3538   66.7330 H   0  0  0  0  0  0  0  0  0  0  0  0
    7.0451   69.7809   67.6489 H   0  0  0  0  0  0  0  0  0  0  0  0
    1.2239   68.2548   64.5651 H   0  0  0  0  0  0  0  0  0  0  0  0
    1.7490   67.8350   62.1709 H   0  0  0  0  0  0  0  0  0  0  0  0
    4.0266   68.3615   61.2970 H   0  0  0  0  0  0  0  0  0  0  0  0
    5.7478   69.2976   62.8222 H   0  0  0  0  0  0  0  0  0  0  0  0
  2  1  1  0
  3  2  2  0
  4  2  1  0
  5  4  1  0
  6  5  1  0
  7  6  1  0
  8  7  1  0
  9  8  1  0
 10  9  1  0
 11 10  1  0
 12 11  1  0
 13 12  1  0
 14  9  2  0
 14 13  1  0
 15 14  1  0
 16 15  2  0
 17 16  1  0
 17  8  2  0
 18 17  1  0
 19 18  2  0
 20 19  1  0
 21 20  2  0
 21 16  1  0
 22  1  1  0
 23  1  1  0
 24 23  1  0
 26 24  1  0
 26 25  2  0
 27 26  1  0
 28 27  1  0
 29 28  1  0
 30 29  1  0
 31 30  1  0
 32 31  1  0
 33 32  1  0
 34 33  1  0
 35 34  1  0
 36 35  1  0
 37 36  1  0
 37 32  2  0
 38 37  1  0
 39 38  2  0
 40 39  1  0
 40 31  2  0
 41 40  1  0
 42 41  2  0
 43 42  1  0
 44 39  1  0
 44 43  2  0
  1 45  1  6
  4 46  1  0
  5 47  1  0
  5 48  1  0
  6 49  1  0
  6 50  1  0
  7 51  1  0
 10 52  1  0
 10 53  1  0
 11 54  1  0
 11 55  1  0
 12 56  1  0
 12 57  1  0
 13 58  1  0
 13 59  1  0
 18 60  1  0
 19 61  1  0
 20 62  1  0
 21 63  1  0
 22 64  1  0
 22 65  1  0
 22 66  1  0
 23 67  1  0
 23 68  1  0
 24 69  1  0
 24 70  1  0
 27 71  1  0
 28 72  1  0
 28 73  1  0
 29 74  1  0
 29 75  1  0
 30 76  1  0
 33 77  1  0
 33 78  1  0
 34 79  1  0
 34 80  1  0
 35 81  1  0
 35 82  1  0
 36 83  1  0
 36 84  1  0
 41 85  1  0
 42 86  1  0
 43 87  1  0
 44 88  1  0
M  CHG  1  22   1
M  END
>  <score>  (5) 
-12.29

$$$$
=
     RDKit          3D

 88 93  0  0  0  0  0  0  0  0999 V2000
    1.5070   64.1820   70.7710 C   0  0  1  0  0  0  0  0  0  0  0  0
    0.9300   65.5380   70.3180 C   0  0  0  0  0  0  0  0  0  0  0  0
    0.0610   66.0670   71.0150 O   0  0  0  0  0  0  0  0  0  0  0  0
    1.4410   66.0930   69.1820 N   0  0  0  0  0  0  0  0  0  0  0  0
    1.0840   67.4400   68.7510 C   0  0  0  0  0  0  0  0  0  0  0  0
    1.1580   67.5580   67.2230 C   0  0  0  0  0  0  0  0  0  0  0  0
    1.3680   68.9780   66.8310 N   0  0  0  0  0  0  0  0  0  0  0  0
    2.6710   69.1620   66.2590 C   0  0  0  0  0  0  0  0  0  0  0  0
    2.9110   68.7200   64.9510 C   0  0  0  0  0  0  0  0  0  0  0  0
    1.8690   68.1340   64.0380 C   0  0  0  0  0  0  0  0  0  0  0  0
    2.0050   68.6710   62.6090 C   0  0  0  0  0  0  0  0  0  0  0  0
    3.4450   68.7590   62.0860 C   0  0  0  0  0  0  0  0  0  0  0  0
    4.5010   68.2820   63.0790 C   0  0  0  0  0  0  0  0  0  0  0  0
    4.2130   68.8100   64.4600 C   0  0  0  0  0  0  0  0  0  0  0  0
    5.2450   69.3150   65.1620 N   0  0  0  0  0  0  0  0  0  0  0  0
    5.0190   69.7650   66.4030 C   0  0  0  0  0  0  0  0  0  0  0  0
    3.7480   69.7150   67.0200 C   0  0  0  0  0  0  0  0  0  0  0  0
    3.6300   70.2100   68.3460 C   0  0  0  0  0  0  0  0  0  0  0  0
    4.7270   70.7380   69.0290 C   0  0  0  0  0  0  0  0  0  0  0  0
    5.9630   70.7790   68.4050 C   0  0  0  0  0  0  0  0  0  0  0  0
    6.0940   70.2940   67.1030 C   0  0  0  0  0  0  0  0  0  0  0  0
    0.8860   63.1160   69.9040 N   0  0  0  0  0  4  0  0  0  0  0  0
    3.0260   64.1070   70.6580 C   0  0  0  0  0  0  0  0  0  0  0  0
    3.5150   63.0390   69.6740 C   0  0  0  0  0  0  0  0  0  0  0  0
    5.0900   62.0090   71.1750 O   0  0  0  0  0  0  0  0  0  0  0  0
    4.1430   61.8720   70.4110 C   0  0  0  0  0  0  0  0  0  0  0  0
    3.5690   60.6650   70.1070 N   0  0  0  0  0  0  0  0  0  0  0  0
    3.9520   59.4460   70.8090 C   0  0  0  0  0  0  0  0  0  0  0  0
    2.7100   58.6840   71.2950 C   0  0  0  0  0  0  0  0  0  0  0  0
    2.6100   58.8240   72.7680 N   0  0  0  0  0  0  0  0  0  0  0  0
    1.2920   58.4910   73.2260 C   0  0  0  0  0  0  0  0  0  0  0  0
    0.2940   59.4840   73.3330 C   0  0  0  0  0  0  0  0  0  0  0  0
    0.5360   60.9180   72.9210 C   0  0  0  0  0  0  0  0  0  0  0  0
   -0.7250   61.7770   72.8340 C   0  0  0  0  0  0  0  0  0  0  0  0
   -1.6170   61.5400   74.0410 C   0  0  0  0  0  0  0  0  0  0  0  0
   -2.0660   60.0840   74.0640 C   0  0  0  0  0  0  0  0  0  0  0  0
   -0.9270   59.1110   73.9030 C   0  0  0  0  0  0  0  0  0  0  0  0
   -1.1970   57.8510   74.3190 N   0  0  0  0  0  0  0  0  0  0  0  0
   -0.2560   56.9070   74.2040 C   0  0  0  0  0  0  0  0  0  0  0  0
    1.0180   57.1640   73.6670 C   0  0  0  0  0  0  0  0  0  0  0  0
    1.9430   56.0930   73.5820 C   0  0  0  0  0  0  0  0  0  0  0  0
    1.6200   54.8130   74.0280 C   0  0  0  0  0  0  0  0  0  0  0  0
    0.3610   54.5780   74.5620 C   0  0  0  0  0  0  0  0  0  0  0  0
   -0.5590   55.6240   74.6420 C   0  0  0  0  0  0  0  0  0  0  0  0
    1.2699   64.0426   71.8361 H   0  0  0  0  0  0  0  0  0  0  0  0
    2.0993   65.5442   68.6108 H   0  0  0  0  0  0  0  0  0  0  0  0
    0.0592   67.6651   69.0813 H   0  0  0  0  0  0  0  0  0  0  0  0
    1.7936   68.1533   69.1956 H   0  0  0  0  0  0  0  0  0  0  0  0
    1.9957   66.9499   66.8510 H   0  0  0  0  0  0  0  0  0  0  0  0
    0.2138   67.1994   66.7873 H   0  0  0  0  0  0  0  0  0  0  0  0
    0.6722   69.7274   66.9537 H   0  0  0  0  0  0  0  0  0  0  0  0
    1.9839   67.0401   64.0208 H   0  0  0  0  0  0  0  0  0  0  0  0
    0.8775   68.4188   64.4198 H   0  0  0  0  0  0  0  0  0  0  0  0
    1.4382   68.0075   61.9393 H   0  0  0  0  0  0  0  0  0  0  0  0
    1.6205   69.7014   62.6288 H   0  0  0  0  0  0  0  0  0  0  0  0
    3.5209   68.1418   61.1786 H   0  0  0  0  0  0  0  0  0  0  0  0
    3.6478   69.8232   61.8955 H   0  0  0  0  0  0  0  0  0  0  0  0
    4.5003   67.1823   63.1058 H   0  0  0  0  0  0  0  0  0  0  0  0
    5.4837   68.6562   62.7560 H   0  0  0  0  0  0  0  0  0  0  0  0
    2.6511   70.1765   68.8466 H   0  0  0  0  0  0  0  0  0  0  0  0
    4.6108   71.1185   70.0545 H   0  0  0  0  0  0  0  0  0  0  0  0
    6.8358   71.1913   68.9324 H   0  0  0  0  0  0  0  0  0  0  0  0
    7.0799   70.3323   66.6166 H   0  0  0  0  0  0  0  0  0  0  0  0
    0.4635   62.3908   70.5011 H   0  0  0  0  0  0  0  0  0  0  0  0
    0.1585   63.5378   69.3093 H   0  0  0  0  0  0  0  0  0  0  0  0
    1.6118   62.6912   69.3093 H   0  0  0  0  0  0  0  0  0  0  0  0
    3.3987   65.0860   70.3224 H   0  0  0  0  0  0  0  0  0  0  0  0
    3.4106   63.8315   71.6511 H   0  0  0  0  0  0  0  0  0  0  0  0
    2.6611   62.6749   69.0838 H   0  0  0  0  0  0  0  0  0  0  0  0
    4.2731   63.4881   69.0156 H   0  0  0  0  0  0  0  0  0  0  0  0
    2.8530   60.6183   69.3681 H   0  0  0  0  0  0  0  0  0  0  0  0
    4.5262   58.8020   70.1267 H   0  0  0  0  0  0  0  0  0  0  0  0
    4.5627   59.7188   71.6823 H   0  0  0  0  0  0  0  0  0  0  0  0
    1.8100   59.1036   70.8217 H   0  0  0  0  0  0  0  0  0  0  0  0
    2.7942   57.6209   71.0253 H   0  0  0  0  0  0  0  0  0  0  0  0
    3.3834   59.1206   73.3802 H   0  0  0  0  0  0  0  0  0  0  0  0
    1.2133   61.3765   73.6565 H   0  0  0  0  0  0  0  0  0  0  0  0
    0.9599   60.8833   71.9065 H   0  0  0  0  0  0  0  0  0  0  0  0
   -0.4379   62.8383   72.7993 H   0  0  0  0  0  0  0  0  0  0  0  0
   -1.2790   61.5031   71.9240 H   0  0  0  0  0  0  0  0  0  0  0  0
   -1.0569   61.7654   74.9605 H   0  0  0  0  0  0  0  0  0  0  0  0
   -2.4990   62.1943   73.9787 H   0  0  0  0  0  0  0  0  0  0  0  0
   -2.5622   59.8859   75.0255 H   0  0  0  0  0  0  0  0  0  0  0  0
   -2.7455   59.9371   73.2115 H   0  0  0  0  0  0  0  0  0  0  0  0
    2.9394   56.2768   73.1538 H   0  0  0  0  0  0  0  0  0  0  0  0
    2.3551   53.9977   73.9575 H   0  0  0  0  0  0  0  0  0  0  0  0
    0.0900   53.5738   74.9199 H   0  0  0  0  0  0  0  0  0  0  0  0
   -1.5550   55.4266   75.0650 H   0  0  0  0  0  0  0  0  0  0  0  0
  2  1  1  0
  3  2  2  0
  4  2  1  0
  5  4  1  0
  6  5  1  0
  7  6  1  0
  8  7  1  0
  9  8  1  0
 10  9  1  0
 11 10  1  0
 12 11  1  0
 13 12  1  0
 14  9  2  0
 14 13  1  0
 15 14  1  0
 16 15  2  0
 17 16  1  0
 17  8  2  0
 18 17  1  0
 19 18  2  0
 20 19  1  0
 21 20  2  0
 21 16  1  0
 22  1  1  0
 23  1  1  0
 24 23  1  0
 26 24  1  0
 26 25  2  0
 27 26  1  0
 28 27  1  0
 29 28  1  0
 30 29  1  0
 31 30  1  0
 32 31  1  0
 33 32  1  0
 34 33  1  0
 35 34  1  0
 36 35  1  0
 37 36  1  0
 37 32  2  0
 38 37  1  0
 39 38  2  0
 40 39  1  0
 40 31  2  0
 41 40  1  0
 42 41  2  0
 43 42  1  0
 44 39  1  0
 44 43  2  0
  1 45  1  1
  4 46  1  0
  5 47  1  0
  5 48  1  0
  6 49  1  0
  6 50  1  0
  7 51  1  0
 10 52  1  0
 10 53  1  0
 11 54  1  0
 11 55  1  0
 12 56  1  0
 12 57  1  0
 13 58  1  0
 13 59  1  0
 18 60  1  0
 19 61  1  0
 20 62  1  0
 21 63  1  0
 22 64  1  0
 22 65  1  0
 22 66  1  0
 23 67  1  0
 23 68  1  0
 24 69  1  0
 24 70  1  0
 27 71  1  0
 28 72  1  0
 28 73  1  0
 29 74  1  0
 29 75  1  0
 30 76  1  0
 33 77  1  0
 33 78  1  0
 34 79  1  0
 34 80  1  0
 35 81  1  0
 35 82  1  0
 36 83  1  0
 36 84  1  0
 41 85  1  0
 42 86  1  0
 43 87  1  0
 44 88  1  0
M  CHG  1  22   1
M  END
>  <score>  (6) 
-12.279

$$$$
=
     RDKit          3D

 88 93  0  0  0  0  0  0  0  0999 V2000
    1.3030   64.3450   70.8340 C   0  0  1  0  0  0  0  0  0  0  0  0
    0.7760   65.7210   70.3830 C   0  0  0  0  0  0  0  0  0  0  0  0
    0.0230   66.3370   71.1400 O   0  0  0  0  0  0  0  0  0  0  0  0
    1.2030   66.1940   69.1760 N   0  0  0  0  0  0  0  0  0  0  0  0
    0.8960   67.5470   68.7250 C   0  0  0  0  0  0  0  0  0  0  0  0
    1.6500   67.8700   67.4290 C   0  0  0  0  0  0  0  0  0  0  0  0
    1.9090   69.3330   67.3400 N   0  0  0  0  0  0  0  0  0  0  0  0
    3.2320   69.5890   66.8470 C   0  0  0  0  0  0  0  0  0  0  0  0
    4.1500   70.2550   67.6700 C   0  0  0  0  0  0  0  0  0  0  0  0
    3.8910   70.6550   69.0970 C   0  0  0  0  0  0  0  0  0  0  0  0
    5.1040   70.3760   69.9910 C   0  0  0  0  0  0  0  0  0  0  0  0
    6.4590   70.7550   69.3780 C   0  0  0  0  0  0  0  0  0  0  0  0
    6.3660   71.3600   67.9800 C   0  0  0  0  0  0  0  0  0  0  0  0
    5.3900   70.5890   67.1290 C   0  0  0  0  0  0  0  0  0  0  0  0
    5.7620   70.2910   65.8690 N   0  0  0  0  0  0  0  0  0  0  0  0
    4.9010   69.6300   65.0840 C   0  0  0  0  0  0  0  0  0  0  0  0
    3.6080   69.2500   65.5100 C   0  0  0  0  0  0  0  0  0  0  0  0
    2.7760   68.5640   64.5850 C   0  0  0  0  0  0  0  0  0  0  0  0
    3.2110   68.2650   63.2940 C   0  0  0  0  0  0  0  0  0  0  0  0
    4.4830   68.6450   62.8970 C   0  0  0  0  0  0  0  0  0  0  0  0
    5.3100   69.3220   63.7950 C   0  0  0  0  0  0  0  0  0  0  0  0
    0.5400   63.2950   70.0650 N   0  0  0  0  0  4  0  0  0  0  0  0
    2.7980   64.1640   70.5930 C   0  0  0  0  0  0  0  0  0  0  0  0
    3.1630   62.7980   70.0020 C   0  0  0  0  0  0  0  0  0  0  0  0
    5.2320   62.5350   71.2020 O   0  0  0  0  0  0  0  0  0  0  0  0
    4.1430   62.0660   70.8960 C   0  0  0  0  0  0  0  0  0  0  0  0
    3.7020   60.8300   71.2900 N   0  0  0  0  0  0  0  0  0  0  0  0
    4.4480   60.0290   72.2520 C   0  0  0  0  0  0  0  0  0  0  0  0
    3.4950   59.2080   73.1330 C   0  0  0  0  0  0  0  0  0  0  0  0
    2.4130   58.6560   72.2810 N   0  0  0  0  0  0  0  0  0  0  0  0
    1.2480   58.3570   73.0620 C   0  0  0  0  0  0  0  0  0  0  0  0
    1.0510   57.0650   73.5960 C   0  0  0  0  0  0  0  0  0  0  0  0
    2.0680   55.9590   73.4280 C   0  0  0  0  0  0  0  0  0  0  0  0
    1.8250   54.7320   74.3060 C   0  0  0  0  0  0  0  0  0  0  0  0
    0.3570   54.3390   74.2800 C   0  0  0  0  0  0  0  0  0  0  0  0
   -0.4830   55.4730   74.8520 C   0  0  0  0  0  0  0  0  0  0  0  0
   -0.1650   56.8130   74.2400 C   0  0  0  0  0  0  0  0  0  0  0  0
   -1.1290   57.7500   74.3980 N   0  0  0  0  0  0  0  0  0  0  0  0
   -0.9350   58.9780   73.9050 C   0  0  0  0  0  0  0  0  0  0  0  0
    0.2350   59.3480   73.2190 C   0  0  0  0  0  0  0  0  0  0  0  0
    0.3470   60.6770   72.7400 C   0  0  0  0  0  0  0  0  0  0  0  0
   -0.6760   61.6060   72.9230 C   0  0  0  0  0  0  0  0  0  0  0  0
   -1.8280   61.2240   73.5950 C   0  0  0  0  0  0  0  0  0  0  0  0
   -1.9430   59.9200   74.0780 C   0  0  0  0  0  0  0  0  0  0  0  0
    1.1531   64.2565   71.9201 H   0  0  0  0  0  0  0  0  0  0  0  0
    1.7583   65.5776   68.5656 H   0  0  0  0  0  0  0  0  0  0  0  0
   -0.1858   67.6306   68.5439 H   0  0  0  0  0  0  0  0  0  0  0  0
    1.2086   68.2589   69.5031 H   0  0  0  0  0  0  0  0  0  0  0  0
    2.6081   67.3296   67.4210 H   0  0  0  0  0  0  0  0  0  0  0  0
    1.0383   67.5593   66.5692 H   0  0  0  0  0  0  0  0  0  0  0  0
    1.2299   70.0634   67.5976 H   0  0  0  0  0  0  0  0  0  0  0  0
    3.6631   71.7306   69.1303 H   0  0  0  0  0  0  0  0  0  0  0  0
    3.0440   70.0617   69.4719 H   0  0  0  0  0  0  0  0  0  0  0  0
    4.9795   70.9458   70.9236 H   0  0  0  0  0  0  0  0  0  0  0  0
    5.1291   69.2873   70.1461 H   0  0  0  0  0  0  0  0  0  0  0  0
    6.9440   71.4880   70.0395 H   0  0  0  0  0  0  0  0  0  0  0  0
    7.0340   69.8223   69.2811 H   0  0  0  0  0  0  0  0  0  0  0  0
    6.0288   72.4040   68.0602 H   0  0  0  0  0  0  0  0  0  0  0  0
    7.3588   71.3144   67.5085 H   0  0  0  0  0  0  0  0  0  0  0  0
    1.7647   68.2615   64.8944 H   0  0  0  0  0  0  0  0  0  0  0  0
    2.5491   67.7314   62.5960 H   0  0  0  0  0  0  0  0  0  0  0  0
    4.8385   68.4149   61.8818 H   0  0  0  0  0  0  0  0  0  0  0  0
    6.3176   69.6206   63.4701 H   0  0  0  0  0  0  0  0  0  0  0  0
    0.0754   62.6556   70.7255 H   0  0  0  0  0  0  0  0  0  0  0  0
   -0.1685   63.7506   69.4723 H   0  0  0  0  0  0  0  0  0  0  0  0
    1.1922   62.7619   69.4723 H   0  0  0  0  0  0  0  0  0  0  0  0
    3.1351   64.9457   69.8963 H   0  0  0  0  0  0  0  0  0  0  0  0
    3.2936   64.2346   71.5725 H   0  0  0  0  0  0  0  0  0  0  0  0
    2.2492   62.1943   69.8993 H   0  0  0  0  0  0  0  0  0  0  0  0
    3.6329   62.9545   69.0198 H   0  0  0  0  0  0  0  0  0  0  0  0
    2.8247   60.4592   70.8979 H   0  0  0  0  0  0  0  0  0  0  0  0
    5.1173   59.3449   71.7097 H   0  0  0  0  0  0  0  0  0  0  0  0
    5.0307   60.7038   72.8963 H   0  0  0  0  0  0  0  0  0  0  0  0
    4.0480   58.3844   73.6082 H   0  0  0  0  0  0  0  0  0  0  0  0
    3.0640   59.8492   73.9160 H   0  0  0  0  0  0  0  0  0  0  0  0
    2.4885   58.5074   71.2646 H   0  0  0  0  0  0  0  0  0  0  0  0
    2.0536   55.6366   72.3764 H   0  0  0  0  0  0  0  0  0  0  0  0
    3.0370   56.3771   73.7381 H   0  0  0  0  0  0  0  0  0  0  0  0
    2.4306   53.8936   73.9314 H   0  0  0  0  0  0  0  0  0  0  0  0
    2.1095   54.9739   75.3407 H   0  0  0  0  0  0  0  0  0  0  0  0
    0.0487   54.1417   73.2427 H   0  0  0  0  0  0  0  0  0  0  0  0
    0.2096   53.4325   74.8854 H   0  0  0  0  0  0  0  0  0  0  0  0
   -1.5443   55.2483   74.6700 H   0  0  0  0  0  0  0  0  0  0  0  0
   -0.2538   55.5408   75.9257 H   0  0  0  0  0  0  0  0  0  0  0  0
    1.2622   60.9825   72.2117 H   0  0  0  0  0  0  0  0  0  0  0  0
   -0.5710   62.6313   72.5386 H   0  0  0  0  0  0  0  0  0  0  0  0
   -2.6454   61.9444   73.7461 H   0  0  0  0  0  0  0  0  0  0  0  0
   -2.8593   59.6282   74.6121 H   0  0  0  0  0  0  0  0  0  0  0  0
  2  1  1  0
  3  2  2  0
  4  2  1  0
  5  4  1  0
  6  5  1  0
  7  6  1  0
  8  7  1  0
  9  8  1  0
 10  9  1  0
 11 10  1  0
 12 11  1  0
 13 12  1  0
 14  9  2  0
 14 13  1  0
 15 14  1  0
 16 15  2  0
 17 16  1  0
 17  8  2  0
 18 17  1  0
 19 18  2  0
 20 19  1  0
 21 20  2  0
 21 16  1  0
 22  1  1  0
 23  1  1  0
 24 23  1  0
 26 24  1  0
 26 25  2  0
 27 26  1  0
 28 27  1  0
 29 28  1  0
 30 29  1  0
 31 30  1  0
 32 31  1  0
 33 32  1  0
 34 33  1  0
 35 34  1  0
 36 35  1  0
 37 36  1  0
 37 32  2  0
 38 37  1  0
 39 38  2  0
 40 39  1  0
 40 31  2  0
 41 40  1  0
 42 41  2  0
 43 42  1  0
 44 39  1  0
 44 43  2  0
  1 45  1  1
  4 46  1  0
  5 47  1  0
  5 48  1  0
  6 49  1  0
  6 50  1  0
  7 51  1  0
 10 52  1  0
 10 53  1  0
 11 54  1  0
 11 55  1  0
 12 56  1  0
 12 57  1  0
 13 58  1  0
 13 59  1  0
 18 60  1  0
 19 61  1  0
 20 62  1  0
 21 63  1  0
 22 64  1  0
 22 65  1  0
 22 66  1  0
 23 67  1  0
 23 68  1  0
 24 69  1  0
 24 70  1  0
 27 71  1  0
 28 72  1  0
 28 73  1  0
 29 74  1  0
 29 75  1  0
 30 76  1  0
 33 77  1  0
 33 78  1  0
 34 79  1  0
 34 80  1  0
 35 81  1  0
 35 82  1  0
 36 83  1  0
 36 84  1  0
 41 85  1  0
 42 86  1  0
 43 87  1  0
 44 88  1  0
M  CHG  1  22   1
M  END
>  <score>  (7) 
-11.995

$$$$
=
     RDKit          3D

 88 93  0  0  0  0  0  0  0  0999 V2000
    1.1800   64.7940   70.3000 C   0  0  1  0  0  0  0  0  0  0  0  0
    1.0690   66.1940   69.6620 C   0  0  0  0  0  0  0  0  0  0  0  0
    1.7810   67.0970   70.1040 O   0  0  0  0  0  0  0  0  0  0  0  0
    0.2050   66.3420   68.6170 N   0  0  0  0  0  0  0  0  0  0  0  0
    0.1380   67.5750   67.8400 C   0  0  0  0  0  0  0  0  0  0  0  0
    1.0590   67.4930   66.6150 C   0  0  0  0  0  0  0  0  0  0  0  0
    1.2950   68.8540   66.0620 N   0  0  0  0  0  0  0  0  0  0  0  0
    2.7000   69.1120   65.9230 C   0  0  0  0  0  0  0  0  0  0  0  0
    3.3450   68.7470   64.7340 C   0  0  0  0  0  0  0  0  0  0  0  0
    2.6580   68.1760   63.5240 C   0  0  0  0  0  0  0  0  0  0  0  0
    3.1940   68.7910   62.2270 C   0  0  0  0  0  0  0  0  0  0  0  0
    4.7190   68.9540   62.1710 C   0  0  0  0  0  0  0  0  0  0  0  0
    5.4460   68.4610   63.4190 C   0  0  0  0  0  0  0  0  0  0  0  0
    4.7280   68.9060   64.6660 C   0  0  0  0  0  0  0  0  0  0  0  0
    5.4740   69.4080   65.6690 N   0  0  0  0  0  0  0  0  0  0  0  0
    4.8610   69.7850   66.7990 C   0  0  0  0  0  0  0  0  0  0  0  0
    3.4680   69.6600   66.9970 C   0  0  0  0  0  0  0  0  0  0  0  0
    2.9300   70.0810   68.2430 C   0  0  0  0  0  0  0  0  0  0  0  0
    3.7420   70.6080   69.2470 C   0  0  0  0  0  0  0  0  0  0  0  0
    5.1060   70.7240   69.0320 C   0  0  0  0  0  0  0  0  0  0  0  0
    5.6470   70.3120   67.8140 C   0  0  0  0  0  0  0  0  0  0  0  0
    2.6180   64.5990   70.7100 N   0  0  0  0  0  4  0  0  0  0  0  0
    0.2780   64.6140   71.5160 C   0  0  0  0  0  0  0  0  0  0  0  0
   -0.1020   63.1540   71.7870 C   0  0  0  0  0  0  0  0  0  0  0  0
   -1.0580   62.4900   73.8940 O   0  0  0  0  0  0  0  0  0  0  0  0
   -0.0670   62.8530   73.2730 C   0  0  0  0  0  0  0  0  0  0  0  0
    1.1630   63.0600   73.8410 N   0  0  0  0  0  0  0  0  0  0  0  0
    1.4250   62.7040   75.2300 C   0  0  0  0  0  0  0  0  0  0  0  0
    1.5900   61.1850   75.3820 C   0  0  0  0  0  0  0  0  0  0  0  0
    2.9680   60.8110   74.9790 N   0  0  0  0  0  0  0  0  0  0  0  0
    2.9500   59.9330   73.8460 C   0  0  0  0  0  0  0  0  0  0  0  0
    3.4790   60.3480   72.6040 C   0  0  0  0  0  0  0  0  0  0  0  0
    4.1370   61.6960   72.4180 C   0  0  0  0  0  0  0  0  0  0  0  0
    4.8980   61.8570   71.1030 C   0  0  0  0  0  0  0  0  0  0  0  0
    4.0810   61.3140   69.9420 C   0  0  0  0  0  0  0  0  0  0  0  0
    3.8410   59.8240   70.1430 C   0  0  0  0  0  0  0  0  0  0  0  0
    3.3140   59.4880   71.5150 C   0  0  0  0  0  0  0  0  0  0  0  0
    2.7090   58.2800   71.6070 N   0  0  0  0  0  0  0  0  0  0  0  0
    2.2210   57.8810   72.7870 C   0  0  0  0  0  0  0  0  0  0  0  0
    2.3060   58.6660   73.9510 C   0  0  0  0  0  0  0  0  0  0  0  0
    1.7640   58.1500   75.1550 C   0  0  0  0  0  0  0  0  0  0  0  0
    1.1450   56.9020   75.2000 C   0  0  0  0  0  0  0  0  0  0  0  0
    1.0630   56.1430   74.0410 C   0  0  0  0  0  0  0  0  0  0  0  0
    1.6010   56.6390   72.8530 C   0  0  0  0  0  0  0  0  0  0  0  0
    0.8527   64.0489   69.5599 H   0  0  0  0  0  0  0  0  0  0  0  0
   -0.4184   65.5604   68.3692 H   0  0  0  0  0  0  0  0  0  0  0  0
   -0.8972   67.7345   67.5038 H   0  0  0  0  0  0  0  0  0  0  0  0
    0.4657   68.4118   68.4743 H   0  0  0  0  0  0  0  0  0  0  0  0
    2.0206   67.0488   66.9116 H   0  0  0  0  0  0  0  0  0  0  0  0
    0.5807   66.8692   65.8455 H   0  0  0  0  0  0  0  0  0  0  0  0
    0.5507   69.5209   65.8126 H   0  0  0  0  0  0  0  0  0  0  0  0
    2.8246   67.0890   63.4989 H   0  0  0  0  0  0  0  0  0  0  0  0
    1.5852   68.4080   63.5966 H   0  0  0  0  0  0  0  0  0  0  0  0
    2.8885   68.1449   61.3908 H   0  0  0  0  0  0  0  0  0  0  0  0
    2.7730   69.8057   62.1698 H   0  0  0  0  0  0  0  0  0  0  0  0
    5.0951   68.3878   61.3061 H   0  0  0  0  0  0  0  0  0  0  0  0
    4.9194   70.0328   62.0933 H   0  0  0  0  0  0  0  0  0  0  0  0
    5.4898   67.3620   63.4006 H   0  0  0  0  0  0  0  0  0  0  0  0
    6.4613   68.8841   63.4263 H   0  0  0  0  0  0  0  0  0  0  0  0
    1.8482   69.9891   68.4197 H   0  0  0  0  0  0  0  0  0  0  0  0
    3.3027   70.9293   70.2029 H   0  0  0  0  0  0  0  0  0  0  0  0
    5.7573   71.1379   69.8159 H   0  0  0  0  0  0  0  0  0  0  0  0
    6.7309   70.4079   67.6530 H   0  0  0  0  0  0  0  0  0  0  0  0
    2.6838   64.5901   71.7379 H   0  0  0  0  0  0  0  0  0  0  0  0
    2.9632   63.7035   70.3361 H   0  0  0  0  0  0  0  0  0  0  0  0
    3.1892   65.3702   70.3361 H   0  0  0  0  0  0  0  0  0  0  0  0
    0.8028   65.0066   72.3995 H   0  0  0  0  0  0  0  0  0  0  0  0
   -0.6557   65.1573   71.3085 H   0  0  0  0  0  0  0  0  0  0  0  0
   -1.1172   62.9693   71.4059 H   0  0  0  0  0  0  0  0  0  0  0  0
    0.6235   62.5017   71.2789 H   0  0  0  0  0  0  0  0  0  0  0  0
    1.9170   63.4752   73.2753 H   0  0  0  0  0  0  0  0  0  0  0  0
    2.3480   63.2020   75.5619 H   0  0  0  0  0  0  0  0  0  0  0  0
    0.5722   63.0291   75.8441 H   0  0  0  0  0  0  0  0  0  0  0  0
    1.4206   60.8978   76.4302 H   0  0  0  0  0  0  0  0  0  0  0  0
    0.8600   60.6642   74.7450 H   0  0  0  0  0  0  0  0  0  0  0  0
    3.8233   61.1385   75.4503 H   0  0  0  0  0  0  0  0  0  0  0  0
    3.3545   62.4681   72.4582 H   0  0  0  0  0  0  0  0  0  0  0  0
    4.8811   61.7930   73.2223 H   0  0  0  0  0  0  0  0  0  0  0  0
    5.1035   62.9241   70.9326 H   0  0  0  0  0  0  0  0  0  0  0  0
    5.8405   61.2935   71.1675 H   0  0  0  0  0  0  0  0  0  0  0  0
    3.1150   61.8381   69.8967 H   0  0  0  0  0  0  0  0  0  0  0  0
    4.6292   61.4734   69.0018 H   0  0  0  0  0  0  0  0  0  0  0  0
    3.1104   59.4833   69.3946 H   0  0  0  0  0  0  0  0  0  0  0  0
    4.8116   59.3183   70.0323 H   0  0  0  0  0  0  0  0  0  0  0  0
    1.8336   58.7485   76.0753 H   0  0  0  0  0  0  0  0  0  0  0  0
    0.7261   56.5228   76.1438 H   0  0  0  0  0  0  0  0  0  0  0  0
    0.5768   55.1564   74.0589 H   0  0  0  0  0  0  0  0  0  0  0  0
    1.5323   56.0283   71.9407 H   0  0  0  0  0  0  0  0  0  0  0  0
  2  1  1  0
  3  2  2  0
  4  2  1  0
  5  4  1  0
  6  5  1  0
  7  6  1  0
  8  7  1  0
  9  8  1  0
 10  9  1  0
 11 10  1  0
 12 11  1  0
 13 12  1  0
 14  9  2  0
 14 13  1  0
 15 14  1  0
 16 15  2  0
 17 16  1  0
 17  8  2  0
 18 17  1  0
 19 18  2  0
 20 19  1  0
 21 20  2  0
 21 16  1  0
 22  1  1  0
 23  1  1  0
 24 23  1  0
 26 24  1  0
 26 25  2  0
 27 26  1  0
 28 27  1  0
 29 28  1  0
 30 29  1  0
 31 30  1  0
 32 31  1  0
 33 32  1  0
 34 33  1  0
 35 34  1  0
 36 35  1  0
 37 36  1  0
 37 32  2  0
 38 37  1  0
 39 38  2  0
 40 39  1  0
 40 31  2  0
 41 40  1  0
 42 41  2  0
 43 42  1  0
 44 39  1  0
 44 43  2  0
  1 45  1  6
  4 46  1  0
  5 47  1  0
  5 48  1  0
  6 49  1  0
  6 50  1  0
  7 51  1  0
 10 52  1  0
 10 53  1  0
 11 54  1  0
 11 55  1  0
 12 56  1  0
 12 57  1  0
 13 58  1  0
 13 59  1  0
 18 60  1  0
 19 61  1  0
 20 62  1  0
 21 63  1  0
 22 64  1  0
 22 65  1  0
 22 66  1  0
 23 67  1  0
 23 68  1  0
 24 69  1  0
 24 70  1  0
 27 71  1  0
 28 72  1  0
 28 73  1  0
 29 74  1  0
 29 75  1  0
 30 76  1  0
 33 77  1  0
 33 78  1  0
 34 79  1  0
 34 80  1  0
 35 81  1  0
 35 82  1  0
 36 83  1  0
 36 84  1  0
 41 85  1  0
 42 86  1  0
 43 87  1  0
 44 88  1  0
M  CHG  1  22   1
M  END
>  <score>  (8) 
-11.716

$$$$
=
     RDKit          3D

 88 93  0  0  0  0  0  0  0  0999 V2000
    4.5400   69.6400   67.1010 C   0  0  1  0  0  0  0  0  0  0  0  0
    5.2580   70.0300   65.7930 C   0  0  0  0  0  0  0  0  0  0  0  0
    6.1990   70.8230   65.8570 O   0  0  0  0  0  0  0  0  0  0  0  0
    4.8250   69.4460   64.6390 N   0  0  0  0  0  0  0  0  0  0  0  0
    5.5310   69.6190   63.3750 C   0  0  0  0  0  0  0  0  0  0  0  0
    5.7140   68.2700   62.6670 C   0  0  0  0  0  0  0  0  0  0  0  0
    4.4710   67.9060   61.9340 N   0  0  0  0  0  0  0  0  0  0  0  0
    3.4770   67.3960   62.8350 C   0  0  0  0  0  0  0  0  0  0  0  0
    2.3010   68.1290   63.0400 C   0  0  0  0  0  0  0  0  0  0  0  0
    1.9390   69.3930   62.3090 C   0  0  0  0  0  0  0  0  0  0  0  0
    0.4620   69.4060   61.9000 C   0  0  0  0  0  0  0  0  0  0  0  0
   -0.5100   68.8990   62.9750 C   0  0  0  0  0  0  0  0  0  0  0  0
    0.1630   68.4780   64.2790 C   0  0  0  0  0  0  0  0  0  0  0  0
    1.4030   67.6690   64.0020 C   0  0  0  0  0  0  0  0  0  0  0  0
    1.5930   66.5510   64.7300 N   0  0  0  0  0  0  0  0  0  0  0  0
    2.7020   65.8300   64.5200 C   0  0  0  0  0  0  0  0  0  0  0  0
    3.6950   66.1990   63.5860 C   0  0  0  0  0  0  0  0  0  0  0  0
    4.8370   65.3620   63.4590 C   0  0  0  0  0  0  0  0  0  0  0  0
    4.9830   64.2060   64.2260 C   0  0  0  0  0  0  0  0  0  0  0  0
    3.9960   63.8610   65.1360 C   0  0  0  0  0  0  0  0  0  0  0  0
    2.8710   64.6750   65.2720 C   0  0  0  0  0  0  0  0  0  0  0  0
    4.8010   70.7370   68.1030 N   0  0  0  0  0  4  0  0  0  0  0  0
    3.0360   69.4560   66.9310 C   0  0  0  0  0  0  0  0  0  0  0  0
    2.2490   69.5890   68.2380 C   0  0  0  0  0  0  0  0  0  0  0  0
    0.3150   68.2860   67.6430 O   0  0  0  0  0  0  0  0  0  0  0  0
    1.2670   68.4460   68.3980 C   0  0  0  0  0  0  0  0  0  0  0  0
    1.5330   67.6470   69.4790 N   0  0  0  0  0  0  0  0  0  0  0  0
    0.7750   66.4260   69.7240 C   0  0  0  0  0  0  0  0  0  0  0  0
    1.6970   65.3050   70.2260 C   0  0  0  0  0  0  0  0  0  0  0  0
    0.9180   64.0440   70.3000 N   0  0  0  0  0  0  0  0  0  0  0  0
    1.5300   63.1170   71.2060 C   0  0  0  0  0  0  0  0  0  0  0  0
    2.3670   62.0850   70.7260 C   0  0  0  0  0  0  0  0  0  0  0  0
    2.7070   61.9390   69.2600 C   0  0  0  0  0  0  0  0  0  0  0  0
    3.8410   60.9580   68.9640 C   0  0  0  0  0  0  0  0  0  0  0  0
    3.6660   59.6810   69.7690 C   0  0  0  0  0  0  0  0  0  0  0  0
    3.7290   60.0050   71.2560 C   0  0  0  0  0  0  0  0  0  0  0  0
    2.8270   61.1450   71.6530 C   0  0  0  0  0  0  0  0  0  0  0  0
    2.5350   61.2020   72.9740 N   0  0  0  0  0  0  0  0  0  0  0  0
    1.7550   62.1870   73.4310 C   0  0  0  0  0  0  0  0  0  0  0  0
    1.2130   63.1790   72.5940 C   0  0  0  0  0  0  0  0  0  0  0  0
    0.4020   64.1850   73.1770 C   0  0  0  0  0  0  0  0  0  0  0  0
    0.1260   64.1990   74.5430 C   0  0  0  0  0  0  0  0  0  0  0  0
    0.6620   63.2080   75.3540 C   0  0  0  0  0  0  0  0  0  0  0  0
    1.4680   62.2190   74.7900 C   0  0  0  0  0  0  0  0  0  0  0  0
    4.9332   68.6685   67.4349 H   0  0  0  0  0  0  0  0  0  0  0  0
    3.9743   68.8657   64.6611 H   0  0  0  0  0  0  0  0  0  0  0  0
    4.9505   70.2915   62.7263 H   0  0  0  0  0  0  0  0  0  0  0  0
    6.5228   70.0484   63.5797 H   0  0  0  0  0  0  0  0  0  0  0  0
    6.5488   68.3431   61.9544 H   0  0  0  0  0  0  0  0  0  0  0  0
    5.9302   67.4953   63.4174 H   0  0  0  0  0  0  0  0  0  0  0  0
    4.3415   68.0065   60.9171 H   0  0  0  0  0  0  0  0  0  0  0  0
    2.1350   70.2535   62.9656 H   0  0  0  0  0  0  0  0  0  0  0  0
    2.5491   69.4484   61.3954 H   0  0  0  0  0  0  0  0  0  0  0  0
    0.1856   70.4409   61.6499 H   0  0  0  0  0  0  0  0  0  0  0  0
    0.3708   68.7139   61.0499 H   0  0  0  0  0  0  0  0  0  0  0  0
   -1.2255   69.7036   63.2002 H   0  0  0  0  0  0  0  0  0  0  0  0
   -0.9942   68.0005   62.5648 H   0  0  0  0  0  0  0  0  0  0  0  0
    0.4386   69.3771   64.8496 H   0  0  0  0  0  0  0  0  0  0  0  0
   -0.5405   67.8600   64.8562 H   0  0  0  0  0  0  0  0  0  0  0  0
    5.6238   65.6322   62.7393 H   0  0  0  0  0  0  0  0  0  0  0  0
    5.8749   63.5728   64.1095 H   0  0  0  0  0  0  0  0  0  0  0  0
    4.0989   62.9519   65.7466 H   0  0  0  0  0  0  0  0  0  0  0  0
    2.0938   64.3930   65.9975 H   0  0  0  0  0  0  0  0  0  0  0  0
    4.7111   70.3592   69.0570 H   0  0  0  0  0  0  0  0  0  0  0  0
    5.7532   71.1058   67.9681 H   0  0  0  0  0  0  0  0  0  0  0  0
    4.1169   71.4951   67.9681 H   0  0  0  0  0  0  0  0  0  0  0  0
    2.6703   70.2172   66.2262 H   0  0  0  0  0  0  0  0  0  0  0  0
    2.8766   68.4321   66.5620 H   0  0  0  0  0  0  0  0  0  0  0  0
    2.9521   69.5806   69.0839 H   0  0  0  0  0  0  0  0  0  0  0  0
    1.6867   70.5341   68.2144 H   0  0  0  0  0  0  0  0  0  0  0  0
    2.2836   67.9145   70.1316 H   0  0  0  0  0  0  0  0  0  0  0  0
    0.0039   66.6260   70.4826 H   0  0  0  0  0  0  0  0  0  0  0  0
    0.3090   66.1043   68.7810 H   0  0  0  0  0  0  0  0  0  0  0  0
    2.5393   65.1792   69.5298 H   0  0  0  0  0  0  0  0  0  0  0  0
    2.0901   65.5611   71.2209 H   0  0  0  0  0  0  0  0  0  0  0  0
    0.0535   63.8596   69.7713 H   0  0  0  0  0  0  0  0  0  0  0  0
    1.8066   61.5919   68.7320 H   0  0  0  0  0  0  0  0  0  0  0  0
    3.0528   62.9265   68.9206 H   0  0  0  0  0  0  0  0  0  0  0  0
    3.8366   60.7130   67.8916 H   0  0  0  0  0  0  0  0  0  0  0  0
    4.7968   61.4255   69.2431 H   0  0  0  0  0  0  0  0  0  0  0  0
    2.6910   59.2297   69.5331 H   0  0  0  0  0  0  0  0  0  0  0  0
    4.4690   58.9739   69.5137 H   0  0  0  0  0  0  0  0  0  0  0  0
    3.4312   59.1100   71.8219 H   0  0  0  0  0  0  0  0  0  0  0  0
    4.7614   60.3110   71.4808 H   0  0  0  0  0  0  0  0  0  0  0  0
   -0.0195   64.9733   72.5360 H   0  0  0  0  0  0  0  0  0  0  0  0
   -0.5096   64.9867   74.9738 H   0  0  0  0  0  0  0  0  0  0  0  0
    0.4526   63.2027   76.4339 H   0  0  0  0  0  0  0  0  0  0  0  0
    1.8897   61.4398   75.4419 H   0  0  0  0  0  0  0  0  0  0  0  0
  2  1  1  0
  3  2  2  0
  4  2  1  0
  5  4  1  0
  6  5  1  0
  7  6  1  0
  8  7  1  0
  9  8  1  0
 10  9  1  0
 11 10  1  0
 12 11  1  0
 13 12  1  0
 14  9  2  0
 14 13  1  0
 15 14  1  0
 16 15  2  0
 17 16  1  0
 17  8  2  0
 18 17  1  0
 19 18  2  0
 20 19  1  0
 21 20  2  0
 21 16  1  0
 22  1  1  0
 23  1  1  0
 24 23  1  0
 26 24  1  0
 26 25  2  0
 27 26  1  0
 28 27  1  0
 29 28  1  0
 30 29  1  0
 31 30  1  0
 32 31  1  0
 33 32  1  0
 34 33  1  0
 35 34  1  0
 36 35  1  0
 37 36  1  0
 37 32  2  0
 38 37  1  0
 39 38  2  0
 40 39  1  0
 40 31  2  0
 41 40  1  0
 42 41  2  0
 43 42  1  0
 44 39  1  0
 44 43  2  0
  1 45  1  1
  4 46  1  0
  5 47  1  0
  5 48  1  0
  6 49  1  0
  6 50  1  0
  7 51  1  0
 10 52  1  0
 10 53  1  0
 11 54  1  0
 11 55  1  0
 12 56  1  0
 12 57  1  0
 13 58  1  0
 13 59  1  0
 18 60  1  0
 19 61  1  0
 20 62  1  0
 21 63  1  0
 22 64  1  0
 22 65  1  0
 22 66  1  0
 23 67  1  0
 23 68  1  0
 24 69  1  0
 24 70  1  0
 27 71  1  0
 28 72  1  0
 28 73  1  0
 29 74  1  0
 29 75  1  0
 30 76  1  0
 33 77  1  0
 33 78  1  0
 34 79  1  0
 34 80  1  0
 35 81  1  0
 35 82  1  0
 36 83  1  0
 36 84  1  0
 41 85  1  0
 42 86  1  0
 43 87  1  0
 44 88  1  0
M  CHG  1  22   1
M  END
>  <score>  (9) 
-11.687

$$$$
