=
     RDKit          3D

 44 45  0  0  0  0  0  0  0  0999 V2000
    0.8670   68.3230   64.8420 C   0  0  0  0  0  0  0  0  0  0  0  0
    2.0560   68.5680   65.5350 C   0  0  0  0  0  0  0  0  0  0  0  0
    3.2210   68.9170   64.8400 C   0  0  0  0  0  0  0  0  0  0  0  0
    3.2080   68.9820   63.4430 C   0  0  0  0  0  0  0  0  0  0  0  0
    2.0340   68.7200   62.7350 C   0  0  0  0  0  0  0  0  0  0  0  0
    0.8530   68.4370   63.4380 C   0  0  0  0  0  0  0  0  0  0  0  0
    4.4580   69.1810   65.6240 C   0  0  0  0  0  0  0  0  0  0  0  0
    5.5400   68.7210   65.2760 O   0  0  0  0  0  0  0  0  0  0  0  0
    4.3330   69.9480   66.7720 N   0  0  0  0  0  0  0  0  0  0  0  0
    5.4530   70.0540   67.7010 C   0  0  2  0  0  0  0  0  0  0  0  0
    4.9510   70.4800   69.0840 C   0  0  0  0  0  0  0  0  0  0  0  0
    6.0780   70.5510   70.1180 C   0  0  0  0  0  0  0  0  0  0  0  0
    7.4340   70.9310   69.5390 C   0  0  0  0  0  0  0  0  0  0  0  0
    7.2340   71.7550   68.3190 N   0  0  0  0  0  4  0  0  0  0  0  0
    6.5730   71.0110   67.1940 C   0  0  0  0  0  0  0  0  0  0  0  0
   -1.0090   69.0040   66.1570 C   0  0  0  0  0  0  0  0  0  0  0  0
   -0.3240   67.9900   65.4340 O   0  0  0  0  0  0  0  0  0  0  0  0
   -0.3210   68.2210   62.7580 O   0  0  0  0  0  0  0  0  0  0  0  0
   -0.8470   69.4580   62.2730 C   0  0  0  0  0  0  0  0  0  0  0  0
    2.1710   68.8230   61.3760 O   0  0  0  0  0  0  0  0  0  0  0  0
    3.5040   68.7090   60.8820 C   0  0  0  0  0  0  0  0  0  0  0  0
    2.0769   68.4863   66.6318 H   0  0  0  0  0  0  0  0  0  0  0  0
    4.1283   69.2411   62.8991 H   0  0  0  0  0  0  0  0  0  0  0  0
    3.4510   70.4422   66.9688 H   0  0  0  0  0  0  0  0  0  0  0  0
    5.9111   69.0565   67.7731 H   0  0  0  0  0  0  0  0  0  0  0  0
    4.4854   71.4731   69.0003 H   0  0  0  0  0  0  0  0  0  0  0  0
    4.2292   69.7238   69.4262 H   0  0  0  0  0  0  0  0  0  0  0  0
    5.8043   71.3001   70.8755 H   0  0  0  0  0  0  0  0  0  0  0  0
    6.1859   69.5399   70.5376 H   0  0  0  0  0  0  0  0  0  0  0  0
    8.0025   71.5082   70.2831 H   0  0  0  0  0  0  0  0  0  0  0  0
    7.9925   70.0194   69.2802 H   0  0  0  0  0  0  0  0  0  0  0  0
    6.6455   72.5638   68.5649 H   0  0  0  0  0  0  0  0  0  0  0  0
    8.1677   72.0369   67.9879 H   0  0  0  0  0  0  0  0  0  0  0  0
    7.3340   70.4177   66.6659 H   0  0  0  0  0  0  0  0  0  0  0  0
    6.1086   71.7511   66.5258 H   0  0  0  0  0  0  0  0  0  0  0  0
   -0.8904   68.8284   67.2364 H   0  0  0  0  0  0  0  0  0  0  0  0
   -0.5891   69.9869   65.8971 H   0  0  0  0  0  0  0  0  0  0  0  0
   -2.0776   68.9814   65.8971 H   0  0  0  0  0  0  0  0  0  0  0  0
   -1.1197   70.0993   63.1241 H   0  0  0  0  0  0  0  0  0  0  0  0
   -0.0866   69.9649   61.6608 H   0  0  0  0  0  0  0  0  0  0  0  0
   -1.7396   69.2620   61.6608 H   0  0  0  0  0  0  0  0  0  0  0  0
    4.2046   68.6491   61.7279 H   0  0  0  0  0  0  0  0  0  0  0  0
    3.5912   67.8001   60.2685 H   0  0  0  0  0  0  0  0  0  0  0  0
    3.7443   69.5899   60.2685 H   0  0  0  0  0  0  0  0  0  0  0  0
  2  1  2  0
  3  2  1  0
  4  3  2  0
  5  4  1  0
  6  5  2  0
  6  1  1  0
  7  3  1  0
  8  7  2  0
  9  7  1  0
 10  9  1  0
 11 10  1  0
 12 11  1  0
 13 12  1  0
 14 13  1  0
 15 10  1  0
 15 14  1  0
 17  1  1  0
 17 16  1  0
 18  6  1  0
 19 18  1  0
 20  5  1  0
 21 20  1  0
  2 22  1  0
  4 23  1  0
  9 24  1  0
 10 25  1  1
 11 26  1  0
 11 27  1  0
 12 28  1  0
 12 29  1  0
 13 30  1  0
 13 31  1  0
 14 32  1  0
 14 33  1  0
 15 34  1  0
 15 35  1  0
 16 36  1  0
 16 37  1  0
 16 38  1  0
 19 39  1  0
 19 40  1  0
 19 41  1  0
 21 42  1  0
 21 43  1  0
 21 44  1  0
M  CHG  1  14   1
M  END
>  <score>  (1) 
-8.135

$$$$
=
     RDKit          3D

 44 45  0  0  0  0  0  0  0  0999 V2000
    2.5310   63.3050   71.2210 C   0  0  0  0  0  0  0  0  0  0  0  0
    2.2290   64.3580   70.3530 C   0  0  0  0  0  0  0  0  0  0  0  0
    1.1350   65.1950   70.6110 C   0  0  0  0  0  0  0  0  0  0  0  0
    0.3150   64.9520   71.7180 C   0  0  0  0  0  0  0  0  0  0  0  0
    0.5920   63.8910   72.5820 C   0  0  0  0  0  0  0  0  0  0  0  0
    1.7270   63.0980   72.3590 C   0  0  0  0  0  0  0  0  0  0  0  0
    0.8620   66.3100   69.6650 C   0  0  0  0  0  0  0  0  0  0  0  0
    1.5080   67.3510   69.7070 O   0  0  0  0  0  0  0  0  0  0  0  0
   -0.1640   66.1310   68.7500 N   0  0  0  0  0  0  0  0  0  0  0  0
   -0.6310   67.2600   67.9520 C   0  0  2  0  0  0  0  0  0  0  0  0
   -2.0900   67.0450   67.5380 C   0  0  0  0  0  0  0  0  0  0  0  0
   -2.6540   68.2270   66.7450 C   0  0  0  0  0  0  0  0  0  0  0  0
   -1.6200   68.9660   65.9060 C   0  0  0  0  0  0  0  0  0  0  0  0
   -0.5290   68.0280   65.5340 N   0  0  0  0  0  4  0  0  0  0  0  0
    0.2670   67.5370   66.7100 C   0  0  0  0  0  0  0  0  0  0  0  0
    4.8440   62.9990   70.7020 C   0  0  0  0  0  0  0  0  0  0  0  0
    3.5850   62.4430   71.0600 O   0  0  0  0  0  0  0  0  0  0  0  0
    2.0380   62.0780   73.2250 O   0  0  0  0  0  0  0  0  0  0  0  0
    1.2890   60.9050   72.9000 C   0  0  0  0  0  0  0  0  0  0  0  0
   -0.2930   63.7770   73.6220 O   0  0  0  0  0  0  0  0  0  0  0  0
    0.0430   64.5070   74.8000 C   0  0  0  0  0  0  0  0  0  0  0  0
    2.8527   64.5305   69.4635 H   0  0  0  0  0  0  0  0  0  0  0  0
   -0.5528   65.6005   71.9087 H   0  0  0  0  0  0  0  0  0  0  0  0
   -0.5957   65.2031   68.6337 H   0  0  0  0  0  0  0  0  0  0  0  0
   -0.5629   68.1562   68.5861 H   0  0  0  0  0  0  0  0  0  0  0  0
   -2.1503   66.1408   66.9145 H   0  0  0  0  0  0  0  0  0  0  0  0
   -2.6868   66.9431   68.4564 H   0  0  0  0  0  0  0  0  0  0  0  0
   -3.4376   67.8485   66.0721 H   0  0  0  0  0  0  0  0  0  0  0  0
   -3.0370   68.9482   67.4820 H   0  0  0  0  0  0  0  0  0  0  0  0
   -2.0967   69.3554   64.9944 H   0  0  0  0  0  0  0  0  0  0  0  0
   -1.2047   69.8033   66.4860 H   0  0  0  0  0  0  0  0  0  0  0  0
   -0.9463   67.2142   65.0602 H   0  0  0  0  0  0  0  0  0  0  0  0
    0.1200   68.5452   64.9239 H   0  0  0  0  0  0  0  0  0  0  0  0
    1.0141   68.2995   66.9756 H   0  0  0  0  0  0  0  0  0  0  0  0
    0.7473   66.5903   66.4219 H   0  0  0  0  0  0  0  0  0  0  0  0
    5.4074   63.2478   71.6134 H   0  0  0  0  0  0  0  0  0  0  0  0
    5.4120   62.2680   70.1078 H   0  0  0  0  0  0  0  0  0  0  0  0
    4.6864   63.9112   70.1078 H   0  0  0  0  0  0  0  0  0  0  0  0
    0.9699   60.4053   73.8265 H   0  0  0  0  0  0  0  0  0  0  0  0
    0.4033   61.1868   72.3117 H   0  0  0  0  0  0  0  0  0  0  0  0
    1.9173   60.2201   72.3117 H   0  0  0  0  0  0  0  0  0  0  0  0
   -0.2288   63.9165   75.6873 H   0  0  0  0  0  0  0  0  0  0  0  0
    1.1244   64.7083   74.8107 H   0  0  0  0  0  0  0  0  0  0  0  0
   -0.5074   65.4594   74.8107 H   0  0  0  0  0  0  0  0  0  0  0  0
  2  1  2  0
  3  2  1  0
  4  3  2  0
  5  4  1  0
  6  5  2  0
  6  1  1  0
  7  3  1  0
  8  7  2  0
  9  7  1  0
 10  9  1  0
 11 10  1  0
 12 11  1  0
 13 12  1  0
 14 13  1  0
 15 10  1  0
 15 14  1  0
 17  1  1  0
 17 16  1  0
 18  6  1  0
 19 18  1  0
 20  5  1  0
 21 20  1  0
  2 22  1  0
  4 23  1  0
  9 24  1  0
 10 25  1  1
 11 26  1  0
 11 27  1  0
 12 28  1  0
 12 29  1  0
 13 30  1  0
 13 31  1  0
 14 32  1  0
 14 33  1  0
 15 34  1  0
 15 35  1  0
 16 36  1  0
 16 37  1  0
 16 38  1  0
 19 39  1  0
 19 40  1  0
 19 41  1  0
 21 42  1  0
 21 43  1  0
 21 44  1  0
M  CHG  1  14   1
M  END
>  <score>  (2) 
-7.821

$$$$
=
     RDKit          3D

 44 45  0  0  0  0  0  0  0  0999 V2000
    0.5410   63.7890   72.5750 C   0  0  0  0  0  0  0  0  0  0  0  0
    0.2970   64.8580   71.7080 C   0  0  0  0  0  0  0  0  0  0  0  0
    1.1410   65.0870   70.6140 C   0  0  0  0  0  0  0  0  0  0  0  0
    2.2580   64.2700   70.4100 C   0  0  0  0  0  0  0  0  0  0  0  0
    2.5260   63.2120   71.2800 C   0  0  0  0  0  0  0  0  0  0  0  0
    1.6410   62.9440   72.3340 C   0  0  0  0  0  0  0  0  0  0  0  0
    0.8330   66.2290   69.7120 C   0  0  0  0  0  0  0  0  0  0  0  0
    1.4500   67.2860   69.7920 O   0  0  0  0  0  0  0  0  0  0  0  0
   -0.1910   66.0560   68.7940 N   0  0  0  0  0  0  0  0  0  0  0  0
   -0.6930   67.2010   68.0400 C   0  0  2  0  0  0  0  0  0  0  0  0
   -2.1520   66.9670   67.6370 C   0  0  0  0  0  0  0  0  0  0  0  0
   -2.7520   68.1620   66.8920 C   0  0  0  0  0  0  0  0  0  0  0  0
   -1.7450   68.9520   66.0660 C   0  0  0  0  0  0  0  0  0  0  0  0
   -0.6390   68.0530   65.6500 N   0  0  0  0  0  4  0  0  0  0  0  0
    0.1830   67.5400   66.7980 C   0  0  0  0  0  0  0  0  0  0  0  0
   -0.0130   64.2030   74.8630 C   0  0  0  0  0  0  0  0  0  0  0  0
   -0.2350   63.4780   73.6620 O   0  0  0  0  0  0  0  0  0  0  0  0
    1.8670   61.8790   73.1720 O   0  0  0  0  0  0  0  0  0  0  0  0
    1.3300   60.6810   72.6060 C   0  0  0  0  0  0  0  0  0  0  0  0
    3.6510   62.4980   70.9550 O   0  0  0  0  0  0  0  0  0  0  0  0
    3.5770   61.7510   69.7420 C   0  0  0  0  0  0  0  0  0  0  0  0
   -0.5616   65.5222   71.8857 H   0  0  0  0  0  0  0  0  0  0  0  0
    2.9286   64.4624   69.5595 H   0  0  0  0  0  0  0  0  0  0  0  0
   -0.5970   65.1214   68.6440 H   0  0  0  0  0  0  0  0  0  0  0  0
   -0.6367   68.0771   68.7028 H   0  0  0  0  0  0  0  0  0  0  0  0
   -2.2004   66.0833   66.9837 H   0  0  0  0  0  0  0  0  0  0  0  0
   -2.7344   66.8203   68.5586 H   0  0  0  0  0  0  0  0  0  0  0  0
   -3.5358   67.7891   66.2162 H   0  0  0  0  0  0  0  0  0  0  0  0
   -3.1413   68.8491   67.6578 H   0  0  0  0  0  0  0  0  0  0  0  0
   -2.2417   69.3608   65.1737 H   0  0  0  0  0  0  0  0  0  0  0  0
   -1.3411   69.7785   66.6691 H   0  0  0  0  0  0  0  0  0  0  0  0
   -1.0441   67.2466   65.1535 H   0  0  0  0  0  0  0  0  0  0  0  0
   -0.0094   68.6058   65.0509 H   0  0  0  0  0  0  0  0  0  0  0  0
    0.9166   68.3093   67.0807 H   0  0  0  0  0  0  0  0  0  0  0  0
    0.6806   66.6149   66.4717 H   0  0  0  0  0  0  0  0  0  0  0  0
   -0.2124   63.5516   75.7267 H   0  0  0  0  0  0  0  0  0  0  0  0
    1.0315   64.5465   74.8962 H   0  0  0  0  0  0  0  0  0  0  0  0
   -0.6861   65.0724   74.8962 H   0  0  0  0  0  0  0  0  0  0  0  0
    1.0243   59.9991   73.4132 H   0  0  0  0  0  0  0  0  0  0  0  0
    0.4567   60.9285   71.9847 H   0  0  0  0  0  0  0  0  0  0  0  0
    2.0958   60.1937   71.9847 H   0  0  0  0  0  0  0  0  0  0  0  0
    3.4710   60.6814   69.9760 H   0  0  0  0  0  0  0  0  0  0  0  0
    2.7077   62.0863   69.1573 H   0  0  0  0  0  0  0  0  0  0  0  0
    4.4952   61.9092   69.1573 H   0  0  0  0  0  0  0  0  0  0  0  0
  2  1  2  0
  3  2  1  0
  4  3  2  0
  5  4  1  0
  6  5  2  0
  6  1  1  0
  7  3  1  0
  8  7  2  0
  9  7  1  0
 10  9  1  0
 11 10  1  0
 12 11  1  0
 13 12  1  0
 14 13  1  0
 15 10  1  0
 15 14  1  0
 17  1  1  0
 17 16  1  0
 18  6  1  0
 19 18  1  0
 20  5  1  0
 21 20  1  0
  2 22  1  0
  4 23  1  0
  9 24  1  0
 10 25  1  1
 11 26  1  0
 11 27  1  0
 12 28  1  0
 12 29  1  0
 13 30  1  0
 13 31  1  0
 14 32  1  0
 14 33  1  0
 15 34  1  0
 15 35  1  0
 16 36  1  0
 16 37  1  0
 16 38  1  0
 19 39  1  0
 19 40  1  0
 19 41  1  0
 21 42  1  0
 21 43  1  0
 21 44  1  0
M  CHG  1  14   1
M  END
>  <score>  (3) 
-7.76

$$$$
=
     RDKit          3D

 44 45  0  0  0  0  0  0  0  0999 V2000
    1.3640   68.3280   67.9130 C   0  0  0  0  0  0  0  0  0  0  0  0
    1.3720   67.4920   69.0320 C   0  0  0  0  0  0  0  0  0  0  0  0
    0.3220   66.5910   69.2500 C   0  0  0  0  0  0  0  0  0  0  0  0
   -0.7630   66.5560   68.3680 C   0  0  0  0  0  0  0  0  0  0  0  0
   -0.7950   67.4000   67.2560 C   0  0  0  0  0  0  0  0  0  0  0  0
    0.2900   68.2520   67.0050 C   0  0  0  0  0  0  0  0  0  0  0  0
    0.3830   65.7120   70.4490 C   0  0  0  0  0  0  0  0  0  0  0  0
   -0.0340   66.0930   71.5380 O   0  0  0  0  0  0  0  0  0  0  0  0
    0.9480   64.4570   70.2890 N   0  0  0  0  0  0  0  0  0  0  0  0
    1.2440   63.6380   71.4610 C   0  0  2  0  0  0  0  0  0  0  0  0
    2.5780   62.9100   71.2700 C   0  0  0  0  0  0  0  0  0  0  0  0
    2.9700   62.0780   72.4950 C   0  0  0  0  0  0  0  0  0  0  0  0
    1.7870   61.5220   73.2770 C   0  0  0  0  0  0  0  0  0  0  0  0
    0.6330   61.3440   72.3590 N   0  0  0  0  0  4  0  0  0  0  0  0
    0.1030   62.6350   71.8030 C   0  0  0  0  0  0  0  0  0  0  0  0
    2.8720   70.0220   68.6680 C   0  0  0  0  0  0  0  0  0  0  0  0
    2.3510   69.2300   67.6090 O   0  0  0  0  0  0  0  0  0  0  0  0
    0.2930   69.0570   65.8910 O   0  0  0  0  0  0  0  0  0  0  0  0
    0.8060   68.3420   64.7650 C   0  0  0  0  0  0  0  0  0  0  0  0
   -1.9160   67.2540   66.4810 O   0  0  0  0  0  0  0  0  0  0  0  0
   -2.8310   68.3480   66.5090 C   0  0  0  0  0  0  0  0  0  0  0  0
    2.2074   67.5415   69.7459 H   0  0  0  0  0  0  0  0  0  0  0  0
   -1.5951   65.8603   68.5512 H   0  0  0  0  0  0  0  0  0  0  0  0
    1.1588   64.1025   69.3452 H   0  0  0  0  0  0  0  0  0  0  0  0
    1.3225   64.3177   72.3223 H   0  0  0  0  0  0  0  0  0  0  0  0
    2.4941   62.2411   70.4008 H   0  0  0  0  0  0  0  0  0  0  0  0
    3.3570   63.6717   71.1187 H   0  0  0  0  0  0  0  0  0  0  0  0
    3.5866   61.2329   72.1550 H   0  0  0  0  0  0  0  0  0  0  0  0
    3.5097   62.7528   73.1757 H   0  0  0  0  0  0  0  0  0  0  0  0
    2.0603   60.5513   73.7164 H   0  0  0  0  0  0  0  0  0  0  0  0
    1.5145   62.2218   74.0808 H   0  0  0  0  0  0  0  0  0  0  0  0
    0.9308   60.7487   71.5730 H   0  0  0  0  0  0  0  0  0  0  0  0
   -0.1267   60.9166   72.9077 H   0  0  0  0  0  0  0  0  0  0  0  0
   -0.5624   63.0954   72.5481 H   0  0  0  0  0  0  0  0  0  0  0  0
   -0.4372   62.4065   70.8724 H   0  0  0  0  0  0  0  0  0  0  0  0
    2.5817   69.5808   69.6329 H   0  0  0  0  0  0  0  0  0  0  0  0
    3.9691   70.0555   68.5953 H   0  0  0  0  0  0  0  0  0  0  0  0
    2.4684   71.0427   68.5953 H   0  0  0  0  0  0  0  0  0  0  0  0
    1.4140   67.4946   65.1147 H   0  0  0  0  0  0  0  0  0  0  0  0
   -0.0303   67.9669   64.1568 H   0  0  0  0  0  0  0  0  0  0  0  0
    1.4292   69.0141   64.1568 H   0  0  0  0  0  0  0  0  0  0  0  0
   -3.0531   68.6136   67.5531 H   0  0  0  0  0  0  0  0  0  0  0  0
   -2.3838   69.2132   65.9978 H   0  0  0  0  0  0  0  0  0  0  0  0
   -3.7617   68.0608   65.9978 H   0  0  0  0  0  0  0  0  0  0  0  0
  2  1  2  0
  3  2  1  0
  4  3  2  0
  5  4  1  0
  6  5  2  0
  6  1  1  0
  7  3  1  0
  8  7  2  0
  9  7  1  0
 10  9  1  0
 11 10  1  0
 12 11  1  0
 13 12  1  0
 14 13  1  0
 15 10  1  0
 15 14  1  0
 17  1  1  0
 17 16  1  0
 18  6  1  0
 19 18  1  0
 20  5  1  0
 21 20  1  0
  2 22  1  0
  4 23  1  0
  9 24  1  0
 10 25  1  1
 11 26  1  0
 11 27  1  0
 12 28  1  0
 12 29  1  0
 13 30  1  0
 13 31  1  0
 14 32  1  0
 14 33  1  0
 15 34  1  0
 15 35  1  0
 16 36  1  0
 16 37  1  0
 16 38  1  0
 19 39  1  0
 19 40  1  0
 19 41  1  0
 21 42  1  0
 21 43  1  0
 21 44  1  0
M  CHG  1  14   1
M  END
>  <score>  (4) 
-7.212

$$$$
=
     RDKit          3D

 44 45  0  0  0  0  0  0  0  0999 V2000
    4.3360   69.8160   67.4190 C   0  0  0  0  0  0  0  0  0  0  0  0
    3.0590   69.3810   67.0540 C   0  0  0  0  0  0  0  0  0  0  0  0
    2.8040   68.9570   65.7430 C   0  0  0  0  0  0  0  0  0  0  0  0
    3.8200   69.0070   64.7820 C   0  0  0  0  0  0  0  0  0  0  0  0
    5.0950   69.4590   65.1270 C   0  0  0  0  0  0  0  0  0  0  0  0
    5.3640   69.8180   66.4560 C   0  0  0  0  0  0  0  0  0  0  0  0
    1.4320   68.4910   65.4060 C   0  0  0  0  0  0  0  0  0  0  0  0
    1.0630   68.3930   64.2410 O   0  0  0  0  0  0  0  0  0  0  0  0
    0.5840   68.1930   66.4620 N   0  0  0  0  0  0  0  0  0  0  0  0
   -0.8330   67.9510   66.2100 C   0  0  2  0  0  0  0  0  0  0  0  0
   -1.5810   69.2820   66.0940 C   0  0  0  0  0  0  0  0  0  0  0  0
   -3.0660   69.0920   65.7710 C   0  0  0  0  0  0  0  0  0  0  0  0
   -3.6670   67.8100   66.3330 C   0  0  0  0  0  0  0  0  0  0  0  0
   -2.9190   67.4090   67.5520 N   0  0  0  0  0  4  0  0  0  0  0  0
   -1.4900   67.0310   67.2820 C   0  0  0  0  0  0  0  0  0  0  0  0
    3.7250   70.9840   69.4130 C   0  0  0  0  0  0  0  0  0  0  0  0
    4.6840   70.2360   68.6770 O   0  0  0  0  0  0  0  0  0  0  0  0
    6.6250   70.2220   66.8210 O   0  0  0  0  0  0  0  0  0  0  0  0
    6.6430   71.6300   67.0670 C   0  0  0  0  0  0  0  0  0  0  0  0
    5.9860   69.4510   64.0860 O   0  0  0  0  0  0  0  0  0  0  0  0
    5.4540   69.0550   62.8240 C   0  0  0  0  0  0  0  0  0  0  0  0
    2.2502   69.3714   67.7995 H   0  0  0  0  0  0  0  0  0  0  0  0
    3.6130   68.6886   63.7496 H   0  0  0  0  0  0  0  0  0  0  0  0
    0.9534   68.1426   67.4222 H   0  0  0  0  0  0  0  0  0  0  0  0
   -0.9069   67.4102   65.2550 H   0  0  0  0  0  0  0  0  0  0  0  0
   -1.4935   69.8206   67.0491 H   0  0  0  0  0  0  0  0  0  0  0  0
   -1.1284   69.8497   65.2676 H   0  0  0  0  0  0  0  0  0  0  0  0
   -3.6217   69.9452   66.1873 H   0  0  0  0  0  0  0  0  0  0  0  0
   -3.1459   69.0256   64.6759 H   0  0  0  0  0  0  0  0  0  0  0  0
   -4.7228   67.9812   66.5897 H   0  0  0  0  0  0  0  0  0  0  0  0
   -3.5992   67.0109   65.5801 H   0  0  0  0  0  0  0  0  0  0  0  0
   -2.9279   68.1980   68.2141 H   0  0  0  0  0  0  0  0  0  0  0  0
   -3.3862   66.5738   67.9327 H   0  0  0  0  0  0  0  0  0  0  0  0
   -1.4597   65.9914   66.9239 H   0  0  0  0  0  0  0  0  0  0  0  0
   -0.9261   67.1468   68.2193 H   0  0  0  0  0  0  0  0  0  0  0  0
    3.9010   70.8467   70.4901 H   0  0  0  0  0  0  0  0  0  0  0  0
    3.8183   72.0502   69.1592 H   0  0  0  0  0  0  0  0  0  0  0  0
    2.7136   70.6339   69.1592 H   0  0  0  0  0  0  0  0  0  0  0  0
    6.6453   71.8127   68.1517 H   0  0  0  0  0  0  0  0  0  0  0  0
    7.5468   72.0689   66.6193 H   0  0  0  0  0  0  0  0  0  0  0  0
    5.7507   72.0919   66.6193 H   0  0  0  0  0  0  0  0  0  0  0  0
    4.5808   68.4050   62.9819 H   0  0  0  0  0  0  0  0  0  0  0  0
    5.1491   69.9477   62.2582 H   0  0  0  0  0  0  0  0  0  0  0  0
    6.2217   68.5068   62.2582 H   0  0  0  0  0  0  0  0  0  0  0  0
  2  1  2  0
  3  2  1  0
  4  3  2  0
  5  4  1  0
  6  5  2  0
  6  1  1  0
  7  3  1  0
  8  7  2  0
  9  7  1  0
 10  9  1  0
 11 10  1  0
 12 11  1  0
 13 12  1  0
 14 13  1  0
 15 10  1  0
 15 14  1  0
 17  1  1  0
 17 16  1  0
 18  6  1  0
 19 18  1  0
 20  5  1  0
 21 20  1  0
  2 22  1  0
  4 23  1  0
  9 24  1  0
 10 25  1  6
 11 26  1  0
 11 27  1  0
 12 28  1  0
 12 29  1  0
 13 30  1  0
 13 31  1  0
 14 32  1  0
 14 33  1  0
 15 34  1  0
 15 35  1  0
 16 36  1  0
 16 37  1  0
 16 38  1  0
 19 39  1  0
 19 40  1  0
 19 41  1  0
 21 42  1  0
 21 43  1  0
 21 44  1  0
M  CHG  1  14   1
M  END
>  <score>  (5) 
-7.145

$$$$
=
     RDKit          3D

 44 45  0  0  0  0  0  0  0  0999 V2000
   -0.8100   67.2910   67.3870 C   0  0  0  0  0  0  0  0  0  0  0  0
   -0.7690   66.4900   68.5310 C   0  0  0  0  0  0  0  0  0  0  0  0
    0.3170   66.5710   69.4120 C   0  0  0  0  0  0  0  0  0  0  0  0
    1.3860   67.4260   69.1270 C   0  0  0  0  0  0  0  0  0  0  0  0
    1.3690   68.2180   67.9770 C   0  0  0  0  0  0  0  0  0  0  0  0
    0.2490   68.1840   67.1330 C   0  0  0  0  0  0  0  0  0  0  0  0
    0.3090   65.7070   70.6230 C   0  0  0  0  0  0  0  0  0  0  0  0
   -0.1460   66.1100   71.6880 O   0  0  0  0  0  0  0  0  0  0  0  0
    0.8550   64.4380   70.5030 N   0  0  0  0  0  0  0  0  0  0  0  0
    1.0840   63.6290   71.6960 C   0  0  2  0  0  0  0  0  0  0  0  0
    2.4490   62.9400   71.6100 C   0  0  0  0  0  0  0  0  0  0  0  0
    2.7710   62.1220   72.8640 C   0  0  0  0  0  0  0  0  0  0  0  0
    1.5480   61.5310   73.5540 C   0  0  0  0  0  0  0  0  0  0  0  0
    0.4730   61.3190   72.5520 N   0  0  0  0  0  4  0  0  0  0  0  0
   -0.0510   62.5930   71.9530 C   0  0  0  0  0  0  0  0  0  0  0  0
   -3.0240   67.9910   66.8190 C   0  0  0  0  0  0  0  0  0  0  0  0
   -1.8350   67.2930   66.4750 O   0  0  0  0  0  0  0  0  0  0  0  0
    0.1970   68.9900   66.0220 O   0  0  0  0  0  0  0  0  0  0  0  0
    0.8860   68.3750   64.9310 C   0  0  0  0  0  0  0  0  0  0  0  0
    2.4800   69.0060   67.8290 O   0  0  0  0  0  0  0  0  0  0  0  0
    2.4410   70.2590   68.5100 C   0  0  0  0  0  0  0  0  0  0  0  0
   -1.5933   65.7925   68.7408 H   0  0  0  0  0  0  0  0  0  0  0  0
    2.2450   67.4750   69.8123 H   0  0  0  0  0  0  0  0  0  0  0  0
    1.0985   64.0670   69.5735 H   0  0  0  0  0  0  0  0  0  0  0  0
    1.0768   64.3114   72.5587 H   0  0  0  0  0  0  0  0  0  0  0  0
    2.4508   62.2674   70.7396 H   0  0  0  0  0  0  0  0  0  0  0  0
    3.2147   63.7241   71.5157 H   0  0  0  0  0  0  0  0  0  0  0  0
    3.4374   61.2958   72.5755 H   0  0  0  0  0  0  0  0  0  0  0  0
    3.2363   62.8133   73.5820 H   0  0  0  0  0  0  0  0  0  0  0  0
    1.8155   60.5687   74.0149 H   0  0  0  0  0  0  0  0  0  0  0  0
    1.1943   62.2228   74.3327 H   0  0  0  0  0  0  0  0  0  0  0  0
    0.8468   60.7319   71.7927 H   0  0  0  0  0  0  0  0  0  0  0  0
   -0.3134   60.8705   73.0432 H   0  0  0  0  0  0  0  0  0  0  0  0
   -0.7846   63.0344   72.6436 H   0  0  0  0  0  0  0  0  0  0  0  0
   -0.5121   62.3480   70.9848 H   0  0  0  0  0  0  0  0  0  0  0  0
   -3.1143   68.0440   67.9140 H   0  0  0  0  0  0  0  0  0  0  0  0
   -2.9844   69.0092   66.4046 H   0  0  0  0  0  0  0  0  0  0  0  0
   -3.8938   67.4601   66.4046 H   0  0  0  0  0  0  0  0  0  0  0  0
    1.6533   67.6901   65.3212 H   0  0  0  0  0  0  0  0  0  0  0  0
    0.1694   67.8107   64.3161 H   0  0  0  0  0  0  0  0  0  0  0  0
    1.3656   69.1508   64.3161 H   0  0  0  0  0  0  0  0  0  0  0  0
    2.4464   70.0862   69.5963 H   0  0  0  0  0  0  0  0  0  0  0  0
    3.3210   70.8564   68.2294 H   0  0  0  0  0  0  0  0  0  0  0  0
    1.5256   70.8005   68.2294 H   0  0  0  0  0  0  0  0  0  0  0  0
  2  1  2  0
  3  2  1  0
  4  3  2  0
  5  4  1  0
  6  5  2  0
  6  1  1  0
  7  3  1  0
  8  7  2  0
  9  7  1  0
 10  9  1  0
 11 10  1  0
 12 11  1  0
 13 12  1  0
 14 13  1  0
 15 10  1  0
 15 14  1  0
 17  1  1  0
 17 16  1  0
 18  6  1  0
 19 18  1  0
 20  5  1  0
 21 20  1  0
  2 22  1  0
  4 23  1  0
  9 24  1  0
 10 25  1  1
 11 26  1  0
 11 27  1  0
 12 28  1  0
 12 29  1  0
 13 30  1  0
 13 31  1  0
 14 32  1  0
 14 33  1  0
 15 34  1  0
 15 35  1  0
 16 36  1  0
 16 37  1  0
 16 38  1  0
 19 39  1  0
 19 40  1  0
 19 41  1  0
 21 42  1  0
 21 43  1  0
 21 44  1  0
M  CHG  1  14   1
M  END
>  <score>  (6) 
-7.1

$$$$
=
     RDKit          3D

 44 45  0  0  0  0  0  0  0  0999 V2000
   -0.5030   68.3910   65.7410 C   0  0  0  0  0  0  0  0  0  0  0  0
   -0.2480   67.8950   67.0220 C   0  0  0  0  0  0  0  0  0  0  0  0
    1.0640   67.8340   67.5090 C   0  0  0  0  0  0  0  0  0  0  0  0
    2.1300   68.2320   66.6960 C   0  0  0  0  0  0  0  0  0  0  0  0
    1.8930   68.7110   65.4050 C   0  0  0  0  0  0  0  0  0  0  0  0
    0.5730   68.8330   64.9470 C   0  0  0  0  0  0  0  0  0  0  0  0
    1.2830   67.3100   68.8840 C   0  0  0  0  0  0  0  0  0  0  0  0
    1.8880   67.9670   69.7250 O   0  0  0  0  0  0  0  0  0  0  0  0
    0.7950   66.0450   69.1680 N   0  0  0  0  0  0  0  0  0  0  0  0
    1.1700   65.3840   70.4150 C   0  0  2  0  0  0  0  0  0  0  0  0
    1.8220   64.0310   70.1170 C   0  0  0  0  0  0  0  0  0  0  0  0
    2.2900   63.3150   71.3870 C   0  0  0  0  0  0  0  0  0  0  0  0
    1.4440   63.6130   72.6190 C   0  0  0  0  0  0  0  0  0  0  0  0
    0.0620   63.9520   72.1940 N   0  0  0  0  0  4  0  0  0  0  0  0
   -0.0270   65.2230   71.3990 C   0  0  0  0  0  0  0  0  0  0  0  0
   -2.8490   68.7150   66.0620 C   0  0  0  0  0  0  0  0  0  0  0  0
   -1.7520   68.5020   65.1850 O   0  0  0  0  0  0  0  0  0  0  0  0
    0.3200   69.3440   63.6970 O   0  0  0  0  0  0  0  0  0  0  0  0
    0.4530   68.3220   62.7080 C   0  0  0  0  0  0  0  0  0  0  0  0
    3.0300   69.0640   64.7270 O   0  0  0  0  0  0  0  0  0  0  0  0
    4.1420   69.4340   65.5410 C   0  0  0  0  0  0  0  0  0  0  0  0
   -1.0818   67.5506   67.6514 H   0  0  0  0  0  0  0  0  0  0  0  0
    3.1607   68.1676   67.0749 H   0  0  0  0  0  0  0  0  0  0  0  0
    0.1690   65.5716   68.5010 H   0  0  0  0  0  0  0  0  0  0  0  0
    1.8987   66.0337   70.9219 H   0  0  0  0  0  0  0  0  0  0  0  0
    1.0900   63.3923   69.6010 H   0  0  0  0  0  0  0  0  0  0  0  0
    2.7076   64.2165   69.4914 H   0  0  0  0  0  0  0  0  0  0  0  0
    2.2612   62.2310   71.2025 H   0  0  0  0  0  0  0  0  0  0  0  0
    3.3038   63.6834   71.6026 H   0  0  0  0  0  0  0  0  0  0  0  0
    1.4211   62.7281   73.2721 H   0  0  0  0  0  0  0  0  0  0  0  0
    1.8791   64.4604   73.1691 H   0  0  0  0  0  0  0  0  0  0  0  0
   -0.2996   63.1801   71.6158 H   0  0  0  0  0  0  0  0  0  0  0  0
   -0.4921   64.0919   73.0509 H   0  0  0  0  0  0  0  0  0  0  0  0
   -0.0324   66.0761   72.0935 H   0  0  0  0  0  0  0  0  0  0  0  0
   -0.9517   65.1864   70.8043 H   0  0  0  0  0  0  0  0  0  0  0  0
   -2.5036   68.6479   67.1042 H   0  0  0  0  0  0  0  0  0  0  0  0
   -3.2752   69.7127   65.8804 H   0  0  0  0  0  0  0  0  0  0  0  0
   -3.6176   67.9493   65.8804 H   0  0  0  0  0  0  0  0  0  0  0  0
    0.5798   67.3476   63.2024 H   0  0  0  0  0  0  0  0  0  0  0  0
   -0.4498   68.2998   62.0800 H   0  0  0  0  0  0  0  0  0  0  0  0
    1.3314   68.5316   62.0800 H   0  0  0  0  0  0  0  0  0  0  0  0
    3.8664   69.3423   66.6020 H   0  0  0  0  0  0  0  0  0  0  0  0
    4.9920   68.7703   65.3243 H   0  0  0  0  0  0  0  0  0  0  0  0
    4.4249   70.4747   65.3243 H   0  0  0  0  0  0  0  0  0  0  0  0
  2  1  2  0
  3  2  1  0
  4  3  2  0
  5  4  1  0
  6  5  2  0
  6  1  1  0
  7  3  1  0
  8  7  2  0
  9  7  1  0
 10  9  1  0
 11 10  1  0
 12 11  1  0
 13 12  1  0
 14 13  1  0
 15 10  1  0
 15 14  1  0
 17  1  1  0
 17 16  1  0
 18  6  1  0
 19 18  1  0
 20  5  1  0
 21 20  1  0
  2 22  1  0
  4 23  1  0
  9 24  1  0
 10 25  1  1
 11 26  1  0
 11 27  1  0
 12 28  1  0
 12 29  1  0
 13 30  1  0
 13 31  1  0
 14 32  1  0
 14 33  1  0
 15 34  1  0
 15 35  1  0
 16 36  1  0
 16 37  1  0
 16 38  1  0
 19 39  1  0
 19 40  1  0
 19 41  1  0
 21 42  1  0
 21 43  1  0
 21 44  1  0
M  CHG  1  14   1
M  END
>  <score>  (7) 
-7.078

$$$$
=
     RDKit          3D

 44 45  0  0  0  0  0  0  0  0999 V2000
   -0.5670   67.8560   67.0210 C   0  0  0  0  0  0  0  0  0  0  0  0
    0.8080   68.0990   67.0800 C   0  0  0  0  0  0  0  0  0  0  0  0
    1.4910   68.5720   65.9520 C   0  0  0  0  0  0  0  0  0  0  0  0
    0.8050   68.7630   64.7490 C   0  0  0  0  0  0  0  0  0  0  0  0
   -0.5650   68.5040   64.6690 C   0  0  0  0  0  0  0  0  0  0  0  0
   -1.2580   68.0960   65.8180 C   0  0  0  0  0  0  0  0  0  0  0  0
    2.9520   68.8280   66.0690 C   0  0  0  0  0  0  0  0  0  0  0  0
    3.7530   68.2950   65.3070 O   0  0  0  0  0  0  0  0  0  0  0  0
    3.3710   69.6750   67.0830 N   0  0  0  0  0  0  0  0  0  0  0  0
    4.7920   69.7900   67.3940 C   0  0  2  0  0  0  0  0  0  0  0  0
    5.0010   70.7830   68.5410 C   0  0  0  0  0  0  0  0  0  0  0  0
    6.4710   70.9010   68.9520 C   0  0  0  0  0  0  0  0  0  0  0  0
    7.4570   70.6810   67.8110 C   0  0  0  0  0  0  0  0  0  0  0  0
    6.8140   71.0580   66.5270 N   0  0  0  0  0  4  0  0  0  0  0  0
    5.6540   70.1780   66.1550 C   0  0  0  0  0  0  0  0  0  0  0  0
   -0.7420   66.4400   68.9390 C   0  0  0  0  0  0  0  0  0  0  0  0
   -1.3220   67.4060   68.0740 O   0  0  0  0  0  0  0  0  0  0  0  0
   -2.6140   67.8810   65.7670 O   0  0  0  0  0  0  0  0  0  0  0  0
   -3.3130   69.1270   65.7750 C   0  0  0  0  0  0  0  0  0  0  0  0
   -1.1020   68.7370   63.4300 O   0  0  0  0  0  0  0  0  0  0  0  0
   -0.1950   69.2400   62.4510 C   0  0  0  0  0  0  0  0  0  0  0  0
    1.3564   67.9181   68.0162 H   0  0  0  0  0  0  0  0  0  0  0  0
    1.3472   69.1192   63.8607 H   0  0  0  0  0  0  0  0  0  0  0  0
    2.6804   70.2224   67.6162 H   0  0  0  0  0  0  0  0  0  0  0  0
    5.1377   68.7945   67.7092 H   0  0  0  0  0  0  0  0  0  0  0  0
    4.6435   71.7727   68.2206 H   0  0  0  0  0  0  0  0  0  0  0  0
    4.4388   70.4128   69.4110 H   0  0  0  0  0  0  0  0  0  0  0  0
    6.6353   71.9089   69.3607 H   0  0  0  0  0  0  0  0  0  0  0  0
    6.6582   70.1069   69.6898 H   0  0  0  0  0  0  0  0  0  0  0  0
    8.3496   71.3035   67.9716 H   0  0  0  0  0  0  0  0  0  0  0  0
    7.7521   69.6218   67.7782 H   0  0  0  0  0  0  0  0  0  0  0  0
    6.4756   72.0277   66.6045 H   0  0  0  0  0  0  0  0  0  0  0  0
    7.5247   70.9494   65.7895 H   0  0  0  0  0  0  0  0  0  0  0  0
    6.0406   69.2591   65.6900 H   0  0  0  0  0  0  0  0  0  0  0  0
    5.0132   70.7385   65.4584 H   0  0  0  0  0  0  0  0  0  0  0  0
   -0.9174   66.7321   69.9849 H   0  0  0  0  0  0  0  0  0  0  0  0
   -1.1998   65.4576   68.7510 H   0  0  0  0  0  0  0  0  0  0  0  0
    0.3403   66.3823   68.7510 H   0  0  0  0  0  0  0  0  0  0  0  0
   -3.4896   69.4417   66.8141 H   0  0  0  0  0  0  0  0  0  0  0  0
   -2.7105   69.8887   65.2585 H   0  0  0  0  0  0  0  0  0  0  0  0
   -4.2771   69.0099   65.2585 H   0  0  0  0  0  0  0  0  0  0  0  0
    0.6607   69.7146   62.9535 H   0  0  0  0  0  0  0  0  0  0  0  0
    0.1625   68.4112   61.8222 H   0  0  0  0  0  0  0  0  0  0  0  0
   -0.7087   69.9821   61.8222 H   0  0  0  0  0  0  0  0  0  0  0  0
  2  1  2  0
  3  2  1  0
  4  3  2  0
  5  4  1  0
  6  5  2  0
  6  1  1  0
  7  3  1  0
  8  7  2  0
  9  7  1  0
 10  9  1  0
 11 10  1  0
 12 11  1  0
 13 12  1  0
 14 13  1  0
 15 10  1  0
 15 14  1  0
 17  1  1  0
 17 16  1  0
 18  6  1  0
 19 18  1  0
 20  5  1  0
 21 20  1  0
  2 22  1  0
  4 23  1  0
  9 24  1  0
 10 25  1  1
 11 26  1  0
 11 27  1  0
 12 28  1  0
 12 29  1  0
 13 30  1  0
 13 31  1  0
 14 32  1  0
 14 33  1  0
 15 34  1  0
 15 35  1  0
 16 36  1  0
 16 37  1  0
 16 38  1  0
 19 39  1  0
 19 40  1  0
 19 41  1  0
 21 42  1  0
 21 43  1  0
 21 44  1  0
M  CHG  1  14   1
M  END
>  <score>  (8) 
-7.013

$$$$
=
     RDKit          3D

 44 45  0  0  0  0  0  0  0  0999 V2000
    2.5630   61.8670   71.5710 C   0  0  0  0  0  0  0  0  0  0  0  0
    2.7760   60.5040   71.7910 C   0  0  0  0  0  0  0  0  0  0  0  0
    1.7910   59.7250   72.4140 C   0  0  0  0  0  0  0  0  0  0  0  0
    0.6060   60.3210   72.8560 C   0  0  0  0  0  0  0  0  0  0  0  0
    0.3870   61.6870   72.6620 C   0  0  0  0  0  0  0  0  0  0  0  0
    1.3460   62.4480   71.9780 C   0  0  0  0  0  0  0  0  0  0  0  0
    2.0600   58.2760   72.6140 C   0  0  0  0  0  0  0  0  0  0  0  0
    2.6510   57.6160   71.7660 O   0  0  0  0  0  0  0  0  0  0  0  0
    1.5970   57.6990   73.7870 N   0  0  0  0  0  0  0  0  0  0  0  0
    1.6260   56.2490   73.9440 C   0  0  2  0  0  0  0  0  0  0  0  0
    0.1990   55.7040   74.0550 C   0  0  0  0  0  0  0  0  0  0  0  0
    0.1630   54.1760   74.1640 C   0  0  0  0  0  0  0  0  0  0  0  0
    1.3740   53.5720   74.8620 C   0  0  0  0  0  0  0  0  0  0  0  0
    1.9360   54.5620   75.8160 N   0  0  0  0  0  4  0  0  0  0  0  0
    2.4960   55.7870   75.1500 C   0  0  0  0  0  0  0  0  0  0  0  0
    3.8010   62.4330   69.6060 C   0  0  0  0  0  0  0  0  0  0  0  0
    3.4590   62.7050   70.9590 O   0  0  0  0  0  0  0  0  0  0  0  0
    1.1260   63.7830   71.7390 O   0  0  0  0  0  0  0  0  0  0  0  0
    0.3760   63.9540   70.5340 C   0  0  0  0  0  0  0  0  0  0  0  0
   -0.8170   62.1300   73.1440 O   0  0  0  0  0  0  0  0  0  0  0  0
   -1.7710   61.1130   73.4440 C   0  0  0  0  0  0  0  0  0  0  0  0
    3.7214   60.0397   71.4738 H   0  0  0  0  0  0  0  0  0  0  0  0
   -0.1583   59.7108   73.3594 H   0  0  0  0  0  0  0  0  0  0  0  0
    1.2334   58.2931   74.5458 H   0  0  0  0  0  0  0  0  0  0  0  0
    2.1040   55.8336   73.0446 H   0  0  0  0  0  0  0  0  0  0  0  0
   -0.2741   56.1331   74.9506 H   0  0  0  0  0  0  0  0  0  0  0  0
   -0.3399   55.9872   73.1388 H   0  0  0  0  0  0  0  0  0  0  0  0
   -0.7377   53.8914   74.7276 H   0  0  0  0  0  0  0  0  0  0  0  0
    0.1631   53.7854   73.1357 H   0  0  0  0  0  0  0  0  0  0  0  0
    1.0696   52.6672   75.4084 H   0  0  0  0  0  0  0  0  0  0  0  0
    2.1361   53.3076   74.1142 H   0  0  0  0  0  0  0  0  0  0  0  0
    1.1876   54.8548   76.4603 H   0  0  0  0  0  0  0  0  0  0  0  0
    2.7159   54.1009   76.3059 H   0  0  0  0  0  0  0  0  0  0  0  0
    3.5106   55.5620   74.7896 H   0  0  0  0  0  0  0  0  0  0  0  0
    2.5061   56.6000   75.8909 H   0  0  0  0  0  0  0  0  0  0  0  0
    4.6616   61.7486   69.5758 H   0  0  0  0  0  0  0  0  0  0  0  0
    2.9439   61.9671   69.0977 H   0  0  0  0  0  0  0  0  0  0  0  0
    4.0621   63.3729   69.0977 H   0  0  0  0  0  0  0  0  0  0  0  0
   -0.6686   64.1922   70.7830 H   0  0  0  0  0  0  0  0  0  0  0  0
    0.8094   64.7764   69.9459 H   0  0  0  0  0  0  0  0  0  0  0  0
    0.4101   63.0250   69.9459 H   0  0  0  0  0  0  0  0  0  0  0  0
   -1.8670   61.0107   74.5350 H   0  0  0  0  0  0  0  0  0  0  0  0
   -2.7459   61.3865   73.0142 H   0  0  0  0  0  0  0  0  0  0  0  0
   -1.4358   60.1575   73.0142 H   0  0  0  0  0  0  0  0  0  0  0  0
  2  1  2  0
  3  2  1  0
  4  3  2  0
  5  4  1  0
  6  5  2  0
  6  1  1  0
  7  3  1  0
  8  7  2  0
  9  7  1  0
 10  9  1  0
 11 10  1  0
 12 11  1  0
 13 12  1  0
 14 13  1  0
 15 10  1  0
 15 14  1  0
 17  1  1  0
 17 16  1  0
 18  6  1  0
 19 18  1  0
 20  5  1  0
 21 20  1  0
  2 22  1  0
  4 23  1  0
  9 24  1  0
 10 25  1  6
 11 26  1  0
 11 27  1  0
 12 28  1  0
 12 29  1  0
 13 30  1  0
 13 31  1  0
 14 32  1  0
 14 33  1  0
 15 34  1  0
 15 35  1  0
 16 36  1  0
 16 37  1  0
 16 38  1  0
 19 39  1  0
 19 40  1  0
 19 41  1  0
 21 42  1  0
 21 43  1  0
 21 44  1  0
M  CHG  1  14   1
M  END
>  <score>  (9) 
-6.254

$$$$
