=
     RDKit          3D

 40 42  0  0  0  0  0  0  0  0999 V2000
    0.4150   67.6340   67.8080 C   0  0  0  0  0  0  0  0  0  0  0  0
    1.4700   67.6330   68.7280 C   0  0  0  0  0  0  0  0  0  0  0  0
    1.4010   66.8440   69.8840 C   0  0  0  0  0  0  0  0  0  0  0  0
    0.2730   66.0510   70.1320 C   0  0  0  0  0  0  0  0  0  0  0  0
   -0.7820   66.0540   69.2100 C   0  0  0  0  0  0  0  0  0  0  0  0
   -0.7110   66.8400   68.0560 C   0  0  0  0  0  0  0  0  0  0  0  0
   -0.2720   69.4550   66.4520 O   0  0  0  0  0  0  0  0  0  0  0  0
    0.4370   68.4630   66.5730 C   0  0  0  0  0  0  0  0  0  0  0  0
    1.3720   68.1010   65.4430 C   0  0  0  0  0  0  0  0  0  0  0  0
    0.9940   67.2680   64.6260 O   0  0  0  0  0  0  0  0  0  0  0  0
    2.7210   68.7190   65.3690 C   0  0  0  0  0  0  0  0  0  0  0  0
    3.3740   68.7440   64.1280 C   0  0  0  0  0  0  0  0  0  0  0  0
    4.6500   69.2980   64.0150 C   0  0  0  0  0  0  0  0  0  0  0  0
    5.2810   69.8290   65.1380 C   0  0  0  0  0  0  0  0  0  0  0  0
    4.6370   69.8100   66.3760 C   0  0  0  0  0  0  0  0  0  0  0  0
    3.3590   69.2560   66.4940 C   0  0  0  0  0  0  0  0  0  0  0  0
    0.1560   65.1870   71.3370 C   0  0  0  0  0  0  0  0  0  0  0  0
   -0.2560   65.6240   72.4040 O   0  0  0  0  0  0  0  0  0  0  0  0
    0.5280   63.7240   71.2510 C   0  0  0  0  0  0  0  0  0  0  0  0
   -0.2370   62.9040   71.7470 O   0  0  0  0  0  0  0  0  0  0  0  0
    1.8100   63.3230   70.6180 C   0  0  0  0  0  0  0  0  0  0  0  0
    1.7790   62.3360   69.6220 C   0  0  0  0  0  0  0  0  0  0  0  0
    2.9600   61.9120   69.0120 C   0  0  0  0  0  0  0  0  0  0  0  0
    4.1790   62.4720   69.3910 C   0  0  0  0  0  0  0  0  0  0  0  0
    4.2180   63.4550   70.3800 C   0  0  0  0  0  0  0  0  0  0  0  0
    3.0370   63.8810   70.9940 C   0  0  0  0  0  0  0  0  0  0  0  0
    2.3581   68.2550   68.5425 H   0  0  0  0  0  0  0  0  0  0  0  0
    2.2362   66.8473   70.5999 H   0  0  0  0  0  0  0  0  0  0  0  0
   -1.6716   65.4341   69.3953 H   0  0  0  0  0  0  0  0  0  0  0  0
   -1.5449   66.8345   67.3386 H   0  0  0  0  0  0  0  0  0  0  0  0
    2.8783   68.3251   63.2399 H   0  0  0  0  0  0  0  0  0  0  0  0
    5.1576   69.3154   63.0393 H   0  0  0  0  0  0  0  0  0  0  0  0
    6.2876   70.2636   65.0488 H   0  0  0  0  0  0  0  0  0  0  0  0
    5.1361   70.2319   67.2608 H   0  0  0  0  0  0  0  0  0  0  0  0
    2.8542   69.2419   67.4712 H   0  0  0  0  0  0  0  0  0  0  0  0
    0.8182   61.8937   69.3201 H   0  0  0  0  0  0  0  0  0  0  0  0
    2.9292   61.1364   68.2326 H   0  0  0  0  0  0  0  0  0  0  0  0
    5.1104   62.1387   68.9101 H   0  0  0  0  0  0  0  0  0  0  0  0
    5.1808   63.8960   70.6774 H   0  0  0  0  0  0  0  0  0  0  0  0
    3.0720   64.6560   71.7739 H   0  0  0  0  0  0  0  0  0  0  0  0
  2  1  2  0
  3  2  1  0
  4  3  2  0
  5  4  1  0
  6  5  2  0
  6  1  1  0
  8  7  2  0
  8  1  1  0
  9  8  1  0
 10  9  2  0
 11  9  1  0
 12 11  2  0
 13 12  1  0
 14 13  2  0
 15 14  1  0
 16 11  1  0
 16 15  2  0
 17  4  1  0
 18 17  2  0
 19 17  1  0
 20 19  2  0
 21 19  1  0
 22 21  2  0
 23 22  1  0
 24 23  2  0
 25 24  1  0
 26 25  2  0
 26 21  1  0
  2 27  1  0
  3 28  1  0
  5 29  1  0
  6 30  1  0
 12 31  1  0
 13 32  1  0
 14 33  1  0
 15 34  1  0
 16 35  1  0
 22 36  1  0
 23 37  1  0
 24 38  1  0
 25 39  1  0
 26 40  1  0
M  END
>  <score>  (1) 
-10.788

$$$$
=
     RDKit          3D

 40 42  0  0  0  0  0  0  0  0999 V2000
    0.2400   66.0710   70.1680 C   0  0  0  0  0  0  0  0  0  0  0  0
    1.3740   66.8360   69.8740 C   0  0  0  0  0  0  0  0  0  0  0  0
    1.4290   67.5960   68.6980 C   0  0  0  0  0  0  0  0  0  0  0  0
    0.3510   67.5940   67.8020 C   0  0  0  0  0  0  0  0  0  0  0  0
   -0.7820   66.8270   68.0990 C   0  0  0  0  0  0  0  0  0  0  0  0
   -0.8380   66.0700   69.2730 C   0  0  0  0  0  0  0  0  0  0  0  0
   -0.2950   65.6960   72.4480 O   0  0  0  0  0  0  0  0  0  0  0  0
    0.1380   65.2390   71.3960 C   0  0  0  0  0  0  0  0  0  0  0  0
    0.5510   63.7870   71.3570 C   0  0  0  0  0  0  0  0  0  0  0  0
   -0.1510   62.9700   71.9430 O   0  0  0  0  0  0  0  0  0  0  0  0
    1.8020   63.3900   70.6580 C   0  0  0  0  0  0  0  0  0  0  0  0
    1.7200   62.4150   69.6530 C   0  0  0  0  0  0  0  0  0  0  0  0
    2.8710   61.9980   68.9820 C   0  0  0  0  0  0  0  0  0  0  0  0
    4.1080   62.5510   69.3100 C   0  0  0  0  0  0  0  0  0  0  0  0
    4.1950   63.5230   70.3070 C   0  0  0  0  0  0  0  0  0  0  0  0
    3.0460   63.9430   70.9820 C   0  0  0  0  0  0  0  0  0  0  0  0
    0.3560   68.3930   66.5480 C   0  0  0  0  0  0  0  0  0  0  0  0
   -0.4090   69.3340   66.3820 O   0  0  0  0  0  0  0  0  0  0  0  0
    1.3430   68.0630   65.4520 C   0  0  0  0  0  0  0  0  0  0  0  0
    1.0110   67.2430   64.6030 O   0  0  0  0  0  0  0  0  0  0  0  0
    2.6870   68.6960   65.4510 C   0  0  0  0  0  0  0  0  0  0  0  0
    3.4150   68.7070   64.2530 C   0  0  0  0  0  0  0  0  0  0  0  0
    4.6890   69.2740   64.2070 C   0  0  0  0  0  0  0  0  0  0  0  0
    5.2440   69.8320   65.3580 C   0  0  0  0  0  0  0  0  0  0  0  0
    4.5260   69.8260   66.5530 C   0  0  0  0  0  0  0  0  0  0  0  0
    3.2490   69.2590   66.6020 C   0  0  0  0  0  0  0  0  0  0  0  0
    2.2264   66.8409   70.5693 H   0  0  0  0  0  0  0  0  0  0  0  0
    2.3230   68.1975   68.4768 H   0  0  0  0  0  0  0  0  0  0  0  0
   -1.6343   66.8200   67.4036 H   0  0  0  0  0  0  0  0  0  0  0  0
   -1.7331   65.4705   69.4952 H   0  0  0  0  0  0  0  0  0  0  0  0
    0.7450   61.9773   69.3926 H   0  0  0  0  0  0  0  0  0  0  0  0
    2.8019   61.2331   68.1945 H   0  0  0  0  0  0  0  0  0  0  0  0
    5.0153   62.2210   68.7828 H   0  0  0  0  0  0  0  0  0  0  0  0
    5.1715   63.9602   70.5626 H   0  0  0  0  0  0  0  0  0  0  0  0
    3.1193   64.7086   71.7684 H   0  0  0  0  0  0  0  0  0  0  0  0
    2.9794   68.2662   63.3442 H   0  0  0  0  0  0  0  0  0  0  0  0
    5.2549   69.2808   63.2638 H   0  0  0  0  0  0  0  0  0  0  0  0
    6.2492   70.2773   65.3231 H   0  0  0  0  0  0  0  0  0  0  0  0
    4.9652   70.2684   67.4593 H   0  0  0  0  0  0  0  0  0  0  0  0
    2.6854   69.2555   67.5466 H   0  0  0  0  0  0  0  0  0  0  0  0
  2  1  2  0
  3  2  1  0
  4  3  2  0
  5  4  1  0
  6  5  2  0
  6  1  1  0
  8  7  2  0
  8  1  1  0
  9  8  1  0
 10  9  2  0
 11  9  1  0
 12 11  2  0
 13 12  1  0
 14 13  2  0
 15 14  1  0
 16 11  1  0
 16 15  2  0
 17  4  1  0
 18 17  2  0
 19 17  1  0
 20 19  2  0
 21 19  1  0
 22 21  2  0
 23 22  1  0
 24 23  2  0
 25 24  1  0
 26 25  2  0
 26 21  1  0
  2 27  1  0
  3 28  1  0
  5 29  1  0
  6 30  1  0
 12 31  1  0
 13 32  1  0
 14 33  1  0
 15 34  1  0
 16 35  1  0
 22 36  1  0
 23 37  1  0
 24 38  1  0
 25 39  1  0
 26 40  1  0
M  END
>  <score>  (2) 
-10.727

$$$$
=
     RDKit          3D

 40 42  0  0  0  0  0  0  0  0999 V2000
    0.4620   65.1080   70.3940 C   0  0  0  0  0  0  0  0  0  0  0  0
   -0.5750   65.3850   69.4960 C   0  0  0  0  0  0  0  0  0  0  0  0
   -0.5050   66.5060   68.6570 C   0  0  0  0  0  0  0  0  0  0  0  0
    0.6030   67.3620   68.7120 C   0  0  0  0  0  0  0  0  0  0  0  0
    1.6390   67.0830   69.6130 C   0  0  0  0  0  0  0  0  0  0  0  0
    1.5690   65.9640   70.4470 C   0  0  0  0  0  0  0  0  0  0  0  0
   -0.6300   63.4660   71.7130 O   0  0  0  0  0  0  0  0  0  0  0  0
    0.4280   63.9390   71.3120 C   0  0  0  0  0  0  0  0  0  0  0  0
    1.7200   63.2890   71.7490 C   0  0  0  0  0  0  0  0  0  0  0  0
    2.0990   63.4740   72.8990 O   0  0  0  0  0  0  0  0  0  0  0  0
    2.5120   62.4890   70.7790 C   0  0  0  0  0  0  0  0  0  0  0  0
    2.6750   61.1180   71.0250 C   0  0  0  0  0  0  0  0  0  0  0  0
    3.4270   60.3300   70.1510 C   0  0  0  0  0  0  0  0  0  0  0  0
    4.0190   60.9060   69.0280 C   0  0  0  0  0  0  0  0  0  0  0  0
    3.8580   62.2680   68.7760 C   0  0  0  0  0  0  0  0  0  0  0  0
    3.1080   63.0610   69.6480 C   0  0  0  0  0  0  0  0  0  0  0  0
    0.7300   68.5560   67.8350 C   0  0  0  0  0  0  0  0  0  0  0  0
   -0.1400   69.4170   67.7900 O   0  0  0  0  0  0  0  0  0  0  0  0
    1.9710   68.7400   66.9930 C   0  0  0  0  0  0  0  0  0  0  0  0
    2.0140   68.1880   65.8990 O   0  0  0  0  0  0  0  0  0  0  0  0
    3.1100   69.5370   67.5170 C   0  0  0  0  0  0  0  0  0  0  0  0
    4.2810   69.6080   66.7480 C   0  0  0  0  0  0  0  0  0  0  0  0
    5.3840   70.3290   67.2080 C   0  0  0  0  0  0  0  0  0  0  0  0
    5.3240   70.9830   68.4380 C   0  0  0  0  0  0  0  0  0  0  0  0
    4.1630   70.9170   69.2070 C   0  0  0  0  0  0  0  0  0  0  0  0
    3.0570   70.1960   68.7510 C   0  0  0  0  0  0  0  0  0  0  0  0
   -1.4497   64.7196   69.4482 H   0  0  0  0  0  0  0  0  0  0  0  0
   -1.3236   66.7145   67.9524 H   0  0  0  0  0  0  0  0  0  0  0  0
    2.5130   67.7490   69.6642 H   0  0  0  0  0  0  0  0  0  0  0  0
    2.3888   65.7542   71.1498 H   0  0  0  0  0  0  0  0  0  0  0  0
    2.2085   60.6613   71.9103 H   0  0  0  0  0  0  0  0  0  0  0  0
    3.5522   59.2552   70.3486 H   0  0  0  0  0  0  0  0  0  0  0  0
    4.6132   60.2860   68.3406 H   0  0  0  0  0  0  0  0  0  0  0  0
    4.3232   62.7196   67.8874 H   0  0  0  0  0  0  0  0  0  0  0  0
    2.9855   64.1354   69.4462 H   0  0  0  0  0  0  0  0  0  0  0  0
    4.3302   69.0928   65.7774 H   0  0  0  0  0  0  0  0  0  0  0  0
    6.2997   70.3812   66.6008 H   0  0  0  0  0  0  0  0  0  0  0  0
    6.1929   71.5511   68.8017 H   0  0  0  0  0  0  0  0  0  0  0  0
    4.1178   71.4347   70.1765 H   0  0  0  0  0  0  0  0  0  0  0  0
    2.1436   70.1460   69.3620 H   0  0  0  0  0  0  0  0  0  0  0  0
  2  1  2  0
  3  2  1  0
  4  3  2  0
  5  4  1  0
  6  5  2  0
  6  1  1  0
  8  7  2  0
  8  1  1  0
  9  8  1  0
 10  9  2  0
 11  9  1  0
 12 11  2  0
 13 12  1  0
 14 13  2  0
 15 14  1  0
 16 11  1  0
 16 15  2  0
 17  4  1  0
 18 17  2  0
 19 17  1  0
 20 19  2  0
 21 19  1  0
 22 21  2  0
 23 22  1  0
 24 23  2  0
 25 24  1  0
 26 25  2  0
 26 21  1  0
  2 27  1  0
  3 28  1  0
  5 29  1  0
  6 30  1  0
 12 31  1  0
 13 32  1  0
 14 33  1  0
 15 34  1  0
 16 35  1  0
 22 36  1  0
 23 37  1  0
 24 38  1  0
 25 39  1  0
 26 40  1  0
M  END
>  <score>  (3) 
-9.551

$$$$
=
     RDKit          3D

 40 42  0  0  0  0  0  0  0  0999 V2000
    0.6260   65.3150   70.2210 C   0  0  0  0  0  0  0  0  0  0  0  0
   -0.4720   65.6420   69.4180 C   0  0  0  0  0  0  0  0  0  0  0  0
   -0.4470   66.7920   68.6180 C   0  0  0  0  0  0  0  0  0  0  0  0
    0.6770   67.6290   68.6170 C   0  0  0  0  0  0  0  0  0  0  0  0
    1.7750   67.3000   69.4220 C   0  0  0  0  0  0  0  0  0  0  0  0
    1.7500   66.1510   70.2190 C   0  0  0  0  0  0  0  0  0  0  0  0
   -0.0190   64.0570   72.1260 O   0  0  0  0  0  0  0  0  0  0  0  0
    0.6430   64.1120   71.0950 C   0  0  0  0  0  0  0  0  0  0  0  0
    1.4690   62.9100   70.7030 C   0  0  0  0  0  0  0  0  0  0  0  0
    1.6700   62.7110   69.5100 O   0  0  0  0  0  0  0  0  0  0  0  0
    1.9760   61.9850   71.7510 C   0  0  0  0  0  0  0  0  0  0  0  0
    3.2960   62.1450   72.1950 C   0  0  0  0  0  0  0  0  0  0  0  0
    3.8210   61.2880   73.1640 C   0  0  0  0  0  0  0  0  0  0  0  0
    3.0320   60.2690   73.6950 C   0  0  0  0  0  0  0  0  0  0  0  0
    1.7170   60.1060   73.2580 C   0  0  0  0  0  0  0  0  0  0  0  0
    1.1870   60.9610   72.2880 C   0  0  0  0  0  0  0  0  0  0  0  0
    0.7570   68.8530   67.7770 C   0  0  0  0  0  0  0  0  0  0  0  0
   -0.1800   69.2160   67.0770 O   0  0  0  0  0  0  0  0  0  0  0  0
    2.0110   69.6970   67.7970 C   0  0  0  0  0  0  0  0  0  0  0  0
    2.1080   70.5670   68.6550 O   0  0  0  0  0  0  0  0  0  0  0  0
    3.0610   69.4850   66.7690 C   0  0  0  0  0  0  0  0  0  0  0  0
    4.3710   69.8890   67.0640 C   0  0  0  0  0  0  0  0  0  0  0  0
    5.3880   69.7270   66.1230 C   0  0  0  0  0  0  0  0  0  0  0  0
    5.1030   69.1620   64.8800 C   0  0  0  0  0  0  0  0  0  0  0  0
    3.8030   68.7570   64.5800 C   0  0  0  0  0  0  0  0  0  0  0  0
    2.7820   68.9180   65.5200 C   0  0  0  0  0  0  0  0  0  0  0  0
   -1.3599   64.9926   69.4147 H   0  0  0  0  0  0  0  0  0  0  0  0
   -1.3139   67.0391   67.9876 H   0  0  0  0  0  0  0  0  0  0  0  0
    2.6627   67.9495   69.4274 H   0  0  0  0  0  0  0  0  0  0  0  0
    2.6177   65.9024   70.8477 H   0  0  0  0  0  0  0  0  0  0  0  0
    3.9206   62.9489   71.7783 H   0  0  0  0  0  0  0  0  0  0  0  0
    4.8577   61.4170   73.5086 H   0  0  0  0  0  0  0  0  0  0  0  0
    3.4459   59.5936   74.4583 H   0  0  0  0  0  0  0  0  0  0  0  0
    1.0954   59.3018   73.6784 H   0  0  0  0  0  0  0  0  0  0  0  0
    0.1497   60.8293   71.9464 H   0  0  0  0  0  0  0  0  0  0  0  0
    4.5980   70.3362   68.0430 H   0  0  0  0  0  0  0  0  0  0  0  0
    6.4139   70.0446   66.3611 H   0  0  0  0  0  0  0  0  0  0  0  0
    5.9038   69.0359   64.1365 H   0  0  0  0  0  0  0  0  0  0  0  0
    3.5805   68.3093   63.6002 H   0  0  0  0  0  0  0  0  0  0  0  0
    1.7575   68.5987   65.2782 H   0  0  0  0  0  0  0  0  0  0  0  0
  2  1  2  0
  3  2  1  0
  4  3  2  0
  5  4  1  0
  6  5  2  0
  6  1  1  0
  8  7  2  0
  8  1  1  0
  9  8  1  0
 10  9  2  0
 11  9  1  0
 12 11  2  0
 13 12  1  0
 14 13  2  0
 15 14  1  0
 16 11  1  0
 16 15  2  0
 17  4  1  0
 18 17  2  0
 19 17  1  0
 20 19  2  0
 21 19  1  0
 22 21  2  0
 23 22  1  0
 24 23  2  0
 25 24  1  0
 26 25  2  0
 26 21  1  0
  2 27  1  0
  3 28  1  0
  5 29  1  0
  6 30  1  0
 12 31  1  0
 13 32  1  0
 14 33  1  0
 15 34  1  0
 16 35  1  0
 22 36  1  0
 23 37  1  0
 24 38  1  0
 25 39  1  0
 26 40  1  0
M  END
>  <score>  (4) 
-9.431

$$$$
=
     RDKit          3D

 40 42  0  0  0  0  0  0  0  0999 V2000
    0.6260   60.7370   74.3350 C   0  0  0  0  0  0  0  0  0  0  0  0
   -0.2970   60.8040   73.2850 C   0  0  0  0  0  0  0  0  0  0  0  0
   -0.4350   61.9830   72.5390 C   0  0  0  0  0  0  0  0  0  0  0  0
    0.3470   63.1060   72.8390 C   0  0  0  0  0  0  0  0  0  0  0  0
    1.2700   63.0350   73.8910 C   0  0  0  0  0  0  0  0  0  0  0  0
    1.4080   61.8600   74.6330 C   0  0  0  0  0  0  0  0  0  0  0  0
    0.0270   59.2350   76.0710 O   0  0  0  0  0  0  0  0  0  0  0  0
    0.8010   59.5130   75.1620 C   0  0  0  0  0  0  0  0  0  0  0  0
    1.9410   58.5660   74.8710 C   0  0  0  0  0  0  0  0  0  0  0  0
    2.3590   57.8660   75.7860 O   0  0  0  0  0  0  0  0  0  0  0  0
    2.5520   58.5350   73.5160 C   0  0  0  0  0  0  0  0  0  0  0  0
    2.0370   57.6320   72.5750 C   0  0  0  0  0  0  0  0  0  0  0  0
    2.5900   57.5550   71.2970 C   0  0  0  0  0  0  0  0  0  0  0  0
    3.6590   58.3790   70.9490 C   0  0  0  0  0  0  0  0  0  0  0  0
    4.1750   59.2820   71.8790 C   0  0  0  0  0  0  0  0  0  0  0  0
    3.6250   59.3620   73.1610 C   0  0  0  0  0  0  0  0  0  0  0  0
    0.2470   64.3750   72.0700 C   0  0  0  0  0  0  0  0  0  0  0  0
   -0.2920   65.3700   72.5380 O   0  0  0  0  0  0  0  0  0  0  0  0
    0.8420   64.4610   70.6840 C   0  0  0  0  0  0  0  0  0  0  0  0
    0.2750   65.1640   69.8540 O   0  0  0  0  0  0  0  0  0  0  0  0
    2.0570   63.6740   70.3500 C   0  0  0  0  0  0  0  0  0  0  0  0
    1.8960   62.4690   69.6510 C   0  0  0  0  0  0  0  0  0  0  0  0
    3.0050   61.6850   69.3310 C   0  0  0  0  0  0  0  0  0  0  0  0
    4.2820   62.1010   69.7060 C   0  0  0  0  0  0  0  0  0  0  0  0
    4.4500   63.2990   70.4000 C   0  0  0  0  0  0  0  0  0  0  0  0
    3.3410   64.0860   70.7230 C   0  0  0  0  0  0  0  0  0  0  0  0
   -0.9168   59.9278   73.0440 H   0  0  0  0  0  0  0  0  0  0  0  0
   -1.1611   62.0265   71.7138 H   0  0  0  0  0  0  0  0  0  0  0  0
    1.8899   63.9106   74.1339 H   0  0  0  0  0  0  0  0  0  0  0  0
    2.1356   61.8162   75.4568 H   0  0  0  0  0  0  0  0  0  0  0  0
    1.1927   56.9811   72.8461 H   0  0  0  0  0  0  0  0  0  0  0  0
    2.1824   56.8438   70.5634 H   0  0  0  0  0  0  0  0  0  0  0  0
    4.0957   58.3173   69.9413 H   0  0  0  0  0  0  0  0  0  0  0  0
    5.0174   59.9330   71.6021 H   0  0  0  0  0  0  0  0  0  0  0  0
    4.0350   60.0748   73.8917 H   0  0  0  0  0  0  0  0  0  0  0  0
    0.8895   62.1399   69.3532 H   0  0  0  0  0  0  0  0  0  0  0  0
    2.8721   60.7401   68.7837 H   0  0  0  0  0  0  0  0  0  0  0  0
    5.1572   61.4840   69.4543 H   0  0  0  0  0  0  0  0  0  0  0  0
    5.4584   63.6255   70.6941 H   0  0  0  0  0  0  0  0  0  0  0  0
    3.4778   65.0300   71.2709 H   0  0  0  0  0  0  0  0  0  0  0  0
  2  1  2  0
  3  2  1  0
  4  3  2  0
  5  4  1  0
  6  5  2  0
  6  1  1  0
  8  7  2  0
  8  1  1  0
  9  8  1  0
 10  9  2  0
 11  9  1  0
 12 11  2  0
 13 12  1  0
 14 13  2  0
 15 14  1  0
 16 11  1  0
 16 15  2  0
 17  4  1  0
 18 17  2  0
 19 17  1  0
 20 19  2  0
 21 19  1  0
 22 21  2  0
 23 22  1  0
 24 23  2  0
 25 24  1  0
 26 25  2  0
 26 21  1  0
  2 27  1  0
  3 28  1  0
  5 29  1  0
  6 30  1  0
 12 31  1  0
 13 32  1  0
 14 33  1  0
 15 34  1  0
 16 35  1  0
 22 36  1  0
 23 37  1  0
 24 38  1  0
 25 39  1  0
 26 40  1  0
M  END
>  <score>  (5) 
-9.383

$$$$
=
     RDKit          3D

 40 42  0  0  0  0  0  0  0  0999 V2000
    0.3170   63.1150   72.8300 C   0  0  0  0  0  0  0  0  0  0  0  0
   -0.4800   62.0080   72.5180 C   0  0  0  0  0  0  0  0  0  0  0  0
   -0.3660   60.8230   73.2570 C   0  0  0  0  0  0  0  0  0  0  0  0
    0.5510   60.7340   74.3130 C   0  0  0  0  0  0  0  0  0  0  0  0
    1.3490   61.8430   74.6220 C   0  0  0  0  0  0  0  0  0  0  0  0
    1.2330   63.0260   73.8860 C   0  0  0  0  0  0  0  0  0  0  0  0
   -0.2890   65.3910   72.5400 O   0  0  0  0  0  0  0  0  0  0  0  0
    0.2400   64.3900   72.0680 C   0  0  0  0  0  0  0  0  0  0  0  0
    0.8480   64.4790   70.6880 C   0  0  0  0  0  0  0  0  0  0  0  0
    0.3050   65.2050   69.8630 O   0  0  0  0  0  0  0  0  0  0  0  0
    2.0450   63.6640   70.3510 C   0  0  0  0  0  0  0  0  0  0  0  0
    1.8540   62.4540   69.6700 C   0  0  0  0  0  0  0  0  0  0  0  0
    2.9470   61.6470   69.3490 C   0  0  0  0  0  0  0  0  0  0  0  0
    4.2350   62.0440   69.7050 C   0  0  0  0  0  0  0  0  0  0  0  0
    4.4320   63.2480   70.3810 C   0  0  0  0  0  0  0  0  0  0  0  0
    3.3410   64.0590   70.7050 C   0  0  0  0  0  0  0  0  0  0  0  0
    0.7020   59.5030   75.1340 C   0  0  0  0  0  0  0  0  0  0  0  0
   -0.1230   59.1920   75.9840 O   0  0  0  0  0  0  0  0  0  0  0  0
    1.8860   58.5900   74.9090 C   0  0  0  0  0  0  0  0  0  0  0  0
    2.3390   57.9830   75.8730 O   0  0  0  0  0  0  0  0  0  0  0  0
    2.4910   58.4840   73.5570 C   0  0  0  0  0  0  0  0  0  0  0  0
    3.5740   59.3180   73.2460 C   0  0  0  0  0  0  0  0  0  0  0  0
    4.1640   59.2680   71.9830 C   0  0  0  0  0  0  0  0  0  0  0  0
    3.6760   58.3830   71.0220 C   0  0  0  0  0  0  0  0  0  0  0  0
    2.6000   57.5490   71.3240 C   0  0  0  0  0  0  0  0  0  0  0  0
    2.0070   57.5970   72.5880 C   0  0  0  0  0  0  0  0  0  0  0  0
   -1.1997   62.0684   71.6883 H   0  0  0  0  0  0  0  0  0  0  0  0
   -0.9990   59.9588   73.0072 H   0  0  0  0  0  0  0  0  0  0  0  0
    2.0716   61.7827   75.4491 H   0  0  0  0  0  0  0  0  0  0  0  0
    1.8642   63.8911   74.1374 H   0  0  0  0  0  0  0  0  0  0  0  0
    0.8387   62.1389   69.3873 H   0  0  0  0  0  0  0  0  0  0  0  0
    2.7919   60.6978   68.8151 H   0  0  0  0  0  0  0  0  0  0  0  0
    5.0961   61.4077   69.4528 H   0  0  0  0  0  0  0  0  0  0  0  0
    5.4492   63.5601   70.6600 H   0  0  0  0  0  0  0  0  0  0  0  0
    3.5003   65.0078   71.2382 H   0  0  0  0  0  0  0  0  0  0  0  0
    3.9610   60.0163   74.0027 H   0  0  0  0  0  0  0  0  0  0  0  0
    5.0130   59.9257   71.7453 H   0  0  0  0  0  0  0  0  0  0  0  0
    4.1400   58.3428   70.0255 H   0  0  0  0  0  0  0  0  0  0  0  0
    2.2170   56.8513   70.5647 H   0  0  0  0  0  0  0  0  0  0  0  0
    1.1587   56.9370   72.8222 H   0  0  0  0  0  0  0  0  0  0  0  0
  2  1  2  0
  3  2  1  0
  4  3  2  0
  5  4  1  0
  6  5  2  0
  6  1  1  0
  8  7  2  0
  8  1  1  0
  9  8  1  0
 10  9  2  0
 11  9  1  0
 12 11  2  0
 13 12  1  0
 14 13  2  0
 15 14  1  0
 16 11  1  0
 16 15  2  0
 17  4  1  0
 18 17  2  0
 19 17  1  0
 20 19  2  0
 21 19  1  0
 22 21  2  0
 23 22  1  0
 24 23  2  0
 25 24  1  0
 26 25  2  0
 26 21  1  0
  2 27  1  0
  3 28  1  0
  5 29  1  0
  6 30  1  0
 12 31  1  0
 13 32  1  0
 14 33  1  0
 15 34  1  0
 16 35  1  0
 22 36  1  0
 23 37  1  0
 24 38  1  0
 25 39  1  0
 26 40  1  0
M  END
>  <score>  (6) 
-9.379

$$$$
=
     RDKit          3D

 40 42  0  0  0  0  0  0  0  0999 V2000
    0.9330   66.5780   68.8370 C   0  0  0  0  0  0  0  0  0  0  0  0
   -0.2440   66.4270   69.5790 C   0  0  0  0  0  0  0  0  0  0  0  0
   -0.2890   65.5390   70.6620 C   0  0  0  0  0  0  0  0  0  0  0  0
    0.8430   64.7910   71.0110 C   0  0  0  0  0  0  0  0  0  0  0  0
    2.0200   64.9430   70.2670 C   0  0  0  0  0  0  0  0  0  0  0  0
    2.0650   65.8300   69.1880 C   0  0  0  0  0  0  0  0  0  0  0  0
    0.8640   67.1010   66.5240 O   0  0  0  0  0  0  0  0  0  0  0  0
    1.0270   67.4980   67.6730 C   0  0  0  0  0  0  0  0  0  0  0  0
    1.3030   68.9660   67.8970 C   0  0  0  0  0  0  0  0  0  0  0  0
    0.3450   69.7200   68.0320 O   0  0  0  0  0  0  0  0  0  0  0  0
    2.7030   69.4650   67.9040 C   0  0  0  0  0  0  0  0  0  0  0  0
    3.1930   70.0520   69.0790 C   0  0  0  0  0  0  0  0  0  0  0  0
    4.4960   70.5510   69.1260 C   0  0  0  0  0  0  0  0  0  0  0  0
    5.3160   70.4670   68.0020 C   0  0  0  0  0  0  0  0  0  0  0  0
    4.8350   69.8820   66.8300 C   0  0  0  0  0  0  0  0  0  0  0  0
    3.5310   69.3820   66.7780 C   0  0  0  0  0  0  0  0  0  0  0  0
    0.8490   63.8450   72.1590 C   0  0  0  0  0  0  0  0  0  0  0  0
    0.6390   64.2230   73.3050 O   0  0  0  0  0  0  0  0  0  0  0  0
    1.0940   62.3730   71.9180 C   0  0  0  0  0  0  0  0  0  0  0  0
    0.1430   61.6050   72.0130 O   0  0  0  0  0  0  0  0  0  0  0  0
    2.4670   61.8910   71.6180 C   0  0  0  0  0  0  0  0  0  0  0  0
    3.5110   62.2920   72.4630 C   0  0  0  0  0  0  0  0  0  0  0  0
    4.8200   61.8790   72.2120 C   0  0  0  0  0  0  0  0  0  0  0  0
    5.0940   61.0640   71.1140 C   0  0  0  0  0  0  0  0  0  0  0  0
    4.0610   60.6610   70.2700 C   0  0  0  0  0  0  0  0  0  0  0  0
    2.7480   61.0720   70.5180 C   0  0  0  0  0  0  0  0  0  0  0  0
   -1.1384   67.0084   69.3106 H   0  0  0  0  0  0  0  0  0  0  0  0
   -1.2177   65.4287   71.2410 H   0  0  0  0  0  0  0  0  0  0  0  0
    2.9143   64.3607   70.5336 H   0  0  0  0  0  0  0  0  0  0  0  0
    2.9946   65.9418   68.6107 H   0  0  0  0  0  0  0  0  0  0  0  0
    2.5482   70.1197   69.9676 H   0  0  0  0  0  0  0  0  0  0  0  0
    4.8757   71.0106   70.0504 H   0  0  0  0  0  0  0  0  0  0  0  0
    6.3421   70.8618   68.0388 H   0  0  0  0  0  0  0  0  0  0  0  0
    5.4841   69.8142   65.9445 H   0  0  0  0  0  0  0  0  0  0  0  0
    3.1549   68.9229   65.8518 H   0  0  0  0  0  0  0  0  0  0  0  0
    3.2972   62.9359   73.3289 H   0  0  0  0  0  0  0  0  0  0  0  0
    5.6349   62.1959   72.8795 H   0  0  0  0  0  0  0  0  0  0  0  0
    6.1258   60.7392   70.9141 H   0  0  0  0  0  0  0  0  0  0  0  0
    4.2795   60.0171   69.4054 H   0  0  0  0  0  0  0  0  0  0  0  0
    1.9357   60.7519   69.8488 H   0  0  0  0  0  0  0  0  0  0  0  0
  2  1  2  0
  3  2  1  0
  4  3  2  0
  5  4  1  0
  6  5  2  0
  6  1  1  0
  8  7  2  0
  8  1  1  0
  9  8  1  0
 10  9  2  0
 11  9  1  0
 12 11  2  0
 13 12  1  0
 14 13  2  0
 15 14  1  0
 16 11  1  0
 16 15  2  0
 17  4  1  0
 18 17  2  0
 19 17  1  0
 20 19  2  0
 21 19  1  0
 22 21  2  0
 23 22  1  0
 24 23  2  0
 25 24  1  0
 26 25  2  0
 26 21  1  0
  2 27  1  0
  3 28  1  0
  5 29  1  0
  6 30  1  0
 12 31  1  0
 13 32  1  0
 14 33  1  0
 15 34  1  0
 16 35  1  0
 22 36  1  0
 23 37  1  0
 24 38  1  0
 25 39  1  0
 26 40  1  0
M  END
>  <score>  (7) 
-8.939

$$$$
=
     RDKit          3D

 40 42  0  0  0  0  0  0  0  0999 V2000
    1.3790   64.8890   70.5840 C   0  0  0  0  0  0  0  0  0  0  0  0
    2.3620   64.6190   69.6260 C   0  0  0  0  0  0  0  0  0  0  0  0
    3.2990   63.5990   69.8410 C   0  0  0  0  0  0  0  0  0  0  0  0
    3.2620   62.8420   71.0190 C   0  0  0  0  0  0  0  0  0  0  0  0
    2.2770   63.1150   71.9770 C   0  0  0  0  0  0  0  0  0  0  0  0
    1.3420   64.1310   71.7610 C   0  0  0  0  0  0  0  0  0  0  0  0
   -0.2290   66.4520   71.3600 O   0  0  0  0  0  0  0  0  0  0  0  0
    0.3710   65.9680   70.4060 C   0  0  0  0  0  0  0  0  0  0  0  0
    0.0860   66.5100   69.0250 C   0  0  0  0  0  0  0  0  0  0  0  0
   -0.8890   66.0730   68.4230 O   0  0  0  0  0  0  0  0  0  0  0  0
    1.0020   67.5110   68.4180 C   0  0  0  0  0  0  0  0  0  0  0  0
    1.0790   67.5790   67.0200 C   0  0  0  0  0  0  0  0  0  0  0  0
    1.9380   68.4910   66.4060 C   0  0  0  0  0  0  0  0  0  0  0  0
    2.7250   69.3400   67.1830 C   0  0  0  0  0  0  0  0  0  0  0  0
    2.6510   69.2790   68.5750 C   0  0  0  0  0  0  0  0  0  0  0  0
    1.7920   68.3670   69.1940 C   0  0  0  0  0  0  0  0  0  0  0  0
    4.2260   61.7420   71.2890 C   0  0  0  0  0  0  0  0  0  0  0  0
    5.1630   61.8830   72.0640 O   0  0  0  0  0  0  0  0  0  0  0  0
    4.0410   60.4010   70.6170 C   0  0  0  0  0  0  0  0  0  0  0  0
    4.5140   60.2460   69.4960 O   0  0  0  0  0  0  0  0  0  0  0  0
    3.2680   59.3310   71.3000 C   0  0  0  0  0  0  0  0  0  0  0  0
    3.3700   58.0220   70.8090 C   0  0  0  0  0  0  0  0  0  0  0  0
    2.6490   56.9870   71.4050 C   0  0  0  0  0  0  0  0  0  0  0  0
    1.8210   57.2540   72.4950 C   0  0  0  0  0  0  0  0  0  0  0  0
    1.7170   58.5530   72.9900 C   0  0  0  0  0  0  0  0  0  0  0  0
    2.4370   59.5920   72.3950 C   0  0  0  0  0  0  0  0  0  0  0  0
    2.3998   65.2102   68.6992 H   0  0  0  0  0  0  0  0  0  0  0  0
    4.0670   63.3920   69.0811 H   0  0  0  0  0  0  0  0  0  0  0  0
    2.2393   62.5259   72.9052 H   0  0  0  0  0  0  0  0  0  0  0  0
    0.5726   64.3365   72.5198 H   0  0  0  0  0  0  0  0  0  0  0  0
    0.4594   66.9104   66.4043 H   0  0  0  0  0  0  0  0  0  0  0  0
    1.9943   68.5402   65.3085 H   0  0  0  0  0  0  0  0  0  0  0  0
    3.4039   70.0575   66.6989 H   0  0  0  0  0  0  0  0  0  0  0  0
    3.2707   69.9509   69.1870 H   0  0  0  0  0  0  0  0  0  0  0  0
    1.7367   68.3218   70.2917 H   0  0  0  0  0  0  0  0  0  0  0  0
    4.0222   57.8097   69.9490 H   0  0  0  0  0  0  0  0  0  0  0  0
    2.7335   55.9617   71.0157 H   0  0  0  0  0  0  0  0  0  0  0  0
    1.2499   56.4394   72.9642 H   0  0  0  0  0  0  0  0  0  0  0  0
    1.0659   58.7607   73.8519 H   0  0  0  0  0  0  0  0  0  0  0  0
    2.3505   60.6159   72.7876 H   0  0  0  0  0  0  0  0  0  0  0  0
  2  1  2  0
  3  2  1  0
  4  3  2  0
  5  4  1  0
  6  5  2  0
  6  1  1  0
  8  7  2  0
  8  1  1  0
  9  8  1  0
 10  9  2  0
 11  9  1  0
 12 11  2  0
 13 12  1  0
 14 13  2  0
 15 14  1  0
 16 11  1  0
 16 15  2  0
 17  4  1  0
 18 17  2  0
 19 17  1  0
 20 19  2  0
 21 19  1  0
 22 21  2  0
 23 22  1  0
 24 23  2  0
 25 24  1  0
 26 25  2  0
 26 21  1  0
  2 27  1  0
  3 28  1  0
  5 29  1  0
  6 30  1  0
 12 31  1  0
 13 32  1  0
 14 33  1  0
 15 34  1  0
 16 35  1  0
 22 36  1  0
 23 37  1  0
 24 38  1  0
 25 39  1  0
 26 40  1  0
M  END
>  <score>  (8) 
-8.691

$$$$
=
     RDKit          3D

 40 42  0  0  0  0  0  0  0  0999 V2000
    1.2420   63.4160   71.3980 C   0  0  0  0  0  0  0  0  0  0  0  0
    0.0110   62.7760   71.2120 C   0  0  0  0  0  0  0  0  0  0  0  0
   -0.6900   62.2580   72.3100 C   0  0  0  0  0  0  0  0  0  0  0  0
   -0.1640   62.3720   73.6030 C   0  0  0  0  0  0  0  0  0  0  0  0
    1.0680   63.0130   73.7860 C   0  0  0  0  0  0  0  0  0  0  0  0
    1.7660   63.5310   72.6920 C   0  0  0  0  0  0  0  0  0  0  0  0
    1.8810   65.1280   69.8860 O   0  0  0  0  0  0  0  0  0  0  0  0
    2.0280   63.9720   70.2650 C   0  0  0  0  0  0  0  0  0  0  0  0
    3.0570   63.1100   69.5710 C   0  0  0  0  0  0  0  0  0  0  0  0
    3.3480   63.3790   68.4110 O   0  0  0  0  0  0  0  0  0  0  0  0
    3.6530   61.9490   70.2810 C   0  0  0  0  0  0  0  0  0  0  0  0
    3.0910   60.6810   70.0710 C   0  0  0  0  0  0  0  0  0  0  0  0
    3.6050   59.5640   70.7300 C   0  0  0  0  0  0  0  0  0  0  0  0
    4.6830   59.7050   71.6030 C   0  0  0  0  0  0  0  0  0  0  0  0
    5.2490   60.9630   71.8150 C   0  0  0  0  0  0  0  0  0  0  0  0
    4.7360   62.0840   71.1580 C   0  0  0  0  0  0  0  0  0  0  0  0
   -0.8750   61.8500   74.8010 C   0  0  0  0  0  0  0  0  0  0  0  0
   -1.9220   62.3470   75.1950 O   0  0  0  0  0  0  0  0  0  0  0  0
   -0.3160   60.6590   75.5460 C   0  0  0  0  0  0  0  0  0  0  0  0
   -0.1970   60.7430   76.7630 O   0  0  0  0  0  0  0  0  0  0  0  0
    0.1090   59.4500   74.7950 C   0  0  0  0  0  0  0  0  0  0  0  0
    1.4540   59.3470   74.4090 C   0  0  0  0  0  0  0  0  0  0  0  0
    1.8970   58.2380   73.6870 C   0  0  0  0  0  0  0  0  0  0  0  0
    1.0000   57.2270   73.3450 C   0  0  0  0  0  0  0  0  0  0  0  0
   -0.3370   57.3220   73.7270 C   0  0  0  0  0  0  0  0  0  0  0  0
   -0.7850   58.4310   74.4500 C   0  0  0  0  0  0  0  0  0  0  0  0
   -0.4082   62.6791   70.1996 H   0  0  0  0  0  0  0  0  0  0  0  0
   -1.6582   61.7594   72.1552 H   0  0  0  0  0  0  0  0  0  0  0  0
    1.4888   63.1092   74.7978 H   0  0  0  0  0  0  0  0  0  0  0  0
    2.7328   64.0321   72.8478 H   0  0  0  0  0  0  0  0  0  0  0  0
    2.2404   60.5668   69.3830 H   0  0  0  0  0  0  0  0  0  0  0  0
    3.1600   58.5723   70.5610 H   0  0  0  0  0  0  0  0  0  0  0  0
    5.0873   58.8249   72.1245 H   0  0  0  0  0  0  0  0  0  0  0  0
    6.1016   61.0721   72.5015 H   0  0  0  0  0  0  0  0  0  0  0  0
    5.1835   63.0740   71.3299 H   0  0  0  0  0  0  0  0  0  0  0  0
    2.1628   60.1444   74.6768 H   0  0  0  0  0  0  0  0  0  0  0  0
    2.9528   58.1616   73.3880 H   0  0  0  0  0  0  0  0  0  0  0  0
    1.3477   56.3539   72.7734 H   0  0  0  0  0  0  0  0  0  0  0  0
   -1.0420   56.5214   73.4585 H   0  0  0  0  0  0  0  0  0  0  0  0
   -1.8415   58.5026   74.7480 H   0  0  0  0  0  0  0  0  0  0  0  0
  2  1  2  0
  3  2  1  0
  4  3  2  0
  5  4  1  0
  6  5  2  0
  6  1  1  0
  8  7  2  0
  8  1  1  0
  9  8  1  0
 10  9  2  0
 11  9  1  0
 12 11  2  0
 13 12  1  0
 14 13  2  0
 15 14  1  0
 16 11  1  0
 16 15  2  0
 17  4  1  0
 18 17  2  0
 19 17  1  0
 20 19  2  0
 21 19  1  0
 22 21  2  0
 23 22  1  0
 24 23  2  0
 25 24  1  0
 26 25  2  0
 26 21  1  0
  2 27  1  0
  3 28  1  0
  5 29  1  0
  6 30  1  0
 12 31  1  0
 13 32  1  0
 14 33  1  0
 15 34  1  0
 16 35  1  0
 22 36  1  0
 23 37  1  0
 24 38  1  0
 25 39  1  0
 26 40  1  0
M  END
>  <score>  (9) 
-8.532

$$$$
