=
     RDKit          3D

 63 67  0  0  0  0  0  0  0  0999 V2000
    0.8070   56.7520   75.2180 C   0  0  2  0  0  0  0  0  0  0  0  0
   -0.4440   56.6960   74.5160 O   0  0  0  0  0  0  0  0  0  0  0  0
   -1.4820   56.8590   75.4850 C   0  0  0  0  0  0  0  0  0  0  0  0
   -0.9180   57.2540   76.7390 O   0  0  0  0  0  0  0  0  0  0  0  0
    0.4650   57.4990   76.5110 C   0  0  2  0  0  0  0  0  0  0  0  0
    0.7590   58.9960   76.2650 C   0  0  0  0  0  0  0  0  0  0  0  0
    1.1280   59.0720   74.7830 C   0  0  2  0  0  0  0  0  0  0  0  0
    1.8080   57.7130   74.5020 C   0  0  1  0  0  0  0  0  0  0  0  0
    3.2080   57.5820   75.1610 C   0  0  0  0  0  0  0  0  0  0  0  0
    1.9020   57.5690   72.9690 C   0  0  0  0  0  0  0  0  0  0  0  0
    2.6430   58.7460   72.2940 C   0  0  1  0  0  0  0  0  0  0  0  0
    2.0990   60.1470   72.7220 C   0  0  1  0  0  0  0  0  0  0  0  0
    1.9290   60.2770   74.2690 C   0  0  1  0  0  0  0  0  0  0  0  0
    1.2070   61.5890   74.6170 C   0  0  0  0  0  0  0  0  0  0  0  0
    1.9420   62.8030   74.0640 C   0  0  0  0  0  0  0  0  0  0  0  0
    2.1930   62.6940   72.5780 C   0  0  0  0  0  0  0  0  0  0  0  0
    1.8730   63.7200   71.7700 C   0  0  0  0  0  0  0  0  0  0  0  0
    2.2290   63.7190   70.3320 C   0  0  0  0  0  0  0  0  0  0  0  0
    1.8940   64.6650   69.6250 O   0  0  0  0  0  0  0  0  0  0  0  0
    3.0830   62.5900   69.8170 C   0  0  0  0  0  0  0  0  0  0  0  0
    2.7420   61.2940   70.5380 C   0  0  0  0  0  0  0  0  0  0  0  0
    2.8510   61.3900   72.0900 C   0  0  2  0  0  0  0  0  0  0  0  0
    4.3450   61.4720   72.4810 C   0  0  0  0  0  0  0  0  0  0  0  0
    0.8070   60.1900   72.2130 F   0  0  0  0  0  0  0  0  0  0  0  0
   -2.2110   55.5300   75.6650 C   0  0  0  0  0  0  0  0  0  0  0  0
   -2.4610   57.9260   75.0080 C   0  0  0  0  0  0  0  0  0  0  0  0
    1.3540   55.3140   75.3630 C   0  0  0  0  0  0  0  0  0  0  0  0
    1.6610   54.8810   76.4780 O   0  0  0  0  0  0  0  0  0  0  0  0
    0.1510   53.2900   73.9790 Cl  0  0  0  0  0  0  0  0  0  0  0  0
    1.4700   54.4710   74.1050 C   0  0  0  0  0  0  0  0  0  0  0  0
    4.0410   58.6100   72.5300 O   0  0  0  0  0  0  0  0  0  0  0  0
    1.0460   57.1776   77.3880 H   0  0  0  0  0  0  0  0  0  0  0  0
   -0.1306   59.6074   76.4766 H   0  0  0  0  0  0  0  0  0  0  0  0
    1.5582   59.3791   76.9165 H   0  0  0  0  0  0  0  0  0  0  0  0
    0.2097   59.2560   74.2060 H   0  0  0  0  0  0  0  0  0  0  0  0
    3.1004   57.5921   76.2557 H   0  0  0  0  0  0  0  0  0  0  0  0
    3.6740   56.6363   74.8471 H   0  0  0  0  0  0  0  0  0  0  0  0
    3.8413   58.4248   74.8471 H   0  0  0  0  0  0  0  0  0  0  0  0
    2.4395   56.6377   72.7371 H   0  0  0  0  0  0  0  0  0  0  0  0
    0.8744   57.5599   72.5766 H   0  0  0  0  0  0  0  0  0  0  0  0
    2.4526   58.6969   71.2117 H   0  0  0  0  0  0  0  0  0  0  0  0
    2.9180   60.2934   74.7503 H   0  0  0  0  0  0  0  0  0  0  0  0
    0.1935   61.5616   74.1904 H   0  0  0  0  0  0  0  0  0  0  0  0
    1.1725   61.6800   75.7127 H   0  0  0  0  0  0  0  0  0  0  0  0
    1.3360   63.7008   74.2554 H   0  0  0  0  0  0  0  0  0  0  0  0
    2.9186   62.8627   74.5666 H   0  0  0  0  0  0  0  0  0  0  0  0
    1.3329   64.5825   72.1876 H   0  0  0  0  0  0  0  0  0  0  0  0
    2.9039   62.4628   68.7392 H   0  0  0  0  0  0  0  0  0  0  0  0
    4.1406   62.8315   69.9991 H   0  0  0  0  0  0  0  0  0  0  0  0
    1.7100   61.0145   70.2795 H   0  0  0  0  0  0  0  0  0  0  0  0
    3.4761   60.5428   70.2111 H   0  0  0  0  0  0  0  0  0  0  0  0
    4.4374   61.4771   73.5771 H   0  0  0  0  0  0  0  0  0  0  0  0
    4.8794   60.6018   72.0720 H   0  0  0  0  0  0  0  0  0  0  0  0
    4.7809   62.3954   72.0720 H   0  0  0  0  0  0  0  0  0  0  0  0
   -2.3273   55.3180   76.7381 H   0  0  0  0  0  0  0  0  0  0  0  0
   -3.2030   55.5891   75.1933 H   0  0  0  0  0  0  0  0  0  0  0  0
   -1.6281   54.7252   75.1933 H   0  0  0  0  0  0  0  0  0  0  0  0
   -2.9158   58.4217   75.8783 H   0  0  0  0  0  0  0  0  0  0  0  0
   -1.9250   58.6703   74.4008 H   0  0  0  0  0  0  0  0  0  0  0  0
   -3.2486   57.4559   74.4008 H   0  0  0  0  0  0  0  0  0  0  0  0
    2.4292   53.9328   74.1242 H   0  0  0  0  0  0  0  0  0  0  0  0
    1.4112   55.1432   73.2363 H   0  0  0  0  0  0  0  0  0  0  0  0
    4.2110   58.5935   73.5052 H   0  0  0  0  0  0  0  0  0  0  0  0
  2  1  1  0
  3  2  1  0
  4  3  1  0
  5  1  1  0
  5  4  1  0
  6  5  1  0
  7  6  1  0
  8  7  1  0
  8  1  1  0
  8  9  1  1
 10  8  1  0
 11 10  1  0
 12 11  1  0
 13  7  1  0
 13 12  1  0
 14 13  1  0
 15 14  1  0
 16 15  1  0
 17 16  2  0
 18 17  1  0
 19 18  2  0
 20 18  1  0
 21 20  1  0
 22 21  1  0
 22 16  1  0
 22 12  1  0
 22 23  1  6
 12 24  1  6
 25  3  1  0
 26  3  1  0
  1 27  1  1
 28 27  2  0
 30 29  1  0
 30 27  1  0
 31 11  1  0
  5 32  1  1
  6 33  1  0
  6 34  1  0
  7 35  1  6
  9 36  1  0
  9 37  1  0
  9 38  1  0
 10 39  1  0
 10 40  1  0
 11 41  1  6
 13 42  1  1
 14 43  1  0
 14 44  1  0
 15 45  1  0
 15 46  1  0
 17 47  1  0
 20 48  1  0
 20 49  1  0
 21 50  1  0
 21 51  1  0
 23 52  1  0
 23 53  1  0
 23 54  1  0
 25 55  1  0
 25 56  1  0
 25 57  1  0
 26 58  1  0
 26 59  1  0
 26 60  1  0
 30 61  1  0
 30 62  1  0
 31 63  1  0
M  END
>  <score>  (1) 
-8.877

$$$$
=
     RDKit          3D

 63 67  0  0  0  0  0  0  0  0999 V2000
    2.2500   62.6450   71.0950 C   0  0  2  0  0  0  0  0  0  0  0  0
    2.3360   61.7420   69.9820 O   0  0  0  0  0  0  0  0  0  0  0  0
    3.6300   61.9090   69.3980 C   0  0  0  0  0  0  0  0  0  0  0  0
    4.4470   62.7160   70.2520 O   0  0  0  0  0  0  0  0  0  0  0  0
    3.7140   62.9180   71.4550 C   0  0  2  0  0  0  0  0  0  0  0  0
    4.1100   61.9090   72.5560 C   0  0  0  0  0  0  0  0  0  0  0  0
    2.8920   60.9950   72.6870 C   0  0  2  0  0  0  0  0  0  0  0  0
    1.6980   61.9210   72.3630 C   0  0  1  0  0  0  0  0  0  0  0  0
    1.4170   62.9690   73.4740 C   0  0  0  0  0  0  0  0  0  0  0  0
    0.4730   61.0090   72.1400 C   0  0  0  0  0  0  0  0  0  0  0  0
    0.1840   60.0780   73.3400 C   0  0  1  0  0  0  0  0  0  0  0  0
    1.4380   59.2750   73.8170 C   0  0  1  0  0  0  0  0  0  0  0  0
    2.7030   60.1770   73.9740 C   0  0  1  0  0  0  0  0  0  0  0  0
    3.9430   59.3100   74.2470 C   0  0  0  0  0  0  0  0  0  0  0  0
    3.7630   58.4360   75.4810 C   0  0  0  0  0  0  0  0  0  0  0  0
    2.5120   57.5940   75.4090 C   0  0  0  0  0  0  0  0  0  0  0  0
    2.5790   56.2760   75.6660 C   0  0  0  0  0  0  0  0  0  0  0  0
    1.3620   55.4350   75.7480 C   0  0  0  0  0  0  0  0  0  0  0  0
    1.4730   54.2300   75.9600 O   0  0  0  0  0  0  0  0  0  0  0  0
    0.0240   56.1200   75.6670 C   0  0  0  0  0  0  0  0  0  0  0  0
    0.0910   57.3060   74.7150 C   0  0  0  0  0  0  0  0  0  0  0  0
    1.2050   58.3360   75.0720 C   0  0  2  0  0  0  0  0  0  0  0  0
    0.7870   59.1020   76.3480 C   0  0  0  0  0  0  0  0  0  0  0  0
    1.7310   58.4250   72.7590 F   0  0  0  0  0  0  0  0  0  0  0  0
    3.4820   62.6060   68.0480 C   0  0  0  0  0  0  0  0  0  0  0  0
    4.2830   60.5450   69.2080 C   0  0  0  0  0  0  0  0  0  0  0  0
    1.3920   63.8600   70.6760 C   0  0  0  0  0  0  0  0  0  0  0  0
    0.1960   63.7070   70.4090 O   0  0  0  0  0  0  0  0  0  0  0  0
    1.0370   66.4410   69.8560 Cl  0  0  0  0  0  0  0  0  0  0  0  0
    2.0660   65.2200   70.6330 C   0  0  0  0  0  0  0  0  0  0  0  0
   -0.4040   60.8430   74.3880 O   0  0  0  0  0  0  0  0  0  0  0  0
    3.9057   63.9313   71.8378 H   0  0  0  0  0  0  0  0  0  0  0  0
    4.9983   61.3337   72.2560 H   0  0  0  0  0  0  0  0  0  0  0  0
    4.3690   62.4023   73.5045 H   0  0  0  0  0  0  0  0  0  0  0  0
    3.0178   60.1481   71.9964 H   0  0  0  0  0  0  0  0  0  0  0  0
    1.5428   62.4998   74.4609 H   0  0  0  0  0  0  0  0  0  0  0  0
    2.1221   63.8074   73.3740 H   0  0  0  0  0  0  0  0  0  0  0  0
    0.3871   63.3422   73.3740 H   0  0  0  0  0  0  0  0  0  0  0  0
   -0.4092   61.6433   71.9685 H   0  0  0  0  0  0  0  0  0  0  0  0
    0.6942   60.3685   71.2735 H   0  0  0  0  0  0  0  0  0  0  0  0
   -0.5275   59.3054   73.0133 H   0  0  0  0  0  0  0  0  0  0  0  0
    2.5692   60.8596   74.8261 H   0  0  0  0  0  0  0  0  0  0  0  0
    4.1235   58.6629   73.3759 H   0  0  0  0  0  0  0  0  0  0  0  0
    4.7961   59.9810   74.4255 H   0  0  0  0  0  0  0  0  0  0  0  0
    4.6333   57.7695   75.5724 H   0  0  0  0  0  0  0  0  0  0  0  0
    3.6721   59.0999   76.3533 H   0  0  0  0  0  0  0  0  0  0  0  0
    3.5634   55.8097   75.8194 H   0  0  0  0  0  0  0  0  0  0  0  0
   -0.7278   55.4046   75.3022 H   0  0  0  0  0  0  0  0  0  0  0  0
   -0.2525   56.4818   76.6683 H   0  0  0  0  0  0  0  0  0  0  0  0
    0.2819   56.9262   73.7004 H   0  0  0  0  0  0  0  0  0  0  0  0
   -0.8708   57.8341   74.7924 H   0  0  0  0  0  0  0  0  0  0  0  0
    1.0979   58.5322   77.2361 H   0  0  0  0  0  0  0  0  0  0  0  0
    1.2712   60.0896   76.3579 H   0  0  0  0  0  0  0  0  0  0  0  0
   -0.3056   59.2292   76.3579 H   0  0  0  0  0  0  0  0  0  0  0  0
    3.2559   63.6706   68.2078 H   0  0  0  0  0  0  0  0  0  0  0  0
    4.4203   62.5114   67.4817 H   0  0  0  0  0  0  0  0  0  0  0  0
    2.6631   62.1383   67.4817 H   0  0  0  0  0  0  0  0  0  0  0  0
    4.4959   60.1003   70.1913 H   0  0  0  0  0  0  0  0  0  0  0  0
    3.6021   59.8873   68.6478 H   0  0  0  0  0  0  0  0  0  0  0  0
    5.2223   60.6630   68.6478 H   0  0  0  0  0  0  0  0  0  0  0  0
    3.0056   65.1341   70.0676 H   0  0  0  0  0  0  0  0  0  0  0  0
    2.2556   65.5408   71.6680 H   0  0  0  0  0  0  0  0  0  0  0  0
   -0.1217   60.4758   75.2630 H   0  0  0  0  0  0  0  0  0  0  0  0
  2  1  1  0
  3  2  1  0
  4  3  1  0
  5  1  1  0
  5  4  1  0
  6  5  1  0
  7  6  1  0
  8  7  1  0
  8  1  1  0
  8  9  1  1
 10  8  1  0
 11 10  1  0
 12 11  1  0
 13  7  1  0
 13 12  1  0
 14 13  1  0
 15 14  1  0
 16 15  1  0
 17 16  2  0
 18 17  1  0
 19 18  2  0
 20 18  1  0
 21 20  1  0
 22 21  1  0
 22 16  1  0
 22 12  1  0
 22 23  1  1
 12 24  1  6
 25  3  1  0
 26  3  1  0
  1 27  1  6
 28 27  2  0
 30 29  1  0
 30 27  1  0
 31 11  1  0
  5 32  1  1
  6 33  1  0
  6 34  1  0
  7 35  1  6
  9 36  1  0
  9 37  1  0
  9 38  1  0
 10 39  1  0
 10 40  1  0
 11 41  1  6
 13 42  1  1
 14 43  1  0
 14 44  1  0
 15 45  1  0
 15 46  1  0
 17 47  1  0
 20 48  1  0
 20 49  1  0
 21 50  1  0
 21 51  1  0
 23 52  1  0
 23 53  1  0
 23 54  1  0
 25 55  1  0
 25 56  1  0
 25 57  1  0
 26 58  1  0
 26 59  1  0
 26 60  1  0
 30 61  1  0
 30 62  1  0
 31 63  1  0
M  END
>  <score>  (2) 
-8.73

$$$$
=
     RDKit          3D

 63 67  0  0  0  0  0  0  0  0999 V2000
   -0.0170   58.0580   75.6970 C   0  0  2  0  0  0  0  0  0  0  0  0
   -1.1790   57.9910   74.8560 O   0  0  0  0  0  0  0  0  0  0  0  0
   -2.2370   58.6670   75.5400 C   0  0  0  0  0  0  0  0  0  0  0  0
   -1.7140   59.3630   76.6750 O   0  0  0  0  0  0  0  0  0  0  0  0
   -0.2960   59.2560   76.6090 C   0  0  2  0  0  0  0  0  0  0  0  0
    0.3510   60.4940   75.9490 C   0  0  0  0  0  0  0  0  0  0  0  0
    0.8610   59.9810   74.6010 C   0  0  2  0  0  0  0  0  0  0  0  0
    1.2370   58.5090   74.8840 C   0  0  1  0  0  0  0  0  0  0  0  0
    2.5050   58.3610   75.7690 C   0  0  0  0  0  0  0  0  0  0  0  0
    1.4350   57.8270   73.5140 C   0  0  0  0  0  0  0  0  0  0  0  0
    2.4830   58.5400   72.6290 C   0  0  1  0  0  0  0  0  0  0  0  0
    2.2350   60.0770   72.4910 C   0  0  1  0  0  0  0  0  0  0  0  0
    1.9590   60.7650   73.8660 C   0  0  1  0  0  0  0  0  0  0  0  0
    1.5250   62.2250   73.6530 C   0  0  0  0  0  0  0  0  0  0  0  0
    2.5640   63.0150   72.8680 C   0  0  0  0  0  0  0  0  0  0  0  0
    2.9180   62.3520   71.5580 C   0  0  0  0  0  0  0  0  0  0  0  0
    2.9150   63.0740   70.4230 C   0  0  0  0  0  0  0  0  0  0  0  0
    3.3910   62.5080   69.1390 C   0  0  0  0  0  0  0  0  0  0  0  0
    3.3460   63.1950   68.1220 O   0  0  0  0  0  0  0  0  0  0  0  0
    4.0090   61.1350   69.1580 C   0  0  0  0  0  0  0  0  0  0  0  0
    3.3180   60.2560   70.1900 C   0  0  0  0  0  0  0  0  0  0  0  0
    3.3040   60.8630   71.6260 C   0  0  2  0  0  0  0  0  0  0  0  0
    4.7350   60.8010   72.2080 C   0  0  0  0  0  0  0  0  0  0  0  0
    1.0380   60.1760   71.7930 F   0  0  0  0  0  0  0  0  0  0  0  0
   -3.2620   57.6410   76.0140 C   0  0  0  0  0  0  0  0  0  0  0  0
   -2.9000   59.6620   74.5940 C   0  0  0  0  0  0  0  0  0  0  0  0
    0.1730   56.6850   76.3810 C   0  0  0  0  0  0  0  0  0  0  0  0
    0.3710   56.6260   77.5990 O   0  0  0  0  0  0  0  0  0  0  0  0
    1.6710   54.6840   75.2810 Cl  0  0  0  0  0  0  0  0  0  0  0  0
    0.0830   55.4430   75.5130 C   0  0  0  0  0  0  0  0  0  0  0  0
    3.7860   58.2410   73.1200 O   0  0  0  0  0  0  0  0  0  0  0  0
    0.1150   59.1581   77.6246 H   0  0  0  0  0  0  0  0  0  0  0  0
   -0.3921   61.2924   75.8062 H   0  0  0  0  0  0  0  0  0  0  0  0
    1.1532   60.9271   76.5645 H   0  0  0  0  0  0  0  0  0  0  0  0
    0.0649   60.1172   73.8542 H   0  0  0  0  0  0  0  0  0  0  0  0
    2.2174   58.3946   76.8302 H   0  0  0  0  0  0  0  0  0  0  0  0
    2.9936   57.3997   75.5517 H   0  0  0  0  0  0  0  0  0  0  0  0
    3.2019   59.1839   75.5517 H   0  0  0  0  0  0  0  0  0  0  0  0
    1.7652   56.7914   73.6827 H   0  0  0  0  0  0  0  0  0  0  0  0
    0.4725   57.8704   72.9832 H   0  0  0  0  0  0  0  0  0  0  0  0
    2.3861   58.1538   71.6036 H   0  0  0  0  0  0  0  0  0  0  0  0
    2.8776   60.7666   74.4712 H   0  0  0  0  0  0  0  0  0  0  0  0
    0.5751   62.2368   73.0985 H   0  0  0  0  0  0  0  0  0  0  0  0
    1.4120   62.6958   74.6407 H   0  0  0  0  0  0  0  0  0  0  0  0
    2.1629   64.0179   72.6599 H   0  0  0  0  0  0  0  0  0  0  0  0
    3.4785   63.0667   73.4771 H   0  0  0  0  0  0  0  0  0  0  0  0
    2.5498   64.1113   70.4487 H   0  0  0  0  0  0  0  0  0  0  0  0
    3.9045   60.6768   68.1635 H   0  0  0  0  0  0  0  0  0  0  0  0
    5.0728   61.2264   69.4224 H   0  0  0  0  0  0  0  0  0  0  0  0
    2.2774   60.0982   69.8701 H   0  0  0  0  0  0  0  0  0  0  0  0
    3.8888   59.3173   70.2447 H   0  0  0  0  0  0  0  0  0  0  0  0
    4.6843   60.8032   73.3068 H   0  0  0  0  0  0  0  0  0  0  0  0
    5.2305   59.8805   71.8656 H   0  0  0  0  0  0  0  0  0  0  0  0
    5.3083   61.6751   71.8656 H   0  0  0  0  0  0  0  0  0  0  0  0
   -3.2806   57.6224   77.1137 H   0  0  0  0  0  0  0  0  0  0  0  0
   -4.2576   57.9152   75.6350 H   0  0  0  0  0  0  0  0  0  0  0  0
   -2.9868   56.6457   75.6350 H   0  0  0  0  0  0  0  0  0  0  0  0
   -3.4163   60.4368   75.1798 H   0  0  0  0  0  0  0  0  0  0  0  0
   -2.1336   60.1316   73.9598 H   0  0  0  0  0  0  0  0  0  0  0  0
   -3.6285   59.1355   73.9598 H   0  0  0  0  0  0  0  0  0  0  0  0
   -0.3242   55.7240   74.5306 H   0  0  0  0  0  0  0  0  0  0  0  0
   -0.5714   54.7185   76.0198 H   0  0  0  0  0  0  0  0  0  0  0  0
    3.7743   58.2437   74.1099 H   0  0  0  0  0  0  0  0  0  0  0  0
  2  1  1  0
  3  2  1  0
  4  3  1  0
  5  1  1  0
  5  4  1  0
  6  5  1  0
  7  6  1  0
  8  7  1  0
  8  1  1  0
  8  9  1  1
 10  8  1  0
 11 10  1  0
 12 11  1  0
 13  7  1  0
 13 12  1  0
 14 13  1  0
 15 14  1  0
 16 15  1  0
 17 16  2  0
 18 17  1  0
 19 18  2  0
 20 18  1  0
 21 20  1  0
 22 21  1  0
 22 16  1  0
 22 12  1  0
 22 23  1  1
 12 24  1  6
 25  3  1  0
 26  3  1  0
  1 27  1  1
 28 27  2  0
 30 29  1  0
 30 27  1  0
 31 11  1  0
  5 32  1  1
  6 33  1  0
  6 34  1  0
  7 35  1  6
  9 36  1  0
  9 37  1  0
  9 38  1  0
 10 39  1  0
 10 40  1  0
 11 41  1  6
 13 42  1  1
 14 43  1  0
 14 44  1  0
 15 45  1  0
 15 46  1  0
 17 47  1  0
 20 48  1  0
 20 49  1  0
 21 50  1  0
 21 51  1  0
 23 52  1  0
 23 53  1  0
 23 54  1  0
 25 55  1  0
 25 56  1  0
 25 57  1  0
 26 58  1  0
 26 59  1  0
 26 60  1  0
 30 61  1  0
 30 62  1  0
 31 63  1  0
M  END
>  <score>  (3) 
-8.613

$$$$
=
     RDKit          3D

 63 67  0  0  0  0  0  0  0  0999 V2000
    2.6960   61.8340   71.6870 C   0  0  2  0  0  0  0  0  0  0  0  0
    2.4920   60.7930   70.7190 O   0  0  0  0  0  0  0  0  0  0  0  0
    3.7370   60.1090   70.5630 C   0  0  0  0  0  0  0  0  0  0  0  0
    4.6550   60.5330   71.5760 O   0  0  0  0  0  0  0  0  0  0  0  0
    3.9260   61.3660   72.4700 C   0  0  2  0  0  0  0  0  0  0  0  0
    3.4140   60.5890   73.7040 C   0  0  0  0  0  0  0  0  0  0  0  0
    1.8990   60.5180   73.5050 C   0  0  2  0  0  0  0  0  0  0  0  0
    1.5630   61.8310   72.7610 C   0  0  1  0  0  0  0  0  0  0  0  0
    1.6970   63.0930   73.6560 C   0  0  0  0  0  0  0  0  0  0  0  0
    0.1240   61.6830   72.2240 C   0  0  0  0  0  0  0  0  0  0  0  0
   -0.9050   61.3560   73.3300 C   0  0  1  0  0  0  0  0  0  0  0  0
   -0.4850   60.1490   74.2290 C   0  0  1  0  0  0  0  0  0  0  0  0
    0.9940   60.2510   74.7170 C   0  0  1  0  0  0  0  0  0  0  0  0
    1.4130   58.9510   75.4230 C   0  0  0  0  0  0  0  0  0  0  0  0
    0.4940   58.6200   76.5920 C   0  0  0  0  0  0  0  0  0  0  0  0
   -0.9590   58.5780   76.1850 C   0  0  0  0  0  0  0  0  0  0  0  0
   -1.7210   57.5270   76.5360 C   0  0  0  0  0  0  0  0  0  0  0  0
   -3.1800   57.5040   76.2860 C   0  0  0  0  0  0  0  0  0  0  0  0
   -3.8330   56.5120   76.6000 O   0  0  0  0  0  0  0  0  0  0  0  0
   -3.8230   58.7530   75.7420 C   0  0  0  0  0  0  0  0  0  0  0  0
   -2.8770   59.4630   74.7840 C   0  0  0  0  0  0  0  0  0  0  0  0
   -1.4870   59.7970   75.4050 C   0  0  2  0  0  0  0  0  0  0  0  0
   -1.6600   60.9400   76.4310 C   0  0  0  0  0  0  0  0  0  0  0  0
   -0.5080   59.0530   73.3750 F   0  0  0  0  0  0  0  0  0  0  0  0
    4.3210   60.4410   69.1930 C   0  0  0  0  0  0  0  0  0  0  0  0
    3.5100   58.6060   70.6780 C   0  0  0  0  0  0  0  0  0  0  0  0
    2.8110   63.1820   70.9400 C   0  0  0  0  0  0  0  0  0  0  0  0
    3.8560   63.8380   71.0110 O   0  0  0  0  0  0  0  0  0  0  0  0
    1.0810   65.2650   70.5840 Cl  0  0  0  0  0  0  0  0  0  0  0  0
    1.6200   63.6390   70.1170 C   0  0  0  0  0  0  0  0  0  0  0  0
   -1.1620   62.5350   74.0870 O   0  0  0  0  0  0  0  0  0  0  0  0
    4.5739   62.1809   72.8253 H   0  0  0  0  0  0  0  0  0  0  0  0
    3.8502   59.5797   73.7374 H   0  0  0  0  0  0  0  0  0  0  0  0
    3.6909   61.0753   74.6510 H   0  0  0  0  0  0  0  0  0  0  0  0
    1.6649   59.5991   72.9475 H   0  0  0  0  0  0  0  0  0  0  0  0
    1.6655   62.7966   74.7148 H   0  0  0  0  0  0  0  0  0  0  0  0
    2.6533   63.5933   73.4436 H   0  0  0  0  0  0  0  0  0  0  0  0
    0.8671   63.7830   73.4436 H   0  0  0  0  0  0  0  0  0  0  0  0
   -0.1686   62.6273   71.7417 H   0  0  0  0  0  0  0  0  0  0  0  0
    0.1230   60.8414   71.5157 H   0  0  0  0  0  0  0  0  0  0  0  0
   -1.8366   61.0265   72.8467 H   0  0  0  0  0  0  0  0  0  0  0  0
    1.0903   61.0770   75.4371 H   0  0  0  0  0  0  0  0  0  0  0  0
    1.3780   58.1248   74.6976 H   0  0  0  0  0  0  0  0  0  0  0  0
    2.4308   59.0888   75.8168 H   0  0  0  0  0  0  0  0  0  0  0  0
    0.7765   57.6369   76.9966 H   0  0  0  0  0  0  0  0  0  0  0  0
    0.6094   59.4130   77.3455 H   0  0  0  0  0  0  0  0  0  0  0  0
   -1.2475   56.6611   77.0219 H   0  0  0  0  0  0  0  0  0  0  0  0
   -4.7450   58.4823   75.2067 H   0  0  0  0  0  0  0  0  0  0  0  0
   -4.0559   59.4278   76.5789 H   0  0  0  0  0  0  0  0  0  0  0  0
   -2.7193   58.8156   73.9088 H   0  0  0  0  0  0  0  0  0  0  0  0
   -3.3483   60.4210   74.5194 H   0  0  0  0  0  0  0  0  0  0  0  0
   -1.5980   60.5305   77.4500 H   0  0  0  0  0  0  0  0  0  0  0  0
   -0.8645   61.6859   76.2866 H   0  0  0  0  0  0  0  0  0  0  0  0
   -2.6406   61.4171   76.2866 H   0  0  0  0  0  0  0  0  0  0  0  0
    5.2708   60.9810   69.3204 H   0  0  0  0  0  0  0  0  0  0  0  0
    4.5005   59.5099   68.6355 H   0  0  0  0  0  0  0  0  0  0  0  0
    3.6127   61.0715   68.6355 H   0  0  0  0  0  0  0  0  0  0  0  0
    3.4671   58.3218   71.7398 H   0  0  0  0  0  0  0  0  0  0  0  0
    2.5615   58.3399   70.1886 H   0  0  0  0  0  0  0  0  0  0  0  0
    4.3376   58.0717   70.1886 H   0  0  0  0  0  0  0  0  0  0  0  0
    0.7908   62.9321   70.2676 H   0  0  0  0  0  0  0  0  0  0  0  0
    1.9259   63.6703   69.0609 H   0  0  0  0  0  0  0  0  0  0  0  0
   -1.1159   62.3235   75.0530 H   0  0  0  0  0  0  0  0  0  0  0  0
  2  1  1  0
  3  2  1  0
  4  3  1  0
  5  1  1  0
  5  4  1  0
  6  5  1  0
  7  6  1  0
  8  7  1  0
  8  1  1  0
  8  9  1  1
 10  8  1  0
 11 10  1  0
 12 11  1  0
 13  7  1  0
 13 12  1  0
 14 13  1  0
 15 14  1  0
 16 15  1  0
 17 16  2  0
 18 17  1  0
 19 18  2  0
 20 18  1  0
 21 20  1  0
 22 21  1  0
 22 16  1  0
 22 12  1  0
 22 23  1  1
 12 24  1  6
 25  3  1  0
 26  3  1  0
  1 27  1  6
 28 27  2  0
 30 29  1  0
 30 27  1  0
 31 11  1  0
  5 32  1  1
  6 33  1  0
  6 34  1  0
  7 35  1  6
  9 36  1  0
  9 37  1  0
  9 38  1  0
 10 39  1  0
 10 40  1  0
 11 41  1  6
 13 42  1  1
 14 43  1  0
 14 44  1  0
 15 45  1  0
 15 46  1  0
 17 47  1  0
 20 48  1  0
 20 49  1  0
 21 50  1  0
 21 51  1  0
 23 52  1  0
 23 53  1  0
 23 54  1  0
 25 55  1  0
 25 56  1  0
 25 57  1  0
 26 58  1  0
 26 59  1  0
 26 60  1  0
 30 61  1  0
 30 62  1  0
 31 63  1  0
M  END
>  <score>  (4) 
-8.438

$$$$
=
     RDKit          3D

 63 67  0  0  0  0  0  0  0  0999 V2000
    1.8090   61.6010   72.8330 C   0  0  2  0  0  0  0  0  0  0  0  0
    1.8860   61.1100   71.4860 O   0  0  0  0  0  0  0  0  0  0  0  0
    3.2180   61.3470   71.0240 C   0  0  0  0  0  0  0  0  0  0  0  0
    4.0470   61.7530   72.1180 O   0  0  0  0  0  0  0  0  0  0  0  0
    3.2670   61.6120   73.3010 C   0  0  2  0  0  0  0  0  0  0  0  0
    3.5290   60.2660   74.0140 C   0  0  0  0  0  0  0  0  0  0  0  0
    2.2410   59.4690   73.8030 C   0  0  2  0  0  0  0  0  0  0  0  0
    1.1370   60.5510   73.7740 C   0  0  1  0  0  0  0  0  0  0  0  0
    0.8770   61.1970   75.1630 C   0  0  0  0  0  0  0  0  0  0  0  0
   -0.1380   59.8750   73.2290 C   0  0  0  0  0  0  0  0  0  0  0  0
   -0.5580   58.6300   74.0440 C   0  0  1  0  0  0  0  0  0  0  0  0
    0.6040   57.6090   74.2600 C   0  0  1  0  0  0  0  0  0  0  0  0
    1.9230   58.2940   74.7400 C   0  0  1  0  0  0  0  0  0  0  0  0
    3.0790   57.2810   74.7410 C   0  0  0  0  0  0  0  0  0  0  0  0
    2.7690   56.0690   75.6100 C   0  0  0  0  0  0  0  0  0  0  0  0
    1.4650   55.4100   75.2300 C   0  0  0  0  0  0  0  0  0  0  0  0
    1.4200   54.0800   75.0370 C   0  0  0  0  0  0  0  0  0  0  0  0
    0.1420   53.3690   74.8030 C   0  0  0  0  0  0  0  0  0  0  0  0
    0.1510   52.1570   74.6060 O   0  0  0  0  0  0  0  0  0  0  0  0
   -1.1360   54.1570   74.9200 C   0  0  0  0  0  0  0  0  0  0  0  0
   -0.9310   55.5790   74.4180 C   0  0  0  0  0  0  0  0  0  0  0  0
    0.2360   56.3330   75.1250 C   0  0  2  0  0  0  0  0  0  0  0  0
   -0.1910   56.6710   76.5720 C   0  0  0  0  0  0  0  0  0  0  0  0
    0.8900   57.1310   72.9870 F   0  0  0  0  0  0  0  0  0  0  0  0
    3.1950   62.4580   69.9790 C   0  0  0  0  0  0  0  0  0  0  0  0
    3.7780   60.0690   70.4090 C   0  0  0  0  0  0  0  0  0  0  0  0
    1.0670   62.9570   72.8190 C   0  0  0  0  0  0  0  0  0  0  0  0
    1.3490   63.8220   73.6550 O   0  0  0  0  0  0  0  0  0  0  0  0
    0.3840   64.6040   70.7510 Cl  0  0  0  0  0  0  0  0  0  0  0  0
    0.0190   63.1790   71.7440 C   0  0  0  0  0  0  0  0  0  0  0  0
   -1.1430   59.0560   75.2710 O   0  0  0  0  0  0  0  0  0  0  0  0
    3.5113   62.4226   74.0034 H   0  0  0  0  0  0  0  0  0  0  0  0
    4.3870   59.7465   73.5624 H   0  0  0  0  0  0  0  0  0  0  0  0
    3.7733   60.3952   75.0787 H   0  0  0  0  0  0  0  0  0  0  0  0
    2.3414   58.8881   72.8743 H   0  0  0  0  0  0  0  0  0  0  0  0
    1.1618   60.4894   75.9556 H   0  0  0  0  0  0  0  0  0  0  0  0
    1.4758   62.1148   75.2584 H   0  0  0  0  0  0  0  0  0  0  0  0
   -0.1906   61.4441   75.2584 H   0  0  0  0  0  0  0  0  0  0  0  0
   -0.9604   60.6050   73.2556 H   0  0  0  0  0  0  0  0  0  0  0  0
    0.0803   59.5390   72.2046 H   0  0  0  0  0  0  0  0  0  0  0  0
   -1.3056   58.0732   73.4600 H   0  0  0  0  0  0  0  0  0  0  0  0
    1.7946   58.6668   75.7669 H   0  0  0  0  0  0  0  0  0  0  0  0
    3.2571   56.9432   73.7094 H   0  0  0  0  0  0  0  0  0  0  0  0
    3.9690   57.7786   75.1536 H   0  0  0  0  0  0  0  0  0  0  0  0
    3.5816   55.3361   75.4978 H   0  0  0  0  0  0  0  0  0  0  0  0
    2.6807   56.4147   76.6505 H   0  0  0  0  0  0  0  0  0  0  0  0
    2.3574   53.5047   75.0533 H   0  0  0  0  0  0  0  0  0  0  0  0
   -1.9183   53.6699   74.3193 H   0  0  0  0  0  0  0  0  0  0  0  0
   -1.4377   54.1921   75.9772 H   0  0  0  0  0  0  0  0  0  0  0  0
   -0.7154   55.5387   73.3401 H   0  0  0  0  0  0  0  0  0  0  0  0
   -1.8538   56.1343   74.6419 H   0  0  0  0  0  0  0  0  0  0  0  0
    0.4688   56.1487   77.2805 H   0  0  0  0  0  0  0  0  0  0  0  0
   -0.1154   57.7566   76.7325 H   0  0  0  0  0  0  0  0  0  0  0  0
   -1.2302   56.3482   76.7325 H   0  0  0  0  0  0  0  0  0  0  0  0
    3.1748   63.4354   70.4833 H   0  0  0  0  0  0  0  0  0  0  0  0
    4.0948   62.3885   69.3501 H   0  0  0  0  0  0  0  0  0  0  0  0
    2.2989   62.3513   69.3501 H   0  0  0  0  0  0  0  0  0  0  0  0
    4.0805   59.3786   71.2101 H   0  0  0  0  0  0  0  0  0  0  0  0
    3.0061   59.5928   69.7866 H   0  0  0  0  0  0  0  0  0  0  0  0
    4.6514   60.3137   69.7866 H   0  0  0  0  0  0  0  0  0  0  0  0
   -0.9598   63.3217   72.2252 H   0  0  0  0  0  0  0  0  0  0  0  0
    0.0119   62.2971   71.0865 H   0  0  0  0  0  0  0  0  0  0  0  0
   -0.6286   58.6814   76.0294 H   0  0  0  0  0  0  0  0  0  0  0  0
  2  1  1  0
  3  2  1  0
  4  3  1  0
  5  1  1  0
  5  4  1  0
  6  5  1  0
  7  6  1  0
  8  7  1  0
  8  1  1  0
  8  9  1  1
 10  8  1  0
 11 10  1  0
 12 11  1  0
 13  7  1  0
 13 12  1  0
 14 13  1  0
 15 14  1  0
 16 15  1  0
 17 16  2  0
 18 17  1  0
 19 18  2  0
 20 18  1  0
 21 20  1  0
 22 21  1  0
 22 16  1  0
 22 12  1  0
 22 23  1  1
 12 24  1  6
 25  3  1  0
 26  3  1  0
  1 27  1  6
 28 27  2  0
 30 29  1  0
 30 27  1  0
 31 11  1  0
  5 32  1  1
  6 33  1  0
  6 34  1  0
  7 35  1  6
  9 36  1  0
  9 37  1  0
  9 38  1  0
 10 39  1  0
 10 40  1  0
 11 41  1  6
 13 42  1  1
 14 43  1  0
 14 44  1  0
 15 45  1  0
 15 46  1  0
 17 47  1  0
 20 48  1  0
 20 49  1  0
 21 50  1  0
 21 51  1  0
 23 52  1  0
 23 53  1  0
 23 54  1  0
 25 55  1  0
 25 56  1  0
 25 57  1  0
 26 58  1  0
 26 59  1  0
 26 60  1  0
 30 61  1  0
 30 62  1  0
 31 63  1  0
M  END
>  <score>  (5) 
-8.133

$$$$
=
     RDKit          3D

 63 67  0  0  0  0  0  0  0  0999 V2000
    2.3430   60.4540   72.7630 C   0  0  2  0  0  0  0  0  0  0  0  0
    1.9450   59.4510   71.8160 O   0  0  0  0  0  0  0  0  0  0  0  0
    2.8550   58.3570   71.9490 C   0  0  0  0  0  0  0  0  0  0  0  0
    3.6670   58.5390   73.1140 O   0  0  0  0  0  0  0  0  0  0  0  0
    3.1500   59.6710   73.8040 C   0  0  2  0  0  0  0  0  0  0  0  0
    2.1740   59.2710   74.9330 C   0  0  0  0  0  0  0  0  0  0  0  0
    0.8040   59.7200   74.4260 C   0  0  2  0  0  0  0  0  0  0  0  0
    1.1160   60.9740   73.5770 C   0  0  1  0  0  0  0  0  0  0  0  0
    1.5460   62.1990   74.4310 C   0  0  0  0  0  0  0  0  0  0  0  0
   -0.1530   61.2870   72.7580 C   0  0  0  0  0  0  0  0  0  0  0  0
   -1.4110   61.4730   73.6370 C   0  0  1  0  0  0  0  0  0  0  0  0
   -1.6360   60.3050   74.6510 C   0  0  1  0  0  0  0  0  0  0  0  0
   -0.3380   59.9300   75.4320 C   0  0  1  0  0  0  0  0  0  0  0  0
   -0.5640   58.6540   76.2600 C   0  0  0  0  0  0  0  0  0  0  0  0
   -1.7340   58.8050   77.2240 C   0  0  0  0  0  0  0  0  0  0  0  0
   -3.0010   59.2360   76.5250 C   0  0  0  0  0  0  0  0  0  0  0  0
   -4.1470   58.5710   76.7510 C   0  0  0  0  0  0  0  0  0  0  0  0
   -5.4410   59.0390   76.2030 C   0  0  0  0  0  0  0  0  0  0  0  0
   -6.4600   58.3860   76.4120 O   0  0  0  0  0  0  0  0  0  0  0  0
   -5.4670   60.3650   75.4890 C   0  0  0  0  0  0  0  0  0  0  0  0
   -4.1700   60.5810   74.7220 C   0  0  0  0  0  0  0  0  0  0  0  0
   -2.8910   60.4670   75.6050 C   0  0  2  0  0  0  0  0  0  0  0  0
   -2.8090   61.7050   76.5280 C   0  0  0  0  0  0  0  0  0  0  0  0
   -1.9090   59.2000   73.8540 F   0  0  0  0  0  0  0  0  0  0  0  0
    3.7560   58.3040   70.7190 C   0  0  0  0  0  0  0  0  0  0  0  0
    2.0710   57.0550   72.0740 C   0  0  0  0  0  0  0  0  0  0  0  0
    3.0820   61.5800   72.0050 C   0  0  0  0  0  0  0  0  0  0  0  0
    2.5010   62.2050   71.1120 O   0  0  0  0  0  0  0  0  0  0  0  0
    5.6890   61.0960   71.3520 Cl  0  0  0  0  0  0  0  0  0  0  0  0
    4.5100   61.8900   72.4150 C   0  0  0  0  0  0  0  0  0  0  0  0
   -1.3440   62.7440   74.2780 O   0  0  0  0  0  0  0  0  0  0  0  0
    3.9781   60.2370   74.2556 H   0  0  0  0  0  0  0  0  0  0  0  0
    2.1917   58.1833   75.0959 H   0  0  0  0  0  0  0  0  0  0  0  0
    2.4362   59.7309   75.8972 H   0  0  0  0  0  0  0  0  0  0  0  0
    0.3517   58.8866   73.8685 H   0  0  0  0  0  0  0  0  0  0  0  0
    1.4587   61.9503   75.4989 H   0  0  0  0  0  0  0  0  0  0  0  0
    2.5893   62.4595   74.1993 H   0  0  0  0  0  0  0  0  0  0  0  0
    0.8944   63.0544   74.1993 H   0  0  0  0  0  0  0  0  0  0  0  0
    0.0169   62.2131   72.1893 H   0  0  0  0  0  0  0  0  0  0  0  0
   -0.3381   60.4267   72.0980 H   0  0  0  0  0  0  0  0  0  0  0  0
   -2.2952   61.4430   72.9833 H   0  0  0  0  0  0  0  0  0  0  0  0
   -0.0742   60.7439   76.1234 H   0  0  0  0  0  0  0  0  0  0  0  0
   -0.7718   57.8179   75.5761 H   0  0  0  0  0  0  0  0  0  0  0  0
    0.3440   58.4648   76.8513 H   0  0  0  0  0  0  0  0  0  0  0  0
   -1.9133   57.8380   77.7167 H   0  0  0  0  0  0  0  0  0  0  0  0
   -1.4703   59.5850   77.9534 H   0  0  0  0  0  0  0  0  0  0  0  0
   -4.1232   57.6547   77.3592 H   0  0  0  0  0  0  0  0  0  0  0  0
   -6.3115   60.3806   74.7844 H   0  0  0  0  0  0  0  0  0  0  0  0
   -5.5796   61.1680   76.2323 H   0  0  0  0  0  0  0  0  0  0  0  0
   -4.1091   59.8262   73.9241 H   0  0  0  0  0  0  0  0  0  0  0  0
   -4.1975   61.6079   74.3287 H   0  0  0  0  0  0  0  0  0  0  0  0
   -2.8305   61.3809   77.5789 H   0  0  0  0  0  0  0  0  0  0  0  0
   -1.8729   62.2480   76.3308 H   0  0  0  0  0  0  0  0  0  0  0  0
   -3.6653   62.3667   76.3308 H   0  0  0  0  0  0  0  0  0  0  0  0
    4.8072   58.2422   71.0369 H   0  0  0  0  0  0  0  0  0  0  0  0
    3.5025   57.4192   70.1166 H   0  0  0  0  0  0  0  0  0  0  0  0
    3.6079   59.2124   70.1166 H   0  0  0  0  0  0  0  0  0  0  0  0
    1.9263   56.8148   73.1377 H   0  0  0  0  0  0  0  0  0  0  0  0
    1.0911   57.1688   71.5873 H   0  0  0  0  0  0  0  0  0  0  0  0
    2.6300   56.2422   71.5873 H   0  0  0  0  0  0  0  0  0  0  0  0
    4.6682   61.5404   73.4459 H   0  0  0  0  0  0  0  0  0  0  0  0
    4.6590   62.9772   72.3386 H   0  0  0  0  0  0  0  0  0  0  0  0
   -1.3506   62.6191   75.2601 H   0  0  0  0  0  0  0  0  0  0  0  0
  2  1  1  0
  3  2  1  0
  4  3  1  0
  5  1  1  0
  5  4  1  0
  6  5  1  0
  7  6  1  0
  8  7  1  0
  8  1  1  0
  8  9  1  1
 10  8  1  0
 11 10  1  0
 12 11  1  0
 13  7  1  0
 13 12  1  0
 14 13  1  0
 15 14  1  0
 16 15  1  0
 17 16  2  0
 18 17  1  0
 19 18  2  0
 20 18  1  0
 21 20  1  0
 22 21  1  0
 22 16  1  0
 22 12  1  0
 22 23  1  1
 12 24  1  6
 25  3  1  0
 26  3  1  0
  1 27  1  6
 28 27  2  0
 30 29  1  0
 30 27  1  0
 31 11  1  0
  5 32  1  1
  6 33  1  0
  6 34  1  0
  7 35  1  6
  9 36  1  0
  9 37  1  0
  9 38  1  0
 10 39  1  0
 10 40  1  0
 11 41  1  6
 13 42  1  1
 14 43  1  0
 14 44  1  0
 15 45  1  0
 15 46  1  0
 17 47  1  0
 20 48  1  0
 20 49  1  0
 21 50  1  0
 21 51  1  0
 23 52  1  0
 23 53  1  0
 23 54  1  0
 25 55  1  0
 25 56  1  0
 25 57  1  0
 26 58  1  0
 26 59  1  0
 26 60  1  0
 30 61  1  0
 30 62  1  0
 31 63  1  0
M  END
>  <score>  (6) 
-7.526

$$$$
=
     RDKit          3D

 63 67  0  0  0  0  0  0  0  0999 V2000
   -1.0330   56.8970   76.4970 C   0  0  2  0  0  0  0  0  0  0  0  0
    0.0600   56.4870   77.3320 O   0  0  0  0  0  0  0  0  0  0  0  0
    0.0930   55.0570   77.3170 C   0  0  0  0  0  0  0  0  0  0  0  0
   -0.7960   54.5620   76.3100 O   0  0  0  0  0  0  0  0  0  0  0  0
   -1.2640   55.6910   75.5810 C   0  0  2  0  0  0  0  0  0  0  0  0
   -0.4460   55.9330   74.2920 C   0  0  0  0  0  0  0  0  0  0  0  0
    0.3410   57.2120   74.5780 C   0  0  2  0  0  0  0  0  0  0  0  0
   -0.5920   58.0210   75.5070 C   0  0  1  0  0  0  0  0  0  0  0  0
   -1.8420   58.5850   74.7780 C   0  0  0  0  0  0  0  0  0  0  0  0
    0.2560   59.1580   76.1130 C   0  0  0  0  0  0  0  0  0  0  0  0
    0.9310   60.0460   75.0430 C   0  0  1  0  0  0  0  0  0  0  0  0
    1.7200   59.2300   73.9680 C   0  0  1  0  0  0  0  0  0  0  0  0
    0.8970   58.0310   73.4030 C   0  0  1  0  0  0  0  0  0  0  0  0
    1.7850   57.1500   72.5080 C   0  0  0  0  0  0  0  0  0  0  0  0
    2.4050   57.9470   71.3680 C   0  0  0  0  0  0  0  0  0  0  0  0
    3.1570   59.1610   71.8600 C   0  0  0  0  0  0  0  0  0  0  0  0
    4.4070   59.3930   71.4240 C   0  0  0  0  0  0  0  0  0  0  0  0
    5.1320   60.6400   71.7640 C   0  0  0  0  0  0  0  0  0  0  0  0
    6.2830   60.7990   71.3660 O   0  0  0  0  0  0  0  0  0  0  0  0
    4.3800   61.7130   72.5060 C   0  0  0  0  0  0  0  0  0  0  0  0
    3.3940   61.0910   73.4850 C   0  0  0  0  0  0  0  0  0  0  0  0
    2.3980   60.0920   72.8240 C   0  0  2  0  0  0  0  0  0  0  0  0
    1.3850   60.8880   71.9690 C   0  0  0  0  0  0  0  0  0  0  0  0
    2.7670   58.6490   74.6720 F   0  0  0  0  0  0  0  0  0  0  0  0
   -0.3560   54.5330   78.6780 C   0  0  0  0  0  0  0  0  0  0  0  0
    1.5110   54.5840   77.0210 C   0  0  0  0  0  0  0  0  0  0  0  0
   -2.2100   57.3230   77.4040 C   0  0  0  0  0  0  0  0  0  0  0  0
   -3.3400   56.8670   77.2020 O   0  0  0  0  0  0  0  0  0  0  0  0
   -2.7390   59.8420   78.3170 Cl  0  0  0  0  0  0  0  0  0  0  0  0
   -1.9140   58.2860   78.5400 C   0  0  0  0  0  0  0  0  0  0  0  0
   -0.0510   60.9010   74.4640 O   0  0  0  0  0  0  0  0  0  0  0  0
   -2.3141   55.5344   75.2934 H   0  0  0  0  0  0  0  0  0  0  0  0
    0.2353   55.0912   74.0992 H   0  0  0  0  0  0  0  0  0  0  0  0
   -1.0839   56.0228   73.4003 H   0  0  0  0  0  0  0  0  0  0  0  0
    1.3060   56.9315   75.0253 H   0  0  0  0  0  0  0  0  0  0  0  0
   -2.5808   58.9184   75.5216 H   0  0  0  0  0  0  0  0  0  0  0  0
   -1.5459   59.4367   74.1480 H   0  0  0  0  0  0  0  0  0  0  0  0
   -2.2846   57.7994   74.1480 H   0  0  0  0  0  0  0  0  0  0  0  0
   -0.3973   59.7906   76.7318 H   0  0  0  0  0  0  0  0  0  0  0  0
    1.0568   58.6908   76.7049 H   0  0  0  0  0  0  0  0  0  0  0  0
    1.6980   60.6590   75.5390 H   0  0  0  0  0  0  0  0  0  0  0  0
    0.0641   58.4092   72.7920 H   0  0  0  0  0  0  0  0  0  0  0  0
    2.5906   56.7183   73.1201 H   0  0  0  0  0  0  0  0  0  0  0  0
    1.1549   56.3613   72.0711 H   0  0  0  0  0  0  0  0  0  0  0  0
    3.1028   57.2966   70.8203 H   0  0  0  0  0  0  0  0  0  0  0  0
    1.5886   58.2970   70.7191 H   0  0  0  0  0  0  0  0  0  0  0  0
    4.9049   58.6375   70.7984 H   0  0  0  0  0  0  0  0  0  0  0  0
    5.0947   62.3390   73.0603 H   0  0  0  0  0  0  0  0  0  0  0  0
    3.8240   62.3251   71.7806 H   0  0  0  0  0  0  0  0  0  0  0  0
    3.9640   60.5530   74.2568 H   0  0  0  0  0  0  0  0  0  0  0  0
    2.7940   61.9134   73.9018 H   0  0  0  0  0  0  0  0  0  0  0  0
    0.6939   61.4311   72.6304 H   0  0  0  0  0  0  0  0  0  0  0  0
    1.9252   61.6058   71.3342 H   0  0  0  0  0  0  0  0  0  0  0  0
    0.8153   60.1934   71.3342 H   0  0  0  0  0  0  0  0  0  0  0  0
    0.1380   55.1095   79.4740 H   0  0  0  0  0  0  0  0  0  0  0  0
   -1.4468   54.6403   78.7705 H   0  0  0  0  0  0  0  0  0  0  0  0
   -0.0828   53.4715   78.7705 H   0  0  0  0  0  0  0  0  0  0  0  0
    2.0433   54.4064   77.9671 H   0  0  0  0  0  0  0  0  0  0  0  0
    1.4725   53.6501   76.4411 H   0  0  0  0  0  0  0  0  0  0  0  0
    2.0409   55.3541   76.4411 H   0  0  0  0  0  0  0  0  0  0  0  0
   -0.8290   58.4614   78.5845 H   0  0  0  0  0  0  0  0  0  0  0  0
   -2.2803   57.8356   79.4743 H   0  0  0  0  0  0  0  0  0  0  0  0
   -0.5644   61.3480   75.1828 H   0  0  0  0  0  0  0  0  0  0  0  0
  2  1  1  0
  3  2  1  0
  4  3  1  0
  5  1  1  0
  5  4  1  0
  6  5  1  0
  7  6  1  0
  8  7  1  0
  8  1  1  0
  8  9  1  6
 10  8  1  0
 11 10  1  0
 12 11  1  0
 13  7  1  0
 13 12  1  0
 14 13  1  0
 15 14  1  0
 16 15  1  0
 17 16  2  0
 18 17  1  0
 19 18  2  0
 20 18  1  0
 21 20  1  0
 22 21  1  0
 22 16  1  0
 22 12  1  0
 22 23  1  6
 12 24  1  1
 25  3  1  0
 26  3  1  0
  1 27  1  1
 28 27  2  0
 30 29  1  0
 30 27  1  0
 31 11  1  0
  5 32  1  6
  6 33  1  0
  6 34  1  0
  7 35  1  1
  9 36  1  0
  9 37  1  0
  9 38  1  0
 10 39  1  0
 10 40  1  0
 11 41  1  1
 13 42  1  6
 14 43  1  0
 14 44  1  0
 15 45  1  0
 15 46  1  0
 17 47  1  0
 20 48  1  0
 20 49  1  0
 21 50  1  0
 21 51  1  0
 23 52  1  0
 23 53  1  0
 23 54  1  0
 25 55  1  0
 25 56  1  0
 25 57  1  0
 26 58  1  0
 26 59  1  0
 26 60  1  0
 30 61  1  0
 30 62  1  0
 31 63  1  0
M  END
>  <score>  (7) 
-7.024

$$$$
=
     RDKit          3D

 63 67  0  0  0  0  0  0  0  0999 V2000
   -1.9300   60.5110   76.0410 C   0  0  2  0  0  0  0  0  0  0  0  0
   -1.0390   60.4680   77.1660 O   0  0  0  0  0  0  0  0  0  0  0  0
   -1.2550   59.2200   77.8300 C   0  0  0  0  0  0  0  0  0  0  0  0
   -2.0820   58.3770   77.0220 O   0  0  0  0  0  0  0  0  0  0  0  0
   -2.2500   59.0380   75.7730 C   0  0  2  0  0  0  0  0  0  0  0  0
   -1.2460   58.5370   74.7100 C   0  0  0  0  0  0  0  0  0  0  0  0
   -0.2900   59.7140   74.5090 C   0  0  2  0  0  0  0  0  0  0  0  0
   -1.1770   60.9570   74.7470 C   0  0  1  0  0  0  0  0  0  0  0  0
   -2.2070   61.1990   73.6100 C   0  0  0  0  0  0  0  0  0  0  0  0
   -0.2260   62.1620   74.9000 C   0  0  0  0  0  0  0  0  0  0  0  0
    0.7230   62.3420   73.6940 C   0  0  1  0  0  0  0  0  0  0  0  0
    1.4870   61.0350   73.3060 C   0  0  1  0  0  0  0  0  0  0  0  0
    0.5440   59.7930   73.2210 C   0  0  1  0  0  0  0  0  0  0  0  0
    1.3700   58.5090   73.0370 C   0  0  0  0  0  0  0  0  0  0  0  0
    2.2600   58.5800   71.8030 C   0  0  0  0  0  0  0  0  0  0  0  0
    3.1440   59.8050   71.8040 C   0  0  0  0  0  0  0  0  0  0  0  0
    4.4610   59.6770   71.5640 C   0  0  0  0  0  0  0  0  0  0  0  0
    5.3430   60.8580   71.4130 C   0  0  0  0  0  0  0  0  0  0  0  0
    6.5450   60.6940   71.2210 O   0  0  0  0  0  0  0  0  0  0  0  0
    4.7030   62.2210   71.4010 C   0  0  0  0  0  0  0  0  0  0  0  0
    3.5080   62.2540   72.3430 C   0  0  0  0  0  0  0  0  0  0  0  0
    2.4430   61.1550   72.0490 C   0  0  2  0  0  0  0  0  0  0  0  0
    1.7020   61.5150   70.7410 C   0  0  0  0  0  0  0  0  0  0  0  0
    2.3180   60.7820   74.3900 F   0  0  0  0  0  0  0  0  0  0  0  0
   -1.9570   59.4780   79.1600 C   0  0  0  0  0  0  0  0  0  0  0  0
    0.0850   58.5360   78.0750 C   0  0  0  0  0  0  0  0  0  0  0  0
   -3.1190   61.4350   76.3910 C   0  0  0  0  0  0  0  0  0  0  0  0
   -2.9200   62.6290   76.6360 O   0  0  0  0  0  0  0  0  0  0  0  0
   -5.4820   61.3890   75.0240 Cl  0  0  0  0  0  0  0  0  0  0  0  0
   -4.5090   60.8250   76.3970 C   0  0  0  0  0  0  0  0  0  0  0  0
   -0.0130   62.8860   72.6020 O   0  0  0  0  0  0  0  0  0  0  0  0
   -3.2664   58.8574   75.3932 H   0  0  0  0  0  0  0  0  0  0  0  0
   -0.7033   57.6518   75.0731 H   0  0  0  0  0  0  0  0  0  0  0  0
   -1.7401   58.2325   73.7756 H   0  0  0  0  0  0  0  0  0  0  0  0
    0.5470   59.6040   75.2143 H   0  0  0  0  0  0  0  0  0  0  0  0
   -3.1893   61.4298   74.0481 H   0  0  0  0  0  0  0  0  0  0  0  0
   -1.8752   62.0436   72.9883 H   0  0  0  0  0  0  0  0  0  0  0  0
   -2.2860   60.2950   72.9883 H   0  0  0  0  0  0  0  0  0  0  0  0
   -0.8312   63.0741   75.0084 H   0  0  0  0  0  0  0  0  0  0  0  0
    0.4000   61.9755   75.7851 H   0  0  0  0  0  0  0  0  0  0  0  0
    1.5160   63.0474   73.9833 H   0  0  0  0  0  0  0  0  0  0  0  0
   -0.1262   59.8951   72.3548 H   0  0  0  0  0  0  0  0  0  0  0  0
    2.0032   58.3629   73.9246 H   0  0  0  0  0  0  0  0  0  0  0  0
    0.6715   57.6693   72.9065 H   0  0  0  0  0  0  0  0  0  0  0  0
    2.8972   57.6838   71.7743 H   0  0  0  0  0  0  0  0  0  0  0  0
    1.6070   58.6367   70.9196 H   0  0  0  0  0  0  0  0  0  0  0  0
    4.8946   58.6698   71.4776 H   0  0  0  0  0  0  0  0  0  0  0  0
    5.4403   62.9705   71.7244 H   0  0  0  0  0  0  0  0  0  0  0  0
    4.3593   62.4450   70.3804 H   0  0  0  0  0  0  0  0  0  0  0  0
    3.8734   62.1162   73.3713 H   0  0  0  0  0  0  0  0  0  0  0  0
    3.0132   63.2257   72.1979 H   0  0  0  0  0  0  0  0  0  0  0  0
    0.7369   61.9839   70.9834 H   0  0  0  0  0  0  0  0  0  0  0  0
    2.3134   62.2165   70.1544 H   0  0  0  0  0  0  0  0  0  0  0  0
    1.5284   60.6008   70.1544 H   0  0  0  0  0  0  0  0  0  0  0  0
   -1.2772   59.2282   79.9879 H   0  0  0  0  0  0  0  0  0  0  0  0
   -2.2401   60.5389   79.2254 H   0  0  0  0  0  0  0  0  0  0  0  0
   -2.8598   58.8529   79.2254 H   0  0  0  0  0  0  0  0  0  0  0  0
    0.2589   58.4473   79.1575 H   0  0  0  0  0  0  0  0  0  0  0  0
    0.0732   57.5336   77.6221 H   0  0  0  0  0  0  0  0  0  0  0  0
    0.8899   59.1335   77.6221 H   0  0  0  0  0  0  0  0  0  0  0  0
   -5.0166   61.1047   77.3319 H   0  0  0  0  0  0  0  0  0  0  0  0
   -4.4036   59.7331   76.3159 H   0  0  0  0  0  0  0  0  0  0  0  0
   -0.7587   63.4372   72.9486 H   0  0  0  0  0  0  0  0  0  0  0  0
  2  1  1  0
  3  2  1  0
  4  3  1  0
  5  1  1  0
  5  4  1  0
  6  5  1  0
  7  6  1  0
  8  7  1  0
  8  1  1  0
  8  9  1  6
 10  8  1  0
 11 10  1  0
 12 11  1  0
 13  7  1  0
 13 12  1  0
 14 13  1  0
 15 14  1  0
 16 15  1  0
 17 16  2  0
 18 17  1  0
 19 18  2  0
 20 18  1  0
 21 20  1  0
 22 21  1  0
 22 16  1  0
 22 12  1  0
 22 23  1  6
 12 24  1  1
 25  3  1  0
 26  3  1  0
  1 27  1  1
 28 27  2  0
 30 29  1  0
 30 27  1  0
 31 11  1  0
  5 32  1  6
  6 33  1  0
  6 34  1  0
  7 35  1  1
  9 36  1  0
  9 37  1  0
  9 38  1  0
 10 39  1  0
 10 40  1  0
 11 41  1  1
 13 42  1  6
 14 43  1  0
 14 44  1  0
 15 45  1  0
 15 46  1  0
 17 47  1  0
 20 48  1  0
 20 49  1  0
 21 50  1  0
 21 51  1  0
 23 52  1  0
 23 53  1  0
 23 54  1  0
 25 55  1  0
 25 56  1  0
 25 57  1  0
 26 58  1  0
 26 59  1  0
 26 60  1  0
 30 61  1  0
 30 62  1  0
 31 63  1  0
M  END
>  <score>  (8) 
-6.988

$$$$
=
     RDKit          3D

 63 67  0  0  0  0  0  0  0  0999 V2000
   -2.5040   59.0340   76.7640 C   0  0  2  0  0  0  0  0  0  0  0  0
   -3.4400   58.9930   75.6770 O   0  0  0  0  0  0  0  0  0  0  0  0
   -4.2510   60.1670   75.7700 C   0  0  0  0  0  0  0  0  0  0  0  0
   -3.6980   61.0620   76.7400 O   0  0  0  0  0  0  0  0  0  0  0  0
   -2.4450   60.5180   77.1370 C   0  0  2  0  0  0  0  0  0  0  0  0
   -1.2650   61.1400   76.3560 C   0  0  0  0  0  0  0  0  0  0  0  0
   -0.7760   60.0110   75.4480 C   0  0  2  0  0  0  0  0  0  0  0  0
   -1.0550   58.7300   76.2670 C   0  0  1  0  0  0  0  0  0  0  0  0
   -0.1130   58.5710   77.4920 C   0  0  0  0  0  0  0  0  0  0  0  0
   -0.9090   57.5390   75.2970 C   0  0  0  0  0  0  0  0  0  0  0  0
    0.4660   57.4960   74.5930 C   0  0  1  0  0  0  0  0  0  0  0  0
    0.8620   58.8520   73.9240 C   0  0  1  0  0  0  0  0  0  0  0  0
    0.6470   60.0730   74.8720 C   0  0  1  0  0  0  0  0  0  0  0  0
    0.8580   61.3880   74.1030 C   0  0  0  0  0  0  0  0  0  0  0  0
    2.2380   61.4550   73.4630 C   0  0  0  0  0  0  0  0  0  0  0  0
    2.5220   60.2570   72.5880 C   0  0  0  0  0  0  0  0  0  0  0  0
    2.9910   60.4380   71.3410 C   0  0  0  0  0  0  0  0  0  0  0  0
    3.4200   59.2990   70.4970 C   0  0  0  0  0  0  0  0  0  0  0  0
    3.8170   59.5080   69.3540 O   0  0  0  0  0  0  0  0  0  0  0  0
    3.4420   57.9280   71.1200 C   0  0  0  0  0  0  0  0  0  0  0  0
    2.3000   57.7770   72.1140 C   0  0  0  0  0  0  0  0  0  0  0  0
    2.2820   58.8740   73.2220 C   0  0  2  0  0  0  0  0  0  0  0  0
    3.4560   58.6210   74.1950 C   0  0  0  0  0  0  0  0  0  0  0  0
   -0.0660   59.0210   72.9040 F   0  0  0  0  0  0  0  0  0  0  0  0
   -5.6580   59.7680   76.2060 C   0  0  0  0  0  0  0  0  0  0  0  0
   -4.3050   60.8570   74.4120 C   0  0  0  0  0  0  0  0  0  0  0  0
   -2.9800   58.0530   77.8600 C   0  0  0  0  0  0  0  0  0  0  0  0
   -2.9460   58.3920   79.0470 O   0  0  0  0  0  0  0  0  0  0  0  0
   -5.2220   56.4950   77.8050 Cl  0  0  0  0  0  0  0  0  0  0  0  0
   -3.5020   56.6980   77.4170 C   0  0  0  0  0  0  0  0  0  0  0  0
    1.4470   57.0390   75.5190 O   0  0  0  0  0  0  0  0  0  0  0  0
   -2.2825   60.7100   78.2079 H   0  0  0  0  0  0  0  0  0  0  0  0
   -1.6027   62.0008   75.7601 H   0  0  0  0  0  0  0  0  0  0  0  0
   -0.4738   61.5176   77.0204 H   0  0  0  0  0  0  0  0  0  0  0  0
   -1.3190   60.0747   74.4935 H   0  0  0  0  0  0  0  0  0  0  0  0
   -0.6971   58.6696   78.4189 H   0  0  0  0  0  0  0  0  0  0  0  0
    0.3631   57.5798   77.4623 H   0  0  0  0  0  0  0  0  0  0  0  0
    0.6620   59.3510   77.4623 H   0  0  0  0  0  0  0  0  0  0  0  0
   -1.0407   56.6064   75.8653 H   0  0  0  0  0  0  0  0  0  0  0  0
   -1.6742   57.6565   74.5156 H   0  0  0  0  0  0  0  0  0  0  0  0
    0.4013   56.7859   73.7554 H   0  0  0  0  0  0  0  0  0  0  0  0
    1.3774   60.0367   75.6937 H   0  0  0  0  0  0  0  0  0  0  0  0
    0.0956   61.4649   73.3138 H   0  0  0  0  0  0  0  0  0  0  0  0
    0.7727   62.2193   74.8183 H   0  0  0  0  0  0  0  0  0  0  0  0
    2.2990   62.3649   72.8479 H   0  0  0  0  0  0  0  0  0  0  0  0
    2.9840   61.4662   74.2713 H   0  0  0  0  0  0  0  0  0  0  0  0
    3.0579   61.4589   70.9370 H   0  0  0  0  0  0  0  0  0  0  0  0
    3.3373   57.1696   70.3302 H   0  0  0  0  0  0  0  0  0  0  0  0
    4.3961   57.7932   71.6505 H   0  0  0  0  0  0  0  0  0  0  0  0
    1.3502   57.8264   71.5614 H   0  0  0  0  0  0  0  0  0  0  0  0
    2.4418   56.8112   72.6211 H   0  0  0  0  0  0  0  0  0  0  0  0
    3.0963   58.6985   75.2316 H   0  0  0  0  0  0  0  0  0  0  0  0
    3.8644   57.6142   74.0229 H   0  0  0  0  0  0  0  0  0  0  0  0
    4.2428   59.3702   74.0229 H   0  0  0  0  0  0  0  0  0  0  0  0
   -5.7110   59.7530   77.3046 H   0  0  0  0  0  0  0  0  0  0  0  0
   -6.3836   60.4958   75.8138 H   0  0  0  0  0  0  0  0  0  0  0  0
   -5.8935   58.7676   75.8138 H   0  0  0  0  0  0  0  0  0  0  0  0
   -4.3901   61.9442   74.5562 H   0  0  0  0  0  0  0  0  0  0  0  0
   -3.3865   60.6325   73.8499 H   0  0  0  0  0  0  0  0  0  0  0  0
   -5.1774   60.4923   73.8499 H   0  0  0  0  0  0  0  0  0  0  0  0
   -2.9268   55.9109   77.9266 H   0  0  0  0  0  0  0  0  0  0  0  0
   -3.3873   56.6278   76.3253 H   0  0  0  0  0  0  0  0  0  0  0  0
    1.1242   57.1894   76.4427 H   0  0  0  0  0  0  0  0  0  0  0  0
  2  1  1  0
  3  2  1  0
  4  3  1  0
  5  1  1  0
  5  4  1  0
  6  5  1  0
  7  6  1  0
  8  7  1  0
  8  1  1  0
  8  9  1  1
 10  8  1  0
 11 10  1  0
 12 11  1  0
 13  7  1  0
 13 12  1  0
 14 13  1  0
 15 14  1  0
 16 15  1  0
 17 16  2  0
 18 17  1  0
 19 18  2  0
 20 18  1  0
 21 20  1  0
 22 21  1  0
 22 16  1  0
 22 12  1  0
 22 23  1  1
 12 24  1  6
 25  3  1  0
 26  3  1  0
  1 27  1  1
 28 27  2  0
 30 29  1  0
 30 27  1  0
 31 11  1  0
  5 32  1  1
  6 33  1  0
  6 34  1  0
  7 35  1  6
  9 36  1  0
  9 37  1  0
  9 38  1  0
 10 39  1  0
 10 40  1  0
 11 41  1  6
 13 42  1  1
 14 43  1  0
 14 44  1  0
 15 45  1  0
 15 46  1  0
 17 47  1  0
 20 48  1  0
 20 49  1  0
 21 50  1  0
 21 51  1  0
 23 52  1  0
 23 53  1  0
 23 54  1  0
 25 55  1  0
 25 56  1  0
 25 57  1  0
 26 58  1  0
 26 59  1  0
 26 60  1  0
 30 61  1  0
 30 62  1  0
 31 63  1  0
M  END
>  <score>  (9) 
-6.557

$$$$
