=
     RDKit          3D

 24 23  0  0  0  0  0  0  0  0999 V2000
    4.1210   69.5650   66.1540 C   0  0  0  0  0  0  0  0  0  0  0  0
    2.9680   69.1560   66.1480 O   0  0  0  0  0  0  0  0  0  0  0  0
    4.7160   70.0820   67.4580 C   0  0  0  0  0  0  0  0  0  0  0  0
    3.9750   70.2890   68.4100 O   0  0  0  0  0  0  0  0  0  0  0  0
    6.2130   70.3020   67.4630 C   0  0  0  0  0  0  0  0  0  0  0  0
    6.6270   71.4000   68.4370 C   0  0  0  0  0  0  0  0  0  0  0  0
    7.5490   70.8660   69.5200 C   0  0  0  0  0  0  0  0  0  0  0  0
    5.0420   69.5840   64.9520 C   0  0  0  0  0  0  0  0  0  0  0  0
    5.2840   69.1400   62.4650 C   0  0  0  0  0  0  0  0  0  0  0  0
    4.4360   68.9290   63.7120 C   0  0  0  0  0  0  0  0  0  0  0  0
    6.7086   69.3641   67.7540 H   0  0  0  0  0  0  0  0  0  0  0  0
    6.5134   70.6144   66.4520 H   0  0  0  0  0  0  0  0  0  0  0  0
    7.1500   72.1922   67.8811 H   0  0  0  0  0  0  0  0  0  0  0  0
    5.7199   71.7931   68.9194 H   0  0  0  0  0  0  0  0  0  0  0  0
    7.1318   71.1076   70.5087 H   0  0  0  0  0  0  0  0  0  0  0  0
    7.6413   69.7747   69.4177 H   0  0  0  0  0  0  0  0  0  0  0  0
    8.5415   71.3291   69.4177 H   0  0  0  0  0  0  0  0  0  0  0  0
    5.2803   70.6307   64.7120 H   0  0  0  0  0  0  0  0  0  0  0  0
    5.9375   69.0043   65.2203 H   0  0  0  0  0  0  0  0  0  0  0  0
    6.3124   69.3959   62.7599 H   0  0  0  0  0  0  0  0  0  0  0  0
    5.2930   68.2167   61.8671 H   0  0  0  0  0  0  0  0  0  0  0  0
    4.8592   69.9598   61.8671 H   0  0  0  0  0  0  0  0  0  0  0  0
    3.4392   69.3601   63.5373 H   0  0  0  0  0  0  0  0  0  0  0  0
    4.3825   67.8464   63.8994 H   0  0  0  0  0  0  0  0  0  0  0  0
  2  1  2  0
  3  1  1  0
  4  3  2  0
  5  3  1  0
  6  5  1  0
  7  6  1  0
  8  1  1  0
 10  9  1  0
 10  8  1  0
  5 11  1  0
  5 12  1  0
  6 13  1  0
  6 14  1  0
  7 15  1  0
  7 16  1  0
  7 17  1  0
  8 18  1  0
  8 19  1  0
  9 20  1  0
  9 21  1  0
  9 22  1  0
 10 23  1  0
 10 24  1  0
M  END
>  <score>  (1) 
-5.732

$$$$
=
     RDKit          3D

 24 23  0  0  0  0  0  0  0  0999 V2000
    4.6710   69.9850   67.2610 C   0  0  0  0  0  0  0  0  0  0  0  0
    3.8380   70.1010   68.1500 O   0  0  0  0  0  0  0  0  0  0  0  0
    4.2170   69.5440   65.8760 C   0  0  0  0  0  0  0  0  0  0  0  0
    3.0370   69.2730   65.6940 O   0  0  0  0  0  0  0  0  0  0  0  0
    5.2940   69.4760   64.8160 C   0  0  0  0  0  0  0  0  0  0  0  0
    4.8950   68.5730   63.6510 C   0  0  0  0  0  0  0  0  0  0  0  0
    5.2610   69.1940   62.3140 C   0  0  0  0  0  0  0  0  0  0  0  0
    6.1500   70.2700   67.4150 C   0  0  0  0  0  0  0  0  0  0  0  0
    7.4970   70.8990   69.4710 C   0  0  0  0  0  0  0  0  0  0  0  0
    6.4570   71.3470   68.4530 C   0  0  0  0  0  0  0  0  0  0  0  0
    5.4787   70.4901   64.4320 H   0  0  0  0  0  0  0  0  0  0  0  0
    6.1988   69.0541   65.2780 H   0  0  0  0  0  0  0  0  0  0  0  0
    5.4152   67.6090   63.7516 H   0  0  0  0  0  0  0  0  0  0  0  0
    3.8041   68.4345   63.6799 H   0  0  0  0  0  0  0  0  0  0  0  0
    5.8129   70.1303   62.4834 H   0  0  0  0  0  0  0  0  0  0  0  0
    5.8914   68.4947   61.7452 H   0  0  0  0  0  0  0  0  0  0  0  0
    4.3438   69.4067   61.7452 H   0  0  0  0  0  0  0  0  0  0  0  0
    6.6542   69.3405   67.7179 H   0  0  0  0  0  0  0  0  0  0  0  0
    6.5108   70.6427   66.4450 H   0  0  0  0  0  0  0  0  0  0  0  0
    7.1107   71.0654   70.4874 H   0  0  0  0  0  0  0  0  0  0  0  0
    7.7105   69.8291   69.3305 H   0  0  0  0  0  0  0  0  0  0  0  0
    8.4211   71.4788   69.3305 H   0  0  0  0  0  0  0  0  0  0  0  0
    5.5279   71.5981   68.9856 H   0  0  0  0  0  0  0  0  0  0  0  0
    6.8663   72.2174   67.9192 H   0  0  0  0  0  0  0  0  0  0  0  0
  2  1  2  0
  3  1  1  0
  4  3  2  0
  5  3  1  0
  6  5  1  0
  7  6  1  0
  8  1  1  0
 10  9  1  0
 10  8  1  0
  5 11  1  0
  5 12  1  0
  6 13  1  0
  6 14  1  0
  7 15  1  0
  7 16  1  0
  7 17  1  0
  8 18  1  0
  8 19  1  0
  9 20  1  0
  9 21  1  0
  9 22  1  0
 10 23  1  0
 10 24  1  0
M  END
>  <score>  (2) 
-5.59

$$$$
=
     RDKit          3D

 24 23  0  0  0  0  0  0  0  0999 V2000
    3.3450   69.3580   66.3250 C   0  0  0  0  0  0  0  0  0  0  0  0
    2.8950   69.0830   65.2200 O   0  0  0  0  0  0  0  0  0  0  0  0
    4.8270   69.6820   66.4590 C   0  0  0  0  0  0  0  0  0  0  0  0
    5.5810   69.4210   65.5310 O   0  0  0  0  0  0  0  0  0  0  0  0
    5.2510   70.3170   67.7660 C   0  0  0  0  0  0  0  0  0  0  0  0
    6.7520   70.5880   67.8110 C   0  0  0  0  0  0  0  0  0  0  0  0
    7.2250   70.8700   69.2270 C   0  0  0  0  0  0  0  0  0  0  0  0
    2.5330   69.4270   67.6000 C   0  0  0  0  0  0  0  0  0  0  0  0
    1.0340   67.5640   68.4510 C   0  0  0  0  0  0  0  0  0  0  0  0
    1.1730   68.7390   67.4930 C   0  0  0  0  0  0  0  0  0  0  0  0
    4.7146   71.2695   67.8882 H   0  0  0  0  0  0  0  0  0  0  0  0
    5.0084   69.6159   68.5781 H   0  0  0  0  0  0  0  0  0  0  0  0
    7.2859   69.7073   67.4246 H   0  0  0  0  0  0  0  0  0  0  0  0
    6.9611   71.4746   67.1944 H   0  0  0  0  0  0  0  0  0  0  0  0
    6.5089   70.4431   69.9446 H   0  0  0  0  0  0  0  0  0  0  0  0
    8.2142   70.4141   69.3808 H   0  0  0  0  0  0  0  0  0  0  0  0
    7.2943   71.9570   69.3808 H   0  0  0  0  0  0  0  0  0  0  0  0
    3.1060   68.9429   68.4046 H   0  0  0  0  0  0  0  0  0  0  0  0
    2.3428   70.4907   67.8059 H   0  0  0  0  0  0  0  0  0  0  0  0
    1.0772   67.9291   69.4877 H   0  0  0  0  0  0  0  0  0  0  0  0
    0.0703   67.0625   68.2787 H   0  0  0  0  0  0  0  0  0  0  0  0
    1.8541   66.8514   68.2787 H   0  0  0  0  0  0  0  0  0  0  0  0
    1.0440   68.3718   66.4642 H   0  0  0  0  0  0  0  0  0  0  0  0
    0.4037   69.4787   67.7594 H   0  0  0  0  0  0  0  0  0  0  0  0
  2  1  2  0
  3  1  1  0
  4  3  2  0
  5  3  1  0
  6  5  1  0
  7  6  1  0
  8  1  1  0
 10  9  1  0
 10  8  1  0
  5 11  1  0
  5 12  1  0
  6 13  1  0
  6 14  1  0
  7 15  1  0
  7 16  1  0
  7 17  1  0
  8 18  1  0
  8 19  1  0
  9 20  1  0
  9 21  1  0
  9 22  1  0
 10 23  1  0
 10 24  1  0
M  END
>  <score>  (3) 
-5.321

$$$$
=
     RDKit          3D

 24 23  0  0  0  0  0  0  0  0999 V2000
    5.1350   69.8520   66.9310 C   0  0  0  0  0  0  0  0  0  0  0  0
    6.0690   69.5500   66.1990 O   0  0  0  0  0  0  0  0  0  0  0  0
    3.7160   69.5020   66.5010 C   0  0  0  0  0  0  0  0  0  0  0  0
    2.8110   69.5700   67.3220 O   0  0  0  0  0  0  0  0  0  0  0  0
    3.5450   69.0880   65.0560 C   0  0  0  0  0  0  0  0  0  0  0  0
    3.1210   67.6280   64.9250 C   0  0  0  0  0  0  0  0  0  0  0  0
    4.0620   66.8540   64.0170 C   0  0  0  0  0  0  0  0  0  0  0  0
    5.2710   70.5410   68.2720 C   0  0  0  0  0  0  0  0  0  0  0  0
    7.4830   70.8830   69.4670 C   0  0  0  0  0  0  0  0  0  0  0  0
    6.5320   71.3940   68.3930 C   0  0  0  0  0  0  0  0  0  0  0  0
    2.7759   69.7239   64.5932 H   0  0  0  0  0  0  0  0  0  0  0  0
    4.5156   69.2060   64.5520 H   0  0  0  0  0  0  0  0  0  0  0  0
    3.1245   67.1639   65.9223 H   0  0  0  0  0  0  0  0  0  0  0  0
    2.1140   67.5994   64.4832 H   0  0  0  0  0  0  0  0  0  0  0  0
    4.7677   66.2736   64.6295 H   0  0  0  0  0  0  0  0  0  0  0  0
    3.4792   66.1704   63.3821 H   0  0  0  0  0  0  0  0  0  0  0  0
    4.6203   67.5577   63.3821 H   0  0  0  0  0  0  0  0  0  0  0  0
    4.3957   71.1905   68.4202 H   0  0  0  0  0  0  0  0  0  0  0  0
    5.3391   69.7523   69.0358 H   0  0  0  0  0  0  0  0  0  0  0  0
    7.0677   71.1062   70.4608 H   0  0  0  0  0  0  0  0  0  0  0  0
    7.6090   69.7957   69.3580 H   0  0  0  0  0  0  0  0  0  0  0  0
    8.4593   71.3780   69.3580 H   0  0  0  0  0  0  0  0  0  0  0  0
    6.2381   72.4240   68.6436 H   0  0  0  0  0  0  0  0  0  0  0  0
    7.0606   71.3463   67.4295 H   0  0  0  0  0  0  0  0  0  0  0  0
  2  1  2  0
  3  1  1  0
  4  3  2  0
  5  3  1  0
  6  5  1  0
  7  6  1  0
  8  1  1  0
 10  9  1  0
 10  8  1  0
  5 11  1  0
  5 12  1  0
  6 13  1  0
  6 14  1  0
  7 15  1  0
  7 16  1  0
  7 17  1  0
  8 18  1  0
  8 19  1  0
  9 20  1  0
  9 21  1  0
  9 22  1  0
 10 23  1  0
 10 24  1  0
M  END
>  <score>  (4) 
-5.28

$$$$
=
     RDKit          3D

 24 23  0  0  0  0  0  0  0  0999 V2000
    3.7460   68.1870   63.7140 C   0  0  0  0  0  0  0  0  0  0  0  0
    2.6490   68.7220   63.6160 O   0  0  0  0  0  0  0  0  0  0  0  0
    4.0760   67.0090   62.8060 C   0  0  0  0  0  0  0  0  0  0  0  0
    3.9570   67.1380   61.5950 O   0  0  0  0  0  0  0  0  0  0  0  0
    4.5340   65.7450   63.5010 C   0  0  0  0  0  0  0  0  0  0  0  0
    3.4290   65.1270   64.3530 C   0  0  0  0  0  0  0  0  0  0  0  0
    3.8910   63.8400   65.0160 C   0  0  0  0  0  0  0  0  0  0  0  0
    4.8400   68.6170   64.6660 C   0  0  0  0  0  0  0  0  0  0  0  0
    5.4780   70.0270   66.6780 C   0  0  0  0  0  0  0  0  0  0  0  0
    4.3490   69.5410   65.7790 C   0  0  0  0  0  0  0  0  0  0  0  0
    4.8458   65.0146   62.7399 H   0  0  0  0  0  0  0  0  0  0  0  0
    5.3691   66.0077   64.1671 H   0  0  0  0  0  0  0  0  0  0  0  0
    3.1348   65.8451   65.1326 H   0  0  0  0  0  0  0  0  0  0  0  0
    2.5782   64.8911   63.6968 H   0  0  0  0  0  0  0  0  0  0  0  0
    3.8496   63.9553   66.1092 H   0  0  0  0  0  0  0  0  0  0  0  0
    3.2336   63.0131   64.7094 H   0  0  0  0  0  0  0  0  0  0  0  0
    4.9242   63.6200   64.7094 H   0  0  0  0  0  0  0  0  0  0  0  0
    5.2747   67.7175   65.1263 H   0  0  0  0  0  0  0  0  0  0  0  0
    5.5780   69.1820   64.0777 H   0  0  0  0  0  0  0  0  0  0  0  0
    5.1875   69.9019   67.7315 H   0  0  0  0  0  0  0  0  0  0  0  0
    6.3861   69.4401   66.4759 H   0  0  0  0  0  0  0  0  0  0  0  0
    5.6759   71.0900   66.4759 H   0  0  0  0  0  0  0  0  0  0  0  0
    3.6193   68.9943   66.3943 H   0  0  0  0  0  0  0  0  0  0  0  0
    3.8981   70.4246   65.3036 H   0  0  0  0  0  0  0  0  0  0  0  0
  2  1  2  0
  3  1  1  0
  4  3  2  0
  5  3  1  0
  6  5  1  0
  7  6  1  0
  8  1  1  0
 10  9  1  0
 10  8  1  0
  5 11  1  0
  5 12  1  0
  6 13  1  0
  6 14  1  0
  7 15  1  0
  7 16  1  0
  7 17  1  0
  8 18  1  0
  8 19  1  0
  9 20  1  0
  9 21  1  0
  9 22  1  0
 10 23  1  0
 10 24  1  0
M  END
>  <score>  (5) 
-5.246

$$$$
=
     RDKit          3D

 24 23  0  0  0  0  0  0  0  0999 V2000
    3.8340   69.1110   65.1040 C   0  0  0  0  0  0  0  0  0  0  0  0
    4.4950   69.6160   64.2050 O   0  0  0  0  0  0  0  0  0  0  0  0
    4.0170   69.6160   66.5290 C   0  0  0  0  0  0  0  0  0  0  0  0
    3.0490   69.6510   67.2780 O   0  0  0  0  0  0  0  0  0  0  0  0
    5.4180   70.0440   66.9060 C   0  0  0  0  0  0  0  0  0  0  0  0
    5.4640   70.7120   68.2770 C   0  0  0  0  0  0  0  0  0  0  0  0
    6.8940   70.9530   68.7330 C   0  0  0  0  0  0  0  0  0  0  0  0
    2.8080   68.0140   64.9150 C   0  0  0  0  0  0  0  0  0  0  0  0
    0.3360   68.5520   65.1210 C   0  0  0  0  0  0  0  0  0  0  0  0
    1.5440   68.4820   64.1960 C   0  0  0  0  0  0  0  0  0  0  0  0
    6.0679   69.1567   66.9217 H   0  0  0  0  0  0  0  0  0  0  0  0
    5.7609   70.7764   66.1604 H   0  0  0  0  0  0  0  0  0  0  0  0
    4.9392   71.6772   68.2219 H   0  0  0  0  0  0  0  0  0  0  0  0
    4.9790   70.0427   69.0029 H   0  0  0  0  0  0  0  0  0  0  0  0
    6.9321   70.9594   69.8323 H   0  0  0  0  0  0  0  0  0  0  0  0
    7.5416   70.1513   68.3483 H   0  0  0  0  0  0  0  0  0  0  0  0
    7.2430   71.9226   68.3483 H   0  0  0  0  0  0  0  0  0  0  0  0
    3.2659   67.2064   64.3250 H   0  0  0  0  0  0  0  0  0  0  0  0
    2.5052   67.6768   65.9173 H   0  0  0  0  0  0  0  0  0  0  0  0
    0.6740   68.5324   66.1676 H   0  0  0  0  0  0  0  0  0  0  0  0
   -0.2173   69.4837   64.9317 H   0  0  0  0  0  0  0  0  0  0  0  0
   -0.3212   67.6904   64.9317 H   0  0  0  0  0  0  0  0  0  0  0  0
    1.3223   67.7790   63.3796 H   0  0  0  0  0  0  0  0  0  0  0  0
    1.7328   69.4973   63.8170 H   0  0  0  0  0  0  0  0  0  0  0  0
  2  1  2  0
  3  1  1  0
  4  3  2  0
  5  3  1  0
  6  5  1  0
  7  6  1  0
  8  1  1  0
 10  9  1  0
 10  8  1  0
  5 11  1  0
  5 12  1  0
  6 13  1  0
  6 14  1  0
  7 15  1  0
  7 16  1  0
  7 17  1  0
  8 18  1  0
  8 19  1  0
  9 20  1  0
  9 21  1  0
  9 22  1  0
 10 23  1  0
 10 24  1  0
M  END
>  <score>  (6) 
-5.005

$$$$
=
     RDKit          3D

 24 23  0  0  0  0  0  0  0  0999 V2000
    1.6180   67.9830   66.1320 C   0  0  0  0  0  0  0  0  0  0  0  0
    1.8770   66.7870   66.1570 O   0  0  0  0  0  0  0  0  0  0  0  0
    0.2400   68.4310   65.6610 C   0  0  0  0  0  0  0  0  0  0  0  0
   -0.0400   68.3470   64.4720 O   0  0  0  0  0  0  0  0  0  0  0  0
   -0.6890   68.9560   66.7340 C   0  0  0  0  0  0  0  0  0  0  0  0
   -1.9890   68.1600   66.8060 C   0  0  0  0  0  0  0  0  0  0  0  0
   -1.8360   66.9200   67.6710 C   0  0  0  0  0  0  0  0  0  0  0  0
    2.5630   69.0860   66.5600 C   0  0  0  0  0  0  0  0  0  0  0  0
    3.6890   69.0750   64.2860 C   0  0  0  0  0  0  0  0  0  0  0  0
    3.8860   69.0830   65.7960 C   0  0  0  0  0  0  0  0  0  0  0  0
   -0.1795   68.8923   67.7068 H   0  0  0  0  0  0  0  0  0  0  0  0
   -0.9420   69.9969   66.4840 H   0  0  0  0  0  0  0  0  0  0  0  0
   -2.7760   68.7988   67.2332 H   0  0  0  0  0  0  0  0  0  0  0  0
   -2.2542   67.8397   65.7876 H   0  0  0  0  0  0  0  0  0  0  0  0
   -1.8714   67.2067   68.7324 H   0  0  0  0  0  0  0  0  0  0  0  0
   -2.6543   66.2179   67.4534 H   0  0  0  0  0  0  0  0  0  0  0  0
   -0.8716   66.4378   67.4534 H   0  0  0  0  0  0  0  0  0  0  0  0
    2.0670   70.0537   66.3942 H   0  0  0  0  0  0  0  0  0  0  0  0
    2.8005   68.9163   67.6206 H   0  0  0  0  0  0  0  0  0  0  0  0
    2.6141   69.0313   64.0567 H   0  0  0  0  0  0  0  0  0  0  0  0
    4.1189   69.9913   63.8553 H   0  0  0  0  0  0  0  0  0  0  0  0
    4.1918   68.1965   63.8553 H   0  0  0  0  0  0  0  0  0  0  0  0
    4.4561   68.1867   66.0819 H   0  0  0  0  0  0  0  0  0  0  0  0
    4.4243   70.0060   66.0573 H   0  0  0  0  0  0  0  0  0  0  0  0
  2  1  2  0
  3  1  1  0
  4  3  2  0
  5  3  1  0
  6  5  1  0
  7  6  1  0
  8  1  1  0
 10  9  1  0
 10  8  1  0
  5 11  1  0
  5 12  1  0
  6 13  1  0
  6 14  1  0
  7 15  1  0
  7 16  1  0
  7 17  1  0
  8 18  1  0
  8 19  1  0
  9 20  1  0
  9 21  1  0
  9 22  1  0
 10 23  1  0
 10 24  1  0
M  END
>  <score>  (7) 
-4.99

$$$$
=
     RDKit          3D

 24 23  0  0  0  0  0  0  0  0999 V2000
   -0.1220   68.3550   65.7200 C   0  0  0  0  0  0  0  0  0  0  0  0
   -0.9740   68.7590   64.9400 O   0  0  0  0  0  0  0  0  0  0  0  0
    1.1630   67.7560   65.1630 C   0  0  0  0  0  0  0  0  0  0  0  0
    1.3100   66.5400   65.1800 O   0  0  0  0  0  0  0  0  0  0  0  0
    2.1760   68.7420   64.6230 C   0  0  0  0  0  0  0  0  0  0  0  0
    3.5430   68.5770   65.2790 C   0  0  0  0  0  0  0  0  0  0  0  0
    3.6840   69.4620   66.5060 C   0  0  0  0  0  0  0  0  0  0  0  0
   -0.2230   68.4210   67.2290 C   0  0  0  0  0  0  0  0  0  0  0  0
   -2.2980   66.9890   67.5160 C   0  0  0  0  0  0  0  0  0  0  0  0
   -0.8230   67.1630   67.8530 C   0  0  0  0  0  0  0  0  0  0  0  0
    2.2812   68.5848   63.5394 H   0  0  0  0  0  0  0  0  0  0  0  0
    1.8135   69.7564   64.8457 H   0  0  0  0  0  0  0  0  0  0  0  0
    3.6704   67.5266   65.5797 H   0  0  0  0  0  0  0  0  0  0  0  0
    4.3125   68.8727   64.5507 H   0  0  0  0  0  0  0  0  0  0  0  0
    3.5863   68.8485   67.4138 H   0  0  0  0  0  0  0  0  0  0  0  0
    4.6709   69.9478   66.4963 H   0  0  0  0  0  0  0  0  0  0  0  0
    2.8970   70.2304   66.4963 H   0  0  0  0  0  0  0  0  0  0  0  0
    0.7870   68.5662   67.6399 H   0  0  0  0  0  0  0  0  0  0  0  0
   -0.8956   69.2565   67.4729 H   0  0  0  0  0  0  0  0  0  0  0  0
   -2.8810   66.9202   68.4462 H   0  0  0  0  0  0  0  0  0  0  0  0
   -2.6444   67.8525   66.9292 H   0  0  0  0  0  0  0  0  0  0  0  0
   -2.4339   66.0686   66.9292 H   0  0  0  0  0  0  0  0  0  0  0  0
   -0.7164   67.2265   68.9460 H   0  0  0  0  0  0  0  0  0  0  0  0
   -0.2829   66.2971   67.4425 H   0  0  0  0  0  0  0  0  0  0  0  0
  2  1  2  0
  3  1  1  0
  4  3  2  0
  5  3  1  0
  6  5  1  0
  7  6  1  0
  8  1  1  0
 10  9  1  0
 10  8  1  0
  5 11  1  0
  5 12  1  0
  6 13  1  0
  6 14  1  0
  7 15  1  0
  7 16  1  0
  7 17  1  0
  8 18  1  0
  8 19  1  0
  9 20  1  0
  9 21  1  0
  9 22  1  0
 10 23  1  0
 10 24  1  0
M  END
>  <score>  (8) 
-4.964

$$$$
=
     RDKit          3D

 24 23  0  0  0  0  0  0  0  0999 V2000
    1.8200   67.2500   64.9970 C   0  0  0  0  0  0  0  0  0  0  0  0
    1.4550   66.0890   64.8660 O   0  0  0  0  0  0  0  0  0  0  0  0
    3.2350   67.6310   64.5790 C   0  0  0  0  0  0  0  0  0  0  0  0
    4.0150   66.7500   64.2430 O   0  0  0  0  0  0  0  0  0  0  0  0
    3.5620   69.1080   64.6190 C   0  0  0  0  0  0  0  0  0  0  0  0
    4.8280   69.3930   65.4210 C   0  0  0  0  0  0  0  0  0  0  0  0
    4.5040   69.8060   66.8470 C   0  0  0  0  0  0  0  0  0  0  0  0
    0.9600   68.3760   65.5310 C   0  0  0  0  0  0  0  0  0  0  0  0
   -0.1690   67.4940   67.6250 C   0  0  0  0  0  0  0  0  0  0  0  0
    0.8970   68.4200   67.0570 C   0  0  0  0  0  0  0  0  0  0  0  0
    3.7056   69.4677   63.5894 H   0  0  0  0  0  0  0  0  0  0  0  0
    2.7256   69.6274   65.1096 H   0  0  0  0  0  0  0  0  0  0  0  0
    5.4482   68.4848   65.4443 H   0  0  0  0  0  0  0  0  0  0  0  0
    5.3643   70.2217   64.9356 H   0  0  0  0  0  0  0  0  0  0  0  0
    5.0265   69.1399   67.5494 H   0  0  0  0  0  0  0  0  0  0  0  0
    4.8321   70.8429   67.0120 H   0  0  0  0  0  0  0  0  0  0  0  0
    3.4188   69.7342   67.0120 H   0  0  0  0  0  0  0  0  0  0  0  0
    1.3722   69.3303   65.1714 H   0  0  0  0  0  0  0  0  0  0  0  0
   -0.0640   68.2026   65.1685 H   0  0  0  0  0  0  0  0  0  0  0  0
   -0.1336   67.5247   68.7240 H   0  0  0  0  0  0  0  0  0  0  0  0
   -1.1609   67.8221   67.2808 H   0  0  0  0  0  0  0  0  0  0  0  0
    0.0171   66.4660   67.2808 H   0  0  0  0  0  0  0  0  0  0  0  0
    0.6726   69.4501   67.3709 H   0  0  0  0  0  0  0  0  0  0  0  0
    1.8710   68.0823   67.4408 H   0  0  0  0  0  0  0  0  0  0  0  0
  2  1  2  0
  3  1  1  0
  4  3  2  0
  5  3  1  0
  6  5  1  0
  7  6  1  0
  8  1  1  0
 10  9  1  0
 10  8  1  0
  5 11  1  0
  5 12  1  0
  6 13  1  0
  6 14  1  0
  7 15  1  0
  7 16  1  0
  7 17  1  0
  8 18  1  0
  8 19  1  0
  9 20  1  0
  9 21  1  0
  9 22  1  0
 10 23  1  0
 10 24  1  0
M  END
>  <score>  (9) 
-4.931

$$$$
