=
     RDKit          3D

 29 31  0  0  0  0  0  0  0  0999 V2000
    4.8540   67.6280   62.3250 O   0  0  0  0  0  0  0  0  0  0  0  0
    3.7060   68.0190   62.3760 C   0  0  0  0  0  0  0  0  0  0  0  0
    2.9750   68.7960   61.2550 C   0  0  0  0  0  0  0  0  0  0  0  0
    3.4140   69.1110   60.1740 O   0  0  0  0  0  0  0  0  0  0  0  0
    1.6380   69.0700   61.7790 C   0  0  0  0  0  0  0  0  0  0  0  0
    1.5690   68.5190   63.0590 C   0  0  0  0  0  0  0  0  0  0  0  0
    2.7820   67.8960   63.4030 N   0  0  0  0  0  0  0  0  0  0  0  0
    0.4060   68.6280   63.7970 C   0  0  0  0  0  0  0  0  0  0  0  0
   -0.6780   69.3070   63.2220 C   0  0  0  0  0  0  0  0  0  0  0  0
   -0.5890   69.8580   61.9290 C   0  0  0  0  0  0  0  0  0  0  0  0
    0.5870   69.7420   61.1860 C   0  0  0  0  0  0  0  0  0  0  0  0
    3.0790   67.2750   64.6710 C   0  0  0  0  0  0  0  0  0  0  0  0
    3.3470   68.2880   65.7620 C   0  0  0  0  0  0  0  0  0  0  0  0
    2.3890   68.5310   66.7590 C   0  0  0  0  0  0  0  0  0  0  0  0
    2.6390   69.4570   67.7750 C   0  0  0  0  0  0  0  0  0  0  0  0
    3.8480   70.1550   67.8110 C   0  0  0  0  0  0  0  0  0  0  0  0
    4.8080   69.9250   66.8200 C   0  0  0  0  0  0  0  0  0  0  0  0
    4.5550   68.9990   65.8010 C   0  0  0  0  0  0  0  0  0  0  0  0
    6.3270   70.7490   66.7930 Cl  0  0  0  0  0  0  0  0  0  0  0  0
    4.0910   71.2810   69.0970 Cl  0  0  0  0  0  0  0  0  0  0  0  0
    0.3326   68.1951   64.8056 H   0  0  0  0  0  0  0  0  0  0  0  0
   -1.6138   69.4110   63.7907 H   0  0  0  0  0  0  0  0  0  0  0  0
   -1.4544   70.3848   61.5005 H   0  0  0  0  0  0  0  0  0  0  0  0
    0.6728   70.1662   60.1747 H   0  0  0  0  0  0  0  0  0  0  0  0
    2.2217   66.6536   64.9691 H   0  0  0  0  0  0  0  0  0  0  0  0
    3.9899   66.6717   64.5432 H   0  0  0  0  0  0  0  0  0  0  0  0
    1.4329   67.9875   66.7402 H   0  0  0  0  0  0  0  0  0  0  0  0
    1.8798   69.6371   68.5503 H   0  0  0  0  0  0  0  0  0  0  0  0
    5.3124   68.8272   65.0221 H   0  0  0  0  0  0  0  0  0  0  0  0
  2  1  2  0
  3  2  1  0
  4  3  2  0
  5  3  1  0
  6  5  2  0
  7  6  1  0
  7  2  1  0
  8  6  1  0
  9  8  2  0
 10  9  1  0
 11 10  2  0
 11  5  1  0
 12  7  1  0
 13 12  1  0
 14 13  2  0
 15 14  1  0
 16 15  2  0
 17 16  1  0
 18 17  2  0
 18 13  1  0
 19 17  1  0
 20 16  1  0
  8 21  1  0
  9 22  1  0
 10 23  1  0
 11 24  1  0
 12 25  1  0
 12 26  1  0
 14 27  1  0
 15 28  1  0
 18 29  1  0
M  END
>  <score>  (1) 
-9.567

$$$$
=
     RDKit          3D

 29 31  0  0  0  0  0  0  0  0999 V2000
    0.8100   68.7660   67.4820 O   0  0  0  0  0  0  0  0  0  0  0  0
    1.9600   69.0950   67.2830 C   0  0  0  0  0  0  0  0  0  0  0  0
    2.8830   69.7920   68.3120 C   0  0  0  0  0  0  0  0  0  0  0  0
    2.6140   70.0930   69.4510 O   0  0  0  0  0  0  0  0  0  0  0  0
    4.1490   70.0110   67.6140 C   0  0  0  0  0  0  0  0  0  0  0  0
    4.0100   69.5010   66.3240 C   0  0  0  0  0  0  0  0  0  0  0  0
    2.7270   68.9570   66.1340 N   0  0  0  0  0  0  0  0  0  0  0  0
    5.0650   69.5720   65.4350 C   0  0  0  0  0  0  0  0  0  0  0  0
    6.2550   70.1710   65.8720 C   0  0  0  0  0  0  0  0  0  0  0  0
    6.3760   70.6820   67.1780 C   0  0  0  0  0  0  0  0  0  0  0  0
    5.3090   70.6050   68.0730 C   0  0  0  0  0  0  0  0  0  0  0  0
    2.2220   68.3970   64.9040 C   0  0  0  0  0  0  0  0  0  0  0  0
    2.9490   67.1320   64.5050 C   0  0  0  0  0  0  0  0  0  0  0  0
    3.6260   67.0560   63.2780 C   0  0  0  0  0  0  0  0  0  0  0  0
    4.3080   65.8930   62.9130 C   0  0  0  0  0  0  0  0  0  0  0  0
    4.3250   64.7880   63.7670 C   0  0  0  0  0  0  0  0  0  0  0  0
    3.6500   64.8500   64.9900 C   0  0  0  0  0  0  0  0  0  0  0  0
    2.9640   66.0150   65.3530 C   0  0  0  0  0  0  0  0  0  0  0  0
    3.6220   63.5260   66.1010 Cl  0  0  0  0  0  0  0  0  0  0  0  0
    5.1920   63.3850   63.2540 Cl  0  0  0  0  0  0  0  0  0  0  0  0
    4.9742   69.1706   64.4149 H   0  0  0  0  0  0  0  0  0  0  0  0
    7.1089   70.2429   65.1823 H   0  0  0  0  0  0  0  0  0  0  0  0
    7.3211   71.1465   67.4958 H   0  0  0  0  0  0  0  0  0  0  0  0
    5.3874   70.9990   69.0970 H   0  0  0  0  0  0  0  0  0  0  0  0
    1.1546   68.1651   65.0335 H   0  0  0  0  0  0  0  0  0  0  0  0
    2.3795   69.1396   64.1079 H   0  0  0  0  0  0  0  0  0  0  0  0
    3.6195   67.9202   62.5975 H   0  0  0  0  0  0  0  0  0  0  0  0
    4.8343   65.8472   61.9482 H   0  0  0  0  0  0  0  0  0  0  0  0
    2.4307   66.0548   66.3142 H   0  0  0  0  0  0  0  0  0  0  0  0
  2  1  2  0
  3  2  1  0
  4  3  2  0
  5  3  1  0
  6  5  2  0
  7  6  1  0
  7  2  1  0
  8  6  1  0
  9  8  2  0
 10  9  1  0
 11 10  2  0
 11  5  1  0
 12  7  1  0
 13 12  1  0
 14 13  2  0
 15 14  1  0
 16 15  2  0
 17 16  1  0
 18 17  2  0
 18 13  1  0
 19 17  1  0
 20 16  1  0
  8 21  1  0
  9 22  1  0
 10 23  1  0
 11 24  1  0
 12 25  1  0
 12 26  1  0
 14 27  1  0
 15 28  1  0
 18 29  1  0
M  END
>  <score>  (2) 
-9.262

$$$$
=
     RDKit          3D

 29 31  0  0  0  0  0  0  0  0999 V2000
    3.5050   69.0160   62.5580 O   0  0  0  0  0  0  0  0  0  0  0  0
    3.6150   67.9130   63.0520 C   0  0  0  0  0  0  0  0  0  0  0  0
    4.5190   66.7770   62.5140 C   0  0  0  0  0  0  0  0  0  0  0  0
    5.2530   66.8170   61.5550 O   0  0  0  0  0  0  0  0  0  0  0  0
    4.2980   65.6450   63.4120 C   0  0  0  0  0  0  0  0  0  0  0  0
    3.3780   66.0510   64.3790 C   0  0  0  0  0  0  0  0  0  0  0  0
    2.9840   67.3850   64.1690 N   0  0  0  0  0  0  0  0  0  0  0  0
    2.9820   65.1720   65.3680 C   0  0  0  0  0  0  0  0  0  0  0  0
    3.5270   63.8800   65.3590 C   0  0  0  0  0  0  0  0  0  0  0  0
    4.4540   63.4880   64.3740 C   0  0  0  0  0  0  0  0  0  0  0  0
    4.8530   64.3810   63.3780 C   0  0  0  0  0  0  0  0  0  0  0  0
    2.0040   68.1060   64.9450 C   0  0  0  0  0  0  0  0  0  0  0  0
    2.6210   68.8450   66.1110 C   0  0  0  0  0  0  0  0  0  0  0  0
    1.8590   69.1350   67.2540 C   0  0  0  0  0  0  0  0  0  0  0  0
    2.4310   69.8060   68.3380 C   0  0  0  0  0  0  0  0  0  0  0  0
    3.7700   70.1970   68.2990 C   0  0  0  0  0  0  0  0  0  0  0  0
    4.5390   69.9180   67.1640 C   0  0  0  0  0  0  0  0  0  0  0  0
    3.9640   69.2480   66.0760 C   0  0  0  0  0  0  0  0  0  0  0  0
    6.2020   70.3700   67.0350 Cl  0  0  0  0  0  0  0  0  0  0  0  0
    4.4120   71.0190   69.6750 Cl  0  0  0  0  0  0  0  0  0  0  0  0
    2.2602   65.4765   66.1402 H   0  0  0  0  0  0  0  0  0  0  0  0
    3.2253   63.1605   66.1345 H   0  0  0  0  0  0  0  0  0  0  0  0
    4.8675   62.4688   64.3896 H   0  0  0  0  0  0  0  0  0  0  0  0
    5.5764   64.0911   62.6017 H   0  0  0  0  0  0  0  0  0  0  0  0
    1.5021   68.8343   64.2911 H   0  0  0  0  0  0  0  0  0  0  0  0
    1.2929   67.3720   65.3520 H   0  0  0  0  0  0  0  0  0  0  0  0
    0.8026   68.8314   67.2965 H   0  0  0  0  0  0  0  0  0  0  0  0
    1.8223   70.0273   69.2271 H   0  0  0  0  0  0  0  0  0  0  0  0
    4.5725   69.0357   65.1846 H   0  0  0  0  0  0  0  0  0  0  0  0
  2  1  2  0
  3  2  1  0
  4  3  2  0
  5  3  1  0
  6  5  2  0
  7  6  1  0
  7  2  1  0
  8  6  1  0
  9  8  2  0
 10  9  1  0
 11 10  2  0
 11  5  1  0
 12  7  1  0
 13 12  1  0
 14 13  2  0
 15 14  1  0
 16 15  2  0
 17 16  1  0
 18 17  2  0
 18 13  1  0
 19 17  1  0
 20 16  1  0
  8 21  1  0
  9 22  1  0
 10 23  1  0
 11 24  1  0
 12 25  1  0
 12 26  1  0
 14 27  1  0
 15 28  1  0
 18 29  1  0
M  END
>  <score>  (3) 
-9.185

$$$$
=
     RDKit          3D

 29 31  0  0  0  0  0  0  0  0999 V2000
   -0.1580   67.8570   67.0630 O   0  0  0  0  0  0  0  0  0  0  0  0
    0.0700   68.1980   65.9220 C   0  0  0  0  0  0  0  0  0  0  0  0
   -0.9620   68.8210   64.9510 C   0  0  0  0  0  0  0  0  0  0  0  0
   -2.1220   69.0760   65.1780 O   0  0  0  0  0  0  0  0  0  0  0  0
   -0.2380   69.0370   63.6990 C   0  0  0  0  0  0  0  0  0  0  0  0
    1.0730   68.6040   63.8940 C   0  0  0  0  0  0  0  0  0  0  0  0
    1.2530   68.1190   65.2020 N   0  0  0  0  0  0  0  0  0  0  0  0
    1.9900   68.6920   62.8640 C   0  0  0  0  0  0  0  0  0  0  0  0
    1.5570   69.2200   61.6400 C   0  0  0  0  0  0  0  0  0  0  0  0
    0.2290   69.6500   61.4620 C   0  0  0  0  0  0  0  0  0  0  0  0
   -0.6930   69.5620   62.5050 C   0  0  0  0  0  0  0  0  0  0  0  0
    2.4660   67.5410   65.7260 C   0  0  0  0  0  0  0  0  0  0  0  0
    3.4060   68.5840   66.2900 C   0  0  0  0  0  0  0  0  0  0  0  0
    4.5830   68.9250   65.6070 C   0  0  0  0  0  0  0  0  0  0  0  0
    5.4460   69.8980   66.1180 C   0  0  0  0  0  0  0  0  0  0  0  0
    5.1470   70.5440   67.3200 C   0  0  0  0  0  0  0  0  0  0  0  0
    3.9790   70.2090   68.0120 C   0  0  0  0  0  0  0  0  0  0  0  0
    3.1170   69.2320   67.5000 C   0  0  0  0  0  0  0  0  0  0  0  0
    3.5380   70.9610   69.5050 Cl  0  0  0  0  0  0  0  0  0  0  0  0
    6.2560   71.7380   67.8920 Cl  0  0  0  0  0  0  0  0  0  0  0  0
    3.0290   68.3576   63.0007 H   0  0  0  0  0  0  0  0  0  0  0  0
    2.2676   69.2996   60.8041 H   0  0  0  0  0  0  0  0  0  0  0  0
   -0.0851   70.0596   60.4906 H   0  0  0  0  0  0  0  0  0  0  0  0
   -1.7341   69.8952   62.3824 H   0  0  0  0  0  0  0  0  0  0  0  0
    2.2030   66.8332   66.5259 H   0  0  0  0  0  0  0  0  0  0  0  0
    2.9832   67.0377   64.8958 H   0  0  0  0  0  0  0  0  0  0  0  0
    4.8288   68.4217   64.6603 H   0  0  0  0  0  0  0  0  0  0  0  0
    6.3649   70.1564   65.5713 H   0  0  0  0  0  0  0  0  0  0  0  0
    2.2029   68.9696   68.0527 H   0  0  0  0  0  0  0  0  0  0  0  0
  2  1  2  0
  3  2  1  0
  4  3  2  0
  5  3  1  0
  6  5  2  0
  7  6  1  0
  7  2  1  0
  8  6  1  0
  9  8  2  0
 10  9  1  0
 11 10  2  0
 11  5  1  0
 12  7  1  0
 13 12  1  0
 14 13  2  0
 15 14  1  0
 16 15  2  0
 17 16  1  0
 18 17  2  0
 18 13  1  0
 19 17  1  0
 20 16  1  0
  8 21  1  0
  9 22  1  0
 10 23  1  0
 11 24  1  0
 12 25  1  0
 12 26  1  0
 14 27  1  0
 15 28  1  0
 18 29  1  0
M  END
>  <score>  (4) 
-9.115

$$$$
=
     RDKit          3D

 29 31  0  0  0  0  0  0  0  0999 V2000
    1.2820   69.2790   65.6860 O   0  0  0  0  0  0  0  0  0  0  0  0
    1.9390   68.3230   65.3320 C   0  0  0  0  0  0  0  0  0  0  0  0
    1.4710   66.8480   65.3790 C   0  0  0  0  0  0  0  0  0  0  0  0
    0.3980   66.4310   65.7490 O   0  0  0  0  0  0  0  0  0  0  0  0
    2.6010   66.0650   64.8830 C   0  0  0  0  0  0  0  0  0  0  0  0
    3.6240   66.9580   64.5670 C   0  0  0  0  0  0  0  0  0  0  0  0
    3.2300   68.2840   64.8250 N   0  0  0  0  0  0  0  0  0  0  0  0
    4.8230   66.4880   64.0680 C   0  0  0  0  0  0  0  0  0  0  0  0
    4.9700   65.1040   63.9010 C   0  0  0  0  0  0  0  0  0  0  0  0
    3.9260   64.2170   64.2270 C   0  0  0  0  0  0  0  0  0  0  0  0
    2.7150   64.6960   64.7270 C   0  0  0  0  0  0  0  0  0  0  0  0
    4.0580   69.4550   64.6670 C   0  0  0  0  0  0  0  0  0  0  0  0
    4.8210   69.7970   65.9270 C   0  0  0  0  0  0  0  0  0  0  0  0
    6.2230   69.8530   65.9180 C   0  0  0  0  0  0  0  0  0  0  0  0
    6.9300   70.1820   67.0770 C   0  0  0  0  0  0  0  0  0  0  0  0
    6.2470   70.4580   68.2640 C   0  0  0  0  0  0  0  0  0  0  0  0
    4.8500   70.4000   68.2870 C   0  0  0  0  0  0  0  0  0  0  0  0
    4.1440   70.0680   67.1250 C   0  0  0  0  0  0  0  0  0  0  0  0
    3.9320   70.7270   69.7150 Cl  0  0  0  0  0  0  0  0  0  0  0  0
    7.1830   70.8610   69.6580 Cl  0  0  0  0  0  0  0  0  0  0  0  0
    5.6385   67.1793   63.8093 H   0  0  0  0  0  0  0  0  0  0  0  0
    5.9167   64.7041   63.5087 H   0  0  0  0  0  0  0  0  0  0  0  0
    4.0669   63.1352   64.0859 H   0  0  0  0  0  0  0  0  0  0  0  0
    1.8895   64.0164   64.9851 H   0  0  0  0  0  0  0  0  0  0  0  0
    4.7788   69.2710   63.8567 H   0  0  0  0  0  0  0  0  0  0  0  0
    3.3975   70.3034   64.4347 H   0  0  0  0  0  0  0  0  0  0  0  0
    6.7708   69.6357   64.9892 H   0  0  0  0  0  0  0  0  0  0  0  0
    8.0290   70.2239   67.0549 H   0  0  0  0  0  0  0  0  0  0  0  0
    3.0454   70.0191   67.1517 H   0  0  0  0  0  0  0  0  0  0  0  0
  2  1  2  0
  3  2  1  0
  4  3  2  0
  5  3  1  0
  6  5  2  0
  7  6  1  0
  7  2  1  0
  8  6  1  0
  9  8  2  0
 10  9  1  0
 11 10  2  0
 11  5  1  0
 12  7  1  0
 13 12  1  0
 14 13  2  0
 15 14  1  0
 16 15  2  0
 17 16  1  0
 18 17  2  0
 18 13  1  0
 19 17  1  0
 20 16  1  0
  8 21  1  0
  9 22  1  0
 10 23  1  0
 11 24  1  0
 12 25  1  0
 12 26  1  0
 14 27  1  0
 15 28  1  0
 18 29  1  0
M  END
>  <score>  (5) 
-9.05

$$$$
=
     RDKit          3D

 29 31  0  0  0  0  0  0  0  0999 V2000
    0.7810   68.5270   68.2430 O   0  0  0  0  0  0  0  0  0  0  0  0
    1.8640   68.8350   67.7930 C   0  0  0  0  0  0  0  0  0  0  0  0
    2.8300   69.8730   68.4130 C   0  0  0  0  0  0  0  0  0  0  0  0
    2.6690   70.5100   69.4280 O   0  0  0  0  0  0  0  0  0  0  0  0
    3.9800   69.9230   67.5120 C   0  0  0  0  0  0  0  0  0  0  0  0
    3.7410   69.0190   66.4780 C   0  0  0  0  0  0  0  0  0  0  0  0
    2.5020   68.3770   66.6490 N   0  0  0  0  0  0  0  0  0  0  0  0
    4.6750   68.8570   65.4720 C   0  0  0  0  0  0  0  0  0  0  0  0
    5.8450   69.6250   65.5300 C   0  0  0  0  0  0  0  0  0  0  0  0
    6.0690   70.5340   66.5820 C   0  0  0  0  0  0  0  0  0  0  0  0
    5.1250   70.6930   67.5970 C   0  0  0  0  0  0  0  0  0  0  0  0
    1.9130   67.4250   65.7370 C   0  0  0  0  0  0  0  0  0  0  0  0
    1.4670   68.0660   64.4420 C   0  0  0  0  0  0  0  0  0  0  0  0
    0.1840   68.6250   64.3290 C   0  0  0  0  0  0  0  0  0  0  0  0
   -0.2260   69.2290   63.1390 C   0  0  0  0  0  0  0  0  0  0  0  0
    0.6370   69.2850   62.0420 C   0  0  0  0  0  0  0  0  0  0  0  0
    1.9150   68.7270   62.1410 C   0  0  0  0  0  0  0  0  0  0  0  0
    2.3250   68.1190   63.3340 C   0  0  0  0  0  0  0  0  0  0  0  0
    3.0420   68.7540   60.8300 Cl  0  0  0  0  0  0  0  0  0  0  0  0
    0.0660   70.0500   60.6030 Cl  0  0  0  0  0  0  0  0  0  0  0  0
    4.5045   68.1460   64.6502 H   0  0  0  0  0  0  0  0  0  0  0  0
    6.6024   69.5161   64.7397 H   0  0  0  0  0  0  0  0  0  0  0  0
    6.9970   71.1242   66.6037 H   0  0  0  0  0  0  0  0  0  0  0  0
    5.2844   71.3981   68.4261 H   0  0  0  0  0  0  0  0  0  0  0  0
    2.6573   66.6479   65.5084 H   0  0  0  0  0  0  0  0  0  0  0  0
    1.0231   67.0003   66.2245 H   0  0  0  0  0  0  0  0  0  0  0  0
   -0.5045   68.5867   65.1860 H   0  0  0  0  0  0  0  0  0  0  0  0
   -1.2340   69.6631   63.0648 H   0  0  0  0  0  0  0  0  0  0  0  0
    3.3306   67.6784   63.4027 H   0  0  0  0  0  0  0  0  0  0  0  0
  2  1  2  0
  3  2  1  0
  4  3  2  0
  5  3  1  0
  6  5  2  0
  7  6  1  0
  7  2  1  0
  8  6  1  0
  9  8  2  0
 10  9  1  0
 11 10  2  0
 11  5  1  0
 12  7  1  0
 13 12  1  0
 14 13  2  0
 15 14  1  0
 16 15  2  0
 17 16  1  0
 18 17  2  0
 18 13  1  0
 19 17  1  0
 20 16  1  0
  8 21  1  0
  9 22  1  0
 10 23  1  0
 11 24  1  0
 12 25  1  0
 12 26  1  0
 14 27  1  0
 15 28  1  0
 18 29  1  0
M  END
>  <score>  (6) 
-9.034

$$$$
=
     RDKit          3D

 29 31  0  0  0  0  0  0  0  0999 V2000
    1.9550   67.2570   69.6210 O   0  0  0  0  0  0  0  0  0  0  0  0
    0.9970   67.5100   68.9210 C   0  0  0  0  0  0  0  0  0  0  0  0
   -0.2270   66.5860   68.7100 C   0  0  0  0  0  0  0  0  0  0  0  0
   -0.4240   65.5040   69.2100 O   0  0  0  0  0  0  0  0  0  0  0  0
   -1.0960   67.2990   67.7750 C   0  0  0  0  0  0  0  0  0  0  0  0
   -0.4760   68.5090   67.4660 C   0  0  0  0  0  0  0  0  0  0  0  0
    0.7490   68.6340   68.1450 N   0  0  0  0  0  0  0  0  0  0  0  0
   -1.0820   69.3940   66.5950 C   0  0  0  0  0  0  0  0  0  0  0  0
   -2.3190   69.0320   66.0420 C   0  0  0  0  0  0  0  0  0  0  0  0
   -2.9290   67.8040   66.3650 C   0  0  0  0  0  0  0  0  0  0  0  0
   -2.3140   66.9150   67.2470 C   0  0  0  0  0  0  0  0  0  0  0  0
    1.6770   69.7310   68.0150 C   0  0  0  0  0  0  0  0  0  0  0  0
    2.7440   69.4640   66.9770 C   0  0  0  0  0  0  0  0  0  0  0  0
    2.4140   68.8550   65.7560 C   0  0  0  0  0  0  0  0  0  0  0  0
    3.3950   68.6200   64.7900 C   0  0  0  0  0  0  0  0  0  0  0  0
    4.7210   68.9880   65.0280 C   0  0  0  0  0  0  0  0  0  0  0  0
    5.0630   69.5920   66.2420 C   0  0  0  0  0  0  0  0  0  0  0  0
    4.0790   69.8240   67.2110 C   0  0  0  0  0  0  0  0  0  0  0  0
    6.6800   70.0750   66.6140 Cl  0  0  0  0  0  0  0  0  0  0  0  0
    5.8810   68.6710   63.7890 Cl  0  0  0  0  0  0  0  0  0  0  0  0
   -0.6082   70.3542   66.3427 H   0  0  0  0  0  0  0  0  0  0  0  0
   -2.8212   69.7184   65.3444 H   0  0  0  0  0  0  0  0  0  0  0  0
   -3.8995   67.5435   65.9175 H   0  0  0  0  0  0  0  0  0  0  0  0
   -2.7773   65.9526   67.5100 H   0  0  0  0  0  0  0  0  0  0  0  0
    1.1189   70.6331   67.7239 H   0  0  0  0  0  0  0  0  0  0  0  0
    2.1785   69.8626   68.9851 H   0  0  0  0  0  0  0  0  0  0  0  0
    1.3729   68.5601   65.5582 H   0  0  0  0  0  0  0  0  0  0  0  0
    3.1219   68.1428   63.8373 H   0  0  0  0  0  0  0  0  0  0  0  0
    4.3563   70.2938   68.1662 H   0  0  0  0  0  0  0  0  0  0  0  0
  2  1  2  0
  3  2  1  0
  4  3  2  0
  5  3  1  0
  6  5  2  0
  7  6  1  0
  7  2  1  0
  8  6  1  0
  9  8  2  0
 10  9  1  0
 11 10  2  0
 11  5  1  0
 12  7  1  0
 13 12  1  0
 14 13  2  0
 15 14  1  0
 16 15  2  0
 17 16  1  0
 18 17  2  0
 18 13  1  0
 19 17  1  0
 20 16  1  0
  8 21  1  0
  9 22  1  0
 10 23  1  0
 11 24  1  0
 12 25  1  0
 12 26  1  0
 14 27  1  0
 15 28  1  0
 18 29  1  0
M  END
>  <score>  (7) 
-9.006

$$$$
=
     RDKit          3D

 29 31  0  0  0  0  0  0  0  0999 V2000
    5.9620   68.8920   64.1440 O   0  0  0  0  0  0  0  0  0  0  0  0
    5.2810   69.1330   65.1190 C   0  0  0  0  0  0  0  0  0  0  0  0
    5.6580   70.1150   66.2540 C   0  0  0  0  0  0  0  0  0  0  0  0
    6.6560   70.7930   66.3360 O   0  0  0  0  0  0  0  0  0  0  0  0
    4.5520   70.0520   67.2080 C   0  0  0  0  0  0  0  0  0  0  0  0
    3.6180   69.1460   66.7060 C   0  0  0  0  0  0  0  0  0  0  0  0
    4.0440   68.6150   65.4760 N   0  0  0  0  0  0  0  0  0  0  0  0
    2.4570   68.8890   67.4100 C   0  0  0  0  0  0  0  0  0  0  0  0
    2.2640   69.5560   68.6280 C   0  0  0  0  0  0  0  0  0  0  0  0
    3.2200   70.4650   69.1190 C   0  0  0  0  0  0  0  0  0  0  0  0
    4.3880   70.7250   68.4030 C   0  0  0  0  0  0  0  0  0  0  0  0
    3.3510   67.6100   64.7060 C   0  0  0  0  0  0  0  0  0  0  0  0
    2.4150   68.2110   63.6820 C   0  0  0  0  0  0  0  0  0  0  0  0
    2.8890   68.5800   62.4140 C   0  0  0  0  0  0  0  0  0  0  0  0
    2.0240   69.1230   61.4610 C   0  0  0  0  0  0  0  0  0  0  0  0
    0.6720   69.3070   61.7590 C   0  0  0  0  0  0  0  0  0  0  0  0
    0.1880   68.9470   63.0210 C   0  0  0  0  0  0  0  0  0  0  0  0
    1.0570   68.4060   63.9770 C   0  0  0  0  0  0  0  0  0  0  0  0
   -1.4690   69.1440   63.4700 Cl  0  0  0  0  0  0  0  0  0  0  0  0
   -0.3410   69.9790   60.5340 Cl  0  0  0  0  0  0  0  0  0  0  0  0
    1.7066   68.1822   67.0262 H   0  0  0  0  0  0  0  0  0  0  0  0
    1.3500   69.3657   69.2098 H   0  0  0  0  0  0  0  0  0  0  0  0
    3.0439   70.9755   70.0773 H   0  0  0  0  0  0  0  0  0  0  0  0
    5.1439   71.4334   68.7728 H   0  0  0  0  0  0  0  0  0  0  0  0
    4.0947   66.9902   64.1838 H   0  0  0  0  0  0  0  0  0  0  0  0
    2.7456   67.0122   65.4032 H   0  0  0  0  0  0  0  0  0  0  0  0
    3.9520   68.4404   62.1680 H   0  0  0  0  0  0  0  0  0  0  0  0
    2.4097   69.4071   60.4708 H   0  0  0  0  0  0  0  0  0  0  0  0
    0.6709   68.1310   64.9696 H   0  0  0  0  0  0  0  0  0  0  0  0
  2  1  2  0
  3  2  1  0
  4  3  2  0
  5  3  1  0
  6  5  2  0
  7  6  1  0
  7  2  1  0
  8  6  1  0
  9  8  2  0
 10  9  1  0
 11 10  2  0
 11  5  1  0
 12  7  1  0
 13 12  1  0
 14 13  2  0
 15 14  1  0
 16 15  2  0
 17 16  1  0
 18 17  2  0
 18 13  1  0
 19 17  1  0
 20 16  1  0
  8 21  1  0
  9 22  1  0
 10 23  1  0
 11 24  1  0
 12 25  1  0
 12 26  1  0
 14 27  1  0
 15 28  1  0
 18 29  1  0
M  END
>  <score>  (8) 
-8.795

$$$$
=
     RDKit          3D

 29 31  0  0  0  0  0  0  0  0999 V2000
    2.3740   68.8670   65.2000 O   0  0  0  0  0  0  0  0  0  0  0  0
    3.2350   69.2850   65.9460 C   0  0  0  0  0  0  0  0  0  0  0  0
    4.7550   69.2670   65.6570 C   0  0  0  0  0  0  0  0  0  0  0  0
    5.3080   68.8610   64.6620 O   0  0  0  0  0  0  0  0  0  0  0  0
    5.3840   69.8440   66.8440 C   0  0  0  0  0  0  0  0  0  0  0  0
    4.3660   70.1770   67.7370 C   0  0  0  0  0  0  0  0  0  0  0  0
    3.1050   69.8550   67.2040 N   0  0  0  0  0  0  0  0  0  0  0  0
    4.6750   70.7490   68.9570 C   0  0  0  0  0  0  0  0  0  0  0  0
    6.0270   70.9710   69.2560 C   0  0  0  0  0  0  0  0  0  0  0  0
    7.0410   70.6260   68.3420 C   0  0  0  0  0  0  0  0  0  0  0  0
    6.7240   70.0520   67.1110 C   0  0  0  0  0  0  0  0  0  0  0  0
    1.8400   70.0120   67.8800 C   0  0  0  0  0  0  0  0  0  0  0  0
    1.2730   68.6940   68.3580 C   0  0  0  0  0  0  0  0  0  0  0  0
    1.9400   67.9460   69.3410 C   0  0  0  0  0  0  0  0  0  0  0  0
    1.4120   66.7340   69.7930 C   0  0  0  0  0  0  0  0  0  0  0  0
    0.2100   66.2500   69.2720 C   0  0  0  0  0  0  0  0  0  0  0  0
   -0.4610   66.9840   68.2880 C   0  0  0  0  0  0  0  0  0  0  0  0
    0.0710   68.1970   67.8340 C   0  0  0  0  0  0  0  0  0  0  0  0
   -1.9510   66.4530   67.5920 Cl  0  0  0  0  0  0  0  0  0  0  0  0
   -0.3870   64.7480   69.8800 Cl  0  0  0  0  0  0  0  0  0  0  0  0
    3.8844   71.0217   69.6715 H   0  0  0  0  0  0  0  0  0  0  0  0
    6.3001   71.4224   70.2212 H   0  0  0  0  0  0  0  0  0  0  0  0
    8.0938   70.8111   68.6014 H   0  0  0  0  0  0  0  0  0  0  0  0
    7.5045   69.7775   66.3861 H   0  0  0  0  0  0  0  0  0  0  0  0
    1.9836   70.6706   68.7493 H   0  0  0  0  0  0  0  0  0  0  0  0
    1.1272   70.4422   67.1610 H   0  0  0  0  0  0  0  0  0  0  0  0
    2.8871   68.3175   69.7593 H   0  0  0  0  0  0  0  0  0  0  0  0
    1.9458   66.1580   70.5632 H   0  0  0  0  0  0  0  0  0  0  0  0
   -0.4601   68.7667   67.0573 H   0  0  0  0  0  0  0  0  0  0  0  0
  2  1  2  0
  3  2  1  0
  4  3  2  0
  5  3  1  0
  6  5  2  0
  7  6  1  0
  7  2  1  0
  8  6  1  0
  9  8  2  0
 10  9  1  0
 11 10  2  0
 11  5  1  0
 12  7  1  0
 13 12  1  0
 14 13  2  0
 15 14  1  0
 16 15  2  0
 17 16  1  0
 18 17  2  0
 18 13  1  0
 19 17  1  0
 20 16  1  0
  8 21  1  0
  9 22  1  0
 10 23  1  0
 11 24  1  0
 12 25  1  0
 12 26  1  0
 14 27  1  0
 15 28  1  0
 18 29  1  0
M  END
>  <score>  (9) 
-8.764

$$$$
