=
     RDKit          3D

 31 31  0  0  0  0  0  0  0  0999 V2000
    1.8670   69.4660   67.1430 O   0  0  0  0  0  0  0  0  0  0  0  0
    3.2090   69.5990   66.8780 C   0  0  0  0  0  0  0  0  0  0  0  0
    3.6850   69.2920   65.5930 C   0  0  0  0  0  0  0  0  0  0  0  0
    2.7700   68.8360   64.4940 C   0  0  0  0  0  0  0  0  0  0  0  0
    5.0600   69.3970   65.3440 C   0  0  0  0  0  0  0  0  0  0  0  0
    5.9290   69.8370   66.3420 C   0  0  0  0  0  0  0  0  0  0  0  0
    5.4330   70.1920   67.5970 C   0  0  0  0  0  0  0  0  0  0  0  0
    4.0640   70.1000   67.8740 C   0  0  0  0  0  0  0  0  0  0  0  0
    3.5630   70.5100   69.2290 C   0  0  0  0  0  0  0  0  0  0  0  0
    1.5960   68.1670   67.6780 C   0  0  0  0  0  0  0  0  0  0  0  0
   -0.7040   69.0220   67.0010 C   0  0  0  0  0  0  0  0  0  0  0  0
    0.1450   67.8010   67.3310 C   0  0  1  0  0  0  0  0  0  0  0  0
    0.1140   66.8790   66.1530 N   0  0  0  0  0  4  0  0  0  0  0  0
    1.8669   68.3859   64.9319 H   0  0  0  0  0  0  0  0  0  0  0  0
    2.4857   69.6978   63.8723 H   0  0  0  0  0  0  0  0  0  0  0  0
    3.2869   68.0901   63.8723 H   0  0  0  0  0  0  0  0  0  0  0  0
    5.4571   69.1302   64.3535 H   0  0  0  0  0  0  0  0  0  0  0  0
    7.0081   69.9044   66.1394 H   0  0  0  0  0  0  0  0  0  0  0  0
    6.1240   70.5473   68.3756 H   0  0  0  0  0  0  0  0  0  0  0  0
    4.1649   70.0175   70.0069 H   0  0  0  0  0  0  0  0  0  0  0  0
    3.6474   71.6015   69.3363 H   0  0  0  0  0  0  0  0  0  0  0  0
    2.5098   70.2114   69.3363 H   0  0  0  0  0  0  0  0  0  0  0  0
    2.2825   67.4306   67.2347 H   0  0  0  0  0  0  0  0  0  0  0  0
    1.7386   68.1668   68.7687 H   0  0  0  0  0  0  0  0  0  0  0  0
   -1.0366   69.5003   67.9340 H   0  0  0  0  0  0  0  0  0  0  0  0
   -0.1068   69.7364   66.4153 H   0  0  0  0  0  0  0  0  0  0  0  0
   -1.5816   68.7109   66.4153 H   0  0  0  0  0  0  0  0  0  0  0  0
   -0.2755   67.3150   68.2237 H   0  0  0  0  0  0  0  0  0  0  0  0
    0.0812   65.9033   66.4814 H   0  0  0  0  0  0  0  0  0  0  0  0
   -0.7208   67.0778   65.5833 H   0  0  0  0  0  0  0  0  0  0  0  0
    0.9602   67.0212   65.5833 H   0  0  0  0  0  0  0  0  0  0  0  0
  2  1  1  0
  3  2  2  0
  4  3  1  0
  5  3  1  0
  6  5  2  0
  7  6  1  0
  8  7  2  0
  8  2  1  0
  9  8  1  0
 10  1  1  0
 12 11  1  0
 12 10  1  0
 13 12  1  0
  4 14  1  0
  4 15  1  0
  4 16  1  0
  5 17  1  0
  6 18  1  0
  7 19  1  0
  9 20  1  0
  9 21  1  0
  9 22  1  0
 10 23  1  0
 10 24  1  0
 11 25  1  0
 11 26  1  0
 11 27  1  0
 12 28  1  1
 13 29  1  0
 13 30  1  0
 13 31  1  0
M  CHG  1  13   1
M  END
>  <score>  (1) 
-7.412

$$$$
=
     RDKit          3D

 31 31  0  0  0  0  0  0  0  0999 V2000
    1.9470   69.4980   67.2800 O   0  0  0  0  0  0  0  0  0  0  0  0
    3.2770   69.6470   66.9690 C   0  0  0  0  0  0  0  0  0  0  0  0
    4.1620   70.1090   67.9570 C   0  0  0  0  0  0  0  0  0  0  0  0
    3.7020   70.4330   69.3490 C   0  0  0  0  0  0  0  0  0  0  0  0
    5.5100   70.2900   67.6190 C   0  0  0  0  0  0  0  0  0  0  0  0
    5.9670   69.9790   66.3400 C   0  0  0  0  0  0  0  0  0  0  0  0
    5.0870   69.4670   65.3860 C   0  0  0  0  0  0  0  0  0  0  0  0
    3.7360   69.2730   65.6950 C   0  0  0  0  0  0  0  0  0  0  0  0
    2.8210   68.7010   64.6500 C   0  0  0  0  0  0  0  0  0  0  0  0
    1.6670   68.1350   67.6110 C   0  0  0  0  0  0  0  0  0  0  0  0
   -0.5970   69.1770   67.0970 C   0  0  0  0  0  0  0  0  0  0  0  0
    0.1620   67.8960   67.4220 C   0  0  1  0  0  0  0  0  0  0  0  0
   -0.0700   66.9220   66.3100 N   0  0  0  0  0  4  0  0  0  0  0  0
    4.3758   69.9584   70.0776 H   0  0  0  0  0  0  0  0  0  0  0  0
    3.7138   71.5233   69.4946 H   0  0  0  0  0  0  0  0  0  0  0  0
    2.6794   70.0547   69.4946 H   0  0  0  0  0  0  0  0  0  0  0  0
    6.2129   70.6807   68.3695 H   0  0  0  0  0  0  0  0  0  0  0  0
    7.0244   70.1376   66.0817 H   0  0  0  0  0  0  0  0  0  0  0  0
    5.4584   69.2136   64.3821 H   0  0  0  0  0  0  0  0  0  0  0  0
    1.9859   68.1789   65.1399 H   0  0  0  0  0  0  0  0  0  0  0  0
    2.4274   69.5142   64.0224 H   0  0  0  0  0  0  0  0  0  0  0  0
    3.3796   67.9910   64.0224 H   0  0  0  0  0  0  0  0  0  0  0  0
    2.2365   67.4662   66.9488 H   0  0  0  0  0  0  0  0  0  0  0  0
    1.9572   67.9289   68.6518 H   0  0  0  0  0  0  0  0  0  0  0  0
   -0.8923   69.6755   68.0320 H   0  0  0  0  0  0  0  0  0  0  0  0
    0.0495   69.8479   66.5122 H   0  0  0  0  0  0  0  0  0  0  0  0
   -1.4959   68.9322   66.5122 H   0  0  0  0  0  0  0  0  0  0  0  0
   -0.2130   67.5002   68.3774 H   0  0  0  0  0  0  0  0  0  0  0  0
   -0.2904   65.9965   66.7046 H   0  0  0  0  0  0  0  0  0  0  0  0
   -0.8577   67.2444   65.7300 H   0  0  0  0  0  0  0  0  0  0  0  0
    0.7785   66.8547   65.7300 H   0  0  0  0  0  0  0  0  0  0  0  0
  2  1  1  0
  3  2  2  0
  4  3  1  0
  5  3  1  0
  6  5  2  0
  7  6  1  0
  8  7  2  0
  8  2  1  0
  9  8  1  0
 10  1  1  0
 12 11  1  0
 12 10  1  0
 13 12  1  0
  4 14  1  0
  4 15  1  0
  4 16  1  0
  5 17  1  0
  6 18  1  0
  7 19  1  0
  9 20  1  0
  9 21  1  0
  9 22  1  0
 10 23  1  0
 10 24  1  0
 11 25  1  0
 11 26  1  0
 11 27  1  0
 12 28  1  1
 13 29  1  0
 13 30  1  0
 13 31  1  0
M  CHG  1  13   1
M  END
>  <score>  (2) 
-7.272

$$$$
=
     RDKit          3D

 31 31  0  0  0  0  0  0  0  0999 V2000
    2.5690   69.4690   66.4470 O   0  0  0  0  0  0  0  0  0  0  0  0
    3.8500   69.7810   66.8360 C   0  0  0  0  0  0  0  0  0  0  0  0
    4.8950   69.6640   65.9050 C   0  0  0  0  0  0  0  0  0  0  0  0
    4.6530   69.2210   64.4910 C   0  0  0  0  0  0  0  0  0  0  0  0
    6.2010   69.9510   66.3220 C   0  0  0  0  0  0  0  0  0  0  0  0
    6.4500   70.3830   67.6240 C   0  0  0  0  0  0  0  0  0  0  0  0
    5.3950   70.5480   68.5210 C   0  0  0  0  0  0  0  0  0  0  0  0
    4.0790   70.2720   68.1330 C   0  0  0  0  0  0  0  0  0  0  0  0
    2.9650   70.4800   69.1180 C   0  0  0  0  0  0  0  0  0  0  0  0
    2.2690   68.1110   66.7840 C   0  0  0  0  0  0  0  0  0  0  0  0
    2.2530   66.3980   64.9020 C   0  0  0  0  0  0  0  0  0  0  0  0
    1.4770   67.4950   65.6210 C   0  0  1  0  0  0  0  0  0  0  0  0
    0.1970   66.9060   66.1240 N   0  0  0  0  0  4  0  0  0  0  0  0
    4.1257   68.2557   64.4944 H   0  0  0  0  0  0  0  0  0  0  0  0
    4.0398   69.9720   63.9713 H   0  0  0  0  0  0  0  0  0  0  0  0
    5.6162   69.1108   63.9713 H   0  0  0  0  0  0  0  0  0  0  0  0
    7.0369   69.8346   65.6165 H   0  0  0  0  0  0  0  0  0  0  0  0
    7.4809   70.5942   67.9444 H   0  0  0  0  0  0  0  0  0  0  0  0
    5.5992   70.8985   69.5435 H   0  0  0  0  0  0  0  0  0  0  0  0
    3.3618   70.4059   70.1413 H   0  0  0  0  0  0  0  0  0  0  0  0
    2.5234   71.4761   68.9672 H   0  0  0  0  0  0  0  0  0  0  0  0
    2.1937   69.7103   68.9672 H   0  0  0  0  0  0  0  0  0  0  0  0
    3.2026   67.5500   66.9379 H   0  0  0  0  0  0  0  0  0  0  0  0
    1.6788   68.0697   67.7113 H   0  0  0  0  0  0  0  0  0  0  0  0
    2.7223   65.7346   65.6434 H   0  0  0  0  0  0  0  0  0  0  0  0
    1.5652   65.8151   64.2718 H   0  0  0  0  0  0  0  0  0  0  0  0
    3.0317   66.8525   64.2718 H   0  0  0  0  0  0  0  0  0  0  0  0
    1.2832   68.3109   64.9092 H   0  0  0  0  0  0  0  0  0  0  0  0
    0.1999   66.9073   67.1540 H   0  0  0  0  0  0  0  0  0  0  0  0
   -0.5966   67.4666   65.7821 H   0  0  0  0  0  0  0  0  0  0  0  0
    0.1065   65.9386   65.7821 H   0  0  0  0  0  0  0  0  0  0  0  0
  2  1  1  0
  3  2  2  0
  4  3  1  0
  5  3  1  0
  6  5  2  0
  7  6  1  0
  8  7  2  0
  8  2  1  0
  9  8  1  0
 10  1  1  0
 12 11  1  0
 12 10  1  0
 13 12  1  0
  4 14  1  0
  4 15  1  0
  4 16  1  0
  5 17  1  0
  6 18  1  0
  7 19  1  0
  9 20  1  0
  9 21  1  0
  9 22  1  0
 10 23  1  0
 10 24  1  0
 11 25  1  0
 11 26  1  0
 11 27  1  0
 12 28  1  6
 13 29  1  0
 13 30  1  0
 13 31  1  0
M  CHG  1  13   1
M  END
>  <score>  (3) 
-7.107

$$$$
=
     RDKit          3D

 31 31  0  0  0  0  0  0  0  0999 V2000
    1.9530   69.1180   66.1920 O   0  0  0  0  0  0  0  0  0  0  0  0
    3.0170   69.1420   65.3220 C   0  0  0  0  0  0  0  0  0  0  0  0
    2.7960   68.8620   63.9640 C   0  0  0  0  0  0  0  0  0  0  0  0
    1.4280   68.5500   63.4290 C   0  0  0  0  0  0  0  0  0  0  0  0
    3.8930   68.8540   63.0930 C   0  0  0  0  0  0  0  0  0  0  0  0
    5.1700   69.1590   63.5600 C   0  0  0  0  0  0  0  0  0  0  0  0
    5.3660   69.4900   64.9010 C   0  0  0  0  0  0  0  0  0  0  0  0
    4.2890   69.5080   65.7950 C   0  0  0  0  0  0  0  0  0  0  0  0
    4.5320   69.8890   67.2270 C   0  0  0  0  0  0  0  0  0  0  0  0
    1.6470   67.7700   66.5600 C   0  0  0  0  0  0  0  0  0  0  0  0
   -0.3490   69.1480   67.3280 C   0  0  0  0  0  0  0  0  0  0  0  0
    0.2970   67.7690   67.2920 C   0  0  1  0  0  0  0  0  0  0  0  0
   -0.6520   66.8260   66.6230 N   0  0  0  0  0  4  0  0  0  0  0  0
    0.7337   68.3917   64.2674 H   0  0  0  0  0  0  0  0  0  0  0  0
    1.0744   69.3906   62.8138 H   0  0  0  0  0  0  0  0  0  0  0  0
    1.4738   67.6392   62.8138 H   0  0  0  0  0  0  0  0  0  0  0  0
    3.7452   68.6049   62.0318 H   0  0  0  0  0  0  0  0  0  0  0  0
    6.0259   69.1387   62.8693 H   0  0  0  0  0  0  0  0  0  0  0  0
    6.3758   69.7391   65.2590 H   0  0  0  0  0  0  0  0  0  0  0  0
    4.0595   69.1482   67.8888 H   0  0  0  0  0  0  0  0  0  0  0  0
    5.6145   69.9160   67.4206 H   0  0  0  0  0  0  0  0  0  0  0  0
    4.1000   70.8819   67.4206 H   0  0  0  0  0  0  0  0  0  0  0  0
    1.5826   67.1430   65.6585 H   0  0  0  0  0  0  0  0  0  0  0  0
    2.4344   67.3655   67.2130 H   0  0  0  0  0  0  0  0  0  0  0  0
   -0.4941   69.4577   68.3735 H   0  0  0  0  0  0  0  0  0  0  0  0
    0.3036   69.8721   66.8183 H   0  0  0  0  0  0  0  0  0  0  0  0
   -1.3230   69.1100   66.8183 H   0  0  0  0  0  0  0  0  0  0  0  0
    0.5030   67.4528   68.3252 H   0  0  0  0  0  0  0  0  0  0  0  0
   -1.1779   66.3034   67.3380 H   0  0  0  0  0  0  0  0  0  0  0  0
   -1.3086   67.3592   66.0352 H   0  0  0  0  0  0  0  0  0  0  0  0
   -0.1230   66.1661   66.0352 H   0  0  0  0  0  0  0  0  0  0  0  0
  2  1  1  0
  3  2  2  0
  4  3  1  0
  5  3  1  0
  6  5  2  0
  7  6  1  0
  8  7  2  0
  8  2  1  0
  9  8  1  0
 10  1  1  0
 12 11  1  0
 12 10  1  0
 13 12  1  0
  4 14  1  0
  4 15  1  0
  4 16  1  0
  5 17  1  0
  6 18  1  0
  7 19  1  0
  9 20  1  0
  9 21  1  0
  9 22  1  0
 10 23  1  0
 10 24  1  0
 11 25  1  0
 11 26  1  0
 11 27  1  0
 12 28  1  1
 13 29  1  0
 13 30  1  0
 13 31  1  0
M  CHG  1  13   1
M  END
>  <score>  (4) 
-6.791

$$$$
=
     RDKit          3D

 31 31  0  0  0  0  0  0  0  0999 V2000
    2.0250   69.1000   65.9490 O   0  0  0  0  0  0  0  0  0  0  0  0
    3.0930   69.1310   65.0850 C   0  0  0  0  0  0  0  0  0  0  0  0
    4.3600   69.4830   65.5780 C   0  0  0  0  0  0  0  0  0  0  0  0
    4.5870   69.8130   67.0250 C   0  0  0  0  0  0  0  0  0  0  0  0
    5.4350   69.5460   64.6820 C   0  0  0  0  0  0  0  0  0  0  0  0
    5.2560   69.2260   63.3370 C   0  0  0  0  0  0  0  0  0  0  0  0
    4.0030   68.8240   62.8740 C   0  0  0  0  0  0  0  0  0  0  0  0
    2.9100   68.7490   63.7460 C   0  0  0  0  0  0  0  0  0  0  0  0
    1.5810   68.2930   63.2170 C   0  0  0  0  0  0  0  0  0  0  0  0
    1.8980   67.7990   66.5290 C   0  0  0  0  0  0  0  0  0  0  0  0
   -0.0910   69.0840   67.4610 C   0  0  0  0  0  0  0  0  0  0  0  0
    0.5270   67.7130   67.2160 C   0  0  1  0  0  0  0  0  0  0  0  0
   -0.4220   66.9170   66.3770 N   0  0  0  0  0  4  0  0  0  0  0  0
    4.0760   69.0701   67.6550 H   0  0  0  0  0  0  0  0  0  0  0  0
    5.6656   69.7963   67.2400 H   0  0  0  0  0  0  0  0  0  0  0  0
    4.1857   70.8144   67.2400 H   0  0  0  0  0  0  0  0  0  0  0  0
    6.4286   69.8505   65.0427 H   0  0  0  0  0  0  0  0  0  0  0  0
    6.1042   69.2906   62.6396 H   0  0  0  0  0  0  0  0  0  0  0  0
    3.8723   68.5633   61.8134 H   0  0  0  0  0  0  0  0  0  0  0  0
    0.9108   68.0630   64.0584 H   0  0  0  0  0  0  0  0  0  0  0  0
    1.1378   69.0905   62.6025 H   0  0  0  0  0  0  0  0  0  0  0  0
    1.7207   67.3914   62.6025 H   0  0  0  0  0  0  0  0  0  0  0  0
    1.9699   67.0323   65.7435 H   0  0  0  0  0  0  0  0  0  0  0  0
    2.7015   67.6285   67.2606 H   0  0  0  0  0  0  0  0  0  0  0  0
   -0.1712   69.2619   68.5436 H   0  0  0  0  0  0  0  0  0  0  0  0
    0.5448   69.8590   67.0082 H   0  0  0  0  0  0  0  0  0  0  0  0
   -1.0928   69.1209   67.0082 H   0  0  0  0  0  0  0  0  0  0  0  0
    0.6960   67.2268   68.1882 H   0  0  0  0  0  0  0  0  0  0  0  0
   -1.0570   66.3843   66.9885 H   0  0  0  0  0  0  0  0  0  0  0  0
   -0.9716   67.5537   65.7824 H   0  0  0  0  0  0  0  0  0  0  0  0
    0.1093   66.2650   65.7824 H   0  0  0  0  0  0  0  0  0  0  0  0
  2  1  1  0
  3  2  2  0
  4  3  1  0
  5  3  1  0
  6  5  2  0
  7  6  1  0
  8  7  2  0
  8  2  1  0
  9  8  1  0
 10  1  1  0
 12 11  1  0
 12 10  1  0
 13 12  1  0
  4 14  1  0
  4 15  1  0
  4 16  1  0
  5 17  1  0
  6 18  1  0
  7 19  1  0
  9 20  1  0
  9 21  1  0
  9 22  1  0
 10 23  1  0
 10 24  1  0
 11 25  1  0
 11 26  1  0
 11 27  1  0
 12 28  1  1
 13 29  1  0
 13 30  1  0
 13 31  1  0
M  CHG  1  13   1
M  END
>  <score>  (5) 
-6.723

$$$$
=
     RDKit          3D

 31 31  0  0  0  0  0  0  0  0999 V2000
    4.9040   70.5430   66.4590 O   0  0  0  0  0  0  0  0  0  0  0  0
    4.0770   69.5620   65.9650 C   0  0  0  0  0  0  0  0  0  0  0  0
    2.9590   69.1680   66.7180 C   0  0  0  0  0  0  0  0  0  0  0  0
    2.6290   69.7970   68.0410 C   0  0  0  0  0  0  0  0  0  0  0  0
    2.1430   68.1430   66.2220 C   0  0  0  0  0  0  0  0  0  0  0  0
    2.4160   67.5560   64.9870 C   0  0  0  0  0  0  0  0  0  0  0  0
    3.4980   67.9970   64.2250 C   0  0  0  0  0  0  0  0  0  0  0  0
    4.3300   69.0210   64.6930 C   0  0  0  0  0  0  0  0  0  0  0  0
    5.4740   69.4840   63.8380 C   0  0  0  0  0  0  0  0  0  0  0  0
    5.9310   69.9620   67.2670 C   0  0  0  0  0  0  0  0  0  0  0  0
    7.4060   70.8430   69.1440 C   0  0  0  0  0  0  0  0  0  0  0  0
    5.9890   70.7330   68.5940 C   0  0  1  0  0  0  0  0  0  0  0  0
    5.4510   72.1170   68.4100 N   0  0  0  0  0  4  0  0  0  0  0  0
    2.9729   69.1415   68.8546 H   0  0  0  0  0  0  0  0  0  0  0  0
    3.1315   70.7724   68.1188 H   0  0  0  0  0  0  0  0  0  0  0  0
    1.5408   69.9379   68.1188 H   0  0  0  0  0  0  0  0  0  0  0  0
    1.2804   67.7986   66.8113 H   0  0  0  0  0  0  0  0  0  0  0  0
    1.7765   66.7431   64.6127 H   0  0  0  0  0  0  0  0  0  0  0  0
    3.6994   67.5357   63.2469 H   0  0  0  0  0  0  0  0  0  0  0  0
    6.3008   69.8186   64.4817 H   0  0  0  0  0  0  0  0  0  0  0  0
    5.8166   68.6537   63.2029 H   0  0  0  0  0  0  0  0  0  0  0  0
    5.1427   70.3188   63.2029 H   0  0  0  0  0  0  0  0  0  0  0  0
    5.6993   68.9042   67.4604 H   0  0  0  0  0  0  0  0  0  0  0  0
    6.9004   70.0200   66.7503 H   0  0  0  0  0  0  0  0  0  0  0  0
    7.3738   70.8405   70.2435 H   0  0  0  0  0  0  0  0  0  0  0  0
    8.0030   69.9885   68.7927 H   0  0  0  0  0  0  0  0  0  0  0  0
    7.8640   71.7794   68.7927 H   0  0  0  0  0  0  0  0  0  0  0  0
    5.3786   70.1654   69.3118 H   0  0  0  0  0  0  0  0  0  0  0  0
    5.2843   72.5459   69.3315 H   0  0  0  0  0  0  0  0  0  0  0  0
    6.1330   72.6836   67.8859 H   0  0  0  0  0  0  0  0  0  0  0  0
    4.5653   72.0742   67.8859 H   0  0  0  0  0  0  0  0  0  0  0  0
  2  1  1  0
  3  2  2  0
  4  3  1  0
  5  3  1  0
  6  5  2  0
  7  6  1  0
  8  7  2  0
  8  2  1  0
  9  8  1  0
 10  1  1  0
 12 11  1  0
 12 10  1  0
 13 12  1  0
  4 14  1  0
  4 15  1  0
  4 16  1  0
  5 17  1  0
  6 18  1  0
  7 19  1  0
  9 20  1  0
  9 21  1  0
  9 22  1  0
 10 23  1  0
 10 24  1  0
 11 25  1  0
 11 26  1  0
 11 27  1  0
 12 28  1  1
 13 29  1  0
 13 30  1  0
 13 31  1  0
M  CHG  1  13   1
M  END
>  <score>  (6) 
-6.643

$$$$
=
     RDKit          3D

 31 31  0  0  0  0  0  0  0  0999 V2000
    2.9920   67.6880   64.0840 O   0  0  0  0  0  0  0  0  0  0  0  0
    3.4820   68.4670   65.1040 C   0  0  0  0  0  0  0  0  0  0  0  0
    4.7520   69.0520   64.9680 C   0  0  0  0  0  0  0  0  0  0  0  0
    5.5860   68.8620   63.7340 C   0  0  0  0  0  0  0  0  0  0  0  0
    5.2570   69.8150   66.0290 C   0  0  0  0  0  0  0  0  0  0  0  0
    4.4950   70.0220   67.1780 C   0  0  0  0  0  0  0  0  0  0  0  0
    3.2120   69.4820   67.2750 C   0  0  0  0  0  0  0  0  0  0  0  0
    2.6800   68.7160   66.2310 C   0  0  0  0  0  0  0  0  0  0  0  0
    1.2890   68.1670   66.3610 C   0  0  0  0  0  0  0  0  0  0  0  0
    2.8400   66.3360   64.5250 C   0  0  0  0  0  0  0  0  0  0  0  0
    4.0050   64.0740   64.4590 C   0  0  0  0  0  0  0  0  0  0  0  0
    4.1080   65.5610   64.1380 C   0  0  1  0  0  0  0  0  0  0  0  0
    4.3720   65.7040   62.6720 N   0  0  0  0  0  4  0  0  0  0  0  0
    6.6207   68.6263   64.0235 H   0  0  0  0  0  0  0  0  0  0  0  0
    5.1746   68.0346   63.1372 H   0  0  0  0  0  0  0  0  0  0  0  0
    5.5736   69.7860   63.1372 H   0  0  0  0  0  0  0  0  0  0  0  0
    6.2628   70.2542   65.9549 H   0  0  0  0  0  0  0  0  0  0  0  0
    4.9062   70.6124   68.0101 H   0  0  0  0  0  0  0  0  0  0  0  0
    2.6130   69.6599   68.1803 H   0  0  0  0  0  0  0  0  0  0  0  0
    1.0328   68.0659   67.4259 H   0  0  0  0  0  0  0  0  0  0  0  0
    0.5777   68.8518   65.8762 H   0  0  0  0  0  0  0  0  0  0  0  0
    1.2372   67.1810   65.8762 H   0  0  0  0  0  0  0  0  0  0  0  0
    2.7078   66.3128   65.6168 H   0  0  0  0  0  0  0  0  0  0  0  0
    1.9566   65.8794   64.0547 H   0  0  0  0  0  0  0  0  0  0  0  0
    3.9953   63.9342   65.5500 H   0  0  0  0  0  0  0  0  0  0  0  0
    3.0767   63.6696   64.0293 H   0  0  0  0  0  0  0  0  0  0  0  0
    4.8687   63.5454   64.0293 H   0  0  0  0  0  0  0  0  0  0  0  0
    4.9292   65.9906   64.7304 H   0  0  0  0  0  0  0  0  0  0  0  0
    5.2691   66.1899   62.5305 H   0  0  0  0  0  0  0  0  0  0  0  0
    4.4149   64.7708   62.2382 H   0  0  0  0  0  0  0  0  0  0  0  0
    3.6138   66.2497   62.2382 H   0  0  0  0  0  0  0  0  0  0  0  0
  2  1  1  0
  3  2  2  0
  4  3  1  0
  5  3  1  0
  6  5  2  0
  7  6  1  0
  8  7  2  0
  8  2  1  0
  9  8  1  0
 10  1  1  0
 12 11  1  0
 12 10  1  0
 13 12  1  0
  4 14  1  0
  4 15  1  0
  4 16  1  0
  5 17  1  0
  6 18  1  0
  7 19  1  0
  9 20  1  0
  9 21  1  0
  9 22  1  0
 10 23  1  0
 10 24  1  0
 11 25  1  0
 11 26  1  0
 11 27  1  0
 12 28  1  1
 13 29  1  0
 13 30  1  0
 13 31  1  0
M  CHG  1  13   1
M  END
>  <score>  (7) 
-6.633

$$$$
=
     RDKit          3D

 31 31  0  0  0  0  0  0  0  0999 V2000
    2.9130   68.9550   65.2580 O   0  0  0  0  0  0  0  0  0  0  0  0
    3.4290   69.4370   66.4370 C   0  0  0  0  0  0  0  0  0  0  0  0
    2.6100   69.4690   67.5780 C   0  0  0  0  0  0  0  0  0  0  0  0
    1.1910   68.9790   67.5530 C   0  0  0  0  0  0  0  0  0  0  0  0
    3.1350   69.9940   68.7660 C   0  0  0  0  0  0  0  0  0  0  0  0
    4.4560   70.4370   68.8210 C   0  0  0  0  0  0  0  0  0  0  0  0
    5.2740   70.3470   67.6950 C   0  0  0  0  0  0  0  0  0  0  0  0
    4.7780   69.8250   66.4940 C   0  0  0  0  0  0  0  0  0  0  0  0
    5.6920   69.7240   65.3070 C   0  0  0  0  0  0  0  0  0  0  0  0
    3.0540   67.5330   65.2020 C   0  0  0  0  0  0  0  0  0  0  0  0
    4.0180   65.6780   63.7510 C   0  0  0  0  0  0  0  0  0  0  0  0
    3.8240   67.1790   63.9210 C   0  0  1  0  0  0  0  0  0  0  0  0
    3.0940   67.6940   62.7210 N   0  0  0  0  0  4  0  0  0  0  0  0
    0.8281   68.8537   68.5838 H   0  0  0  0  0  0  0  0  0  0  0  0
    0.5595   69.7111   67.0284 H   0  0  0  0  0  0  0  0  0  0  0  0
    1.1458   68.0132   67.0284 H   0  0  0  0  0  0  0  0  0  0  0  0
    2.5003   70.0572   69.6622 H   0  0  0  0  0  0  0  0  0  0  0  0
    4.8543   70.8589   69.7556 H   0  0  0  0  0  0  0  0  0  0  0  0
    6.3180   70.6891   67.7508 H   0  0  0  0  0  0  0  0  0  0  0  0
    6.7301   69.6093   65.6523 H   0  0  0  0  0  0  0  0  0  0  0  0
    5.4091   68.8516   64.6996 H   0  0  0  0  0  0  0  0  0  0  0  0
    5.6064   70.6371   64.6996 H   0  0  0  0  0  0  0  0  0  0  0  0
    3.6113   67.1788   66.0817 H   0  0  0  0  0  0  0  0  0  0  0  0
    2.0646   67.0522   65.1966 H   0  0  0  0  0  0  0  0  0  0  0  0
    4.0795   65.2018   64.7407 H   0  0  0  0  0  0  0  0  0  0  0  0
    3.1666   65.2589   63.1948 H   0  0  0  0  0  0  0  0  0  0  0  0
    4.9480   65.4892   63.1948 H   0  0  0  0  0  0  0  0  0  0  0  0
    4.8135   67.6507   64.0125 H   0  0  0  0  0  0  0  0  0  0  0  0
    2.2900   68.2612   63.0255 H   0  0  0  0  0  0  0  0  0  0  0  0
    3.7295   68.2749   62.1557 H   0  0  0  0  0  0  0  0  0  0  0  0
    2.7599   66.9005   62.1557 H   0  0  0  0  0  0  0  0  0  0  0  0
  2  1  1  0
  3  2  2  0
  4  3  1  0
  5  3  1  0
  6  5  2  0
  7  6  1  0
  8  7  2  0
  8  2  1  0
  9  8  1  0
 10  1  1  0
 12 11  1  0
 12 10  1  0
 13 12  1  0
  4 14  1  0
  4 15  1  0
  4 16  1  0
  5 17  1  0
  6 18  1  0
  7 19  1  0
  9 20  1  0
  9 21  1  0
  9 22  1  0
 10 23  1  0
 10 24  1  0
 11 25  1  0
 11 26  1  0
 11 27  1  0
 12 28  1  1
 13 29  1  0
 13 30  1  0
 13 31  1  0
M  CHG  1  13   1
M  END
>  <score>  (8) 
-6.446

$$$$
=
     RDKit          3D

 31 31  0  0  0  0  0  0  0  0999 V2000
    4.5140   70.4770   66.6120 O   0  0  0  0  0  0  0  0  0  0  0  0
    3.7640   69.4820   66.0300 C   0  0  0  0  0  0  0  0  0  0  0  0
    4.1400   68.9940   64.7680 C   0  0  0  0  0  0  0  0  0  0  0  0
    5.3450   69.5150   64.0400 C   0  0  0  0  0  0  0  0  0  0  0  0
    3.3490   68.0050   64.1690 C   0  0  0  0  0  0  0  0  0  0  0  0
    2.2360   67.4900   64.8310 C   0  0  0  0  0  0  0  0  0  0  0  0
    1.9080   67.9460   66.1090 C   0  0  0  0  0  0  0  0  0  0  0  0
    2.6810   68.9310   66.7350 C   0  0  0  0  0  0  0  0  0  0  0  0
    2.3100   69.3830   68.1180 C   0  0  0  0  0  0  0  0  0  0  0  0
    5.6240   69.9100   67.3140 C   0  0  0  0  0  0  0  0  0  0  0  0
    7.1840   71.1720   68.8800 C   0  0  0  0  0  0  0  0  0  0  0  0
    5.7710   70.6490   68.6530 C   0  0  1  0  0  0  0  0  0  0  0  0
    4.8290   71.8100   68.7070 N   0  0  0  0  0  4  0  0  0  0  0  0
    6.1010   69.8419   64.7692 H   0  0  0  0  0  0  0  0  0  0  0  0
    5.7649   68.7181   63.4087 H   0  0  0  0  0  0  0  0  0  0  0  0
    5.0521   70.3668   63.4087 H   0  0  0  0  0  0  0  0  0  0  0  0
    3.6087   67.6317   63.1674 H   0  0  0  0  0  0  0  0  0  0  0  0
    1.6148   66.7228   64.3456 H   0  0  0  0  0  0  0  0  0  0  0  0
    1.0338   67.5273   66.6291 H   0  0  0  0  0  0  0  0  0  0  0  0
    2.8254   68.7550   68.8596 H   0  0  0  0  0  0  0  0  0  0  0  0
    2.6106   70.4324   68.2538 H   0  0  0  0  0  0  0  0  0  0  0  0
    1.2222   69.2927   68.2538 H   0  0  0  0  0  0  0  0  0  0  0  0
    5.4426   68.8405   67.4965 H   0  0  0  0  0  0  0  0  0  0  0  0
    6.5435   70.0133   66.7192 H   0  0  0  0  0  0  0  0  0  0  0  0
    7.3791   71.2442   69.9601 H   0  0  0  0  0  0  0  0  0  0  0  0
    7.9082   70.4824   68.4219 H   0  0  0  0  0  0  0  0  0  0  0  0
    7.2847   72.1670   68.4219 H   0  0  0  0  0  0  0  0  0  0  0  0
    5.5392   69.9167   69.4405 H   0  0  0  0  0  0  0  0  0  0  0  0
    4.6349   72.0492   69.6899 H   0  0  0  0  0  0  0  0  0  0  0  0
    5.2548   72.6199   68.2342 H   0  0  0  0  0  0  0  0  0  0  0  0
    3.9487   71.5602   68.2342 H   0  0  0  0  0  0  0  0  0  0  0  0
  2  1  1  0
  3  2  2  0
  4  3  1  0
  5  3  1  0
  6  5  2  0
  7  6  1  0
  8  7  2  0
  8  2  1  0
  9  8  1  0
 10  1  1  0
 12 11  1  0
 12 10  1  0
 13 12  1  0
  4 14  1  0
  4 15  1  0
  4 16  1  0
  5 17  1  0
  6 18  1  0
  7 19  1  0
  9 20  1  0
  9 21  1  0
  9 22  1  0
 10 23  1  0
 10 24  1  0
 11 25  1  0
 11 26  1  0
 11 27  1  0
 12 28  1  1
 13 29  1  0
 13 30  1  0
 13 31  1  0
M  CHG  1  13   1
M  END
>  <score>  (9) 
-6.326

$$$$
