=
     RDKit          3D

 25 25  0  0  0  0  0  0  0  0999 V2000
    2.0370   66.6800   65.9230 O   0  0  0  0  0  0  0  0  0  0  0  0
    2.7090   67.3550   65.1570 C   0  0  0  0  0  0  0  0  0  0  0  0
    3.5490   66.7110   64.2030 N   0  0  0  0  0  0  0  0  0  0  0  0
    3.7010   65.3920   64.0560 C   0  0  0  0  0  0  0  0  0  0  0  0
    3.0490   64.5200   64.8230 N   0  0  0  0  0  4  0  0  0  0  0  0
    4.5310   64.9230   63.1170 N   0  0  0  0  0  0  0  0  0  0  0  0
    2.7240   68.8660   65.1290 C   0  0  0  0  0  0  0  0  0  0  0  0
    3.7570   69.4510   66.0670 C   0  0  0  0  0  0  0  0  0  0  0  0
    3.4570   69.7190   67.4180 C   0  0  0  0  0  0  0  0  0  0  0  0
    1.8740   69.4550   68.0670 Cl  0  0  0  0  0  0  0  0  0  0  0  0
    4.4180   70.2510   68.2830 C   0  0  0  0  0  0  0  0  0  0  0  0
    5.6960   70.5420   67.8150 C   0  0  0  0  0  0  0  0  0  0  0  0
    6.0080   70.3120   66.4790 C   0  0  0  0  0  0  0  0  0  0  0  0
    5.0490   69.7780   65.6120 C   0  0  0  0  0  0  0  0  0  0  0  0
    5.5120   69.5640   63.9610 Cl  0  0  0  0  0  0  0  0  0  0  0  0
    4.0881   67.3178   63.5690 H   0  0  0  0  0  0  0  0  0  0  0  0
    3.1874   63.5087   64.6852 H   0  0  0  0  0  0  0  0  0  0  0  0
    2.4063   64.8569   65.5540 H   0  0  0  0  0  0  0  0  0  0  0  0
    4.6529   63.9072   62.9982 H   0  0  0  0  0  0  0  0  0  0  0  0
    5.0480   65.5778   62.5130 H   0  0  0  0  0  0  0  0  0  0  0  0
    2.9490   69.1979   64.1047 H   0  0  0  0  0  0  0  0  0  0  0  0
    1.7351   69.2170   65.4589 H   0  0  0  0  0  0  0  0  0  0  0  0
    4.1633   70.4401   69.3363 H   0  0  0  0  0  0  0  0  0  0  0  0
    6.4551   70.9516   68.4977 H   0  0  0  0  0  0  0  0  0  0  0  0
    7.0136   70.5512   66.1026 H   0  0  0  0  0  0  0  0  0  0  0  0
  2  1  2  0
  3  2  1  0
  4  3  1  0
  5  4  2  3
  6  4  1  0
  7  2  1  0
  8  7  1  0
  9  8  2  0
 10  9  1  0
 11  9  1  0
 12 11  2  0
 13 12  1  0
 14  8  1  0
 14 13  2  0
 15 14  1  0
  3 16  1  0
  5 17  1  0
  5 18  1  0
  6 19  1  0
  6 20  1  0
  7 21  1  0
  7 22  1  0
 11 23  1  0
 12 24  1  0
 13 25  1  0
M  CHG  1   5   1
M  END
>  <score>  (1) 
-8.805

$$$$
=
     RDKit          3D

 25 25  0  0  0  0  0  0  0  0999 V2000
    2.0100   66.7040   65.8850 O   0  0  0  0  0  0  0  0  0  0  0  0
    2.6850   67.3810   65.1240 C   0  0  0  0  0  0  0  0  0  0  0  0
    3.5270   66.7410   64.1700 N   0  0  0  0  0  0  0  0  0  0  0  0
    3.6780   65.4230   64.0170 C   0  0  0  0  0  0  0  0  0  0  0  0
    3.0230   64.5480   64.7780 N   0  0  0  0  0  4  0  0  0  0  0  0
    4.5100   64.9570   63.0780 N   0  0  0  0  0  0  0  0  0  0  0  0
    2.7030   68.8930   65.1040 C   0  0  0  0  0  0  0  0  0  0  0  0
    3.7670   69.4700   66.0110 C   0  0  0  0  0  0  0  0  0  0  0  0
    5.0600   69.7660   65.5350 C   0  0  0  0  0  0  0  0  0  0  0  0
    5.5260   69.4280   63.9020 Cl  0  0  0  0  0  0  0  0  0  0  0  0
    6.0370   70.3080   66.3760 C   0  0  0  0  0  0  0  0  0  0  0  0
    5.7490   70.5530   67.7160 C   0  0  0  0  0  0  0  0  0  0  0  0
    4.4880   70.2440   68.2160 C   0  0  0  0  0  0  0  0  0  0  0  0
    3.5080   69.7030   67.3760 C   0  0  0  0  0  0  0  0  0  0  0  0
    1.9860   69.3120   68.0930 Cl  0  0  0  0  0  0  0  0  0  0  0  0
    4.0689   67.3503   63.5407 H   0  0  0  0  0  0  0  0  0  0  0  0
    3.1607   63.5372   64.6356 H   0  0  0  0  0  0  0  0  0  0  0  0
    2.3787   64.8821   65.5089 H   0  0  0  0  0  0  0  0  0  0  0  0
    4.6308   63.9415   62.9550 H   0  0  0  0  0  0  0  0  0  0  0  0
    5.0295   65.6138   62.4783 H   0  0  0  0  0  0  0  0  0  0  0  0
    2.8955   69.2302   64.0748 H   0  0  0  0  0  0  0  0  0  0  0  0
    1.7262   69.2444   65.4678 H   0  0  0  0  0  0  0  0  0  0  0  0
    7.0355   70.5414   65.9779 H   0  0  0  0  0  0  0  0  0  0  0  0
    6.5141   70.9884   68.3756 H   0  0  0  0  0  0  0  0  0  0  0  0
    4.2601   70.4258   69.2767 H   0  0  0  0  0  0  0  0  0  0  0  0
  2  1  2  0
  3  2  1  0
  4  3  1  0
  5  4  2  3
  6  4  1  0
  7  2  1  0
  8  7  1  0
  9  8  2  0
 10  9  1  0
 11  9  1  0
 12 11  2  0
 13 12  1  0
 14  8  1  0
 14 13  2  0
 15 14  1  0
  3 16  1  0
  5 17  1  0
  5 18  1  0
  6 19  1  0
  6 20  1  0
  7 21  1  0
  7 22  1  0
 11 23  1  0
 12 24  1  0
 13 25  1  0
M  CHG  1   5   1
M  END
>  <score>  (2) 
-8.711

$$$$
=
     RDKit          3D

 25 25  0  0  0  0  0  0  0  0999 V2000
   -0.2740   68.7410   64.7170 O   0  0  0  0  0  0  0  0  0  0  0  0
    0.7850   68.3570   64.2430 C   0  0  0  0  0  0  0  0  0  0  0  0
    1.1130   68.6820   62.8960 N   0  0  0  0  0  0  0  0  0  0  0  0
    0.3500   69.3800   62.0490 C   0  0  0  0  0  0  0  0  0  0  0  0
   -0.8400   69.8580   62.4080 N   0  0  0  0  0  4  0  0  0  0  0  0
    0.7840   69.6090   60.8040 N   0  0  0  0  0  0  0  0  0  0  0  0
    1.8160   67.5420   64.9900 C   0  0  0  0  0  0  0  0  0  0  0  0
    3.0090   68.3690   65.4180 C   0  0  0  0  0  0  0  0  0  0  0  0
    4.1910   68.4080   64.6520 C   0  0  0  0  0  0  0  0  0  0  0  0
    4.3720   67.4640   63.2120 Cl  0  0  0  0  0  0  0  0  0  0  0  0
    5.2870   69.1810   65.0470 C   0  0  0  0  0  0  0  0  0  0  0  0
    5.2320   69.9210   66.2250 C   0  0  0  0  0  0  0  0  0  0  0  0
    4.0860   69.8770   67.0130 C   0  0  0  0  0  0  0  0  0  0  0  0
    2.9880   69.1050   66.6180 C   0  0  0  0  0  0  0  0  0  0  0  0
    1.6240   69.0780   67.6790 Cl  0  0  0  0  0  0  0  0  0  0  0  0
    2.0211   68.3488   62.5420 H   0  0  0  0  0  0  0  0  0  0  0  0
   -1.4053   70.3924   61.7329 H   0  0  0  0  0  0  0  0  0  0  0  0
   -1.1951   69.6933   63.3607 H   0  0  0  0  0  0  0  0  0  0  0  0
    0.2013   70.1461   60.1461 H   0  0  0  0  0  0  0  0  0  0  0  0
    1.7008   69.2482   60.5037 H   0  0  0  0  0  0  0  0  0  0  0  0
    1.3445   67.1127   65.8863 H   0  0  0  0  0  0  0  0  0  0  0  0
    2.1795   66.7580   64.3095 H   0  0  0  0  0  0  0  0  0  0  0  0
    6.1945   69.2045   64.4258 H   0  0  0  0  0  0  0  0  0  0  0  0
    6.0901   70.5373   66.5312 H   0  0  0  0  0  0  0  0  0  0  0  0
    4.0431   70.4514   67.9501 H   0  0  0  0  0  0  0  0  0  0  0  0
  2  1  2  0
  3  2  1  0
  4  3  1  0
  5  4  2  3
  6  4  1  0
  7  2  1  0
  8  7  1  0
  9  8  2  0
 10  9  1  0
 11  9  1  0
 12 11  2  0
 13 12  1  0
 14  8  1  0
 14 13  2  0
 15 14  1  0
  3 16  1  0
  5 17  1  0
  5 18  1  0
  6 19  1  0
  6 20  1  0
  7 21  1  0
  7 22  1  0
 11 23  1  0
 12 24  1  0
 13 25  1  0
M  CHG  1   5   1
M  END
>  <score>  (3) 
-8.007

$$$$
=
     RDKit          3D

 25 25  0  0  0  0  0  0  0  0999 V2000
   -0.2420   68.7420   64.7250 O   0  0  0  0  0  0  0  0  0  0  0  0
    0.8160   68.3620   64.2460 C   0  0  0  0  0  0  0  0  0  0  0  0
    1.1410   68.7010   62.9010 N   0  0  0  0  0  0  0  0  0  0  0  0
    0.3770   69.4070   62.0630 C   0  0  0  0  0  0  0  0  0  0  0  0
   -0.8120   69.8820   62.4290 N   0  0  0  0  0  4  0  0  0  0  0  0
    0.8090   69.6490   60.8200 N   0  0  0  0  0  0  0  0  0  0  0  0
    1.8480   67.5390   64.9820 C   0  0  0  0  0  0  0  0  0  0  0  0
    3.0220   68.3690   65.4520 C   0  0  0  0  0  0  0  0  0  0  0  0
    2.9640   69.1220   66.6420 C   0  0  0  0  0  0  0  0  0  0  0  0
    1.5250   69.1900   67.6030 Cl  0  0  0  0  0  0  0  0  0  0  0  0
    4.0550   69.8800   67.0760 C   0  0  0  0  0  0  0  0  0  0  0  0
    5.2250   69.9170   66.3240 C   0  0  0  0  0  0  0  0  0  0  0  0
    5.2980   69.2050   65.1300 C   0  0  0  0  0  0  0  0  0  0  0  0
    4.2080   68.4440   64.6950 C   0  0  0  0  0  0  0  0  0  0  0  0
    4.3730   67.6260   63.1820 Cl  0  0  0  0  0  0  0  0  0  0  0  0
    2.0483   68.3715   62.5418 H   0  0  0  0  0  0  0  0  0  0  0  0
   -1.3784   70.4232   61.7603 H   0  0  0  0  0  0  0  0  0  0  0  0
   -1.1652   69.7082   63.3808 H   0  0  0  0  0  0  0  0  0  0  0  0
    0.2251   70.1927   60.1686 H   0  0  0  0  0  0  0  0  0  0  0  0
    1.7255   69.2916   60.5146 H   0  0  0  0  0  0  0  0  0  0  0  0
    1.3705   67.0754   65.8578 H   0  0  0  0  0  0  0  0  0  0  0  0
    2.2323   66.7815   64.2830 H   0  0  0  0  0  0  0  0  0  0  0  0
    3.9885   70.4491   68.0150 H   0  0  0  0  0  0  0  0  0  0  0  0
    6.0872   70.5054   66.6709 H   0  0  0  0  0  0  0  0  0  0  0  0
    6.2167   69.2410   64.5261 H   0  0  0  0  0  0  0  0  0  0  0  0
  2  1  2  0
  3  2  1  0
  4  3  1  0
  5  4  2  3
  6  4  1  0
  7  2  1  0
  8  7  1  0
  9  8  2  0
 10  9  1  0
 11  9  1  0
 12 11  2  0
 13 12  1  0
 14  8  1  0
 14 13  2  0
 15 14  1  0
  3 16  1  0
  5 17  1  0
  5 18  1  0
  6 19  1  0
  6 20  1  0
  7 21  1  0
  7 22  1  0
 11 23  1  0
 12 24  1  0
 13 25  1  0
M  CHG  1   5   1
M  END
>  <score>  (4) 
-7.973

$$$$
=
     RDKit          3D

 25 25  0  0  0  0  0  0  0  0999 V2000
   -0.0480   68.4080   64.5550 O   0  0  0  0  0  0  0  0  0  0  0  0
   -0.1640   68.0820   65.7270 C   0  0  0  0  0  0  0  0  0  0  0  0
   -1.4460   68.1280   66.3460 N   0  0  0  0  0  0  0  0  0  0  0  0
   -2.5840   68.5200   65.7660 C   0  0  0  0  0  0  0  0  0  0  0  0
   -2.6230   68.9190   64.4960 N   0  0  0  0  0  4  0  0  0  0  0  0
   -3.7210   68.5170   66.4720 N   0  0  0  0  0  0  0  0  0  0  0  0
    0.9720   67.6140   66.6070 C   0  0  0  0  0  0  0  0  0  0  0  0
    2.3130   68.1470   66.1510 C   0  0  0  0  0  0  0  0  0  0  0  0
    3.0390   67.5280   65.1140 C   0  0  0  0  0  0  0  0  0  0  0  0
    2.4680   66.0860   64.3420 Cl  0  0  0  0  0  0  0  0  0  0  0  0
    4.2730   68.0300   64.6910 C   0  0  0  0  0  0  0  0  0  0  0  0
    4.8190   69.1530   65.3060 C   0  0  0  0  0  0  0  0  0  0  0  0
    4.1350   69.7650   66.3520 C   0  0  0  0  0  0  0  0  0  0  0  0
    2.8990   69.2660   66.7750 C   0  0  0  0  0  0  0  0  0  0  0  0
    2.1420   70.0650   68.1070 Cl  0  0  0  0  0  0  0  0  0  0  0  0
   -1.5008   67.8319   67.3310 H   0  0  0  0  0  0  0  0  0  0  0  0
   -3.5158   69.2156   64.0765 H   0  0  0  0  0  0  0  0  0  0  0  0
   -1.7604   68.9310   63.9332 H   0  0  0  0  0  0  0  0  0  0  0  0
   -4.6018   68.8180   66.0310 H   0  0  0  0  0  0  0  0  0  0  0  0
   -3.7152   68.2137   67.4563 H   0  0  0  0  0  0  0  0  0  0  0  0
    0.7866   67.9575   67.6354 H   0  0  0  0  0  0  0  0  0  0  0  0
    1.0104   66.5162   66.5491 H   0  0  0  0  0  0  0  0  0  0  0  0
    4.8139   67.5364   63.8702 H   0  0  0  0  0  0  0  0  0  0  0  0
    5.7855   69.5544   64.9672 H   0  0  0  0  0  0  0  0  0  0  0  0
    4.5687   70.6456   66.8485 H   0  0  0  0  0  0  0  0  0  0  0  0
  2  1  2  0
  3  2  1  0
  4  3  1  0
  5  4  2  3
  6  4  1  0
  7  2  1  0
  8  7  1  0
  9  8  2  0
 10  9  1  0
 11  9  1  0
 12 11  2  0
 13 12  1  0
 14  8  1  0
 14 13  2  0
 15 14  1  0
  3 16  1  0
  5 17  1  0
  5 18  1  0
  6 19  1  0
  6 20  1  0
  7 21  1  0
  7 22  1  0
 11 23  1  0
 12 24  1  0
 13 25  1  0
M  CHG  1   5   1
M  END
>  <score>  (5) 
-7.876

$$$$
=
     RDKit          3D

 25 25  0  0  0  0  0  0  0  0999 V2000
    1.2300   66.8290   66.1560 O   0  0  0  0  0  0  0  0  0  0  0  0
    0.7560   67.8580   65.7000 C   0  0  0  0  0  0  0  0  0  0  0  0
   -0.5480   68.2700   66.0990 N   0  0  0  0  0  0  0  0  0  0  0  0
   -1.3520   67.6190   66.9450 C   0  0  0  0  0  0  0  0  0  0  0  0
   -0.9880   66.4740   67.5180 N   0  0  0  0  0  4  0  0  0  0  0  0
   -2.5590   68.1220   67.2280 N   0  0  0  0  0  0  0  0  0  0  0  0
    1.4580   68.7670   64.7170 C   0  0  0  0  0  0  0  0  0  0  0  0
    2.8870   69.0590   65.1190 C   0  0  0  0  0  0  0  0  0  0  0  0
    3.2170   69.4570   66.4300 C   0  0  0  0  0  0  0  0  0  0  0  0
    2.0020   69.6960   67.6390 Cl  0  0  0  0  0  0  0  0  0  0  0  0
    4.5410   69.7170   66.7980 C   0  0  0  0  0  0  0  0  0  0  0  0
    5.5630   69.6010   65.8600 C   0  0  0  0  0  0  0  0  0  0  0  0
    5.2590   69.2370   64.5520 C   0  0  0  0  0  0  0  0  0  0  0  0
    3.9360   68.9740   64.1820 C   0  0  0  0  0  0  0  0  0  0  0  0
    3.6470   68.5680   62.5280 Cl  0  0  0  0  0  0  0  0  0  0  0  0
   -0.9036   69.1500   65.6989 H   0  0  0  0  0  0  0  0  0  0  0  0
   -1.6299   65.9955   68.1660 H   0  0  0  0  0  0  0  0  0  0  0  0
   -0.0644   66.0665   67.3134 H   0  0  0  0  0  0  0  0  0  0  0  0
   -3.1840   67.6257   67.8791 H   0  0  0  0  0  0  0  0  0  0  0  0
   -2.8632   69.0055   66.7947 H   0  0  0  0  0  0  0  0  0  0  0  0
    1.4610   68.2834   63.7290 H   0  0  0  0  0  0  0  0  0  0  0  0
    0.9137   69.7227   64.6970 H   0  0  0  0  0  0  0  0  0  0  0  0
    4.7753   70.0138   67.8310 H   0  0  0  0  0  0  0  0  0  0  0  0
    6.6056   69.7961   66.1514 H   0  0  0  0  0  0  0  0  0  0  0  0
    6.0628   69.1557   63.8055 H   0  0  0  0  0  0  0  0  0  0  0  0
  2  1  2  0
  3  2  1  0
  4  3  1  0
  5  4  2  3
  6  4  1  0
  7  2  1  0
  8  7  1  0
  9  8  2  0
 10  9  1  0
 11  9  1  0
 12 11  2  0
 13 12  1  0
 14  8  1  0
 14 13  2  0
 15 14  1  0
  3 16  1  0
  5 17  1  0
  5 18  1  0
  6 19  1  0
  6 20  1  0
  7 21  1  0
  7 22  1  0
 11 23  1  0
 12 24  1  0
 13 25  1  0
M  CHG  1   5   1
M  END
>  <score>  (6) 
-7.526

$$$$
=
     RDKit          3D

 25 25  0  0  0  0  0  0  0  0999 V2000
    5.4070   69.7570   66.0820 O   0  0  0  0  0  0  0  0  0  0  0  0
    4.1950   69.5970   66.0700 C   0  0  0  0  0  0  0  0  0  0  0  0
    3.4430   69.8310   67.2570 N   0  0  0  0  0  0  0  0  0  0  0  0
    3.9390   70.2090   68.4390 C   0  0  0  0  0  0  0  0  0  0  0  0
    5.2420   70.4130   68.6200 N   0  0  0  0  0  4  0  0  0  0  0  0
    3.1120   70.3900   69.4750 N   0  0  0  0  0  0  0  0  0  0  0  0
    3.3970   69.1610   64.8640 C   0  0  0  0  0  0  0  0  0  0  0  0
    3.5670   67.6890   64.5590 C   0  0  0  0  0  0  0  0  0  0  0  0
    4.5640   67.2300   63.6740 C   0  0  0  0  0  0  0  0  0  0  0  0
    5.6100   68.3270   62.8370 Cl  0  0  0  0  0  0  0  0  0  0  0  0
    4.7230   65.8680   63.4030 C   0  0  0  0  0  0  0  0  0  0  0  0
    3.8800   64.9330   63.9970 C   0  0  0  0  0  0  0  0  0  0  0  0
    2.8700   65.3630   64.8530 C   0  0  0  0  0  0  0  0  0  0  0  0
    2.7100   66.7260   65.1270 C   0  0  0  0  0  0  0  0  0  0  0  0
    1.4050   67.1710   66.1680 Cl  0  0  0  0  0  0  0  0  0  0  0  0
    2.4235   69.6965   67.1990 H   0  0  0  0  0  0  0  0  0  0  0  0
    5.5944   70.7040   69.5431 H   0  0  0  0  0  0  0  0  0  0  0  0
    5.8978   70.2798   67.8370 H   0  0  0  0  0  0  0  0  0  0  0  0
    3.4874   70.6813   70.3889 H   0  0  0  0  0  0  0  0  0  0  0  0
    2.0999   70.2381   69.3587 H   0  0  0  0  0  0  0  0  0  0  0  0
    2.3322   69.3613   65.0542 H   0  0  0  0  0  0  0  0  0  0  0  0
    3.7660   69.7273   63.9961 H   0  0  0  0  0  0  0  0  0  0  0  0
    5.5166   65.5340   62.7184 H   0  0  0  0  0  0  0  0  0  0  0  0
    4.0112   63.8604   63.7911 H   0  0  0  0  0  0  0  0  0  0  0  0
    2.1948   64.6283   65.3160 H   0  0  0  0  0  0  0  0  0  0  0  0
  2  1  2  0
  3  2  1  0
  4  3  1  0
  5  4  2  3
  6  4  1  0
  7  2  1  0
  8  7  1  0
  9  8  2  0
 10  9  1  0
 11  9  1  0
 12 11  2  0
 13 12  1  0
 14  8  1  0
 14 13  2  0
 15 14  1  0
  3 16  1  0
  5 17  1  0
  5 18  1  0
  6 19  1  0
  6 20  1  0
  7 21  1  0
  7 22  1  0
 11 23  1  0
 12 24  1  0
 13 25  1  0
M  CHG  1   5   1
M  END
>  <score>  (7) 
-7.385

$$$$
=
     RDKit          3D

 25 25  0  0  0  0  0  0  0  0999 V2000
    2.2740   66.0570   65.7710 O   0  0  0  0  0  0  0  0  0  0  0  0
    3.0110   66.6270   64.9810 C   0  0  0  0  0  0  0  0  0  0  0  0
    3.9230   65.8670   64.1950 N   0  0  0  0  0  0  0  0  0  0  0  0
    4.0790   64.5410   64.2360 C   0  0  0  0  0  0  0  0  0  0  0  0
    3.3600   63.7750   65.0550 N   0  0  0  0  0  4  0  0  0  0  0  0
    4.9810   63.9560   63.4400 N   0  0  0  0  0  0  0  0  0  0  0  0
    3.0390   68.1220   64.7550 C   0  0  0  0  0  0  0  0  0  0  0  0
    2.0080   68.5730   63.7440 C   0  0  0  0  0  0  0  0  0  0  0  0
    0.6640   68.7890   64.1080 C   0  0  0  0  0  0  0  0  0  0  0  0
    0.1000   68.4910   65.7170 Cl  0  0  0  0  0  0  0  0  0  0  0  0
   -0.2830   69.2140   63.1710 C   0  0  0  0  0  0  0  0  0  0  0  0
    0.0880   69.4190   61.8450 C   0  0  0  0  0  0  0  0  0  0  0  0
    1.4030   69.1850   61.4550 C   0  0  0  0  0  0  0  0  0  0  0  0
    2.3530   68.7610   62.3910 C   0  0  0  0  0  0  0  0  0  0  0  0
    3.9510   68.4570   61.8090 Cl  0  0  0  0  0  0  0  0  0  0  0  0
    4.5171   66.3875   63.5340 H   0  0  0  0  0  0  0  0  0  0  0  0
    3.5029   62.7550   65.0641 H   0  0  0  0  0  0  0  0  0  0  0  0
    2.6612   64.2027   65.6792 H   0  0  0  0  0  0  0  0  0  0  0  0
    5.1058   62.9340   63.4671 H   0  0  0  0  0  0  0  0  0  0  0  0
    5.5507   64.5276   62.8000 H   0  0  0  0  0  0  0  0  0  0  0  0
    2.8401   68.6274   65.7115 H   0  0  0  0  0  0  0  0  0  0  0  0
    4.0319   68.3824   64.3597 H   0  0  0  0  0  0  0  0  0  0  0  0
   -1.3237   69.3868   63.4825 H   0  0  0  0  0  0  0  0  0  0  0  0
   -0.6540   69.7639   61.1099 H   0  0  0  0  0  0  0  0  0  0  0  0
    1.6973   69.3340   60.4056 H   0  0  0  0  0  0  0  0  0  0  0  0
  2  1  2  0
  3  2  1  0
  4  3  1  0
  5  4  2  3
  6  4  1  0
  7  2  1  0
  8  7  1  0
  9  8  2  0
 10  9  1  0
 11  9  1  0
 12 11  2  0
 13 12  1  0
 14  8  1  0
 14 13  2  0
 15 14  1  0
  3 16  1  0
  5 17  1  0
  5 18  1  0
  6 19  1  0
  6 20  1  0
  7 21  1  0
  7 22  1  0
 11 23  1  0
 12 24  1  0
 13 25  1  0
M  CHG  1   5   1
M  END
>  <score>  (8) 
-7.179

$$$$
=
     RDKit          3D

 25 25  0  0  0  0  0  0  0  0999 V2000
    5.3350   68.5770   63.8870 O   0  0  0  0  0  0  0  0  0  0  0  0
    4.2990   68.3250   64.4820 C   0  0  0  0  0  0  0  0  0  0  0  0
    4.0580   68.9120   65.7570 N   0  0  0  0  0  0  0  0  0  0  0  0
    4.8840   69.7340   66.4110 C   0  0  0  0  0  0  0  0  0  0  0  0
    6.0600   70.0970   65.9030 N   0  0  0  0  0  4  0  0  0  0  0  0
    4.5290   70.2110   67.6100 N   0  0  0  0  0  0  0  0  0  0  0  0
    3.2090   67.4140   63.9640 C   0  0  0  0  0  0  0  0  0  0  0  0
    2.0150   68.1820   63.4390 C   0  0  0  0  0  0  0  0  0  0  0  0
    2.0120   68.7460   62.1470 C   0  0  0  0  0  0  0  0  0  0  0  0
    3.3950   68.6460   61.1100 Cl  0  0  0  0  0  0  0  0  0  0  0  0
    0.9030   69.4460   61.6630 C   0  0  0  0  0  0  0  0  0  0  0  0
   -0.2220   69.6140   62.4650 C   0  0  0  0  0  0  0  0  0  0  0  0
   -0.2320   69.0910   63.7540 C   0  0  0  0  0  0  0  0  0  0  0  0
    0.8750   68.3880   64.2400 C   0  0  0  0  0  0  0  0  0  0  0  0
    0.7900   67.8110   65.8660 Cl  0  0  0  0  0  0  0  0  0  0  0  0
    3.1656   68.6820   66.2170 H   0  0  0  0  0  0  0  0  0  0  0  0
    6.6752   70.7322   66.4312 H   0  0  0  0  0  0  0  0  0  0  0  0
    6.3546   69.7426   64.9819 H   0  0  0  0  0  0  0  0  0  0  0  0
    5.1608   70.8450   68.1197 H   0  0  0  0  0  0  0  0  0  0  0  0
    3.6240   69.9441   68.0231 H   0  0  0  0  0  0  0  0  0  0  0  0
    3.6198   66.7997   63.1492 H   0  0  0  0  0  0  0  0  0  0  0  0
    2.8647   66.7924   64.8037 H   0  0  0  0  0  0  0  0  0  0  0  0
    0.9195   69.8650   60.6460 H   0  0  0  0  0  0  0  0  0  0  0  0
   -1.0983   70.1573   62.0817 H   0  0  0  0  0  0  0  0  0  0  0  0
   -1.1153   69.2311   64.3944 H   0  0  0  0  0  0  0  0  0  0  0  0
  2  1  2  0
  3  2  1  0
  4  3  1  0
  5  4  2  3
  6  4  1  0
  7  2  1  0
  8  7  1  0
  9  8  2  0
 10  9  1  0
 11  9  1  0
 12 11  2  0
 13 12  1  0
 14  8  1  0
 14 13  2  0
 15 14  1  0
  3 16  1  0
  5 17  1  0
  5 18  1  0
  6 19  1  0
  6 20  1  0
  7 21  1  0
  7 22  1  0
 11 23  1  0
 12 24  1  0
 13 25  1  0
M  CHG  1   5   1
M  END
>  <score>  (9) 
-6.982

$$$$
