=
     RDKit          3D

 28 29  0  0  0  0  0  0  0  0999 V2000
    5.1660   68.9000   64.2830 C   0  0  0  0  0  0  0  0  0  0  0  0
    4.5460   67.8880   63.3290 C   0  0  1  0  0  0  0  0  0  0  0  0
    3.3570   67.3630   63.9580 O   0  0  0  0  0  0  0  0  0  0  0  0
    2.2050   67.8180   63.2260 C   0  0  2  0  0  0  0  0  0  0  0  0
    2.6860   68.9430   62.2880 C   0  0  1  0  0  0  0  0  0  0  0  0
    4.1130   68.5130   62.0080 C   0  0  2  0  0  0  0  0  0  0  0  0
    1.1410   68.2450   64.1470 N   0  0  0  0  0  0  0  0  0  0  0  0
    1.3840   68.4310   65.5000 C   0  0  0  0  0  0  0  0  0  0  0  0
    0.4180   68.7900   66.3450 C   0  0  0  0  0  0  0  0  0  0  0  0
    0.6410   68.9800   67.6580 F   0  0  0  0  0  0  0  0  0  0  0  0
   -0.9540   68.9940   65.8460 C   0  0  0  0  0  0  0  0  0  0  0  0
   -1.8800   69.3440   66.5670 O   0  0  0  0  0  0  0  0  0  0  0  0
   -1.1170   68.7630   64.5040 N   0  0  0  0  0  0  0  0  0  0  0  0
   -0.1330   68.4120   63.6160 C   0  0  0  0  0  0  0  0  0  0  0  0
   -0.3920   68.2850   62.4210 O   0  0  0  0  0  0  0  0  0  0  0  0
    4.1090   67.5170   60.9740 O   0  0  0  0  0  0  0  0  0  0  0  0
    1.9700   69.0580   61.0570 O   0  0  0  0  0  0  0  0  0  0  0  0
    4.9759   68.5896   65.3210 H   0  0  0  0  0  0  0  0  0  0  0  0
    6.2509   68.9515   64.1086 H   0  0  0  0  0  0  0  0  0  0  0  0
    4.7192   69.8899   64.1086 H   0  0  0  0  0  0  0  0  0  0  0  0
    5.3035   67.1189   63.1176 H   0  0  0  0  0  0  0  0  0  0  0  0
    1.7597   67.0127   62.6234 H   0  0  0  0  0  0  0  0  0  0  0  0
    2.5505   69.9312   62.7518 H   0  0  0  0  0  0  0  0  0  0  0  0
    4.7706   69.3307   61.6779 H   0  0  0  0  0  0  0  0  0  0  0  0
    2.4025   68.2779   65.8862 H   0  0  0  0  0  0  0  0  0  0  0  0
   -2.0703   68.8628   64.1269 H   0  0  0  0  0  0  0  0  0  0  0  0
    4.1054   66.6158   61.3839 H   0  0  0  0  0  0  0  0  0  0  0  0
    1.0106   69.2121   61.2464 H   0  0  0  0  0  0  0  0  0  0  0  0
  2  1  1  0
  3  2  1  0
  4  3  1  0
  5  4  1  0
  6  5  1  0
  6  2  1  0
  7  4  1  0
  8  7  1  0
  9  8  2  0
 10  9  1  0
 11  9  1  0
 12 11  2  0
 13 11  1  0
 14 13  1  0
 14  7  1  0
 15 14  2  0
 16  6  1  0
 17  5  1  0
  1 18  1  0
  1 19  1  0
  1 20  1  0
  2 21  1  6
  4 22  1  6
  5 23  1  1
  6 24  1  6
  8 25  1  0
 13 26  1  0
 16 27  1  0
 17 28  1  0
M  END
>  <score>  (1) 
-7.706

$$$$
=
     RDKit          3D

 28 29  0  0  0  0  0  0  0  0999 V2000
    4.6930   65.2820   64.0490 C   0  0  0  0  0  0  0  0  0  0  0  0
    3.8400   66.2970   63.3000 C   0  0  1  0  0  0  0  0  0  0  0  0
    3.2740   67.1990   64.2740 O   0  0  0  0  0  0  0  0  0  0  0  0
    3.8610   68.5020   64.0960 C   0  0  2  0  0  0  0  0  0  0  0  0
    5.0850   68.3180   63.1770 C   0  0  1  0  0  0  0  0  0  0  0  0
    4.6500   67.1420   62.3240 C   0  0  2  0  0  0  0  0  0  0  0  0
    4.1950   69.1010   65.3970 N   0  0  0  0  0  0  0  0  0  0  0  0
    5.5000   69.4290   65.7320 C   0  0  0  0  0  0  0  0  0  0  0  0
    5.8130   69.9450   66.9200 C   0  0  0  0  0  0  0  0  0  0  0  0
    7.0740   70.2730   67.2550 F   0  0  0  0  0  0  0  0  0  0  0  0
    4.7550   70.1760   67.9200 C   0  0  0  0  0  0  0  0  0  0  0  0
    4.9740   70.6680   69.0200 O   0  0  0  0  0  0  0  0  0  0  0  0
    3.4980   69.8010   67.5230 N   0  0  0  0  0  0  0  0  0  0  0  0
    3.1530   69.2860   66.3000 C   0  0  0  0  0  0  0  0  0  0  0  0
    1.9780   69.0360   66.0390 O   0  0  0  0  0  0  0  0  0  0  0  0
    3.8030   67.6160   61.2670 O   0  0  0  0  0  0  0  0  0  0  0  0
    5.3880   69.4330   62.3360 O   0  0  0  0  0  0  0  0  0  0  0  0
    4.5702   65.4281   65.1323 H   0  0  0  0  0  0  0  0  0  0  0  0
    4.3749   64.2645   63.7779 H   0  0  0  0  0  0  0  0  0  0  0  0
    5.7501   65.4202   63.7779 H   0  0  0  0  0  0  0  0  0  0  0  0
    3.0817   65.7409   62.7293 H   0  0  0  0  0  0  0  0  0  0  0  0
    3.1600   69.2069   63.6251 H   0  0  0  0  0  0  0  0  0  0  0  0
    6.0054   68.1865   63.7648 H   0  0  0  0  0  0  0  0  0  0  0  0
    5.4820   66.5926   61.8593 H   0  0  0  0  0  0  0  0  0  0  0  0
    6.2996   69.2584   64.9961 H   0  0  0  0  0  0  0  0  0  0  0  0
    2.7392   69.9173   68.2097 H   0  0  0  0  0  0  0  0  0  0  0  0
    3.0083   68.0607   61.6552 H   0  0  0  0  0  0  0  0  0  0  0  0
    5.6020   70.2205   62.8965 H   0  0  0  0  0  0  0  0  0  0  0  0
  2  1  1  0
  3  2  1  0
  4  3  1  0
  5  4  1  0
  6  5  1  0
  6  2  1  0
  7  4  1  0
  8  7  1  0
  9  8  2  0
 10  9  1  0
 11  9  1  0
 12 11  2  0
 13 11  1  0
 14 13  1  0
 14  7  1  0
 15 14  2  0
 16  6  1  0
 17  5  1  0
  1 18  1  0
  1 19  1  0
  1 20  1  0
  2 21  1  6
  4 22  1  6
  5 23  1  1
  6 24  1  6
  8 25  1  0
 13 26  1  0
 16 27  1  0
 17 28  1  0
M  END
>  <score>  (2) 
-7.703

$$$$
=
     RDKit          3D

 28 29  0  0  0  0  0  0  0  0999 V2000
   -1.8090   67.9860   66.7010 C   0  0  0  0  0  0  0  0  0  0  0  0
   -0.5650   67.2450   67.1710 C   0  0  1  0  0  0  0  0  0  0  0  0
    0.1650   66.8240   65.9980 O   0  0  0  0  0  0  0  0  0  0  0  0
    1.3980   67.5640   65.9290 C   0  0  2  0  0  0  0  0  0  0  0  0
    1.2770   68.7290   66.9310 C   0  0  1  0  0  0  0  0  0  0  0  0
    0.3720   68.1270   67.9880 C   0  0  2  0  0  0  0  0  0  0  0  0
    1.6590   68.0060   64.5510 N   0  0  0  0  0  0  0  0  0  0  0  0
    0.7150   68.7180   63.8260 C   0  0  0  0  0  0  0  0  0  0  0  0
    0.9340   69.0970   62.5670 C   0  0  0  0  0  0  0  0  0  0  0  0
    0.0290   69.7920   61.8540 F   0  0  0  0  0  0  0  0  0  0  0  0
    2.2080   68.7540   61.9100 C   0  0  0  0  0  0  0  0  0  0  0  0
    2.4790   69.0910   60.7640 O   0  0  0  0  0  0  0  0  0  0  0  0
    3.0760   68.0270   62.6830 N   0  0  0  0  0  0  0  0  0  0  0  0
    2.8770   67.6440   63.9850 C   0  0  0  0  0  0  0  0  0  0  0  0
    3.7550   67.0380   64.5960 O   0  0  0  0  0  0  0  0  0  0  0  0
    1.1590   67.3160   68.8740 O   0  0  0  0  0  0  0  0  0  0  0  0
    2.5050   69.1450   67.5320 O   0  0  0  0  0  0  0  0  0  0  0  0
   -2.3837   68.3283   67.5742 H   0  0  0  0  0  0  0  0  0  0  0  0
   -1.5115   68.8542   66.0946 H   0  0  0  0  0  0  0  0  0  0  0  0
   -2.4307   67.3109   66.0946 H   0  0  0  0  0  0  0  0  0  0  0  0
   -0.8929   66.4073   67.8041 H   0  0  0  0  0  0  0  0  0  0  0  0
    2.2643   66.9437   66.2025 H   0  0  0  0  0  0  0  0  0  0  0  0
    0.9158   69.6422   66.4354 H   0  0  0  0  0  0  0  0  0  0  0  0
   -0.1565   68.8709   68.6022 H   0  0  0  0  0  0  0  0  0  0  0  0
   -0.2414   68.9772   64.3035 H   0  0  0  0  0  0  0  0  0  0  0  0
    3.9627   67.7409   62.2439 H   0  0  0  0  0  0  0  0  0  0  0  0
    0.9388   67.5429   69.8121 H   0  0  0  0  0  0  0  0  0  0  0  0
    2.4168   69.1151   68.5176 H   0  0  0  0  0  0  0  0  0  0  0  0
  2  1  1  0
  3  2  1  0
  4  3  1  0
  5  4  1  0
  6  5  1  0
  6  2  1  0
  7  4  1  0
  8  7  1  0
  9  8  2  0
 10  9  1  0
 11  9  1  0
 12 11  2  0
 13 11  1  0
 14 13  1  0
 14  7  1  0
 15 14  2  0
 16  6  1  0
 17  5  1  0
  1 18  1  0
  1 19  1  0
  1 20  1  0
  2 21  1  1
  4 22  1  1
  5 23  1  6
  6 24  1  1
  8 25  1  0
 13 26  1  0
 16 27  1  0
 17 28  1  0
M  END
>  <score>  (3) 
-7.592

$$$$
=
     RDKit          3D

 28 29  0  0  0  0  0  0  0  0999 V2000
    0.6550   67.5550   67.6650 C   0  0  0  0  0  0  0  0  0  0  0  0
    0.7500   68.0960   66.2440 C   0  0  1  0  0  0  0  0  0  0  0  0
    1.5840   69.2740   66.2780 O   0  0  0  0  0  0  0  0  0  0  0  0
    2.8120   68.9930   65.5820 C   0  0  2  0  0  0  0  0  0  0  0  0
    2.8750   67.4650   65.3860 C   0  0  1  0  0  0  0  0  0  0  0  0
    1.4040   67.1120   65.2820 C   0  0  2  0  0  0  0  0  0  0  0  0
    3.9620   69.5320   66.3220 N   0  0  0  0  0  0  0  0  0  0  0  0
    3.8890   69.8040   67.6800 C   0  0  0  0  0  0  0  0  0  0  0  0
    4.9190   70.3190   68.3510 C   0  0  0  0  0  0  0  0  0  0  0  0
    4.8630   70.5820   69.6690 F   0  0  0  0  0  0  0  0  0  0  0  0
    6.1770   70.6200   67.6440 C   0  0  0  0  0  0  0  0  0  0  0  0
    7.1650   71.0740   68.2070 O   0  0  0  0  0  0  0  0  0  0  0  0
    6.1600   70.3490   66.3010 N   0  0  0  0  0  0  0  0  0  0  0  0
    5.1180   69.8020   65.5970 C   0  0  0  0  0  0  0  0  0  0  0  0
    5.2400   69.5540   64.3990 O   0  0  0  0  0  0  0  0  0  0  0  0
    0.9540   67.3640   63.9430 O   0  0  0  0  0  0  0  0  0  0  0  0
    3.5570   67.0290   64.2080 O   0  0  0  0  0  0  0  0  0  0  0  0
    0.7994   68.3776   68.3809 H   0  0  0  0  0  0  0  0  0  0  0  0
   -0.3361   67.1037   67.8200 H   0  0  0  0  0  0  0  0  0  0  0  0
    1.4331   66.7931   67.8200 H   0  0  0  0  0  0  0  0  0  0  0  0
   -0.2728   68.2963   65.8922 H   0  0  0  0  0  0  0  0  0  0  0  0
    2.8463   69.4839   64.5982 H   0  0  0  0  0  0  0  0  0  0  0  0
    3.4409   66.9845   66.1977 H   0  0  0  0  0  0  0  0  0  0  0  0
    1.1774   66.0610   65.5145 H   0  0  0  0  0  0  0  0  0  0  0  0
    2.9544   69.5886   68.2186 H   0  0  0  0  0  0  0  0  0  0  0  0
    7.0117   70.5782   65.7691 H   0  0  0  0  0  0  0  0  0  0  0  0
    0.0906   67.8475   63.9706 H   0  0  0  0  0  0  0  0  0  0  0  0
    4.3626   66.5140   64.4646 H   0  0  0  0  0  0  0  0  0  0  0  0
  2  1  1  0
  3  2  1  0
  4  3  1  0
  5  4  1  0
  6  5  1  0
  6  2  1  0
  7  4  1  0
  8  7  1  0
  9  8  2  0
 10  9  1  0
 11  9  1  0
 12 11  2  0
 13 11  1  0
 14 13  1  0
 14  7  1  0
 15 14  2  0
 16  6  1  0
 17  5  1  0
  1 18  1  0
  1 19  1  0
  1 20  1  0
  2 21  1  6
  4 22  1  6
  5 23  1  1
  6 24  1  1
  8 25  1  0
 13 26  1  0
 16 27  1  0
 17 28  1  0
M  END
>  <score>  (4) 
-7.478

$$$$
=
     RDKit          3D

 28 29  0  0  0  0  0  0  0  0999 V2000
    1.9430   68.7240   62.1610 C   0  0  0  0  0  0  0  0  0  0  0  0
    2.8990   68.6310   63.3430 C   0  0  1  0  0  0  0  0  0  0  0  0
    2.1870   69.0730   64.5180 O   0  0  0  0  0  0  0  0  0  0  0  0
    1.9930   67.9470   65.3940 C   0  0  2  0  0  0  0  0  0  0  0  0
    2.3160   66.6820   64.5730 C   0  0  1  0  0  0  0  0  0  0  0  0
    3.3660   67.2050   63.6110 C   0  0  2  0  0  0  0  0  0  0  0  0
    0.6300   67.9490   65.9450 N   0  0  0  0  0  0  0  0  0  0  0  0
   -0.4180   68.5760   65.2890 C   0  0  0  0  0  0  0  0  0  0  0  0
   -1.6500   68.6060   65.7970 C   0  0  0  0  0  0  0  0  0  0  0  0
   -2.6760   69.2050   65.1680 F   0  0  0  0  0  0  0  0  0  0  0  0
   -1.9220   67.9650   67.0960 C   0  0  0  0  0  0  0  0  0  0  0  0
   -3.0350   67.9390   67.6060 O   0  0  0  0  0  0  0  0  0  0  0  0
   -0.8290   67.3920   67.6940 N   0  0  0  0  0  0  0  0  0  0  0  0
    0.4400   67.3330   67.1780 C   0  0  0  0  0  0  0  0  0  0  0  0
    1.3310   66.7430   67.7850 O   0  0  0  0  0  0  0  0  0  0  0  0
    4.6400   67.2240   64.2710 O   0  0  0  0  0  0  0  0  0  0  0  0
    2.8550   65.5910   65.3230 O   0  0  0  0  0  0  0  0  0  0  0  0
    0.9118   68.8243   62.5305 H   0  0  0  0  0  0  0  0  0  0  0  0
    2.2003   69.6014   61.5494 H   0  0  0  0  0  0  0  0  0  0  0  0
    2.0264   67.8135   61.5494 H   0  0  0  0  0  0  0  0  0  0  0  0
    3.7810   69.2462   63.1114 H   0  0  0  0  0  0  0  0  0  0  0  0
    2.6587   67.9890   66.2687 H   0  0  0  0  0  0  0  0  0  0  0  0
    1.4057   66.2567   64.1253 H   0  0  0  0  0  0  0  0  0  0  0  0
    3.4762   66.6035   62.6966 H   0  0  0  0  0  0  0  0  0  0  0  0
   -0.2274   69.0629   64.3212 H   0  0  0  0  0  0  0  0  0  0  0  0
   -0.9754   66.9649   68.6198 H   0  0  0  0  0  0  0  0  0  0  0  0
    4.5037   67.2220   65.2516 H   0  0  0  0  0  0  0  0  0  0  0  0
    2.7625   65.7782   66.2907 H   0  0  0  0  0  0  0  0  0  0  0  0
  2  1  1  0
  3  2  1  0
  4  3  1  0
  5  4  1  0
  6  5  1  0
  6  2  1  0
  7  4  1  0
  8  7  1  0
  9  8  2  0
 10  9  1  0
 11  9  1  0
 12 11  2  0
 13 11  1  0
 14 13  1  0
 14  7  1  0
 15 14  2  0
 16  6  1  0
 17  5  1  0
  1 18  1  0
  1 19  1  0
  1 20  1  0
  2 21  1  6
  4 22  1  1
  5 23  1  6
  6 24  1  6
  8 25  1  0
 13 26  1  0
 16 27  1  0
 17 28  1  0
M  END
>  <score>  (5) 
-7.405

$$$$
=
     RDKit          3D

 28 29  0  0  0  0  0  0  0  0999 V2000
    4.1690   65.5760   63.8240 C   0  0  0  0  0  0  0  0  0  0  0  0
    4.4360   66.9400   63.2000 C   0  0  1  0  0  0  0  0  0  0  0  0
    3.1590   67.5590   62.9360 O   0  0  0  0  0  0  0  0  0  0  0  0
    3.0010   68.6900   63.8120 C   0  0  2  0  0  0  0  0  0  0  0  0
    4.0930   68.5730   64.8940 C   0  0  1  0  0  0  0  0  0  0  0  0
    5.2010   67.8740   64.1310 C   0  0  2  0  0  0  0  0  0  0  0  0
    1.6390   68.7310   64.3640 N   0  0  0  0  0  0  0  0  0  0  0  0
    1.3860   68.4450   65.6970 C   0  0  0  0  0  0  0  0  0  0  0  0
    0.1500   68.4520   66.1970 C   0  0  0  0  0  0  0  0  0  0  0  0
   -0.1080   68.1820   67.4890 F   0  0  0  0  0  0  0  0  0  0  0  0
   -0.9920   68.7650   65.3200 C   0  0  0  0  0  0  0  0  0  0  0  0
   -2.1480   68.8090   65.7230 O   0  0  0  0  0  0  0  0  0  0  0  0
   -0.6630   69.0090   64.0120 N   0  0  0  0  0  0  0  0  0  0  0  0
    0.6020   69.0260   63.4840 C   0  0  0  0  0  0  0  0  0  0  0  0
    0.7790   69.3120   62.3010 O   0  0  0  0  0  0  0  0  0  0  0  0
    5.9270   68.8440   63.3610 O   0  0  0  0  0  0  0  0  0  0  0  0
    4.5770   69.8160   65.4080 O   0  0  0  0  0  0  0  0  0  0  0  0
    4.1863   65.6646   64.9203 H   0  0  0  0  0  0  0  0  0  0  0  0
    3.1825   65.2118   63.5011 H   0  0  0  0  0  0  0  0  0  0  0  0
    4.9454   64.8668   63.5011 H   0  0  0  0  0  0  0  0  0  0  0  0
    5.0398   66.7819   62.2942 H   0  0  0  0  0  0  0  0  0  0  0  0
    3.1248   69.6428   63.2765 H   0  0  0  0  0  0  0  0  0  0  0  0
    3.7108   68.0603   65.7890 H   0  0  0  0  0  0  0  0  0  0  0  0
    5.9257   67.3515   64.7728 H   0  0  0  0  0  0  0  0  0  0  0  0
    2.2294   68.2054   66.3612 H   0  0  0  0  0  0  0  0  0  0  0  0
   -1.4408   69.1977   63.3636 H   0  0  0  0  0  0  0  0  0  0  0  0
    6.3939   69.4678   63.9718 H   0  0  0  0  0  0  0  0  0  0  0  0
    4.5670   69.7902   66.3976 H   0  0  0  0  0  0  0  0  0  0  0  0
  2  1  1  0
  3  2  1  0
  4  3  1  0
  5  4  1  0
  6  5  1  0
  6  2  1  0
  7  4  1  0
  8  7  1  0
  9  8  2  0
 10  9  1  0
 11  9  1  0
 12 11  2  0
 13 11  1  0
 14 13  1  0
 14  7  1  0
 15 14  2  0
 16  6  1  0
 17  5  1  0
  1 18  1  0
  1 19  1  0
  1 20  1  0
  2 21  1  6
  4 22  1  6
  5 23  1  1
  6 24  1  1
  8 25  1  0
 13 26  1  0
 16 27  1  0
 17 28  1  0
M  END
>  <score>  (6) 
-7.361

$$$$
=
     RDKit          3D

 28 29  0  0  0  0  0  0  0  0999 V2000
    1.0350   67.3030   68.3810 C   0  0  0  0  0  0  0  0  0  0  0  0
    0.6120   68.6700   67.8590 C   0  0  1  0  0  0  0  0  0  0  0  0
    1.5750   69.0780   66.8640 O   0  0  0  0  0  0  0  0  0  0  0  0
    0.9350   69.0850   65.5750 C   0  0  2  0  0  0  0  0  0  0  0  0
   -0.4020   68.3360   65.7350 C   0  0  1  0  0  0  0  0  0  0  0  0
   -0.7520   68.6440   67.1790 C   0  0  2  0  0  0  0  0  0  0  0  0
    1.8150   68.4930   64.5570 N   0  0  0  0  0  0  0  0  0  0  0  0
    2.8920   67.6930   64.9040 C   0  0  0  0  0  0  0  0  0  0  0  0
    3.7100   67.1770   63.9880 C   0  0  0  0  0  0  0  0  0  0  0  0
    4.7560   66.3940   64.3110 F   0  0  0  0  0  0  0  0  0  0  0  0
    3.4810   67.4590   62.5590 C   0  0  0  0  0  0  0  0  0  0  0  0
    4.1830   66.9970   61.6680 O   0  0  0  0  0  0  0  0  0  0  0  0
    2.4140   68.2790   62.3000 N   0  0  0  0  0  0  0  0  0  0  0  0
    1.5500   68.8040   63.2260 C   0  0  0  0  0  0  0  0  0  0  0  0
    0.5920   69.4860   62.8670 O   0  0  0  0  0  0  0  0  0  0  0  0
   -1.3580   69.9440   67.2480 O   0  0  0  0  0  0  0  0  0  0  0  0
   -1.4580   68.7830   64.8810 O   0  0  0  0  0  0  0  0  0  0  0  0
    1.0318   67.3135   69.4809 H   0  0  0  0  0  0  0  0  0  0  0  0
    0.3314   66.5387   68.0195 H   0  0  0  0  0  0  0  0  0  0  0  0
    2.0474   67.0697   68.0195 H   0  0  0  0  0  0  0  0  0  0  0  0
    0.5578   69.3548   68.7181 H   0  0  0  0  0  0  0  0  0  0  0  0
    0.7340   70.1078   65.2236 H   0  0  0  0  0  0  0  0  0  0  0  0
   -0.2944   67.2740   65.4694 H   0  0  0  0  0  0  0  0  0  0  0  0
   -1.4521   67.9281   67.6343 H   0  0  0  0  0  0  0  0  0  0  0  0
    3.0768   67.4778   65.9668 H   0  0  0  0  0  0  0  0  0  0  0  0
    2.2447   68.5247   61.3142 H   0  0  0  0  0  0  0  0  0  0  0  0
   -1.4783   70.2021   68.1962 H   0  0  0  0  0  0  0  0  0  0  0  0
   -2.2151   69.1035   65.4325 H   0  0  0  0  0  0  0  0  0  0  0  0
  2  1  1  0
  3  2  1  0
  4  3  1  0
  5  4  1  0
  6  5  1  0
  6  2  1  0
  7  4  1  0
  8  7  1  0
  9  8  2  0
 10  9  1  0
 11  9  1  0
 12 11  2  0
 13 11  1  0
 14 13  1  0
 14  7  1  0
 15 14  2  0
 16  6  1  0
 17  5  1  0
  1 18  1  0
  1 19  1  0
  1 20  1  0
  2 21  1  1
  4 22  1  6
  5 23  1  1
  6 24  1  1
  8 25  1  0
 13 26  1  0
 16 27  1  0
 17 28  1  0
M  END
>  <score>  (7) 
-7.252

$$$$
=
     RDKit          3D

 28 29  0  0  0  0  0  0  0  0999 V2000
   -1.1410   68.7190   65.4450 C   0  0  0  0  0  0  0  0  0  0  0  0
   -0.4470   67.9210   66.5410 C   0  0  1  0  0  0  0  0  0  0  0  0
    0.4360   66.9740   65.9030 O   0  0  0  0  0  0  0  0  0  0  0  0
    1.7970   67.3470   66.1830 C   0  0  2  0  0  0  0  0  0  0  0  0
    1.7600   68.7790   66.7530 C   0  0  1  0  0  0  0  0  0  0  0  0
    0.4120   68.7920   67.4490 C   0  0  2  0  0  0  0  0  0  0  0  0
    2.6260   67.2250   64.9740 N   0  0  0  0  0  0  0  0  0  0  0  0
    2.8530   68.3060   64.1360 C   0  0  0  0  0  0  0  0  0  0  0  0
    3.5800   68.1940   63.0250 C   0  0  0  0  0  0  0  0  0  0  0  0
    3.8120   69.2360   62.2060 F   0  0  0  0  0  0  0  0  0  0  0  0
    4.1620   66.8910   62.6580 C   0  0  0  0  0  0  0  0  0  0  0  0
    4.8560   66.7280   61.6620 O   0  0  0  0  0  0  0  0  0  0  0  0
    3.8690   65.8680   63.5220 N   0  0  0  0  0  0  0  0  0  0  0  0
    3.1410   65.9660   64.6790 C   0  0  0  0  0  0  0  0  0  0  0  0
    2.9890   64.9850   65.4040 O   0  0  0  0  0  0  0  0  0  0  0  0
    0.5430   68.1750   68.7390 O   0  0  0  0  0  0  0  0  0  0  0  0
    2.7890   69.0860   67.6970 O   0  0  0  0  0  0  0  0  0  0  0  0
   -1.7978   69.4742   65.9013 H   0  0  0  0  0  0  0  0  0  0  0  0
   -0.3855   69.2189   64.8211 H   0  0  0  0  0  0  0  0  0  0  0  0
   -1.7409   68.0402   64.8211 H   0  0  0  0  0  0  0  0  0  0  0  0
   -1.2267   67.4449   67.1536 H   0  0  0  0  0  0  0  0  0  0  0  0
    2.2612   66.6770   66.9217 H   0  0  0  0  0  0  0  0  0  0  0  0
    1.9133   69.5257   65.9600 H   0  0  0  0  0  0  0  0  0  0  0  0
   -0.0026   69.7989   67.6049 H   0  0  0  0  0  0  0  0  0  0  0  0
    2.4208   69.2836   64.3957 H   0  0  0  0  0  0  0  0  0  0  0  0
    4.2311   64.9351   63.2780 H   0  0  0  0  0  0  0  0  0  0  0  0
    0.3990   68.8534   69.4455 H   0  0  0  0  0  0  0  0  0  0  0  0
    2.4360   68.9807   68.6159 H   0  0  0  0  0  0  0  0  0  0  0  0
  2  1  1  0
  3  2  1  0
  4  3  1  0
  5  4  1  0
  6  5  1  0
  6  2  1  0
  7  4  1  0
  8  7  1  0
  9  8  2  0
 10  9  1  0
 11  9  1  0
 12 11  2  0
 13 11  1  0
 14 13  1  0
 14  7  1  0
 15 14  2  0
 16  6  1  0
 17  5  1  0
  1 18  1  0
  1 19  1  0
  1 20  1  0
  2 21  1  1
  4 22  1  1
  5 23  1  6
  6 24  1  1
  8 25  1  0
 13 26  1  0
 16 27  1  0
 17 28  1  0
M  END
>  <score>  (8) 
-7.211

$$$$
=
     RDKit          3D

 28 29  0  0  0  0  0  0  0  0999 V2000
    3.0000   69.3550   67.1600 C   0  0  0  0  0  0  0  0  0  0  0  0
    1.6100   68.8560   66.7840 C   0  0  1  0  0  0  0  0  0  0  0  0
    1.3310   69.3060   65.4410 O   0  0  0  0  0  0  0  0  0  0  0  0
    1.2910   68.1630   64.5670 C   0  0  2  0  0  0  0  0  0  0  0  0
    1.8950   66.9800   65.3510 C   0  0  1  0  0  0  0  0  0  0  0  0
    1.5140   67.3350   66.7750 C   0  0  2  0  0  0  0  0  0  0  0  0
    1.9980   68.4480   63.3100 N   0  0  0  0  0  0  0  0  0  0  0  0
    3.3830   68.4550   63.2400 C   0  0  0  0  0  0  0  0  0  0  0  0
    4.0290   68.7410   62.1100 C   0  0  0  0  0  0  0  0  0  0  0  0
    5.3720   68.7450   62.0280 F   0  0  0  0  0  0  0  0  0  0  0  0
    3.2670   69.0670   60.8920 C   0  0  0  0  0  0  0  0  0  0  0  0
    3.8000   69.3170   59.8190 O   0  0  0  0  0  0  0  0  0  0  0  0
    1.9050   69.0650   61.0500 N   0  0  0  0  0  0  0  0  0  0  0  0
    1.2210   68.7550   62.1970 C   0  0  0  0  0  0  0  0  0  0  0  0
   -0.0080   68.7360   62.2030 O   0  0  0  0  0  0  0  0  0  0  0  0
    0.1570   66.9300   67.0130 O   0  0  0  0  0  0  0  0  0  0  0  0
    1.3640   65.6950   65.0190 O   0  0  0  0  0  0  0  0  0  0  0  0
    3.0936   69.3886   68.2555 H   0  0  0  0  0  0  0  0  0  0  0  0
    3.7583   68.6730   66.7480 H   0  0  0  0  0  0  0  0  0  0  0  0
    3.1514   70.3636   66.7480 H   0  0  0  0  0  0  0  0  0  0  0  0
    0.9006   69.2441   67.5298 H   0  0  0  0  0  0  0  0  0  0  0  0
    0.2625   67.9106   64.2695 H   0  0  0  0  0  0  0  0  0  0  0  0
    2.9693   66.8718   65.1407 H   0  0  0  0  0  0  0  0  0  0  0  0
    2.1424   66.8550   67.5397 H   0  0  0  0  0  0  0  0  0  0  0  0
    3.9649   68.2177   64.1428 H   0  0  0  0  0  0  0  0  0  0  0  0
    1.3410   69.3213   60.2271 H   0  0  0  0  0  0  0  0  0  0  0  0
   -0.0066   66.8812   67.9882 H   0  0  0  0  0  0  0  0  0  0  0  0
    1.1586   65.1980   65.8502 H   0  0  0  0  0  0  0  0  0  0  0  0
  2  1  1  0
  3  2  1  0
  4  3  1  0
  5  4  1  0
  6  5  1  0
  6  2  1  0
  7  4  1  0
  8  7  1  0
  9  8  2  0
 10  9  1  0
 11  9  1  0
 12 11  2  0
 13 11  1  0
 14 13  1  0
 14  7  1  0
 15 14  2  0
 16  6  1  0
 17  5  1  0
  1 18  1  0
  1 19  1  0
  1 20  1  0
  2 21  1  1
  4 22  1  6
  5 23  1  1
  6 24  1  1
  8 25  1  0
 13 26  1  0
 16 27  1  0
 17 28  1  0
M  END
>  <score>  (9) 
-6.948

$$$$
