=
     RDKit          3D

 36 35  0  0  0  0  0  0  0  0999 V2000
    1.4460   67.3710   66.3720 P   0  0  1  0  0  5  0  0  0  0  0  0
    1.6230   67.9880   67.7290 O   0  0  0  0  0  0  0  0  0  0  0  0
    2.3930   66.3020   65.8820 O   0  0  0  0  0  1  0  0  0  0  0  0
   -0.0820   66.9200   66.1330 O   0  0  0  0  0  0  0  0  0  0  0  0
   -1.0070   67.0660   67.1960 C   0  0  0  0  0  0  0  0  0  0  0  0
   -1.9690   68.2610   67.0540 C   0  0  2  0  0  0  0  0  0  0  0  0
   -3.3070   67.9640   67.4710 O   0  0  0  0  0  0  0  0  0  0  0  0
   -2.0220   68.8490   65.6360 C   0  0  0  0  0  0  0  0  0  0  0  0
   -3.3420   69.0820   65.1520 O   0  0  0  0  0  0  0  0  0  0  0  0
    1.5090   68.5780   65.2900 O   0  0  0  0  0  0  0  0  0  0  0  0
    2.0470   68.2670   64.0160 C   0  0  0  0  0  0  0  0  0  0  0  0
    3.4250   68.9100   63.7940 C   0  0  0  0  0  0  0  0  0  0  0  0
    4.2030   68.4050   62.5470 N   0  0  0  0  0  4  0  0  0  0  0  0
    3.4520   68.7300   61.2510 C   0  0  0  0  0  0  0  0  0  0  0  0
    4.2860   66.8890   62.6540 C   0  0  0  0  0  0  0  0  0  0  0  0
    5.5910   69.0000   62.4930 C   0  0  0  0  0  0  0  0  0  0  0  0
   -1.6088   66.1471   67.2550 H   0  0  0  0  0  0  0  0  0  0  0  0
   -0.4116   67.2529   68.1019 H   0  0  0  0  0  0  0  0  0  0  0  0
   -1.5377   69.0133   67.7308 H   0  0  0  0  0  0  0  0  0  0  0  0
   -3.3500   67.9545   68.4600 H   0  0  0  0  0  0  0  0  0  0  0  0
   -1.4809   69.8067   65.6387 H   0  0  0  0  0  0  0  0  0  0  0  0
   -1.5653   68.1050   64.9667 H   0  0  0  0  0  0  0  0  0  0  0  0
   -3.9598   69.1911   65.9178 H   0  0  0  0  0  0  0  0  0  0  0  0
    2.1481   67.1749   63.9313 H   0  0  0  0  0  0  0  0  0  0  0  0
    1.3617   68.6664   63.2539 H   0  0  0  0  0  0  0  0  0  0  0  0
    3.2799   69.9951   63.6870 H   0  0  0  0  0  0  0  0  0  0  0  0
    4.0344   68.6294   64.6657 H   0  0  0  0  0  0  0  0  0  0  0  0
    2.4676   69.1560   61.4947 H   0  0  0  0  0  0  0  0  0  0  0  0
    4.0314   69.4579   60.6641 H   0  0  0  0  0  0  0  0  0  0  0  0
    3.3180   67.8093   60.6641 H   0  0  0  0  0  0  0  0  0  0  0  0
    4.3020   66.5966   63.7143 H   0  0  0  0  0  0  0  0  0  0  0  0
    3.4112   66.4383   62.1625 H   0  0  0  0  0  0  0  0  0  0  0  0
    5.2048   66.5365   62.1625 H   0  0  0  0  0  0  0  0  0  0  0  0
    5.9619   69.1590   63.5163 H   0  0  0  0  0  0  0  0  0  0  0  0
    6.2646   68.3116   61.9617 H   0  0  0  0  0  0  0  0  0  0  0  0
    5.5569   69.9626   61.9617 H   0  0  0  0  0  0  0  0  0  0  0  0
  2  1  2  0
  1  3  1  6
  4  1  1  0
  5  4  1  0
  6  5  1  0
  7  6  1  0
  8  6  1  0
  9  8  1  0
 10  1  1  0
 11 10  1  0
 12 11  1  0
 13 12  1  0
 14 13  1  0
 15 13  1  0
 16 13  1  0
  5 17  1  0
  5 18  1  0
  6 19  1  1
  7 20  1  0
  8 21  1  0
  8 22  1  0
  9 23  1  0
 11 24  1  0
 11 25  1  0
 12 26  1  0
 12 27  1  0
 14 28  1  0
 14 29  1  0
 14 30  1  0
 15 31  1  0
 15 32  1  0
 15 33  1  0
 16 34  1  0
 16 35  1  0
 16 36  1  0
M  CHG  2   3  -1  13   1
M  END
>  <score>  (1) 
-5.967

$$$$
=
     RDKit          3D

 36 35  0  0  0  0  0  0  0  0999 V2000
    1.1950   67.5740   66.7350 P   0  0  1  0  0  5  0  0  0  0  0  0
    1.9130   68.8890   66.6230 O   0  0  0  0  0  0  0  0  0  0  0  0
    0.7400   67.0580   68.0800 O   0  0  0  0  0  1  0  0  0  0  0  0
   -0.0010   67.4710   65.6610 O   0  0  0  0  0  0  0  0  0  0  0  0
   -0.6350   68.6640   65.2330 C   0  0  0  0  0  0  0  0  0  0  0  0
   -1.8350   69.1010   66.0950 C   0  0  2  0  0  0  0  0  0  0  0  0
   -1.4650   69.9250   67.2070 O   0  0  0  0  0  0  0  0  0  0  0  0
   -2.6810   67.9300   66.6190 C   0  0  0  0  0  0  0  0  0  0  0  0
   -2.2680   67.4370   67.8900 O   0  0  0  0  0  0  0  0  0  0  0  0
    2.1750   66.4430   66.1100 O   0  0  0  0  0  0  0  0  0  0  0  0
    2.2190   66.3450   64.6970 C   0  0  0  0  0  0  0  0  0  0  0  0
    3.5970   66.7260   64.1310 C   0  0  0  0  0  0  0  0  0  0  0  0
    3.6140   67.9720   63.2030 N   0  0  0  0  0  4  0  0  0  0  0  0
    2.1940   68.4690   62.9090 C   0  0  0  0  0  0  0  0  0  0  0  0
    4.2260   67.5370   61.8790 C   0  0  0  0  0  0  0  0  0  0  0  0
    4.4270   69.0920   63.8090 C   0  0  0  0  0  0  0  0  0  0  0  0
    0.1105   69.4727   65.2486 H   0  0  0  0  0  0  0  0  0  0  0  0
   -1.0326   68.4608   64.2277 H   0  0  0  0  0  0  0  0  0  0  0  0
   -2.4453   69.6911   65.3955 H   0  0  0  0  0  0  0  0  0  0  0  0
   -1.6765   69.4539   68.0516 H   0  0  0  0  0  0  0  0  0  0  0  0
   -3.7246   68.2678   66.7020 H   0  0  0  0  0  0  0  0  0  0  0  0
   -2.5574   67.1041   65.9030 H   0  0  0  0  0  0  0  0  0  0  0  0
   -2.7071   67.9612   68.6059 H   0  0  0  0  0  0  0  0  0  0  0  0
    1.9909   65.3089   64.4065 H   0  0  0  0  0  0  0  0  0  0  0  0
    1.4792   67.0480   64.2865 H   0  0  0  0  0  0  0  0  0  0  0  0
    4.2691   66.9249   64.9788 H   0  0  0  0  0  0  0  0  0  0  0  0
    3.9135   65.8779   63.5061 H   0  0  0  0  0  0  0  0  0  0  0  0
    1.6666   68.6536   63.8565 H   0  0  0  0  0  0  0  0  0  0  0  0
    2.2449   69.4027   62.3298 H   0  0  0  0  0  0  0  0  0  0  0  0
    1.6515   67.7073   62.3298 H   0  0  0  0  0  0  0  0  0  0  0  0
    5.1087   66.9096   62.0717 H   0  0  0  0  0  0  0  0  0  0  0  0
    3.4854   66.9615   61.3043 H   0  0  0  0  0  0  0  0  0  0  0  0
    4.5261   68.4256   61.3043 H   0  0  0  0  0  0  0  0  0  0  0  0
    4.3799   69.0272   64.9061 H   0  0  0  0  0  0  0  0  0  0  0  0
    5.4733   69.0045   63.4811 H   0  0  0  0  0  0  0  0  0  0  0  0
    4.0197   70.0597   63.4811 H   0  0  0  0  0  0  0  0  0  0  0  0
  2  1  2  0
  1  3  1  1
  4  1  1  0
  5  4  1  0
  6  5  1  0
  7  6  1  0
  8  6  1  0
  9  8  1  0
 10  1  1  0
 11 10  1  0
 12 11  1  0
 13 12  1  0
 14 13  1  0
 15 13  1  0
 16 13  1  0
  5 17  1  0
  5 18  1  0
  6 19  1  6
  7 20  1  0
  8 21  1  0
  8 22  1  0
  9 23  1  0
 11 24  1  0
 11 25  1  0
 12 26  1  0
 12 27  1  0
 14 28  1  0
 14 29  1  0
 14 30  1  0
 15 31  1  0
 15 32  1  0
 15 33  1  0
 16 34  1  0
 16 35  1  0
 16 36  1  0
M  CHG  2   3  -1  13   1
M  END
>  <score>  (2) 
-5.779

$$$$
=
     RDKit          3D

 36 35  0  0  0  0  0  0  0  0999 V2000
    0.9830   67.6950   65.5970 P   0  0  1  0  0  5  0  0  0  0  0  0
    0.5100   67.9560   64.1960 O   0  0  0  0  0  0  0  0  0  0  0  0
    1.5270   68.8170   66.4480 O   0  0  0  0  0  1  0  0  0  0  0  0
   -0.1000   66.8360   66.4260 O   0  0  0  0  0  0  0  0  0  0  0  0
   -1.1660   67.5210   67.0610 C   0  0  0  0  0  0  0  0  0  0  0  0
   -1.6720   68.7660   66.3080 C   0  0  2  0  0  0  0  0  0  0  0  0
   -1.4880   69.9840   67.0400 O   0  0  0  0  0  0  0  0  0  0  0  0
   -3.1450   68.6760   65.8790 C   0  0  0  0  0  0  0  0  0  0  0  0
   -3.4260   69.3020   64.6310 O   0  0  0  0  0  0  0  0  0  0  0  0
    2.1520   66.5750   65.5030 O   0  0  0  0  0  0  0  0  0  0  0  0
    2.7990   66.4290   64.2500 C   0  0  0  0  0  0  0  0  0  0  0  0
    4.2260   67.0010   64.2630 C   0  0  0  0  0  0  0  0  0  0  0  0
    4.4140   68.3380   63.4940 N   0  0  0  0  0  4  0  0  0  0  0  0
    5.7700   68.3870   62.7820 C   0  0  0  0  0  0  0  0  0  0  0  0
    4.4040   69.4560   64.5280 C   0  0  0  0  0  0  0  0  0  0  0  0
    3.3060   68.5490   62.4890 C   0  0  0  0  0  0  0  0  0  0  0  0
   -2.0073   66.8205   67.1686 H   0  0  0  0  0  0  0  0  0  0  0  0
   -0.7743   67.8792   68.0245 H   0  0  0  0  0  0  0  0  0  0  0  0
   -1.0436   68.7870   65.4054 H   0  0  0  0  0  0  0  0  0  0  0  0
   -1.5168   69.7930   68.0110 H   0  0  0  0  0  0  0  0  0  0  0  0
   -3.4181   67.6132   65.8017 H   0  0  0  0  0  0  0  0  0  0  0  0
   -3.7308   69.2106   66.6413 H   0  0  0  0  0  0  0  0  0  0  0  0
   -3.8261   70.1932   64.7915 H   0  0  0  0  0  0  0  0  0  0  0  0
    2.8485   65.3591   63.9994 H   0  0  0  0  0  0  0  0  0  0  0  0
    2.2176   66.9888   63.5025 H   0  0  0  0  0  0  0  0  0  0  0  0
    4.5151   67.1685   65.3110 H   0  0  0  0  0  0  0  0  0  0  0  0
    4.8541   66.2617   63.7445 H   0  0  0  0  0  0  0  0  0  0  0  0
    6.5760   68.4161   63.5300 H   0  0  0  0  0  0  0  0  0  0  0  0
    5.8861   67.4925   62.1525 H   0  0  0  0  0  0  0  0  0  0  0  0
    5.8213   69.2876   62.1525 H   0  0  0  0  0  0  0  0  0  0  0  0
    4.4079   69.0210   65.5383 H   0  0  0  0  0  0  0  0  0  0  0  0
    5.2966   70.0853   64.3963 H   0  0  0  0  0  0  0  0  0  0  0  0
    3.5003   70.0692   64.3963 H   0  0  0  0  0  0  0  0  0  0  0  0
    2.3593   68.7293   63.0194 H   0  0  0  0  0  0  0  0  0  0  0  0
    3.5440   69.4180   61.8579 H   0  0  0  0  0  0  0  0  0  0  0  0
    3.2079   67.6534   61.8579 H   0  0  0  0  0  0  0  0  0  0  0  0
  2  1  2  0
  1  3  1  1
  4  1  1  0
  5  4  1  0
  6  5  1  0
  7  6  1  0
  8  6  1  0
  9  8  1  0
 10  1  1  0
 11 10  1  0
 12 11  1  0
 13 12  1  0
 14 13  1  0
 15 13  1  0
 16 13  1  0
  5 17  1  0
  5 18  1  0
  6 19  1  6
  7 20  1  0
  8 21  1  0
  8 22  1  0
  9 23  1  0
 11 24  1  0
 11 25  1  0
 12 26  1  0
 12 27  1  0
 14 28  1  0
 14 29  1  0
 14 30  1  0
 15 31  1  0
 15 32  1  0
 15 33  1  0
 16 34  1  0
 16 35  1  0
 16 36  1  0
M  CHG  2   3  -1  13   1
M  END
>  <score>  (3) 
-5.673

$$$$
=
     RDKit          3D

 36 35  0  0  0  0  0  0  0  0999 V2000
    3.5330   68.4800   63.4420 P   0  0  1  0  0  5  0  0  0  0  0  0
    4.6840   69.4340   63.5780 O   0  0  0  0  0  0  0  0  0  0  0  0
    2.8550   68.2760   62.1080 O   0  0  0  0  0  1  0  0  0  0  0  0
    3.8700   67.0600   64.1240 O   0  0  0  0  0  0  0  0  0  0  0  0
    4.4940   66.0600   63.3360 C   0  0  0  0  0  0  0  0  0  0  0  0
    4.8660   64.7760   64.1010 C   0  0  2  0  0  0  0  0  0  0  0  0
    5.4000   63.7480   63.2570 O   0  0  0  0  0  0  0  0  0  0  0  0
    3.7070   64.1820   64.9160 C   0  0  0  0  0  0  0  0  0  0  0  0
    2.4350   64.7520   64.6200 O   0  0  0  0  0  0  0  0  0  0  0  0
    2.3840   68.9730   64.4760 O   0  0  0  0  0  0  0  0  0  0  0  0
    1.1800   68.2240   64.4990 C   0  0  0  0  0  0  0  0  0  0  0  0
    0.9140   67.5930   65.8750 C   0  0  0  0  0  0  0  0  0  0  0  0
   -0.2810   68.1970   66.6650 N   0  0  0  0  0  4  0  0  0  0  0  0
   -1.2920   68.8620   65.7250 C   0  0  0  0  0  0  0  0  0  0  0  0
    0.2820   69.2840   67.5680 C   0  0  0  0  0  0  0  0  0  0  0  0
   -0.9760   67.1400   67.4920 C   0  0  0  0  0  0  0  0  0  0  0  0
    3.8064   65.7867   62.5220 H   0  0  0  0  0  0  0  0  0  0  0  0
    5.4396   66.4926   62.9773 H   0  0  0  0  0  0  0  0  0  0  0  0
    5.6476   65.1148   64.7970 H   0  0  0  0  0  0  0  0  0  0  0  0
    5.7763   63.0236   63.8171 H   0  0  0  0  0  0  0  0  0  0  0  0
    3.6580   63.1025   64.7105 H   0  0  0  0  0  0  0  0  0  0  0  0
    3.9159   64.4045   65.9728 H   0  0  0  0  0  0  0  0  0  0  0  0
    1.9635   64.9633   65.4645 H   0  0  0  0  0  0  0  0  0  0  0  0
    0.3427   68.8918   64.2478 H   0  0  0  0  0  0  0  0  0  0  0  0
    1.2759   67.4087   63.7669 H   0  0  0  0  0  0  0  0  0  0  0  0
    0.7147   66.5217   65.7244 H   0  0  0  0  0  0  0  0  0  0  0  0
    1.8105   67.7947   66.4797 H   0  0  0  0  0  0  0  0  0  0  0  0
   -2.0655   69.3708   66.3191 H   0  0  0  0  0  0  0  0  0  0  0  0
   -0.7746   69.5967   65.0906 H   0  0  0  0  0  0  0  0  0  0  0  0
   -1.7617   68.0959   65.0906 H   0  0  0  0  0  0  0  0  0  0  0  0
    0.1346   68.9993   68.6203 H   0  0  0  0  0  0  0  0  0  0  0  0
    1.3568   69.4063   67.3684 H   0  0  0  0  0  0  0  0  0  0  0  0
   -0.2382   70.2324   67.3684 H   0  0  0  0  0  0  0  0  0  0  0  0
   -0.8328   67.3577   68.5607 H   0  0  0  0  0  0  0  0  0  0  0  0
   -2.0510   67.1399   67.2586 H   0  0  0  0  0  0  0  0  0  0  0  0
   -0.5500   66.1530   67.2586 H   0  0  0  0  0  0  0  0  0  0  0  0
  2  1  2  0
  1  3  1  6
  4  1  1  0
  5  4  1  0
  6  5  1  0
  7  6  1  0
  8  6  1  0
  9  8  1  0
 10  1  1  0
 11 10  1  0
 12 11  1  0
 13 12  1  0
 14 13  1  0
 15 13  1  0
 16 13  1  0
  5 17  1  0
  5 18  1  0
  6 19  1  1
  7 20  1  0
  8 21  1  0
  8 22  1  0
  9 23  1  0
 11 24  1  0
 11 25  1  0
 12 26  1  0
 12 27  1  0
 14 28  1  0
 14 29  1  0
 14 30  1  0
 15 31  1  0
 15 32  1  0
 15 33  1  0
 16 34  1  0
 16 35  1  0
 16 36  1  0
M  CHG  2   3  -1  13   1
M  END
>  <score>  (4) 
-5.472

$$$$
=
     RDKit          3D

 36 35  0  0  0  0  0  0  0  0999 V2000
    3.9340   68.6430   64.7060 P   0  0  1  0  0  5  0  0  0  0  0  0
    4.4030   69.4690   63.5430 O   0  0  0  0  0  0  0  0  0  0  0  0
    3.9050   67.1360   64.6190 O   0  0  0  0  0  1  0  0  0  0  0  0
    4.6400   69.1130   66.0760 O   0  0  0  0  0  0  0  0  0  0  0  0
    3.8670   69.8190   67.0310 C   0  0  0  0  0  0  0  0  0  0  0  0
    4.6550   70.3160   68.2580 C   0  0  2  0  0  0  0  0  0  0  0  0
    3.8520   71.0540   69.1870 O   0  0  0  0  0  0  0  0  0  0  0  0
    5.8870   71.1630   67.9030 C   0  0  0  0  0  0  0  0  0  0  0  0
    5.7080   72.5620   68.1000 O   0  0  0  0  0  0  0  0  0  0  0  0
    2.4200   69.1180   65.0450 O   0  0  0  0  0  0  0  0  0  0  0  0
    1.3830   68.1900   64.7740 C   0  0  0  0  0  0  0  0  0  0  0  0
    0.8580   67.5150   66.0510 C   0  0  0  0  0  0  0  0  0  0  0  0
   -0.4000   68.1730   66.6820 N   0  0  0  0  0  4  0  0  0  0  0  0
   -1.2700   68.8510   65.6180 C   0  0  0  0  0  0  0  0  0  0  0  0
    0.0890   69.2600   67.6290 C   0  0  0  0  0  0  0  0  0  0  0  0
   -1.2240   67.1570   67.4380 C   0  0  0  0  0  0  0  0  0  0  0  0
    3.4220   70.6929   66.5328 H   0  0  0  0  0  0  0  0  0  0  0  0
    3.1179   69.1084   67.4103 H   0  0  0  0  0  0  0  0  0  0  0  0
    4.9938   69.3836   68.7332 H   0  0  0  0  0  0  0  0  0  0  0  0
    4.1127   70.8144   70.1115 H   0  0  0  0  0  0  0  0  0  0  0  0
    6.7270   70.8306   68.5306 H   0  0  0  0  0  0  0  0  0  0  0  0
    6.0741   71.0156   66.8291 H   0  0  0  0  0  0  0  0  0  0  0  0
    5.6829   72.7581   69.0701 H   0  0  0  0  0  0  0  0  0  0  0  0
    0.5517   68.7204   64.2865 H   0  0  0  0  0  0  0  0  0  0  0  0
    1.7947   67.4051   64.1226 H   0  0  0  0  0  0  0  0  0  0  0  0
    0.6090   66.4719   65.8060 H   0  0  0  0  0  0  0  0  0  0  0  0
    1.6593   67.6136   66.7981 H   0  0  0  0  0  0  0  0  0  0  0  0
   -2.0461   69.4558   66.1098 H   0  0  0  0  0  0  0  0  0  0  0  0
   -0.6421   69.5003   64.9902 H   0  0  0  0  0  0  0  0  0  0  0  0
   -1.7463   68.0835   64.9902 H   0  0  0  0  0  0  0  0  0  0  0  0
   -0.0579   68.9335   68.6691 H   0  0  0  0  0  0  0  0  0  0  0  0
    1.1582   69.4475   67.4511 H   0  0  0  0  0  0  0  0  0  0  0  0
   -0.4800   70.1845   67.4511 H   0  0  0  0  0  0  0  0  0  0  0  0
   -1.0971   67.3135   68.5194 H   0  0  0  0  0  0  0  0  0  0  0  0
   -2.2850   67.2747   67.1725 H   0  0  0  0  0  0  0  0  0  0  0  0
   -0.8898   66.1432   67.1725 H   0  0  0  0  0  0  0  0  0  0  0  0
  2  1  2  0
  1  3  1  6
  4  1  1  0
  5  4  1  0
  6  5  1  0
  7  6  1  0
  8  6  1  0
  9  8  1  0
 10  1  1  0
 11 10  1  0
 12 11  1  0
 13 12  1  0
 14 13  1  0
 15 13  1  0
 16 13  1  0
  5 17  1  0
  5 18  1  0
  6 19  1  1
  7 20  1  0
  8 21  1  0
  8 22  1  0
  9 23  1  0
 11 24  1  0
 11 25  1  0
 12 26  1  0
 12 27  1  0
 14 28  1  0
 14 29  1  0
 14 30  1  0
 15 31  1  0
 15 32  1  0
 15 33  1  0
 16 34  1  0
 16 35  1  0
 16 36  1  0
M  CHG  2   3  -1  13   1
M  END
>  <score>  (5) 
-5.406

$$$$
=
     RDKit          3D

 36 35  0  0  0  0  0  0  0  0999 V2000
    0.5190   68.9300   62.4080 P   0  0  1  0  0  5  0  0  0  0  0  0
   -0.1720   70.1920   61.9780 O   0  0  0  0  0  0  0  0  0  0  0  0
   -0.1910   67.5990   62.3310 O   0  0  0  0  0  1  0  0  0  0  0  0
    1.9880   68.8210   61.7580 O   0  0  0  0  0  0  0  0  0  0  0  0
    2.9880   68.0990   62.4570 C   0  0  0  0  0  0  0  0  0  0  0  0
    4.3850   68.7490   62.4380 C   0  0  2  0  0  0  0  0  0  0  0  0
    5.4120   67.8720   61.9600 O   0  0  0  0  0  0  0  0  0  0  0  0
    4.8240   69.3150   63.7970 C   0  0  0  0  0  0  0  0  0  0  0  0
    3.7660   69.4400   64.7440 O   0  0  0  0  0  0  0  0  0  0  0  0
    0.9580   69.1330   63.9560 O   0  0  0  0  0  0  0  0  0  0  0  0
    0.0390   68.7000   64.9440 C   0  0  0  0  0  0  0  0  0  0  0  0
    0.7120   67.8420   66.0270 C   0  0  0  0  0  0  0  0  0  0  0  0
    0.1110   67.9790   67.4540 N   0  0  0  0  0  4  0  0  0  0  0  0
   -1.1370   67.1050   67.6200 C   0  0  0  0  0  0  0  0  0  0  0  0
   -0.3240   69.4270   67.6200 C   0  0  0  0  0  0  0  0  0  0  0  0
    1.1290   67.6160   68.5100 C   0  0  0  0  0  0  0  0  0  0  0  0
    2.6700   68.0013   63.5055 H   0  0  0  0  0  0  0  0  0  0  0  0
    3.0889   67.1318   61.9428 H   0  0  0  0  0  0  0  0  0  0  0  0
    4.2646   69.5836   61.7316 H   0  0  0  0  0  0  0  0  0  0  0  0
    5.8854   67.4677   62.7298 H   0  0  0  0  0  0  0  0  0  0  0  0
    5.5884   68.6462   64.2192 H   0  0  0  0  0  0  0  0  0  0  0  0
    5.2044   70.3301   63.6102 H   0  0  0  0  0  0  0  0  0  0  0  0
    4.1369   69.3962   65.6609 H   0  0  0  0  0  0  0  0  0  0  0  0
   -0.4108   69.5834   65.4207 H   0  0  0  0  0  0  0  0  0  0  0  0
   -0.7231   68.0809   64.4480 H   0  0  0  0  0  0  0  0  0  0  0  0
    0.6306   66.7877   65.7241 H   0  0  0  0  0  0  0  0  0  0  0  0
    1.7489   68.2021   66.0986 H   0  0  0  0  0  0  0  0  0  0  0  0
   -1.3436   66.9603   68.6907 H   0  0  0  0  0  0  0  0  0  0  0  0
   -1.9968   67.5994   67.1442 H   0  0  0  0  0  0  0  0  0  0  0  0
   -0.9664   66.1280   67.1442 H   0  0  0  0  0  0  0  0  0  0  0  0
   -0.3963   69.6677   68.6909 H   0  0  0  0  0  0  0  0  0  0  0  0
    0.4150   70.0887   67.1446 H   0  0  0  0  0  0  0  0  0  0  0  0
   -1.3053   69.5719   67.1446 H   0  0  0  0  0  0  0  0  0  0  0  0
    0.6933   67.7713   69.5080 H   0  0  0  0  0  0  0  0  0  0  0  0
    1.4157   66.5602   68.3954 H   0  0  0  0  0  0  0  0  0  0  0  0
    2.0190   68.2522   68.3954 H   0  0  0  0  0  0  0  0  0  0  0  0
  2  1  2  0
  1  3  1  1
  4  1  1  0
  5  4  1  0
  6  5  1  0
  7  6  1  0
  8  6  1  0
  9  8  1  0
 10  1  1  0
 11 10  1  0
 12 11  1  0
 13 12  1  0
 14 13  1  0
 15 13  1  0
 16 13  1  0
  5 17  1  0
  5 18  1  0
  6 19  1  6
  7 20  1  0
  8 21  1  0
  8 22  1  0
  9 23  1  0
 11 24  1  0
 11 25  1  0
 12 26  1  0
 12 27  1  0
 14 28  1  0
 14 29  1  0
 14 30  1  0
 15 31  1  0
 15 32  1  0
 15 33  1  0
 16 34  1  0
 16 35  1  0
 16 36  1  0
M  CHG  2   3  -1  13   1
M  END
>  <score>  (6) 
-5.327

$$$$
=
     RDKit          3D

 36 35  0  0  0  0  0  0  0  0999 V2000
    2.8440   66.6810   64.6330 P   0  0  1  0  0  5  0  0  0  0  0  0
    2.6420   65.3860   65.3660 O   0  0  0  0  0  0  0  0  0  0  0  0
    3.5250   67.8480   65.3050 O   0  0  0  0  0  1  0  0  0  0  0  0
    3.4720   66.4290   63.1710 O   0  0  0  0  0  0  0  0  0  0  0  0
    4.7440   66.9800   62.8760 C   0  0  0  0  0  0  0  0  0  0  0  0
    4.7070   68.3690   62.2100 C   0  0  2  0  0  0  0  0  0  0  0  0
    4.8850   69.4470   63.1370 O   0  0  0  0  0  0  0  0  0  0  0  0
    3.4300   68.6330   61.3980 C   0  0  0  0  0  0  0  0  0  0  0  0
    3.6600   69.2670   60.1420 O   0  0  0  0  0  0  0  0  0  0  0  0
    1.3770   67.2000   64.1750 O   0  0  0  0  0  0  0  0  0  0  0  0
    0.7690   68.1940   64.9820 C   0  0  0  0  0  0  0  0  0  0  0  0
    0.1380   67.6030   66.2540 C   0  0  0  0  0  0  0  0  0  0  0  0
   -1.1480   68.3180   66.7530 N   0  0  0  0  0  4  0  0  0  0  0  0
   -1.9890   68.8380   65.5810 C   0  0  0  0  0  0  0  0  0  0  0  0
   -0.7040   69.5270   67.5630 C   0  0  0  0  0  0  0  0  0  0  0  0
   -1.9860   67.3970   67.6080 C   0  0  0  0  0  0  0  0  0  0  0  0
    5.3062   67.0666   63.8175 H   0  0  0  0  0  0  0  0  0  0  0  0
    5.2153   66.3008   62.1504 H   0  0  0  0  0  0  0  0  0  0  0  0
    5.5631   68.3405   61.5199 H   0  0  0  0  0  0  0  0  0  0  0  0
    4.8276   69.0995   64.0622 H   0  0  0  0  0  0  0  0  0  0  0  0
    2.9329   67.6694   61.2127 H   0  0  0  0  0  0  0  0  0  0  0  0
    2.8124   69.3219   61.9929 H   0  0  0  0  0  0  0  0  0  0  0  0
    3.9937   70.1868   60.2928 H   0  0  0  0  0  0  0  0  0  0  0  0
    1.5331   68.9294   65.2743 H   0  0  0  0  0  0  0  0  0  0  0  0
   -0.0332   68.6630   64.3934 H   0  0  0  0  0  0  0  0  0  0  0  0
   -0.1150   66.5520   66.0507 H   0  0  0  0  0  0  0  0  0  0  0  0
    0.8852   67.7311   67.0511 H   0  0  0  0  0  0  0  0  0  0  0  0
   -2.8643   69.3792   65.9695 H   0  0  0  0  0  0  0  0  0  0  0  0
   -1.3807   69.5178   64.9664 H   0  0  0  0  0  0  0  0  0  0  0  0
   -2.3253   67.9900   64.9664 H   0  0  0  0  0  0  0  0  0  0  0  0
   -0.7873   69.3001   68.6361 H   0  0  0  0  0  0  0  0  0  0  0  0
    0.3413   69.7679   67.3193 H   0  0  0  0  0  0  0  0  0  0  0  0
   -1.3449   70.3871   67.3193 H   0  0  0  0  0  0  0  0  0  0  0  0
   -1.7943   67.6076   68.6705 H   0  0  0  0  0  0  0  0  0  0  0  0
   -3.0513   67.5608   67.3881 H   0  0  0  0  0  0  0  0  0  0  0  0
   -1.7227   66.3519   67.3881 H   0  0  0  0  0  0  0  0  0  0  0  0
  2  1  2  0
  1  3  1  1
  4  1  1  0
  5  4  1  0
  6  5  1  0
  7  6  1  0
  8  6  1  0
  9  8  1  0
 10  1  1  0
 11 10  1  0
 12 11  1  0
 13 12  1  0
 14 13  1  0
 15 13  1  0
 16 13  1  0
  5 17  1  0
  5 18  1  0
  6 19  1  6
  7 20  1  0
  8 21  1  0
  8 22  1  0
  9 23  1  0
 11 24  1  0
 11 25  1  0
 12 26  1  0
 12 27  1  0
 14 28  1  0
 14 29  1  0
 14 30  1  0
 15 31  1  0
 15 32  1  0
 15 33  1  0
 16 34  1  0
 16 35  1  0
 16 36  1  0
M  CHG  2   3  -1  13   1
M  END
>  <score>  (7) 
-5.259

$$$$
=
     RDKit          3D

 36 35  0  0  0  0  0  0  0  0999 V2000
    1.1970   67.5610   66.7710 P   0  0  1  0  0  5  0  0  0  0  0  0
    1.8290   68.9230   66.8070 O   0  0  0  0  0  0  0  0  0  0  0  0
    0.8150   66.8560   68.0500 O   0  0  0  0  0  1  0  0  0  0  0  0
   -0.0200   67.5120   65.7170 O   0  0  0  0  0  0  0  0  0  0  0  0
   -1.0360   68.4970   65.8070 C   0  0  0  0  0  0  0  0  0  0  0  0
   -1.3920   69.1790   64.4720 C   0  0  2  0  0  0  0  0  0  0  0  0
   -2.6250   68.7150   63.9100 O   0  0  0  0  0  0  0  0  0  0  0  0
   -0.2960   69.0580   63.4020 C   0  0  0  0  0  0  0  0  0  0  0  0
   -0.3970   67.8880   62.5950 O   0  0  0  0  0  0  0  0  0  0  0  0
    2.2270   66.5810   65.9900 O   0  0  0  0  0  0  0  0  0  0  0  0
    2.5470   66.9240   64.6530 C   0  0  0  0  0  0  0  0  0  0  0  0
    4.0460   67.2090   64.4690 C   0  0  0  0  0  0  0  0  0  0  0  0
    4.3990   68.2130   63.3360 N   0  0  0  0  0  4  0  0  0  0  0  0
    5.0530   69.4800   63.8970 C   0  0  0  0  0  0  0  0  0  0  0  0
    3.0900   68.6290   62.6820 C   0  0  0  0  0  0  0  0  0  0  0  0
    5.3140   67.5800   62.3130 C   0  0  0  0  0  0  0  0  0  0  0  0
   -1.9446   68.0171   66.1995 H   0  0  0  0  0  0  0  0  0  0  0  0
   -0.6451   69.2872   66.4649 H   0  0  0  0  0  0  0  0  0  0  0  0
   -1.4966   70.2380   64.7505 H   0  0  0  0  0  0  0  0  0  0  0  0
   -3.2519   68.4791   64.6390 H   0  0  0  0  0  0  0  0  0  0  0  0
   -0.3569   69.9376   62.7442 H   0  0  0  0  0  0  0  0  0  0  0  0
    0.6631   68.9926   63.9366 H   0  0  0  0  0  0  0  0  0  0  0  0
   -0.4659   67.0904   63.1774 H   0  0  0  0  0  0  0  0  0  0  0  0
    2.2618   66.0896   63.9954 H   0  0  0  0  0  0  0  0  0  0  0  0
    1.9954   67.8411   64.3987 H   0  0  0  0  0  0  0  0  0  0  0  0
    4.4330   67.6151   65.4152 H   0  0  0  0  0  0  0  0  0  0  0  0
    4.5035   66.2515   64.1793 H   0  0  0  0  0  0  0  0  0  0  0  0
    5.0353   69.4458   64.9963 H   0  0  0  0  0  0  0  0  0  0  0  0
    6.0947   69.5399   63.5487 H   0  0  0  0  0  0  0  0  0  0  0  0
    4.4985   70.3639   63.5487 H   0  0  0  0  0  0  0  0  0  0  0  0
    2.3496   68.8643   63.4607 H   0  0  0  0  0  0  0  0  0  0  0  0
    3.2590   69.5177   62.0562 H   0  0  0  0  0  0  0  0  0  0  0  0
    2.7149   67.8058   62.0562 H   0  0  0  0  0  0  0  0  0  0  0  0
    6.1132   67.0271   62.8283 H   0  0  0  0  0  0  0  0  0  0  0  0
    4.7364   66.8875   61.6831 H   0  0  0  0  0  0  0  0  0  0  0  0
    5.7583   68.3647   61.6831 H   0  0  0  0  0  0  0  0  0  0  0  0
  2  1  2  0
  1  3  1  1
  4  1  1  0
  5  4  1  0
  6  5  1  0
  7  6  1  0
  8  6  1  0
  9  8  1  0
 10  1  1  0
 11 10  1  0
 12 11  1  0
 13 12  1  0
 14 13  1  0
 15 13  1  0
 16 13  1  0
  5 17  1  0
  5 18  1  0
  6 19  1  1
  7 20  1  0
  8 21  1  0
  8 22  1  0
  9 23  1  0
 11 24  1  0
 11 25  1  0
 12 26  1  0
 12 27  1  0
 14 28  1  0
 14 29  1  0
 14 30  1  0
 15 31  1  0
 15 32  1  0
 15 33  1  0
 16 34  1  0
 16 35  1  0
 16 36  1  0
M  CHG  2   3  -1  13   1
M  END
>  <score>  (8) 
-5.212

$$$$
=
     RDKit          3D

 36 35  0  0  0  0  0  0  0  0999 V2000
    0.7460   64.2810   71.0560 P   0  0  1  0  0  5  0  0  0  0  0  0
    0.0670   63.5320   69.9460 O   0  0  0  0  0  0  0  0  0  0  0  0
   -0.0210   64.6880   72.2920 O   0  0  0  0  0  1  0  0  0  0  0  0
    2.1380   63.5810   71.4650 O   0  0  0  0  0  0  0  0  0  0  0  0
    3.2870   63.8450   70.6780 C   0  0  0  0  0  0  0  0  0  0  0  0
    3.6680   62.7200   69.6960 C   0  0  2  0  0  0  0  0  0  0  0  0
    2.7290   62.5600   68.6260 O   0  0  0  0  0  0  0  0  0  0  0  0
    3.8760   61.3540   70.3680 C   0  0  0  0  0  0  0  0  0  0  0  0
    2.6880   60.7900   70.9190 O   0  0  0  0  0  0  0  0  0  0  0  0
    1.3460   65.6440   70.4120 O   0  0  0  0  0  0  0  0  0  0  0  0
    0.4380   66.4700   69.7040 C   0  0  0  0  0  0  0  0  0  0  0  0
    1.1460   67.3560   68.6660 C   0  0  0  0  0  0  0  0  0  0  0  0
    0.2650   67.8180   67.4730 N   0  0  0  0  0  4  0  0  0  0  0  0
   -1.0850   67.0920   67.4610 C   0  0  0  0  0  0  0  0  0  0  0  0
    0.9990   67.4320   66.1970 C   0  0  0  0  0  0  0  0  0  0  0  0
    0.0360   69.3110   67.5100 C   0  0  0  0  0  0  0  0  0  0  0  0
    3.1006   64.7594   70.0957 H   0  0  0  0  0  0  0  0  0  0  0  0
    4.1283   63.9425   71.3799 H   0  0  0  0  0  0  0  0  0  0  0  0
    4.6302   63.0595   69.2851 H   0  0  0  0  0  0  0  0  0  0  0  0
    1.8254   62.4060   69.0001 H   0  0  0  0  0  0  0  0  0  0  0  0
    4.2735   60.6561   69.6164 H   0  0  0  0  0  0  0  0  0  0  0  0
    4.5695   61.5150   71.2065 H   0  0  0  0  0  0  0  0  0  0  0  0
    2.7389   60.8142   71.9074 H   0  0  0  0  0  0  0  0  0  0  0  0
   -0.2916   65.8308   69.1853 H   0  0  0  0  0  0  0  0  0  0  0  0
   -0.0548   67.1312   70.4320 H   0  0  0  0  0  0  0  0  0  0  0  0
    1.5162   68.2540   69.1823 H   0  0  0  0  0  0  0  0  0  0  0  0
    1.9437   66.7356   68.2315 H   0  0  0  0  0  0  0  0  0  0  0  0
   -1.4151   66.9145   68.4952 H   0  0  0  0  0  0  0  0  0  0  0  0
   -1.8297   67.7113   66.9396 H   0  0  0  0  0  0  0  0  0  0  0  0
   -0.9790   66.1292   66.9396 H   0  0  0  0  0  0  0  0  0  0  0  0
    1.9455   66.9343   66.4547 H   0  0  0  0  0  0  0  0  0  0  0  0
    0.3730   66.7464   65.6070 H   0  0  0  0  0  0  0  0  0  0  0  0
    1.2091   68.3363   65.6070 H   0  0  0  0  0  0  0  0  0  0  0  0
   -0.0157   69.6482   68.5558 H   0  0  0  0  0  0  0  0  0  0  0  0
    0.8663   69.8220   67.0006 H   0  0  0  0  0  0  0  0  0  0  0  0
   -0.9093   69.5497   67.0006 H   0  0  0  0  0  0  0  0  0  0  0  0
  2  1  2  0
  1  3  1  1
  4  1  1  0
  5  4  1  0
  6  5  1  0
  7  6  1  0
  8  6  1  0
  9  8  1  0
 10  1  1  0
 11 10  1  0
 12 11  1  0
 13 12  1  0
 14 13  1  0
 15 13  1  0
 16 13  1  0
  5 17  1  0
  5 18  1  0
  6 19  1  6
  7 20  1  0
  8 21  1  0
  8 22  1  0
  9 23  1  0
 11 24  1  0
 11 25  1  0
 12 26  1  0
 12 27  1  0
 14 28  1  0
 14 29  1  0
 14 30  1  0
 15 31  1  0
 15 32  1  0
 15 33  1  0
 16 34  1  0
 16 35  1  0
 16 36  1  0
M  CHG  2   3  -1  13   1
M  END
>  <score>  (9) 
-5.19

$$$$
