=
     RDKit          3D

 33 34  0  0  0  0  0  0  0  0999 V2000
    2.5210   66.7550   65.0530 C   0  0  0  0  0  0  0  0  0  0  0  0
    1.8880   68.1510   65.2890 C   0  0  0  0  0  0  0  0  0  0  0  0
    1.7270   68.7910   63.8850 C   0  0  0  0  0  0  0  0  0  0  0  0
    2.8630   68.9190   66.2140 C   0  0  0  0  0  0  0  0  0  0  0  0
    4.1690   69.2090   65.7610 C   0  0  0  0  0  0  0  0  0  0  0  0
    5.0770   69.9060   66.5600 C   0  0  0  0  0  0  0  0  0  0  0  0
    4.6940   70.3280   67.8240 C   0  0  0  0  0  0  0  0  0  0  0  0
    3.4170   70.0650   68.3020 C   0  0  0  0  0  0  0  0  0  0  0  0
    2.5080   69.3640   67.4990 C   0  0  0  0  0  0  0  0  0  0  0  0
    5.6090   71.0060   68.5740 O   0  0  0  0  0  0  0  0  0  0  0  0
    0.4670   68.0930   65.9040 C   0  0  0  0  0  0  0  0  0  0  0  0
    0.1310   67.2390   66.9690 C   0  0  0  0  0  0  0  0  0  0  0  0
   -1.1670   67.2140   67.4890 C   0  0  0  0  0  0  0  0  0  0  0  0
   -2.1450   68.0370   66.9520 C   0  0  0  0  0  0  0  0  0  0  0  0
   -1.8510   68.8910   65.8980 C   0  0  0  0  0  0  0  0  0  0  0  0
   -0.5540   68.9150   65.3780 C   0  0  0  0  0  0  0  0  0  0  0  0
   -3.3950   67.9800   67.4940 O   0  0  0  0  0  0  0  0  0  0  0  0
    2.7358   66.2812   66.0222 H   0  0  0  0  0  0  0  0  0  0  0  0
    1.8201   66.1259   64.4847 H   0  0  0  0  0  0  0  0  0  0  0  0
    3.4561   66.8677   64.4847 H   0  0  0  0  0  0  0  0  0  0  0  0
    1.4600   69.8525   63.9943 H   0  0  0  0  0  0  0  0  0  0  0  0
    2.6744   68.7063   63.3326 H   0  0  0  0  0  0  0  0  0  0  0  0
    0.9324   68.2680   63.3326 H   0  0  0  0  0  0  0  0  0  0  0  0
    4.4770   68.8788   64.7579 H   0  0  0  0  0  0  0  0  0  0  0  0
    6.0904   70.1192   66.1890 H   0  0  0  0  0  0  0  0  0  0  0  0
    3.1209   70.4051   69.3053 H   0  0  0  0  0  0  0  0  0  0  0  0
    1.4974   69.1580   67.8814 H   0  0  0  0  0  0  0  0  0  0  0  0
    5.3691   71.3219   69.4811 H   0  0  0  0  0  0  0  0  0  0  0  0
    0.9002   66.5809   67.3995 H   0  0  0  0  0  0  0  0  0  0  0  0
   -1.4120   66.5413   68.3241 H   0  0  0  0  0  0  0  0  0  0  0  0
   -2.6308   69.5422   65.4763 H   0  0  0  0  0  0  0  0  0  0  0  0
   -0.3231   69.5893   64.5401 H   0  0  0  0  0  0  0  0  0  0  0  0
   -4.1170   68.5541   67.1346 H   0  0  0  0  0  0  0  0  0  0  0  0
  2  1  1  0
  3  2  1  0
  4  2  1  0
  5  4  2  0
  6  5  1  0
  7  6  2  0
  8  7  1  0
  9  8  2  0
  9  4  1  0
 10  7  1  0
 11  2  1  0
 12 11  2  0
 13 12  1  0
 14 13  2  0
 15 14  1  0
 16 15  2  0
 16 11  1  0
 17 14  1  0
  1 18  1  0
  1 19  1  0
  1 20  1  0
  3 21  1  0
  3 22  1  0
  3 23  1  0
  5 24  1  0
  6 25  1  0
  8 26  1  0
  9 27  1  0
 10 28  1  0
 12 29  1  0
 13 30  1  0
 15 31  1  0
 16 32  1  0
 17 33  1  0
M  END
>  <score>  (1) 
-9.396

$$$$
=
     RDKit          3D

 33 34  0  0  0  0  0  0  0  0999 V2000
    1.7340   68.7050   63.8780 C   0  0  0  0  0  0  0  0  0  0  0  0
    1.9350   68.0860   65.2870 C   0  0  0  0  0  0  0  0  0  0  0  0
    2.5710   66.6910   65.0550 C   0  0  0  0  0  0  0  0  0  0  0  0
    0.5330   68.0290   65.9400 C   0  0  0  0  0  0  0  0  0  0  0  0
   -0.5080   68.8310   65.4250 C   0  0  0  0  0  0  0  0  0  0  0  0
   -1.7890   68.8040   65.9800 C   0  0  0  0  0  0  0  0  0  0  0  0
   -2.0510   67.9710   67.0570 C   0  0  0  0  0  0  0  0  0  0  0  0
   -1.0530   67.1650   67.5870 C   0  0  0  0  0  0  0  0  0  0  0  0
    0.2310   67.1940   67.0310 C   0  0  0  0  0  0  0  0  0  0  0  0
   -3.3140   67.9730   67.5700 O   0  0  0  0  0  0  0  0  0  0  0  0
    2.9310   68.8730   66.1750 C   0  0  0  0  0  0  0  0  0  0  0  0
    2.5890   69.3800   67.4400 C   0  0  0  0  0  0  0  0  0  0  0  0
    3.5170   70.0930   68.2060 C   0  0  0  0  0  0  0  0  0  0  0  0
    4.7970   70.3100   67.7180 C   0  0  0  0  0  0  0  0  0  0  0  0
    5.1700   69.8270   66.4710 C   0  0  0  0  0  0  0  0  0  0  0  0
    4.2410   69.1170   65.7060 C   0  0  0  0  0  0  0  0  0  0  0  0
    5.6680   71.0070   68.5020 O   0  0  0  0  0  0  0  0  0  0  0  0
    1.3957   69.7467   63.9800 H   0  0  0  0  0  0  0  0  0  0  0  0
    2.6861   68.6809   63.3277 H   0  0  0  0  0  0  0  0  0  0  0  0
    0.9777   68.1261   63.3277 H   0  0  0  0  0  0  0  0  0  0  0  0
    2.7858   66.2199   66.0256 H   0  0  0  0  0  0  0  0  0  0  0  0
    1.8720   66.0591   64.4874 H   0  0  0  0  0  0  0  0  0  0  0  0
    3.5064   66.8043   64.4874 H   0  0  0  0  0  0  0  0  0  0  0  0
   -0.3059   69.4911   64.5686 H   0  0  0  0  0  0  0  0  0  0  0  0
   -2.5853   69.4396   65.5654 H   0  0  0  0  0  0  0  0  0  0  0  0
   -1.2704   66.5061   68.4406 H   0  0  0  0  0  0  0  0  0  0  0  0
    1.0179   66.5526   67.4546 H   0  0  0  0  0  0  0  0  0  0  0  0
   -3.5368   67.3907   68.3390 H   0  0  0  0  0  0  0  0  0  0  0  0
    1.5756   69.2136   67.8341 H   0  0  0  0  0  0  0  0  0  0  0  0
    3.2318   70.4814   69.1949 H   0  0  0  0  0  0  0  0  0  0  0  0
    6.1867   70.0015   66.0890 H   0  0  0  0  0  0  0  0  0  0  0  0
    4.5364   68.7394   64.7160 H   0  0  0  0  0  0  0  0  0  0  0  0
    6.5897   71.1802   68.1849 H   0  0  0  0  0  0  0  0  0  0  0  0
  2  1  1  0
  3  2  1  0
  4  2  1  0
  5  4  2  0
  6  5  1  0
  7  6  2  0
  8  7  1  0
  9  8  2  0
  9  4  1  0
 10  7  1  0
 11  2  1  0
 12 11  2  0
 13 12  1  0
 14 13  2  0
 15 14  1  0
 16 15  2  0
 16 11  1  0
 17 14  1  0
  1 18  1  0
  1 19  1  0
  1 20  1  0
  3 21  1  0
  3 22  1  0
  3 23  1  0
  5 24  1  0
  6 25  1  0
  8 26  1  0
  9 27  1  0
 10 28  1  0
 12 29  1  0
 13 30  1  0
 15 31  1  0
 16 32  1  0
 17 33  1  0
M  END
>  <score>  (2) 
-9.362

$$$$
=
     RDKit          3D

 33 34  0  0  0  0  0  0  0  0999 V2000
    2.7530   66.3900   65.1180 C   0  0  0  0  0  0  0  0  0  0  0  0
    2.1850   67.7970   65.4420 C   0  0  0  0  0  0  0  0  0  0  0  0
    1.0810   67.5770   66.5080 C   0  0  0  0  0  0  0  0  0  0  0  0
    1.6530   68.3690   64.1050 C   0  0  0  0  0  0  0  0  0  0  0  0
    2.4890   68.3700   62.9670 C   0  0  0  0  0  0  0  0  0  0  0  0
    2.0450   68.8690   61.7410 C   0  0  0  0  0  0  0  0  0  0  0  0
    0.7580   69.3730   61.6310 C   0  0  0  0  0  0  0  0  0  0  0  0
   -0.0930   69.3850   62.7280 C   0  0  0  0  0  0  0  0  0  0  0  0
    0.3530   68.8850   63.9580 C   0  0  0  0  0  0  0  0  0  0  0  0
    0.3620   69.8520   60.4170 O   0  0  0  0  0  0  0  0  0  0  0  0
    3.2220   68.7530   66.0830 C   0  0  0  0  0  0  0  0  0  0  0  0
    4.4490   69.0670   65.4740 C   0  0  0  0  0  0  0  0  0  0  0  0
    5.3600   69.9290   66.0920 C   0  0  0  0  0  0  0  0  0  0  0  0
    5.0590   70.4870   67.3250 C   0  0  0  0  0  0  0  0  0  0  0  0
    3.8590   70.1970   67.9580 C   0  0  0  0  0  0  0  0  0  0  0  0
    2.9500   69.3330   67.3410 C   0  0  0  0  0  0  0  0  0  0  0  0
    5.9770   71.3240   67.8870 O   0  0  0  0  0  0  0  0  0  0  0  0
    2.9683   65.8567   66.0557 H   0  0  0  0  0  0  0  0  0  0  0  0
    2.0139   65.8217   64.5343 H   0  0  0  0  0  0  0  0  0  0  0  0
    3.6795   66.4941   64.5343 H   0  0  0  0  0  0  0  0  0  0  0  0
    1.5192   67.6643   67.5131 H   0  0  0  0  0  0  0  0  0  0  0  0
    0.2947   68.3361   66.3836 H   0  0  0  0  0  0  0  0  0  0  0  0
    0.6458   66.5745   66.3836 H   0  0  0  0  0  0  0  0  0  0  0  0
    3.5104   67.9697   63.0481 H   0  0  0  0  0  0  0  0  0  0  0  0
    2.7127   68.8623   60.8669 H   0  0  0  0  0  0  0  0  0  0  0  0
   -1.1130   69.7854   62.6316 H   0  0  0  0  0  0  0  0  0  0  0  0
   -0.3252   68.8961   64.8239 H   0  0  0  0  0  0  0  0  0  0  0  0
   -0.5504   70.2191   60.3034 H   0  0  0  0  0  0  0  0  0  0  0  0
    4.6964   68.6279   64.4963 H   0  0  0  0  0  0  0  0  0  0  0  0
    6.3153   70.1644   65.6001 H   0  0  0  0  0  0  0  0  0  0  0  0
    3.6252   70.6428   68.9361 H   0  0  0  0  0  0  0  0  0  0  0  0
    2.0015   69.0997   67.8469 H   0  0  0  0  0  0  0  0  0  0  0  0
    5.7945   71.7399   68.7667 H   0  0  0  0  0  0  0  0  0  0  0  0
  2  1  1  0
  3  2  1  0
  4  2  1  0
  5  4  2  0
  6  5  1  0
  7  6  2  0
  8  7  1  0
  9  8  2  0
  9  4  1  0
 10  7  1  0
 11  2  1  0
 12 11  2  0
 13 12  1  0
 14 13  2  0
 15 14  1  0
 16 15  2  0
 16 11  1  0
 17 14  1  0
  1 18  1  0
  1 19  1  0
  1 20  1  0
  3 21  1  0
  3 22  1  0
  3 23  1  0
  5 24  1  0
  6 25  1  0
  8 26  1  0
  9 27  1  0
 10 28  1  0
 12 29  1  0
 13 30  1  0
 15 31  1  0
 16 32  1  0
 17 33  1  0
M  END
>  <score>  (3) 
-8.984

$$$$
=
     RDKit          3D

 33 34  0  0  0  0  0  0  0  0999 V2000
    0.9870   67.7560   66.5410 C   0  0  0  0  0  0  0  0  0  0  0  0
    2.1200   67.8660   65.4880 C   0  0  0  0  0  0  0  0  0  0  0  0
    2.6010   66.4160   65.2230 C   0  0  0  0  0  0  0  0  0  0  0  0
    3.2050   68.7770   66.1110 C   0  0  0  0  0  0  0  0  0  0  0  0
    2.9840   69.3540   67.3800 C   0  0  0  0  0  0  0  0  0  0  0  0
    3.9410   70.1750   67.9810 C   0  0  0  0  0  0  0  0  0  0  0  0
    5.1350   70.4300   67.3250 C   0  0  0  0  0  0  0  0  0  0  0  0
    5.3890   69.8760   66.0770 C   0  0  0  0  0  0  0  0  0  0  0  0
    4.4290   69.0540   65.4750 C   0  0  0  0  0  0  0  0  0  0  0  0
    6.0430   71.2360   67.9440 O   0  0  0  0  0  0  0  0  0  0  0  0
    1.6460   68.4210   64.1210 C   0  0  0  0  0  0  0  0  0  0  0  0
    0.3810   69.0030   63.9310 C   0  0  0  0  0  0  0  0  0  0  0  0
   -0.0100   69.4850   62.6780 C   0  0  0  0  0  0  0  0  0  0  0  0
    0.8550   69.3890   61.5980 C   0  0  0  0  0  0  0  0  0  0  0  0
    2.1110   68.8160   61.7470 C   0  0  0  0  0  0  0  0  0  0  0  0
    2.5000   68.3340   62.9990 C   0  0  0  0  0  0  0  0  0  0  0  0
    0.4320   69.8740   60.3970 O   0  0  0  0  0  0  0  0  0  0  0  0
    1.4200   67.7980   67.5513 H   0  0  0  0  0  0  0  0  0  0  0  0
    0.2818   68.5899   66.4093 H   0  0  0  0  0  0  0  0  0  0  0  0
    0.4554   66.8020   66.4093 H   0  0  0  0  0  0  0  0  0  0  0  0
    2.7706   65.9049   66.1822 H   0  0  0  0  0  0  0  0  0  0  0  0
    1.8344   65.8744   64.6494 H   0  0  0  0  0  0  0  0  0  0  0  0
    3.5393   66.4400   64.6494 H   0  0  0  0  0  0  0  0  0  0  0  0
    2.0392   69.1531   67.9063 H   0  0  0  0  0  0  0  0  0  0  0  0
    3.7480   70.6168   68.9697 H   0  0  0  0  0  0  0  0  0  0  0  0
    6.3400   70.0822   65.5640 H   0  0  0  0  0  0  0  0  0  0  0  0
    4.6354   68.6168   64.4869 H   0  0  0  0  0  0  0  0  0  0  0  0
    6.9061   71.4388   67.5036 H   0  0  0  0  0  0  0  0  0  0  0  0
   -0.3124   69.0806   64.7814 H   0  0  0  0  0  0  0  0  0  0  0  0
   -1.0031   69.9401   62.5489 H   0  0  0  0  0  0  0  0  0  0  0  0
    2.7932   68.7423   60.8872 H   0  0  0  0  0  0  0  0  0  0  0  0
    3.4937   67.8764   63.1139 H   0  0  0  0  0  0  0  0  0  0  0  0
    1.0244   69.8214   59.6055 H   0  0  0  0  0  0  0  0  0  0  0  0
  2  1  1  0
  3  2  1  0
  4  2  1  0
  5  4  2  0
  6  5  1  0
  7  6  2  0
  8  7  1  0
  9  8  2  0
  9  4  1  0
 10  7  1  0
 11  2  1  0
 12 11  2  0
 13 12  1  0
 14 13  2  0
 15 14  1  0
 16 15  2  0
 16 11  1  0
 17 14  1  0
  1 18  1  0
  1 19  1  0
  1 20  1  0
  3 21  1  0
  3 22  1  0
  3 23  1  0
  5 24  1  0
  6 25  1  0
  8 26  1  0
  9 27  1  0
 10 28  1  0
 12 29  1  0
 13 30  1  0
 15 31  1  0
 16 32  1  0
 17 33  1  0
M  END
>  <score>  (4) 
-8.983

$$$$
=
     RDKit          3D

 33 34  0  0  0  0  0  0  0  0999 V2000
    1.1620   67.7520   65.9500 C   0  0  0  0  0  0  0  0  0  0  0  0
    2.4350   68.1480   65.1560 C   0  0  0  0  0  0  0  0  0  0  0  0
    1.9540   69.0790   64.0120 C   0  0  0  0  0  0  0  0  0  0  0  0
    3.0640   66.8250   64.6560 C   0  0  0  0  0  0  0  0  0  0  0  0
    3.9310   66.8440   63.5420 C   0  0  0  0  0  0  0  0  0  0  0  0
    4.5250   65.6730   63.0640 C   0  0  0  0  0  0  0  0  0  0  0  0
    4.2650   64.4660   63.6950 C   0  0  0  0  0  0  0  0  0  0  0  0
    3.4210   64.4100   64.7960 C   0  0  0  0  0  0  0  0  0  0  0  0
    2.8250   65.5840   65.2740 C   0  0  0  0  0  0  0  0  0  0  0  0
    4.8640   63.3470   63.1980 O   0  0  0  0  0  0  0  0  0  0  0  0
    3.4530   68.9710   65.9840 C   0  0  0  0  0  0  0  0  0  0  0  0
    4.7440   69.2770   65.5200 C   0  0  0  0  0  0  0  0  0  0  0  0
    5.6350   70.0170   66.3050 C   0  0  0  0  0  0  0  0  0  0  0  0
    5.2490   70.4580   67.5620 C   0  0  0  0  0  0  0  0  0  0  0  0
    3.9840   70.1710   68.0550 C   0  0  0  0  0  0  0  0  0  0  0  0
    3.0950   69.4300   67.2710 C   0  0  0  0  0  0  0  0  0  0  0  0
    6.1510   71.1780   68.2880 O   0  0  0  0  0  0  0  0  0  0  0  0
    1.3679   67.8161   67.0287 H   0  0  0  0  0  0  0  0  0  0  0  0
    0.3410   68.4372   65.6921 H   0  0  0  0  0  0  0  0  0  0  0  0
    0.8746   66.7220   65.6921 H   0  0  0  0  0  0  0  0  0  0  0  0
    1.4893   69.9785   64.4421 H   0  0  0  0  0  0  0  0  0  0  0  0
    2.8138   69.3716   63.3914 H   0  0  0  0  0  0  0  0  0  0  0  0
    1.2179   68.5471   63.3914 H   0  0  0  0  0  0  0  0  0  0  0  0
    4.1432   67.7997   63.0403 H   0  0  0  0  0  0  0  0  0  0  0  0
    5.1949   65.7085   62.1923 H   0  0  0  0  0  0  0  0  0  0  0  0
    3.2213   63.4480   65.2907 H   0  0  0  0  0  0  0  0  0  0  0  0
    2.1585   65.5348   66.1477 H   0  0  0  0  0  0  0  0  0  0  0  0
    4.7012   62.4680   63.6233 H   0  0  0  0  0  0  0  0  0  0  0  0
    5.0586   68.9295   64.5249 H   0  0  0  0  0  0  0  0  0  0  0  0
    6.6411   70.2489   65.9254 H   0  0  0  0  0  0  0  0  0  0  0  0
    3.6838   70.5231   69.0529 H   0  0  0  0  0  0  0  0  0  0  0  0
    2.0943   69.1992   67.6651 H   0  0  0  0  0  0  0  0  0  0  0  0
    5.9097   71.5089   69.1893 H   0  0  0  0  0  0  0  0  0  0  0  0
  2  1  1  0
  3  2  1  0
  4  2  1  0
  5  4  2  0
  6  5  1  0
  7  6  2  0
  8  7  1  0
  9  8  2  0
  9  4  1  0
 10  7  1  0
 11  2  1  0
 12 11  2  0
 13 12  1  0
 14 13  2  0
 15 14  1  0
 16 15  2  0
 16 11  1  0
 17 14  1  0
  1 18  1  0
  1 19  1  0
  1 20  1  0
  3 21  1  0
  3 22  1  0
  3 23  1  0
  5 24  1  0
  6 25  1  0
  8 26  1  0
  9 27  1  0
 10 28  1  0
 12 29  1  0
 13 30  1  0
 15 31  1  0
 16 32  1  0
 17 33  1  0
M  END
>  <score>  (5) 
-8.962

$$$$
=
     RDKit          3D

 33 34  0  0  0  0  0  0  0  0999 V2000
    4.3730   67.0120   64.2010 C   0  0  0  0  0  0  0  0  0  0  0  0
    3.8800   68.4810   64.1280 C   0  0  0  0  0  0  0  0  0  0  0  0
    4.5470   69.0960   62.8710 C   0  0  0  0  0  0  0  0  0  0  0  0
    4.3170   69.1520   65.4540 C   0  0  0  0  0  0  0  0  0  0  0  0
    5.6320   69.6490   65.5810 C   0  0  0  0  0  0  0  0  0  0  0  0
    6.0640   70.2670   66.7560 C   0  0  0  0  0  0  0  0  0  0  0  0
    5.1880   70.4010   67.8220 C   0  0  0  0  0  0  0  0  0  0  0  0
    3.8860   69.9270   67.7320 C   0  0  0  0  0  0  0  0  0  0  0  0
    3.4540   69.3060   66.5530 C   0  0  0  0  0  0  0  0  0  0  0  0
    5.6480   71.0100   68.9520 O   0  0  0  0  0  0  0  0  0  0  0  0
    2.3510   68.6140   63.9150 C   0  0  0  0  0  0  0  0  0  0  0  0
    1.4230   68.5200   64.9670 C   0  0  0  0  0  0  0  0  0  0  0  0
    0.0500   68.6380   64.7290 C   0  0  0  0  0  0  0  0  0  0  0  0
   -0.4140   68.8500   63.4390 C   0  0  0  0  0  0  0  0  0  0  0  0
    0.4730   68.9440   62.3750 C   0  0  0  0  0  0  0  0  0  0  0  0
    1.8440   68.8240   62.6140 C   0  0  0  0  0  0  0  0  0  0  0  0
   -1.7600   68.9620   63.2560 O   0  0  0  0  0  0  0  0  0  0  0  0
    4.4740   66.7110   65.2542 H   0  0  0  0  0  0  0  0  0  0  0  0
    3.6458   66.3559   63.7003 H   0  0  0  0  0  0  0  0  0  0  0  0
    5.3488   66.9274   63.7003 H   0  0  0  0  0  0  0  0  0  0  0  0
    5.3230   69.8115   63.1806 H   0  0  0  0  0  0  0  0  0  0  0  0
    5.0045   68.2961   62.2702 H   0  0  0  0  0  0  0  0  0  0  0  0
    3.7868   69.6167   62.2702 H   0  0  0  0  0  0  0  0  0  0  0  0
    6.3304   69.5474   64.7373 H   0  0  0  0  0  0  0  0  0  0  0  0
    7.0938   70.6455   66.8355 H   0  0  0  0  0  0  0  0  0  0  0  0
    3.1972   70.0386   68.5823 H   0  0  0  0  0  0  0  0  0  0  0  0
    2.4216   68.9324   66.4860 H   0  0  0  0  0  0  0  0  0  0  0  0
    5.0493   71.1224   69.7324 H   0  0  0  0  0  0  0  0  0  0  0  0
    1.7824   68.3511   65.9928 H   0  0  0  0  0  0  0  0  0  0  0  0
   -0.6617   68.5627   65.5643 H   0  0  0  0  0  0  0  0  0  0  0  0
    0.0998   69.1113   61.3539 H   0  0  0  0  0  0  0  0  0  0  0  0
    2.5449   68.8947   61.7692 H   0  0  0  0  0  0  0  0  0  0  0  0
   -2.1252   69.1136   62.3484 H   0  0  0  0  0  0  0  0  0  0  0  0
  2  1  1  0
  3  2  1  0
  4  2  1  0
  5  4  2  0
  6  5  1  0
  7  6  2  0
  8  7  1  0
  9  8  2  0
  9  4  1  0
 10  7  1  0
 11  2  1  0
 12 11  2  0
 13 12  1  0
 14 13  2  0
 15 14  1  0
 16 15  2  0
 16 11  1  0
 17 14  1  0
  1 18  1  0
  1 19  1  0
  1 20  1  0
  3 21  1  0
  3 22  1  0
  3 23  1  0
  5 24  1  0
  6 25  1  0
  8 26  1  0
  9 27  1  0
 10 28  1  0
 12 29  1  0
 13 30  1  0
 15 31  1  0
 16 32  1  0
 17 33  1  0
M  END
>  <score>  (6) 
-8.856

$$$$
=
     RDKit          3D

 33 34  0  0  0  0  0  0  0  0999 V2000
    2.7720   66.1980   65.0180 C   0  0  0  0  0  0  0  0  0  0  0  0
    3.2170   67.6360   64.6430 C   0  0  0  0  0  0  0  0  0  0  0  0
    4.6610   67.5070   64.0920 C   0  0  0  0  0  0  0  0  0  0  0  0
    3.1210   68.4730   65.9430 C   0  0  0  0  0  0  0  0  0  0  0  0
    2.0210   68.2890   66.8080 C   0  0  0  0  0  0  0  0  0  0  0  0
    1.9000   69.0180   67.9930 C   0  0  0  0  0  0  0  0  0  0  0  0
    2.8780   69.9390   68.3340 C   0  0  0  0  0  0  0  0  0  0  0  0
    3.9760   70.1440   67.5090 C   0  0  0  0  0  0  0  0  0  0  0  0
    4.0960   69.4130   66.3200 C   0  0  0  0  0  0  0  0  0  0  0  0
    2.7240   70.6310   69.4990 O   0  0  0  0  0  0  0  0  0  0  0  0
    2.3750   68.2720   63.5090 C   0  0  0  0  0  0  0  0  0  0  0  0
    2.8780   68.4850   62.2140 C   0  0  0  0  0  0  0  0  0  0  0  0
    2.0860   69.0700   61.2200 C   0  0  0  0  0  0  0  0  0  0  0  0
    0.7840   69.4500   61.5080 C   0  0  0  0  0  0  0  0  0  0  0  0
    0.2540   69.2590   62.7760 C   0  0  0  0  0  0  0  0  0  0  0  0
    1.0470   68.6760   63.7690 C   0  0  0  0  0  0  0  0  0  0  0  0
    0.0490   70.0130   60.5070 O   0  0  0  0  0  0  0  0  0  0  0  0
    2.7409   66.0976   66.1130 H   0  0  0  0  0  0  0  0  0  0  0  0
    1.7718   66.0039   64.6035 H   0  0  0  0  0  0  0  0  0  0  0  0
    3.4878   65.4728   64.6035 H   0  0  0  0  0  0  0  0  0  0  0  0
    5.3694   67.4437   64.9312 H   0  0  0  0  0  0  0  0  0  0  0  0
    4.7390   66.5983   63.4770 H   0  0  0  0  0  0  0  0  0  0  0  0
    4.8988   68.3875   63.4770 H   0  0  0  0  0  0  0  0  0  0  0  0
    1.2437   67.5570   66.5436 H   0  0  0  0  0  0  0  0  0  0  0  0
    1.0333   68.8621   68.6521 H   0  0  0  0  0  0  0  0  0  0  0  0
    4.7477   70.8767   67.7877 H   0  0  0  0  0  0  0  0  0  0  0  0
    4.9682   69.5774   65.6701 H   0  0  0  0  0  0  0  0  0  0  0  0
    3.4038   71.2965   69.7730 H   0  0  0  0  0  0  0  0  0  0  0  0
    3.9103   68.1872   61.9783 H   0  0  0  0  0  0  0  0  0  0  0  0
    2.4957   69.2282   60.2115 H   0  0  0  0  0  0  0  0  0  0  0  0
   -0.7796   69.5632   62.9977 H   0  0  0  0  0  0  0  0  0  0  0  0
    0.6272   68.5287   64.7750 H   0  0  0  0  0  0  0  0  0  0  0  0
   -0.8842   70.2962   60.6773 H   0  0  0  0  0  0  0  0  0  0  0  0
  2  1  1  0
  3  2  1  0
  4  2  1  0
  5  4  2  0
  6  5  1  0
  7  6  2  0
  8  7  1  0
  9  8  2  0
  9  4  1  0
 10  7  1  0
 11  2  1  0
 12 11  2  0
 13 12  1  0
 14 13  2  0
 15 14  1  0
 16 15  2  0
 16 11  1  0
 17 14  1  0
  1 18  1  0
  1 19  1  0
  1 20  1  0
  3 21  1  0
  3 22  1  0
  3 23  1  0
  5 24  1  0
  6 25  1  0
  8 26  1  0
  9 27  1  0
 10 28  1  0
 12 29  1  0
 13 30  1  0
 15 31  1  0
 16 32  1  0
 17 33  1  0
M  END
>  <score>  (7) 
-8.709

$$$$
=
     RDKit          3D

 33 34  0  0  0  0  0  0  0  0999 V2000
    3.8710   69.3550   63.9370 C   0  0  0  0  0  0  0  0  0  0  0  0
    2.9280   68.4060   64.7220 C   0  0  0  0  0  0  0  0  0  0  0  0
    3.0840   68.7870   66.2170 C   0  0  0  0  0  0  0  0  0  0  0  0
    3.3930   66.9660   64.3960 C   0  0  0  0  0  0  0  0  0  0  0  0
    4.4030   66.7620   63.4300 C   0  0  0  0  0  0  0  0  0  0  0  0
    4.8560   65.4800   63.1130 C   0  0  0  0  0  0  0  0  0  0  0  0
    4.3100   64.3810   63.7570 C   0  0  0  0  0  0  0  0  0  0  0  0
    3.3180   64.5430   64.7150 C   0  0  0  0  0  0  0  0  0  0  0  0
    2.8630   65.8290   65.0320 C   0  0  0  0  0  0  0  0  0  0  0  0
    4.7790   63.1460   63.4200 O   0  0  0  0  0  0  0  0  0  0  0  0
    1.4290   68.5970   64.3800 C   0  0  0  0  0  0  0  0  0  0  0  0
    0.9680   68.8320   63.0730 C   0  0  0  0  0  0  0  0  0  0  0  0
   -0.3940   69.0070   62.8110 C   0  0  0  0  0  0  0  0  0  0  0  0
   -1.3130   68.9520   63.8480 C   0  0  0  0  0  0  0  0  0  0  0  0
   -0.8940   68.7260   65.1520 C   0  0  0  0  0  0  0  0  0  0  0  0
    0.4680   68.5530   65.4140 C   0  0  0  0  0  0  0  0  0  0  0  0
   -2.6300   69.1250   63.5430 O   0  0  0  0  0  0  0  0  0  0  0  0
    4.4639   69.9516   64.6459 H   0  0  0  0  0  0  0  0  0  0  0  0
    4.5460   68.7601   63.3042 H   0  0  0  0  0  0  0  0  0  0  0  0
    3.2718   70.0262   63.3042 H   0  0  0  0  0  0  0  0  0  0  0  0
    2.7420   67.9518   66.8459 H   0  0  0  0  0  0  0  0  0  0  0  0
    4.1415   68.9994   66.4328 H   0  0  0  0  0  0  0  0  0  0  0  0
    2.4792   69.6801   66.4328 H   0  0  0  0  0  0  0  0  0  0  0  0
    4.8415   67.6307   62.9171 H   0  0  0  0  0  0  0  0  0  0  0  0
    5.6422   65.3429   62.3560 H   0  0  0  0  0  0  0  0  0  0  0  0
    2.8915   63.6653   65.2226 H   0  0  0  0  0  0  0  0  0  0  0  0
    2.0772   65.9520   65.7919 H   0  0  0  0  0  0  0  0  0  0  0  0
    4.4109   62.3395   63.8607 H   0  0  0  0  0  0  0  0  0  0  0  0
    1.6896   68.8789   62.2441 H   0  0  0  0  0  0  0  0  0  0  0  0
   -0.7369   69.1884   61.7817 H   0  0  0  0  0  0  0  0  0  0  0  0
   -1.6268   68.6835   65.9712 H   0  0  0  0  0  0  0  0  0  0  0  0
    0.7987   68.3787   66.4485 H   0  0  0  0  0  0  0  0  0  0  0  0
   -3.3125   69.0917   64.2594 H   0  0  0  0  0  0  0  0  0  0  0  0
  2  1  1  0
  3  2  1  0
  4  2  1  0
  5  4  2  0
  6  5  1  0
  7  6  2  0
  8  7  1  0
  9  8  2  0
  9  4  1  0
 10  7  1  0
 11  2  1  0
 12 11  2  0
 13 12  1  0
 14 13  2  0
 15 14  1  0
 16 15  2  0
 16 11  1  0
 17 14  1  0
  1 18  1  0
  1 19  1  0
  1 20  1  0
  3 21  1  0
  3 22  1  0
  3 23  1  0
  5 24  1  0
  6 25  1  0
  8 26  1  0
  9 27  1  0
 10 28  1  0
 12 29  1  0
 13 30  1  0
 15 31  1  0
 16 32  1  0
 17 33  1  0
M  END
>  <score>  (8) 
-8.315

$$$$
=
     RDKit          3D

 33 34  0  0  0  0  0  0  0  0999 V2000
    3.7720   62.8460   68.5150 C   0  0  0  0  0  0  0  0  0  0  0  0
    3.7390   62.7850   70.0650 C   0  0  0  0  0  0  0  0  0  0  0  0
    5.0340   63.4880   70.5480 C   0  0  0  0  0  0  0  0  0  0  0  0
    3.6700   61.2840   70.4390 C   0  0  0  0  0  0  0  0  0  0  0  0
    3.3270   60.3360   69.4510 C   0  0  0  0  0  0  0  0  0  0  0  0
    3.2600   58.9720   69.7450 C   0  0  0  0  0  0  0  0  0  0  0  0
    3.5400   58.5340   71.0300 C   0  0  0  0  0  0  0  0  0  0  0  0
    3.8850   59.4370   72.0270 C   0  0  0  0  0  0  0  0  0  0  0  0
    3.9500   60.8050   71.7310 C   0  0  0  0  0  0  0  0  0  0  0  0
    3.4650   57.1950   71.2770 O   0  0  0  0  0  0  0  0  0  0  0  0
    2.5600   63.5700   70.6930 C   0  0  0  0  0  0  0  0  0  0  0  0
    1.8830   63.1360   71.8460 C   0  0  0  0  0  0  0  0  0  0  0  0
    0.8190   63.8720   72.3760 C   0  0  0  0  0  0  0  0  0  0  0  0
    0.4150   65.0480   71.7610 C   0  0  0  0  0  0  0  0  0  0  0  0
    1.0580   65.5050   70.6180 C   0  0  0  0  0  0  0  0  0  0  0  0
    2.1200   64.7680   70.0890 C   0  0  0  0  0  0  0  0  0  0  0  0
   -0.6250   65.7330   72.3150 O   0  0  0  0  0  0  0  0  0  0  0  0
    4.2728   63.7717   68.1951 H   0  0  0  0  0  0  0  0  0  0  0  0
    4.3233   61.9774   68.1255 H   0  0  0  0  0  0  0  0  0  0  0  0
    2.7434   62.8321   68.1255 H   0  0  0  0  0  0  0  0  0  0  0  0
    5.0563   63.5001   71.6477 H   0  0  0  0  0  0  0  0  0  0  0  0
    5.9107   62.9420   70.1695 H   0  0  0  0  0  0  0  0  0  0  0  0
    5.0537   64.5206   70.1695 H   0  0  0  0  0  0  0  0  0  0  0  0
    3.1080   60.6783   68.4288 H   0  0  0  0  0  0  0  0  0  0  0  0
    2.9867   58.2499   68.9615 H   0  0  0  0  0  0  0  0  0  0  0  0
    4.1061   59.0802   73.0438 H   0  0  0  0  0  0  0  0  0  0  0  0
    4.2249   61.5168   72.5233 H   0  0  0  0  0  0  0  0  0  0  0  0
    3.6585   56.8473   72.1835 H   0  0  0  0  0  0  0  0  0  0  0  0
    2.1951   62.2033   72.3386 H   0  0  0  0  0  0  0  0  0  0  0  0
    0.3023   63.5186   73.2805 H   0  0  0  0  0  0  0  0  0  0  0  0
    0.7341   66.4382   70.1341 H   0  0  0  0  0  0  0  0  0  0  0  0
    2.6252   65.1292   69.1810 H   0  0  0  0  0  0  0  0  0  0  0  0
   -0.9387   66.5760   71.9015 H   0  0  0  0  0  0  0  0  0  0  0  0
  2  1  1  0
  3  2  1  0
  4  2  1  0
  5  4  2  0
  6  5  1  0
  7  6  2  0
  8  7  1  0
  9  8  2  0
  9  4  1  0
 10  7  1  0
 11  2  1  0
 12 11  2  0
 13 12  1  0
 14 13  2  0
 15 14  1  0
 16 15  2  0
 16 11  1  0
 17 14  1  0
  1 18  1  0
  1 19  1  0
  1 20  1  0
  3 21  1  0
  3 22  1  0
  3 23  1  0
  5 24  1  0
  6 25  1  0
  8 26  1  0
  9 27  1  0
 10 28  1  0
 12 29  1  0
 13 30  1  0
 15 31  1  0
 16 32  1  0
 17 33  1  0
M  END
>  <score>  (9) 
-7.872

$$$$
