=
     RDKit          3D

 60 63  0  0  0  0  0  0  0  0999 V2000
    1.2840   64.5190   69.9080 O   0  0  0  0  0  0  0  0  0  0  0  0
    1.6430   63.5710   70.5990 C   0  0  0  0  0  0  0  0  0  0  0  0
    2.3670   62.4270   70.0140 C   0  0  0  0  0  0  0  0  0  0  0  0
    2.8290   61.4370   70.7880 C   0  0  0  0  0  0  0  0  0  0  0  0
    2.6780   61.3570   72.3070 C   0  0  1  0  0  0  0  0  0  0  0  0
    1.8430   62.5440   72.8330 C   0  0  0  0  0  0  0  0  0  0  0  0
    1.3810   63.5350   72.0510 C   0  0  0  0  0  0  0  0  0  0  0  0
    1.5120   62.5180   74.3040 C   0  0  0  0  0  0  0  0  0  0  0  0
    0.8340   61.2090   74.6970 C   0  0  0  0  0  0  0  0  0  0  0  0
    1.6630   59.9840   74.2720 C   0  0  2  0  0  0  0  0  0  0  0  0
    1.9430   60.0160   72.7320 C   0  0  1  0  0  0  0  0  0  0  0  0
    0.6990   60.0650   72.1200 F   0  0  0  0  0  0  0  0  0  0  0  0
    2.5940   58.6940   72.2110 C   0  0  2  0  0  0  0  0  0  0  0  0
    1.8990   57.4170   72.7350 C   0  0  0  0  0  0  0  0  0  0  0  0
    1.7340   57.4000   74.2710 C   0  0  1  0  0  0  0  0  0  0  0  0
    0.9440   58.6790   74.6460 C   0  0  1  0  0  0  0  0  0  0  0  0
    0.6050   58.4340   76.1120 C   0  0  0  0  0  0  0  0  0  0  0  0
    0.2560   56.9190   76.1900 C   0  0  1  0  0  0  0  0  0  0  0  0
    0.7450   56.2870   74.8340 C   0  0  1  0  0  0  0  0  0  0  0  0
    0.7970   56.3280   77.4900 C   0  0  0  0  0  0  0  0  0  0  0  0
    3.1320   57.3590   74.9540 C   0  0  0  0  0  0  0  0  0  0  0  0
    4.1060   61.5070   72.8830 C   0  0  0  0  0  0  0  0  0  0  0  0
    3.9980   58.6330   72.4640 O   0  0  0  0  0  0  0  0  0  0  0  0
   -0.3630   56.2920   73.9250 O   0  0  0  0  0  0  0  0  0  0  0  0
    1.3680   54.8550   74.9000 C   0  0  0  0  0  0  0  0  0  0  0  0
    2.5770   54.6640   74.6900 O   0  0  0  0  0  0  0  0  0  0  0  0
    0.4950   53.6670   75.2810 C   0  0  0  0  0  0  0  0  0  0  0  0
   -0.7600   53.6280   74.6620 O   0  0  0  0  0  0  0  0  0  0  0  0
   -2.0160   53.6090   75.7080 P   0  0  0  0  0  5  0  0  0  0  0  0
   -1.3470   53.5690   77.0710 O   0  0  0  0  0  0  0  0  0  0  0  0
   -2.8030   52.3770   75.3200 O   0  0  0  0  0  1  0  0  0  0  0  0
   -2.6880   54.9360   75.3810 O   0  0  0  0  0  1  0  0  0  0  0  0
    2.5297   62.3866   68.9268 H   0  0  0  0  0  0  0  0  0  0  0  0
    3.3611   60.6133   70.2897 H   0  0  0  0  0  0  0  0  0  0  0  0
    0.7901   64.3431   72.5068 H   0  0  0  0  0  0  0  0  0  0  0  0
    2.4413   62.6279   74.8823 H   0  0  0  0  0  0  0  0  0  0  0  0
    0.8197   63.3455   74.5186 H   0  0  0  0  0  0  0  0  0  0  0  0
    0.7045   61.1894   75.7892 H   0  0  0  0  0  0  0  0  0  0  0  0
   -0.1367   61.1595   74.1819 H   0  0  0  0  0  0  0  0  0  0  0  0
    2.6220   60.0223   74.8095 H   0  0  0  0  0  0  0  0  0  0  0  0
    2.4440   58.7238   71.1217 H   0  0  0  0  0  0  0  0  0  0  0  0
    0.9019   57.3482   72.2756 H   0  0  0  0  0  0  0  0  0  0  0  0
    2.5382   56.5632   72.4656 H   0  0  0  0  0  0  0  0  0  0  0  0
    0.0241   58.8454   74.0663 H   0  0  0  0  0  0  0  0  0  0  0  0
    1.4677   58.6667   76.7536 H   0  0  0  0  0  0  0  0  0  0  0  0
   -0.2227   59.0698   76.4593 H   0  0  0  0  0  0  0  0  0  0  0  0
   -0.8186   56.6958   76.2629 H   0  0  0  0  0  0  0  0  0  0  0  0
    0.3308   56.8373   78.3463 H   0  0  0  0  0  0  0  0  0  0  0  0
    0.5625   55.2540   77.5301 H   0  0  0  0  0  0  0  0  0  0  0  0
    1.8875   56.4669   77.5301 H   0  0  0  0  0  0  0  0  0  0  0  0
    3.0064   57.3627   76.0468 H   0  0  0  0  0  0  0  0  0  0  0  0
    3.6625   56.4449   74.6489 H   0  0  0  0  0  0  0  0  0  0  0  0
    3.7151   58.2404   74.6489 H   0  0  0  0  0  0  0  0  0  0  0  0
    4.0604   61.5022   73.9820 H   0  0  0  0  0  0  0  0  0  0  0  0
    4.7303   60.6695   72.5383 H   0  0  0  0  0  0  0  0  0  0  0  0
    4.5426   62.4560   72.5383 H   0  0  0  0  0  0  0  0  0  0  0  0
    4.1572   58.6261   73.4411 H   0  0  0  0  0  0  0  0  0  0  0  0
   -1.2101   56.2958   74.4373 H   0  0  0  0  0  0  0  0  0  0  0  0
    1.0356   52.7473   75.0129 H   0  0  0  0  0  0  0  0  0  0  0  0
    0.3011   53.7635   76.3595 H   0  0  0  0  0  0  0  0  0  0  0  0
  2  1  2  0
  3  2  1  0
  4  3  2  0
  5  4  1  0
  6  5  1  0
  7  2  1  0
  7  6  2  0
  8  6  1  0
  9  8  1  0
 10  9  1  0
 11 10  1  0
 11  5  1  0
 11 12  1  6
 13 11  1  0
 14 13  1  0
 15 14  1  0
 16 15  1  0
 16 10  1  0
 17 16  1  0
 18 17  1  0
 19 18  1  0
 19 15  1  0
 20 18  1  0
 15 21  1  1
  5 22  1  1
 23 13  1  0
 19 24  1  6
 25 19  1  0
 26 25  2  0
 27 25  1  0
 28 27  1  0
 29 28  1  0
 30 29  2  0
 31 29  1  0
 32 29  1  0
  3 33  1  0
  4 34  1  0
  7 35  1  0
  8 36  1  0
  8 37  1  0
  9 38  1  0
  9 39  1  0
 10 40  1  1
 13 41  1  6
 14 42  1  0
 14 43  1  0
 16 44  1  6
 17 45  1  0
 17 46  1  0
 18 47  1  1
 20 48  1  0
 20 49  1  0
 20 50  1  0
 21 51  1  0
 21 52  1  0
 21 53  1  0
 22 54  1  0
 22 55  1  0
 22 56  1  0
 23 57  1  0
 24 58  1  0
 27 59  1  0
 27 60  1  0
M  CHG  2  31  -1  32  -1
M  END
>  <score>  (1) 
-8.18

$$$$
=
     RDKit          3D

 60 63  0  0  0  0  0  0  0  0999 V2000
    3.4300   63.0450   67.8570 O   0  0  0  0  0  0  0  0  0  0  0  0
    3.4250   62.4820   68.9470 C   0  0  0  0  0  0  0  0  0  0  0  0
    4.0710   61.1700   69.1340 C   0  0  0  0  0  0  0  0  0  0  0  0
    4.1350   60.6020   70.3450 C   0  0  0  0  0  0  0  0  0  0  0  0
    3.5750   61.2010   71.6350 C   0  0  1  0  0  0  0  0  0  0  0  0
    2.8470   62.5310   71.3450 C   0  0  0  0  0  0  0  0  0  0  0  0
    2.7860   63.0970   70.1260 C   0  0  0  0  0  0  0  0  0  0  0  0
    2.1390   63.1660   72.5150 C   0  0  0  0  0  0  0  0  0  0  0  0
    1.1670   62.1890   73.1710 C   0  0  0  0  0  0  0  0  0  0  0  0
    1.8570   60.8700   73.5620 C   0  0  2  0  0  0  0  0  0  0  0  0
    2.5360   60.2130   72.3140 C   0  0  1  0  0  0  0  0  0  0  0  0
    1.5250   60.0380   71.3790 F   0  0  0  0  0  0  0  0  0  0  0  0
    3.0650   58.7710   72.6060 C   0  0  2  0  0  0  0  0  0  0  0  0
    2.0480   57.8820   73.3560 C   0  0  0  0  0  0  0  0  0  0  0  0
    1.4820   58.5460   74.6300 C   0  0  1  0  0  0  0  0  0  0  0  0
    0.8510   59.8910   74.1870 C   0  0  1  0  0  0  0  0  0  0  0  0
    0.1000   60.3270   75.4390 C   0  0  0  0  0  0  0  0  0  0  0  0
   -0.5120   59.0150   76.0110 C   0  0  1  0  0  0  0  0  0  0  0  0
    0.2030   57.8340   75.2550 C   0  0  1  0  0  0  0  0  0  0  0  0
   -0.4440   59.0320   77.5370 C   0  0  0  0  0  0  0  0  0  0  0  0
    2.6200   58.7530   75.6710 C   0  0  0  0  0  0  0  0  0  0  0  0
    4.8040   61.5310   72.5160 C   0  0  0  0  0  0  0  0  0  0  0  0
    4.3190   58.7710   73.2870 O   0  0  0  0  0  0  0  0  0  0  0  0
   -0.6070   57.4840   74.1260 O   0  0  0  0  0  0  0  0  0  0  0  0
    0.5310   56.5510   76.0870 C   0  0  0  0  0  0  0  0  0  0  0  0
    1.4600   56.5340   76.9120 O   0  0  0  0  0  0  0  0  0  0  0  0
   -0.3340   55.3070   75.9330 C   0  0  0  0  0  0  0  0  0  0  0  0
   -0.1850   54.6260   74.7190 O   0  0  0  0  0  0  0  0  0  0  0  0
    0.9560   53.4560   74.7500 P   0  0  0  0  0  5  0  0  0  0  0  0
    1.0910   53.1270   76.2270 O   0  0  0  0  0  0  0  0  0  0  0  0
    2.1630   54.0970   74.1000 O   0  0  0  0  0  1  0  0  0  0  0  0
    0.2790   52.3670   73.9280 O   0  0  0  0  0  1  0  0  0  0  0  0
    4.5062   60.6508   68.2673 H   0  0  0  0  0  0  0  0  0  0  0  0
    4.6317   59.6232   70.4174 H   0  0  0  0  0  0  0  0  0  0  0  0
    2.2437   64.0463   70.0048 H   0  0  0  0  0  0  0  0  0  0  0  0
    2.8863   63.4813   73.2580 H   0  0  0  0  0  0  0  0  0  0  0  0
    1.5672   64.0308   72.1474 H   0  0  0  0  0  0  0  0  0  0  0  0
    0.7510   62.6550   74.0764 H   0  0  0  0  0  0  0  0  0  0  0  0
    0.3740   61.9571   72.4448 H   0  0  0  0  0  0  0  0  0  0  0  0
    2.6316   61.1013   74.3080 H   0  0  0  0  0  0  0  0  0  0  0  0
    3.2160   58.3263   71.6113 H   0  0  0  0  0  0  0  0  0  0  0  0
    1.2117   57.6587   72.6772 H   0  0  0  0  0  0  0  0  0  0  0  0
    2.5795   56.9718   73.6707 H   0  0  0  0  0  0  0  0  0  0  0  0
    0.1590   59.8232   73.3346 H   0  0  0  0  0  0  0  0  0  0  0  0
    0.7890   60.7824   76.1656 H   0  0  0  0  0  0  0  0  0  0  0  0
   -0.6682   61.0835   75.2208 H   0  0  0  0  0  0  0  0  0  0  0  0
   -1.5895   58.8898   75.8284 H   0  0  0  0  0  0  0  0  0  0  0  0
   -1.4327   58.7848   77.9509 H   0  0  0  0  0  0  0  0  0  0  0  0
    0.2927   58.2904   77.8795 H   0  0  0  0  0  0  0  0  0  0  0  0
   -0.1430   60.0330   77.8795 H   0  0  0  0  0  0  0  0  0  0  0  0
    2.2056   58.6776   76.6871 H   0  0  0  0  0  0  0  0  0  0  0  0
    3.3902   57.9802   75.5309 H   0  0  0  0  0  0  0  0  0  0  0  0
    3.0687   59.7475   75.5309 H   0  0  0  0  0  0  0  0  0  0  0  0
    4.5250   61.4561   73.5774 H   0  0  0  0  0  0  0  0  0  0  0  0
    5.6131   60.8183   72.2984 H   0  0  0  0  0  0  0  0  0  0  0  0
    5.1473   62.5531   72.2984 H   0  0  0  0  0  0  0  0  0  0  0  0
    4.6090   57.8376   73.4445 H   0  0  0  0  0  0  0  0  0  0  0  0
   -1.4686   57.1117   74.4408 H   0  0  0  0  0  0  0  0  0  0  0  0
   -0.0794   54.6122   76.7468 H   0  0  0  0  0  0  0  0  0  0  0  0
   -1.3774   55.6541   75.9632 H   0  0  0  0  0  0  0  0  0  0  0  0
  2  1  2  0
  3  2  1  0
  4  3  2  0
  5  4  1  0
  6  5  1  0
  7  2  1  0
  7  6  2  0
  8  6  1  0
  9  8  1  0
 10  9  1  0
 11 10  1  0
 11  5  1  0
 11 12  1  6
 13 11  1  0
 14 13  1  0
 15 14  1  0
 16 15  1  0
 16 10  1  0
 17 16  1  0
 18 17  1  0
 19 18  1  0
 19 15  1  0
 20 18  1  0
 15 21  1  1
  5 22  1  1
 23 13  1  0
 19 24  1  6
 25 19  1  0
 26 25  2  0
 27 25  1  0
 28 27  1  0
 29 28  1  0
 30 29  2  0
 31 29  1  0
 32 29  1  0
  3 33  1  0
  4 34  1  0
  7 35  1  0
  8 36  1  0
  8 37  1  0
  9 38  1  0
  9 39  1  0
 10 40  1  1
 13 41  1  6
 14 42  1  0
 14 43  1  0
 16 44  1  6
 17 45  1  0
 17 46  1  0
 18 47  1  1
 20 48  1  0
 20 49  1  0
 20 50  1  0
 21 51  1  0
 21 52  1  0
 21 53  1  0
 22 54  1  0
 22 55  1  0
 22 56  1  0
 23 57  1  0
 24 58  1  0
 27 59  1  0
 27 60  1  0
M  CHG  2  31  -1  32  -1
M  END
>  <score>  (2) 
-8.165

$$$$
=
     RDKit          3D

 60 63  0  0  0  0  0  0  0  0999 V2000
   -1.4600   55.7010   76.9630 O   0  0  0  0  0  0  0  0  0  0  0  0
   -0.6060   56.4260   76.4640 C   0  0  0  0  0  0  0  0  0  0  0  0
   -0.3200   57.7640   77.0140 C   0  0  0  0  0  0  0  0  0  0  0  0
    0.6710   58.5150   76.5170 C   0  0  0  0  0  0  0  0  0  0  0  0
    1.5960   58.1120   75.3680 C   0  0  1  0  0  0  0  0  0  0  0  0
    1.1840   56.7390   74.7950 C   0  0  0  0  0  0  0  0  0  0  0  0
    0.1880   55.9900   75.2990 C   0  0  0  0  0  0  0  0  0  0  0  0
    1.9390   56.2810   73.5730 C   0  0  0  0  0  0  0  0  0  0  0  0
    1.8880   57.3280   72.4650 C   0  0  0  0  0  0  0  0  0  0  0  0
    2.3690   58.7060   72.9550 C   0  0  2  0  0  0  0  0  0  0  0  0
    1.5300   59.1740   74.1910 C   0  0  1  0  0  0  0  0  0  0  0  0
    0.2070   59.1810   73.7710 F   0  0  0  0  0  0  0  0  0  0  0  0
    1.8300   60.6530   74.5960 C   0  0  2  0  0  0  0  0  0  0  0  0
    1.8510   61.6280   73.3970 C   0  0  0  0  0  0  0  0  0  0  0  0
    2.7680   61.1590   72.2470 C   0  0  1  0  0  0  0  0  0  0  0  0
    2.2750   59.7500   71.8320 C   0  0  1  0  0  0  0  0  0  0  0  0
    3.0500   59.4990   70.5440 C   0  0  0  0  0  0  0  0  0  0  0  0
    3.0540   60.8720   69.8100 C   0  0  1  0  0  0  0  0  0  0  0  0
    2.5800   61.9350   70.8700 C   0  0  1  0  0  0  0  0  0  0  0  0
    4.4030   61.0940   69.1290 C   0  0  0  0  0  0  0  0  0  0  0  0
    4.2500   61.1390   72.7250 C   0  0  0  0  0  0  0  0  0  0  0  0
    3.0010   57.9470   75.9950 C   0  0  0  0  0  0  0  0  0  0  0  0
    3.0280   60.7840   75.3610 O   0  0  0  0  0  0  0  0  0  0  0  0
    1.1620   62.0890   70.7300 O   0  0  0  0  0  0  0  0  0  0  0  0
    3.2700   63.3370   70.8290 C   0  0  0  0  0  0  0  0  0  0  0  0
    4.5000   63.4510   70.6960 O   0  0  0  0  0  0  0  0  0  0  0  0
    2.4210   64.6010   70.8970 C   0  0  0  0  0  0  0  0  0  0  0  0
    1.4740   64.7370   69.8750 O   0  0  0  0  0  0  0  0  0  0  0  0
    0.5260   66.0590   70.0200 P   0  0  0  0  0  5  0  0  0  0  0  0
    0.0010   65.9700   71.4430 O   0  0  0  0  0  0  0  0  0  0  0  0
   -0.5030   65.9010   68.9220 O   0  0  0  0  0  1  0  0  0  0  0  0
    1.5430   67.1720   69.7990 O   0  0  0  0  0  1  0  0  0  0  0  0
   -0.9293   58.1506   77.8442 H   0  0  0  0  0  0  0  0  0  0  0  0
    0.8330   59.5030   76.9727 H   0  0  0  0  0  0  0  0  0  0  0  0
   -0.0422   55.0226   74.8287 H   0  0  0  0  0  0  0  0  0  0  0  0
    2.9888   56.1005   73.8473 H   0  0  0  0  0  0  0  0  0  0  0  0
    1.4697   55.3584   73.2006 H   0  0  0  0  0  0  0  0  0  0  0  0
    2.5327   57.0004   71.6361 H   0  0  0  0  0  0  0  0  0  0  0  0
    0.8424   57.4281   72.1383 H   0  0  0  0  0  0  0  0  0  0  0  0
    3.4226   58.6093   73.2559 H   0  0  0  0  0  0  0  0  0  0  0  0
    0.9826   60.9401   75.2359 H   0  0  0  0  0  0  0  0  0  0  0  0
    0.8265   61.7268   73.0089 H   0  0  0  0  0  0  0  0  0  0  0  0
    2.2491   62.5862   73.7621 H   0  0  0  0  0  0  0  0  0  0  0  0
    1.1939   59.6707   71.6448 H   0  0  0  0  0  0  0  0  0  0  0  0
    4.0775   59.1753   70.7665 H   0  0  0  0  0  0  0  0  0  0  0  0
    2.5971   58.7031   69.9346 H   0  0  0  0  0  0  0  0  0  0  0  0
    2.3535   60.9461   68.9652 H   0  0  0  0  0  0  0  0  0  0  0  0
    5.1831   61.2224   69.8938 H   0  0  0  0  0  0  0  0  0  0  0  0
    4.6446   60.2235   68.5014 H   0  0  0  0  0  0  0  0  0  0  0  0
    4.3529   61.9960   68.5014 H   0  0  0  0  0  0  0  0  0  0  0  0
    4.2806   61.1386   73.8246 H   0  0  0  0  0  0  0  0  0  0  0  0
    4.7460   60.2341   72.3440 H   0  0  0  0  0  0  0  0  0  0  0  0
    4.7702   62.0302   72.3440 H   0  0  0  0  0  0  0  0  0  0  0  0
    2.9166   57.9569   77.0917 H   0  0  0  0  0  0  0  0  0  0  0  0
    3.4379   56.9914   75.6695 H   0  0  0  0  0  0  0  0  0  0  0  0
    3.6474   58.7754   75.6695 H   0  0  0  0  0  0  0  0  0  0  0  0
    2.8077   60.7599   76.3259 H   0  0  0  0  0  0  0  0  0  0  0  0
    0.7449   62.1343   71.6267 H   0  0  0  0  0  0  0  0  0  0  0  0
    1.8868   64.6011   71.8586 H   0  0  0  0  0  0  0  0  0  0  0  0
    3.1180   65.4442   70.7824 H   0  0  0  0  0  0  0  0  0  0  0  0
  2  1  2  0
  3  2  1  0
  4  3  2  0
  5  4  1  0
  6  5  1  0
  7  2  1  0
  7  6  2  0
  8  6  1  0
  9  8  1  0
 10  9  1  0
 11 10  1  0
 11  5  1  0
 11 12  1  6
 13 11  1  0
 14 13  1  0
 15 14  1  0
 16 15  1  0
 16 10  1  0
 17 16  1  0
 18 17  1  0
 19 18  1  0
 19 15  1  0
 20 18  1  0
 15 21  1  1
  5 22  1  1
 23 13  1  0
 19 24  1  6
 25 19  1  0
 26 25  2  0
 27 25  1  0
 28 27  1  0
 29 28  1  0
 30 29  2  0
 31 29  1  0
 32 29  1  0
  3 33  1  0
  4 34  1  0
  7 35  1  0
  8 36  1  0
  8 37  1  0
  9 38  1  0
  9 39  1  0
 10 40  1  1
 13 41  1  1
 14 42  1  0
 14 43  1  0
 16 44  1  6
 17 45  1  0
 17 46  1  0
 18 47  1  6
 20 48  1  0
 20 49  1  0
 20 50  1  0
 21 51  1  0
 21 52  1  0
 21 53  1  0
 22 54  1  0
 22 55  1  0
 22 56  1  0
 23 57  1  0
 24 58  1  0
 27 59  1  0
 27 60  1  0
M  CHG  2  31  -1  32  -1
M  END
>  <score>  (3) 
-8.143

$$$$
=
     RDKit          3D

 60 63  0  0  0  0  0  0  0  0999 V2000
   -5.1560   58.8150   75.5150 O   0  0  0  0  0  0  0  0  0  0  0  0
   -4.0550   59.3220   75.3300 C   0  0  0  0  0  0  0  0  0  0  0  0
   -3.8640   60.7830   75.3840 C   0  0  0  0  0  0  0  0  0  0  0  0
   -2.6450   61.3220   75.2660 C   0  0  0  0  0  0  0  0  0  0  0  0
   -1.3460   60.5400   75.0660 C   0  0  1  0  0  0  0  0  0  0  0  0
   -1.6360   59.0290   74.9390 C   0  0  0  0  0  0  0  0  0  0  0  0
   -2.8640   58.4930   75.0590 C   0  0  0  0  0  0  0  0  0  0  0  0
   -0.4520   58.1540   74.6120 C   0  0  0  0  0  0  0  0  0  0  0  0
    0.2660   58.6390   73.3560 C   0  0  0  0  0  0  0  0  0  0  0  0
    0.6580   60.1240   73.4570 C   0  0  2  0  0  0  0  0  0  0  0  0
   -0.6020   61.0080   73.7440 C   0  0  1  0  0  0  0  0  0  0  0  0
   -1.4900   60.7520   72.7090 F   0  0  0  0  0  0  0  0  0  0  0  0
   -0.2990   62.5380   73.6440 C   0  0  2  0  0  0  0  0  0  0  0  0
    0.5130   62.9250   72.3880 C   0  0  0  0  0  0  0  0  0  0  0  0
    1.7940   62.0810   72.2080 C   0  0  1  0  0  0  0  0  0  0  0  0
    1.3470   60.5970   72.1690 C   0  0  1  0  0  0  0  0  0  0  0  0
    2.6190   59.8850   71.7250 C   0  0  0  0  0  0  0  0  0  0  0  0
    3.2470   60.8250   70.6540 C   0  0  1  0  0  0  0  0  0  0  0  0
    2.4890   62.1990   70.7800 C   0  0  1  0  0  0  0  0  0  0  0  0
    4.7670   60.8320   70.7950 C   0  0  0  0  0  0  0  0  0  0  0  0
    2.7810   62.3600   73.3790 C   0  0  0  0  0  0  0  0  0  0  0  0
   -0.5260   60.7440   76.3610 C   0  0  0  0  0  0  0  0  0  0  0  0
    0.3280   63.0550   74.8180 O   0  0  0  0  0  0  0  0  0  0  0  0
    1.4020   62.1860   69.8450 O   0  0  0  0  0  0  0  0  0  0  0  0
    3.3350   63.4990   70.5890 C   0  0  0  0  0  0  0  0  0  0  0  0
    4.5680   63.4540   70.4480 O   0  0  0  0  0  0  0  0  0  0  0  0
    2.6390   64.8520   70.5170 C   0  0  0  0  0  0  0  0  0  0  0  0
    1.5070   64.8950   69.6940 O   0  0  0  0  0  0  0  0  0  0  0  0
    0.5990   66.2400   69.8830 P   0  0  0  0  0  5  0  0  0  0  0  0
    1.5940   67.3730   69.7000 O   0  0  0  0  0  0  0  0  0  0  0  0
    0.0060   66.0960   71.2680 O   0  0  0  0  0  1  0  0  0  0  0  0
   -0.3910   66.0870   68.7360 O   0  0  0  0  0  1  0  0  0  0  0  0
   -4.7359   61.4391   75.5232 H   0  0  0  0  0  0  0  0  0  0  0  0
   -2.5711   62.4183   75.3171 H   0  0  0  0  0  0  0  0  0  0  0  0
   -2.9842   57.4048   74.9520 H   0  0  0  0  0  0  0  0  0  0  0  0
    0.2519   58.1732   75.4571 H   0  0  0  0  0  0  0  0  0  0  0  0
   -0.8154   57.1316   74.4312 H   0  0  0  0  0  0  0  0  0  0  0  0
    1.1771   58.0395   73.2132 H   0  0  0  0  0  0  0  0  0  0  0  0
   -0.4211   58.5247   72.5046 H   0  0  0  0  0  0  0  0  0  0  0  0
    1.3655   60.2307   74.2925 H   0  0  0  0  0  0  0  0  0  0  0  0
   -1.2889   63.0084   73.5500 H   0  0  0  0  0  0  0  0  0  0  0  0
   -0.1248   62.7857   71.5027 H   0  0  0  0  0  0  0  0  0  0  0  0
    0.8260   63.9723   72.5109 H   0  0  0  0  0  0  0  0  0  0  0  0
    0.5257   60.3755   71.4715 H   0  0  0  0  0  0  0  0  0  0  0  0
    3.3053   59.7520   72.5743 H   0  0  0  0  0  0  0  0  0  0  0  0
    2.4153   58.8798   71.3274 H   0  0  0  0  0  0  0  0  0  0  0  0
    3.1128   60.4939   69.6136 H   0  0  0  0  0  0  0  0  0  0  0  0
    5.0363   60.8332   71.8615 H   0  0  0  0  0  0  0  0  0  0  0  0
    5.1841   59.9358   70.3125 H   0  0  0  0  0  0  0  0  0  0  0  0
    5.1759   61.7320   70.3125 H   0  0  0  0  0  0  0  0  0  0  0  0
    2.2628   62.2135   74.3381 H   0  0  0  0  0  0  0  0  0  0  0  0
    3.6332   61.6675   73.3132 H   0  0  0  0  0  0  0  0  0  0  0  0
    3.1445   63.3961   73.3132 H   0  0  0  0  0  0  0  0  0  0  0  0
   -1.1744   60.5827   77.2348 H   0  0  0  0  0  0  0  0  0  0  0  0
    0.3067   60.0256   76.3847 H   0  0  0  0  0  0  0  0  0  0  0  0
   -0.1270   61.7688   76.3847 H   0  0  0  0  0  0  0  0  0  0  0  0
   -0.1192   62.6862   75.6206 H   0  0  0  0  0  0  0  0  0  0  0  0
    0.5432   62.1757   70.3375 H   0  0  0  0  0  0  0  0  0  0  0  0
    2.3306   65.1311   71.5353 H   0  0  0  0  0  0  0  0  0  0  0  0
    3.3667   65.5474   70.0733 H   0  0  0  0  0  0  0  0  0  0  0  0
  2  1  2  0
  3  2  1  0
  4  3  2  0
  5  4  1  0
  6  5  1  0
  7  2  1  0
  7  6  2  0
  8  6  1  0
  9  8  1  0
 10  9  1  0
 11 10  1  0
 11  5  1  0
 11 12  1  6
 13 11  1  0
 14 13  1  0
 15 14  1  0
 16 15  1  0
 16 10  1  0
 17 16  1  0
 18 17  1  0
 19 18  1  0
 19 15  1  0
 20 18  1  0
 15 21  1  1
  5 22  1  1
 23 13  1  0
 19 24  1  6
 25 19  1  0
 26 25  2  0
 27 25  1  0
 28 27  1  0
 29 28  1  0
 30 29  2  0
 31 29  1  0
 32 29  1  0
  3 33  1  0
  4 34  1  0
  7 35  1  0
  8 36  1  0
  8 37  1  0
  9 38  1  0
  9 39  1  0
 10 40  1  1
 13 41  1  6
 14 42  1  0
 14 43  1  0
 16 44  1  6
 17 45  1  0
 17 46  1  0
 18 47  1  6
 20 48  1  0
 20 49  1  0
 20 50  1  0
 21 51  1  0
 21 52  1  0
 21 53  1  0
 22 54  1  0
 22 55  1  0
 22 56  1  0
 23 57  1  0
 24 58  1  0
 27 59  1  0
 27 60  1  0
M  CHG  2  31  -1  32  -1
M  END
>  <score>  (4) 
-8.072

$$$$
=
     RDKit          3D

 60 63  0  0  0  0  0  0  0  0999 V2000
    2.9910   63.5670   69.0320 O   0  0  0  0  0  0  0  0  0  0  0  0
    2.6850   63.0870   70.1180 C   0  0  0  0  0  0  0  0  0  0  0  0
    3.7070   62.5470   71.0330 C   0  0  0  0  0  0  0  0  0  0  0  0
    3.3740   62.1030   72.2510 C   0  0  0  0  0  0  0  0  0  0  0  0
    1.9610   62.0920   72.8340 C   0  0  1  0  0  0  0  0  0  0  0  0
    0.9400   62.5960   71.7920 C   0  0  0  0  0  0  0  0  0  0  0  0
    1.2800   63.0410   70.5690 C   0  0  0  0  0  0  0  0  0  0  0  0
   -0.5110   62.5180   72.1970 C   0  0  0  0  0  0  0  0  0  0  0  0
   -0.8890   61.1060   72.6350 C   0  0  0  0  0  0  0  0  0  0  0  0
    0.0460   60.5780   73.7370 C   0  0  2  0  0  0  0  0  0  0  0  0
    1.5370   60.6240   73.2640 C   0  0  1  0  0  0  0  0  0  0  0  0
    1.5910   59.8680   72.1020 F   0  0  0  0  0  0  0  0  0  0  0  0
    2.5060   59.9040   74.2560 C   0  0  2  0  0  0  0  0  0  0  0  0
    1.9980   58.5200   74.7190 C   0  0  0  0  0  0  0  0  0  0  0  0
    0.5530   58.5540   75.2630 C   0  0  1  0  0  0  0  0  0  0  0  0
   -0.3330   59.1430   74.1360 C   0  0  1  0  0  0  0  0  0  0  0  0
   -1.7410   58.8850   74.6580 C   0  0  0  0  0  0  0  0  0  0  0  0
   -1.6690   57.4740   75.3120 C   0  0  1  0  0  0  0  0  0  0  0  0
   -0.1380   57.1310   75.4420 C   0  0  1  0  0  0  0  0  0  0  0  0
   -2.5180   57.4450   76.5800 C   0  0  0  0  0  0  0  0  0  0  0  0
    0.4940   59.4150   76.5580 C   0  0  0  0  0  0  0  0  0  0  0  0
    1.9750   63.1130   73.9960 C   0  0  0  0  0  0  0  0  0  0  0  0
    2.8410   60.7110   75.3850 O   0  0  0  0  0  0  0  0  0  0  0  0
    0.2450   56.3920   74.2750 O   0  0  0  0  0  0  0  0  0  0  0  0
    0.3120   56.3610   76.7260 C   0  0  0  0  0  0  0  0  0  0  0  0
   -0.2980   56.4830   77.8010 O   0  0  0  0  0  0  0  0  0  0  0  0
    1.4880   55.3950   76.6560 C   0  0  0  0  0  0  0  0  0  0  0  0
    1.1500   54.0400   76.7420 O   0  0  0  0  0  0  0  0  0  0  0  0
    1.0200   53.2950   75.2940 P   0  0  0  0  0  5  0  0  0  0  0  0
    2.1730   53.8700   74.4900 O   0  0  0  0  0  0  0  0  0  0  0  0
   -0.3680   53.6570   74.8130 O   0  0  0  0  0  1  0  0  0  0  0  0
    1.2050   51.8380   75.6980 O   0  0  0  0  0  1  0  0  0  0  0  0
    4.7579   62.5084   70.7103 H   0  0  0  0  0  0  0  0  0  0  0  0
    4.1843   61.7138   72.8850 H   0  0  0  0  0  0  0  0  0  0  0  0
    0.4882   63.3805   69.8850 H   0  0  0  0  0  0  0  0  0  0  0  0
   -0.6877   63.2117   73.0322 H   0  0  0  0  0  0  0  0  0  0  0  0
   -1.1291   62.7894   71.3285 H   0  0  0  0  0  0  0  0  0  0  0  0
   -1.9201   61.1165   73.0182 H   0  0  0  0  0  0  0  0  0  0  0  0
   -0.7971   60.4422   71.7627 H   0  0  0  0  0  0  0  0  0  0  0  0
   -0.0682   61.2285   74.6167 H   0  0  0  0  0  0  0  0  0  0  0  0
    3.4226   59.7366   73.6714 H   0  0  0  0  0  0  0  0  0  0  0  0
    2.0333   57.8301   73.8629 H   0  0  0  0  0  0  0  0  0  0  0  0
    2.6497   58.1906   75.5417 H   0  0  0  0  0  0  0  0  0  0  0  0
   -0.2041   58.6748   73.1490 H   0  0  0  0  0  0  0  0  0  0  0  0
   -2.0234   59.6436   75.4028 H   0  0  0  0  0  0  0  0  0  0  0  0
   -2.4960   58.9351   73.8596 H   0  0  0  0  0  0  0  0  0  0  0  0
   -2.1161   56.6649   74.7158 H   0  0  0  0  0  0  0  0  0  0  0  0
   -1.8609   57.4674   77.4619 H   0  0  0  0  0  0  0  0  0  0  0  0
   -3.1832   58.3209   76.5960 H   0  0  0  0  0  0  0  0  0  0  0  0
   -3.1219   56.5257   76.5960 H   0  0  0  0  0  0  0  0  0  0  0  0
    0.5391   58.7569   77.4382 H   0  0  0  0  0  0  0  0  0  0  0  0
    1.3466   60.1098   76.5756 H   0  0  0  0  0  0  0  0  0  0  0  0
   -0.4454   59.9870   76.5756 H   0  0  0  0  0  0  0  0  0  0  0  0
    1.9676   62.5760   74.9560 H   0  0  0  0  0  0  0  0  0  0  0  0
    2.8817   63.7322   73.9291 H   0  0  0  0  0  0  0  0  0  0  0  0
    1.0856   63.7568   73.9291 H   0  0  0  0  0  0  0  0  0  0  0  0
    2.6354   60.2158   76.2172 H   0  0  0  0  0  0  0  0  0  0  0  0
    0.6828   55.5472   74.5483 H   0  0  0  0  0  0  0  0  0  0  0  0
    2.0053   55.5569   75.6988 H   0  0  0  0  0  0  0  0  0  0  0  0
    2.1137   55.6106   77.5346 H   0  0  0  0  0  0  0  0  0  0  0  0
  2  1  2  0
  3  2  1  0
  4  3  2  0
  5  4  1  0
  6  5  1  0
  7  2  1  0
  7  6  2  0
  8  6  1  0
  9  8  1  0
 10  9  1  0
 11 10  1  0
 11  5  1  0
 11 12  1  6
 13 11  1  0
 14 13  1  0
 15 14  1  0
 16 15  1  0
 16 10  1  0
 17 16  1  0
 18 17  1  0
 19 18  1  0
 19 15  1  0
 20 18  1  0
 15 21  1  1
  5 22  1  1
 23 13  1  0
 19 24  1  6
 25 19  1  0
 26 25  2  0
 27 25  1  0
 28 27  1  0
 29 28  1  0
 30 29  2  0
 31 29  1  0
 32 29  1  0
  3 33  1  0
  4 34  1  0
  7 35  1  0
  8 36  1  0
  8 37  1  0
  9 38  1  0
  9 39  1  0
 10 40  1  1
 13 41  1  6
 14 42  1  0
 14 43  1  0
 16 44  1  6
 17 45  1  0
 17 46  1  0
 18 47  1  6
 20 48  1  0
 20 49  1  0
 20 50  1  0
 21 51  1  0
 21 52  1  0
 21 53  1  0
 22 54  1  0
 22 55  1  0
 22 56  1  0
 23 57  1  0
 24 58  1  0
 27 59  1  0
 27 60  1  0
M  CHG  2  31  -1  32  -1
M  END
>  <score>  (5) 
-7.594

$$$$
=
     RDKit          3D

 60 63  0  0  0  0  0  0  0  0999 V2000
   -2.0840   52.9860   75.1710 O   0  0  0  0  0  0  0  0  0  0  0  0
   -1.5580   54.0910   75.2450 C   0  0  0  0  0  0  0  0  0  0  0  0
   -2.3650   55.3210   75.3350 C   0  0  0  0  0  0  0  0  0  0  0  0
   -1.7830   56.5160   75.5010 C   0  0  0  0  0  0  0  0  0  0  0  0
   -0.2780   56.7590   75.6120 C   0  0  1  0  0  0  0  0  0  0  0  0
    0.5010   55.4390   75.4290 C   0  0  0  0  0  0  0  0  0  0  0  0
   -0.0890   54.2420   75.2630 C   0  0  0  0  0  0  0  0  0  0  0  0
    2.0040   55.5590   75.3920 C   0  0  0  0  0  0  0  0  0  0  0  0
    2.4540   56.5630   74.3350 C   0  0  0  0  0  0  0  0  0  0  0  0
    1.7720   57.9310   74.5170 C   0  0  2  0  0  0  0  0  0  0  0  0
    0.2140   57.7760   74.4980 C   0  0  1  0  0  0  0  0  0  0  0  0
   -0.0940   57.1760   73.2850 F   0  0  0  0  0  0  0  0  0  0  0  0
   -0.5260   59.1520   74.4630 C   0  0  2  0  0  0  0  0  0  0  0  0
    0.0570   60.1400   73.4280 C   0  0  0  0  0  0  0  0  0  0  0  0
    1.5850   60.3240   73.5560 C   0  0  1  0  0  0  0  0  0  0  0  0
    2.2140   58.9130   73.4210 C   0  0  1  0  0  0  0  0  0  0  0  0
    3.6990   59.2290   73.2890 C   0  0  0  0  0  0  0  0  0  0  0  0
    3.7550   60.4990   72.3890 C   0  0  1  0  0  0  0  0  0  0  0  0
    2.2850   61.0570   72.3290 C   0  0  1  0  0  0  0  0  0  0  0  0
    4.8570   61.4360   72.8810 C   0  0  0  0  0  0  0  0  0  0  0  0
    1.9280   60.9840   74.9230 C   0  0  0  0  0  0  0  0  0  0  0  0
   -0.0340   57.2410   77.0620 C   0  0  0  0  0  0  0  0  0  0  0  0
   -0.6050   59.7700   75.7480 O   0  0  0  0  0  0  0  0  0  0  0  0
    1.6550   60.5030   71.1670 O   0  0  0  0  0  0  0  0  0  0  0  0
    2.1130   62.6110   72.3330 C   0  0  0  0  0  0  0  0  0  0  0  0
    1.5110   63.1940   73.2500 O   0  0  0  0  0  0  0  0  0  0  0  0
    2.7400   63.4450   71.2230 C   0  0  0  0  0  0  0  0  0  0  0  0
    2.4440   63.0220   69.9220 O   0  0  0  0  0  0  0  0  0  0  0  0
    3.7520   62.5580   69.0600 P   0  0  0  0  0  5  0  0  0  0  0  0
    3.7130   61.0420   69.1360 O   0  0  0  0  0  0  0  0  0  0  0  0
    4.9140   63.2270   69.7610 O   0  0  0  0  0  1  0  0  0  0  0  0
    3.4120   63.1240   67.6870 O   0  0  0  0  0  1  0  0  0  0  0  0
   -3.4609   55.2568   75.2649 H   0  0  0  0  0  0  0  0  0  0  0  0
   -2.4422   57.3945   75.5625 H   0  0  0  0  0  0  0  0  0  0  0  0
    0.5410   53.3492   75.1369 H   0  0  0  0  0  0  0  0  0  0  0  0
    2.3613   55.8920   76.3776 H   0  0  0  0  0  0  0  0  0  0  0  0
    2.4247   54.5750   75.1377 H   0  0  0  0  0  0  0  0  0  0  0  0
    3.5433   56.6956   74.4111 H   0  0  0  0  0  0  0  0  0  0  0  0
    2.1710   56.1691   73.3477 H   0  0  0  0  0  0  0  0  0  0  0  0
    2.0779   58.3345   75.4935 H   0  0  0  0  0  0  0  0  0  0  0  0
   -1.5479   58.9057   74.1389 H   0  0  0  0  0  0  0  0  0  0  0  0
   -0.1663   59.7619   72.4194 H   0  0  0  0  0  0  0  0  0  0  0  0
   -0.4069   61.1199   73.6141 H   0  0  0  0  0  0  0  0  0  0  0  0
    1.8719   58.3311   72.5524 H   0  0  0  0  0  0  0  0  0  0  0  0
    4.1413   59.4328   74.2753 H   0  0  0  0  0  0  0  0  0  0  0  0
    4.2664   58.3899   72.8601 H   0  0  0  0  0  0  0  0  0  0  0  0
    4.0560   60.3146   71.3472 H   0  0  0  0  0  0  0  0  0  0  0  0
    4.8670   61.4445   73.9809 H   0  0  0  0  0  0  0  0  0  0  0  0
    5.8305   61.0848   72.5081 H   0  0  0  0  0  0  0  0  0  0  0  0
    4.6669   62.4533   72.5081 H   0  0  0  0  0  0  0  0  0  0  0  0
    1.5887   60.3312   75.7407 H   0  0  0  0  0  0  0  0  0  0  0  0
    3.0158   61.1295   74.9972 H   0  0  0  0  0  0  0  0  0  0  0  0
    1.4219   61.9578   74.9972 H   0  0  0  0  0  0  0  0  0  0  0  0
   -0.4151   56.4882   77.7677 H   0  0  0  0  0  0  0  0  0  0  0  0
    1.0446   57.3831   77.2246 H   0  0  0  0  0  0  0  0  0  0  0  0
   -0.5580   58.1944   77.2246 H   0  0  0  0  0  0  0  0  0  0  0  0
   -0.5168   59.0797   76.4521 H   0  0  0  0  0  0  0  0  0  0  0  0
    0.9417   59.8757   71.4458 H   0  0  0  0  0  0  0  0  0  0  0  0
    2.3856   64.4805   71.3334 H   0  0  0  0  0  0  0  0  0  0  0  0
    3.8288   63.3394   71.3388 H   0  0  0  0  0  0  0  0  0  0  0  0
  2  1  2  0
  3  2  1  0
  4  3  2  0
  5  4  1  0
  6  5  1  0
  7  2  1  0
  7  6  2  0
  8  6  1  0
  9  8  1  0
 10  9  1  0
 11 10  1  0
 11  5  1  0
 11 12  1  6
 13 11  1  0
 14 13  1  0
 15 14  1  0
 16 15  1  0
 16 10  1  0
 17 16  1  0
 18 17  1  0
 19 18  1  0
 19 15  1  0
 20 18  1  0
 15 21  1  1
  5 22  1  1
 23 13  1  0
 19 24  1  6
 25 19  1  0
 26 25  2  0
 27 25  1  0
 28 27  1  0
 29 28  1  0
 30 29  2  0
 31 29  1  0
 32 29  1  0
  3 33  1  0
  4 34  1  0
  7 35  1  0
  8 36  1  0
  8 37  1  0
  9 38  1  0
  9 39  1  0
 10 40  1  1
 13 41  1  6
 14 42  1  0
 14 43  1  0
 16 44  1  6
 17 45  1  0
 17 46  1  0
 18 47  1  6
 20 48  1  0
 20 49  1  0
 20 50  1  0
 21 51  1  0
 21 52  1  0
 21 53  1  0
 22 54  1  0
 22 55  1  0
 22 56  1  0
 23 57  1  0
 24 58  1  0
 27 59  1  0
 27 60  1  0
M  CHG  2  31  -1  32  -1
M  END
>  <score>  (6) 
-7.108

$$$$
=
     RDKit          3D

 60 63  0  0  0  0  0  0  0  0999 V2000
    4.5190   60.1520   69.2410 O   0  0  0  0  0  0  0  0  0  0  0  0
    3.8960   60.0490   70.2920 C   0  0  0  0  0  0  0  0  0  0  0  0
    3.2970   58.7660   70.7060 C   0  0  0  0  0  0  0  0  0  0  0  0
    2.6930   58.6410   71.8940 C   0  0  0  0  0  0  0  0  0  0  0  0
    2.5440   59.7530   72.9330 C   0  0  1  0  0  0  0  0  0  0  0  0
    3.1220   61.0790   72.3960 C   0  0  0  0  0  0  0  0  0  0  0  0
    3.7290   61.1990   71.2020 C   0  0  0  0  0  0  0  0  0  0  0  0
    2.9270   62.2890   73.2750 C   0  0  0  0  0  0  0  0  0  0  0  0
    1.4560   62.4840   73.6300 C   0  0  0  0  0  0  0  0  0  0  0  0
    0.8420   61.2170   74.2500 C   0  0  2  0  0  0  0  0  0  0  0  0
    1.0160   59.9930   73.2890 C   0  0  1  0  0  0  0  0  0  0  0  0
    0.4110   60.3590   72.0950 F   0  0  0  0  0  0  0  0  0  0  0  0
    0.2270   58.7330   73.7700 C   0  0  2  0  0  0  0  0  0  0  0  0
   -1.2250   59.0410   74.1980 C   0  0  0  0  0  0  0  0  0  0  0  0
   -1.3270   60.1960   75.2190 C   0  0  1  0  0  0  0  0  0  0  0  0
   -0.6460   61.4270   74.5660 C   0  0  1  0  0  0  0  0  0  0  0  0
   -1.0330   62.5550   75.5150 C   0  0  0  0  0  0  0  0  0  0  0  0
   -2.5080   62.2520   75.9100 C   0  0  1  0  0  0  0  0  0  0  0  0
   -2.7920   60.7760   75.4430 C   0  0  1  0  0  0  0  0  0  0  0  0
   -2.7320   62.5920   77.3820 C   0  0  0  0  0  0  0  0  0  0  0  0
   -0.6340   59.7890   76.5510 C   0  0  0  0  0  0  0  0  0  0  0  0
    3.4160   59.3240   74.1370 C   0  0  0  0  0  0  0  0  0  0  0  0
    0.9060   58.0170   74.8020 O   0  0  0  0  0  0  0  0  0  0  0  0
   -3.3640   60.8360   74.1300 O   0  0  0  0  0  0  0  0  0  0  0  0
   -3.6900   59.8960   76.3710 C   0  0  0  0  0  0  0  0  0  0  0  0
   -3.1990   59.0390   77.1240 O   0  0  0  0  0  0  0  0  0  0  0  0
   -5.1960   60.1230   76.4030 C   0  0  0  0  0  0  0  0  0  0  0  0
   -5.8830   59.7140   75.2540 O   0  0  0  0  0  0  0  0  0  0  0  0
   -6.8820   60.8510   74.6380 P   0  0  0  0  0  5  0  0  0  0  0  0
   -8.1660   60.6670   75.4280 O   0  0  0  0  0  0  0  0  0  0  0  0
   -6.9570   60.5200   73.1640 O   0  0  0  0  0  1  0  0  0  0  0  0
   -6.1180   62.1250   74.9770 O   0  0  0  0  0  1  0  0  0  0  0  0
    3.3474   57.9003   70.0292 H   0  0  0  0  0  0  0  0  0  0  0  0
    2.2688   57.6572   72.1434 H   0  0  0  0  0  0  0  0  0  0  0  0
    4.1123   62.1831   70.8945 H   0  0  0  0  0  0  0  0  0  0  0  0
    3.5048   62.1559   74.2015 H   0  0  0  0  0  0  0  0  0  0  0  0
    3.2726   63.1771   72.7255 H   0  0  0  0  0  0  0  0  0  0  0  0
    1.3709   63.3100   74.3515 H   0  0  0  0  0  0  0  0  0  0  0  0
    0.9087   62.7090   72.7027 H   0  0  0  0  0  0  0  0  0  0  0  0
    1.3739   61.0098   75.1903 H   0  0  0  0  0  0  0  0  0  0  0  0
    0.1750   58.0859   72.8820 H   0  0  0  0  0  0  0  0  0  0  0  0
   -1.8029   59.3139   73.3027 H   0  0  0  0  0  0  0  0  0  0  0  0
   -1.6204   58.1378   74.6859 H   0  0  0  0  0  0  0  0  0  0  0  0
   -0.9824   61.6590   73.5447 H   0  0  0  0  0  0  0  0  0  0  0  0
   -0.3853   62.5531   76.4041 H   0  0  0  0  0  0  0  0  0  0  0  0
   -0.9222   63.5458   75.0502 H   0  0  0  0  0  0  0  0  0  0  0  0
   -3.2586   62.8817   75.4099 H   0  0  0  0  0  0  0  0  0  0  0  0
   -2.2359   61.8389   78.0119 H   0  0  0  0  0  0  0  0  0  0  0  0
   -2.3107   63.5851   77.5972 H   0  0  0  0  0  0  0  0  0  0  0  0
   -3.8107   62.5969   77.5972 H   0  0  0  0  0  0  0  0  0  0  0  0
   -1.2364   60.1428   77.4007 H   0  0  0  0  0  0  0  0  0  0  0  0
   -0.5427   58.6938   76.5971 H   0  0  0  0  0  0  0  0  0  0  0  0
    0.3670   60.2427   76.5971 H   0  0  0  0  0  0  0  0  0  0  0  0
    2.8985   59.5786   75.0737 H   0  0  0  0  0  0  0  0  0  0  0  0
    3.5882   58.2383   74.0966 H   0  0  0  0  0  0  0  0  0  0  0  0
    4.3812   59.8501   74.0966 H   0  0  0  0  0  0  0  0  0  0  0  0
    0.5987   58.3410   75.6856 H   0  0  0  0  0  0  0  0  0  0  0  0
   -4.3460   60.9390   74.2022 H   0  0  0  0  0  0  0  0  0  0  0  0
   -5.6059   59.5690   77.2604 H   0  0  0  0  0  0  0  0  0  0  0  0
   -5.3402   61.2111   76.4749 H   0  0  0  0  0  0  0  0  0  0  0  0
  2  1  2  0
  3  2  1  0
  4  3  2  0
  5  4  1  0
  6  5  1  0
  7  2  1  0
  7  6  2  0
  8  6  1  0
  9  8  1  0
 10  9  1  0
 11 10  1  0
 11  5  1  0
 11 12  1  6
 13 11  1  0
 14 13  1  0
 15 14  1  0
 16 15  1  0
 16 10  1  0
 17 16  1  0
 18 17  1  0
 19 18  1  0
 19 15  1  0
 20 18  1  0
 15 21  1  1
  5 22  1  1
 23 13  1  0
 19 24  1  6
 25 19  1  0
 26 25  2  0
 27 25  1  0
 28 27  1  0
 29 28  1  0
 30 29  2  0
 31 29  1  0
 32 29  1  0
  3 33  1  0
  4 34  1  0
  7 35  1  0
  8 36  1  0
  8 37  1  0
  9 38  1  0
  9 39  1  0
 10 40  1  1
 13 41  1  6
 14 42  1  0
 14 43  1  0
 16 44  1  6
 17 45  1  0
 17 46  1  0
 18 47  1  6
 20 48  1  0
 20 49  1  0
 20 50  1  0
 21 51  1  0
 21 52  1  0
 21 53  1  0
 22 54  1  0
 22 55  1  0
 22 56  1  0
 23 57  1  0
 24 58  1  0
 27 59  1  0
 27 60  1  0
M  CHG  2  31  -1  32  -1
M  END
>  <score>  (7) 
-7.004

$$$$
=
     RDKit          3D

 60 63  0  0  0  0  0  0  0  0999 V2000
   -3.3070   53.4420   76.9540 O   0  0  0  0  0  0  0  0  0  0  0  0
   -2.3310   54.1420   76.7080 C   0  0  0  0  0  0  0  0  0  0  0  0
   -1.9990   55.3130   77.5410 C   0  0  0  0  0  0  0  0  0  0  0  0
   -0.8840   56.0210   77.3180 C   0  0  0  0  0  0  0  0  0  0  0  0
    0.1450   55.7320   76.2250 C   0  0  1  0  0  0  0  0  0  0  0  0
   -0.3110   54.5450   75.3490 C   0  0  0  0  0  0  0  0  0  0  0  0
   -1.4320   53.8380   75.5780 C   0  0  0  0  0  0  0  0  0  0  0  0
    0.5550   54.2350   74.1550 C   0  0  0  0  0  0  0  0  0  0  0  0
    0.7510   55.4670   73.2760 C   0  0  0  0  0  0  0  0  0  0  0  0
    1.2870   56.6650   74.0800 C   0  0  2  0  0  0  0  0  0  0  0  0
    0.3360   56.9920   75.2800 C   0  0  1  0  0  0  0  0  0  0  0  0
   -0.9120   57.2310   74.7230 F   0  0  0  0  0  0  0  0  0  0  0  0
    0.7150   58.3260   76.0010 C   0  0  2  0  0  0  0  0  0  0  0  0
    0.9870   59.4960   75.0290 C   0  0  0  0  0  0  0  0  0  0  0  0
    2.0040   59.1430   73.9200 C   0  0  1  0  0  0  0  0  0  0  0  0
    1.4420   57.9010   73.1820 C   0  0  1  0  0  0  0  0  0  0  0  0
    2.3560   57.8030   71.9670 C   0  0  0  0  0  0  0  0  0  0  0  0
    2.5860   59.2780   71.5240 C   0  0  1  0  0  0  0  0  0  0  0  0
    2.0750   60.1760   72.7110 C   0  0  1  0  0  0  0  0  0  0  0  0
    4.0290   59.4620   71.0580 C   0  0  0  0  0  0  0  0  0  0  0  0
    3.3990   58.8620   74.5510 C   0  0  0  0  0  0  0  0  0  0  0  0
    1.4310   55.2910   76.9630 C   0  0  0  0  0  0  0  0  0  0  0  0
    1.8060   58.1740   76.9090 O   0  0  0  0  0  0  0  0  0  0  0  0
    0.7080   60.5170   72.4440 O   0  0  0  0  0  0  0  0  0  0  0  0
    2.8910   61.4710   73.0260 C   0  0  0  0  0  0  0  0  0  0  0  0
    4.0220   61.4160   73.5370 O   0  0  0  0  0  0  0  0  0  0  0  0
    2.3210   62.8340   72.6540 C   0  0  0  0  0  0  0  0  0  0  0  0
    1.6290   62.8770   71.4380 O   0  0  0  0  0  0  0  0  0  0  0  0
    2.5010   63.4870   70.1990 P   0  0  0  0  0  5  0  0  0  0  0  0
    3.9090   63.5800   70.7630 O   0  0  0  0  0  0  0  0  0  0  0  0
    1.8260   64.8040   69.8820 O   0  0  0  0  0  1  0  0  0  0  0  0
    2.3200   62.3980   69.1500 O   0  0  0  0  0  1  0  0  0  0  0  0
   -2.6759   55.6088   78.3561 H   0  0  0  0  0  0  0  0  0  0  0  0
   -0.6929   56.8817   77.9758 H   0  0  0  0  0  0  0  0  0  0  0  0
   -1.6864   53.0080   74.9025 H   0  0  0  0  0  0  0  0  0  0  0  0
    1.5372   53.8856   74.5060 H   0  0  0  0  0  0  0  0  0  0  0  0
    0.0559   53.4583   73.5570 H   0  0  0  0  0  0  0  0  0  0  0  0
    1.4683   55.2244   72.4782 H   0  0  0  0  0  0  0  0  0  0  0  0
   -0.2270   55.7469   72.8576 H   0  0  0  0  0  0  0  0  0  0  0  0
    2.2769   56.3924   74.4746 H   0  0  0  0  0  0  0  0  0  0  0  0
   -0.1807   58.5863   76.5841 H   0  0  0  0  0  0  0  0  0  0  0  0
    0.0375   59.7836   74.5538 H   0  0  0  0  0  0  0  0  0  0  0  0
    1.4194   60.3173   75.6193 H   0  0  0  0  0  0  0  0  0  0  0  0
    0.3930   57.9838   72.8613 H   0  0  0  0  0  0  0  0  0  0  0  0
    3.3098   57.3260   72.2368 H   0  0  0  0  0  0  0  0  0  0  0  0
    1.9171   57.1916   71.1648 H   0  0  0  0  0  0  0  0  0  0  0  0
    2.0147   59.5878   70.6365 H   0  0  0  0  0  0  0  0  0  0  0  0
    4.6892   59.5462   71.9338 H   0  0  0  0  0  0  0  0  0  0  0  0
    4.3321   58.5952   70.4523 H   0  0  0  0  0  0  0  0  0  0  0  0
    4.1049   60.3771   70.4523 H   0  0  0  0  0  0  0  0  0  0  0  0
    3.3155   58.8788   75.6477 H   0  0  0  0  0  0  0  0  0  0  0  0
    3.7563   57.8738   74.2256 H   0  0  0  0  0  0  0  0  0  0  0  0
    4.1110   59.6348   74.2256 H   0  0  0  0  0  0  0  0  0  0  0  0
    1.2678   55.3470   78.0494 H   0  0  0  0  0  0  0  0  0  0  0  0
    1.6785   54.2566   76.6822 H   0  0  0  0  0  0  0  0  0  0  0  0
    2.2612   55.9558   76.6822 H   0  0  0  0  0  0  0  0  0  0  0  0
    1.4702   58.2208   77.8391 H   0  0  0  0  0  0  0  0  0  0  0  0
    0.2248   60.6375   73.2996 H   0  0  0  0  0  0  0  0  0  0  0  0
    1.6286   63.1428   73.4511 H   0  0  0  0  0  0  0  0  0  0  0  0
    3.1844   63.5057   72.5387 H   0  0  0  0  0  0  0  0  0  0  0  0
  2  1  2  0
  3  2  1  0
  4  3  2  0
  5  4  1  0
  6  5  1  0
  7  2  1  0
  7  6  2  0
  8  6  1  0
  9  8  1  0
 10  9  1  0
 11 10  1  0
 11  5  1  0
 11 12  1  6
 13 11  1  0
 14 13  1  0
 15 14  1  0
 16 15  1  0
 16 10  1  0
 17 16  1  0
 18 17  1  0
 19 18  1  0
 19 15  1  0
 20 18  1  0
 15 21  1  1
  5 22  1  1
 23 13  1  0
 19 24  1  6
 25 19  1  0
 26 25  2  0
 27 25  1  0
 28 27  1  0
 29 28  1  0
 30 29  2  0
 31 29  1  0
 32 29  1  0
  3 33  1  0
  4 34  1  0
  7 35  1  0
  8 36  1  0
  8 37  1  0
  9 38  1  0
  9 39  1  0
 10 40  1  1
 13 41  1  1
 14 42  1  0
 14 43  1  0
 16 44  1  6
 17 45  1  0
 17 46  1  0
 18 47  1  6
 20 48  1  0
 20 49  1  0
 20 50  1  0
 21 51  1  0
 21 52  1  0
 21 53  1  0
 22 54  1  0
 22 55  1  0
 22 56  1  0
 23 57  1  0
 24 58  1  0
 27 59  1  0
 27 60  1  0
M  CHG  2  31  -1  32  -1
M  END
>  <score>  (8) 
-7.001

$$$$
=
     RDKit          3D

 60 63  0  0  0  0  0  0  0  0999 V2000
   -7.5080   63.2120   75.2230 O   0  0  0  0  0  0  0  0  0  0  0  0
   -6.4080   62.7310   75.4740 C   0  0  0  0  0  0  0  0  0  0  0  0
   -5.2710   63.5820   75.8710 C   0  0  0  0  0  0  0  0  0  0  0  0
   -4.0990   63.0420   76.2260 C   0  0  0  0  0  0  0  0  0  0  0  0
   -3.7890   61.5450   76.2660 C   0  0  1  0  0  0  0  0  0  0  0  0
   -4.9970   60.7270   75.7630 C   0  0  0  0  0  0  0  0  0  0  0  0
   -6.1730   61.2750   75.4070 C   0  0  0  0  0  0  0  0  0  0  0  0
   -4.7800   59.2410   75.6320 C   0  0  0  0  0  0  0  0  0  0  0  0
   -3.5630   58.9320   74.7660 C   0  0  0  0  0  0  0  0  0  0  0  0
   -2.3020   59.6560   75.2700 C   0  0  2  0  0  0  0  0  0  0  0  0
   -2.5460   61.2010   75.3420 C   0  0  1  0  0  0  0  0  0  0  0  0
   -2.9160   61.5870   74.0620 F   0  0  0  0  0  0  0  0  0  0  0  0
   -1.2380   62.0030   75.6410 C   0  0  2  0  0  0  0  0  0  0  0  0
   -0.0330   61.5590   74.7820 C   0  0  0  0  0  0  0  0  0  0  0  0
    0.2160   60.0350   74.8230 C   0  0  1  0  0  0  0  0  0  0  0  0
   -1.0990   59.3580   74.3610 C   0  0  1  0  0  0  0  0  0  0  0  0
   -0.6730   57.9060   74.1790 C   0  0  0  0  0  0  0  0  0  0  0  0
    0.7490   57.9870   73.5490 C   0  0  1  0  0  0  0  0  0  0  0  0
    1.2170   59.4810   73.7160 C   0  0  1  0  0  0  0  0  0  0  0  0
    1.6390   56.8900   74.1300 C   0  0  0  0  0  0  0  0  0  0  0  0
    0.6170   59.6020   76.2640 C   0  0  0  0  0  0  0  0  0  0  0  0
   -3.5860   61.1960   77.7590 C   0  0  0  0  0  0  0  0  0  0  0  0
   -0.8890   61.9940   77.0250 O   0  0  0  0  0  0  0  0  0  0  0  0
    0.8620   60.1860   72.5200 O   0  0  0  0  0  0  0  0  0  0  0  0
    2.7260   59.7210   74.0440 C   0  0  0  0  0  0  0  0  0  0  0  0
    3.1640   59.6080   75.2010 O   0  0  0  0  0  0  0  0  0  0  0  0
    3.7020   60.0490   72.9210 C   0  0  0  0  0  0  0  0  0  0  0  0
    3.5960   59.2360   71.7860 O   0  0  0  0  0  0  0  0  0  0  0  0
    3.8830   60.0180   70.3810 P   0  0  0  0  0  5  0  0  0  0  0  0
    2.7990   61.0800   70.3330 O   0  0  0  0  0  0  0  0  0  0  0  0
    3.7960   58.9340   69.3280 O   0  0  0  0  0  1  0  0  0  0  0  0
    5.2830   60.5650   70.6320 O   0  0  0  0  0  1  0  0  0  0  0  0
   -5.3877   64.6758   75.8754 H   0  0  0  0  0  0  0  0  0  0  0  0
   -3.2918   63.7321   76.5128 H   0  0  0  0  0  0  0  0  0  0  0  0
   -6.9831   60.6190   75.0557 H   0  0  0  0  0  0  0  0  0  0  0  0
   -4.6255   58.8120   76.6330 H   0  0  0  0  0  0  0  0  0  0  0  0
   -5.6673   58.8018   75.1526 H   0  0  0  0  0  0  0  0  0  0  0  0
   -3.3809   57.8473   74.7824 H   0  0  0  0  0  0  0  0  0  0  0  0
   -3.7729   59.2832   73.7449 H   0  0  0  0  0  0  0  0  0  0  0  0
   -2.0791   59.2828   76.2805 H   0  0  0  0  0  0  0  0  0  0  0  0
   -1.4787   63.0378   75.3558 H   0  0  0  0  0  0  0  0  0  0  0  0
   -0.2195   61.8547   73.7390 H   0  0  0  0  0  0  0  0  0  0  0  0
    0.8612   62.0472   75.1968 H   0  0  0  0  0  0  0  0  0  0  0  0
   -1.5196   59.7499   73.4232 H   0  0  0  0  0  0  0  0  0  0  0  0
   -0.6388   57.3874   75.1485 H   0  0  0  0  0  0  0  0  0  0  0  0
   -1.3760   57.3420   73.5484 H   0  0  0  0  0  0  0  0  0  0  0  0
    0.7891   57.7708   72.4712 H   0  0  0  0  0  0  0  0  0  0  0  0
    1.6041   56.9330   75.2286 H   0  0  0  0  0  0  0  0  0  0  0  0
    1.2794   55.9076   73.7899 H   0  0  0  0  0  0  0  0  0  0  0  0
    2.6744   57.0393   73.7899 H   0  0  0  0  0  0  0  0  0  0  0  0
    0.0593   60.2042   76.9964 H   0  0  0  0  0  0  0  0  0  0  0  0
    0.3785   58.5377   76.4068 H   0  0  0  0  0  0  0  0  0  0  0  0
    1.6964   59.7582   76.4068 H   0  0  0  0  0  0  0  0  0  0  0  0
   -4.0412   61.9786   78.3837 H   0  0  0  0  0  0  0  0  0  0  0  0
   -4.0626   60.2290   77.9776 H   0  0  0  0  0  0  0  0  0  0  0  0
   -2.5098   61.1321   77.9776 H   0  0  0  0  0  0  0  0  0  0  0  0
   -1.7130   62.0153   77.5733 H   0  0  0  0  0  0  0  0  0  0  0  0
    0.4299   61.0441   72.7587 H   0  0  0  0  0  0  0  0  0  0  0  0
    3.5283   61.0903   72.6118 H   0  0  0  0  0  0  0  0  0  0  0  0
    4.7086   59.8755   73.3293 H   0  0  0  0  0  0  0  0  0  0  0  0
  2  1  2  0
  3  2  1  0
  4  3  2  0
  5  4  1  0
  6  5  1  0
  7  2  1  0
  7  6  2  0
  8  6  1  0
  9  8  1  0
 10  9  1  0
 11 10  1  0
 11  5  1  0
 11 12  1  6
 13 11  1  0
 14 13  1  0
 15 14  1  0
 16 15  1  0
 16 10  1  0
 17 16  1  0
 18 17  1  0
 19 18  1  0
 19 15  1  0
 20 18  1  0
 15 21  1  1
  5 22  1  1
 23 13  1  0
 19 24  1  6
 25 19  1  0
 26 25  2  0
 27 25  1  0
 28 27  1  0
 29 28  1  0
 30 29  2  0
 31 29  1  0
 32 29  1  0
  3 33  1  0
  4 34  1  0
  7 35  1  0
  8 36  1  0
  8 37  1  0
  9 38  1  0
  9 39  1  0
 10 40  1  1
 13 41  1  6
 14 42  1  0
 14 43  1  0
 16 44  1  6
 17 45  1  0
 17 46  1  0
 18 47  1  6
 20 48  1  0
 20 49  1  0
 20 50  1  0
 21 51  1  0
 21 52  1  0
 21 53  1  0
 22 54  1  0
 22 55  1  0
 22 56  1  0
 23 57  1  0
 24 58  1  0
 27 59  1  0
 27 60  1  0
M  CHG  2  31  -1  32  -1
M  END
>  <score>  (9) 
-6.836

$$$$
