=
     RDKit          3D

 55 58  0  0  0  0  0  0  0  0999 V2000
    0.2720   57.4050   74.9160 C   0  0  0  0  0  0  0  0  0  0  0  0
    0.8770   57.3460   76.1390 C   0  0  0  0  0  0  0  0  0  0  0  0
    0.6730   56.5900   77.1480 O   0  0  0  0  0  1  0  0  0  0  0  0
    2.0490   58.3140   76.4490 C   0  0  2  0  0  0  0  0  0  0  0  0
    2.6300   59.2160   75.3320 C   0  0  1  0  0  0  0  0  0  0  0  0
    2.3120   58.6440   73.9490 C   0  0  1  0  0  0  0  0  0  0  0  0
    0.7710   58.4220   73.9310 C   0  0  0  0  0  0  0  0  0  0  0  0
   -0.0330   59.1390   73.3330 O   0  0  0  0  0  0  0  0  0  0  0  0
    2.8540   59.5790   72.8330 C   0  0  0  0  0  0  0  0  0  0  0  0
    2.8510   60.9090   73.0640 C   0  0  0  0  0  0  0  0  0  0  0  0
    2.3210   61.5970   74.2820 C   0  0  2  0  0  0  0  0  0  0  0  0
    2.0460   60.6400   75.4710 C   0  0  2  0  0  0  0  0  0  0  0  0
    1.0740   62.4490   73.8830 C   0  0  1  0  0  0  0  0  0  0  0  0
    0.6870   63.3780   75.0490 C   0  0  0  0  0  0  0  0  0  0  0  0
    1.2930   63.2380   72.5860 C   0  0  0  0  0  0  0  0  0  0  0  0
    2.3960   62.9830   71.7430 C   0  0  0  0  0  0  0  0  0  0  0  0
    3.3520   61.8960   72.0650 C   0  0  0  0  0  0  0  0  0  0  0  0
    4.4880   61.9250   71.6010 O   0  0  0  0  0  0  0  0  0  0  0  0
    2.6020   63.7510   70.5850 C   0  0  0  0  0  0  0  0  0  0  0  0
    1.6930   64.7380   70.2210 C   0  0  0  0  0  0  0  0  0  0  0  0
    0.5670   64.9600   71.0090 C   0  0  0  0  0  0  0  0  0  0  0  0
    0.3660   64.2150   72.1750 C   0  0  0  0  0  0  0  0  0  0  0  0
    3.2710   58.9200   71.8350 O   0  0  0  0  0  1  0  0  0  0  0  0
   -0.7130   55.8730   73.3150 N   0  0  0  0  0  0  0  0  0  0  0  0
   -0.8650   56.5180   74.5090 C   0  0  0  0  0  0  0  0  0  0  0  0
   -1.8920   56.3710   75.1630 O   0  0  0  0  0  0  0  0  0  0  0  0
    3.1220   57.5080   77.1860 N   0  0  0  0  0  4  0  0  0  0  0  0
    3.3880   57.9670   78.5610 C   0  0  0  0  0  0  0  0  0  0  0  0
    4.3270   57.1440   76.3920 C   0  0  0  0  0  0  0  0  0  0  0  0
    3.0110   57.3950   73.8090 O   0  0  0  0  0  0  0  0  0  0  0  0
    2.6210   61.2120   76.6710 O   0  0  0  0  0  0  0  0  0  0  0  0
    3.6810   63.5790   69.7550 O   0  0  0  0  0  0  0  0  0  0  0  0
    1.6008   59.1084   77.0639 H   0  0  0  0  0  0  0  0  0  0  0  0
    3.7242   59.2556   75.4376 H   0  0  0  0  0  0  0  0  0  0  0  0
    3.1048   62.2676   74.6642 H   0  0  0  0  0  0  0  0  0  0  0  0
    0.9514   60.5359   75.5033 H   0  0  0  0  0  0  0  0  0  0  0  0
    0.2416   61.7586   73.6817 H   0  0  0  0  0  0  0  0  0  0  0  0
    0.8968   62.8744   76.0042 H   0  0  0  0  0  0  0  0  0  0  0  0
    1.2730   64.3069   74.9878 H   0  0  0  0  0  0  0  0  0  0  0  0
   -0.3852   63.6161   74.9878 H   0  0  0  0  0  0  0  0  0  0  0  0
    1.8625   65.3398   69.3159 H   0  0  0  0  0  0  0  0  0  0  0  0
   -0.1670   65.7241   70.7133 H   0  0  0  0  0  0  0  0  0  0  0  0
   -0.5330   64.3955   72.7826 H   0  0  0  0  0  0  0  0  0  0  0  0
   -1.4541   55.2462   72.9702 H   0  0  0  0  0  0  0  0  0  0  0  0
    0.1427   56.0133   72.7592 H   0  0  0  0  0  0  0  0  0  0  0  0
    2.6740   56.5893   77.3128 H   0  0  0  0  0  0  0  0  0  0  0  0
    2.9690   57.2440   79.2764 H   0  0  0  0  0  0  0  0  0  0  0  0
    4.4738   58.0494   78.7164 H   0  0  0  0  0  0  0  0  0  0  0  0
    2.9197   58.9501   78.7164 H   0  0  0  0  0  0  0  0  0  0  0  0
    5.1535   56.8943   77.0736 H   0  0  0  0  0  0  0  0  0  0  0  0
    4.0993   56.2745   75.7578 H   0  0  0  0  0  0  0  0  0  0  0  0
    4.6188   57.9941   75.7578 H   0  0  0  0  0  0  0  0  0  0  0  0
    3.2158   57.0291   74.7058 H   0  0  0  0  0  0  0  0  0  0  0  0
    2.2038   60.7969   77.4671 H   0  0  0  0  0  0  0  0  0  0  0  0
    3.7815   64.1462   68.9498 H   0  0  0  0  0  0  0  0  0  0  0  0
  2  1  2  0
  3  2  1  0
  4  2  1  0
  5  4  1  0
  6  5  1  0
  7  6  1  0
  7  1  1  0
  8  7  2  0
  9  6  1  0
 10  9  2  0
 11 10  1  0
 12  5  1  0
 12 11  1  0
 13 11  1  0
 14 13  1  0
 15 13  1  0
 16 15  2  0
 17 16  1  0
 17 10  1  0
 18 17  2  0
 19 16  1  0
 20 19  2  0
 21 20  1  0
 22 21  2  0
 22 15  1  0
 23  9  1  0
 25 24  1  0
 25  1  1  0
 26 25  2  0
 27  4  1  0
 28 27  1  0
 29 27  1  0
  6 30  1  1
 31 12  1  0
 32 19  1  0
  4 33  1  1
  5 34  1  1
 11 35  1  1
 12 36  1  1
 13 37  1  6
 14 38  1  0
 14 39  1  0
 14 40  1  0
 20 41  1  0
 21 42  1  0
 22 43  1  0
 24 44  1  0
 24 45  1  0
 27 46  1  0
 28 47  1  0
 28 48  1  0
 28 49  1  0
 29 50  1  0
 29 51  1  0
 29 52  1  0
 30 53  1  0
 31 54  1  0
 32 55  1  0
M  CHG  3   3  -1  23  -1  27   1
M  END
>  <score>  (1) 
-8.548

$$$$
=
     RDKit          3D

 55 58  0  0  0  0  0  0  0  0999 V2000
    3.1370   57.3500   76.1260 C   0  0  0  0  0  0  0  0  0  0  0  0
    2.6750   56.1670   75.6240 C   0  0  0  0  0  0  0  0  0  0  0  0
    2.8240   54.9620   76.0220 O   0  0  0  0  0  1  0  0  0  0  0  0
    1.7790   56.1840   74.3570 C   0  0  2  0  0  0  0  0  0  0  0  0
    1.2810   57.5280   73.7730 C   0  0  1  0  0  0  0  0  0  0  0  0
    1.3130   58.6290   74.8340 C   0  0  1  0  0  0  0  0  0  0  0  0
    2.7590   58.6140   75.4120 C   0  0  0  0  0  0  0  0  0  0  0  0
    3.6250   59.4510   75.1520 O   0  0  0  0  0  0  0  0  0  0  0  0
    0.8610   59.9860   74.2290 C   0  0  0  0  0  0  0  0  0  0  0  0
    1.1740   60.2400   72.9400 C   0  0  0  0  0  0  0  0  0  0  0  0
    1.9720   59.3610   72.0310 C   0  0  2  0  0  0  0  0  0  0  0  0
    2.1680   57.9190   72.5680 C   0  0  2  0  0  0  0  0  0  0  0  0
    3.3190   60.0730   71.6880 C   0  0  1  0  0  0  0  0  0  0  0  0
    4.0240   59.3230   70.5410 C   0  0  0  0  0  0  0  0  0  0  0  0
    3.1300   61.5580   71.3530 C   0  0  0  0  0  0  0  0  0  0  0  0
    1.9100   62.2220   71.6040 C   0  0  0  0  0  0  0  0  0  0  0  0
    0.7860   61.5080   72.2570 C   0  0  0  0  0  0  0  0  0  0  0  0
   -0.3620   61.9170   72.1150 O   0  0  0  0  0  0  0  0  0  0  0  0
    1.7440   63.5700   71.2450 C   0  0  0  0  0  0  0  0  0  0  0  0
    2.7960   64.2870   70.6860 C   0  0  0  0  0  0  0  0  0  0  0  0
    4.0240   63.6630   70.4890 C   0  0  0  0  0  0  0  0  0  0  0  0
    4.1910   62.3160   70.8230 C   0  0  0  0  0  0  0  0  0  0  0  0
    0.2040   60.6740   75.0640 O   0  0  0  0  0  1  0  0  0  0  0  0
    5.1600   56.7230   77.3070 N   0  0  0  0  0  0  0  0  0  0  0  0
    4.0050   57.4510   77.3430 C   0  0  0  0  0  0  0  0  0  0  0  0
    3.7240   58.1130   78.3360 O   0  0  0  0  0  0  0  0  0  0  0  0
    0.6480   55.1760   74.5870 N   0  0  0  0  0  4  0  0  0  0  0  0
    0.9380   53.8170   74.1000 C   0  0  0  0  0  0  0  0  0  0  0  0
   -0.7310   55.6690   74.3170 C   0  0  0  0  0  0  0  0  0  0  0  0
    0.3520   58.2970   75.8520 O   0  0  0  0  0  0  0  0  0  0  0  0
    1.8670   56.9820   71.5070 O   0  0  0  0  0  0  0  0  0  0  0  0
    0.5670   64.2520   71.4230 O   0  0  0  0  0  0  0  0  0  0  0  0
    2.4532   55.9051   73.5338 H   0  0  0  0  0  0  0  0  0  0  0  0
    0.2390   57.4093   73.4410 H   0  0  0  0  0  0  0  0  0  0  0  0
    1.3976   59.2169   71.1040 H   0  0  0  0  0  0  0  0  0  0  0  0
    3.2119   57.8853   72.9131 H   0  0  0  0  0  0  0  0  0  0  0  0
    3.9561   60.0422   72.5842 H   0  0  0  0  0  0  0  0  0  0  0  0
    4.7204   58.5822   70.9608 H   0  0  0  0  0  0  0  0  0  0  0  0
    3.2730   58.8106   69.9218 H   0  0  0  0  0  0  0  0  0  0  0  0
    4.5818   60.0409   69.9218 H   0  0  0  0  0  0  0  0  0  0  0  0
    2.6584   65.3406   70.4014 H   0  0  0  0  0  0  0  0  0  0  0  0
    4.8665   64.2319   70.0688 H   0  0  0  0  0  0  0  0  0  0  0  0
    5.1702   61.8393   70.6687 H   0  0  0  0  0  0  0  0  0  0  0  0
    5.8068   56.7433   78.1084 H   0  0  0  0  0  0  0  0  0  0  0  0
    5.3843   56.1536   76.4785 H   0  0  0  0  0  0  0  0  0  0  0  0
    0.6341   55.0740   75.6118 H   0  0  0  0  0  0  0  0  0  0  0  0
    1.0818   53.1431   74.9575 H   0  0  0  0  0  0  0  0  0  0  0  0
    0.0961   53.4589   73.4894 H   0  0  0  0  0  0  0  0  0  0  0  0
    1.8528   53.8337   73.4894 H   0  0  0  0  0  0  0  0  0  0  0  0
   -1.2476   55.8537   75.2704 H   0  0  0  0  0  0  0  0  0  0  0  0
   -0.6797   56.6045   73.7406 H   0  0  0  0  0  0  0  0  0  0  0  0
   -1.2844   54.9130   73.7406 H   0  0  0  0  0  0  0  0  0  0  0  0
    0.7558   58.4365   76.7451 H   0  0  0  0  0  0  0  0  0  0  0  0
    1.5891   56.1168   71.8998 H   0  0  0  0  0  0  0  0  0  0  0  0
    0.4999   65.2022   71.1535 H   0  0  0  0  0  0  0  0  0  0  0  0
  2  1  2  0
  3  2  1  0
  4  2  1  0
  5  4  1  0
  6  5  1  0
  7  6  1  0
  7  1  1  0
  8  7  2  0
  9  6  1  0
 10  9  2  0
 11 10  1  0
 12  5  1  0
 12 11  1  0
 13 11  1  0
 14 13  1  0
 15 13  1  0
 16 15  2  0
 17 16  1  0
 17 10  1  0
 18 17  2  0
 19 16  1  0
 20 19  2  0
 21 20  1  0
 22 21  2  0
 22 15  1  0
 23  9  1  0
 25 24  1  0
 25  1  1  0
 26 25  2  0
 27  4  1  0
 28 27  1  0
 29 27  1  0
  6 30  1  1
 31 12  1  0
 32 19  1  0
  4 33  1  6
  5 34  1  6
 11 35  1  6
 12 36  1  1
 13 37  1  1
 14 38  1  0
 14 39  1  0
 14 40  1  0
 20 41  1  0
 21 42  1  0
 22 43  1  0
 24 44  1  0
 24 45  1  0
 27 46  1  0
 28 47  1  0
 28 48  1  0
 28 49  1  0
 29 50  1  0
 29 51  1  0
 29 52  1  0
 30 53  1  0
 31 54  1  0
 32 55  1  0
M  CHG  3   3  -1  23  -1  27   1
M  END
>  <score>  (2) 
-8.507

$$$$
=
     RDKit          3D

 55 58  0  0  0  0  0  0  0  0999 V2000
   -1.6650   60.0980   75.6050 C   0  0  0  0  0  0  0  0  0  0  0  0
   -1.7410   61.0530   76.5790 C   0  0  0  0  0  0  0  0  0  0  0  0
   -2.6340   61.2940   77.4600 O   0  0  0  0  0  1  0  0  0  0  0  0
   -0.5730   62.0610   76.7400 C   0  0  2  0  0  0  0  0  0  0  0  0
    0.7300   61.8820   75.9230 C   0  0  1  0  0  0  0  0  0  0  0  0
    0.8840   60.4330   75.4550 C   0  0  1  0  0  0  0  0  0  0  0  0
   -0.4470   60.0820   74.7280 C   0  0  0  0  0  0  0  0  0  0  0  0
   -0.5760   59.9980   73.5060 O   0  0  0  0  0  0  0  0  0  0  0  0
    2.1660   60.2710   74.5940 C   0  0  0  0  0  0  0  0  0  0  0  0
    2.5410   61.3070   73.8140 C   0  0  0  0  0  0  0  0  0  0  0  0
    1.8090   62.6010   73.6450 C   0  0  2  0  0  0  0  0  0  0  0  0
    0.7050   62.8370   74.7080 C   0  0  2  0  0  0  0  0  0  0  0  0
    1.2780   62.6980   72.1800 C   0  0  1  0  0  0  0  0  0  0  0  0
    0.7740   64.1270   71.9050 C   0  0  0  0  0  0  0  0  0  0  0  0
    2.3240   62.2640   71.1460 C   0  0  0  0  0  0  0  0  0  0  0  0
    3.5120   61.6050   71.5290 C   0  0  0  0  0  0  0  0  0  0  0  0
    3.7560   61.2610   72.9500 C   0  0  0  0  0  0  0  0  0  0  0  0
    4.9030   61.0740   73.3450 O   0  0  0  0  0  0  0  0  0  0  0  0
    4.4780   61.2610   70.5690 C   0  0  0  0  0  0  0  0  0  0  0  0
    4.2560   61.5140   69.2200 C   0  0  0  0  0  0  0  0  0  0  0  0
    3.0620   62.1070   68.8200 C   0  0  0  0  0  0  0  0  0  0  0  0
    2.1050   62.4730   69.7710 C   0  0  0  0  0  0  0  0  0  0  0  0
    2.7170   59.1470   74.7850 O   0  0  0  0  0  1  0  0  0  0  0  0
   -3.9650   59.5700   75.0490 N   0  0  0  0  0  0  0  0  0  0  0  0
   -2.7320   59.0740   75.3620 C   0  0  0  0  0  0  0  0  0  0  0  0
   -2.5570   57.8640   75.4520 O   0  0  0  0  0  0  0  0  0  0  0  0
   -0.3190   62.2260   78.2420 N   0  0  0  0  0  4  0  0  0  0  0  0
   -0.8790   63.4590   78.8200 C   0  0  0  0  0  0  0  0  0  0  0  0
    1.0430   61.8600   78.7180 C   0  0  0  0  0  0  0  0  0  0  0  0
    1.0670   59.6040   76.6170 O   0  0  0  0  0  0  0  0  0  0  0  0
    0.8420   64.1800   75.2310 O   0  0  0  0  0  0  0  0  0  0  0  0
    5.6700   60.6610   70.8880 O   0  0  0  0  0  0  0  0  0  0  0  0
   -0.9286   62.9806   76.2523 H   0  0  0  0  0  0  0  0  0  0  0  0
    1.5903   62.1244   76.5642 H   0  0  0  0  0  0  0  0  0  0  0  0
    2.5194   63.4221   73.8215 H   0  0  0  0  0  0  0  0  0  0  0  0
   -0.2411   62.6558   74.1769 H   0  0  0  0  0  0  0  0  0  0  0  0
    0.4389   61.9943   72.0768 H   0  0  0  0  0  0  0  0  0  0  0  0
    0.5924   64.6419   72.8599 H   0  0  0  0  0  0  0  0  0  0  0  0
    1.5318   64.6786   71.3293 H   0  0  0  0  0  0  0  0  0  0  0  0
   -0.1622   64.0812   71.3293 H   0  0  0  0  0  0  0  0  0  0  0  0
    5.0189   61.2473   68.4738 H   0  0  0  0  0  0  0  0  0  0  0  0
    2.8708   62.2883   67.7520 H   0  0  0  0  0  0  0  0  0  0  0  0
    1.1628   62.9331   69.4387 H   0  0  0  0  0  0  0  0  0  0  0  0
   -4.7485   58.9262   74.8685 H   0  0  0  0  0  0  0  0  0  0  0  0
   -4.1117   60.5880   74.9934 H   0  0  0  0  0  0  0  0  0  0  0  0
   -0.8906   61.4764   78.6571 H   0  0  0  0  0  0  0  0  0  0  0  0
   -0.8501   63.3954   79.9178 H   0  0  0  0  0  0  0  0  0  0  0  0
   -0.2849   64.3228   78.4870 H   0  0  0  0  0  0  0  0  0  0  0  0
   -1.9204   63.5800   78.4870 H   0  0  0  0  0  0  0  0  0  0  0  0
    1.0582   61.8559   79.8179 H   0  0  0  0  0  0  0  0  0  0  0  0
    1.3056   60.8594   78.3439 H   0  0  0  0  0  0  0  0  0  0  0  0
    1.7717   62.5942   78.3439 H   0  0  0  0  0  0  0  0  0  0  0  0
    0.9465   60.1498   77.4341 H   0  0  0  0  0  0  0  0  0  0  0  0
    0.8390   64.1507   76.2206 H   0  0  0  0  0  0  0  0  0  0  0  0
    6.3186   60.4381   70.1741 H   0  0  0  0  0  0  0  0  0  0  0  0
  2  1  2  0
  3  2  1  0
  4  2  1  0
  5  4  1  0
  6  5  1  0
  7  6  1  0
  7  1  1  0
  8  7  2  0
  9  6  1  0
 10  9  2  0
 11 10  1  0
 12  5  1  0
 12 11  1  0
 13 11  1  0
 14 13  1  0
 15 13  1  0
 16 15  2  0
 17 16  1  0
 17 10  1  0
 18 17  2  0
 19 16  1  0
 20 19  2  0
 21 20  1  0
 22 21  2  0
 22 15  1  0
 23  9  1  0
 25 24  1  0
 25  1  1  0
 26 25  2  0
 27  4  1  0
 28 27  1  0
 29 27  1  0
  6 30  1  1
 31 12  1  0
 32 19  1  0
  4 33  1  6
  5 34  1  1
 11 35  1  6
 12 36  1  6
 13 37  1  1
 14 38  1  0
 14 39  1  0
 14 40  1  0
 20 41  1  0
 21 42  1  0
 22 43  1  0
 24 44  1  0
 24 45  1  0
 27 46  1  0
 28 47  1  0
 28 48  1  0
 28 49  1  0
 29 50  1  0
 29 51  1  0
 29 52  1  0
 30 53  1  0
 31 54  1  0
 32 55  1  0
M  CHG  3   3  -1  23  -1  27   1
M  END
>  <score>  (3) 
-7.997

$$$$
=
     RDKit          3D

 55 58  0  0  0  0  0  0  0  0999 V2000
   -1.4310   58.3030   75.6850 C   0  0  0  0  0  0  0  0  0  0  0  0
   -0.8370   58.3700   76.9130 C   0  0  0  0  0  0  0  0  0  0  0  0
   -1.3050   58.2050   78.0910 O   0  0  0  0  0  1  0  0  0  0  0  0
    0.6820   58.6720   77.0010 C   0  0  2  0  0  0  0  0  0  0  0  0
    1.5400   58.7310   75.7130 C   0  0  1  0  0  0  0  0  0  0  0  0
    0.8670   57.9640   74.5750 C   0  0  1  0  0  0  0  0  0  0  0  0
   -0.5760   58.5390   74.4750 C   0  0  0  0  0  0  0  0  0  0  0  0
   -0.9640   59.3080   73.5940 O   0  0  0  0  0  0  0  0  0  0  0  0
    1.7080   58.0690   73.2730 C   0  0  0  0  0  0  0  0  0  0  0  0
    2.3850   59.2140   73.0460 C   0  0  0  0  0  0  0  0  0  0  0  0
    2.3690   60.4380   73.9060 C   0  0  2  0  0  0  0  0  0  0  0  0
    1.7550   60.2090   75.3110 C   0  0  2  0  0  0  0  0  0  0  0  0
    1.6820   61.6020   73.1210 C   0  0  1  0  0  0  0  0  0  0  0  0
    1.9060   62.9310   73.8660 C   0  0  0  0  0  0  0  0  0  0  0  0
    2.1560   61.6880   71.6650 C   0  0  0  0  0  0  0  0  0  0  0  0
    2.9130   60.6550   71.0720 C   0  0  0  0  0  0  0  0  0  0  0  0
    3.2260   59.4210   71.8330 C   0  0  0  0  0  0  0  0  0  0  0  0
    4.1830   58.7280   71.5030 O   0  0  0  0  0  0  0  0  0  0  0  0
    3.3770   60.7780   69.7520 C   0  0  0  0  0  0  0  0  0  0  0  0
    3.0520   61.8950   68.9900 C   0  0  0  0  0  0  0  0  0  0  0  0
    2.2540   62.8940   69.5400 C   0  0  0  0  0  0  0  0  0  0  0  0
    1.8070   62.7890   70.8610 C   0  0  0  0  0  0  0  0  0  0  0  0
    1.6580   56.9980   72.5980 O   0  0  0  0  0  1  0  0  0  0  0  0
   -3.6450   59.0700   75.0610 N   0  0  0  0  0  0  0  0  0  0  0  0
   -2.8880   58.0140   75.4840 C   0  0  0  0  0  0  0  0  0  0  0  0
   -3.4100   56.9260   75.6960 O   0  0  0  0  0  0  0  0  0  0  0  0
    1.2700   57.7460   78.0700 N   0  0  0  0  0  4  0  0  0  0  0  0
    1.5810   58.4130   79.3460 C   0  0  0  0  0  0  0  0  0  0  0  0
    2.2870   56.7660   77.5980 C   0  0  0  0  0  0  0  0  0  0  0  0
    0.8390   56.5690   74.9300 O   0  0  0  0  0  0  0  0  0  0  0  0
    2.6340   60.7880   76.3040 O   0  0  0  0  0  0  0  0  0  0  0  0
    4.1550   59.8280   69.1400 O   0  0  0  0  0  0  0  0  0  0  0  0
    0.7399   59.7376   77.2676 H   0  0  0  0  0  0  0  0  0  0  0  0
    2.5134   58.2579   75.9097 H   0  0  0  0  0  0  0  0  0  0  0  0
    3.4108   60.7174   74.1217 H   0  0  0  0  0  0  0  0  0  0  0  0
    0.7610   60.6778   75.2652 H   0  0  0  0  0  0  0  0  0  0  0  0
    0.6032   61.3916   73.0768 H   0  0  0  0  0  0  0  0  0  0  0  0
    1.8759   62.7527   74.9510 H   0  0  0  0  0  0  0  0  0  0  0  0
    2.8867   63.3455   73.5896 H   0  0  0  0  0  0  0  0  0  0  0  0
    1.1154   63.6441   73.5896 H   0  0  0  0  0  0  0  0  0  0  0  0
    3.4234   61.9885   67.9588 H   0  0  0  0  0  0  0  0  0  0  0  0
    1.9742   63.7684   68.9341 H   0  0  0  0  0  0  0  0  0  0  0  0
    1.1703   63.5823   71.2797 H   0  0  0  0  0  0  0  0  0  0  0  0
   -4.6552   58.9481   74.9009 H   0  0  0  0  0  0  0  0  0  0  0  0
   -3.2055   59.9879   74.9022 H   0  0  0  0  0  0  0  0  0  0  0  0
    0.4794   57.1273   78.3004 H   0  0  0  0  0  0  0  0  0  0  0  0
    1.2788   57.7648   80.1818 H   0  0  0  0  0  0  0  0  0  0  0  0
    2.6622   58.6066   79.4046 H   0  0  0  0  0  0  0  0  0  0  0  0
    1.0342   59.3657   79.4046 H   0  0  0  0  0  0  0  0  0  0  0  0
    2.7741   56.2966   78.4654 H   0  0  0  0  0  0  0  0  0  0  0  0
    1.7959   55.9920   76.9900 H   0  0  0  0  0  0  0  0  0  0  0  0
    3.0423   57.2855   76.9900 H   0  0  0  0  0  0  0  0  0  0  0  0
    0.8372   56.4794   75.9159 H   0  0  0  0  0  0  0  0  0  0  0  0
    2.2996   60.5677   77.2094 H   0  0  0  0  0  0  0  0  0  0  0  0
    4.4570   59.9617   68.2067 H   0  0  0  0  0  0  0  0  0  0  0  0
  2  1  2  0
  3  2  1  0
  4  2  1  0
  5  4  1  0
  6  5  1  0
  7  6  1  0
  7  1  1  0
  8  7  2  0
  9  6  1  0
 10  9  2  0
 11 10  1  0
 12  5  1  0
 12 11  1  0
 13 11  1  0
 14 13  1  0
 15 13  1  0
 16 15  2  0
 17 16  1  0
 17 10  1  0
 18 17  2  0
 19 16  1  0
 20 19  2  0
 21 20  1  0
 22 21  2  0
 22 15  1  0
 23  9  1  0
 25 24  1  0
 25  1  1  0
 26 25  2  0
 27  4  1  0
 28 27  1  0
 29 27  1  0
  6 30  1  1
 31 12  1  0
 32 19  1  0
  4 33  1  1
  5 34  1  1
 11 35  1  1
 12 36  1  6
 13 37  1  6
 14 38  1  0
 14 39  1  0
 14 40  1  0
 20 41  1  0
 21 42  1  0
 22 43  1  0
 24 44  1  0
 24 45  1  0
 27 46  1  0
 28 47  1  0
 28 48  1  0
 28 49  1  0
 29 50  1  0
 29 51  1  0
 29 52  1  0
 30 53  1  0
 31 54  1  0
 32 55  1  0
M  CHG  3   3  -1  23  -1  27   1
M  END
>  <score>  (4) 
-7.94

$$$$
=
     RDKit          3D

 55 58  0  0  0  0  0  0  0  0999 V2000
   -0.0800   62.0290   77.3630 C   0  0  0  0  0  0  0  0  0  0  0  0
   -1.2150   61.2720   77.4240 C   0  0  0  0  0  0  0  0  0  0  0  0
   -1.9050   60.8580   78.4160 O   0  0  0  0  0  1  0  0  0  0  0  0
   -1.8770   60.7980   76.1030 C   0  0  2  0  0  0  0  0  0  0  0  0
   -1.3550   61.3160   74.7400 C   0  0  1  0  0  0  0  0  0  0  0  0
   -0.5940   62.6310   74.9120 C   0  0  1  0  0  0  0  0  0  0  0  0
    0.4770   62.3570   76.0090 C   0  0  0  0  0  0  0  0  0  0  0  0
    1.6790   62.2020   75.7890 O   0  0  0  0  0  0  0  0  0  0  0  0
   -0.0290   63.1190   73.5500 C   0  0  0  0  0  0  0  0  0  0  0  0
    0.3680   62.1860   72.6590 C   0  0  0  0  0  0  0  0  0  0  0  0
    0.3740   60.7050   72.8670 C   0  0  2  0  0  0  0  0  0  0  0  0
   -0.4380   60.2450   74.1060 C   0  0  2  0  0  0  0  0  0  0  0  0
    1.8520   60.1990   72.8840 C   0  0  1  0  0  0  0  0  0  0  0  0
    1.8730   58.6600   72.8130 C   0  0  0  0  0  0  0  0  0  0  0  0
    2.6980   60.8230   71.7670 C   0  0  0  0  0  0  0  0  0  0  0  0
    2.2310   61.9210   71.0120 C   0  0  0  0  0  0  0  0  0  0  0  0
    0.9200   62.5420   71.3200 C   0  0  0  0  0  0  0  0  0  0  0  0
    0.3360   63.1920   70.4590 O   0  0  0  0  0  0  0  0  0  0  0  0
    3.0040   62.4450   69.9630 C   0  0  0  0  0  0  0  0  0  0  0  0
    4.2640   61.9270   69.6850 C   0  0  0  0  0  0  0  0  0  0  0  0
    4.7640   60.8850   70.4600 C   0  0  0  0  0  0  0  0  0  0  0  0
    3.9920   60.3420   71.4930 C   0  0  0  0  0  0  0  0  0  0  0  0
   -0.0580   64.3810   73.4580 O   0  0  0  0  0  1  0  0  0  0  0  0
    0.9800   63.8650   78.5410 N   0  0  0  0  0  0  0  0  0  0  0  0
    0.6400   62.5430   78.5730 C   0  0  0  0  0  0  0  0  0  0  0  0
    0.9440   61.8500   79.5380 O   0  0  0  0  0  0  0  0  0  0  0  0
   -3.3910   60.9670   76.2660 N   0  0  0  0  0  4  0  0  0  0  0  0
   -4.1480   59.7040   76.2520 C   0  0  0  0  0  0  0  0  0  0  0  0
   -4.0090   62.0900   75.5080 C   0  0  0  0  0  0  0  0  0  0  0  0
   -1.5280   63.6350   75.3490 O   0  0  0  0  0  0  0  0  0  0  0  0
   -1.2910   59.1410   73.7200 O   0  0  0  0  0  0  0  0  0  0  0  0
    2.5820   63.4800   69.1670 O   0  0  0  0  0  0  0  0  0  0  0  0
   -1.5632   59.7493   75.9945 H   0  0  0  0  0  0  0  0  0  0  0  0
   -2.2123   61.5062   74.0776 H   0  0  0  0  0  0  0  0  0  0  0  0
   -0.1535   60.2388   72.0218 H   0  0  0  0  0  0  0  0  0  0  0  0
    0.3198   59.9843   74.8596 H   0  0  0  0  0  0  0  0  0  0  0  0
    2.3109   60.5221   73.8301 H   0  0  0  0  0  0  0  0  0  0  0  0
    1.8786   58.2460   73.8321 H   0  0  0  0  0  0  0  0  0  0  0  0
    0.9796   58.3054   72.2781 H   0  0  0  0  0  0  0  0  0  0  0  0
    2.7757   58.3299   72.2781 H   0  0  0  0  0  0  0  0  0  0  0  0
    4.8616   62.3381   68.8580 H   0  0  0  0  0  0  0  0  0  0  0  0
    5.7697   60.4868   70.2599 H   0  0  0  0  0  0  0  0  0  0  0  0
    4.4041   59.5240   72.1022 H   0  0  0  0  0  0  0  0  0  0  0  0
    1.4769   64.2884   79.3377 H   0  0  0  0  0  0  0  0  0  0  0  0
    0.7396   64.4389   77.7202 H   0  0  0  0  0  0  0  0  0  0  0  0
   -3.4828   61.2992   77.2366 H   0  0  0  0  0  0  0  0  0  0  0  0
   -4.3416   59.3811   77.2856 H   0  0  0  0  0  0  0  0  0  0  0  0
   -5.1043   59.8555   75.7300 H   0  0  0  0  0  0  0  0  0  0  0  0
   -3.5636   58.9320   75.7300 H   0  0  0  0  0  0  0  0  0  0  0  0
   -4.4157   62.8290   76.2141 H   0  0  0  0  0  0  0  0  0  0  0  0
   -3.2470   62.5683   74.8750 H   0  0  0  0  0  0  0  0  0  0  0  0
   -4.8208   61.7022   74.8750 H   0  0  0  0  0  0  0  0  0  0  0  0
   -1.5491   63.6577   76.3385 H   0  0  0  0  0  0  0  0  0  0  0  0
   -1.6376   58.6924   74.5316 H   0  0  0  0  0  0  0  0  0  0  0  0
    3.1644   63.8142   68.4395 H   0  0  0  0  0  0  0  0  0  0  0  0
  2  1  2  0
  3  2  1  0
  4  2  1  0
  5  4  1  0
  6  5  1  0
  7  6  1  0
  7  1  1  0
  8  7  2  0
  9  6  1  0
 10  9  2  0
 11 10  1  0
 12  5  1  0
 12 11  1  0
 13 11  1  0
 14 13  1  0
 15 13  1  0
 16 15  2  0
 17 16  1  0
 17 10  1  0
 18 17  2  0
 19 16  1  0
 20 19  2  0
 21 20  1  0
 22 21  2  0
 22 15  1  0
 23  9  1  0
 25 24  1  0
 25  1  1  0
 26 25  2  0
 27  4  1  0
 28 27  1  0
 29 27  1  0
  6 30  1  1
 31 12  1  0
 32 19  1  0
  4 33  1  6
  5 34  1  6
 11 35  1  6
 12 36  1  1
 13 37  1  1
 14 38  1  0
 14 39  1  0
 14 40  1  0
 20 41  1  0
 21 42  1  0
 22 43  1  0
 24 44  1  0
 24 45  1  0
 27 46  1  0
 28 47  1  0
 28 48  1  0
 28 49  1  0
 29 50  1  0
 29 51  1  0
 29 52  1  0
 30 53  1  0
 31 54  1  0
 32 55  1  0
M  CHG  3   3  -1  23  -1  27   1
M  END
>  <score>  (5) 
-7.939

$$$$
=
     RDKit          3D

 55 58  0  0  0  0  0  0  0  0999 V2000
    1.2220   61.9320   72.7760 C   0  0  0  0  0  0  0  0  0  0  0  0
    1.8510   61.7350   71.5800 C   0  0  0  0  0  0  0  0  0  0  0  0
    1.8910   62.4430   70.5170 O   0  0  0  0  0  1  0  0  0  0  0  0
    2.7150   60.4610   71.3830 C   0  0  2  0  0  0  0  0  0  0  0  0
    2.9950   59.5170   72.5780 C   0  0  1  0  0  0  0  0  0  0  0  0
    2.8120   60.2520   73.9070 C   0  0  1  0  0  0  0  0  0  0  0  0
    1.3940   60.8910   73.8430 C   0  0  0  0  0  0  0  0  0  0  0  0
    0.4080   60.4680   74.4480 O   0  0  0  0  0  0  0  0  0  0  0  0
    3.0450   59.2870   75.1010 C   0  0  0  0  0  0  0  0  0  0  0  0
    2.6790   57.9960   74.9540 C   0  0  0  0  0  0  0  0  0  0  0  0
    2.0100   57.3950   73.7590 C   0  0  2  0  0  0  0  0  0  0  0  0
    2.0410   58.3020   72.5010 C   0  0  2  0  0  0  0  0  0  0  0  0
    0.5650   56.9500   74.1540 C   0  0  1  0  0  0  0  0  0  0  0  0
   -0.0350   56.0820   73.0320 C   0  0  0  0  0  0  0  0  0  0  0  0
    0.5230   56.2270   75.5060 C   0  0  0  0  0  0  0  0  0  0  0  0
    1.6320   56.2280   76.3790 C   0  0  0  0  0  0  0  0  0  0  0  0
    2.8600   56.9830   76.0330 C   0  0  0  0  0  0  0  0  0  0  0  0
    3.9310   56.6760   76.5480 O   0  0  0  0  0  0  0  0  0  0  0  0
    1.5870   55.5180   77.5900 C   0  0  0  0  0  0  0  0  0  0  0  0
    0.4310   54.8480   77.9750 C   0  0  0  0  0  0  0  0  0  0  0  0
   -0.6920   54.8890   77.1530 C   0  0  0  0  0  0  0  0  0  0  0  0
   -0.6490   55.5750   75.9350 C   0  0  0  0  0  0  0  0  0  0  0  0
    3.6030   59.8750   76.0750 O   0  0  0  0  0  1  0  0  0  0  0  0
    0.3280   63.5100   74.3860 N   0  0  0  0  0  0  0  0  0  0  0  0
    0.3660   63.1250   73.0760 C   0  0  0  0  0  0  0  0  0  0  0  0
   -0.2910   63.7290   72.2360 O   0  0  0  0  0  0  0  0  0  0  0  0
    3.9880   60.8850   70.6450 N   0  0  0  0  0  4  0  0  0  0  0  0
    4.0510   60.4450   69.2410 C   0  0  0  0  0  0  0  0  0  0  0  0
    5.2600   60.7610   71.4100 C   0  0  0  0  0  0  0  0  0  0  0  0
    3.8280   61.2670   74.0000 O   0  0  0  0  0  0  0  0  0  0  0  0
    2.4650   57.5100   71.3660 O   0  0  0  0  0  0  0  0  0  0  0  0
    2.6490   55.4450   78.4550 O   0  0  0  0  0  0  0  0  0  0  0  0
    2.0785   59.7787   70.8005 H   0  0  0  0  0  0  0  0  0  0  0  0
    4.0377   59.1707   72.5243 H   0  0  0  0  0  0  0  0  0  0  0  0
    2.5872   56.5093   73.4551 H   0  0  0  0  0  0  0  0  0  0  0  0
    1.0192   58.6997   72.4130 H   0  0  0  0  0  0  0  0  0  0  0  0
   -0.0479   57.8555   74.2744 H   0  0  0  0  0  0  0  0  0  0  0  0
   -0.6074   55.2539   73.4754 H   0  0  0  0  0  0  0  0  0  0  0  0
   -0.7019   56.6968   72.4096 H   0  0  0  0  0  0  0  0  0  0  0  0
    0.7758   55.6754   72.4096 H   0  0  0  0  0  0  0  0  0  0  0  0
    0.4039   54.2895   78.9223 H   0  0  0  0  0  0  0  0  0  0  0  0
   -1.6166   54.3799   77.4627 H   0  0  0  0  0  0  0  0  0  0  0  0
   -1.5471   55.6058   75.3006 H   0  0  0  0  0  0  0  0  0  0  0  0
   -0.2394   64.3221   74.6679 H   0  0  0  0  0  0  0  0  0  0  0  0
    0.8668   62.9882   75.0920 H   0  0  0  0  0  0  0  0  0  0  0  0
    3.8864   61.9079   70.5795 H   0  0  0  0  0  0  0  0  0  0  0  0
    4.2068   59.3567   69.2045 H   0  0  0  0  0  0  0  0  0  0  0  0
    3.1075   60.6975   68.7349 H   0  0  0  0  0  0  0  0  0  0  0  0
    4.8857   60.9521   68.7349 H   0  0  0  0  0  0  0  0  0  0  0  0
    5.0430   60.7822   72.4882 H   0  0  0  0  0  0  0  0  0  0  0  0
    5.7511   59.8107   71.1534 H   0  0  0  0  0  0  0  0  0  0  0  0
    5.9253   61.5985   71.1534 H   0  0  0  0  0  0  0  0  0  0  0  0
    4.0183   61.4571   74.9528 H   0  0  0  0  0  0  0  0  0  0  0  0
    2.9071   56.6842   71.6865 H   0  0  0  0  0  0  0  0  0  0  0  0
    2.5670   54.9311   79.2972 H   0  0  0  0  0  0  0  0  0  0  0  0
  2  1  2  0
  3  2  1  0
  4  2  1  0
  5  4  1  0
  6  5  1  0
  7  6  1  0
  7  1  1  0
  8  7  2  0
  9  6  1  0
 10  9  2  0
 11 10  1  0
 12  5  1  0
 12 11  1  0
 13 11  1  0
 14 13  1  0
 15 13  1  0
 16 15  2  0
 17 16  1  0
 17 10  1  0
 18 17  2  0
 19 16  1  0
 20 19  2  0
 21 20  1  0
 22 21  2  0
 22 15  1  0
 23  9  1  0
 25 24  1  0
 25  1  1  0
 26 25  2  0
 27  4  1  0
 28 27  1  0
 29 27  1  0
  6 30  1  1
 31 12  1  0
 32 19  1  0
  4 33  1  6
  5 34  1  6
 11 35  1  6
 12 36  1  6
 13 37  1  1
 14 38  1  0
 14 39  1  0
 14 40  1  0
 20 41  1  0
 21 42  1  0
 22 43  1  0
 24 44  1  0
 24 45  1  0
 27 46  1  0
 28 47  1  0
 28 48  1  0
 28 49  1  0
 29 50  1  0
 29 51  1  0
 29 52  1  0
 30 53  1  0
 31 54  1  0
 32 55  1  0
M  CHG  3   3  -1  23  -1  27   1
M  END
>  <score>  (6) 
-7.612

$$$$
=
     RDKit          3D

 55 58  0  0  0  0  0  0  0  0999 V2000
    1.4370   62.3440   71.4090 C   0  0  0  0  0  0  0  0  0  0  0  0
    2.1100   61.1570   71.4600 C   0  0  0  0  0  0  0  0  0  0  0  0
    2.8320   60.5540   70.5960 O   0  0  0  0  0  1  0  0  0  0  0  0
    2.0730   60.3250   72.7700 C   0  0  2  0  0  0  0  0  0  0  0  0
    1.4230   60.9120   74.0470 C   0  0  1  0  0  0  0  0  0  0  0  0
    1.3740   62.4390   73.9810 C   0  0  1  0  0  0  0  0  0  0  0  0
    0.6800   62.7790   72.6290 C   0  0  0  0  0  0  0  0  0  0  0  0
   -0.4800   63.1780   72.5190 O   0  0  0  0  0  0  0  0  0  0  0  0
    0.6760   63.0180   75.2420 C   0  0  0  0  0  0  0  0  0  0  0  0
   -0.3270   62.3040   75.7950 C   0  0  0  0  0  0  0  0  0  0  0  0
   -0.8860   61.0150   75.2830 C   0  0  2  0  0  0  0  0  0  0  0  0
   -0.0030   60.3350   74.2040 C   0  0  2  0  0  0  0  0  0  0  0  0
   -2.3560   61.2500   74.8100 C   0  0  1  0  0  0  0  0  0  0  0  0
   -3.0380   59.8940   74.5460 C   0  0  0  0  0  0  0  0  0  0  0  0
   -3.1620   62.1000   75.7990 C   0  0  0  0  0  0  0  0  0  0  0  0
   -2.5370   62.7930   76.8580 C   0  0  0  0  0  0  0  0  0  0  0  0
   -1.0630   62.7630   77.0090 C   0  0  0  0  0  0  0  0  0  0  0  0
   -0.5560   62.9990   78.1010 O   0  0  0  0  0  0  0  0  0  0  0  0
   -3.3020   63.5260   77.7800 C   0  0  0  0  0  0  0  0  0  0  0  0
   -4.6820   63.6260   77.6340 C   0  0  0  0  0  0  0  0  0  0  0  0
   -5.3050   62.9980   76.5600 C   0  0  0  0  0  0  0  0  0  0  0  0
   -4.5540   62.2480   75.6500 C   0  0  0  0  0  0  0  0  0  0  0  0
    1.1990   64.1140   75.6030 O   0  0  0  0  0  1  0  0  0  0  0  0
    0.1820   63.7340   69.8680 N   0  0  0  0  0  0  0  0  0  0  0  0
    1.4070   63.2280   70.1990 C   0  0  0  0  0  0  0  0  0  0  0  0
    2.3880   63.4850   69.5100 O   0  0  0  0  0  0  0  0  0  0  0  0
    3.4880   59.7910   73.0100 N   0  0  0  0  0  4  0  0  0  0  0  0
    3.6050   58.8770   74.1590 C   0  0  0  0  0  0  0  0  0  0  0  0
    4.5930   60.7790   72.8660 C   0  0  0  0  0  0  0  0  0  0  0  0
    2.7260   62.9320   74.0020 O   0  0  0  0  0  0  0  0  0  0  0  0
    0.1480   58.9350   74.5400 O   0  0  0  0  0  0  0  0  0  0  0  0
   -2.7540   64.1820   78.8540 O   0  0  0  0  0  0  0  0  0  0  0  0
    1.3344   59.5329   72.5777 H   0  0  0  0  0  0  0  0  0  0  0  0
    2.0315   60.6316   74.9194 H   0  0  0  0  0  0  0  0  0  0  0  0
   -0.8885   60.2906   76.1108 H   0  0  0  0  0  0  0  0  0  0  0  0
   -0.5286   60.5138   73.2544 H   0  0  0  0  0  0  0  0  0  0  0  0
   -2.3230   61.8247   73.8727 H   0  0  0  0  0  0  0  0  0  0  0  0
   -3.2802   59.4125   75.5049 H   0  0  0  0  0  0  0  0  0  0  0  0
   -3.9628   60.0542   73.9723 H   0  0  0  0  0  0  0  0  0  0  0  0
   -2.3580   59.2471   73.9723 H   0  0  0  0  0  0  0  0  0  0  0  0
   -5.2762   64.1974   78.3623 H   0  0  0  0  0  0  0  0  0  0  0  0
   -6.3928   63.0920   76.4264 H   0  0  0  0  0  0  0  0  0  0  0  0
   -5.0603   61.7644   74.8016 H   0  0  0  0  0  0  0  0  0  0  0  0
    0.0836   64.3498   69.0483 H   0  0  0  0  0  0  0  0  0  0  0  0
   -0.6432   63.4997   70.4382 H   0  0  0  0  0  0  0  0  0  0  0  0
    3.6471   59.1839   72.1933 H   0  0  0  0  0  0  0  0  0  0  0  0
    3.5314   59.4520   75.0939 H   0  0  0  0  0  0  0  0  0  0  0  0
    2.7946   58.1342   74.1206 H   0  0  0  0  0  0  0  0  0  0  0  0
    4.5764   58.3622   74.1206 H   0  0  0  0  0  0  0  0  0  0  0  0
    4.9398   61.0891   73.8628 H   0  0  0  0  0  0  0  0  0  0  0  0
    5.4263   60.3193   72.3144 H   0  0  0  0  0  0  0  0  0  0  0  0
    4.2290   61.6584   72.3144 H   0  0  0  0  0  0  0  0  0  0  0  0
    3.0232   63.0404   74.9401 H   0  0  0  0  0  0  0  0  0  0  0  0
    0.1592   58.8313   75.5245 H   0  0  0  0  0  0  0  0  0  0  0  0
   -3.3365   64.6857   79.4762 H   0  0  0  0  0  0  0  0  0  0  0  0
  2  1  2  0
  3  2  1  0
  4  2  1  0
  5  4  1  0
  6  5  1  0
  7  6  1  0
  7  1  1  0
  8  7  2  0
  9  6  1  0
 10  9  2  0
 11 10  1  0
 12  5  1  0
 12 11  1  0
 13 11  1  0
 14 13  1  0
 15 13  1  0
 16 15  2  0
 17 16  1  0
 17 10  1  0
 18 17  2  0
 19 16  1  0
 20 19  2  0
 21 20  1  0
 22 21  2  0
 22 15  1  0
 23  9  1  0
 25 24  1  0
 25  1  1  0
 26 25  2  0
 27  4  1  0
 28 27  1  0
 29 27  1  0
  6 30  1  6
 31 12  1  0
 32 19  1  0
  4 33  1  6
  5 34  1  1
 11 35  1  1
 12 36  1  6
 13 37  1  6
 14 38  1  0
 14 39  1  0
 14 40  1  0
 20 41  1  0
 21 42  1  0
 22 43  1  0
 24 44  1  0
 24 45  1  0
 27 46  1  0
 28 47  1  0
 28 48  1  0
 28 49  1  0
 29 50  1  0
 29 51  1  0
 29 52  1  0
 30 53  1  0
 31 54  1  0
 32 55  1  0
M  CHG  3   3  -1  23  -1  27   1
M  END
>  <score>  (7) 
-6.978

$$$$
=
     RDKit          3D

 55 58  0  0  0  0  0  0  0  0999 V2000
    3.6850   60.6350   72.4490 C   0  0  0  0  0  0  0  0  0  0  0  0
    2.7390   61.6190   72.4050 C   0  0  0  0  0  0  0  0  0  0  0  0
    2.6020   62.6290   71.6340 O   0  0  0  0  0  1  0  0  0  0  0  0
    1.5640   61.5820   73.4170 C   0  0  2  0  0  0  0  0  0  0  0  0
    1.3770   60.3600   74.3500 C   0  0  1  0  0  0  0  0  0  0  0  0
    2.0750   59.1260   73.7760 C   0  0  1  0  0  0  0  0  0  0  0  0
    3.5420   59.5660   73.4920 C   0  0  0  0  0  0  0  0  0  0  0  0
    4.5130   59.2500   74.1810 O   0  0  0  0  0  0  0  0  0  0  0  0
    1.9270   57.9160   74.7400 C   0  0  0  0  0  0  0  0  0  0  0  0
    1.9090   58.1620   76.0670 C   0  0  0  0  0  0  0  0  0  0  0  0
    2.0730   59.4960   76.7240 C   0  0  2  0  0  0  0  0  0  0  0  0
    1.9430   60.6950   75.7490 C   0  0  2  0  0  0  0  0  0  0  0  0
    3.4120   59.5050   77.5280 C   0  0  1  0  0  0  0  0  0  0  0  0
    3.4640   60.7510   78.4330 C   0  0  0  0  0  0  0  0  0  0  0  0
    3.6220   58.2180   78.3350 C   0  0  0  0  0  0  0  0  0  0  0  0
    2.8130   57.0780   78.1300 C   0  0  0  0  0  0  0  0  0  0  0  0
    1.7660   57.0780   77.0810 C   0  0  0  0  0  0  0  0  0  0  0  0
    0.8240   56.2960   77.1590 O   0  0  0  0  0  0  0  0  0  0  0  0
    2.9930   55.9270   78.9150 C   0  0  0  0  0  0  0  0  0  0  0  0
    4.0040   55.8700   79.8680 C   0  0  0  0  0  0  0  0  0  0  0  0
    4.8480   56.9630   80.0380 C   0  0  0  0  0  0  0  0  0  0  0  0
    4.6630   58.1220   79.2770 C   0  0  0  0  0  0  0  0  0  0  0  0
    1.8060   56.8270   74.1060 O   0  0  0  0  0  1  0  0  0  0  0  0
    6.0060   61.1550   71.9770 N   0  0  0  0  0  0  0  0  0  0  0  0
    4.8590   60.5710   71.5200 C   0  0  0  0  0  0  0  0  0  0  0  0
    4.8280   60.0610   70.4060 O   0  0  0  0  0  0  0  0  0  0  0  0
    0.2900   61.9480   72.6500 N   0  0  0  0  0  4  0  0  0  0  0  0
    0.0720   63.3970   72.4920 C   0  0  0  0  0  0  0  0  0  0  0  0
   -0.9240   61.1540   72.9810 C   0  0  0  0  0  0  0  0  0  0  0  0
    1.4060   58.7580   72.5560 O   0  0  0  0  0  0  0  0  0  0  0  0
    1.0560   61.6770   76.3340 O   0  0  0  0  0  0  0  0  0  0  0  0
    2.2080   54.8080   78.7920 O   0  0  0  0  0  0  0  0  0  0  0  0
    1.8370   62.3180   74.1875 H   0  0  0  0  0  0  0  0  0  0  0  0
    0.3037   60.1337   74.4327 H   0  0  0  0  0  0  0  0  0  0  0  0
    1.2350   59.6384   77.4222 H   0  0  0  0  0  0  0  0  0  0  0  0
    2.9727   61.0528   75.6017 H   0  0  0  0  0  0  0  0  0  0  0  0
    4.2404   59.5489   76.8056 H   0  0  0  0  0  0  0  0  0  0  0  0
    3.4510   60.4389   79.4877 H   0  0  0  0  0  0  0  0  0  0  0  0
    4.3864   61.3143   78.2287 H   0  0  0  0  0  0  0  0  0  0  0  0
    2.5917   61.3892   78.2287 H   0  0  0  0  0  0  0  0  0  0  0  0
    4.1355   54.9675   80.4829 H   0  0  0  0  0  0  0  0  0  0  0  0
    5.6642   56.9155   80.7739 H   0  0  0  0  0  0  0  0  0  0  0  0
    5.3440   58.9743   79.4175 H   0  0  0  0  0  0  0  0  0  0  0  0
    6.8544   61.1501   71.3930 H   0  0  0  0  0  0  0  0  0  0  0  0
    6.0226   61.6003   72.9056 H   0  0  0  0  0  0  0  0  0  0  0  0
    0.4946   61.6216   71.6948 H   0  0  0  0  0  0  0  0  0  0  0  0
    0.0012   63.8674   73.4838 H   0  0  0  0  0  0  0  0  0  0  0  0
    0.9142   63.8361   71.9371 H   0  0  0  0  0  0  0  0  0  0  0  0
   -0.8621   63.5689   71.9371 H   0  0  0  0  0  0  0  0  0  0  0  0
   -1.0301   61.0846   74.0737 H   0  0  0  0  0  0  0  0  0  0  0  0
   -1.8113   61.6468   72.5570 H   0  0  0  0  0  0  0  0  0  0  0  0
   -0.8281   60.1435   72.5570 H   0  0  0  0  0  0  0  0  0  0  0  0
    0.5594   58.2923   72.7714 H   0  0  0  0  0  0  0  0  0  0  0  0
    1.1067   61.6209   77.3211 H   0  0  0  0  0  0  0  0  0  0  0  0
    2.3744   54.0208   79.3688 H   0  0  0  0  0  0  0  0  0  0  0  0
  2  1  2  0
  3  2  1  0
  4  2  1  0
  5  4  1  0
  6  5  1  0
  7  6  1  0
  7  1  1  0
  8  7  2  0
  9  6  1  0
 10  9  2  0
 11 10  1  0
 12  5  1  0
 12 11  1  0
 13 11  1  0
 14 13  1  0
 15 13  1  0
 16 15  2  0
 17 16  1  0
 17 10  1  0
 18 17  2  0
 19 16  1  0
 20 19  2  0
 21 20  1  0
 22 21  2  0
 22 15  1  0
 23  9  1  0
 25 24  1  0
 25  1  1  0
 26 25  2  0
 27  4  1  0
 28 27  1  0
 29 27  1  0
  6 30  1  6
 31 12  1  0
 32 19  1  0
  4 33  1  1
  5 34  1  1
 11 35  1  1
 12 36  1  6
 13 37  1  6
 14 38  1  0
 14 39  1  0
 14 40  1  0
 20 41  1  0
 21 42  1  0
 22 43  1  0
 24 44  1  0
 24 45  1  0
 27 46  1  0
 28 47  1  0
 28 48  1  0
 28 49  1  0
 29 50  1  0
 29 51  1  0
 29 52  1  0
 30 53  1  0
 31 54  1  0
 32 55  1  0
M  CHG  3   3  -1  23  -1  27   1
M  END
>  <score>  (8) 
-6.93

$$$$
=
     RDKit          3D

 55 58  0  0  0  0  0  0  0  0999 V2000
    1.2260   61.9160   73.6910 C   0  0  0  0  0  0  0  0  0  0  0  0
    1.9170   61.1810   74.6120 C   0  0  0  0  0  0  0  0  0  0  0  0
    3.1010   60.7010   74.5960 O   0  0  0  0  0  1  0  0  0  0  0  0
    1.2380   60.8330   75.9630 C   0  0  2  0  0  0  0  0  0  0  0  0
   -0.1360   61.4490   76.3260 C   0  0  1  0  0  0  0  0  0  0  0  0
   -0.3860   62.7290   75.5270 C   0  0  1  0  0  0  0  0  0  0  0  0
   -0.1720   62.3420   74.0340 C   0  0  0  0  0  0  0  0  0  0  0  0
   -1.0780   62.1790   73.2160 O   0  0  0  0  0  0  0  0  0  0  0  0
   -1.7860   63.3150   75.8590 C   0  0  0  0  0  0  0  0  0  0  0  0
   -2.7850   62.4510   76.1370 C   0  0  0  0  0  0  0  0  0  0  0  0
   -2.7010   60.9580   76.1080 C   0  0  2  0  0  0  0  0  0  0  0  0
   -1.2500   60.4150   76.0450 C   0  0  2  0  0  0  0  0  0  0  0  0
   -3.6040   60.4210   74.9520 C   0  0  1  0  0  0  0  0  0  0  0  0
   -3.7540   58.8930   75.0800 C   0  0  0  0  0  0  0  0  0  0  0  0
   -4.9700   61.1170   74.9020 C   0  0  0  0  0  0  0  0  0  0  0  0
   -5.2320   62.2830   75.6530 C   0  0  0  0  0  0  0  0  0  0  0  0
   -4.1650   62.9040   76.4740 C   0  0  0  0  0  0  0  0  0  0  0  0
   -4.4650   63.6360   77.4120 O   0  0  0  0  0  0  0  0  0  0  0  0
   -6.5060   62.8750   75.6290 C   0  0  0  0  0  0  0  0  0  0  0  0
   -7.5130   62.3540   74.8240 C   0  0  0  0  0  0  0  0  0  0  0  0
   -7.2510   61.2410   74.0310 C   0  0  0  0  0  0  0  0  0  0  0  0
   -5.9930   60.6320   74.0650 C   0  0  0  0  0  0  0  0  0  0  0  0
   -1.7750   64.5820   75.8510 O   0  0  0  0  0  1  0  0  0  0  0  0
    2.2800   61.2900   71.5990 N   0  0  0  0  0  0  0  0  0  0  0  0
    1.7840   62.3110   72.3570 C   0  0  0  0  0  0  0  0  0  0  0  0
    1.8340   63.4650   71.9470 O   0  0  0  0  0  0  0  0  0  0  0  0
    2.2870   61.0210   77.0610 N   0  0  0  0  0  4  0  0  0  0  0  0
    3.0160   59.7920   77.4210 C   0  0  0  0  0  0  0  0  0  0  0  0
    1.8880   61.8830   78.2070 C   0  0  0  0  0  0  0  0  0  0  0  0
    0.5770   63.7140   75.9440 O   0  0  0  0  0  0  0  0  0  0  0  0
   -1.1020   59.3650   77.0320 O   0  0  0  0  0  0  0  0  0  0  0  0
   -6.8310   63.9810   76.3730 O   0  0  0  0  0  0  0  0  0  0  0  0
    0.9074   59.7900   75.8493 H   0  0  0  0  0  0  0  0  0  0  0  0
   -0.1393   61.7106   77.3944 H   0  0  0  0  0  0  0  0  0  0  0  0
   -3.0807   60.5749   77.0666 H   0  0  0  0  0  0  0  0  0  0  0  0
   -1.1202   60.0767   75.0064 H   0  0  0  0  0  0  0  0  0  0  0  0
   -3.1094   60.6555   73.9979 H   0  0  0  0  0  0  0  0  0  0  0  0
   -3.7813   58.6151   76.1440 H   0  0  0  0  0  0  0  0  0  0  0  0
   -4.6878   58.5742   74.5937 H   0  0  0  0  0  0  0  0  0  0  0  0
   -2.9001   58.3987   74.5937 H   0  0  0  0  0  0  0  0  0  0  0  0
   -8.5100   62.8186   74.8141 H   0  0  0  0  0  0  0  0  0  0  0  0
   -8.0368   60.8387   73.3748 H   0  0  0  0  0  0  0  0  0  0  0  0
   -5.7989   59.7579   73.4261 H   0  0  0  0  0  0  0  0  0  0  0  0
    2.6800   61.4854   70.6702 H   0  0  0  0  0  0  0  0  0  0  0  0
    2.2543   60.3241   71.9558 H   0  0  0  0  0  0  0  0  0  0  0  0
    2.9985   61.6067   76.6011 H   0  0  0  0  0  0  0  0  0  0  0  0
    3.0681   59.7041   78.5162 H   0  0  0  0  0  0  0  0  0  0  0  0
    2.4896   58.9190   77.0077 H   0  0  0  0  0  0  0  0  0  0  0  0
    4.0345   59.8354   77.0077 H   0  0  0  0  0  0  0  0  0  0  0  0
    2.1251   61.3707   79.1511 H   0  0  0  0  0  0  0  0  0  0  0  0
    2.4371   62.8349   78.1584 H   0  0  0  0  0  0  0  0  0  0  0  0
    0.8069   62.0804   78.1584 H   0  0  0  0  0  0  0  0  0  0  0  0
    0.6087   63.7465   76.9330 H   0  0  0  0  0  0  0  0  0  0  0  0
   -1.1570   59.7555   77.9401 H   0  0  0  0  0  0  0  0  0  0  0  0
   -7.7435   64.3615   76.3216 H   0  0  0  0  0  0  0  0  0  0  0  0
  2  1  2  0
  3  2  1  0
  4  2  1  0
  5  4  1  0
  6  5  1  0
  7  6  1  0
  7  1  1  0
  8  7  2  0
  9  6  1  0
 10  9  2  0
 11 10  1  0
 12  5  1  0
 12 11  1  0
 13 11  1  0
 14 13  1  0
 15 13  1  0
 16 15  2  0
 17 16  1  0
 17 10  1  0
 18 17  2  0
 19 16  1  0
 20 19  2  0
 21 20  1  0
 22 21  2  0
 22 15  1  0
 23  9  1  0
 25 24  1  0
 25  1  1  0
 26 25  2  0
 27  4  1  0
 28 27  1  0
 29 27  1  0
  6 30  1  1
 31 12  1  0
 32 19  1  0
  4 33  1  6
  5 34  1  1
 11 35  1  1
 12 36  1  6
 13 37  1  6
 14 38  1  0
 14 39  1  0
 14 40  1  0
 20 41  1  0
 21 42  1  0
 22 43  1  0
 24 44  1  0
 24 45  1  0
 27 46  1  0
 28 47  1  0
 28 48  1  0
 28 49  1  0
 29 50  1  0
 29 51  1  0
 29 52  1  0
 30 53  1  0
 31 54  1  0
 32 55  1  0
M  CHG  3   3  -1  23  -1  27   1
M  END
>  <score>  (9) 
-6.503

$$$$
