=
     RDKit          3D

 44 45  0  0  0  0  0  0  0  0999 V2000
    0.1290   68.4040   64.6010 C   0  0  0  0  0  0  0  0  0  0  0  0
    1.4180   67.7410   64.6040 N   0  0  0  0  0  0  0  0  0  0  0  0
    1.8110   66.7390   65.4560 C   0  0  0  0  0  0  0  0  0  0  0  0
    2.8810   66.1050   65.0100 N   0  0  0  0  0  0  0  0  0  0  0  0
    3.2190   66.7550   63.8480 C   0  0  0  0  0  0  0  0  0  0  0  0
    2.3630   67.7970   63.6290 C   0  0  0  0  0  0  0  0  0  0  0  0
    2.4210   68.5750   62.5380 N   0  0  0  0  0  0  0  0  0  0  0  0
    3.3560   68.2390   61.6010 C   0  0  0  0  0  0  0  0  0  0  0  0
    3.3430   69.0410   60.5090 N   0  0  0  0  0  0  0  0  0  0  0  0
    4.1540   67.2100   61.6510 N   0  0  0  0  0  0  0  0  0  0  0  0
    4.1770   66.4000   62.8030 C   0  0  0  0  0  0  0  0  0  0  0  0
    4.8290   65.3630   62.8040 O   0  0  0  0  0  0  0  0  0  0  0  0
   -0.6040   67.9900   65.7660 O   0  0  0  0  0  0  0  0  0  0  0  0
   -1.2430   69.0940   66.4260 C   0  0  0  0  0  0  0  0  0  0  0  0
   -0.3810   69.5720   67.5980 C   0  0  0  0  0  0  0  0  0  0  0  0
    0.9980   69.8390   67.2420 O   0  0  0  0  0  0  0  0  0  0  0  0
    1.9490   69.3870   68.0960 C   0  0  0  0  0  0  0  0  0  0  0  0
    1.9310   68.3170   68.6920 O   0  0  0  0  0  0  0  0  0  0  0  0
    3.1220   70.3720   68.2380 C   0  0  1  0  0  0  0  0  0  0  0  0
    3.3630   70.6360   69.7100 N   0  0  0  0  0  4  0  0  0  0  0  0
    5.6300   70.7130   67.8670 C   0  0  0  0  0  0  0  0  0  0  0  0
    4.4160   69.8110   67.6010 C   0  0  0  0  0  0  0  0  0  0  0  0
    4.2750   69.6350   66.0830 C   0  0  0  0  0  0  0  0  0  0  0  0
    0.2733   69.4943   64.6224 H   0  0  0  0  0  0  0  0  0  0  0  0
   -0.4288   68.1355   63.6918 H   0  0  0  0  0  0  0  0  0  0  0  0
    1.2969   66.4934   66.3970 H   0  0  0  0  0  0  0  0  0  0  0  0
    1.7940   69.3826   62.4135 H   0  0  0  0  0  0  0  0  0  0  0  0
    4.0084   68.8753   59.7404 H   0  0  0  0  0  0  0  0  0  0  0  0
    2.6677   69.8163   60.4475 H   0  0  0  0  0  0  0  0  0  0  0  0
   -1.3755   69.9191   65.7107 H   0  0  0  0  0  0  0  0  0  0  0  0
   -2.2229   68.7698   66.8064 H   0  0  0  0  0  0  0  0  0  0  0  0
   -0.8213   70.4978   67.9967 H   0  0  0  0  0  0  0  0  0  0  0  0
   -0.3679   68.7579   68.3376 H   0  0  0  0  0  0  0  0  0  0  0  0
    2.8607   71.3024   67.7126 H   0  0  0  0  0  0  0  0  0  0  0  0
    2.7814   69.9989   70.2728 H   0  0  0  0  0  0  0  0  0  0  0  0
    4.3568   70.4773   69.9291 H   0  0  0  0  0  0  0  0  0  0  0  0
    3.1146   71.6113   69.9291 H   0  0  0  0  0  0  0  0  0  0  0  0
    5.7757   70.8212   68.9519 H   0  0  0  0  0  0  0  0  0  0  0  0
    6.5276   70.2610   67.4198 H   0  0  0  0  0  0  0  0  0  0  0  0
    5.4563   71.7029   67.4198 H   0  0  0  0  0  0  0  0  0  0  0  0
    4.5772   68.8316   68.0751 H   0  0  0  0  0  0  0  0  0  0  0  0
    3.5999   68.7924   65.8727 H   0  0  0  0  0  0  0  0  0  0  0  0
    3.8611   70.5548   65.6441 H   0  0  0  0  0  0  0  0  0  0  0  0
    5.2629   69.4317   65.6441 H   0  0  0  0  0  0  0  0  0  0  0  0
  2  1  1  0
  3  2  1  0
  4  3  2  0
  5  4  1  0
  6  5  2  0
  6  2  1  0
  7  6  1  0
  8  7  1  0
  9  8  1  0
 10  8  2  0
 11 10  1  0
 11  5  1  0
 12 11  2  0
 13  1  1  0
 14 13  1  0
 15 14  1  0
 16 15  1  0
 17 16  1  0
 18 17  2  0
 19 17  1  0
 20 19  1  0
 22 19  1  0
 22 21  1  0
 23 22  1  0
  1 24  1  0
  1 25  1  0
  3 26  1  0
  7 27  1  0
  9 28  1  0
  9 29  1  0
 14 30  1  0
 14 31  1  0
 15 32  1  0
 15 33  1  0
 19 34  1  6
 20 35  1  0
 20 36  1  0
 20 37  1  0
 21 38  1  0
 21 39  1  0
 21 40  1  0
 22 41  1  0
 23 42  1  0
 23 43  1  0
 23 44  1  0
M  CHG  1  20   1
M  END
>  <score>  (1) 
-8.256

$$$$
=
     RDKit          3D

 44 45  0  0  0  0  0  0  0  0999 V2000
   -0.3630   68.8670   65.0870 C   0  0  0  0  0  0  0  0  0  0  0  0
    0.1310   68.8150   63.7260 N   0  0  0  0  0  0  0  0  0  0  0  0
   -0.3740   69.5110   62.6550 C   0  0  0  0  0  0  0  0  0  0  0  0
    0.4730   69.5340   61.6410 N   0  0  0  0  0  0  0  0  0  0  0  0
    1.5450   68.7840   62.0570 C   0  0  0  0  0  0  0  0  0  0  0  0
    1.3130   68.2900   63.3100 C   0  0  0  0  0  0  0  0  0  0  0  0
    2.2130   67.5650   63.9900 N   0  0  0  0  0  0  0  0  0  0  0  0
    3.4280   67.3880   63.3910 C   0  0  0  0  0  0  0  0  0  0  0  0
    4.3050   66.6780   64.1400 N   0  0  0  0  0  0  0  0  0  0  0  0
    3.8000   67.8970   62.2500 N   0  0  0  0  0  0  0  0  0  0  0  0
    2.8710   68.6100   61.4670 C   0  0  0  0  0  0  0  0  0  0  0  0
    3.2480   69.1960   60.4600 O   0  0  0  0  0  0  0  0  0  0  0  0
   -0.0430   67.6260   65.7410 O   0  0  0  0  0  0  0  0  0  0  0  0
    0.0210   67.7650   67.1680 C   0  0  0  0  0  0  0  0  0  0  0  0
    1.4600   67.5630   67.6490 C   0  0  0  0  0  0  0  0  0  0  0  0
    2.0840   68.7690   68.1550 O   0  0  0  0  0  0  0  0  0  0  0  0
    2.9540   69.4020   67.3290 C   0  0  0  0  0  0  0  0  0  0  0  0
    3.0760   69.2050   66.1260 O   0  0  0  0  0  0  0  0  0  0  0  0
    3.7980   70.4550   68.0660 C   0  0  1  0  0  0  0  0  0  0  0  0
    3.3540   70.5130   69.5130 N   0  0  0  0  0  4  0  0  0  0  0  0
    6.1060   70.8430   69.0990 C   0  0  0  0  0  0  0  0  0  0  0  0
    5.3070   70.1160   68.0080 C   0  0  0  0  0  0  0  0  0  0  0  0
    5.9200   70.4770   66.6480 C   0  0  0  0  0  0  0  0  0  0  0  0
    0.1138   69.7013   65.6223 H   0  0  0  0  0  0  0  0  0  0  0  0
   -1.4523   69.0199   65.0850 H   0  0  0  0  0  0  0  0  0  0  0  0
   -1.3636   69.9911   62.6428 H   0  0  0  0  0  0  0  0  0  0  0  0
    1.9998   67.1632   64.9141 H   0  0  0  0  0  0  0  0  0  0  0  0
    5.2515   66.4867   63.7816 H   0  0  0  0  0  0  0  0  0  0  0  0
    4.0255   66.3293   65.0680 H   0  0  0  0  0  0  0  0  0  0  0  0
   -0.3201   68.7715   67.4517 H   0  0  0  0  0  0  0  0  0  0  0  0
   -0.6256   67.0070   67.6343 H   0  0  0  0  0  0  0  0  0  0  0  0
    1.4544   66.8123   68.4530 H   0  0  0  0  0  0  0  0  0  0  0  0
    2.0468   67.2418   66.7758 H   0  0  0  0  0  0  0  0  0  0  0  0
    3.6486   71.4272   67.5735 H   0  0  0  0  0  0  0  0  0  0  0  0
    4.1732   70.4060   70.1281 H   0  0  0  0  0  0  0  0  0  0  0  0
    2.9024   71.4201   69.6975 H   0  0  0  0  0  0  0  0  0  0  0  0
    2.6845   69.7523   69.6975 H   0  0  0  0  0  0  0  0  0  0  0  0
    5.7517   70.5207   70.0892 H   0  0  0  0  0  0  0  0  0  0  0  0
    7.1738   70.6003   68.9947 H   0  0  0  0  0  0  0  0  0  0  0  0
    5.9649   71.9289   68.9947 H   0  0  0  0  0  0  0  0  0  0  0  0
    5.3716   69.0299   68.1696 H   0  0  0  0  0  0  0  0  0  0  0  0
    6.8583   71.0296   66.8038 H   0  0  0  0  0  0  0  0  0  0  0  0
    6.1263   69.5562   66.0827 H   0  0  0  0  0  0  0  0  0  0  0  0
    5.2148   71.1040   66.0827 H   0  0  0  0  0  0  0  0  0  0  0  0
  2  1  1  0
  3  2  1  0
  4  3  2  0
  5  4  1  0
  6  5  2  0
  6  2  1  0
  7  6  1  0
  8  7  1  0
  9  8  1  0
 10  8  2  0
 11 10  1  0
 11  5  1  0
 12 11  2  0
 13  1  1  0
 14 13  1  0
 15 14  1  0
 16 15  1  0
 17 16  1  0
 18 17  2  0
 19 17  1  0
 20 19  1  0
 22 19  1  0
 22 21  1  0
 23 22  1  0
  1 24  1  0
  1 25  1  0
  3 26  1  0
  7 27  1  0
  9 28  1  0
  9 29  1  0
 14 30  1  0
 14 31  1  0
 15 32  1  0
 15 33  1  0
 19 34  1  6
 20 35  1  0
 20 36  1  0
 20 37  1  0
 21 38  1  0
 21 39  1  0
 21 40  1  0
 22 41  1  0
 23 42  1  0
 23 43  1  0
 23 44  1  0
M  CHG  1  20   1
M  END
>  <score>  (2) 
-8.186

$$$$
=
     RDKit          3D

 44 45  0  0  0  0  0  0  0  0999 V2000
    2.5970   67.9490   63.2470 C   0  0  0  0  0  0  0  0  0  0  0  0
    1.2700   68.4570   63.5280 N   0  0  0  0  0  0  0  0  0  0  0  0
    0.2220   68.5180   62.6420 C   0  0  0  0  0  0  0  0  0  0  0  0
   -0.9330   68.6960   63.2590 N   0  0  0  0  0  0  0  0  0  0  0  0
   -0.6120   68.8030   64.5900 C   0  0  0  0  0  0  0  0  0  0  0  0
    0.7420   68.7190   64.7530 C   0  0  0  0  0  0  0  0  0  0  0  0
    1.3380   68.7370   65.9540 N   0  0  0  0  0  0  0  0  0  0  0  0
    0.5120   68.7820   67.0410 C   0  0  0  0  0  0  0  0  0  0  0  0
    1.1710   68.7640   68.2250 N   0  0  0  0  0  0  0  0  0  0  0  0
   -0.7910   68.7590   67.0130 N   0  0  0  0  0  0  0  0  0  0  0  0
   -1.4650   68.8060   65.7770 C   0  0  0  0  0  0  0  0  0  0  0  0
   -2.6800   68.6570   65.7410 O   0  0  0  0  0  0  0  0  0  0  0  0
    3.3170   68.9350   62.4880 O   0  0  0  0  0  0  0  0  0  0  0  0
    4.6950   69.0220   62.8790 C   0  0  0  0  0  0  0  0  0  0  0  0
    4.8360   68.7220   64.3740 C   0  0  0  0  0  0  0  0  0  0  0  0
    5.0140   69.9010   65.1950 O   0  0  0  0  0  0  0  0  0  0  0  0
    4.9400   69.7300   66.5380 C   0  0  0  0  0  0  0  0  0  0  0  0
    3.9500   69.3710   67.1640 O   0  0  0  0  0  0  0  0  0  0  0  0
    6.2790   70.0170   67.2390 C   0  0  1  0  0  0  0  0  0  0  0  0
    7.1010   70.9410   66.3630 N   0  0  0  0  0  4  0  0  0  0  0  0
    5.4680   72.0890   68.5020 C   0  0  0  0  0  0  0  0  0  0  0  0
    6.0660   70.6800   68.6210 C   0  0  0  0  0  0  0  0  0  0  0  0
    7.3780   70.7830   69.4110 C   0  0  0  0  0  0  0  0  0  0  0  0
    3.1251   67.7507   64.1914 H   0  0  0  0  0  0  0  0  0  0  0  0
    2.5262   67.0129   62.6736 H   0  0  0  0  0  0  0  0  0  0  0  0
    0.3310   68.4294   61.5510 H   0  0  0  0  0  0  0  0  0  0  0  0
    2.3632   68.7179   66.0516 H   0  0  0  0  0  0  0  0  0  0  0  0
    0.6429   68.7944   69.1088 H   0  0  0  0  0  0  0  0  0  0  0  0
    2.1999   68.7199   68.2411 H   0  0  0  0  0  0  0  0  0  0  0  0
    5.2834   68.2918   62.3040 H   0  0  0  0  0  0  0  0  0  0  0  0
    5.0632   70.0390   62.6789 H   0  0  0  0  0  0  0  0  0  0  0  0
    3.9277   68.2002   64.7096 H   0  0  0  0  0  0  0  0  0  0  0  0
    5.7427   68.1106   64.4927 H   0  0  0  0  0  0  0  0  0  0  0  0
    6.8013   69.0618   67.3968 H   0  0  0  0  0  0  0  0  0  0  0  0
    7.6603   71.5697   66.9570 H   0  0  0  0  0  0  0  0  0  0  0  0
    7.7290   70.3817   65.7683 H   0  0  0  0  0  0  0  0  0  0  0  0
    6.4723   71.4996   65.7683 H   0  0  0  0  0  0  0  0  0  0  0  0
    5.2938   72.4995   69.5076 H   0  0  0  0  0  0  0  0  0  0  0  0
    6.1676   72.7394   67.9566 H   0  0  0  0  0  0  0  0  0  0  0  0
    4.5141   72.0376   67.9566 H   0  0  0  0  0  0  0  0  0  0  0  0
    5.3594   70.0279   69.1553 H   0  0  0  0  0  0  0  0  0  0  0  0
    7.1593   70.7658   70.4889 H   0  0  0  0  0  0  0  0  0  0  0  0
    8.0278   69.9331   69.1551 H   0  0  0  0  0  0  0  0  0  0  0  0
    7.8872   71.7239   69.1551 H   0  0  0  0  0  0  0  0  0  0  0  0
  2  1  1  0
  3  2  1  0
  4  3  2  0
  5  4  1  0
  6  5  2  0
  6  2  1  0
  7  6  1  0
  8  7  1  0
  9  8  1  0
 10  8  2  0
 11 10  1  0
 11  5  1  0
 12 11  2  0
 13  1  1  0
 14 13  1  0
 15 14  1  0
 16 15  1  0
 17 16  1  0
 18 17  2  0
 19 17  1  0
 20 19  1  0
 22 19  1  0
 22 21  1  0
 23 22  1  0
  1 24  1  0
  1 25  1  0
  3 26  1  0
  7 27  1  0
  9 28  1  0
  9 29  1  0
 14 30  1  0
 14 31  1  0
 15 32  1  0
 15 33  1  0
 19 34  1  1
 20 35  1  0
 20 36  1  0
 20 37  1  0
 21 38  1  0
 21 39  1  0
 21 40  1  0
 22 41  1  0
 23 42  1  0
 23 43  1  0
 23 44  1  0
M  CHG  1  20   1
M  END
>  <score>  (3) 
-7.993

$$$$
=
     RDKit          3D

 44 45  0  0  0  0  0  0  0  0999 V2000
    1.7040   68.9860   67.8730 C   0  0  0  0  0  0  0  0  0  0  0  0
    2.7840   69.8810   68.2350 N   0  0  0  0  0  0  0  0  0  0  0  0
    2.9060   70.5640   69.4200 C   0  0  0  0  0  0  0  0  0  0  0  0
    4.1350   71.0170   69.6020 N   0  0  0  0  0  0  0  0  0  0  0  0
    4.8180   70.6540   68.4670 C   0  0  0  0  0  0  0  0  0  0  0  0
    3.9780   70.0130   67.6000 C   0  0  0  0  0  0  0  0  0  0  0  0
    4.3860   69.4970   66.4310 N   0  0  0  0  0  0  0  0  0  0  0  0
    5.7230   69.5860   66.1620 C   0  0  0  0  0  0  0  0  0  0  0  0
    6.0780   69.0180   64.9840 N   0  0  0  0  0  0  0  0  0  0  0  0
    6.6320   70.0780   66.9550 N   0  0  0  0  0  0  0  0  0  0  0  0
    6.2470   70.6910   68.1640 C   0  0  0  0  0  0  0  0  0  0  0  0
    7.1030   71.0390   68.9680 O   0  0  0  0  0  0  0  0  0  0  0  0
    1.5180   69.0410   66.4480 O   0  0  0  0  0  0  0  0  0  0  0  0
    0.5570   68.0780   65.9880 C   0  0  0  0  0  0  0  0  0  0  0  0
   -0.4010   68.7310   64.9880 C   0  0  0  0  0  0  0  0  0  0  0  0
   -0.2320   68.2680   63.6260 O   0  0  0  0  0  0  0  0  0  0  0  0
    0.3950   69.1080   62.7660 C   0  0  0  0  0  0  0  0  0  0  0  0
    0.0630   70.2600   62.5160 O   0  0  0  0  0  0  0  0  0  0  0  0
    1.6320   68.4640   62.1170 C   0  0  1  0  0  0  0  0  0  0  0  0
    1.9310   69.1800   60.8160 N   0  0  0  0  0  4  0  0  0  0  0  0
    4.1300   68.9870   62.2840 C   0  0  0  0  0  0  0  0  0  0  0  0
    2.8690   68.5500   63.0430 C   0  0  0  0  0  0  0  0  0  0  0  0
    3.1640   67.2080   63.7270 C   0  0  0  0  0  0  0  0  0  0  0  0
    1.9578   67.9588   68.1738 H   0  0  0  0  0  0  0  0  0  0  0  0
    0.7783   69.2895   68.3839 H   0  0  0  0  0  0  0  0  0  0  0  0
    2.0812   70.7159   70.1318 H   0  0  0  0  0  0  0  0  0  0  0  0
    3.7275   69.0576   65.7720 H   0  0  0  0  0  0  0  0  0  0  0  0
    7.0631   69.0287   64.6832 H   0  0  0  0  0  0  0  0  0  0  0  0
    5.3628   68.5755   64.3894 H   0  0  0  0  0  0  0  0  0  0  0  0
    1.0821   67.2445   65.4985 H   0  0  0  0  0  0  0  0  0  0  0  0
   -0.0184   67.7031   66.8473 H   0  0  0  0  0  0  0  0  0  0  0  0
   -1.4321   68.5126   65.3027 H   0  0  0  0  0  0  0  0  0  0  0  0
   -0.1786   69.8083   64.9892 H   0  0  0  0  0  0  0  0  0  0  0  0
    1.4158   67.4008   61.9358 H   0  0  0  0  0  0  0  0  0  0  0  0
    2.3202   70.1119   61.0185 H   0  0  0  0  0  0  0  0  0  0  0  0
    2.6141   68.6334   60.2724 H   0  0  0  0  0  0  0  0  0  0  0  0
    1.0620   69.2815   60.2724 H   0  0  0  0  0  0  0  0  0  0  0  0
    4.9156   69.2592   63.0042 H   0  0  0  0  0  0  0  0  0  0  0  0
    4.4830   68.1588   61.6520 H   0  0  0  0  0  0  0  0  0  0  0  0
    3.8948   69.8561   61.6520 H   0  0  0  0  0  0  0  0  0  0  0  0
    2.6179   69.3062   63.8013 H   0  0  0  0  0  0  0  0  0  0  0  0
    3.1352   67.3388   64.8188 H   0  0  0  0  0  0  0  0  0  0  0  0
    2.4069   66.4689   63.4262 H   0  0  0  0  0  0  0  0  0  0  0  0
    4.1613   66.8545   63.4262 H   0  0  0  0  0  0  0  0  0  0  0  0
  2  1  1  0
  3  2  1  0
  4  3  2  0
  5  4  1  0
  6  5  2  0
  6  2  1  0
  7  6  1  0
  8  7  1  0
  9  8  1  0
 10  8  2  0
 11 10  1  0
 11  5  1  0
 12 11  2  0
 13  1  1  0
 14 13  1  0
 15 14  1  0
 16 15  1  0
 17 16  1  0
 18 17  2  0
 19 17  1  0
 20 19  1  0
 22 19  1  0
 22 21  1  0
 23 22  1  0
  1 24  1  0
  1 25  1  0
  3 26  1  0
  7 27  1  0
  9 28  1  0
  9 29  1  0
 14 30  1  0
 14 31  1  0
 15 32  1  0
 15 33  1  0
 19 34  1  6
 20 35  1  0
 20 36  1  0
 20 37  1  0
 21 38  1  0
 21 39  1  0
 21 40  1  0
 22 41  1  0
 23 42  1  0
 23 43  1  0
 23 44  1  0
M  CHG  1  20   1
M  END
>  <score>  (4) 
-7.854

$$$$
=
     RDKit          3D

 44 45  0  0  0  0  0  0  0  0999 V2000
    0.8170   68.0700   66.0890 C   0  0  0  0  0  0  0  0  0  0  0  0
    1.5600   67.8840   64.8590 N   0  0  0  0  0  0  0  0  0  0  0  0
    1.8360   68.8520   63.9260 C   0  0  0  0  0  0  0  0  0  0  0  0
    2.8030   68.4820   63.1040 N   0  0  0  0  0  0  0  0  0  0  0  0
    3.1300   67.2060   63.4940 C   0  0  0  0  0  0  0  0  0  0  0  0
    2.3280   66.8130   64.5280 C   0  0  0  0  0  0  0  0  0  0  0  0
    2.4600   65.6310   65.1470 N   0  0  0  0  0  0  0  0  0  0  0  0
    3.4930   64.8390   64.7340 C   0  0  0  0  0  0  0  0  0  0  0  0
    3.5940   63.6750   65.4190 N   0  0  0  0  0  0  0  0  0  0  0  0
    4.3820   65.1510   63.8330 N   0  0  0  0  0  0  0  0  0  0  0  0
    4.2510   66.3520   63.1080 C   0  0  0  0  0  0  0  0  0  0  0  0
    5.1490   66.7080   62.3550 O   0  0  0  0  0  0  0  0  0  0  0  0
    1.2920   67.1240   67.0620 O   0  0  0  0  0  0  0  0  0  0  0  0
    1.1370   67.6030   68.4060 C   0  0  0  0  0  0  0  0  0  0  0  0
    0.5440   66.5010   69.2890 C   0  0  0  0  0  0  0  0  0  0  0  0
    1.5380   65.6810   69.9510 O   0  0  0  0  0  0  0  0  0  0  0  0
    1.1710   64.4170   70.2770 C   0  0  0  0  0  0  0  0  0  0  0  0
    0.0540   63.9340   70.1410 O   0  0  0  0  0  0  0  0  0  0  0  0
    2.3440   63.5950   70.8390 C   0  0  1  0  0  0  0  0  0  0  0  0
    1.8480   62.2060   71.1820 N   0  0  0  0  0  4  0  0  0  0  0  0
    3.3310   62.2870   68.8750 C   0  0  0  0  0  0  0  0  0  0  0  0
    3.5020   63.4860   69.8190 C   0  0  0  0  0  0  0  0  0  0  0  0
    4.8640   63.3550   70.5140 C   0  0  0  0  0  0  0  0  0  0  0  0
    0.9696   69.0933   66.4625 H   0  0  0  0  0  0  0  0  0  0  0  0
   -0.2562   67.9126   65.9060 H   0  0  0  0  0  0  0  0  0  0  0  0
    1.3153   69.8193   63.8690 H   0  0  0  0  0  0  0  0  0  0  0  0
    1.8161   65.3358   65.8948 H   0  0  0  0  0  0  0  0  0  0  0  0
    4.3401   63.0039   65.1869 H   0  0  0  0  0  0  0  0  0  0  0  0
    2.9247   63.4609   66.1721 H   0  0  0  0  0  0  0  0  0  0  0  0
    2.1193   67.8989   68.8029 H   0  0  0  0  0  0  0  0  0  0  0  0
    0.4590   68.4692   68.4050 H   0  0  0  0  0  0  0  0  0  0  0  0
   -0.0833   66.9740   70.0589 H   0  0  0  0  0  0  0  0  0  0  0  0
   -0.0297   65.8355   68.6272 H   0  0  0  0  0  0  0  0  0  0  0  0
    2.7274   64.1044   71.7354 H   0  0  0  0  0  0  0  0  0  0  0  0
    1.8095   62.0982   72.2056 H   0  0  0  0  0  0  0  0  0  0  0  0
    0.9065   62.0703   70.7868 H   0  0  0  0  0  0  0  0  0  0  0  0
    2.4906   61.5047   70.7868 H   0  0  0  0  0  0  0  0  0  0  0  0
    3.2002   61.3695   69.4676 H   0  0  0  0  0  0  0  0  0  0  0  0
    2.4460   62.4431   68.2406 H   0  0  0  0  0  0  0  0  0  0  0  0
    4.2243   62.1895   68.2406 H   0  0  0  0  0  0  0  0  0  0  0  0
    3.4697   64.4183   69.2362 H   0  0  0  0  0  0  0  0  0  0  0  0
    4.7219   63.3687   71.6047 H   0  0  0  0  0  0  0  0  0  0  0  0
    5.3372   62.4072   70.2177 H   0  0  0  0  0  0  0  0  0  0  0  0
    5.5092   64.1952   70.2177 H   0  0  0  0  0  0  0  0  0  0  0  0
  2  1  1  0
  3  2  1  0
  4  3  2  0
  5  4  1  0
  6  5  2  0
  6  2  1  0
  7  6  1  0
  8  7  1  0
  9  8  1  0
 10  8  2  0
 11 10  1  0
 11  5  1  0
 12 11  2  0
 13  1  1  0
 14 13  1  0
 15 14  1  0
 16 15  1  0
 17 16  1  0
 18 17  2  0
 19 17  1  0
 20 19  1  0
 22 19  1  0
 22 21  1  0
 23 22  1  0
  1 24  1  0
  1 25  1  0
  3 26  1  0
  7 27  1  0
  9 28  1  0
  9 29  1  0
 14 30  1  0
 14 31  1  0
 15 32  1  0
 15 33  1  0
 19 34  1  1
 20 35  1  0
 20 36  1  0
 20 37  1  0
 21 38  1  0
 21 39  1  0
 21 40  1  0
 22 41  1  0
 23 42  1  0
 23 43  1  0
 23 44  1  0
M  CHG  1  20   1
M  END
>  <score>  (5) 
-7.779

$$$$
=
     RDKit          3D

 44 45  0  0  0  0  0  0  0  0999 V2000
    1.5650   67.5660   65.4630 C   0  0  0  0  0  0  0  0  0  0  0  0
    1.7030   68.6120   66.4550 N   0  0  0  0  0  0  0  0  0  0  0  0
    0.7860   68.9320   67.4260 C   0  0  0  0  0  0  0  0  0  0  0  0
    1.3200   69.6740   68.3810 N   0  0  0  0  0  0  0  0  0  0  0  0
    2.6190   69.8800   67.9850 C   0  0  0  0  0  0  0  0  0  0  0  0
    2.8390   69.2840   66.7760 C   0  0  0  0  0  0  0  0  0  0  0  0
    4.0370   69.2760   66.1710 N   0  0  0  0  0  0  0  0  0  0  0  0
    5.0680   69.8500   66.8590 C   0  0  0  0  0  0  0  0  0  0  0  0
    6.2570   69.7810   66.2120 N   0  0  0  0  0  0  0  0  0  0  0  0
    5.0010   70.3550   68.0580 N   0  0  0  0  0  0  0  0  0  0  0  0
    3.7550   70.4460   68.7090 C   0  0  0  0  0  0  0  0  0  0  0  0
    3.7060   70.8000   69.8810 O   0  0  0  0  0  0  0  0  0  0  0  0
    2.6410   66.6270   65.6310 O   0  0  0  0  0  0  0  0  0  0  0  0
    2.6200   65.5920   64.6350 C   0  0  0  0  0  0  0  0  0  0  0  0
    4.0060   65.4490   64.0010 C   0  0  0  0  0  0  0  0  0  0  0  0
    4.2800   66.4240   62.9640 O   0  0  0  0  0  0  0  0  0  0  0  0
    4.8420   67.5940   63.3560 C   0  0  0  0  0  0  0  0  0  0  0  0
    5.7140   67.7240   64.2060 O   0  0  0  0  0  0  0  0  0  0  0  0
    4.2780   68.8000   62.5850 C   0  0  1  0  0  0  0  0  0  0  0  0
    5.3860   69.4090   61.7510 N   0  0  0  0  0  4  0  0  0  0  0  0
    3.2290   69.0130   60.2620 C   0  0  0  0  0  0  0  0  0  0  0  0
    3.1100   68.3860   61.6590 C   0  0  0  0  0  0  0  0  0  0  0  0
    1.7480   68.7840   62.2460 C   0  0  0  0  0  0  0  0  0  0  0  0
    0.6014   67.0528   65.5977 H   0  0  0  0  0  0  0  0  0  0  0  0
    1.6004   68.0001   64.4529 H   0  0  0  0  0  0  0  0  0  0  0  0
   -0.2657   68.6099   67.4109 H   0  0  0  0  0  0  0  0  0  0  0  0
    4.1716   68.8597   65.2386 H   0  0  0  0  0  0  0  0  0  0  0  0
    7.1017   70.1837   66.6425 H   0  0  0  0  0  0  0  0  0  0  0  0
    6.3159   69.3259   65.2899 H   0  0  0  0  0  0  0  0  0  0  0  0
    2.3342   64.6395   65.1051 H   0  0  0  0  0  0  0  0  0  0  0  0
    1.8909   65.8558   63.8547 H   0  0  0  0  0  0  0  0  0  0  0  0
    4.7622   65.5624   64.7918 H   0  0  0  0  0  0  0  0  0  0  0  0
    4.0390   64.4580   63.5248 H   0  0  0  0  0  0  0  0  0  0  0  0
    3.8927   69.5293   63.3128 H   0  0  0  0  0  0  0  0  0  0  0  0
    6.1058   69.8046   62.3726 H   0  0  0  0  0  0  0  0  0  0  0  0
    5.8079   68.6813   61.1566 H   0  0  0  0  0  0  0  0  0  0  0  0
    4.9978   70.1553   61.1566 H   0  0  0  0  0  0  0  0  0  0  0  0
    3.4333   70.0895   60.3594 H   0  0  0  0  0  0  0  0  0  0  0  0
    4.0519   68.5318   59.7130 H   0  0  0  0  0  0  0  0  0  0  0  0
    2.2871   68.8668   59.7130 H   0  0  0  0  0  0  0  0  0  0  0  0
    3.1738   67.2910   61.5755 H   0  0  0  0  0  0  0  0  0  0  0  0
    1.8033   68.7678   63.3445 H   0  0  0  0  0  0  0  0  0  0  0  0
    1.4844   69.7967   61.9070 H   0  0  0  0  0  0  0  0  0  0  0  0
    0.9806   68.0725   61.9070 H   0  0  0  0  0  0  0  0  0  0  0  0
  2  1  1  0
  3  2  1  0
  4  3  2  0
  5  4  1  0
  6  5  2  0
  6  2  1  0
  7  6  1  0
  8  7  1  0
  9  8  1  0
 10  8  2  0
 11 10  1  0
 11  5  1  0
 12 11  2  0
 13  1  1  0
 14 13  1  0
 15 14  1  0
 16 15  1  0
 17 16  1  0
 18 17  2  0
 19 17  1  0
 20 19  1  0
 22 19  1  0
 22 21  1  0
 23 22  1  0
  1 24  1  0
  1 25  1  0
  3 26  1  0
  7 27  1  0
  9 28  1  0
  9 29  1  0
 14 30  1  0
 14 31  1  0
 15 32  1  0
 15 33  1  0
 19 34  1  1
 20 35  1  0
 20 36  1  0
 20 37  1  0
 21 38  1  0
 21 39  1  0
 21 40  1  0
 22 41  1  0
 23 42  1  0
 23 43  1  0
 23 44  1  0
M  CHG  1  20   1
M  END
>  <score>  (6) 
-7.72

$$$$
=
     RDKit          3D

 44 45  0  0  0  0  0  0  0  0999 V2000
    0.2950   67.6660   65.9760 C   0  0  0  0  0  0  0  0  0  0  0  0
    1.1680   67.7200   64.8210 N   0  0  0  0  0  0  0  0  0  0  0  0
    1.4040   68.8210   64.0350 C   0  0  0  0  0  0  0  0  0  0  0  0
    2.4840   68.6690   63.2880 N   0  0  0  0  0  0  0  0  0  0  0  0
    2.9330   67.4010   63.5670 C   0  0  0  0  0  0  0  0  0  0  0  0
    2.0940   66.7940   64.4590 C   0  0  0  0  0  0  0  0  0  0  0  0
    2.3160   65.5680   64.9540 N   0  0  0  0  0  0  0  0  0  0  0  0
    3.4770   64.9580   64.5700 C   0  0  0  0  0  0  0  0  0  0  0  0
    3.6600   63.7380   65.1290 N   0  0  0  0  0  0  0  0  0  0  0  0
    4.3990   65.4790   63.8110 N   0  0  0  0  0  0  0  0  0  0  0  0
    4.1850   66.7370   63.2130 C   0  0  0  0  0  0  0  0  0  0  0  0
    5.0970   67.2840   62.6060 O   0  0  0  0  0  0  0  0  0  0  0  0
    1.0150   67.0760   67.0710 O   0  0  0  0  0  0  0  0  0  0  0  0
    0.9840   67.8980   68.2470 C   0  0  0  0  0  0  0  0  0  0  0  0
    1.7330   69.2090   67.9890 C   0  0  0  0  0  0  0  0  0  0  0  0
    3.1070   69.2000   68.4480 O   0  0  0  0  0  0  0  0  0  0  0  0
    3.6260   70.3860   68.8510 C   0  0  0  0  0  0  0  0  0  0  0  0
    3.3990   70.9460   69.9160 O   0  0  0  0  0  0  0  0  0  0  0  0
    4.5910   70.9840   67.8130 C   0  0  1  0  0  0  0  0  0  0  0  0
    5.5220   71.9530   68.5110 N   0  0  0  0  0  4  0  0  0  0  0  0
    6.9320   70.1930   67.1520 C   0  0  0  0  0  0  0  0  0  0  0  0
    5.4290   69.8850   67.1160 C   0  0  0  0  0  0  0  0  0  0  0  0
    5.0150   69.6960   65.6500 C   0  0  0  0  0  0  0  0  0  0  0  0
   -0.0229   68.6835   66.2475 H   0  0  0  0  0  0  0  0  0  0  0  0
   -0.5954   67.0629   65.7448 H   0  0  0  0  0  0  0  0  0  0  0  0
    0.7710   69.7206   64.0278 H   0  0  0  0  0  0  0  0  0  0  0  0
    1.6472   65.1103   65.5897 H   0  0  0  0  0  0  0  0  0  0  0  0
    4.5041   63.1911   64.9068 H   0  0  0  0  0  0  0  0  0  0  0  0
    2.9551   63.3571   65.7763 H   0  0  0  0  0  0  0  0  0  0  0  0
   -0.0610   68.1207   68.5084 H   0  0  0  0  0  0  0  0  0  0  0  0
    1.4694   67.3616   69.0757 H   0  0  0  0  0  0  0  0  0  0  0  0
    1.7308   69.4018   66.9060 H   0  0  0  0  0  0  0  0  0  0  0  0
    1.2112   69.9923   68.5584 H   0  0  0  0  0  0  0  0  0  0  0  0
    3.9972   71.4991   67.0435 H   0  0  0  0  0  0  0  0  0  0  0  0
    5.4230   71.8499   69.5310 H   0  0  0  0  0  0  0  0  0  0  0  0
    6.4946   71.7514   68.2384 H   0  0  0  0  0  0  0  0  0  0  0  0
    5.2817   72.9168   68.2384 H   0  0  0  0  0  0  0  0  0  0  0  0
    7.2673   70.2617   68.1974 H   0  0  0  0  0  0  0  0  0  0  0  0
    7.4833   69.3892   66.6422 H   0  0  0  0  0  0  0  0  0  0  0  0
    7.1227   71.1489   66.6422 H   0  0  0  0  0  0  0  0  0  0  0  0
    5.2317   68.9616   67.6803 H   0  0  0  0  0  0  0  0  0  0  0  0
    4.0151   69.2395   65.6073 H   0  0  0  0  0  0  0  0  0  0  0  0
    4.9936   70.6736   65.1461 H   0  0  0  0  0  0  0  0  0  0  0  0
    5.7396   69.0395   65.1461 H   0  0  0  0  0  0  0  0  0  0  0  0
  2  1  1  0
  3  2  1  0
  4  3  2  0
  5  4  1  0
  6  5  2  0
  6  2  1  0
  7  6  1  0
  8  7  1  0
  9  8  1  0
 10  8  2  0
 11 10  1  0
 11  5  1  0
 12 11  2  0
 13  1  1  0
 14 13  1  0
 15 14  1  0
 16 15  1  0
 17 16  1  0
 18 17  2  0
 19 17  1  0
 20 19  1  0
 22 19  1  0
 22 21  1  0
 23 22  1  0
  1 24  1  0
  1 25  1  0
  3 26  1  0
  7 27  1  0
  9 28  1  0
  9 29  1  0
 14 30  1  0
 14 31  1  0
 15 32  1  0
 15 33  1  0
 19 34  1  6
 20 35  1  0
 20 36  1  0
 20 37  1  0
 21 38  1  0
 21 39  1  0
 21 40  1  0
 22 41  1  0
 23 42  1  0
 23 43  1  0
 23 44  1  0
M  CHG  1  20   1
M  END
>  <score>  (7) 
-7.656

$$$$
=
     RDKit          3D

 44 45  0  0  0  0  0  0  0  0999 V2000
    0.3880   64.2760   71.2400 C   0  0  0  0  0  0  0  0  0  0  0  0
    1.5970   63.5310   71.5270 N   0  0  0  0  0  0  0  0  0  0  0  0
    1.8770   62.8610   72.6940 C   0  0  0  0  0  0  0  0  0  0  0  0
    2.8720   62.0050   72.5420 N   0  0  0  0  0  0  0  0  0  0  0  0
    3.2810   62.1630   71.2400 C   0  0  0  0  0  0  0  0  0  0  0  0
    2.5440   63.1410   70.6340 C   0  0  0  0  0  0  0  0  0  0  0  0
    2.6880   63.4720   69.3430 N   0  0  0  0  0  0  0  0  0  0  0  0
    3.5820   62.7320   68.6220 C   0  0  0  0  0  0  0  0  0  0  0  0
    3.6580   63.0920   67.3180 N   0  0  0  0  0  0  0  0  0  0  0  0
    4.2630   61.7130   69.0630 N   0  0  0  0  0  0  0  0  0  0  0  0
    4.1960   61.3650   70.4270 C   0  0  0  0  0  0  0  0  0  0  0  0
    4.7310   60.3360   70.8180 O   0  0  0  0  0  0  0  0  0  0  0  0
    0.5730   64.9960   70.0090 O   0  0  0  0  0  0  0  0  0  0  0  0
    0.6690   66.4130   70.2170 C   0  0  0  0  0  0  0  0  0  0  0  0
    0.9080   67.1230   68.8810 C   0  0  0  0  0  0  0  0  0  0  0  0
   -0.0260   66.7440   67.8400 O   0  0  0  0  0  0  0  0  0  0  0  0
    0.0850   67.3890   66.6530 C   0  0  0  0  0  0  0  0  0  0  0  0
   -0.8030   68.0150   66.0890 O   0  0  0  0  0  0  0  0  0  0  0  0
    1.5000   67.2790   66.0580 C   0  0  1  0  0  0  0  0  0  0  0  0
    1.4690   66.3000   64.9020 N   0  0  0  0  0  4  0  0  0  0  0  0
    2.6190   68.5580   64.1470 C   0  0  0  0  0  0  0  0  0  0  0  0
    2.0120   68.6490   65.5550 C   0  0  0  0  0  0  0  0  0  0  0  0
    3.0730   69.2410   66.4930 C   0  0  0  0  0  0  0  0  0  0  0  0
   -0.4596   63.5821   71.1395 H   0  0  0  0  0  0  0  0  0  0  0  0
    0.1776   64.9800   72.0586 H   0  0  0  0  0  0  0  0  0  0  0  0
    1.3380   63.0184   73.6399 H   0  0  0  0  0  0  0  0  0  0  0  0
    2.1534   64.2428   68.9175 H   0  0  0  0  0  0  0  0  0  0  0  0
    4.3021   62.5979   66.6840 H   0  0  0  0  0  0  0  0  0  0  0  0
    3.0717   63.8598   66.9607 H   0  0  0  0  0  0  0  0  0  0  0  0
   -0.2674   66.7802   70.6624 H   0  0  0  0  0  0  0  0  0  0  0  0
    1.5108   66.6227   70.8933 H   0  0  0  0  0  0  0  0  0  0  0  0
    0.8229   68.2074   69.0448 H   0  0  0  0  0  0  0  0  0  0  0  0
    1.9092   66.8257   68.5357 H   0  0  0  0  0  0  0  0  0  0  0  0
    2.1837   66.9296   66.8457 H   0  0  0  0  0  0  0  0  0  0  0  0
    1.4385   65.3376   65.2678 H   0  0  0  0  0  0  0  0  0  0  0  0
    0.6331   66.4750   64.3262 H   0  0  0  0  0  0  0  0  0  0  0  0
    2.3143   66.4218   64.3262 H   0  0  0  0  0  0  0  0  0  0  0  0
    3.7041   68.3953   64.2253 H   0  0  0  0  0  0  0  0  0  0  0  0
    2.1607   67.7185   63.6037 H   0  0  0  0  0  0  0  0  0  0  0  0
    2.4270   69.4950   63.6037 H   0  0  0  0  0  0  0  0  0  0  0  0
    1.1282   69.3035   65.5320 H   0  0  0  0  0  0  0  0  0  0  0  0
    2.7730   69.0736   67.5380 H   0  0  0  0  0  0  0  0  0  0  0  0
    4.0408   68.7525   66.3066 H   0  0  0  0  0  0  0  0  0  0  0  0
    3.1656   70.3211   66.3066 H   0  0  0  0  0  0  0  0  0  0  0  0
  2  1  1  0
  3  2  1  0
  4  3  2  0
  5  4  1  0
  6  5  2  0
  6  2  1  0
  7  6  1  0
  8  7  1  0
  9  8  1  0
 10  8  2  0
 11 10  1  0
 11  5  1  0
 12 11  2  0
 13  1  1  0
 14 13  1  0
 15 14  1  0
 16 15  1  0
 17 16  1  0
 18 17  2  0
 19 17  1  0
 20 19  1  0
 22 19  1  0
 22 21  1  0
 23 22  1  0
  1 24  1  0
  1 25  1  0
  3 26  1  0
  7 27  1  0
  9 28  1  0
  9 29  1  0
 14 30  1  0
 14 31  1  0
 15 32  1  0
 15 33  1  0
 19 34  1  1
 20 35  1  0
 20 36  1  0
 20 37  1  0
 21 38  1  0
 21 39  1  0
 21 40  1  0
 22 41  1  0
 23 42  1  0
 23 43  1  0
 23 44  1  0
M  CHG  1  20   1
M  END
>  <score>  (8) 
-7.622

$$$$
=
     RDKit          3D

 44 45  0  0  0  0  0  0  0  0999 V2000
    1.1160   67.7270   68.3500 C   0  0  0  0  0  0  0  0  0  0  0  0
    1.0170   68.2800   67.0150 N   0  0  0  0  0  0  0  0  0  0  0  0
    2.0340   68.3660   66.0960 C   0  0  0  0  0  0  0  0  0  0  0  0
    1.5770   68.5880   64.8760 N   0  0  0  0  0  0  0  0  0  0  0  0
    0.2160   68.6970   65.0220 C   0  0  0  0  0  0  0  0  0  0  0  0
   -0.1250   68.5720   66.3390 C   0  0  0  0  0  0  0  0  0  0  0  0
   -1.3950   68.5830   66.7700 N   0  0  0  0  0  0  0  0  0  0  0  0
   -2.3630   68.6650   65.8100 C   0  0  0  0  0  0  0  0  0  0  0  0
   -3.6230   68.6380   66.3050 N   0  0  0  0  0  0  0  0  0  0  0  0
   -2.1630   68.6840   64.5220 N   0  0  0  0  0  0  0  0  0  0  0  0
   -0.8470   68.7400   64.0200 C   0  0  0  0  0  0  0  0  0  0  0  0
   -0.6510   68.6300   62.8160 O   0  0  0  0  0  0  0  0  0  0  0  0
    0.3830   66.4910   68.3930 O   0  0  0  0  0  0  0  0  0  0  0  0
   -0.0530   66.1630   69.7200 C   0  0  0  0  0  0  0  0  0  0  0  0
    1.1400   65.7110   70.5660 C   0  0  0  0  0  0  0  0  0  0  0  0
    1.9430   64.6780   69.9440 O   0  0  0  0  0  0  0  0  0  0  0  0
    2.0780   63.5130   70.6240 C   0  0  0  0  0  0  0  0  0  0  0  0
    1.8640   63.3490   71.8180 O   0  0  0  0  0  0  0  0  0  0  0  0
    2.5210   62.3540   69.7150 C   0  0  1  0  0  0  0  0  0  0  0  0
    3.2660   62.9230   68.5250 N   0  0  0  0  0  4  0  0  0  0  0  0
    4.8130   61.9740   70.7870 C   0  0  0  0  0  0  0  0  0  0  0  0
    3.4410   61.3630   70.4670 C   0  0  0  0  0  0  0  0  0  0  0  0
    3.6690   60.0750   69.6640 C   0  0  0  0  0  0  0  0  0  0  0  0
    2.1718   67.5399   68.5957 H   0  0  0  0  0  0  0  0  0  0  0  0
    0.6989   68.4355   69.0808 H   0  0  0  0  0  0  0  0  0  0  0  0
    3.1004   68.2626   66.3453 H   0  0  0  0  0  0  0  0  0  0  0  0
   -1.6280   68.5323   67.7720 H   0  0  0  0  0  0  0  0  0  0  0  0
   -4.4287   68.6940   65.6658 H   0  0  0  0  0  0  0  0  0  0  0  0
   -3.7757   68.5615   67.3207 H   0  0  0  0  0  0  0  0  0  0  0  0
   -0.5124   67.0493   70.1821 H   0  0  0  0  0  0  0  0  0  0  0  0
   -0.7883   65.3466   69.6672 H   0  0  0  0  0  0  0  0  0  0  0  0
    1.7827   66.5839   70.7527 H   0  0  0  0  0  0  0  0  0  0  0  0
    0.7302   65.2824   71.4925 H   0  0  0  0  0  0  0  0  0  0  0  0
    1.6252   61.8057   69.3880 H   0  0  0  0  0  0  0  0  0  0  0  0
    4.0411   63.5150   68.8562 H   0  0  0  0  0  0  0  0  0  0  0  0
    3.6422   62.1521   67.9548 H   0  0  0  0  0  0  0  0  0  0  0  0
    2.6213   63.4888   67.9548 H   0  0  0  0  0  0  0  0  0  0  0  0
    4.9432   62.0320   71.8777 H   0  0  0  0  0  0  0  0  0  0  0  0
    5.6047   61.3434   70.3562 H   0  0  0  0  0  0  0  0  0  0  0  0
    4.8739   62.9843   70.3562 H   0  0  0  0  0  0  0  0  0  0  0  0
    2.9167   61.1296   71.4054 H   0  0  0  0  0  0  0  0  0  0  0  0
    3.8180   59.2330   70.3560 H   0  0  0  0  0  0  0  0  0  0  0  0
    2.7918   59.8779   69.0303 H   0  0  0  0  0  0  0  0  0  0  0  0
    4.5606   60.1910   69.0303 H   0  0  0  0  0  0  0  0  0  0  0  0
  2  1  1  0
  3  2  1  0
  4  3  2  0
  5  4  1  0
  6  5  2  0
  6  2  1  0
  7  6  1  0
  8  7  1  0
  9  8  1  0
 10  8  2  0
 11 10  1  0
 11  5  1  0
 12 11  2  0
 13  1  1  0
 14 13  1  0
 15 14  1  0
 16 15  1  0
 17 16  1  0
 18 17  2  0
 19 17  1  0
 20 19  1  0
 22 19  1  0
 22 21  1  0
 23 22  1  0
  1 24  1  0
  1 25  1  0
  3 26  1  0
  7 27  1  0
  9 28  1  0
  9 29  1  0
 14 30  1  0
 14 31  1  0
 15 32  1  0
 15 33  1  0
 19 34  1  6
 20 35  1  0
 20 36  1  0
 20 37  1  0
 21 38  1  0
 21 39  1  0
 21 40  1  0
 22 41  1  0
 23 42  1  0
 23 43  1  0
 23 44  1  0
M  CHG  1  20   1
M  END
>  <score>  (9) 
-7.572

$$$$
