=
     RDKit          3D

 51 54  0  0  0  0  0  0  0  0999 V2000
   -0.0920   57.4590   75.2090 C   0  0  2  0  0  0  0  0  0  0  0  0
   -1.4410   58.2240   75.3650 C   0  0  0  0  0  0  0  0  0  0  0  0
   -1.3070   59.5390   74.5610 C   0  0  0  0  0  0  0  0  0  0  0  0
   -0.0080   59.3520   73.7920 C   0  0  2  0  0  0  0  0  0  0  0  0
    0.8970   58.5870   74.7890 C   0  0  1  0  0  0  0  0  0  0  0  0
    1.2790   59.4160   76.0590 C   0  0  0  0  0  0  0  0  0  0  0  0
    2.2360   58.1890   74.1230 C   0  0  0  0  0  0  0  0  0  0  0  0
    2.3930   58.5770   72.6440 C   0  0  0  0  0  0  0  0  0  0  0  0
    1.7640   59.9230   72.1710 C   0  0  1  0  0  0  0  0  0  0  0  0
    0.7490   60.5210   73.1860 C   0  0  1  0  0  0  0  0  0  0  0  0
   -0.1120   61.5650   72.4810 C   0  0  0  0  0  0  0  0  0  0  0  0
    0.7790   62.6960   71.9620 C   0  0  0  0  0  0  0  0  0  0  0  0
    1.9200   62.2040   71.0920 C   0  0  0  0  0  0  0  0  0  0  0  0
    2.1610   62.8230   69.9220 C   0  0  0  0  0  0  0  0  0  0  0  0
    3.3040   62.4530   69.0570 C   0  0  0  0  0  0  0  0  0  0  0  0
    3.4700   63.0450   67.9920 O   0  0  0  0  0  0  0  0  0  0  0  0
    4.2700   61.4150   69.5600 C   0  0  0  0  0  0  0  0  0  0  0  0
    3.5530   60.3870   70.4240 C   0  0  0  0  0  0  0  0  0  0  0  0
    2.7470   61.0080   71.6040 C   0  0  2  0  0  0  0  0  0  0  0  0
    3.7300   61.4950   72.6890 C   0  0  0  0  0  0  0  0  0  0  0  0
   -0.3100   55.5090   73.3810 C   0  0  0  0  0  0  0  0  0  0  0  0
   -0.2180   56.3820   74.2030 C   0  0  0  0  0  0  0  0  0  0  0  0
    0.2780   56.8630   76.4440 O   0  0  0  0  0  0  0  0  0  0  0  0
   -2.2677   57.6186   74.9650 H   0  0  0  0  0  0  0  0  0  0  0  0
   -1.6569   58.4299   76.4238 H   0  0  0  0  0  0  0  0  0  0  0  0
   -2.1561   59.6683   73.8737 H   0  0  0  0  0  0  0  0  0  0  0  0
   -1.3023   60.4342   75.2002 H   0  0  0  0  0  0  0  0  0  0  0  0
   -0.2940   58.8537   72.8540 H   0  0  0  0  0  0  0  0  0  0  0  0
    1.0161   58.8455   76.9620 H   0  0  0  0  0  0  0  0  0  0  0  0
    2.3605   59.6169   76.0541 H   0  0  0  0  0  0  0  0  0  0  0  0
    0.7291   60.3687   76.0541 H   0  0  0  0  0  0  0  0  0  0  0  0
    3.0486   58.6715   74.6859 H   0  0  0  0  0  0  0  0  0  0  0  0
    2.2642   57.0896   74.1464 H   0  0  0  0  0  0  0  0  0  0  0  0
    3.4711   58.6268   72.4313 H   0  0  0  0  0  0  0  0  0  0  0  0
    1.8341   57.8042   72.0958 H   0  0  0  0  0  0  0  0  0  0  0  0
    1.2005   59.6054   71.2813 H   0  0  0  0  0  0  0  0  0  0  0  0
    1.2240   61.0656   74.0153 H   0  0  0  0  0  0  0  0  0  0  0  0
   -0.6385   61.0963   71.6366 H   0  0  0  0  0  0  0  0  0  0  0  0
   -0.8467   61.9736   73.1904 H   0  0  0  0  0  0  0  0  0  0  0  0
    0.1597   63.3857   71.3698 H   0  0  0  0  0  0  0  0  0  0  0  0
    1.2244   63.1905   72.8378 H   0  0  0  0  0  0  0  0  0  0  0  0
    1.4872   63.6298   69.5978 H   0  0  0  0  0  0  0  0  0  0  0  0
    4.7324   60.9058   68.7015 H   0  0  0  0  0  0  0  0  0  0  0  0
    5.0397   61.9130   70.1679 H   0  0  0  0  0  0  0  0  0  0  0  0
    2.8556   59.8241   69.7862 H   0  0  0  0  0  0  0  0  0  0  0  0
    4.3286   59.7461   70.8687 H   0  0  0  0  0  0  0  0  0  0  0  0
    3.3101   61.2870   73.6842 H   0  0  0  0  0  0  0  0  0  0  0  0
    4.6891   60.9678   72.5782 H   0  0  0  0  0  0  0  0  0  0  0  0
    3.8916   62.5774   72.5782 H   0  0  0  0  0  0  0  0  0  0  0  0
   -0.3942   54.7105   72.6291 H   0  0  0  0  0  0  0  0  0  0  0  0
   -0.0641   57.4141   77.1919 H   0  0  0  0  0  0  0  0  0  0  0  0
  2  1  1  0
  3  2  1  0
  4  3  1  0
  5  4  1  0
  5  1  1  0
  5  6  1  1
  7  5  1  0
  8  7  1  0
  9  8  1  0
 10  9  1  0
 10  4  1  0
 11 10  1  0
 12 11  1  0
 13 12  1  0
 14 13  2  0
 15 14  1  0
 16 15  2  0
 17 15  1  0
 18 17  1  0
 19  9  1  0
 19 18  1  0
 19 13  1  0
 19 20  1  1
 22 21  3  0
  1 22  1  6
 23  1  1  0
  2 24  1  0
  2 25  1  0
  3 26  1  0
  3 27  1  0
  4 28  1  6
  6 29  1  0
  6 30  1  0
  6 31  1  0
  7 32  1  0
  7 33  1  0
  8 34  1  0
  8 35  1  0
  9 36  1  6
 10 37  1  1
 11 38  1  0
 11 39  1  0
 12 40  1  0
 12 41  1  0
 14 42  1  0
 17 43  1  0
 17 44  1  0
 18 45  1  0
 18 46  1  0
 20 47  1  0
 20 48  1  0
 20 49  1  0
 21 50  1  0
 23 51  1  0
M  END
>  <score>  (1) 
-8.691

$$$$
=
     RDKit          3D

 51 54  0  0  0  0  0  0  0  0999 V2000
    4.0110   62.8680   70.5040 C   0  0  2  0  0  0  0  0  0  0  0  0
    4.1410   62.1130   69.1460 C   0  0  0  0  0  0  0  0  0  0  0  0
    3.7360   60.6430   69.4100 C   0  0  0  0  0  0  0  0  0  0  0  0
    3.1650   60.6810   70.8190 C   0  0  2  0  0  0  0  0  0  0  0  0
    4.0620   61.7120   71.5470 C   0  0  1  0  0  0  0  0  0  0  0  0
    5.5480   61.2520   71.7110 C   0  0  0  0  0  0  0  0  0  0  0  0
    3.5410   61.9830   72.9790 C   0  0  0  0  0  0  0  0  0  0  0  0
    2.2580   61.2370   73.3790 C   0  0  0  0  0  0  0  0  0  0  0  0
    2.0550   59.7890   72.8360 C   0  0  1  0  0  0  0  0  0  0  0  0
    3.0130   59.4290   71.6650 C   0  0  1  0  0  0  0  0  0  0  0  0
    2.4720   58.2040   70.9310 C   0  0  0  0  0  0  0  0  0  0  0  0
    2.4140   57.0170   71.8950 C   0  0  0  0  0  0  0  0  0  0  0  0
    1.6420   57.3170   73.1660 C   0  0  0  0  0  0  0  0  0  0  0  0
    0.7260   56.4310   73.5970 C   0  0  0  0  0  0  0  0  0  0  0  0
   -0.0090   56.6140   74.8690 C   0  0  0  0  0  0  0  0  0  0  0  0
   -0.8430   55.7780   75.2090 O   0  0  0  0  0  0  0  0  0  0  0  0
    0.3570   57.7860   75.7390 C   0  0  0  0  0  0  0  0  0  0  0  0
    0.7990   58.9700   74.8900 C   0  0  0  0  0  0  0  0  0  0  0  0
    1.9530   58.6380   73.8980 C   0  0  2  0  0  0  0  0  0  0  0  0
    3.2710   58.4850   74.6860 C   0  0  0  0  0  0  0  0  0  0  0  0
    1.7320   64.2780   70.5970 C   0  0  0  0  0  0  0  0  0  0  0  0
    2.7540   63.6470   70.5490 C   0  0  0  0  0  0  0  0  0  0  0  0
    5.0920   63.7740   70.6640 O   0  0  0  0  0  0  0  0  0  0  0  0
    3.4710   62.5617   68.3978 H   0  0  0  0  0  0  0  0  0  0  0  0
    5.1680   62.1752   68.7570 H   0  0  0  0  0  0  0  0  0  0  0  0
    2.9776   60.3080   68.6871 H   0  0  0  0  0  0  0  0  0  0  0  0
    4.5768   59.9413   69.3067 H   0  0  0  0  0  0  0  0  0  0  0  0
    2.0966   60.9105   70.6931 H   0  0  0  0  0  0  0  0  0  0  0  0
    5.7925   61.1763   72.7808 H   0  0  0  0  0  0  0  0  0  0  0  0
    5.6827   60.2701   71.2338 H   0  0  0  0  0  0  0  0  0  0  0  0
    6.2139   61.9861   71.2338 H   0  0  0  0  0  0  0  0  0  0  0  0
    4.3329   61.6946   73.6859 H   0  0  0  0  0  0  0  0  0  0  0  0
    3.2840   63.0522   73.0049 H   0  0  0  0  0  0  0  0  0  0  0  0
    2.2414   61.1801   74.4774 H   0  0  0  0  0  0  0  0  0  0  0  0
    1.4460   61.8197   72.9195 H   0  0  0  0  0  0  0  0  0  0  0  0
    1.0346   59.8437   72.4288 H   0  0  0  0  0  0  0  0  0  0  0  0
    4.0205   59.1352   71.9947 H   0  0  0  0  0  0  0  0  0  0  0  0
    1.4616   58.4194   70.5531 H   0  0  0  0  0  0  0  0  0  0  0  0
    3.1342   57.9596   70.0874 H   0  0  0  0  0  0  0  0  0  0  0  0
    1.9289   56.1734   71.3821 H   0  0  0  0  0  0  0  0  0  0  0  0
    3.4481   56.7828   72.1880 H   0  0  0  0  0  0  0  0  0  0  0  0
    0.5163   55.5417   72.9844 H   0  0  0  0  0  0  0  0  0  0  0  0
   -0.5181   58.0781   76.3380 H   0  0  0  0  0  0  0  0  0  0  0  0
    1.1888   57.4922   76.3960 H   0  0  0  0  0  0  0  0  0  0  0  0
   -0.0663   59.3224   74.3095 H   0  0  0  0  0  0  0  0  0  0  0  0
    1.1822   59.7344   75.5820 H   0  0  0  0  0  0  0  0  0  0  0  0
    3.0581   58.5097   75.7649 H   0  0  0  0  0  0  0  0  0  0  0  0
    3.7436   57.5260   74.4274 H   0  0  0  0  0  0  0  0  0  0  0  0
    3.9507   59.3103   74.4274 H   0  0  0  0  0  0  0  0  0  0  0  0
    0.7968   64.8554   70.6409 H   0  0  0  0  0  0  0  0  0  0  0  0
    5.2627   63.9170   71.6286 H   0  0  0  0  0  0  0  0  0  0  0  0
  2  1  1  0
  3  2  1  0
  4  3  1  0
  5  4  1  0
  5  1  1  0
  5  6  1  1
  7  5  1  0
  8  7  1  0
  9  8  1  0
 10  9  1  0
 10  4  1  0
 11 10  1  0
 12 11  1  0
 13 12  1  0
 14 13  2  0
 15 14  1  0
 16 15  2  0
 17 15  1  0
 18 17  1  0
 19  9  1  0
 19 18  1  0
 19 13  1  0
 19 20  1  1
 22 21  3  0
  1 22  1  6
 23  1  1  0
  2 24  1  0
  2 25  1  0
  3 26  1  0
  3 27  1  0
  4 28  1  6
  6 29  1  0
  6 30  1  0
  6 31  1  0
  7 32  1  0
  7 33  1  0
  8 34  1  0
  8 35  1  0
  9 36  1  6
 10 37  1  1
 11 38  1  0
 11 39  1  0
 12 40  1  0
 12 41  1  0
 14 42  1  0
 17 43  1  0
 17 44  1  0
 18 45  1  0
 18 46  1  0
 20 47  1  0
 20 48  1  0
 20 49  1  0
 21 50  1  0
 23 51  1  0
M  END
>  <score>  (2) 
-8.511

$$$$
=
     RDKit          3D

 51 54  0  0  0  0  0  0  0  0999 V2000
    3.8730   61.2010   70.9860 C   0  0  2  0  0  0  0  0  0  0  0  0
    4.4030   59.7380   70.9000 C   0  0  0  0  0  0  0  0  0  0  0  0
    3.4460   58.8640   71.7450 C   0  0  0  0  0  0  0  0  0  0  0  0
    2.2940   59.8050   72.0620 C   0  0  2  0  0  0  0  0  0  0  0  0
    2.9900   61.1730   72.2700 C   0  0  1  0  0  0  0  0  0  0  0  0
    3.9270   61.2220   73.5210 C   0  0  0  0  0  0  0  0  0  0  0  0
    1.9460   62.2970   72.4760 C   0  0  0  0  0  0  0  0  0  0  0  0
    0.4720   61.8670   72.3990 C   0  0  0  0  0  0  0  0  0  0  0  0
    0.0910   60.4630   72.9590 C   0  0  1  0  0  0  0  0  0  0  0  0
    1.3170   59.5370   73.1940 C   0  0  1  0  0  0  0  0  0  0  0  0
    0.8400   58.0920   73.3190 C   0  0  0  0  0  0  0  0  0  0  0  0
   -0.0990   57.9680   74.5210 C   0  0  0  0  0  0  0  0  0  0  0  0
   -1.2500   58.9550   74.4830 C   0  0  0  0  0  0  0  0  0  0  0  0
   -2.4970   58.5130   74.7280 C   0  0  0  0  0  0  0  0  0  0  0  0
   -3.6590   59.4280   74.7880 C   0  0  0  0  0  0  0  0  0  0  0  0
   -4.7780   58.9680   75.0050 O   0  0  0  0  0  0  0  0  0  0  0  0
   -3.4080   60.9060   74.6600 C   0  0  0  0  0  0  0  0  0  0  0  0
   -2.2230   61.1730   73.7420 C   0  0  0  0  0  0  0  0  0  0  0  0
   -0.9210   60.4270   74.1590 C   0  0  2  0  0  0  0  0  0  0  0  0
   -0.3270   61.1030   75.4130 C   0  0  0  0  0  0  0  0  0  0  0  0
    2.5170   61.8510   68.7660 C   0  0  0  0  0  0  0  0  0  0  0  0
    3.1210   61.5550   69.7620 C   0  0  0  0  0  0  0  0  0  0  0  0
    4.9590   62.1070   71.1100 O   0  0  0  0  0  0  0  0  0  0  0  0
    4.4034   59.3965   69.8544 H   0  0  0  0  0  0  0  0  0  0  0  0
    5.4345   59.6697   71.2760 H   0  0  0  0  0  0  0  0  0  0  0  0
    3.0964   57.9942   71.1695 H   0  0  0  0  0  0  0  0  0  0  0  0
    3.9241   58.4527   72.6462 H   0  0  0  0  0  0  0  0  0  0  0  0
    1.5900   59.6950   71.2240 H   0  0  0  0  0  0  0  0  0  0  0  0
    3.3182   61.1902   74.4366 H   0  0  0  0  0  0  0  0  0  0  0  0
    4.6079   60.3582   73.5032 H   0  0  0  0  0  0  0  0  0  0  0  0
    4.5141   62.1521   73.5032 H   0  0  0  0  0  0  0  0  0  0  0  0
    2.1170   62.7378   73.4692 H   0  0  0  0  0  0  0  0  0  0  0  0
    2.0953   62.9983   71.6418 H   0  0  0  0  0  0  0  0  0  0  0  0
   -0.1159   62.6120   72.9552 H   0  0  0  0  0  0  0  0  0  0  0  0
    0.2602   61.8007   71.3216 H   0  0  0  0  0  0  0  0  0  0  0  0
   -0.4909   60.0409   72.1264 H   0  0  0  0  0  0  0  0  0  0  0  0
    1.8471   59.7386   74.1365 H   0  0  0  0  0  0  0  0  0  0  0  0
    0.3039   57.8021   72.4033 H   0  0  0  0  0  0  0  0  0  0  0  0
    1.7071   57.4302   73.4608 H   0  0  0  0  0  0  0  0  0  0  0  0
   -0.5126   56.9488   74.5382 H   0  0  0  0  0  0  0  0  0  0  0  0
    0.4919   58.1888   75.4222 H   0  0  0  0  0  0  0  0  0  0  0  0
   -2.6582   57.4368   74.8889 H   0  0  0  0  0  0  0  0  0  0  0  0
   -4.3038   61.3897   74.2433 H   0  0  0  0  0  0  0  0  0  0  0  0
   -3.1826   61.3141   75.6563 H   0  0  0  0  0  0  0  0  0  0  0  0
   -2.4942   60.8541   72.7248 H   0  0  0  0  0  0  0  0  0  0  0  0
   -2.0076   62.2499   73.8037 H   0  0  0  0  0  0  0  0  0  0  0  0
   -0.7421   60.6306   76.3156 H   0  0  0  0  0  0  0  0  0  0  0  0
    0.7669   60.9872   75.4086 H   0  0  0  0  0  0  0  0  0  0  0  0
   -0.5825   62.1729   75.4086 H   0  0  0  0  0  0  0  0  0  0  0  0
    1.9642   62.1219   67.8544 H   0  0  0  0  0  0  0  0  0  0  0  0
    5.1488   62.2654   72.0686 H   0  0  0  0  0  0  0  0  0  0  0  0
  2  1  1  0
  3  2  1  0
  4  3  1  0
  5  4  1  0
  5  1  1  0
  5  6  1  1
  7  5  1  0
  8  7  1  0
  9  8  1  0
 10  9  1  0
 10  4  1  0
 11 10  1  0
 12 11  1  0
 13 12  1  0
 14 13  2  0
 15 14  1  0
 16 15  2  0
 17 15  1  0
 18 17  1  0
 19  9  1  0
 19 18  1  0
 19 13  1  0
 19 20  1  1
 22 21  3  0
  1 22  1  6
 23  1  1  0
  2 24  1  0
  2 25  1  0
  3 26  1  0
  3 27  1  0
  4 28  1  6
  6 29  1  0
  6 30  1  0
  6 31  1  0
  7 32  1  0
  7 33  1  0
  8 34  1  0
  8 35  1  0
  9 36  1  6
 10 37  1  1
 11 38  1  0
 11 39  1  0
 12 40  1  0
 12 41  1  0
 14 42  1  0
 17 43  1  0
 17 44  1  0
 18 45  1  0
 18 46  1  0
 20 47  1  0
 20 48  1  0
 20 49  1  0
 21 50  1  0
 23 51  1  0
M  END
>  <score>  (3) 
-8.312

$$$$
=
     RDKit          3D

 51 54  0  0  0  0  0  0  0  0999 V2000
    1.2350   56.4850   74.9540 C   0  0  2  0  0  0  0  0  0  0  0  0
   -0.3070   56.2880   75.0660 C   0  0  0  0  0  0  0  0  0  0  0  0
   -0.9630   57.6090   74.5980 C   0  0  0  0  0  0  0  0  0  0  0  0
    0.2020   58.3940   74.0140 C   0  0  2  0  0  0  0  0  0  0  0  0
    1.3860   58.0350   74.9450 C   0  0  1  0  0  0  0  0  0  0  0  0
    1.2200   58.5610   76.4090 C   0  0  0  0  0  0  0  0  0  0  0  0
    2.7060   58.6500   74.4200 C   0  0  0  0  0  0  0  0  0  0  0  0
    2.6040   59.4350   73.1030 C   0  0  0  0  0  0  0  0  0  0  0  0
    1.3090   60.2660   72.8460 C   0  0  1  0  0  0  0  0  0  0  0  0
    0.1390   59.8970   73.8010 C   0  0  1  0  0  0  0  0  0  0  0  0
   -1.1710   60.4220   73.2170 C   0  0  0  0  0  0  0  0  0  0  0  0
   -1.1010   61.9460   73.1000 C   0  0  0  0  0  0  0  0  0  0  0  0
    0.1100   62.4310   72.3270 C   0  0  0  0  0  0  0  0  0  0  0  0
   -0.0560   63.3620   71.3710 C   0  0  0  0  0  0  0  0  0  0  0  0
    1.0880   63.9420   70.6310 C   0  0  0  0  0  0  0  0  0  0  0  0
    0.8770   64.7830   69.7580 O   0  0  0  0  0  0  0  0  0  0  0  0
    2.4780   63.5340   71.0350 C   0  0  0  0  0  0  0  0  0  0  0  0
    2.4930   62.0960   71.5350 C   0  0  0  0  0  0  0  0  0  0  0  0
    1.4800   61.8180   72.6850 C   0  0  2  0  0  0  0  0  0  0  0  0
    2.0000   62.4620   73.9870 C   0  0  0  0  0  0  0  0  0  0  0  0
    2.1710   55.3010   72.7370 C   0  0  0  0  0  0  0  0  0  0  0  0
    1.7550   55.8370   73.7290 C   0  0  0  0  0  0  0  0  0  0  0  0
    1.8860   55.8960   76.0700 O   0  0  0  0  0  0  0  0  0  0  0  0
   -0.6300   55.4563   74.4226 H   0  0  0  0  0  0  0  0  0  0  0  0
   -0.5996   56.0468   76.0986 H   0  0  0  0  0  0  0  0  0  0  0  0
   -1.7311   57.4179   73.8341 H   0  0  0  0  0  0  0  0  0  0  0  0
   -1.4772   58.1442   75.4099 H   0  0  0  0  0  0  0  0  0  0  0  0
    0.2552   58.0922   72.9576 H   0  0  0  0  0  0  0  0  0  0  0  0
    1.4732   57.7588   77.1178 H   0  0  0  0  0  0  0  0  0  0  0  0
    1.8916   59.4173   76.5693 H   0  0  0  0  0  0  0  0  0  0  0  0
    0.1785   58.8767   76.5693 H   0  0  0  0  0  0  0  0  0  0  0  0
    3.0891   59.3343   75.1913 H   0  0  0  0  0  0  0  0  0  0  0  0
    3.3676   57.7973   74.2076 H   0  0  0  0  0  0  0  0  0  0  0  0
    3.4530   60.1337   73.0717 H   0  0  0  0  0  0  0  0  0  0  0  0
    2.5945   58.6613   72.3212 H   0  0  0  0  0  0  0  0  0  0  0  0
    1.0299   59.9387   71.8336 H   0  0  0  0  0  0  0  0  0  0  0  0
    0.2127   60.3692   74.7918 H   0  0  0  0  0  0  0  0  0  0  0  0
   -1.3299   59.9844   72.2204 H   0  0  0  0  0  0  0  0  0  0  0  0
   -2.0055   60.1422   73.8768 H   0  0  0  0  0  0  0  0  0  0  0  0
   -2.0076   62.2992   72.5869 H   0  0  0  0  0  0  0  0  0  0  0  0
   -1.0201   62.3487   74.1204 H   0  0  0  0  0  0  0  0  0  0  0  0
   -1.0738   63.7035   71.1311 H   0  0  0  0  0  0  0  0  0  0  0  0
    3.1468   63.6211   70.1660 H   0  0  0  0  0  0  0  0  0  0  0  0
    2.8185   64.1941   71.8464 H   0  0  0  0  0  0  0  0  0  0  0  0
    2.2499   61.4333   70.6914 H   0  0  0  0  0  0  0  0  0  0  0  0
    3.4978   61.9096   71.9420 H   0  0  0  0  0  0  0  0  0  0  0  0
    1.5738   61.9341   74.8528 H   0  0  0  0  0  0  0  0  0  0  0  0
    3.0973   62.3913   74.0182 H   0  0  0  0  0  0  0  0  0  0  0  0
    1.6997   63.5198   74.0182 H   0  0  0  0  0  0  0  0  0  0  0  0
    2.5517   54.8104   71.8291 H   0  0  0  0  0  0  0  0  0  0  0  0
    1.4933   56.2513   76.9065 H   0  0  0  0  0  0  0  0  0  0  0  0
  2  1  1  0
  3  2  1  0
  4  3  1  0
  5  4  1  0
  5  1  1  0
  5  6  1  1
  7  5  1  0
  8  7  1  0
  9  8  1  0
 10  9  1  0
 10  4  1  0
 11 10  1  0
 12 11  1  0
 13 12  1  0
 14 13  2  0
 15 14  1  0
 16 15  2  0
 17 15  1  0
 18 17  1  0
 19  9  1  0
 19 18  1  0
 19 13  1  0
 19 20  1  1
 22 21  3  0
  1 22  1  6
 23  1  1  0
  2 24  1  0
  2 25  1  0
  3 26  1  0
  3 27  1  0
  4 28  1  6
  6 29  1  0
  6 30  1  0
  6 31  1  0
  7 32  1  0
  7 33  1  0
  8 34  1  0
  8 35  1  0
  9 36  1  6
 10 37  1  1
 11 38  1  0
 11 39  1  0
 12 40  1  0
 12 41  1  0
 14 42  1  0
 17 43  1  0
 17 44  1  0
 18 45  1  0
 18 46  1  0
 20 47  1  0
 20 48  1  0
 20 49  1  0
 21 50  1  0
 23 51  1  0
M  END
>  <score>  (4) 
-7.085

$$$$
=
     RDKit          3D

 51 54  0  0  0  0  0  0  0  0999 V2000
   -0.3430   55.1010   75.8420 C   0  0  2  0  0  0  0  0  0  0  0  0
   -1.7440   55.7710   75.9750 C   0  0  0  0  0  0  0  0  0  0  0  0
   -1.6330   57.1730   75.3300 C   0  0  0  0  0  0  0  0  0  0  0  0
   -0.2740   57.1430   74.6480 C   0  0  2  0  0  0  0  0  0  0  0  0
    0.6030   56.3190   75.6240 C   0  0  1  0  0  0  0  0  0  0  0  0
    0.8430   57.0190   77.0020 C   0  0  0  0  0  0  0  0  0  0  0  0
    2.0080   56.0690   75.0240 C   0  0  0  0  0  0  0  0  0  0  0  0
    2.2450   56.6280   73.6120 C   0  0  0  0  0  0  0  0  0  0  0  0
    1.5710   57.9840   73.2400 C   0  0  1  0  0  0  0  0  0  0  0  0
    0.4520   58.4110   74.2330 C   0  0  1  0  0  0  0  0  0  0  0  0
   -0.4190   59.4800   73.5790 C   0  0  0  0  0  0  0  0  0  0  0  0
    0.4370   60.7070   73.2560 C   0  0  0  0  0  0  0  0  0  0  0  0
    1.6640   60.3770   72.4290 C   0  0  0  0  0  0  0  0  0  0  0  0
    1.9490   61.1350   71.3540 C   0  0  0  0  0  0  0  0  0  0  0  0
    3.1710   60.9250   70.5450 C   0  0  0  0  0  0  0  0  0  0  0  0
    3.3760   61.6400   69.5660 O   0  0  0  0  0  0  0  0  0  0  0  0
    4.1600   59.8890   71.0060 C   0  0  0  0  0  0  0  0  0  0  0  0
    3.4480   58.7340   71.6960 C   0  0  0  0  0  0  0  0  0  0  0  0
    2.5240   59.1750   72.8700 C   0  0  2  0  0  0  0  0  0  0  0  0
    3.3960   59.5890   74.0750 C   0  0  0  0  0  0  0  0  0  0  0  0
   -0.3110   53.3550   73.8070 C   0  0  0  0  0  0  0  0  0  0  0  0
   -0.3310   54.1380   74.7180 C   0  0  0  0  0  0  0  0  0  0  0  0
   -0.0260   54.3910   77.0300 O   0  0  0  0  0  0  0  0  0  0  0  0
   -2.5018   55.1714   75.4494 H   0  0  0  0  0  0  0  0  0  0  0  0
   -2.0472   55.8450   77.0298 H   0  0  0  0  0  0  0  0  0  0  0  0
   -2.4374   57.3335   74.5970 H   0  0  0  0  0  0  0  0  0  0  0  0
   -1.7279   57.9897   76.0608 H   0  0  0  0  0  0  0  0  0  0  0  0
   -0.4619   56.7398   73.6420 H   0  0  0  0  0  0  0  0  0  0  0  0
    0.6029   56.3188   77.8157 H   0  0  0  0  0  0  0  0  0  0  0  0
    1.8970   57.3240   77.0797 H   0  0  0  0  0  0  0  0  0  0  0  0
    0.1978   57.9065   77.0797 H   0  0  0  0  0  0  0  0  0  0  0  0
    2.7479   56.5276   75.6964 H   0  0  0  0  0  0  0  0  0  0  0  0
    2.1016   54.9769   74.9310 H   0  0  0  0  0  0  0  0  0  0  0  0
    3.3304   56.7574   73.4891 H   0  0  0  0  0  0  0  0  0  0  0  0
    1.7735   55.8935   72.9425 H   0  0  0  0  0  0  0  0  0  0  0  0
    1.0919   57.7391   72.2806 H   0  0  0  0  0  0  0  0  0  0  0  0
    0.8329   58.8836   75.1504 H   0  0  0  0  0  0  0  0  0  0  0  0
   -0.8538   59.0814   72.6505 H   0  0  0  0  0  0  0  0  0  0  0  0
   -1.2269   59.7672   74.2680 H   0  0  0  0  0  0  0  0  0  0  0  0
   -0.1792   61.4259   72.6961 H   0  0  0  0  0  0  0  0  0  0  0  0
    0.7886   61.1217   74.2122 H   0  0  0  0  0  0  0  0  0  0  0  0
    1.2518   61.9361   71.0673 H   0  0  0  0  0  0  0  0  0  0  0  0
    4.7121   59.5045   70.1357 H   0  0  0  0  0  0  0  0  0  0  0  0
    4.8526   60.3555   71.7220 H   0  0  0  0  0  0  0  0  0  0  0  0
    2.8334   58.2099   70.9492 H   0  0  0  0  0  0  0  0  0  0  0  0
    4.2279   58.0894   72.1275 H   0  0  0  0  0  0  0  0  0  0  0  0
    2.8719   59.3402   75.0096 H   0  0  0  0  0  0  0  0  0  0  0  0
    4.3539   59.0495   74.0370 H   0  0  0  0  0  0  0  0  0  0  0  0
    3.5835   60.6722   74.0370 H   0  0  0  0  0  0  0  0  0  0  0  0
   -0.2927   52.6381   72.9729 H   0  0  0  0  0  0  0  0  0  0  0  0
   -0.2707   54.9391   77.8173 H   0  0  0  0  0  0  0  0  0  0  0  0
  2  1  1  0
  3  2  1  0
  4  3  1  0
  5  4  1  0
  5  1  1  0
  5  6  1  1
  7  5  1  0
  8  7  1  0
  9  8  1  0
 10  9  1  0
 10  4  1  0
 11 10  1  0
 12 11  1  0
 13 12  1  0
 14 13  2  0
 15 14  1  0
 16 15  2  0
 17 15  1  0
 18 17  1  0
 19  9  1  0
 19 18  1  0
 19 13  1  0
 19 20  1  1
 22 21  3  0
  1 22  1  6
 23  1  1  0
  2 24  1  0
  2 25  1  0
  3 26  1  0
  3 27  1  0
  4 28  1  6
  6 29  1  0
  6 30  1  0
  6 31  1  0
  7 32  1  0
  7 33  1  0
  8 34  1  0
  8 35  1  0
  9 36  1  6
 10 37  1  1
 11 38  1  0
 11 39  1  0
 12 40  1  0
 12 41  1  0
 14 42  1  0
 17 43  1  0
 17 44  1  0
 18 45  1  0
 18 46  1  0
 20 47  1  0
 20 48  1  0
 20 49  1  0
 21 50  1  0
 23 51  1  0
M  END
>  <score>  (5) 
-7.055

$$$$
=
     RDKit          3D

 51 54  0  0  0  0  0  0  0  0999 V2000
    2.6670   58.8950   77.1930 C   0  0  2  0  0  0  0  0  0  0  0  0
    3.8510   58.0970   76.5690 C   0  0  0  0  0  0  0  0  0  0  0  0
    3.9590   58.5390   75.0900 C   0  0  0  0  0  0  0  0  0  0  0  0
    3.0140   59.7280   75.0060 C   0  0  2  0  0  0  0  0  0  0  0  0
    1.8460   59.3300   75.9420 C   0  0  1  0  0  0  0  0  0  0  0  0
    1.0200   58.1020   75.4340 C   0  0  0  0  0  0  0  0  0  0  0  0
    0.8350   60.4920   76.0860 C   0  0  0  0  0  0  0  0  0  0  0  0
    1.1870   61.7870   75.3350 C   0  0  0  0  0  0  0  0  0  0  0  0
    1.8950   61.6580   73.9510 C   0  0  1  0  0  0  0  0  0  0  0  0
    2.4740   60.2410   73.6820 C   0  0  1  0  0  0  0  0  0  0  0  0
    3.4900   60.3200   72.5460 C   0  0  0  0  0  0  0  0  0  0  0  0
    2.7950   60.8100   71.2740 C   0  0  0  0  0  0  0  0  0  0  0  0
    2.0440   62.1130   71.4680 C   0  0  0  0  0  0  0  0  0  0  0  0
    2.2030   63.0980   70.5660 C   0  0  0  0  0  0  0  0  0  0  0  0
    1.4430   64.3660   70.6440 C   0  0  0  0  0  0  0  0  0  0  0  0
    1.6360   65.2370   69.7980 O   0  0  0  0  0  0  0  0  0  0  0  0
    0.3990   64.5050   71.7180 C   0  0  0  0  0  0  0  0  0  0  0  0
    0.8060   63.7360   72.9670 C   0  0  0  0  0  0  0  0  0  0  0  0
    1.1330   62.2360   72.7060 C   0  0  2  0  0  0  0  0  0  0  0  0
   -0.1810   61.4680   72.4480 C   0  0  0  0  0  0  0  0  0  0  0  0
    3.5830   60.9520   78.6480 C   0  0  0  0  0  0  0  0  0  0  0  0
    3.1700   60.0340   77.9920 C   0  0  0  0  0  0  0  0  0  0  0  0
    1.9130   58.0550   78.0550 O   0  0  0  0  0  0  0  0  0  0  0  0
    4.7853   58.3272   77.1021 H   0  0  0  0  0  0  0  0  0  0  0  0
    3.6796   57.0131   76.6451 H   0  0  0  0  0  0  0  0  0  0  0  0
    4.9887   58.8366   74.8426 H   0  0  0  0  0  0  0  0  0  0  0  0
    3.7025   57.7365   74.3827 H   0  0  0  0  0  0  0  0  0  0  0  0
    3.6243   60.6040   75.2709 H   0  0  0  0  0  0  0  0  0  0  0  0
    0.6385   57.5349   76.2959 H   0  0  0  0  0  0  0  0  0  0  0  0
    0.1752   58.4552   74.8245 H   0  0  0  0  0  0  0  0  0  0  0  0
    1.6656   57.4526   74.8245 H   0  0  0  0  0  0  0  0  0  0  0  0
   -0.1380   60.1401   75.7127 H   0  0  0  0  0  0  0  0  0  0  0  0
    0.8375   60.7575   77.1535 H   0  0  0  0  0  0  0  0  0  0  0  0
    0.2484   62.3373   75.1729 H   0  0  0  0  0  0  0  0  0  0  0  0
    1.9265   62.2867   75.9779 H   0  0  0  0  0  0  0  0  0  0  0  0
    2.7435   62.3480   74.0691 H   0  0  0  0  0  0  0  0  0  0  0  0
    1.7229   59.5164   73.3343 H   0  0  0  0  0  0  0  0  0  0  0  0
    4.2919   61.0216   72.8193 H   0  0  0  0  0  0  0  0  0  0  0  0
    3.9200   59.3232   72.3684 H   0  0  0  0  0  0  0  0  0  0  0  0
    3.5567   60.9582   70.4943 H   0  0  0  0  0  0  0  0  0  0  0  0
    2.0563   60.0460   70.9900 H   0  0  0  0  0  0  0  0  0  0  0  0
    2.9205   62.9569   69.7443 H   0  0  0  0  0  0  0  0  0  0  0  0
    0.2811   65.5689   71.9714 H   0  0  0  0  0  0  0  0  0  0  0  0
   -0.5503   64.0943   71.3436 H   0  0  0  0  0  0  0  0  0  0  0  0
    1.6991   64.2160   73.3936 H   0  0  0  0  0  0  0  0  0  0  0  0
   -0.0546   63.7607   73.6517 H   0  0  0  0  0  0  0  0  0  0  0  0
   -0.6428   61.1981   73.4092 H   0  0  0  0  0  0  0  0  0  0  0  0
   -0.8715   62.1047   71.8755 H   0  0  0  0  0  0  0  0  0  0  0  0
    0.0349   60.5539   71.8755 H   0  0  0  0  0  0  0  0  0  0  0  0
    3.9611   61.7924   79.2486 H   0  0  0  0  0  0  0  0  0  0  0  0
    2.1162   58.2814   78.9971 H   0  0  0  0  0  0  0  0  0  0  0  0
  2  1  1  0
  3  2  1  0
  4  3  1  0
  5  4  1  0
  5  1  1  0
  5  6  1  6
  7  5  1  0
  8  7  1  0
  9  8  1  0
 10  9  1  0
 10  4  1  0
 11 10  1  0
 12 11  1  0
 13 12  1  0
 14 13  2  0
 15 14  1  0
 16 15  2  0
 17 15  1  0
 18 17  1  0
 19  9  1  0
 19 18  1  0
 19 13  1  0
 19 20  1  6
 22 21  3  0
  1 22  1  1
 23  1  1  0
  2 24  1  0
  2 25  1  0
  3 26  1  0
  3 27  1  0
  4 28  1  1
  6 29  1  0
  6 30  1  0
  6 31  1  0
  7 32  1  0
  7 33  1  0
  8 34  1  0
  8 35  1  0
  9 36  1  1
 10 37  1  6
 11 38  1  0
 11 39  1  0
 12 40  1  0
 12 41  1  0
 14 42  1  0
 17 43  1  0
 17 44  1  0
 18 45  1  0
 18 46  1  0
 20 47  1  0
 20 48  1  0
 20 49  1  0
 21 50  1  0
 23 51  1  0
M  END
>  <score>  (6) 
-7.022

$$$$
=
     RDKit          3D

 51 54  0  0  0  0  0  0  0  0999 V2000
   -2.4070   59.4850   76.0560 C   0  0  2  0  0  0  0  0  0  0  0  0
   -3.4640   60.3970   75.3630 C   0  0  0  0  0  0  0  0  0  0  0  0
   -2.7310   61.1480   74.2250 C   0  0  0  0  0  0  0  0  0  0  0  0
   -1.3770   60.4570   74.1610 C   0  0  2  0  0  0  0  0  0  0  0  0
   -1.0570   60.1450   75.6440 C   0  0  1  0  0  0  0  0  0  0  0  0
   -0.8350   61.4190   76.5230 C   0  0  0  0  0  0  0  0  0  0  0  0
    0.2420   59.3130   75.7640 C   0  0  0  0  0  0  0  0  0  0  0  0
    0.9220   58.9330   74.4390 C   0  0  0  0  0  0  0  0  0  0  0  0
    0.8720   59.9650   73.2700 C   0  0  1  0  0  0  0  0  0  0  0  0
   -0.1740   61.0940   73.4880 C   0  0  1  0  0  0  0  0  0  0  0  0
   -0.4570   61.7810   72.1540 C   0  0  0  0  0  0  0  0  0  0  0  0
    0.8330   62.4090   71.6210 C   0  0  0  0  0  0  0  0  0  0  0  0
    1.9830   61.4250   71.5310 C   0  0  0  0  0  0  0  0  0  0  0  0
    2.7180   61.3810   70.4050 C   0  0  0  0  0  0  0  0  0  0  0  0
    3.9040   60.5060   70.2720 C   0  0  0  0  0  0  0  0  0  0  0  0
    4.5320   60.4980   69.2160 O   0  0  0  0  0  0  0  0  0  0  0  0
    4.3420   59.7140   71.4750 C   0  0  0  0  0  0  0  0  0  0  0  0
    3.1420   59.3170   72.3240 C   0  0  0  0  0  0  0  0  0  0  0  0
    2.2460   60.5180   72.7500 C   0  0  2  0  0  0  0  0  0  0  0  0
    2.9720   61.3310   73.8420 C   0  0  0  0  0  0  0  0  0  0  0  0
   -2.6490   56.9460   75.2280 C   0  0  0  0  0  0  0  0  0  0  0  0
   -2.5430   58.0860   75.5940 C   0  0  0  0  0  0  0  0  0  0  0  0
   -2.5960   59.5010   77.4630 O   0  0  0  0  0  0  0  0  0  0  0  0
   -4.2789   59.7849   74.9491 H   0  0  0  0  0  0  0  0  0  0  0  0
   -3.9063   61.1036   76.0807 H   0  0  0  0  0  0  0  0  0  0  0  0
   -3.2715   61.0437   73.2726 H   0  0  0  0  0  0  0  0  0  0  0  0
   -2.6526   62.2302   74.4057 H   0  0  0  0  0  0  0  0  0  0  0  0
   -1.5132   59.6161   73.4651 H   0  0  0  0  0  0  0  0  0  0  0  0
   -0.8830   61.1434   77.5868 H   0  0  0  0  0  0  0  0  0  0  0  0
    0.1519   61.8507   76.3003 H   0  0  0  0  0  0  0  0  0  0  0  0
   -1.6177   62.1591   76.3003 H   0  0  0  0  0  0  0  0  0  0  0  0
    0.9619   59.8962   76.3569 H   0  0  0  0  0  0  0  0  0  0  0  0
   -0.0564   58.3615   76.2284 H   0  0  0  0  0  0  0  0  0  0  0  0
    1.9821   58.7384   74.6590 H   0  0  0  0  0  0  0  0  0  0  0  0
    0.3459   58.0713   74.0708 H   0  0  0  0  0  0  0  0  0  0  0  0
    0.5213   59.3410   72.4348 H   0  0  0  0  0  0  0  0  0  0  0  0
    0.1787   61.8997   74.1487 H   0  0  0  0  0  0  0  0  0  0  0  0
   -0.8300   61.0400   71.4316 H   0  0  0  0  0  0  0  0  0  0  0  0
   -1.2147   62.5652   72.2984 H   0  0  0  0  0  0  0  0  0  0  0  0
    0.6370   62.8107   70.6159 H   0  0  0  0  0  0  0  0  0  0  0  0
    1.1307   63.1960   72.3295 H   0  0  0  0  0  0  0  0  0  0  0  0
    2.4278   62.0164   69.5552 H   0  0  0  0  0  0  0  0  0  0  0  0
    4.8630   58.8054   71.1390 H   0  0  0  0  0  0  0  0  0  0  0  0
    5.0147   60.3370   72.0828 H   0  0  0  0  0  0  0  0  0  0  0  0
    2.5258   58.6132   71.7453 H   0  0  0  0  0  0  0  0  0  0  0  0
    3.5380   58.8702   73.2479 H   0  0  0  0  0  0  0  0  0  0  0  0
    2.6556   60.9767   74.8342 H   0  0  0  0  0  0  0  0  0  0  0  0
    4.0589   61.1997   73.7352 H   0  0  0  0  0  0  0  0  0  0  0  0
    2.7191   62.3962   73.7352 H   0  0  0  0  0  0  0  0  0  0  0  0
   -2.7460   55.9027   74.8931 H   0  0  0  0  0  0  0  0  0  0  0  0
   -1.7182   59.4267   77.9147 H   0  0  0  0  0  0  0  0  0  0  0  0
  2  1  1  0
  3  2  1  0
  4  3  1  0
  5  4  1  0
  5  1  1  0
  5  6  1  1
  7  5  1  0
  8  7  1  0
  9  8  1  0
 10  9  1  0
 10  4  1  0
 11 10  1  0
 12 11  1  0
 13 12  1  0
 14 13  2  0
 15 14  1  0
 16 15  2  0
 17 15  1  0
 18 17  1  0
 19  9  1  0
 19 18  1  0
 19 13  1  0
 19 20  1  1
 22 21  3  0
  1 22  1  6
 23  1  1  0
  2 24  1  0
  2 25  1  0
  3 26  1  0
  3 27  1  0
  4 28  1  6
  6 29  1  0
  6 30  1  0
  6 31  1  0
  7 32  1  0
  7 33  1  0
  8 34  1  0
  8 35  1  0
  9 36  1  6
 10 37  1  1
 11 38  1  0
 11 39  1  0
 12 40  1  0
 12 41  1  0
 14 42  1  0
 17 43  1  0
 17 44  1  0
 18 45  1  0
 18 46  1  0
 20 47  1  0
 20 48  1  0
 20 49  1  0
 21 50  1  0
 23 51  1  0
M  END
>  <score>  (7) 
-6.989

$$$$
=
     RDKit          3D

 51 54  0  0  0  0  0  0  0  0999 V2000
    3.2020   62.6910   71.1170 C   0  0  2  0  0  0  0  0  0  0  0  0
    4.7210   62.6500   71.4630 C   0  0  0  0  0  0  0  0  0  0  0  0
    4.9080   61.5440   72.5290 C   0  0  0  0  0  0  0  0  0  0  0  0
    3.5570   60.8470   72.5560 C   0  0  2  0  0  0  0  0  0  0  0  0
    2.5480   62.0040   72.3520 C   0  0  1  0  0  0  0  0  0  0  0  0
    2.5140   63.0290   73.5340 C   0  0  0  0  0  0  0  0  0  0  0  0
    1.1050   61.4600   72.2210 C   0  0  0  0  0  0  0  0  0  0  0  0
    0.9560   59.9310   72.2740 C   0  0  0  0  0  0  0  0  0  0  0  0
    1.9050   59.1370   73.2230 C   0  0  1  0  0  0  0  0  0  0  0  0
    3.1210   59.9700   73.7180 C   0  0  1  0  0  0  0  0  0  0  0  0
    4.1900   59.0260   74.2620 C   0  0  0  0  0  0  0  0  0  0  0  0
    3.6220   58.2430   75.4490 C   0  0  0  0  0  0  0  0  0  0  0  0
    2.3260   57.5240   75.1240 C   0  0  0  0  0  0  0  0  0  0  0  0
    2.1860   56.2370   75.4890 C   0  0  0  0  0  0  0  0  0  0  0  0
    0.9230   55.4930   75.2790 C   0  0  0  0  0  0  0  0  0  0  0  0
    0.8540   54.3150   75.6220 O   0  0  0  0  0  0  0  0  0  0  0  0
   -0.2580   56.2390   74.7220 C   0  0  0  0  0  0  0  0  0  0  0  0
    0.1970   57.3320   73.7650 C   0  0  0  0  0  0  0  0  0  0  0  0
    1.2330   58.3190   74.3810 C   0  0  2  0  0  0  0  0  0  0  0  0
    0.5140   59.2500   75.3810 C   0  0  0  0  0  0  0  0  0  0  0  0
    2.7340   61.4030   68.8110 C   0  0  0  0  0  0  0  0  0  0  0  0
    2.9400   61.9840   69.8430 C   0  0  0  0  0  0  0  0  0  0  0  0
    2.7710   64.0350   70.9680 O   0  0  0  0  0  0  0  0  0  0  0  0
    5.3078   62.4119   70.5636 H   0  0  0  0  0  0  0  0  0  0  0  0
    5.0658   63.6239   71.8406 H   0  0  0  0  0  0  0  0  0  0  0  0
    5.7053   60.8454   72.2354 H   0  0  0  0  0  0  0  0  0  0  0  0
    5.2059   61.9405   73.5109 H   0  0  0  0  0  0  0  0  0  0  0  0
    3.6193   60.0622   71.7878 H   0  0  0  0  0  0  0  0  0  0  0  0
    2.5320   62.4863   74.4906 H   0  0  0  0  0  0  0  0  0  0  0  0
    3.3907   63.6904   73.4711 H   0  0  0  0  0  0  0  0  0  0  0  0
    1.5954   63.6308   73.4711 H   0  0  0  0  0  0  0  0  0  0  0  0
    0.5088   61.8853   73.0418 H   0  0  0  0  0  0  0  0  0  0  0  0
    0.7649   61.7574   71.2181 H   0  0  0  0  0  0  0  0  0  0  0  0
   -0.0761   59.7132   72.5859 H   0  0  0  0  0  0  0  0  0  0  0  0
    1.2301   59.5924   71.2640 H   0  0  0  0  0  0  0  0  0  0  0  0
    2.2866   58.3530   72.5524 H   0  0  0  0  0  0  0  0  0  0  0  0
    2.8835   60.6380   74.5590 H   0  0  0  0  0  0  0  0  0  0  0  0
    4.4959   58.3241   73.4722 H   0  0  0  0  0  0  0  0  0  0  0  0
    5.0622   59.6099   74.5910 H   0  0  0  0  0  0  0  0  0  0  0  0
    4.3663   57.4970   75.7644 H   0  0  0  0  0  0  0  0  0  0  0  0
    3.4027   58.9693   76.2455 H   0  0  0  0  0  0  0  0  0  0  0  0
    3.0365   55.7209   75.9583 H   0  0  0  0  0  0  0  0  0  0  0  0
   -0.9080   55.5345   74.1824 H   0  0  0  0  0  0  0  0  0  0  0  0
   -0.8063   56.7043   75.5544 H   0  0  0  0  0  0  0  0  0  0  0  0
    0.6540   56.8544   72.8858 H   0  0  0  0  0  0  0  0  0  0  0  0
   -0.6943   57.9235   73.5087 H   0  0  0  0  0  0  0  0  0  0  0  0
    0.7538   58.9395   76.4086 H   0  0  0  0  0  0  0  0  0  0  0  0
    0.8488   60.2859   75.2234 H   0  0  0  0  0  0  0  0  0  0  0  0
   -0.5729   59.1879   75.2234 H   0  0  0  0  0  0  0  0  0  0  0  0
    2.5455   60.8713   67.8666 H   0  0  0  0  0  0  0  0  0  0  0  0
    2.6409   64.4408   71.8616 H   0  0  0  0  0  0  0  0  0  0  0  0
  2  1  1  0
  3  2  1  0
  4  3  1  0
  5  4  1  0
  5  1  1  0
  5  6  1  1
  7  5  1  0
  8  7  1  0
  9  8  1  0
 10  9  1  0
 10  4  1  0
 11 10  1  0
 12 11  1  0
 13 12  1  0
 14 13  2  0
 15 14  1  0
 16 15  2  0
 17 15  1  0
 18 17  1  0
 19  9  1  0
 19 18  1  0
 19 13  1  0
 19 20  1  1
 22 21  3  0
  1 22  1  6
 23  1  1  0
  2 24  1  0
  2 25  1  0
  3 26  1  0
  3 27  1  0
  4 28  1  6
  6 29  1  0
  6 30  1  0
  6 31  1  0
  7 32  1  0
  7 33  1  0
  8 34  1  0
  8 35  1  0
  9 36  1  6
 10 37  1  1
 11 38  1  0
 11 39  1  0
 12 40  1  0
 12 41  1  0
 14 42  1  0
 17 43  1  0
 17 44  1  0
 18 45  1  0
 18 46  1  0
 20 47  1  0
 20 48  1  0
 20 49  1  0
 21 50  1  0
 23 51  1  0
M  END
>  <score>  (8) 
-6.966

$$$$
=
     RDKit          3D

 51 54  0  0  0  0  0  0  0  0999 V2000
   -0.1160   63.0500   77.7530 C   0  0  2  0  0  0  0  0  0  0  0  0
   -0.2220   61.6150   78.3520 C   0  0  0  0  0  0  0  0  0  0  0  0
    0.1440   60.6280   77.2170 C   0  0  0  0  0  0  0  0  0  0  0  0
    0.6760   61.5350   76.1180 C   0  0  2  0  0  0  0  0  0  0  0  0
   -0.2200   62.7940   76.2200 C   0  0  1  0  0  0  0  0  0  0  0  0
   -1.7200   62.5320   75.8580 C   0  0  0  0  0  0  0  0  0  0  0  0
    0.2650   63.8960   75.2490 C   0  0  0  0  0  0  0  0  0  0  0  0
    1.5210   63.5630   74.4280 C   0  0  0  0  0  0  0  0  0  0  0  0
    1.7100   62.0910   73.9470 C   0  0  1  0  0  0  0  0  0  0  0  0
    0.7780   61.0800   74.6720 C   0  0  1  0  0  0  0  0  0  0  0  0
    1.3150   59.6650   74.4670 C   0  0  0  0  0  0  0  0  0  0  0  0
    1.3210   59.3350   72.9730 C   0  0  0  0  0  0  0  0  0  0  0  0
    2.0620   60.3610   72.1380 C   0  0  0  0  0  0  0  0  0  0  0  0
    2.9470   59.9360   71.2180 C   0  0  0  0  0  0  0  0  0  0  0  0
    3.6490   60.8720   70.3100 C   0  0  0  0  0  0  0  0  0  0  0  0
    4.4560   60.4290   69.4950 O   0  0  0  0  0  0  0  0  0  0  0  0
    3.2830   62.3300   70.3700 C   0  0  0  0  0  0  0  0  0  0  0  0
    2.8900   62.7290   71.7850 C   0  0  0  0  0  0  0  0  0  0  0  0
    1.7580   61.8500   72.3960 C   0  0  2  0  0  0  0  0  0  0  0  0
    0.4150   62.2180   71.7310 C   0  0  0  0  0  0  0  0  0  0  0  0
    2.1880   64.2030   78.4950 C   0  0  0  0  0  0  0  0  0  0  0  0
    1.1550   63.6900   78.1580 C   0  0  0  0  0  0  0  0  0  0  0  0
   -1.1830   63.8580   78.2290 O   0  0  0  0  0  0  0  0  0  0  0  0
    0.4791   61.5027   79.1922 H   0  0  0  0  0  0  0  0  0  0  0  0
   -1.2355   61.4202   78.7327 H   0  0  0  0  0  0  0  0  0  0  0  0
    0.9150   59.9165   77.5477 H   0  0  0  0  0  0  0  0  0  0  0  0
   -0.7082   60.0135   76.8912 H   0  0  0  0  0  0  0  0  0  0  0  0
    1.7519   61.6385   76.3221 H   0  0  0  0  0  0  0  0  0  0  0  0
   -2.3077   62.4294   76.7822 H   0  0  0  0  0  0  0  0  0  0  0  0
   -2.1078   63.3760   75.2687 H   0  0  0  0  0  0  0  0  0  0  0  0
   -1.7987   61.6065   75.2687 H   0  0  0  0  0  0  0  0  0  0  0  0
   -0.5523   64.1071   74.5437 H   0  0  0  0  0  0  0  0  0  0  0  0
    0.5425   64.7505   75.8837 H   0  0  0  0  0  0  0  0  0  0  0  0
    1.5052   64.2009   73.5320 H   0  0  0  0  0  0  0  0  0  0  0  0
    2.3574   63.7361   75.1212 H   0  0  0  0  0  0  0  0  0  0  0  0
    2.7420   61.8821   74.2654 H   0  0  0  0  0  0  0  0  0  0  0  0
   -0.2440   61.0530   74.2661 H   0  0  0  0  0  0  0  0  0  0  0  0
    2.3400   59.6008   74.8611 H   0  0  0  0  0  0  0  0  0  0  0  0
    0.6728   58.9477   74.9991 H   0  0  0  0  0  0  0  0  0  0  0  0
    1.8030   58.3562   72.8330 H   0  0  0  0  0  0  0  0  0  0  0  0
    0.2744   59.3321   72.6345 H   0  0  0  0  0  0  0  0  0  0  0  0
    3.1558   58.8590   71.1377 H   0  0  0  0  0  0  0  0  0  0  0  0
    4.1467   62.9323   70.0519 H   0  0  0  0  0  0  0  0  0  0  0  0
    2.4269   62.5071   69.7023 H   0  0  0  0  0  0  0  0  0  0  0  0
    3.7786   62.6459   72.4280 H   0  0  0  0  0  0  0  0  0  0  0  0
    2.5029   63.7573   71.7315 H   0  0  0  0  0  0  0  0  0  0  0  0
   -0.3351   62.4235   72.5088 H   0  0  0  0  0  0  0  0  0  0  0  0
    0.5488   63.1126   71.1051 H   0  0  0  0  0  0  0  0  0  0  0  0
    0.0741   61.3802   71.1051 H   0  0  0  0  0  0  0  0  0  0  0  0
    3.1337   64.6726   78.8035 H   0  0  0  0  0  0  0  0  0  0  0  0
   -1.1815   63.8569   79.2190 H   0  0  0  0  0  0  0  0  0  0  0  0
  2  1  1  0
  3  2  1  0
  4  3  1  0
  5  4  1  0
  5  1  1  0
  5  6  1  6
  7  5  1  0
  8  7  1  0
  9  8  1  0
 10  9  1  0
 10  4  1  0
 11 10  1  0
 12 11  1  0
 13 12  1  0
 14 13  2  0
 15 14  1  0
 16 15  2  0
 17 15  1  0
 18 17  1  0
 19  9  1  0
 19 18  1  0
 19 13  1  0
 19 20  1  6
 22 21  3  0
  1 22  1  6
 23  1  1  0
  2 24  1  0
  2 25  1  0
  3 26  1  0
  3 27  1  0
  4 28  1  1
  6 29  1  0
  6 30  1  0
  6 31  1  0
  7 32  1  0
  7 33  1  0
  8 34  1  0
  8 35  1  0
  9 36  1  1
 10 37  1  6
 11 38  1  0
 11 39  1  0
 12 40  1  0
 12 41  1  0
 14 42  1  0
 17 43  1  0
 17 44  1  0
 18 45  1  0
 18 46  1  0
 20 47  1  0
 20 48  1  0
 20 49  1  0
 21 50  1  0
 23 51  1  0
M  END
>  <score>  (9) 
-6.754

$$$$
