=
     RDKit          3D

 54 57  0  0  0  0  0  0  0  0999 V2000
    0.7910   67.2700   66.9340 C   0  0  0  0  0  0  0  0  0  0  0  0
    1.1210   68.5810   66.4850 O   0  0  0  0  0  0  0  0  0  0  0  0
    7.6080   71.6790   69.0820 O   0  0  0  0  0  0  0  0  0  0  0  0
    6.7260   71.0580   68.4930 C   0  0  0  0  0  0  0  0  0  0  0  0
    7.0110   70.2150   67.2720 C   0  0  0  0  0  0  0  0  0  0  0  0
    5.8400   70.1990   66.3030 C   0  0  0  0  0  0  0  0  0  0  0  0
    4.5440   69.9280   67.0180 C   0  0  0  0  0  0  0  0  0  0  0  0
    4.3810   70.3890   68.3280 C   0  0  0  0  0  0  0  0  0  0  0  0
    5.4480   71.0150   68.9790 N   0  0  0  0  0  0  0  0  0  0  0  0
    3.1580   70.2550   68.9770 C   0  0  0  0  0  0  0  0  0  0  0  0
    2.0950   69.6340   68.3170 C   0  0  0  0  0  0  0  0  0  0  0  0
    2.2440   69.1570   67.0120 C   0  0  0  0  0  0  0  0  0  0  0  0
    3.4670   69.3180   66.3570 C   0  0  0  0  0  0  0  0  0  0  0  0
   -0.5990   67.3010   67.5690 C   0  0  0  0  0  0  0  0  0  0  0  0
   -0.7350   66.4750   68.8540 C   0  0  0  0  0  0  0  0  0  0  0  0
    0.4820   66.5800   69.7750 C   0  0  0  0  0  0  0  0  0  0  0  0
    0.3650   65.6610   70.9390 C   0  0  0  0  0  0  0  0  0  0  0  0
   -0.3990   65.8330   71.9980 N   0  0  0  0  0  0  0  0  0  0  0  0
   -0.1780   64.7540   72.8160 N   0  0  0  0  0  0  0  0  0  0  0  0
    0.7060   63.9270   72.2800 N   0  0  0  0  0  0  0  0  0  0  0  0
    1.0470   64.4830   71.1040 N   0  0  0  0  0  0  0  0  0  0  0  0
    2.0120   63.8390   70.2320 C   0  0  0  0  0  0  0  0  0  0  0  0
    3.4570   64.0890   70.7060 C   0  0  0  0  0  0  0  0  0  0  0  0
    4.4420   63.0100   70.2480 C   0  0  0  0  0  0  0  0  0  0  0  0
    4.0310   62.3920   68.9180 C   0  0  0  0  0  0  0  0  0  0  0  0
    2.6590   61.7200   69.0000 C   0  0  0  0  0  0  0  0  0  0  0  0
    1.7310   62.3430   70.0460 C   0  0  0  0  0  0  0  0  0  0  0  0
    0.7920   66.5760   66.0806 H   0  0  0  0  0  0  0  0  0  0  0  0
    1.5317   66.9311   67.6733 H   0  0  0  0  0  0  0  0  0  0  0  0
    7.8926   70.6238   66.7565 H   0  0  0  0  0  0  0  0  0  0  0  0
    7.1881   69.1823   67.6068 H   0  0  0  0  0  0  0  0  0  0  0  0
    5.7757   71.1763   65.8022 H   0  0  0  0  0  0  0  0  0  0  0  0
    6.0067   69.3966   65.5693 H   0  0  0  0  0  0  0  0  0  0  0  0
    5.2599   71.4731   69.8822 H   0  0  0  0  0  0  0  0  0  0  0  0
    3.0290   70.6348   70.0013 H   0  0  0  0  0  0  0  0  0  0  0  0
    1.1291   69.5191   68.8306 H   0  0  0  0  0  0  0  0  0  0  0  0
    3.5861   68.9662   65.3216 H   0  0  0  0  0  0  0  0  0  0  0  0
   -0.8440   68.3468   67.8063 H   0  0  0  0  0  0  0  0  0  0  0  0
   -1.2854   66.8513   66.8364 H   0  0  0  0  0  0  0  0  0  0  0  0
   -1.6199   66.8283   69.4037 H   0  0  0  0  0  0  0  0  0  0  0  0
   -0.8256   65.4205   68.5543 H   0  0  0  0  0  0  0  0  0  0  0  0
    1.3858   66.3207   69.2042 H   0  0  0  0  0  0  0  0  0  0  0  0
    0.5407   67.6111   70.1536 H   0  0  0  0  0  0  0  0  0  0  0  0
    1.8994   64.3041   69.2415 H   0  0  0  0  0  0  0  0  0  0  0  0
    3.7918   65.0584   70.3082 H   0  0  0  0  0  0  0  0  0  0  0  0
    3.4456   64.0728   71.8058 H   0  0  0  0  0  0  0  0  0  0  0  0
    5.4385   63.4625   70.1369 H   0  0  0  0  0  0  0  0  0  0  0  0
    4.4502   62.2127   71.0058 H   0  0  0  0  0  0  0  0  0  0  0  0
    3.9943   63.1832   68.1547 H   0  0  0  0  0  0  0  0  0  0  0  0
    4.7721   61.6223   68.6566 H   0  0  0  0  0  0  0  0  0  0  0  0
    2.1746   61.7978   68.0155 H   0  0  0  0  0  0  0  0  0  0  0  0
    2.8295   60.6761   69.3021 H   0  0  0  0  0  0  0  0  0  0  0  0
    0.6884   62.2136   69.7202 H   0  0  0  0  0  0  0  0  0  0  0  0
    1.9084   61.8380   71.0070 H   0  0  0  0  0  0  0  0  0  0  0  0
  2  1  1  0
  4  3  2  0
  5  4  1  0
  6  5  1  0
  7  6  1  0
  8  7  2  0
  9  8  1  0
  9  4  1  0
 10  8  1  0
 11 10  2  0
 12 11  1  0
 12  2  1  0
 13 12  2  0
 13  7  1  0
 14  1  1  0
 15 14  1  0
 16 15  1  0
 17 16  1  0
 18 17  2  0
 19 18  1  0
 20 19  2  0
 21 20  1  0
 21 17  1  0
 22 21  1  0
 23 22  1  0
 24 23  1  0
 25 24  1  0
 26 25  1  0
 27 26  1  0
 27 22  1  0
  1 28  1  0
  1 29  1  0
  5 30  1  0
  5 31  1  0
  6 32  1  0
  6 33  1  0
  9 34  1  0
 10 35  1  0
 11 36  1  0
 13 37  1  0
 14 38  1  0
 14 39  1  0
 15 40  1  0
 15 41  1  0
 16 42  1  0
 16 43  1  0
 22 44  1  0
 23 45  1  0
 23 46  1  0
 24 47  1  0
 24 48  1  0
 25 49  1  0
 25 50  1  0
 26 51  1  0
 26 52  1  0
 27 53  1  0
 27 54  1  0
M  END
>  <score>  (1) 
-10.908

$$$$
=
     RDKit          3D

 54 57  0  0  0  0  0  0  0  0999 V2000
    0.4450   66.6220   69.5440 C   0  0  0  0  0  0  0  0  0  0  0  0
   -0.0330   65.3880   70.0690 O   0  0  0  0  0  0  0  0  0  0  0  0
    5.3880   60.8420   72.9600 O   0  0  0  0  0  0  0  0  0  0  0  0
    4.6780   61.5830   72.2850 C   0  0  0  0  0  0  0  0  0  0  0  0
    5.1180   62.1220   70.9440 C   0  0  0  0  0  0  0  0  0  0  0  0
    4.5500   63.5040   70.6690 C   0  0  0  0  0  0  0  0  0  0  0  0
    3.0750   63.5550   70.9600 C   0  0  0  0  0  0  0  0  0  0  0  0
    2.5570   62.7620   71.9880 C   0  0  0  0  0  0  0  0  0  0  0  0
    3.3970   61.8750   72.6680 N   0  0  0  0  0  0  0  0  0  0  0  0
    1.2200   62.8680   72.3570 C   0  0  0  0  0  0  0  0  0  0  0  0
    0.3890   63.7610   71.6780 C   0  0  0  0  0  0  0  0  0  0  0  0
    0.8870   64.5540   70.6400 C   0  0  0  0  0  0  0  0  0  0  0  0
    2.2360   64.4600   70.2910 C   0  0  0  0  0  0  0  0  0  0  0  0
   -0.4080   67.0070   68.3350 C   0  0  0  0  0  0  0  0  0  0  0  0
    0.0840   68.2430   67.5710 C   0  0  0  0  0  0  0  0  0  0  0  0
    1.6000   68.4370   67.6420 C   0  0  0  0  0  0  0  0  0  0  0  0
    2.1760   68.7200   66.3000 C   0  0  0  0  0  0  0  0  0  0  0  0
    1.5780   68.5480   65.1390 N   0  0  0  0  0  0  0  0  0  0  0  0
    2.4820   68.9230   64.1770 N   0  0  0  0  0  0  0  0  0  0  0  0
    3.6200   69.3190   64.7260 N   0  0  0  0  0  0  0  0  0  0  0  0
    3.4360   69.2010   66.0520 N   0  0  0  0  0  0  0  0  0  0  0  0
    4.4950   69.5520   66.9800 C   0  0  0  0  0  0  0  0  0  0  0  0
    5.7010   70.1780   66.2540 C   0  0  0  0  0  0  0  0  0  0  0  0
    6.5450   71.0890   67.1500 C   0  0  0  0  0  0  0  0  0  0  0  0
    6.5090   70.6450   68.6060 C   0  0  0  0  0  0  0  0  0  0  0  0
    5.0910   70.6690   69.1770 C   0  0  0  0  0  0  0  0  0  0  0  0
    4.0010   70.4450   68.1250 C   0  0  0  0  0  0  0  0  0  0  0  0
    0.3703   67.4047   70.3133 H   0  0  0  0  0  0  0  0  0  0  0  0
    1.4970   66.5164   69.2405 H   0  0  0  0  0  0  0  0  0  0  0  0
    6.2163   62.1804   70.9283 H   0  0  0  0  0  0  0  0  0  0  0  0
    4.7433   61.4409   70.1658 H   0  0  0  0  0  0  0  0  0  0  0  0
    5.0667   64.2372   71.3057 H   0  0  0  0  0  0  0  0  0  0  0  0
    4.7029   63.7375   69.6050 H   0  0  0  0  0  0  0  0  0  0  0  0
    3.0282   61.4118   73.5109 H   0  0  0  0  0  0  0  0  0  0  0  0
    0.8207   62.2532   73.1771 H   0  0  0  0  0  0  0  0  0  0  0  0
   -0.6703   63.8416   71.9632 H   0  0  0  0  0  0  0  0  0  0  0  0
    2.6417   65.0962   69.4906 H   0  0  0  0  0  0  0  0  0  0  0  0
   -0.4193   66.1557   67.6385 H   0  0  0  0  0  0  0  0  0  0  0  0
   -1.4048   67.2596   68.7257 H   0  0  0  0  0  0  0  0  0  0  0  0
   -0.2051   68.1382   66.5149 H   0  0  0  0  0  0  0  0  0  0  0  0
   -0.3786   69.1223   68.0431 H   0  0  0  0  0  0  0  0  0  0  0  0
    1.8215   69.2812   68.3115 H   0  0  0  0  0  0  0  0  0  0  0  0
    2.0498   67.5079   68.0221 H   0  0  0  0  0  0  0  0  0  0  0  0
    4.8339   68.6114   67.4388 H   0  0  0  0  0  0  0  0  0  0  0  0
    6.3421   69.3664   65.8795 H   0  0  0  0  0  0  0  0  0  0  0  0
    5.3021   70.8020   65.4407 H   0  0  0  0  0  0  0  0  0  0  0  0
    7.5868   71.0682   66.7976 H   0  0  0  0  0  0  0  0  0  0  0  0
    6.1272   72.1050   67.0931 H   0  0  0  0  0  0  0  0  0  0  0  0
    6.9022   69.6200   68.6746 H   0  0  0  0  0  0  0  0  0  0  0  0
    7.1226   71.3464   69.1904 H   0  0  0  0  0  0  0  0  0  0  0  0
    5.0088   69.8775   69.9365 H   0  0  0  0  0  0  0  0  0  0  0  0
    4.9305   71.6724   69.5982 H   0  0  0  0  0  0  0  0  0  0  0  0
    3.1357   69.9642   68.6046 H   0  0  0  0  0  0  0  0  0  0  0  0
    3.7242   71.4226   67.7035 H   0  0  0  0  0  0  0  0  0  0  0  0
  2  1  1  0
  4  3  2  0
  5  4  1  0
  6  5  1  0
  7  6  1  0
  8  7  2  0
  9  8  1  0
  9  4  1  0
 10  8  1  0
 11 10  2  0
 12 11  1  0
 12  2  1  0
 13 12  2  0
 13  7  1  0
 14  1  1  0
 15 14  1  0
 16 15  1  0
 17 16  1  0
 18 17  2  0
 19 18  1  0
 20 19  2  0
 21 20  1  0
 21 17  1  0
 22 21  1  0
 23 22  1  0
 24 23  1  0
 25 24  1  0
 26 25  1  0
 27 26  1  0
 27 22  1  0
  1 28  1  0
  1 29  1  0
  5 30  1  0
  5 31  1  0
  6 32  1  0
  6 33  1  0
  9 34  1  0
 10 35  1  0
 11 36  1  0
 13 37  1  0
 14 38  1  0
 14 39  1  0
 15 40  1  0
 15 41  1  0
 16 42  1  0
 16 43  1  0
 22 44  1  0
 23 45  1  0
 23 46  1  0
 24 47  1  0
 24 48  1  0
 25 49  1  0
 25 50  1  0
 26 51  1  0
 26 52  1  0
 27 53  1  0
 27 54  1  0
M  END
>  <score>  (2) 
-10.126

$$$$
=
     RDKit          3D

 54 57  0  0  0  0  0  0  0  0999 V2000
    2.3060   64.5360   69.9460 C   0  0  0  0  0  0  0  0  0  0  0  0
    3.1980   63.8670   70.8310 O   0  0  0  0  0  0  0  0  0  0  0  0
    3.2060   56.2240   70.8600 O   0  0  0  0  0  0  0  0  0  0  0  0
    3.1480   57.4250   71.1130 C   0  0  0  0  0  0  0  0  0  0  0  0
    2.7340   57.9450   72.4700 C   0  0  0  0  0  0  0  0  0  0  0  0
    2.0020   59.2730   72.3740 C   0  0  0  0  0  0  0  0  0  0  0  0
    2.7350   60.2370   71.4830 C   0  0  0  0  0  0  0  0  0  0  0  0
    3.4590   59.7400   70.3940 C   0  0  0  0  0  0  0  0  0  0  0  0
    3.5600   58.3600   70.2020 N   0  0  0  0  0  0  0  0  0  0  0  0
    4.0550   60.6100   69.4850 C   0  0  0  0  0  0  0  0  0  0  0  0
    3.9430   61.9880   69.6800 C   0  0  0  0  0  0  0  0  0  0  0  0
    3.2340   62.5020   70.7690 C   0  0  0  0  0  0  0  0  0  0  0  0
    2.6170   61.6240   71.6630 C   0  0  0  0  0  0  0  0  0  0  0  0
    0.9510   64.6940   70.6370 C   0  0  0  0  0  0  0  0  0  0  0  0
    0.3120   66.0810   70.4840 C   0  0  0  0  0  0  0  0  0  0  0  0
    1.0570   66.9880   69.5030 C   0  0  0  0  0  0  0  0  0  0  0  0
    0.3230   67.1170   68.2160 C   0  0  0  0  0  0  0  0  0  0  0  0
   -0.9320   66.7830   67.9930 N   0  0  0  0  0  0  0  0  0  0  0  0
   -1.1790   67.0590   66.6720 N   0  0  0  0  0  0  0  0  0  0  0  0
   -0.1010   67.5530   66.0820 N   0  0  0  0  0  0  0  0  0  0  0  0
    0.8410   67.5970   67.0400 N   0  0  0  0  0  0  0  0  0  0  0  0
    2.1740   68.0910   66.7470 C   0  0  0  0  0  0  0  0  0  0  0  0
    2.4480   68.1140   65.2310 C   0  0  0  0  0  0  0  0  0  0  0  0
    3.5140   69.1330   64.8210 C   0  0  0  0  0  0  0  0  0  0  0  0
    4.5450   69.3510   65.9200 C   0  0  0  0  0  0  0  0  0  0  0  0
    3.9080   69.8820   67.2050 C   0  0  0  0  0  0  0  0  0  0  0  0
    2.4500   69.4560   67.3890 C   0  0  0  0  0  0  0  0  0  0  0  0
    2.7101   65.5275   69.6939 H   0  0  0  0  0  0  0  0  0  0  0  0
    2.1880   63.9508   69.0221 H   0  0  0  0  0  0  0  0  0  0  0  0
    2.0702   57.2076   72.9451 H   0  0  0  0  0  0  0  0  0  0  0  0
    3.6457   58.1029   73.0649 H   0  0  0  0  0  0  0  0  0  0  0  0
    0.9964   59.0991   71.9634 H   0  0  0  0  0  0  0  0  0  0  0  0
    1.9404   59.7094   73.3818 H   0  0  0  0  0  0  0  0  0  0  0  0
    3.9706   58.0247   69.3189 H   0  0  0  0  0  0  0  0  0  0  0  0
    4.6093   60.2152   68.6208 H   0  0  0  0  0  0  0  0  0  0  0  0
    4.4189   62.6778   68.9674 H   0  0  0  0  0  0  0  0  0  0  0  0
    2.0375   62.0203   72.5098 H   0  0  0  0  0  0  0  0  0  0  0  0
    0.2609   63.9499   70.2126 H   0  0  0  0  0  0  0  0  0  0  0  0
    1.1319   64.5518   71.7127 H   0  0  0  0  0  0  0  0  0  0  0  0
   -0.7197   65.9519   70.1249 H   0  0  0  0  0  0  0  0  0  0  0  0
    0.3512   66.5673   71.4699 H   0  0  0  0  0  0  0  0  0  0  0  0
    1.1685   67.9857   69.9526 H   0  0  0  0  0  0  0  0  0  0  0  0
    2.0401   66.5398   69.2966 H   0  0  0  0  0  0  0  0  0  0  0  0
    2.8789   67.3809   67.2040 H   0  0  0  0  0  0  0  0  0  0  0  0
    2.7852   67.1135   64.9225 H   0  0  0  0  0  0  0  0  0  0  0  0
    1.5106   68.4080   64.7362 H   0  0  0  0  0  0  0  0  0  0  0  0
    4.0274   68.7671   63.9195 H   0  0  0  0  0  0  0  0  0  0  0  0
    3.0118   70.0929   64.6300 H   0  0  0  0  0  0  0  0  0  0  0  0
    5.0396   68.3930   66.1382 H   0  0  0  0  0  0  0  0  0  0  0  0
    5.2681   70.0998   65.5643 H   0  0  0  0  0  0  0  0  0  0  0  0
    4.4896   69.5091   68.0610 H   0  0  0  0  0  0  0  0  0  0  0  0
    3.9167   70.9800   67.1388 H   0  0  0  0  0  0  0  0  0  0  0  0
    2.2291   69.3954   68.4649 H   0  0  0  0  0  0  0  0  0  0  0  0
    1.8093   70.2027   66.8972 H   0  0  0  0  0  0  0  0  0  0  0  0
  2  1  1  0
  4  3  2  0
  5  4  1  0
  6  5  1  0
  7  6  1  0
  8  7  2  0
  9  8  1  0
  9  4  1  0
 10  8  1  0
 11 10  2  0
 12 11  1  0
 12  2  1  0
 13 12  2  0
 13  7  1  0
 14  1  1  0
 15 14  1  0
 16 15  1  0
 17 16  1  0
 18 17  2  0
 19 18  1  0
 20 19  2  0
 21 20  1  0
 21 17  1  0
 22 21  1  0
 23 22  1  0
 24 23  1  0
 25 24  1  0
 26 25  1  0
 27 26  1  0
 27 22  1  0
  1 28  1  0
  1 29  1  0
  5 30  1  0
  5 31  1  0
  6 32  1  0
  6 33  1  0
  9 34  1  0
 10 35  1  0
 11 36  1  0
 13 37  1  0
 14 38  1  0
 14 39  1  0
 15 40  1  0
 15 41  1  0
 16 42  1  0
 16 43  1  0
 22 44  1  0
 23 45  1  0
 23 46  1  0
 24 47  1  0
 24 48  1  0
 25 49  1  0
 25 50  1  0
 26 51  1  0
 26 52  1  0
 27 53  1  0
 27 54  1  0
M  END
>  <score>  (3) 
-10.076

$$$$
=
     RDKit          3D

 54 57  0  0  0  0  0  0  0  0999 V2000
    0.4440   66.0790   70.4460 C   0  0  0  0  0  0  0  0  0  0  0  0
    1.7540   65.5880   70.1790 O   0  0  0  0  0  0  0  0  0  0  0  0
    3.3430   58.2060   71.3620 O   0  0  0  0  0  0  0  0  0  0  0  0
    3.1840   59.3450   70.9290 C   0  0  0  0  0  0  0  0  0  0  0  0
    3.6630   59.7620   69.5580 C   0  0  0  0  0  0  0  0  0  0  0  0
    4.0820   61.2220   69.5190 C   0  0  0  0  0  0  0  0  0  0  0  0
    3.0490   62.1040   70.1640 C   0  0  0  0  0  0  0  0  0  0  0  0
    2.3020   61.6030   71.2350 C   0  0  0  0  0  0  0  0  0  0  0  0
    2.4650   60.2730   71.6320 N   0  0  0  0  0  0  0  0  0  0  0  0
    1.4180   62.4270   71.9260 C   0  0  0  0  0  0  0  0  0  0  0  0
    1.2660   63.7560   71.5280 C   0  0  0  0  0  0  0  0  0  0  0  0
    1.9950   64.2700   70.4530 C   0  0  0  0  0  0  0  0  0  0  0  0
    2.8990   63.4450   69.7800 C   0  0  0  0  0  0  0  0  0  0  0  0
   -0.3510   66.0960   69.1400 C   0  0  0  0  0  0  0  0  0  0  0  0
   -0.2770   67.4170   68.3620 C   0  0  0  0  0  0  0  0  0  0  0  0
    0.8990   67.4800   67.3850 C   0  0  0  0  0  0  0  0  0  0  0  0
    0.4820   68.0220   66.0650 C   0  0  0  0  0  0  0  0  0  0  0  0
   -0.7550   68.2060   65.6500 N   0  0  0  0  0  0  0  0  0  0  0  0
   -0.6670   68.7070   64.3760 N   0  0  0  0  0  0  0  0  0  0  0  0
    0.5970   68.8310   64.0020 N   0  0  0  0  0  0  0  0  0  0  0  0
    1.3220   68.4110   65.0530 N   0  0  0  0  0  0  0  0  0  0  0  0
    2.7720   68.4060   64.9990 C   0  0  0  0  0  0  0  0  0  0  0  0
    3.2840   68.5260   63.5510 C   0  0  0  0  0  0  0  0  0  0  0  0
    4.6930   69.1190   63.4510 C   0  0  0  0  0  0  0  0  0  0  0  0
    5.5370   68.7870   64.6740 C   0  0  0  0  0  0  0  0  0  0  0  0
    4.9230   69.3420   65.9610 C   0  0  0  0  0  0  0  0  0  0  0  0
    3.3990   69.4710   65.9080 C   0  0  0  0  0  0  0  0  0  0  0  0
   -0.0554   65.4232   71.1744 H   0  0  0  0  0  0  0  0  0  0  0  0
    0.5032   67.0960   70.8610 H   0  0  0  0  0  0  0  0  0  0  0  0
    4.5246   59.1380   69.2783 H   0  0  0  0  0  0  0  0  0  0  0  0
    2.8291   59.6298   68.8529 H   0  0  0  0  0  0  0  0  0  0  0  0
    5.0356   61.3356   70.0554 H   0  0  0  0  0  0  0  0  0  0  0  0
    4.1890   61.5246   68.4669 H   0  0  0  0  0  0  0  0  0  0  0  0
    2.0157   59.9725   72.5088 H   0  0  0  0  0  0  0  0  0  0  0  0
    0.8443   62.0340   72.7783 H   0  0  0  0  0  0  0  0  0  0  0  0
    0.5629   64.4073   72.0679 H   0  0  0  0  0  0  0  0  0  0  0  0
    3.4945   63.8475   68.9473 H   0  0  0  0  0  0  0  0  0  0  0  0
    0.0357   65.2950   68.4929 H   0  0  0  0  0  0  0  0  0  0  0  0
   -1.4065   65.9568   69.4166 H   0  0  0  0  0  0  0  0  0  0  0  0
   -1.2104   67.5396   67.7930 H   0  0  0  0  0  0  0  0  0  0  0  0
   -0.1315   68.2208   69.0987 H   0  0  0  0  0  0  0  0  0  0  0  0
    1.6802   68.1291   67.8073 H   0  0  0  0  0  0  0  0  0  0  0  0
    1.2779   66.4583   67.2346 H   0  0  0  0  0  0  0  0  0  0  0  0
    3.0969   67.4302   65.3893 H   0  0  0  0  0  0  0  0  0  0  0  0
    3.2954   67.5224   63.1009 H   0  0  0  0  0  0  0  0  0  0  0  0
    2.6051   69.2112   63.0223 H   0  0  0  0  0  0  0  0  0  0  0  0
    5.1874   68.7120   62.5566 H   0  0  0  0  0  0  0  0  0  0  0  0
    4.5987   70.2132   63.3888 H   0  0  0  0  0  0  0  0  0  0  0  0
    5.6196   67.6937   64.7625 H   0  0  0  0  0  0  0  0  0  0  0  0
    6.5255   69.2509   64.5412 H   0  0  0  0  0  0  0  0  0  0  0  0
    5.1862   68.6687   66.7901 H   0  0  0  0  0  0  0  0  0  0  0  0
    5.3274   70.3555   66.0998 H   0  0  0  0  0  0  0  0  0  0  0  0
    2.9956   69.3546   66.9247 H   0  0  0  0  0  0  0  0  0  0  0  0
    3.1522   70.4613   65.4977 H   0  0  0  0  0  0  0  0  0  0  0  0
  2  1  1  0
  4  3  2  0
  5  4  1  0
  6  5  1  0
  7  6  1  0
  8  7  2  0
  9  8  1  0
  9  4  1  0
 10  8  1  0
 11 10  2  0
 12 11  1  0
 12  2  1  0
 13 12  2  0
 13  7  1  0
 14  1  1  0
 15 14  1  0
 16 15  1  0
 17 16  1  0
 18 17  2  0
 19 18  1  0
 20 19  2  0
 21 20  1  0
 21 17  1  0
 22 21  1  0
 23 22  1  0
 24 23  1  0
 25 24  1  0
 26 25  1  0
 27 26  1  0
 27 22  1  0
  1 28  1  0
  1 29  1  0
  5 30  1  0
  5 31  1  0
  6 32  1  0
  6 33  1  0
  9 34  1  0
 10 35  1  0
 11 36  1  0
 13 37  1  0
 14 38  1  0
 14 39  1  0
 15 40  1  0
 15 41  1  0
 16 42  1  0
 16 43  1  0
 22 44  1  0
 23 45  1  0
 23 46  1  0
 24 47  1  0
 24 48  1  0
 25 49  1  0
 25 50  1  0
 26 51  1  0
 26 52  1  0
 27 53  1  0
 27 54  1  0
M  END
>  <score>  (4) 
-9.908

$$$$
=
     RDKit          3D

 54 57  0  0  0  0  0  0  0  0999 V2000
    0.9780   65.4040   70.2680 C   0  0  0  0  0  0  0  0  0  0  0  0
    2.2230   64.9570   70.7950 O   0  0  0  0  0  0  0  0  0  0  0  0
    3.7760   57.4880   70.3250 O   0  0  0  0  0  0  0  0  0  0  0  0
    3.5010   58.6380   70.6600 C   0  0  0  0  0  0  0  0  0  0  0  0
    3.1230   58.9980   72.0780 C   0  0  0  0  0  0  0  0  0  0  0  0
    2.1320   60.1480   72.1310 C   0  0  0  0  0  0  0  0  0  0  0  0
    2.5670   61.2830   71.2450 C   0  0  0  0  0  0  0  0  0  0  0  0
    3.2680   60.9980   70.0700 C   0  0  0  0  0  0  0  0  0  0  0  0
    3.6270   59.6780   69.7810 N   0  0  0  0  0  0  0  0  0  0  0  0
    3.5870   62.0130   69.1730 C   0  0  0  0  0  0  0  0  0  0  0  0
    3.2190   63.3280   69.4650 C   0  0  0  0  0  0  0  0  0  0  0  0
    2.5270   63.6330   70.6410 C   0  0  0  0  0  0  0  0  0  0  0  0
    2.1890   62.6060   71.5240 C   0  0  0  0  0  0  0  0  0  0  0  0
    1.1550   66.8180   69.7150 C   0  0  0  0  0  0  0  0  0  0  0  0
    0.2550   67.1560   68.5190 C   0  0  0  0  0  0  0  0  0  0  0  0
    0.7050   68.4010   67.7530 C   0  0  0  0  0  0  0  0  0  0  0  0
    0.0280   68.5030   66.4330 C   0  0  0  0  0  0  0  0  0  0  0  0
   -1.2570   68.7050   66.2260 N   0  0  0  0  0  0  0  0  0  0  0  0
   -1.4360   68.7140   64.8660 N   0  0  0  0  0  0  0  0  0  0  0  0
   -0.2870   68.5200   64.2370 N   0  0  0  0  0  0  0  0  0  0  0  0
    0.6340   68.3930   65.2080 N   0  0  0  0  0  0  0  0  0  0  0  0
    2.0290   68.1640   64.8800 C   0  0  0  0  0  0  0  0  0  0  0  0
    2.4140   66.6820   65.0450 C   0  0  0  0  0  0  0  0  0  0  0  0
    3.6100   66.2650   64.1830 C   0  0  0  0  0  0  0  0  0  0  0  0
    4.5750   67.4190   63.9530 C   0  0  0  0  0  0  0  0  0  0  0  0
    3.9060   68.5890   63.2290 C   0  0  0  0  0  0  0  0  0  0  0  0
    2.4010   68.6920   63.4880 C   0  0  0  0  0  0  0  0  0  0  0  0
    0.6547   64.7296   69.4614 H   0  0  0  0  0  0  0  0  0  0  0  0
    0.2161   65.4062   71.0614 H   0  0  0  0  0  0  0  0  0  0  0  0
    2.6711   58.1179   72.5589 H   0  0  0  0  0  0  0  0  0  0  0  0
    4.0369   59.3141   72.6022 H   0  0  0  0  0  0  0  0  0  0  0  0
    1.1476   59.7889   71.7965 H   0  0  0  0  0  0  0  0  0  0  0  0
    2.0799   60.5151   73.1666 H   0  0  0  0  0  0  0  0  0  0  0  0
    4.0107   59.4761   68.8467 H   0  0  0  0  0  0  0  0  0  0  0  0
    4.1246   61.7813   68.2417 H   0  0  0  0  0  0  0  0  0  0  0  0
    3.4766   64.1334   68.7615 H   0  0  0  0  0  0  0  0  0  0  0  0
    1.6251   62.8339   72.4406 H   0  0  0  0  0  0  0  0  0  0  0  0
    0.9344   67.5318   70.5224 H   0  0  0  0  0  0  0  0  0  0  0  0
    2.1914   66.8821   69.3519 H   0  0  0  0  0  0  0  0  0  0  0  0
    0.2585   66.3007   67.8272 H   0  0  0  0  0  0  0  0  0  0  0  0
   -0.7491   67.3647   68.9169 H   0  0  0  0  0  0  0  0  0  0  0  0
    0.4635   69.2938   68.3485 H   0  0  0  0  0  0  0  0  0  0  0  0
    1.7888   68.3269   67.5802 H   0  0  0  0  0  0  0  0  0  0  0  0
    2.6201   68.7445   65.6036 H   0  0  0  0  0  0  0  0  0  0  0  0
    2.6655   66.5024   66.1007 H   0  0  0  0  0  0  0  0  0  0  0  0
    1.5517   66.0836   64.7157 H   0  0  0  0  0  0  0  0  0  0  0  0
    4.1461   65.4491   64.6898 H   0  0  0  0  0  0  0  0  0  0  0  0
    3.2274   65.9409   63.2039 H   0  0  0  0  0  0  0  0  0  0  0  0
    4.9476   67.7700   64.9267 H   0  0  0  0  0  0  0  0  0  0  0  0
    5.3977   67.0535   63.3208 H   0  0  0  0  0  0  0  0  0  0  0  0
    4.3810   69.5227   63.5646 H   0  0  0  0  0  0  0  0  0  0  0  0
    4.0359   68.4168   62.1504 H   0  0  0  0  0  0  0  0  0  0  0  0
    2.0975   69.7467   63.4136 H   0  0  0  0  0  0  0  0  0  0  0  0
    1.8804   68.0790   62.7375 H   0  0  0  0  0  0  0  0  0  0  0  0
  2  1  1  0
  4  3  2  0
  5  4  1  0
  6  5  1  0
  7  6  1  0
  8  7  2  0
  9  8  1  0
  9  4  1  0
 10  8  1  0
 11 10  2  0
 12 11  1  0
 12  2  1  0
 13 12  2  0
 13  7  1  0
 14  1  1  0
 15 14  1  0
 16 15  1  0
 17 16  1  0
 18 17  2  0
 19 18  1  0
 20 19  2  0
 21 20  1  0
 21 17  1  0
 22 21  1  0
 23 22  1  0
 24 23  1  0
 25 24  1  0
 26 25  1  0
 27 26  1  0
 27 22  1  0
  1 28  1  0
  1 29  1  0
  5 30  1  0
  5 31  1  0
  6 32  1  0
  6 33  1  0
  9 34  1  0
 10 35  1  0
 11 36  1  0
 13 37  1  0
 14 38  1  0
 14 39  1  0
 15 40  1  0
 15 41  1  0
 16 42  1  0
 16 43  1  0
 22 44  1  0
 23 45  1  0
 23 46  1  0
 24 47  1  0
 24 48  1  0
 25 49  1  0
 25 50  1  0
 26 51  1  0
 26 52  1  0
 27 53  1  0
 27 54  1  0
M  END
>  <score>  (5) 
-9.867

$$$$
=
     RDKit          3D

 54 57  0  0  0  0  0  0  0  0999 V2000
   -0.0150   67.5850   68.2160 C   0  0  0  0  0  0  0  0  0  0  0  0
    0.4080   68.8870   67.8250 O   0  0  0  0  0  0  0  0  0  0  0  0
    5.6870   69.1450   62.3040 O   0  0  0  0  0  0  0  0  0  0  0  0
    4.7170   68.9330   63.0290 C   0  0  0  0  0  0  0  0  0  0  0  0
    3.5520   68.0780   62.5880 C   0  0  0  0  0  0  0  0  0  0  0  0
    2.2390   68.5450   63.1940 C   0  0  0  0  0  0  0  0  0  0  0  0
    2.3750   68.7810   64.6730 C   0  0  0  0  0  0  0  0  0  0  0  0
    3.5970   69.2340   65.1800 C   0  0  0  0  0  0  0  0  0  0  0  0
    4.6910   69.3780   64.3220 N   0  0  0  0  0  0  0  0  0  0  0  0
    3.7240   69.5690   66.5250 C   0  0  0  0  0  0  0  0  0  0  0  0
    2.6250   69.4290   67.3730 C   0  0  0  0  0  0  0  0  0  0  0  0
    1.3990   68.9670   66.8870 C   0  0  0  0  0  0  0  0  0  0  0  0
    1.2720   68.6560   65.5310 C   0  0  0  0  0  0  0  0  0  0  0  0
    1.0640   66.9620   69.1040 C   0  0  0  0  0  0  0  0  0  0  0  0
    0.5400   65.9610   70.1410 C   0  0  0  0  0  0  0  0  0  0  0  0
    1.5710   64.9010   70.5340 C   0  0  0  0  0  0  0  0  0  0  0  0
    1.0550   64.0120   71.6100 C   0  0  0  0  0  0  0  0  0  0  0  0
   -0.0940   64.1350   72.2430 N   0  0  0  0  0  0  0  0  0  0  0  0
   -0.1470   63.1110   73.1550 N   0  0  0  0  0  0  0  0  0  0  0  0
    0.9460   62.3660   73.0940 N   0  0  0  0  0  0  0  0  0  0  0  0
    1.7000   62.9180   72.1270 N   0  0  0  0  0  0  0  0  0  0  0  0
    2.9920   62.3530   71.7820 C   0  0  0  0  0  0  0  0  0  0  0  0
    3.6380   61.6430   72.9870 C   0  0  0  0  0  0  0  0  0  0  0  0
    4.6400   60.5560   72.5850 C   0  0  0  0  0  0  0  0  0  0  0  0
    5.3210   60.8720   71.2610 C   0  0  0  0  0  0  0  0  0  0  0  0
    4.3170   60.9810   70.1120 C   0  0  0  0  0  0  0  0  0  0  0  0
    2.9240   61.4350   70.5560 C   0  0  0  0  0  0  0  0  0  0  0  0
   -0.9592   67.6556   68.7759 H   0  0  0  0  0  0  0  0  0  0  0  0
   -0.1725   66.9598   67.3247 H   0  0  0  0  0  0  0  0  0  0  0  0
    3.4730   68.1241   61.4918 H   0  0  0  0  0  0  0  0  0  0  0  0
    3.7371   67.0496   62.9317 H   0  0  0  0  0  0  0  0  0  0  0  0
    1.9332   69.4831   62.7078 H   0  0  0  0  0  0  0  0  0  0  0  0
    1.4840   67.7610   63.0348 H   0  0  0  0  0  0  0  0  0  0  0  0
    5.5311   69.8493   64.6867 H   0  0  0  0  0  0  0  0  0  0  0  0
    4.6826   69.9409   66.9160 H   0  0  0  0  0  0  0  0  0  0  0  0
    2.7249   69.6856   68.4380 H   0  0  0  0  0  0  0  0  0  0  0  0
    0.3050   68.3123   65.1351 H   0  0  0  0  0  0  0  0  0  0  0  0
    1.7822   66.4392   68.4552 H   0  0  0  0  0  0  0  0  0  0  0  0
    1.5162   67.7892   69.6709 H   0  0  0  0  0  0  0  0  0  0  0  0
    0.2475   66.5156   71.0448 H   0  0  0  0  0  0  0  0  0  0  0  0
   -0.3109   65.4343   69.6843 H   0  0  0  0  0  0  0  0  0  0  0  0
    1.8112   64.2910   69.6507 H   0  0  0  0  0  0  0  0  0  0  0  0
    2.4680   65.4144   70.9106 H   0  0  0  0  0  0  0  0  0  0  0  0
    3.6405   63.1972   71.5048 H   0  0  0  0  0  0  0  0  0  0  0  0
    4.1635   62.3946   73.5944 H   0  0  0  0  0  0  0  0  0  0  0  0
    2.8293   61.1495   73.5460 H   0  0  0  0  0  0  0  0  0  0  0  0
    5.4076   60.4728   73.3685 H   0  0  0  0  0  0  0  0  0  0  0  0
    4.0887   59.6114   72.4674 H   0  0  0  0  0  0  0  0  0  0  0  0
    5.8567   61.8280   71.3564 H   0  0  0  0  0  0  0  0  0  0  0  0
    6.0136   60.0492   71.0302 H   0  0  0  0  0  0  0  0  0  0  0  0
    4.7027   61.7068   69.3809 H   0  0  0  0  0  0  0  0  0  0  0  0
    4.2066   59.9739   69.6836 H   0  0  0  0  0  0  0  0  0  0  0  0
    2.4458   61.9797   69.7286 H   0  0  0  0  0  0  0  0  0  0  0  0
    2.3421   60.5419   70.8276 H   0  0  0  0  0  0  0  0  0  0  0  0
  2  1  1  0
  4  3  2  0
  5  4  1  0
  6  5  1  0
  7  6  1  0
  8  7  2  0
  9  8  1  0
  9  4  1  0
 10  8  1  0
 11 10  2  0
 12 11  1  0
 12  2  1  0
 13 12  2  0
 13  7  1  0
 14  1  1  0
 15 14  1  0
 16 15  1  0
 17 16  1  0
 18 17  2  0
 19 18  1  0
 20 19  2  0
 21 20  1  0
 21 17  1  0
 22 21  1  0
 23 22  1  0
 24 23  1  0
 25 24  1  0
 26 25  1  0
 27 26  1  0
 27 22  1  0
  1 28  1  0
  1 29  1  0
  5 30  1  0
  5 31  1  0
  6 32  1  0
  6 33  1  0
  9 34  1  0
 10 35  1  0
 11 36  1  0
 13 37  1  0
 14 38  1  0
 14 39  1  0
 15 40  1  0
 15 41  1  0
 16 42  1  0
 16 43  1  0
 22 44  1  0
 23 45  1  0
 23 46  1  0
 24 47  1  0
 24 48  1  0
 25 49  1  0
 25 50  1  0
 26 51  1  0
 26 52  1  0
 27 53  1  0
 27 54  1  0
M  END
>  <score>  (6) 
-9.775

$$$$
=
     RDKit          3D

 54 57  0  0  0  0  0  0  0  0999 V2000
    0.0370   66.3110   69.2010 C   0  0  0  0  0  0  0  0  0  0  0  0
    0.5790   65.9990   70.4800 O   0  0  0  0  0  0  0  0  0  0  0  0
    3.7210   59.0700   71.2080 O   0  0  0  0  0  0  0  0  0  0  0  0
    3.3860   60.2080   70.8890 C   0  0  0  0  0  0  0  0  0  0  0  0
    4.0990   60.9870   69.8080 C   0  0  0  0  0  0  0  0  0  0  0  0
    4.0970   62.4810   70.0840 C   0  0  0  0  0  0  0  0  0  0  0  0
    2.7240   62.9640   70.4620 C   0  0  0  0  0  0  0  0  0  0  0  0
    1.8720   62.1070   71.1640 C   0  0  0  0  0  0  0  0  0  0  0  0
    2.2730   60.7940   71.4280 N   0  0  0  0  0  0  0  0  0  0  0  0
    0.6390   62.5590   71.6270 C   0  0  0  0  0  0  0  0  0  0  0  0
    0.2490   63.8730   71.3660 C   0  0  0  0  0  0  0  0  0  0  0  0
    1.0830   64.7410   70.6560 C   0  0  0  0  0  0  0  0  0  0  0  0
    2.3290   64.2880   70.2160 C   0  0  0  0  0  0  0  0  0  0  0  0
    0.6360   67.6330   68.7200 C   0  0  0  0  0  0  0  0  0  0  0  0
    1.3150   67.5660   67.3460 C   0  0  0  0  0  0  0  0  0  0  0  0
    1.5720   68.9420   66.7290 C   0  0  0  0  0  0  0  0  0  0  0  0
    2.9660   69.3990   66.9790 C   0  0  0  0  0  0  0  0  0  0  0  0
    3.4410   69.8770   68.1100 N   0  0  0  0  0  0  0  0  0  0  0  0
    4.7590   70.1810   67.8800 N   0  0  0  0  0  0  0  0  0  0  0  0
    5.0990   69.9000   66.6310 N   0  0  0  0  0  0  0  0  0  0  0  0
    3.9860   69.4060   66.0620 N   0  0  0  0  0  0  0  0  0  0  0  0
    3.9880   68.9860   64.6730 C   0  0  0  0  0  0  0  0  0  0  0  0
    5.1860   69.5770   63.9060 C   0  0  0  0  0  0  0  0  0  0  0  0
    5.5940   68.7480   62.6840 C   0  0  0  0  0  0  0  0  0  0  0  0
    4.4070   68.0220   62.0680 C   0  0  0  0  0  0  0  0  0  0  0  0
    3.7550   67.0500   63.0530 C   0  0  0  0  0  0  0  0  0  0  0  0
    3.9160   67.4620   64.5190 C   0  0  0  0  0  0  0  0  0  0  0  0
    0.2871   65.5111   68.4886 H   0  0  0  0  0  0  0  0  0  0  0  0
   -1.0571   66.4004   69.2709 H   0  0  0  0  0  0  0  0  0  0  0  0
    5.1407   60.6388   69.7484 H   0  0  0  0  0  0  0  0  0  0  0  0
    3.5663   60.8169   68.8607 H   0  0  0  0  0  0  0  0  0  0  0  0
    4.7919   62.6940   70.9097 H   0  0  0  0  0  0  0  0  0  0  0  0
    4.4096   63.0041   69.1682 H   0  0  0  0  0  0  0  0  0  0  0  0
    1.6942   60.2323   72.0686 H   0  0  0  0  0  0  0  0  0  0  0  0
   -0.0216   61.8862   72.1934 H   0  0  0  0  0  0  0  0  0  0  0  0
   -0.7278   64.2304   71.7238 H   0  0  0  0  0  0  0  0  0  0  0  0
    3.0018   64.9703   69.6757 H   0  0  0  0  0  0  0  0  0  0  0  0
   -0.1729   68.3766   68.6667 H   0  0  0  0  0  0  0  0  0  0  0  0
    1.4215   67.8996   69.4424 H   0  0  0  0  0  0  0  0  0  0  0  0
    2.2791   67.0483   67.4581 H   0  0  0  0  0  0  0  0  0  0  0  0
    0.6317   67.0295   66.6713 H   0  0  0  0  0  0  0  0  0  0  0  0
    1.4039   68.8842   65.6435 H   0  0  0  0  0  0  0  0  0  0  0  0
    0.8834   69.6631   67.1936 H   0  0  0  0  0  0  0  0  0  0  0  0
    3.0699   69.3897   64.2213 H   0  0  0  0  0  0  0  0  0  0  0  0
    4.9186   70.5889   63.5675 H   0  0  0  0  0  0  0  0  0  0  0  0
    6.0428   69.5825   64.5958 H   0  0  0  0  0  0  0  0  0  0  0  0
    6.0312   69.4185   61.9295 H   0  0  0  0  0  0  0  0  0  0  0  0
    6.3223   67.9921   63.0130 H   0  0  0  0  0  0  0  0  0  0  0  0
    3.6592   68.7657   61.7555 H   0  0  0  0  0  0  0  0  0  0  0  0
    4.7732   67.4404   61.2091 H   0  0  0  0  0  0  0  0  0  0  0  0
    2.6806   66.9917   62.8242 H   0  0  0  0  0  0  0  0  0  0  0  0
    4.2618   66.0811   62.9329 H   0  0  0  0  0  0  0  0  0  0  0  0
    3.0558   67.0857   65.0920 H   0  0  0  0  0  0  0  0  0  0  0  0
    4.8567   67.0336   64.8952 H   0  0  0  0  0  0  0  0  0  0  0  0
  2  1  1  0
  4  3  2  0
  5  4  1  0
  6  5  1  0
  7  6  1  0
  8  7  2  0
  9  8  1  0
  9  4  1  0
 10  8  1  0
 11 10  2  0
 12 11  1  0
 12  2  1  0
 13 12  2  0
 13  7  1  0
 14  1  1  0
 15 14  1  0
 16 15  1  0
 17 16  1  0
 18 17  2  0
 19 18  1  0
 20 19  2  0
 21 20  1  0
 21 17  1  0
 22 21  1  0
 23 22  1  0
 24 23  1  0
 25 24  1  0
 26 25  1  0
 27 26  1  0
 27 22  1  0
  1 28  1  0
  1 29  1  0
  5 30  1  0
  5 31  1  0
  6 32  1  0
  6 33  1  0
  9 34  1  0
 10 35  1  0
 11 36  1  0
 13 37  1  0
 14 38  1  0
 14 39  1  0
 15 40  1  0
 15 41  1  0
 16 42  1  0
 16 43  1  0
 22 44  1  0
 23 45  1  0
 23 46  1  0
 24 47  1  0
 24 48  1  0
 25 49  1  0
 25 50  1  0
 26 51  1  0
 26 52  1  0
 27 53  1  0
 27 54  1  0
M  END
>  <score>  (7) 
-9.528

$$$$
=
     RDKit          3D

 54 57  0  0  0  0  0  0  0  0999 V2000
    0.8270   68.0310   65.5230 C   0  0  0  0  0  0  0  0  0  0  0  0
    0.7990   68.7380   66.7590 O   0  0  0  0  0  0  0  0  0  0  0  0
    7.5540   71.6580   68.8220 O   0  0  0  0  0  0  0  0  0  0  0  0
    6.6150   71.0390   68.3280 C   0  0  0  0  0  0  0  0  0  0  0  0
    6.8030   70.0570   67.1950 C   0  0  0  0  0  0  0  0  0  0  0  0
    5.5990   70.0170   66.2680 C   0  0  0  0  0  0  0  0  0  0  0  0
    4.3160   69.9070   67.0450 C   0  0  0  0  0  0  0  0  0  0  0  0
    4.2290   70.5110   68.3030 C   0  0  0  0  0  0  0  0  0  0  0  0
    5.3550   71.1300   68.8530 N   0  0  0  0  0  0  0  0  0  0  0  0
    3.0230   70.5240   68.9980 C   0  0  0  0  0  0  0  0  0  0  0  0
    1.9020   69.9090   68.4390 C   0  0  0  0  0  0  0  0  0  0  0  0
    1.9730   69.2910   67.1880 C   0  0  0  0  0  0  0  0  0  0  0  0
    3.1800   69.3030   66.4850 C   0  0  0  0  0  0  0  0  0  0  0  0
    0.2180   68.9170   64.4350 C   0  0  0  0  0  0  0  0  0  0  0  0
    1.0450   69.0090   63.1460 C   0  0  0  0  0  0  0  0  0  0  0  0
    1.9240   67.7810   62.9000 C   0  0  0  0  0  0  0  0  0  0  0  0
    3.3450   68.1630   62.6810 C   0  0  0  0  0  0  0  0  0  0  0  0
    3.7790   69.2260   62.0360 N   0  0  0  0  0  0  0  0  0  0  0  0
    5.1490   69.1680   62.0680 N   0  0  0  0  0  0  0  0  0  0  0  0
    5.5620   68.0900   62.7180 N   0  0  0  0  0  0  0  0  0  0  0  0
    4.4410   67.4590   63.1090 N   0  0  0  0  0  0  0  0  0  0  0  0
    4.5130   66.2190   63.8590 C   0  0  0  0  0  0  0  0  0  0  0  0
    3.3780   66.1180   64.8970 C   0  0  0  0  0  0  0  0  0  0  0  0
    3.0260   64.6760   65.2730 C   0  0  0  0  0  0  0  0  0  0  0  0
    4.2300   63.7510   65.1720 C   0  0  0  0  0  0  0  0  0  0  0  0
    4.7970   63.7020   63.7520 C   0  0  0  0  0  0  0  0  0  0  0  0
    4.5580   64.9840   62.9510 C   0  0  0  0  0  0  0  0  0  0  0  0
    1.8667   67.7854   65.2609 H   0  0  0  0  0  0  0  0  0  0  0  0
    0.2502   67.0987   65.6124 H   0  0  0  0  0  0  0  0  0  0  0  0
    7.6889   70.3517   66.6134 H   0  0  0  0  0  0  0  0  0  0  0  0
    6.9278   69.0552   67.6319 H   0  0  0  0  0  0  0  0  0  0  0  0
    5.5772   70.9391   65.6686 H   0  0  0  0  0  0  0  0  0  0  0  0
    5.6892   69.1336   65.6188 H   0  0  0  0  0  0  0  0  0  0  0  0
    5.2281   71.6903   69.7079 H   0  0  0  0  0  0  0  0  0  0  0  0
    2.9542   71.0151   69.9799 H   0  0  0  0  0  0  0  0  0  0  0  0
    0.9502   69.9108   68.9904 H   0  0  0  0  0  0  0  0  0  0  0  0
    3.2401   68.8378   65.4900 H   0  0  0  0  0  0  0  0  0  0  0  0
   -0.7724   68.5129   64.1786 H   0  0  0  0  0  0  0  0  0  0  0  0
    0.1758   69.9347   64.8504 H   0  0  0  0  0  0  0  0  0  0  0  0
    0.3554   69.1202   62.2963 H   0  0  0  0  0  0  0  0  0  0  0  0
    1.7167   69.8737   63.2517 H   0  0  0  0  0  0  0  0  0  0  0  0
    1.8631   67.1168   63.7747 H   0  0  0  0  0  0  0  0  0  0  0  0
    1.5601   67.2716   61.9955 H   0  0  0  0  0  0  0  0  0  0  0  0
    5.4662   66.2395   64.4077 H   0  0  0  0  0  0  0  0  0  0  0  0
    3.6899   66.6499   65.8079 H   0  0  0  0  0  0  0  0  0  0  0  0
    2.4810   66.5639   64.4425 H   0  0  0  0  0  0  0  0  0  0  0  0
    2.6514   64.6599   66.3071 H   0  0  0  0  0  0  0  0  0  0  0  0
    2.2618   64.3176   64.5676 H   0  0  0  0  0  0  0  0  0  0  0  0
    5.0133   64.1116   65.8550 H   0  0  0  0  0  0  0  0  0  0  0  0
    3.9027   62.7363   65.4426 H   0  0  0  0  0  0  0  0  0  0  0  0
    5.8815   63.5296   63.8166 H   0  0  0  0  0  0  0  0  0  0  0  0
    4.2745   62.8905   63.2244 H   0  0  0  0  0  0  0  0  0  0  0  0
    5.3730   65.1065   62.2224 H   0  0  0  0  0  0  0  0  0  0  0  0
    3.5861   64.8955   62.4434 H   0  0  0  0  0  0  0  0  0  0  0  0
  2  1  1  0
  4  3  2  0
  5  4  1  0
  6  5  1  0
  7  6  1  0
  8  7  2  0
  9  8  1  0
  9  4  1  0
 10  8  1  0
 11 10  2  0
 12 11  1  0
 12  2  1  0
 13 12  2  0
 13  7  1  0
 14  1  1  0
 15 14  1  0
 16 15  1  0
 17 16  1  0
 18 17  2  0
 19 18  1  0
 20 19  2  0
 21 20  1  0
 21 17  1  0
 22 21  1  0
 23 22  1  0
 24 23  1  0
 25 24  1  0
 26 25  1  0
 27 26  1  0
 27 22  1  0
  1 28  1  0
  1 29  1  0
  5 30  1  0
  5 31  1  0
  6 32  1  0
  6 33  1  0
  9 34  1  0
 10 35  1  0
 11 36  1  0
 13 37  1  0
 14 38  1  0
 14 39  1  0
 15 40  1  0
 15 41  1  0
 16 42  1  0
 16 43  1  0
 22 44  1  0
 23 45  1  0
 23 46  1  0
 24 47  1  0
 24 48  1  0
 25 49  1  0
 25 50  1  0
 26 51  1  0
 26 52  1  0
 27 53  1  0
 27 54  1  0
M  END
>  <score>  (8) 
-9.493

$$$$
=
     RDKit          3D

 54 57  0  0  0  0  0  0  0  0999 V2000
    1.0710   68.0280   68.2010 C   0  0  0  0  0  0  0  0  0  0  0  0
    2.1830   68.7120   67.6320 O   0  0  0  0  0  0  0  0  0  0  0  0
    3.2020   68.7290   60.0580 O   0  0  0  0  0  0  0  0  0  0  0  0
    3.2840   68.8270   61.2800 C   0  0  0  0  0  0  0  0  0  0  0  0
    4.5530   69.2690   61.9710 C   0  0  0  0  0  0  0  0  0  0  0  0
    4.7180   68.6150   63.3330 C   0  0  0  0  0  0  0  0  0  0  0  0
    3.4510   68.7040   64.1380 C   0  0  0  0  0  0  0  0  0  0  0  0
    2.2200   68.6710   63.4750 C   0  0  0  0  0  0  0  0  0  0  0  0
    2.1880   68.6420   62.0780 N   0  0  0  0  0  0  0  0  0  0  0  0
    1.0300   68.6380   64.1950 C   0  0  0  0  0  0  0  0  0  0  0  0
    1.0710   68.6600   65.5900 C   0  0  0  0  0  0  0  0  0  0  0  0
    2.2910   68.7040   66.2700 C   0  0  0  0  0  0  0  0  0  0  0  0
    3.4820   68.7110   65.5410 C   0  0  0  0  0  0  0  0  0  0  0  0
    1.5090   67.3830   69.5170 C   0  0  0  0  0  0  0  0  0  0  0  0
    0.9100   65.9960   69.7820 C   0  0  0  0  0  0  0  0  0  0  0  0
    1.8430   65.0720   70.5660 C   0  0  0  0  0  0  0  0  0  0  0  0
    1.0810   64.1600   71.4620 C   0  0  0  0  0  0  0  0  0  0  0  0
    0.0420   64.4820   72.2040 N   0  0  0  0  0  0  0  0  0  0  0  0
   -0.3270   63.3410   72.8710 N   0  0  0  0  0  0  0  0  0  0  0  0
    0.4660   62.3290   72.5530 N   0  0  0  0  0  0  0  0  0  0  0  0
    1.3460   62.8310   71.6680 N   0  0  0  0  0  0  0  0  0  0  0  0
    2.3820   61.9910   71.0970 C   0  0  0  0  0  0  0  0  0  0  0  0
    2.3390   62.0070   69.5570 C   0  0  0  0  0  0  0  0  0  0  0  0
    3.6850   61.6750   68.9080 C   0  0  0  0  0  0  0  0  0  0  0  0
    4.5160   60.7340   69.7700 C   0  0  0  0  0  0  0  0  0  0  0  0
    4.8320   61.3400   71.1380 C   0  0  0  0  0  0  0  0  0  0  0  0
    3.7790   62.3390   71.6260 C   0  0  0  0  0  0  0  0  0  0  0  0
    0.2565   68.7420   68.3925 H   0  0  0  0  0  0  0  0  0  0  0  0
    0.7136   67.2536   67.5063 H   0  0  0  0  0  0  0  0  0  0  0  0
    5.4131   68.9985   61.3408 H   0  0  0  0  0  0  0  0  0  0  0  0
    4.4961   70.3572   62.1216 H   0  0  0  0  0  0  0  0  0  0  0  0
    4.9799   67.5559   63.1927 H   0  0  0  0  0  0  0  0  0  0  0  0
    5.5140   69.1434   63.8781 H   0  0  0  0  0  0  0  0  0  0  0  0
    1.2815   68.4704   61.6200 H   0  0  0  0  0  0  0  0  0  0  0  0
    0.0648   68.5949   63.6692 H   0  0  0  0  0  0  0  0  0  0  0  0
    0.1311   68.6425   66.1613 H   0  0  0  0  0  0  0  0  0  0  0  0
    4.4474   68.7220   66.0681 H   0  0  0  0  0  0  0  0  0  0  0  0
    2.6046   67.2860   69.5030 H   0  0  0  0  0  0  0  0  0  0  0  0
    1.1426   68.0382   70.3210 H   0  0  0  0  0  0  0  0  0  0  0  0
   -0.0199   66.1215   70.3561 H   0  0  0  0  0  0  0  0  0  0  0  0
    0.7337   65.5257   68.8034 H   0  0  0  0  0  0  0  0  0  0  0  0
    2.4282   64.4690   69.8561 H   0  0  0  0  0  0  0  0  0  0  0  0
    2.5029   65.6947   71.1878 H   0  0  0  0  0  0  0  0  0  0  0  0
    2.1694   60.9631   71.4258 H   0  0  0  0  0  0  0  0  0  0  0  0
    1.5979   61.2668   69.2211 H   0  0  0  0  0  0  0  0  0  0  0  0
    2.0738   63.0295   69.2501 H   0  0  0  0  0  0  0  0  0  0  0  0
    3.5018   61.1966   67.9346 H   0  0  0  0  0  0  0  0  0  0  0  0
    4.2465   62.6135   68.7900 H   0  0  0  0  0  0  0  0  0  0  0  0
    3.9558   59.7987   69.9166 H   0  0  0  0  0  0  0  0  0  0  0  0
    5.4685   60.5499   69.2515 H   0  0  0  0  0  0  0  0  0  0  0  0
    4.9026   60.5235   71.8717 H   0  0  0  0  0  0  0  0  0  0  0  0
    5.7769   61.8935   71.0343 H   0  0  0  0  0  0  0  0  0  0  0  0
    3.7576   62.3263   72.7257 H   0  0  0  0  0  0  0  0  0  0  0  0
    4.0506   63.3363   71.2496 H   0  0  0  0  0  0  0  0  0  0  0  0
  2  1  1  0
  4  3  2  0
  5  4  1  0
  6  5  1  0
  7  6  1  0
  8  7  2  0
  9  8  1  0
  9  4  1  0
 10  8  1  0
 11 10  2  0
 12 11  1  0
 12  2  1  0
 13 12  2  0
 13  7  1  0
 14  1  1  0
 15 14  1  0
 16 15  1  0
 17 16  1  0
 18 17  2  0
 19 18  1  0
 20 19  2  0
 21 20  1  0
 21 17  1  0
 22 21  1  0
 23 22  1  0
 24 23  1  0
 25 24  1  0
 26 25  1  0
 27 26  1  0
 27 22  1  0
  1 28  1  0
  1 29  1  0
  5 30  1  0
  5 31  1  0
  6 32  1  0
  6 33  1  0
  9 34  1  0
 10 35  1  0
 11 36  1  0
 13 37  1  0
 14 38  1  0
 14 39  1  0
 15 40  1  0
 15 41  1  0
 16 42  1  0
 16 43  1  0
 22 44  1  0
 23 45  1  0
 23 46  1  0
 24 47  1  0
 24 48  1  0
 25 49  1  0
 25 50  1  0
 26 51  1  0
 26 52  1  0
 27 53  1  0
 27 54  1  0
M  END
>  <score>  (9) 
-9.122

$$$$
