=
     RDKit          3D

 63 66  0  0  0  0  0  0  0  0999 V2000
    0.0350   65.9370   69.7980 C   0  0  0  0  0  0  0  0  0  0  0  0
    0.8710   64.9650   70.6530 C   0  0  2  0  0  0  0  0  0  0  0  0
    2.3320   64.9010   70.1920 C   0  0  0  0  0  0  0  0  0  0  0  0
    3.1390   63.8500   70.9460 C   0  0  0  0  0  0  0  0  0  0  0  0
    2.4990   62.4580   70.8870 N   0  0  1  0  0  4  0  0  0  0  0  0
    1.0490   62.5250   71.3650 C   0  0  0  0  0  0  0  0  0  0  0  0
    0.2410   63.5670   70.6000 C   0  0  0  0  0  0  0  0  0  0  0  0
    2.5830   61.8830   69.4730 C   0  0  0  0  0  0  0  0  0  0  0  0
    3.3260   61.5490   71.8490 C   0  0  0  0  0  0  0  0  0  0  0  0
    2.9950   60.0770   71.8550 C   0  0  0  0  0  0  0  0  0  0  0  0
    2.0610   59.5560   72.7650 C   0  0  0  0  0  0  0  0  0  0  0  0
    1.7510   58.1950   72.7640 C   0  0  0  0  0  0  0  0  0  0  0  0
    2.3740   57.3380   71.8600 C   0  0  0  0  0  0  0  0  0  0  0  0
    3.3140   57.8370   70.9630 C   0  0  0  0  0  0  0  0  0  0  0  0
    3.6280   59.1970   70.9620 C   0  0  0  0  0  0  0  0  0  0  0  0
    0.8110   67.1560   69.3010 C   0  0  0  0  0  0  0  0  0  0  0  0
   -0.3470   66.8550   67.2430 O   0  0  0  0  0  0  0  0  0  0  0  0
    0.6650   67.2860   67.7980 C   0  0  0  0  0  0  0  0  0  0  0  0
    1.7280   67.9540   66.9900 C   0  0  0  0  0  0  0  0  0  0  0  0
    2.5390   68.9680   67.5020 C   0  0  0  0  0  0  0  0  0  0  0  0
    3.5150   69.5480   66.6920 C   0  0  0  0  0  0  0  0  0  0  0  0
    3.6980   69.1270   65.3710 C   0  0  0  0  0  0  0  0  0  0  0  0
    2.8570   68.1530   64.8170 C   0  0  0  0  0  0  0  0  0  0  0  0
    1.8900   67.5590   65.6530 C   0  0  0  0  0  0  0  0  0  0  0  0
    2.9160   67.6860   63.3780 C   0  0  0  0  0  0  0  0  0  0  0  0
    3.4270   68.7240   62.3800 C   0  0  0  0  0  0  0  0  0  0  0  0
    4.9380   68.9260   62.4460 C   0  0  0  0  0  0  0  0  0  0  0  0
    5.4860   68.9390   63.8640 C   0  0  0  0  0  0  0  0  0  0  0  0
    4.7010   69.7810   64.7060 O   0  0  0  0  0  0  0  0  0  0  0  0
   -0.3445   65.3888   68.9231 H   0  0  0  0  0  0  0  0  0  0  0  0
   -0.7707   66.3156   70.4442 H   0  0  0  0  0  0  0  0  0  0  0  0
    0.8713   65.3394   71.6873 H   0  0  0  0  0  0  0  0  0  0  0  0
    2.3527   64.6584   69.1193 H   0  0  0  0  0  0  0  0  0  0  0  0
    2.7888   65.8809   70.3951 H   0  0  0  0  0  0  0  0  0  0  0  0
    4.1445   63.7941   70.5035 H   0  0  0  0  0  0  0  0  0  0  0  0
    3.1759   64.1542   72.0024 H   0  0  0  0  0  0  0  0  0  0  0  0
    0.5824   61.5392   71.2220 H   0  0  0  0  0  0  0  0  0  0  0  0
    1.0551   62.8133   72.4265 H   0  0  0  0  0  0  0  0  0  0  0  0
   -0.7675   63.6193   71.0362 H   0  0  0  0  0  0  0  0  0  0  0  0
    0.2140   63.2559   69.5453 H   0  0  0  0  0  0  0  0  0  0  0  0
    2.7418   60.7959   69.5281 H   0  0  0  0  0  0  0  0  0  0  0  0
    1.6451   62.0898   68.9367 H   0  0  0  0  0  0  0  0  0  0  0  0
    3.4225   62.3495   68.9367 H   0  0  0  0  0  0  0  0  0  0  0  0
    4.3856   61.6496   71.5712 H   0  0  0  0  0  0  0  0  0  0  0  0
    3.0758   61.9018   72.8604 H   0  0  0  0  0  0  0  0  0  0  0  0
    1.5692   60.2265   73.4851 H   0  0  0  0  0  0  0  0  0  0  0  0
    1.0139   57.7989   73.4780 H   0  0  0  0  0  0  0  0  0  0  0  0
    2.1232   56.2670   71.8549 H   0  0  0  0  0  0  0  0  0  0  0  0
    3.8103   57.1584   70.2536 H   0  0  0  0  0  0  0  0  0  0  0  0
    4.3778   59.5829   70.2557 H   0  0  0  0  0  0  0  0  0  0  0  0
    0.4161   68.0614   69.7850 H   0  0  0  0  0  0  0  0  0  0  0  0
    1.8751   67.0332   69.5511 H   0  0  0  0  0  0  0  0  0  0  0  0
    2.4089   69.3082   68.5399 H   0  0  0  0  0  0  0  0  0  0  0  0
    4.1504   70.3487   67.0983 H   0  0  0  0  0  0  0  0  0  0  0  0
    1.2456   66.7653   65.2470 H   0  0  0  0  0  0  0  0  0  0  0  0
    3.5814   66.8113   63.3306 H   0  0  0  0  0  0  0  0  0  0  0  0
    1.8791   67.4641   63.0852 H   0  0  0  0  0  0  0  0  0  0  0  0
    3.1622   68.3934   61.3648 H   0  0  0  0  0  0  0  0  0  0  0  0
    2.9565   69.6846   62.6367 H   0  0  0  0  0  0  0  0  0  0  0  0
    5.4232   68.1085   61.8926 H   0  0  0  0  0  0  0  0  0  0  0  0
    5.1525   69.9115   62.0069 H   0  0  0  0  0  0  0  0  0  0  0  0
    5.4716   67.9148   64.2649 H   0  0  0  0  0  0  0  0  0  0  0  0
    6.5147   69.3279   63.8394 H   0  0  0  0  0  0  0  0  0  0  0  0
  2  1  1  0
  3  2  1  0
  4  3  1  0
  5  4  1  0
  6  5  1  0
  7  2  1  0
  7  6  1  0
  5  8  1  6
  9  5  1  0
 10  9  1  0
 11 10  2  0
 12 11  1  0
 13 12  2  0
 14 13  1  0
 15 14  2  0
 15 10  1  0
 16  1  1  0
 18 17  2  0
 18 16  1  0
 19 18  1  0
 20 19  2  0
 21 20  1  0
 22 21  2  0
 23 22  1  0
 24 23  2  0
 24 19  1  0
 25 23  1  0
 26 25  1  0
 27 26  1  0
 28 27  1  0
 29 22  1  0
 29 28  1  0
  1 30  1  0
  1 31  1  0
  2 32  1  1
  3 33  1  0
  3 34  1  0
  4 35  1  0
  4 36  1  0
  6 37  1  0
  6 38  1  0
  7 39  1  0
  7 40  1  0
  8 41  1  0
  8 42  1  0
  8 43  1  0
  9 44  1  0
  9 45  1  0
 11 46  1  0
 12 47  1  0
 13 48  1  0
 14 49  1  0
 15 50  1  0
 16 51  1  0
 16 52  1  0
 20 53  1  0
 21 54  1  0
 24 55  1  0
 25 56  1  0
 25 57  1  0
 26 58  1  0
 26 59  1  0
 27 60  1  0
 27 61  1  0
 28 62  1  0
 28 63  1  0
M  CHG  1   5   1
M  END
>  <score>  (1) 
-10.947

$$$$
=
     RDKit          3D

 63 66  0  0  0  0  0  0  0  0999 V2000
   -0.3930   66.7210   69.2580 C   0  0  0  0  0  0  0  0  0  0  0  0
   -0.0190   67.6230   68.0660 C   0  0  2  0  0  0  0  0  0  0  0  0
   -0.6890   67.1690   66.7640 C   0  0  0  0  0  0  0  0  0  0  0  0
   -0.2280   67.9750   65.5550 C   0  0  0  0  0  0  0  0  0  0  0  0
    1.2970   67.9850   65.3960 N   0  0  1  0  0  4  0  0  0  0  0  0
    1.9580   68.4570   66.6910 C   0  0  0  0  0  0  0  0  0  0  0  0
    1.5050   67.6400   67.8970 C   0  0  0  0  0  0  0  0  0  0  0  0
    1.8090   66.6010   64.9950 C   0  0  0  0  0  0  0  0  0  0  0  0
    1.6170   68.9910   64.2490 C   0  0  0  0  0  0  0  0  0  0  0  0
    3.0210   68.9770   63.6950 C   0  0  0  0  0  0  0  0  0  0  0  0
    4.1140   69.3300   64.5020 C   0  0  0  0  0  0  0  0  0  0  0  0
    5.4120   69.3080   63.9890 C   0  0  0  0  0  0  0  0  0  0  0  0
    5.6330   68.9420   62.6640 C   0  0  0  0  0  0  0  0  0  0  0  0
    4.5580   68.6050   61.8470 C   0  0  0  0  0  0  0  0  0  0  0  0
    3.2580   68.6270   62.3550 C   0  0  0  0  0  0  0  0  0  0  0  0
    0.7570   66.4590   70.2280 C   0  0  0  0  0  0  0  0  0  0  0  0
   -0.5620   65.7850   72.0920 O   0  0  0  0  0  0  0  0  0  0  0  0
    0.3230   65.4730   71.2940 C   0  0  0  0  0  0  0  0  0  0  0  0
    0.9450   64.1170   71.3670 C   0  0  0  0  0  0  0  0  0  0  0  0
    0.2530   62.9940   71.8230 C   0  0  0  0  0  0  0  0  0  0  0  0
    0.8950   61.7560   71.8630 C   0  0  0  0  0  0  0  0  0  0  0  0
    2.2240   61.6200   71.4500 C   0  0  0  0  0  0  0  0  0  0  0  0
    2.9570   62.7440   71.0440 C   0  0  0  0  0  0  0  0  0  0  0  0
    2.2900   63.9840   70.9860 C   0  0  0  0  0  0  0  0  0  0  0  0
    4.4200   62.7210   70.6560 C   0  0  0  0  0  0  0  0  0  0  0  0
    5.2520   61.6320   71.3320 C   0  0  0  0  0  0  0  0  0  0  0  0
    5.0080   60.2430   70.7500 C   0  0  0  0  0  0  0  0  0  0  0  0
    3.5450   59.9640   70.4420 C   0  0  0  0  0  0  0  0  0  0  0  0
    2.7120   60.3440   71.5360 O   0  0  0  0  0  0  0  0  0  0  0  0
   -1.2100   67.2044   69.8137 H   0  0  0  0  0  0  0  0  0  0  0  0
   -0.6821   65.7460   68.8388 H   0  0  0  0  0  0  0  0  0  0  0  0
   -0.3850   68.6374   68.2827 H   0  0  0  0  0  0  0  0  0  0  0  0
   -0.4469   66.1095   66.5941 H   0  0  0  0  0  0  0  0  0  0  0  0
   -1.7722   67.3251   66.8749 H   0  0  0  0  0  0  0  0  0  0  0  0
   -0.6732   67.5368   64.6496 H   0  0  0  0  0  0  0  0  0  0  0  0
   -0.5528   69.0151   65.7061 H   0  0  0  0  0  0  0  0  0  0  0  0
    3.0490   68.3618   66.5876 H   0  0  0  0  0  0  0  0  0  0  0  0
    1.6631   69.5031   66.8603 H   0  0  0  0  0  0  0  0  0  0  0  0
    1.9541   68.0727   68.8031 H   0  0  0  0  0  0  0  0  0  0  0  0
    1.8314   66.6021   67.7348 H   0  0  0  0  0  0  0  0  0  0  0  0
    2.0261   66.0141   65.8996 H   0  0  0  0  0  0  0  0  0  0  0  0
    1.0422   66.0851   64.3984 H   0  0  0  0  0  0  0  0  0  0  0  0
    2.7269   66.7083   64.3984 H   0  0  0  0  0  0  0  0  0  0  0  0
    0.9303   68.7749   63.4173 H   0  0  0  0  0  0  0  0  0  0  0  0
    1.4994   69.9865   64.7020 H   0  0  0  0  0  0  0  0  0  0  0  0
    3.9461   69.6266   65.5479 H   0  0  0  0  0  0  0  0  0  0  0  0
    6.2615   69.5802   64.6326 H   0  0  0  0  0  0  0  0  0  0  0  0
    6.6571   68.9192   62.2630 H   0  0  0  0  0  0  0  0  0  0  0  0
    4.7331   68.3207   60.7989 H   0  0  0  0  0  0  0  0  0  0  0  0
    2.4123   68.3682   61.7010 H   0  0  0  0  0  0  0  0  0  0  0  0
    1.6125   66.0440   69.6749 H   0  0  0  0  0  0  0  0  0  0  0  0
    1.0462   67.4053   70.7084 H   0  0  0  0  0  0  0  0  0  0  0  0
   -0.7936   63.0846   72.1493 H   0  0  0  0  0  0  0  0  0  0  0  0
    0.3473   60.8734   72.2250 H   0  0  0  0  0  0  0  0  0  0  0  0
    2.8371   64.8707   70.6331 H   0  0  0  0  0  0  0  0  0  0  0  0
    4.4819   62.5713   69.5680 H   0  0  0  0  0  0  0  0  0  0  0  0
    4.8411   63.6806   70.9903 H   0  0  0  0  0  0  0  0  0  0  0  0
    6.3169   61.8798   71.2114 H   0  0  0  0  0  0  0  0  0  0  0  0
    4.9531   61.6009   72.3901 H   0  0  0  0  0  0  0  0  0  0  0  0
    5.5842   60.1498   69.8177 H   0  0  0  0  0  0  0  0  0  0  0  0
    5.3241   59.5131   71.5099 H   0  0  0  0  0  0  0  0  0  0  0  0
    3.2498   60.5351   69.5495 H   0  0  0  0  0  0  0  0  0  0  0  0
    3.4229   58.8850   70.2661 H   0  0  0  0  0  0  0  0  0  0  0  0
  2  1  1  0
  3  2  1  0
  4  3  1  0
  5  4  1  0
  6  5  1  0
  7  2  1  0
  7  6  1  0
  5  8  1  6
  9  5  1  0
 10  9  1  0
 11 10  2  0
 12 11  1  0
 13 12  2  0
 14 13  1  0
 15 14  2  0
 15 10  1  0
 16  1  1  0
 18 17  2  0
 18 16  1  0
 19 18  1  0
 20 19  2  0
 21 20  1  0
 22 21  2  0
 23 22  1  0
 24 23  2  0
 24 19  1  0
 25 23  1  0
 26 25  1  0
 27 26  1  0
 28 27  1  0
 29 22  1  0
 29 28  1  0
  1 30  1  0
  1 31  1  0
  2 32  1  1
  3 33  1  0
  3 34  1  0
  4 35  1  0
  4 36  1  0
  6 37  1  0
  6 38  1  0
  7 39  1  0
  7 40  1  0
  8 41  1  0
  8 42  1  0
  8 43  1  0
  9 44  1  0
  9 45  1  0
 11 46  1  0
 12 47  1  0
 13 48  1  0
 14 49  1  0
 15 50  1  0
 16 51  1  0
 16 52  1  0
 20 53  1  0
 21 54  1  0
 24 55  1  0
 25 56  1  0
 25 57  1  0
 26 58  1  0
 26 59  1  0
 27 60  1  0
 27 61  1  0
 28 62  1  0
 28 63  1  0
M  CHG  1   5   1
M  END
>  <score>  (2) 
-10.854

$$$$
=
     RDKit          3D

 63 66  0  0  0  0  0  0  0  0999 V2000
    0.6590   67.1050   69.2920 C   0  0  0  0  0  0  0  0  0  0  0  0
    0.9450   65.6170   69.5750 C   0  0  2  0  0  0  0  0  0  0  0  0
   -0.3030   64.8710   70.0620 C   0  0  0  0  0  0  0  0  0  0  0  0
   -0.0050   63.4310   70.4660 C   0  0  0  0  0  0  0  0  0  0  0  0
    1.1180   63.3280   71.5050 N   0  0  1  0  0  4  0  0  0  0  0  0
    2.3650   64.0570   71.0050 C   0  0  0  0  0  0  0  0  0  0  0  0
    2.0670   65.5010   70.6150 C   0  0  0  0  0  0  0  0  0  0  0  0
    0.6620   63.8870   72.8530 C   0  0  0  0  0  0  0  0  0  0  0  0
    1.4310   61.8090   71.6700 C   0  0  0  0  0  0  0  0  0  0  0  0
    2.8710   61.3840   71.5170 C   0  0  0  0  0  0  0  0  0  0  0  0
    3.7640   61.4770   72.5960 C   0  0  0  0  0  0  0  0  0  0  0  0
    5.0930   61.0750   72.4550 C   0  0  0  0  0  0  0  0  0  0  0  0
    5.5480   60.5850   71.2330 C   0  0  0  0  0  0  0  0  0  0  0  0
    4.6790   60.5030   70.1490 C   0  0  0  0  0  0  0  0  0  0  0  0
    3.3490   60.9050   70.2870 C   0  0  0  0  0  0  0  0  0  0  0  0
    0.1020   67.3780   67.8960 C   0  0  0  0  0  0  0  0  0  0  0  0
   -0.3680   69.6300   67.2870 O   0  0  0  0  0  0  0  0  0  0  0  0
    0.4980   68.7690   67.4420 C   0  0  0  0  0  0  0  0  0  0  0  0
    1.9330   69.1070   67.2080 C   0  0  0  0  0  0  0  0  0  0  0  0
    2.6070   68.7620   66.0360 C   0  0  0  0  0  0  0  0  0  0  0  0
    3.9490   69.1120   65.8810 C   0  0  0  0  0  0  0  0  0  0  0  0
    4.6320   69.8080   66.8830 C   0  0  0  0  0  0  0  0  0  0  0  0
    3.9930   70.1150   68.0920 C   0  0  0  0  0  0  0  0  0  0  0  0
    2.6310   69.7760   68.2260 C   0  0  0  0  0  0  0  0  0  0  0  0
    4.6620   70.7910   69.2700 C   0  0  0  0  0  0  0  0  0  0  0  0
    6.1640   70.5410   69.3920 C   0  0  0  0  0  0  0  0  0  0  0  0
    6.9880   71.3350   68.3830 C   0  0  0  0  0  0  0  0  0  0  0  0
    6.3630   71.3870   66.9980 C   0  0  0  0  0  0  0  0  0  0  0  0
    5.9370   70.0910   66.5830 O   0  0  0  0  0  0  0  0  0  0  0  0
   -0.0720   67.4632   70.0318 H   0  0  0  0  0  0  0  0  0  0  0  0
    1.6225   67.6316   69.3579 H   0  0  0  0  0  0  0  0  0  0  0  0
    1.2570   65.1478   68.6303 H   0  0  0  0  0  0  0  0  0  0  0  0
   -0.7143   65.4032   70.9324 H   0  0  0  0  0  0  0  0  0  0  0  0
   -1.0201   64.8416   69.2284 H   0  0  0  0  0  0  0  0  0  0  0  0
   -0.9184   62.9883   70.8900 H   0  0  0  0  0  0  0  0  0  0  0  0
    0.3264   62.8949   69.5645 H   0  0  0  0  0  0  0  0  0  0  0  0
    3.1217   64.0541   71.8033 H   0  0  0  0  0  0  0  0  0  0  0  0
    2.7283   63.5320   70.1092 H   0  0  0  0  0  0  0  0  0  0  0  0
    2.9811   65.9479   70.1970 H   0  0  0  0  0  0  0  0  0  0  0  0
    1.7334   66.0267   71.5219 H   0  0  0  0  0  0  0  0  0  0  0  0
    1.1306   63.3125   73.6656 H   0  0  0  0  0  0  0  0  0  0  0  0
    0.9596   64.9431   72.9316 H   0  0  0  0  0  0  0  0  0  0  0  0
   -0.4323   63.8076   72.9316 H   0  0  0  0  0  0  0  0  0  0  0  0
    1.1023   61.5102   72.6763 H   0  0  0  0  0  0  0  0  0  0  0  0
    0.8992   61.3170   70.8423 H   0  0  0  0  0  0  0  0  0  0  0  0
    3.4131   61.8703   73.5615 H   0  0  0  0  0  0  0  0  0  0  0  0
    5.7819   61.1452   73.3097 H   0  0  0  0  0  0  0  0  0  0  0  0
    6.5942   60.2629   71.1248 H   0  0  0  0  0  0  0  0  0  0  0  0
    5.0403   60.1212   69.1827 H   0  0  0  0  0  0  0  0  0  0  0  0
    2.6695   60.8458   69.4240 H   0  0  0  0  0  0  0  0  0  0  0  0
    0.5059   66.6362   67.1913 H   0  0  0  0  0  0  0  0  0  0  0  0
   -0.9953   67.3067   67.9251 H   0  0  0  0  0  0  0  0  0  0  0  0
    2.0827   68.2164   65.2376 H   0  0  0  0  0  0  0  0  0  0  0  0
    4.4775   68.8361   64.9565 H   0  0  0  0  0  0  0  0  0  0  0  0
    2.1014   70.0427   69.1525 H   0  0  0  0  0  0  0  0  0  0  0  0
    4.5034   71.8754   69.1760 H   0  0  0  0  0  0  0  0  0  0  0  0
    4.2047   70.3585   70.1721 H   0  0  0  0  0  0  0  0  0  0  0  0
    6.4846   70.8240   70.4055 H   0  0  0  0  0  0  0  0  0  0  0  0
    6.3360   69.4739   69.1878 H   0  0  0  0  0  0  0  0  0  0  0  0
    7.0966   72.3645   68.7551 H   0  0  0  0  0  0  0  0  0  0  0  0
    7.9569   70.8240   68.2822 H   0  0  0  0  0  0  0  0  0  0  0  0
    5.4945   72.0617   67.0199 H   0  0  0  0  0  0  0  0  0  0  0  0
    7.1168   71.7540   66.2858 H   0  0  0  0  0  0  0  0  0  0  0  0
  2  1  1  0
  3  2  1  0
  4  3  1  0
  5  4  1  0
  6  5  1  0
  7  2  1  0
  7  6  1  0
  5  8  1  1
  9  5  1  0
 10  9  1  0
 11 10  2  0
 12 11  1  0
 13 12  2  0
 14 13  1  0
 15 14  2  0
 15 10  1  0
 16  1  1  0
 18 17  2  0
 18 16  1  0
 19 18  1  0
 20 19  2  0
 21 20  1  0
 22 21  2  0
 23 22  1  0
 24 23  2  0
 24 19  1  0
 25 23  1  0
 26 25  1  0
 27 26  1  0
 28 27  1  0
 29 22  1  0
 29 28  1  0
  1 30  1  0
  1 31  1  0
  2 32  1  6
  3 33  1  0
  3 34  1  0
  4 35  1  0
  4 36  1  0
  6 37  1  0
  6 38  1  0
  7 39  1  0
  7 40  1  0
  8 41  1  0
  8 42  1  0
  8 43  1  0
  9 44  1  0
  9 45  1  0
 11 46  1  0
 12 47  1  0
 13 48  1  0
 14 49  1  0
 15 50  1  0
 16 51  1  0
 16 52  1  0
 20 53  1  0
 21 54  1  0
 24 55  1  0
 25 56  1  0
 25 57  1  0
 26 58  1  0
 26 59  1  0
 27 60  1  0
 27 61  1  0
 28 62  1  0
 28 63  1  0
M  CHG  1   5   1
M  END
>  <score>  (3) 
-10.643

$$$$
=
     RDKit          3D

 63 66  0  0  0  0  0  0  0  0999 V2000
    0.1510   65.9950   69.8660 C   0  0  0  0  0  0  0  0  0  0  0  0
    0.7660   64.9690   70.8370 C   0  0  2  0  0  0  0  0  0  0  0  0
    0.7170   63.5420   70.2770 C   0  0  0  0  0  0  0  0  0  0  0  0
    1.2060   62.5010   71.2790 C   0  0  0  0  0  0  0  0  0  0  0  0
    0.4640   62.5760   72.6190 N   0  0  1  0  0  4  0  0  0  0  0  0
    0.5330   63.9950   73.1800 C   0  0  0  0  0  0  0  0  0  0  0  0
    0.0300   65.0320   72.1810 C   0  0  0  0  0  0  0  0  0  0  0  0
   -0.9870   62.1200   72.4600 C   0  0  0  0  0  0  0  0  0  0  0  0
    1.1960   61.5950   73.5850 C   0  0  0  0  0  0  0  0  0  0  0  0
    2.3370   60.7900   73.0120 C   0  0  0  0  0  0  0  0  0  0  0  0
    2.1190   59.5010   72.4990 C   0  0  0  0  0  0  0  0  0  0  0  0
    3.1740   58.7620   71.9620 C   0  0  0  0  0  0  0  0  0  0  0  0
    4.4600   59.2980   71.9380 C   0  0  0  0  0  0  0  0  0  0  0  0
    4.6950   60.5670   72.4570 C   0  0  0  0  0  0  0  0  0  0  0  0
    3.6420   61.3090   72.9960 C   0  0  0  0  0  0  0  0  0  0  0  0
    1.0910   67.1390   69.4890 C   0  0  0  0  0  0  0  0  0  0  0  0
   -0.3720   67.5500   67.6570 O   0  0  0  0  0  0  0  0  0  0  0  0
    0.7790   67.6270   68.0880 C   0  0  0  0  0  0  0  0  0  0  0  0
    1.8520   68.2220   67.2380 C   0  0  0  0  0  0  0  0  0  0  0  0
    2.7190   69.2120   67.7010 C   0  0  0  0  0  0  0  0  0  0  0  0
    3.7020   69.7230   66.8540 C   0  0  0  0  0  0  0  0  0  0  0  0
    3.8360   69.2550   65.5430 C   0  0  0  0  0  0  0  0  0  0  0  0
    2.9410   68.3030   65.0360 C   0  0  0  0  0  0  0  0  0  0  0  0
    1.9670   67.7790   65.9110 C   0  0  0  0  0  0  0  0  0  0  0  0
    2.9470   67.7910   63.6120 C   0  0  0  0  0  0  0  0  0  0  0  0
    3.4810   68.7750   62.5720 C   0  0  0  0  0  0  0  0  0  0  0  0
    5.0010   68.9100   62.6000 C   0  0  0  0  0  0  0  0  0  0  0  0
    5.5800   68.9400   64.0050 C   0  0  0  0  0  0  0  0  0  0  0  0
    4.8520   69.8420   64.8370 O   0  0  0  0  0  0  0  0  0  0  0  0
   -0.1387   65.4682   68.9448 H   0  0  0  0  0  0  0  0  0  0  0  0
   -0.7071   66.4475   70.3846 H   0  0  0  0  0  0  0  0  0  0  0  0
    1.8259   65.2289   70.9754 H   0  0  0  0  0  0  0  0  0  0  0  0
   -0.3221   63.3065   70.0033 H   0  0  0  0  0  0  0  0  0  0  0  0
    1.3854   63.5037   69.4042 H   0  0  0  0  0  0  0  0  0  0  0  0
    1.0551   61.5000   70.8486 H   0  0  0  0  0  0  0  0  0  0  0  0
    2.2693   62.7027   71.4759 H   0  0  0  0  0  0  0  0  0  0  0  0
   -0.0857   64.0479   74.0880 H   0  0  0  0  0  0  0  0  0  0  0  0
    1.5866   64.2209   73.4012 H   0  0  0  0  0  0  0  0  0  0  0  0
    0.1721   66.0337   72.6128 H   0  0  0  0  0  0  0  0  0  0  0  0
   -1.0314   64.8176   71.9875 H   0  0  0  0  0  0  0  0  0  0  0  0
   -1.4378   61.9783   73.4533 H   0  0  0  0  0  0  0  0  0  0  0  0
   -1.5527   62.8837   71.9061 H   0  0  0  0  0  0  0  0  0  0  0  0
   -1.0142   61.1700   71.9061 H   0  0  0  0  0  0  0  0  0  0  0  0
    1.5959   62.1889   74.4201 H   0  0  0  0  0  0  0  0  0  0  0  0
    0.4356   60.8514   73.8657 H   0  0  0  0  0  0  0  0  0  0  0  0
    1.1073   59.0698   72.5207 H   0  0  0  0  0  0  0  0  0  0  0  0
    2.9903   57.7557   71.5574 H   0  0  0  0  0  0  0  0  0  0  0  0
    5.2897   58.7174   71.5085 H   0  0  0  0  0  0  0  0  0  0  0  0
    5.7117   60.9866   72.4428 H   0  0  0  0  0  0  0  0  0  0  0  0
    3.8363   62.3087   73.4117 H   0  0  0  0  0  0  0  0  0  0  0  0
    0.9602   67.9674   70.2008 H   0  0  0  0  0  0  0  0  0  0  0  0
    2.1297   66.7785   69.5225 H   0  0  0  0  0  0  0  0  0  0  0  0
    2.6276   69.5883   68.7306 H   0  0  0  0  0  0  0  0  0  0  0  0
    4.3817   70.5054   67.2224 H   0  0  0  0  0  0  0  0  0  0  0  0
    1.2794   67.0028   65.5440 H   0  0  0  0  0  0  0  0  0  0  0  0
    3.5719   66.8864   63.5777 H   0  0  0  0  0  0  0  0  0  0  0  0
    1.8951   67.6069   63.3481 H   0  0  0  0  0  0  0  0  0  0  0  0
    3.1789   68.4269   61.5732 H   0  0  0  0  0  0  0  0  0  0  0  0
    3.0597   69.7631   62.8089 H   0  0  0  0  0  0  0  0  0  0  0  0
    5.4367   68.0553   62.0618 H   0  0  0  0  0  0  0  0  0  0  0  0
    5.2498   69.8711   62.1264 H   0  0  0  0  0  0  0  0  0  0  0  0
    5.5283   67.9299   64.4374 H   0  0  0  0  0  0  0  0  0  0  0  0
    6.6244   69.2805   63.9473 H   0  0  0  0  0  0  0  0  0  0  0  0
  2  1  1  0
  3  2  1  0
  4  3  1  0
  5  4  1  0
  6  5  1  0
  7  2  1  0
  7  6  1  0
  5  8  1  6
  9  5  1  0
 10  9  1  0
 11 10  2  0
 12 11  1  0
 13 12  2  0
 14 13  1  0
 15 14  2  0
 15 10  1  0
 16  1  1  0
 18 17  2  0
 18 16  1  0
 19 18  1  0
 20 19  2  0
 21 20  1  0
 22 21  2  0
 23 22  1  0
 24 23  2  0
 24 19  1  0
 25 23  1  0
 26 25  1  0
 27 26  1  0
 28 27  1  0
 29 22  1  0
 29 28  1  0
  1 30  1  0
  1 31  1  0
  2 32  1  1
  3 33  1  0
  3 34  1  0
  4 35  1  0
  4 36  1  0
  6 37  1  0
  6 38  1  0
  7 39  1  0
  7 40  1  0
  8 41  1  0
  8 42  1  0
  8 43  1  0
  9 44  1  0
  9 45  1  0
 11 46  1  0
 12 47  1  0
 13 48  1  0
 14 49  1  0
 15 50  1  0
 16 51  1  0
 16 52  1  0
 20 53  1  0
 21 54  1  0
 24 55  1  0
 25 56  1  0
 25 57  1  0
 26 58  1  0
 26 59  1  0
 27 60  1  0
 27 61  1  0
 28 62  1  0
 28 63  1  0
M  CHG  1   5   1
M  END
>  <score>  (4) 
-9.969

$$$$
=
     RDKit          3D

 63 66  0  0  0  0  0  0  0  0999 V2000
   -0.6890   65.7930   70.0920 C   0  0  0  0  0  0  0  0  0  0  0  0
    0.0050   66.2660   68.8000 C   0  0  2  0  0  0  0  0  0  0  0  0
    1.1620   67.2320   69.0860 C   0  0  0  0  0  0  0  0  0  0  0  0
    1.7750   67.8050   67.8130 C   0  0  0  0  0  0  0  0  0  0  0  0
    0.7350   68.4700   66.9030 N   0  0  1  0  0  4  0  0  0  0  0  0
   -0.4040   67.4960   66.6060 C   0  0  0  0  0  0  0  0  0  0  0  0
   -1.0250   66.9350   67.8820 C   0  0  0  0  0  0  0  0  0  0  0  0
    0.2040   69.7560   67.5360 C   0  0  0  0  0  0  0  0  0  0  0  0
    1.4740   68.8300   65.5770 C   0  0  0  0  0  0  0  0  0  0  0  0
    2.9360   69.1890   65.6820 C   0  0  0  0  0  0  0  0  0  0  0  0
    3.4850   69.6130   66.9020 C   0  0  0  0  0  0  0  0  0  0  0  0
    4.8400   69.9360   66.9980 C   0  0  0  0  0  0  0  0  0  0  0  0
    5.6590   69.8470   65.8760 C   0  0  0  0  0  0  0  0  0  0  0  0
    5.1270   69.4440   64.6550 C   0  0  0  0  0  0  0  0  0  0  0  0
    3.7720   69.1210   64.5550 C   0  0  0  0  0  0  0  0  0  0  0  0
    0.1120   66.0600   71.3650 C   0  0  0  0  0  0  0  0  0  0  0  0
   -0.3530   64.5450   73.1400 O   0  0  0  0  0  0  0  0  0  0  0  0
    0.3160   64.7680   72.1310 C   0  0  0  0  0  0  0  0  0  0  0  0
    1.3050   63.7560   71.6550 C   0  0  0  0  0  0  0  0  0  0  0  0
    2.2280   64.0210   70.6420 C   0  0  0  0  0  0  0  0  0  0  0  0
    3.1260   63.0290   70.2480 C   0  0  0  0  0  0  0  0  0  0  0  0
    3.1190   61.7690   70.8540 C   0  0  0  0  0  0  0  0  0  0  0  0
    2.1630   61.4600   71.8310 C   0  0  0  0  0  0  0  0  0  0  0  0
    1.2770   62.4790   72.2370 C   0  0  0  0  0  0  0  0  0  0  0  0
    2.0160   60.1050   72.4910 C   0  0  0  0  0  0  0  0  0  0  0  0
    2.4540   58.9170   71.6340 C   0  0  0  0  0  0  0  0  0  0  0  0
    3.9700   58.7780   71.5340 C   0  0  0  0  0  0  0  0  0  0  0  0
    4.6910   60.1070   71.3710 C   0  0  0  0  0  0  0  0  0  0  0  0
    4.0650   60.9060   70.3690 O   0  0  0  0  0  0  0  0  0  0  0  0
   -1.6543   66.3137   70.1759 H   0  0  0  0  0  0  0  0  0  0  0  0
   -0.8000   64.7016   70.0106 H   0  0  0  0  0  0  0  0  0  0  0  0
    0.4333   65.3825   68.3040 H   0  0  0  0  0  0  0  0  0  0  0  0
    0.7839   68.0627   69.6999 H   0  0  0  0  0  0  0  0  0  0  0  0
    1.9472   66.6662   69.6088 H   0  0  0  0  0  0  0  0  0  0  0  0
    2.5293   68.5553   68.0924 H   0  0  0  0  0  0  0  0  0  0  0  0
    2.2205   66.9694   67.2533 H   0  0  0  0  0  0  0  0  0  0  0  0
   -1.1821   68.0234   66.0347 H   0  0  0  0  0  0  0  0  0  0  0  0
    0.0103   66.6543   66.0317 H   0  0  0  0  0  0  0  0  0  0  0  0
   -1.7851   66.1897   67.6047 H   0  0  0  0  0  0  0  0  0  0  0  0
   -1.4633   67.7785   68.4355 H   0  0  0  0  0  0  0  0  0  0  0  0
    0.2405   69.6675   68.6318 H   0  0  0  0  0  0  0  0  0  0  0  0
    0.8248   70.6058   67.2159 H   0  0  0  0  0  0  0  0  0  0  0  0
   -0.8355   69.9202   67.2159 H   0  0  0  0  0  0  0  0  0  0  0  0
    1.3930   67.9621   64.9060 H   0  0  0  0  0  0  0  0  0  0  0  0
    0.9811   69.7443   65.2150 H   0  0  0  0  0  0  0  0  0  0  0  0
    2.8418   69.6916   67.7909 H   0  0  0  0  0  0  0  0  0  0  0  0
    5.2606   70.2610   67.9610 H   0  0  0  0  0  0  0  0  0  0  0  0
    6.7277   70.0955   65.9546 H   0  0  0  0  0  0  0  0  0  0  0  0
    5.7742   69.3798   63.7679 H   0  0  0  0  0  0  0  0  0  0  0  0
    3.3557   68.8106   63.5853 H   0  0  0  0  0  0  0  0  0  0  0  0
    1.0915   66.4828   71.0969 H   0  0  0  0  0  0  0  0  0  0  0  0
   -0.4413   66.7704   71.9969 H   0  0  0  0  0  0  0  0  0  0  0  0
    2.2471   65.0079   70.1565 H   0  0  0  0  0  0  0  0  0  0  0  0
    3.8508   63.2413   69.4482 H   0  0  0  0  0  0  0  0  0  0  0  0
    0.5449   62.2677   73.0304 H   0  0  0  0  0  0  0  0  0  0  0  0
    2.6221   60.1052   73.4090 H   0  0  0  0  0  0  0  0  0  0  0  0
    0.9404   59.9693   72.6773 H   0  0  0  0  0  0  0  0  0  0  0  0
    2.0465   57.9964   72.0773 H   0  0  0  0  0  0  0  0  0  0  0  0
    2.0724   59.0881   70.6166 H   0  0  0  0  0  0  0  0  0  0  0  0
    4.3365   58.2931   72.4508 H   0  0  0  0  0  0  0  0  0  0  0  0
    4.1819   58.1822   70.6339 H   0  0  0  0  0  0  0  0  0  0  0  0
    4.6697   60.6481   72.3285 H   0  0  0  0  0  0  0  0  0  0  0  0
    5.7287   59.9087   71.0648 H   0  0  0  0  0  0  0  0  0  0  0  0
  2  1  1  0
  3  2  1  0
  4  3  1  0
  5  4  1  0
  6  5  1  0
  7  2  1  0
  7  6  1  0
  5  8  1  1
  9  5  1  0
 10  9  1  0
 11 10  2  0
 12 11  1  0
 13 12  2  0
 14 13  1  0
 15 14  2  0
 15 10  1  0
 16  1  1  0
 18 17  2  0
 18 16  1  0
 19 18  1  0
 20 19  2  0
 21 20  1  0
 22 21  2  0
 23 22  1  0
 24 23  2  0
 24 19  1  0
 25 23  1  0
 26 25  1  0
 27 26  1  0
 28 27  1  0
 29 22  1  0
 29 28  1  0
  1 30  1  0
  1 31  1  0
  2 32  1  6
  3 33  1  0
  3 34  1  0
  4 35  1  0
  4 36  1  0
  6 37  1  0
  6 38  1  0
  7 39  1  0
  7 40  1  0
  8 41  1  0
  8 42  1  0
  8 43  1  0
  9 44  1  0
  9 45  1  0
 11 46  1  0
 12 47  1  0
 13 48  1  0
 14 49  1  0
 15 50  1  0
 16 51  1  0
 16 52  1  0
 20 53  1  0
 21 54  1  0
 24 55  1  0
 25 56  1  0
 25 57  1  0
 26 58  1  0
 26 59  1  0
 27 60  1  0
 27 61  1  0
 28 62  1  0
 28 63  1  0
M  CHG  1   5   1
M  END
>  <score>  (5) 
-9.895

$$$$
=
     RDKit          3D

 63 66  0  0  0  0  0  0  0  0999 V2000
    1.2150   66.3020   69.7240 C   0  0  0  0  0  0  0  0  0  0  0  0
    1.4600   65.0750   70.6250 C   0  0  2  0  0  0  0  0  0  0  0  0
    2.8850   64.5270   70.4800 C   0  0  0  0  0  0  0  0  0  0  0  0
    3.1010   63.2400   71.2680 C   0  0  0  0  0  0  0  0  0  0  0  0
    2.0730   62.1550   70.9230 N   0  0  1  0  0  4  0  0  0  0  0  0
    0.6560   62.7020   71.0880 C   0  0  0  0  0  0  0  0  0  0  0  0
    0.4380   63.9820   70.2880 C   0  0  0  0  0  0  0  0  0  0  0  0
    2.2950   61.6300   69.5040 C   0  0  0  0  0  0  0  0  0  0  0  0
    2.3050   60.9890   71.9320 C   0  0  0  0  0  0  0  0  0  0  0  0
    1.3330   60.8720   73.0810 C   0  0  0  0  0  0  0  0  0  0  0  0
    1.5660   61.5500   74.2880 C   0  0  0  0  0  0  0  0  0  0  0  0
    0.6610   61.4470   75.3460 C   0  0  0  0  0  0  0  0  0  0  0  0
   -0.4810   60.6610   75.2150 C   0  0  0  0  0  0  0  0  0  0  0  0
   -0.7160   59.9690   74.0300 C   0  0  0  0  0  0  0  0  0  0  0  0
    0.1870   60.0690   72.9700 C   0  0  0  0  0  0  0  0  0  0  0  0
   -0.2220   66.4280   69.2190 C   0  0  0  0  0  0  0  0  0  0  0  0
   -1.2500   67.0890   67.1770 O   0  0  0  0  0  0  0  0  0  0  0  0
   -0.2400   67.1370   67.8790 C   0  0  0  0  0  0  0  0  0  0  0  0
    0.9510   67.9110   67.4180 C   0  0  0  0  0  0  0  0  0  0  0  0
    1.4960   68.9650   68.1530 C   0  0  0  0  0  0  0  0  0  0  0  0
    2.6120   69.6450   67.6640 C   0  0  0  0  0  0  0  0  0  0  0  0
    3.1970   69.2860   66.4460 C   0  0  0  0  0  0  0  0  0  0  0  0
    2.6320   68.2700   65.6620 C   0  0  0  0  0  0  0  0  0  0  0  0
    1.5190   67.5760   66.1790 C   0  0  0  0  0  0  0  0  0  0  0  0
    3.1360   67.8600   64.2950 C   0  0  0  0  0  0  0  0  0  0  0  0
    3.8230   68.9680   63.4980 C   0  0  0  0  0  0  0  0  0  0  0  0
    5.2300   69.2810   63.9970 C   0  0  0  0  0  0  0  0  0  0  0  0
    5.3490   69.2850   65.5130 C   0  0  0  0  0  0  0  0  0  0  0  0
    4.2900   70.0360   66.1040 O   0  0  0  0  0  0  0  0  0  0  0  0
    1.4598   67.2073   70.2990 H   0  0  0  0  0  0  0  0  0  0  0  0
    1.8533   66.1768   68.8369 H   0  0  0  0  0  0  0  0  0  0  0  0
    1.3390   65.3940   71.6707 H   0  0  0  0  0  0  0  0  0  0  0  0
    3.0784   64.3254   69.4161 H   0  0  0  0  0  0  0  0  0  0  0  0
    3.5754   65.2834   70.8815 H   0  0  0  0  0  0  0  0  0  0  0  0
    4.1071   62.8553   71.0447 H   0  0  0  0  0  0  0  0  0  0  0  0
    2.9849   63.4804   72.3351 H   0  0  0  0  0  0  0  0  0  0  0  0
   -0.0601   61.9417   70.7427 H   0  0  0  0  0  0  0  0  0  0  0  0
    0.5059   62.9379   72.1519 H   0  0  0  0  0  0  0  0  0  0  0  0
   -0.5702   64.3646   70.5050 H   0  0  0  0  0  0  0  0  0  0  0  0
    0.5593   63.7320   69.2237 H   0  0  0  0  0  0  0  0  0  0  0  0
    2.7230   60.6178   69.5503 H   0  0  0  0  0  0  0  0  0  0  0  0
    1.3336   61.5975   68.9705 H   0  0  0  0  0  0  0  0  0  0  0  0
    2.9881   62.2971   68.9705 H   0  0  0  0  0  0  0  0  0  0  0  0
    2.2637   60.0470   71.3654 H   0  0  0  0  0  0  0  0  0  0  0  0
    3.2760   61.2066   72.4009 H   0  0  0  0  0  0  0  0  0  0  0  0
    2.4692   62.1676   74.4011 H   0  0  0  0  0  0  0  0  0  0  0  0
    0.8504   61.9878   76.2850 H   0  0  0  0  0  0  0  0  0  0  0  0
   -1.1968   60.5869   76.0470 H   0  0  0  0  0  0  0  0  0  0  0  0
   -1.6145   59.3425   73.9288 H   0  0  0  0  0  0  0  0  0  0  0  0
   -0.0012   59.5135   72.0394 H   0  0  0  0  0  0  0  0  0  0  0  0
   -0.6578   65.4244   69.1061 H   0  0  0  0  0  0  0  0  0  0  0  0
   -0.8098   67.0104   69.9438 H   0  0  0  0  0  0  0  0  0  0  0  0
    1.0476   69.2583   69.1137 H   0  0  0  0  0  0  0  0  0  0  0  0
    3.0379   70.4759   68.2455 H   0  0  0  0  0  0  0  0  0  0  0  0
    1.0845   66.7505   65.5962 H   0  0  0  0  0  0  0  0  0  0  0  0
    3.8567   67.0400   64.4294 H   0  0  0  0  0  0  0  0  0  0  0  0
    2.2471   67.5715   63.7148 H   0  0  0  0  0  0  0  0  0  0  0  0
    3.8867   68.6541   62.4457 H   0  0  0  0  0  0  0  0  0  0  0  0
    3.2214   69.8808   63.6203 H   0  0  0  0  0  0  0  0  0  0  0  0
    5.9185   68.5227   63.5957 H   0  0  0  0  0  0  0  0  0  0  0  0
    5.4782   70.2950   63.6503 H   0  0  0  0  0  0  0  0  0  0  0  0
    5.3049   68.2492   65.8806 H   0  0  0  0  0  0  0  0  0  0  0  0
    6.3068   69.7499   65.7895 H   0  0  0  0  0  0  0  0  0  0  0  0
  2  1  1  0
  3  2  1  0
  4  3  1  0
  5  4  1  0
  6  5  1  0
  7  2  1  0
  7  6  1  0
  5  8  1  6
  9  5  1  0
 10  9  1  0
 11 10  2  0
 12 11  1  0
 13 12  2  0
 14 13  1  0
 15 14  2  0
 15 10  1  0
 16  1  1  0
 18 17  2  0
 18 16  1  0
 19 18  1  0
 20 19  2  0
 21 20  1  0
 22 21  2  0
 23 22  1  0
 24 23  2  0
 24 19  1  0
 25 23  1  0
 26 25  1  0
 27 26  1  0
 28 27  1  0
 29 22  1  0
 29 28  1  0
  1 30  1  0
  1 31  1  0
  2 32  1  1
  3 33  1  0
  3 34  1  0
  4 35  1  0
  4 36  1  0
  6 37  1  0
  6 38  1  0
  7 39  1  0
  7 40  1  0
  8 41  1  0
  8 42  1  0
  8 43  1  0
  9 44  1  0
  9 45  1  0
 11 46  1  0
 12 47  1  0
 13 48  1  0
 14 49  1  0
 15 50  1  0
 16 51  1  0
 16 52  1  0
 20 53  1  0
 21 54  1  0
 24 55  1  0
 25 56  1  0
 25 57  1  0
 26 58  1  0
 26 59  1  0
 27 60  1  0
 27 61  1  0
 28 62  1  0
 28 63  1  0
M  CHG  1   5   1
M  END
>  <score>  (6) 
-9.867

$$$$
=
     RDKit          3D

 63 66  0  0  0  0  0  0  0  0999 V2000
    0.3290   66.0050   70.6850 C   0  0  0  0  0  0  0  0  0  0  0  0
    0.5650   66.3860   69.2110 C   0  0  2  0  0  0  0  0  0  0  0  0
    1.4160   67.6540   69.0700 C   0  0  0  0  0  0  0  0  0  0  0  0
    1.5510   68.1120   67.6220 C   0  0  0  0  0  0  0  0  0  0  0  0
    0.1950   68.3000   66.9320 N   0  0  1  0  0  4  0  0  0  0  0  0
   -0.6410   67.0260   67.0590 C   0  0  0  0  0  0  0  0  0  0  0  0
   -0.7860   66.5780   68.5100 C   0  0  0  0  0  0  0  0  0  0  0  0
   -0.5490   69.5020   67.5160 C   0  0  0  0  0  0  0  0  0  0  0  0
    0.4980   68.5790   65.4280 C   0  0  0  0  0  0  0  0  0  0  0  0
    1.8350   68.1170   64.9000 C   0  0  0  0  0  0  0  0  0  0  0  0
    2.8440   69.0440   64.5950 C   0  0  0  0  0  0  0  0  0  0  0  0
    4.0820   68.6140   64.1150 C   0  0  0  0  0  0  0  0  0  0  0  0
    4.3240   67.2550   63.9260 C   0  0  0  0  0  0  0  0  0  0  0  0
    3.3280   66.3250   64.2090 C   0  0  0  0  0  0  0  0  0  0  0  0
    2.0880   66.7520   64.6890 C   0  0  0  0  0  0  0  0  0  0  0  0
    0.2560   64.5000   70.9370 C   0  0  0  0  0  0  0  0  0  0  0  0
    2.6060   64.6000   70.5710 O   0  0  0  0  0  0  0  0  0  0  0  0
    1.6490   63.9010   70.9040 C   0  0  0  0  0  0  0  0  0  0  0  0
    1.8680   62.4770   71.2970 C   0  0  0  0  0  0  0  0  0  0  0  0
    2.8570   61.6800   70.7190 C   0  0  0  0  0  0  0  0  0  0  0  0
    3.0090   60.3570   71.1350 C   0  0  0  0  0  0  0  0  0  0  0  0
    2.1850   59.8150   72.1270 C   0  0  0  0  0  0  0  0  0  0  0  0
    1.1470   60.5780   72.6790 C   0  0  0  0  0  0  0  0  0  0  0  0
    1.0200   61.9200   72.2670 C   0  0  0  0  0  0  0  0  0  0  0  0
    0.1510   60.0630   73.6960 C   0  0  0  0  0  0  0  0  0  0  0  0
   -0.1340   58.5640   73.6220 C   0  0  0  0  0  0  0  0  0  0  0  0
    0.9920   57.7100   74.1960 C   0  0  0  0  0  0  0  0  0  0  0  0
    2.3800   58.2120   73.8290 C   0  0  0  0  0  0  0  0  0  0  0  0
    2.4620   58.5100   72.4370 O   0  0  0  0  0  0  0  0  0  0  0  0
    1.1549   66.4158   71.2843 H   0  0  0  0  0  0  0  0  0  0  0  0
   -0.6493   66.4213   70.9672 H   0  0  0  0  0  0  0  0  0  0  0  0
    1.1227   65.5654   68.7360 H   0  0  0  0  0  0  0  0  0  0  0  0
    0.9458   68.4603   69.6521 H   0  0  0  0  0  0  0  0  0  0  0  0
    2.4250   67.4208   69.4409 H   0  0  0  0  0  0  0  0  0  0  0  0
    2.0904   69.0705   67.6049 H   0  0  0  0  0  0  0  0  0  0  0  0
    2.0962   67.3286   67.0752 H   0  0  0  0  0  0  0  0  0  0  0  0
   -1.6421   67.2157   66.6445 H   0  0  0  0  0  0  0  0  0  0  0  0
   -0.1259   66.2260   66.5070 H   0  0  0  0  0  0  0  0  0  0  0  0
   -1.3312   65.6228   68.5300 H   0  0  0  0  0  0  0  0  0  0  0  0
   -1.3287   67.3691   69.0481 H   0  0  0  0  0  0  0  0  0  0  0  0
   -0.5189   69.4534   68.6145 H   0  0  0  0  0  0  0  0  0  0  0  0
   -0.0679   70.4312   67.1767 H   0  0  0  0  0  0  0  0  0  0  0  0
   -1.5953   69.4858   67.1767 H   0  0  0  0  0  0  0  0  0  0  0  0
   -0.2830   68.0812   64.8345 H   0  0  0  0  0  0  0  0  0  0  0  0
    0.5200   69.6753   65.3401 H   0  0  0  0  0  0  0  0  0  0  0  0
    2.6573   70.1189   64.7356 H   0  0  0  0  0  0  0  0  0  0  0  0
    4.8676   69.3490   63.8856 H   0  0  0  0  0  0  0  0  0  0  0  0
    5.3022   66.9171   63.5531 H   0  0  0  0  0  0  0  0  0  0  0  0
    3.5177   65.2526   64.0544 H   0  0  0  0  0  0  0  0  0  0  0  0
    1.3025   66.0125   64.9037 H   0  0  0  0  0  0  0  0  0  0  0  0
   -0.1960   64.3171   71.9230 H   0  0  0  0  0  0  0  0  0  0  0  0
   -0.3574   64.0317   70.1531 H   0  0  0  0  0  0  0  0  0  0  0  0
    3.5137   62.0929   69.9391 H   0  0  0  0  0  0  0  0  0  0  0  0
    3.7883   59.7308   70.6761 H   0  0  0  0  0  0  0  0  0  0  0  0
    0.2362   62.5469   72.7172 H   0  0  0  0  0  0  0  0  0  0  0  0
    0.5422   60.2864   74.6995 H   0  0  0  0  0  0  0  0  0  0  0  0
   -0.8013   60.5673   73.4749 H   0  0  0  0  0  0  0  0  0  0  0  0
   -1.0544   58.3547   74.1868 H   0  0  0  0  0  0  0  0  0  0  0  0
   -0.2338   58.3020   72.5583 H   0  0  0  0  0  0  0  0  0  0  0  0
    0.9017   57.7055   75.2923 H   0  0  0  0  0  0  0  0  0  0  0  0
    0.8871   56.7033   73.7653 H   0  0  0  0  0  0  0  0  0  0  0  0
    2.5976   59.1231   74.4057 H   0  0  0  0  0  0  0  0  0  0  0  0
    3.1117   57.4248   74.0635 H   0  0  0  0  0  0  0  0  0  0  0  0
  2  1  1  0
  3  2  1  0
  4  3  1  0
  5  4  1  0
  6  5  1  0
  7  2  1  0
  7  6  1  0
  5  8  1  1
  9  5  1  0
 10  9  1  0
 11 10  2  0
 12 11  1  0
 13 12  2  0
 14 13  1  0
 15 14  2  0
 15 10  1  0
 16  1  1  0
 18 17  2  0
 18 16  1  0
 19 18  1  0
 20 19  2  0
 21 20  1  0
 22 21  2  0
 23 22  1  0
 24 23  2  0
 24 19  1  0
 25 23  1  0
 26 25  1  0
 27 26  1  0
 28 27  1  0
 29 22  1  0
 29 28  1  0
  1 30  1  0
  1 31  1  0
  2 32  1  6
  3 33  1  0
  3 34  1  0
  4 35  1  0
  4 36  1  0
  6 37  1  0
  6 38  1  0
  7 39  1  0
  7 40  1  0
  8 41  1  0
  8 42  1  0
  8 43  1  0
  9 44  1  0
  9 45  1  0
 11 46  1  0
 12 47  1  0
 13 48  1  0
 14 49  1  0
 15 50  1  0
 16 51  1  0
 16 52  1  0
 20 53  1  0
 21 54  1  0
 24 55  1  0
 25 56  1  0
 25 57  1  0
 26 58  1  0
 26 59  1  0
 27 60  1  0
 27 61  1  0
 28 62  1  0
 28 63  1  0
M  CHG  1   5   1
M  END
>  <score>  (7) 
-9.71

$$$$
=
     RDKit          3D

 63 66  0  0  0  0  0  0  0  0999 V2000
    2.1360   63.2390   71.4810 C   0  0  0  0  0  0  0  0  0  0  0  0
    2.0750   62.1640   72.5830 C   0  0  2  0  0  0  0  0  0  0  0  0
    3.4170   61.4450   72.7650 C   0  0  0  0  0  0  0  0  0  0  0  0
    3.3370   60.2950   73.7620 C   0  0  0  0  0  0  0  0  0  0  0  0
    2.2330   59.2880   73.4160 N   0  0  1  0  0  4  0  0  0  0  0  0
    0.8950   60.0080   73.2560 C   0  0  0  0  0  0  0  0  0  0  0  0
    0.9750   61.1490   72.2470 C   0  0  0  0  0  0  0  0  0  0  0  0
    2.5900   58.5080   72.1500 C   0  0  0  0  0  0  0  0  0  0  0  0
    2.1520   58.2920   74.6140 C   0  0  0  0  0  0  0  0  0  0  0  0
    1.3980   57.0040   74.3850 C   0  0  0  0  0  0  0  0  0  0  0  0
    2.0770   55.7770   74.3300 C   0  0  0  0  0  0  0  0  0  0  0  0
    1.3760   54.5860   74.1270 C   0  0  0  0  0  0  0  0  0  0  0  0
   -0.0070   54.6090   73.9690 C   0  0  0  0  0  0  0  0  0  0  0  0
   -0.6920   55.8200   74.0060 C   0  0  0  0  0  0  0  0  0  0  0  0
    0.0050   57.0130   74.2080 C   0  0  0  0  0  0  0  0  0  0  0  0
    0.7960   63.5090   70.7980 C   0  0  0  0  0  0  0  0  0  0  0  0
   -0.0460   65.2410   72.1970 O   0  0  0  0  0  0  0  0  0  0  0  0
    0.3510   64.9320   71.0730 C   0  0  0  0  0  0  0  0  0  0  0  0
    0.4130   65.9640   69.9960 C   0  0  0  0  0  0  0  0  0  0  0  0
    1.4870   66.8440   69.8570 C   0  0  0  0  0  0  0  0  0  0  0  0
    1.4810   67.7840   68.8250 C   0  0  0  0  0  0  0  0  0  0  0  0
    0.4140   67.8580   67.9240 C   0  0  0  0  0  0  0  0  0  0  0  0
   -0.7020   67.0240   68.0800 C   0  0  0  0  0  0  0  0  0  0  0  0
   -0.6730   66.0640   69.1110 C   0  0  0  0  0  0  0  0  0  0  0  0
   -1.9410   67.0780   67.2120 C   0  0  0  0  0  0  0  0  0  0  0  0
   -2.2520   68.4480   66.6110 C   0  0  0  0  0  0  0  0  0  0  0  0
   -1.3390   68.8110   65.4440 C   0  0  0  0  0  0  0  0  0  0  0  0
    0.1140   68.4190   65.6670 C   0  0  0  0  0  0  0  0  0  0  0  0
    0.5570   68.8210   66.9620 O   0  0  0  0  0  0  0  0  0  0  0  0
    2.4886   64.1777   71.9333 H   0  0  0  0  0  0  0  0  0  0  0  0
    2.8168   62.8594   70.7049 H   0  0  0  0  0  0  0  0  0  0  0  0
    1.8447   62.6682   73.5331 H   0  0  0  0  0  0  0  0  0  0  0  0
    3.7371   61.0453   71.7915 H   0  0  0  0  0  0  0  0  0  0  0  0
    4.1360   62.1779   73.1598 H   0  0  0  0  0  0  0  0  0  0  0  0
    4.3030   59.7690   73.7709 H   0  0  0  0  0  0  0  0  0  0  0  0
    3.0988   60.7243   74.7463 H   0  0  0  0  0  0  0  0  0  0  0  0
    0.1411   59.2838   72.9136 H   0  0  0  0  0  0  0  0  0  0  0  0
    0.6221   60.4368   74.2315 H   0  0  0  0  0  0  0  0  0  0  0  0
    0.0074   61.6720   72.2305 H   0  0  0  0  0  0  0  0  0  0  0  0
    1.2180   60.7092   71.2685 H   0  0  0  0  0  0  0  0  0  0  0  0
    3.0329   57.5403   72.4282 H   0  0  0  0  0  0  0  0  0  0  0  0
    1.6803   58.3375   71.5556 H   0  0  0  0  0  0  0  0  0  0  0  0
    3.3136   59.0851   71.5556 H   0  0  0  0  0  0  0  0  0  0  0  0
    3.1819   58.0279   74.8962 H   0  0  0  0  0  0  0  0  0  0  0  0
    1.5805   58.8235   75.3892 H   0  0  0  0  0  0  0  0  0  0  0  0
    3.1704   55.7530   74.4477 H   0  0  0  0  0  0  0  0  0  0  0  0
    1.9172   53.6290   74.0919 H   0  0  0  0  0  0  0  0  0  0  0  0
   -0.5585   53.6698   73.8149 H   0  0  0  0  0  0  0  0  0  0  0  0
   -1.7841   55.8373   73.8759 H   0  0  0  0  0  0  0  0  0  0  0  0
   -0.5415   57.9674   74.2286 H   0  0  0  0  0  0  0  0  0  0  0  0
    0.9046   63.3646   69.7129 H   0  0  0  0  0  0  0  0  0  0  0  0
    0.0423   62.8123   71.1936 H   0  0  0  0  0  0  0  0  0  0  0  0
    2.3341   66.7972   70.5571 H   0  0  0  0  0  0  0  0  0  0  0  0
    2.3285   68.4771   68.7189 H   0  0  0  0  0  0  0  0  0  0  0  0
   -1.5229   65.3751   69.2257 H   0  0  0  0  0  0  0  0  0  0  0  0
   -1.8090   66.3650   66.3848 H   0  0  0  0  0  0  0  0  0  0  0  0
   -2.7874   66.8330   67.8705 H   0  0  0  0  0  0  0  0  0  0  0  0
   -3.2924   68.4456   66.2539 H   0  0  0  0  0  0  0  0  0  0  0  0
   -2.0890   69.1969   67.4001 H   0  0  0  0  0  0  0  0  0  0  0  0
   -1.7042   68.2967   64.5429 H   0  0  0  0  0  0  0  0  0  0  0  0
   -1.3669   69.9056   65.3391 H   0  0  0  0  0  0  0  0  0  0  0  0
    0.2103   67.3270   65.5764 H   0  0  0  0  0  0  0  0  0  0  0  0
    0.7340   68.9236   64.9113 H   0  0  0  0  0  0  0  0  0  0  0  0
  2  1  1  0
  3  2  1  0
  4  3  1  0
  5  4  1  0
  6  5  1  0
  7  2  1  0
  7  6  1  0
  5  8  1  6
  9  5  1  0
 10  9  1  0
 11 10  2  0
 12 11  1  0
 13 12  2  0
 14 13  1  0
 15 14  2  0
 15 10  1  0
 16  1  1  0
 18 17  2  0
 18 16  1  0
 19 18  1  0
 20 19  2  0
 21 20  1  0
 22 21  2  0
 23 22  1  0
 24 23  2  0
 24 19  1  0
 25 23  1  0
 26 25  1  0
 27 26  1  0
 28 27  1  0
 29 22  1  0
 29 28  1  0
  1 30  1  0
  1 31  1  0
  2 32  1  1
  3 33  1  0
  3 34  1  0
  4 35  1  0
  4 36  1  0
  6 37  1  0
  6 38  1  0
  7 39  1  0
  7 40  1  0
  8 41  1  0
  8 42  1  0
  8 43  1  0
  9 44  1  0
  9 45  1  0
 11 46  1  0
 12 47  1  0
 13 48  1  0
 14 49  1  0
 15 50  1  0
 16 51  1  0
 16 52  1  0
 20 53  1  0
 21 54  1  0
 24 55  1  0
 25 56  1  0
 25 57  1  0
 26 58  1  0
 26 59  1  0
 27 60  1  0
 27 61  1  0
 28 62  1  0
 28 63  1  0
M  CHG  1   5   1
M  END
>  <score>  (8) 
-9.567

$$$$
=
     RDKit          3D

 63 66  0  0  0  0  0  0  0  0999 V2000
    0.0640   66.0630   70.5480 C   0  0  0  0  0  0  0  0  0  0  0  0
    0.3580   66.4170   69.0780 C   0  0  2  0  0  0  0  0  0  0  0  0
    1.3100   67.6120   68.9500 C   0  0  0  0  0  0  0  0  0  0  0  0
    1.5080   68.0530   67.5040 C   0  0  0  0  0  0  0  0  0  0  0  0
    0.1850   68.3450   66.7870 N   0  0  1  0  0  4  0  0  0  0  0  0
   -0.7520   67.1430   66.9010 C   0  0  0  0  0  0  0  0  0  0  0  0
   -0.9600   66.7130   68.3500 C   0  0  0  0  0  0  0  0  0  0  0  0
   -0.4710   69.6040   67.3530 C   0  0  0  0  0  0  0  0  0  0  0  0
    0.5380   68.5920   65.2880 C   0  0  0  0  0  0  0  0  0  0  0  0
    1.8910   68.1200   64.8150 C   0  0  0  0  0  0  0  0  0  0  0  0
    2.1440   66.7540   64.6150 C   0  0  0  0  0  0  0  0  0  0  0  0
    3.3940   66.3210   64.1690 C   0  0  0  0  0  0  0  0  0  0  0  0
    4.4080   67.2450   63.9270 C   0  0  0  0  0  0  0  0  0  0  0  0
    4.1770   68.6020   64.1360 C   0  0  0  0  0  0  0  0  0  0  0  0
    2.9280   69.0380   64.5820 C   0  0  0  0  0  0  0  0  0  0  0  0
    0.8920   64.8980   71.0870 C   0  0  0  0  0  0  0  0  0  0  0  0
   -0.3600   65.1160   73.0990 O   0  0  0  0  0  0  0  0  0  0  0  0
    0.2640   64.3580   72.3560 C   0  0  0  0  0  0  0  0  0  0  0  0
    0.3780   62.9090   72.6980 C   0  0  0  0  0  0  0  0  0  0  0  0
   -0.7050   62.0310   72.6330 C   0  0  0  0  0  0  0  0  0  0  0  0
   -0.5290   60.6880   72.9640 C   0  0  0  0  0  0  0  0  0  0  0  0
    0.7220   60.2030   73.3600 C   0  0  0  0  0  0  0  0  0  0  0  0
    1.8110   61.0760   73.4900 C   0  0  0  0  0  0  0  0  0  0  0  0
    1.6240   62.4260   73.1300 C   0  0  0  0  0  0  0  0  0  0  0  0
    3.1820   60.6710   73.9870 C   0  0  0  0  0  0  0  0  0  0  0  0
    3.1960   59.4910   74.9590 C   0  0  0  0  0  0  0  0  0  0  0  0
    2.9750   58.1460   74.2720 C   0  0  0  0  0  0  0  0  0  0  0  0
    1.9130   58.1890   73.1840 C   0  0  0  0  0  0  0  0  0  0  0  0
    0.7420   58.8630   73.6420 O   0  0  0  0  0  0  0  0  0  0  0  0
    0.2724   66.9495   71.1650 H   0  0  0  0  0  0  0  0  0  0  0  0
   -0.9898   65.7511   70.5943 H   0  0  0  0  0  0  0  0  0  0  0  0
    0.8574   65.5524   68.6164 H   0  0  0  0  0  0  0  0  0  0  0  0
    0.8953   68.4553   69.5217 H   0  0  0  0  0  0  0  0  0  0  0  0
    2.2901   67.2998   69.3398 H   0  0  0  0  0  0  0  0  0  0  0  0
    2.1215   68.9660   67.4956 H   0  0  0  0  0  0  0  0  0  0  0  0
    1.9997   67.2268   66.9695 H   0  0  0  0  0  0  0  0  0  0  0  0
   -1.7267   67.4106   66.4670 H   0  0  0  0  0  0  0  0  0  0  0  0
   -0.2920   66.3024   66.3609 H   0  0  0  0  0  0  0  0  0  0  0  0
   -1.5795   65.8041   68.3613 H   0  0  0  0  0  0  0  0  0  0  0  0
   -1.4485   67.5466   68.8757 H   0  0  0  0  0  0  0  0  0  0  0  0
   -0.4509   69.5654   68.4521 H   0  0  0  0  0  0  0  0  0  0  0  0
    0.0794   70.4914   67.0071 H   0  0  0  0  0  0  0  0  0  0  0  0
   -1.5136   69.6613   67.0071 H   0  0  0  0  0  0  0  0  0  0  0  0
   -0.2228   68.0811   64.6796 H   0  0  0  0  0  0  0  0  0  0  0  0
    0.5630   69.6861   65.1774 H   0  0  0  0  0  0  0  0  0  0  0  0
    1.3503   66.0181   64.8114 H   0  0  0  0  0  0  0  0  0  0  0  0
    3.5785   65.2485   64.0084 H   0  0  0  0  0  0  0  0  0  0  0  0
    5.3908   66.9026   63.5709 H   0  0  0  0  0  0  0  0  0  0  0  0
    4.9792   69.3311   63.9496 H   0  0  0  0  0  0  0  0  0  0  0  0
    2.7545   70.1108   64.7525 H   0  0  0  0  0  0  0  0  0  0  0  0
    0.9314   64.0992   70.3318 H   0  0  0  0  0  0  0  0  0  0  0  0
    1.9095   65.2515   71.3102 H   0  0  0  0  0  0  0  0  0  0  0  0
   -1.6943   62.3974   72.3216 H   0  0  0  0  0  0  0  0  0  0  0  0
   -1.3859   60.0002   72.9130 H   0  0  0  0  0  0  0  0  0  0  0  0
    2.4761   63.1191   73.1890 H   0  0  0  0  0  0  0  0  0  0  0  0
    3.7950   60.4012   73.1144 H   0  0  0  0  0  0  0  0  0  0  0  0
    3.5727   61.5338   74.5464 H   0  0  0  0  0  0  0  0  0  0  0  0
    4.1710   59.4681   75.4677 H   0  0  0  0  0  0  0  0  0  0  0  0
    2.3659   59.6385   75.6655 H   0  0  0  0  0  0  0  0  0  0  0  0
    3.9250   57.8259   73.8191 H   0  0  0  0  0  0  0  0  0  0  0  0
    2.6225   57.4432   75.0413 H   0  0  0  0  0  0  0  0  0  0  0  0
    2.3153   58.7203   72.3088 H   0  0  0  0  0  0  0  0  0  0  0  0
    1.6424   57.1570   72.9160 H   0  0  0  0  0  0  0  0  0  0  0  0
  2  1  1  0
  3  2  1  0
  4  3  1  0
  5  4  1  0
  6  5  1  0
  7  2  1  0
  7  6  1  0
  5  8  1  1
  9  5  1  0
 10  9  1  0
 11 10  2  0
 12 11  1  0
 13 12  2  0
 14 13  1  0
 15 14  2  0
 15 10  1  0
 16  1  1  0
 18 17  2  0
 18 16  1  0
 19 18  1  0
 20 19  2  0
 21 20  1  0
 22 21  2  0
 23 22  1  0
 24 23  2  0
 24 19  1  0
 25 23  1  0
 26 25  1  0
 27 26  1  0
 28 27  1  0
 29 22  1  0
 29 28  1  0
  1 30  1  0
  1 31  1  0
  2 32  1  6
  3 33  1  0
  3 34  1  0
  4 35  1  0
  4 36  1  0
  6 37  1  0
  6 38  1  0
  7 39  1  0
  7 40  1  0
  8 41  1  0
  8 42  1  0
  8 43  1  0
  9 44  1  0
  9 45  1  0
 11 46  1  0
 12 47  1  0
 13 48  1  0
 14 49  1  0
 15 50  1  0
 16 51  1  0
 16 52  1  0
 20 53  1  0
 21 54  1  0
 24 55  1  0
 25 56  1  0
 25 57  1  0
 26 58  1  0
 26 59  1  0
 27 60  1  0
 27 61  1  0
 28 62  1  0
 28 63  1  0
M  CHG  1   5   1
M  END
>  <score>  (9) 
-9.458

$$$$
