=
     RDKit          3D

101106  0  0  0  0  0  0  0  0999 V2000
    0.5630   54.1920   76.7080 C   0  0  2  0  0  0  0  0  0  0  0  0
    1.1650   52.9090   76.0640 C   0  0  0  0  0  0  0  0  0  0  0  0
   -0.9750   54.2390   76.4650 C   0  0  1  0  0  0  0  0  0  0  0  0
   -1.3190   54.8210   75.1060 C   0  0  0  0  0  0  0  0  0  0  0  0
   -0.9340   56.2930   75.0140 C   0  0  0  0  0  0  0  0  0  0  0  0
    0.3770   56.7010   75.7650 C   0  0  1  0  0  0  0  0  0  0  0  0
    1.2740   55.4360   76.0220 C   0  0  1  0  0  0  0  0  0  0  0  0
    2.6170   55.8250   76.6710 C   0  0  0  0  0  0  0  0  0  0  0  0
    3.2350   57.0680   76.1110 C   0  0  0  0  0  0  0  0  0  0  0  0
    2.6180   57.9390   75.2890 C   0  0  0  0  0  0  0  0  0  0  0  0
    1.1940   57.6970   74.8260 C   0  0  2  0  0  0  0  0  0  0  0  0
    0.4400   59.0150   74.5500 C   0  0  0  0  0  0  0  0  0  0  0  0
    0.7330   59.5990   73.1610 C   0  0  0  0  0  0  0  0  0  0  0  0
    2.0310   60.4370   73.0300 C   0  0  1  0  0  0  0  0  0  0  0  0
    3.3510   59.6350   73.3530 C   0  0  1  0  0  0  0  0  0  0  0  0
    3.3640   59.1880   74.8580 C   0  0  0  0  0  0  0  0  0  0  0  0
    3.6010   58.4020   72.4580 C   0  0  0  0  0  0  0  0  0  0  0  0
    4.5680   60.5930   73.2120 C   0  0  0  0  0  0  0  0  0  0  0  0
    4.6270   61.3730   71.9030 C   0  0  0  0  0  0  0  0  0  0  0  0
    3.3600   62.2190   71.7110 C   0  0  2  0  0  0  0  0  0  0  0  0
    2.0670   61.3170   71.6850 C   0  0  1  0  0  0  0  0  0  0  0  0
    1.9830   60.4250   70.4250 C   0  0  0  0  0  0  0  0  0  0  0  0
    0.8220   62.2640   71.6660 C   0  0  0  0  0  0  0  0  0  0  0  0
    0.8700   63.3800   70.6260 C   0  0  0  0  0  0  0  0  0  0  0  0
    2.1580   64.1950   70.7260 C   0  0  1  0  0  0  0  0  0  0  0  0
    3.4300   63.3160   70.5820 C   0  0  1  0  0  0  0  0  0  0  0  0
    4.6580   64.2430   70.7730 C   0  0  0  0  0  0  0  0  0  0  0  0
    0.0040   57.4130   77.0890 C   0  0  0  0  0  0  0  0  0  0  0  0
    3.6820   62.7510   69.1500 C   0  0  0  0  0  0  0  0  0  0  0  0
    3.3050   63.4650   68.1800 O   0  0  0  0  0  0  0  0  0  0  0  0
    4.2480   61.6210   69.0980 O   0  0  0  0  0  1  0  0  0  0  0  0
   -1.5450   52.9360   76.5880 O   0  0  0  0  0  0  0  0  0  0  0  0
    0.7610   54.0850   78.2470 C   0  0  0  0  0  0  0  0  0  0  0  0
   -0.3830   54.4760   79.0000 O   0  0  0  0  0  0  0  0  0  0  0  0
    2.1540   65.2830   69.7800 O   0  0  0  0  0  0  0  0  0  0  0  0
    1.2290   66.2600   69.9290 C   0  0  0  0  0  0  0  0  0  0  0  0
    0.2470   66.2190   70.6600 O   0  0  0  0  0  0  0  0  0  0  0  0
    1.5510   67.4190   69.0190 C   0  0  0  0  0  0  0  0  0  0  0  0
    1.2240   67.1300   67.5580 C   0  0  0  0  0  0  0  0  0  0  0  0
   -0.1800   67.5430   67.1800 C   0  0  0  0  0  0  0  0  0  0  0  0
   -0.3990   68.6550   66.3540 C   0  0  0  0  0  0  0  0  0  0  0  0
   -1.6960   69.0230   65.9950 C   0  0  0  0  0  0  0  0  0  0  0  0
   -2.7750   68.2780   66.4540 C   0  0  0  0  0  0  0  0  0  0  0  0
   -2.5800   67.1690   67.2710 C   0  0  0  0  0  0  0  0  0  0  0  0
   -1.2820   66.8030   67.6330 C   0  0  0  0  0  0  0  0  0  0  0  0
   -4.0280   68.6680   66.0770 O   0  0  0  0  0  0  0  0  0  0  0  0
    1.4890   52.2184   76.8565 H   0  0  0  0  0  0  0  0  0  0  0  0
    0.4026   52.4195   75.4402 H   0  0  0  0  0  0  0  0  0  0  0  0
    2.0288   53.1825   75.4402 H   0  0  0  0  0  0  0  0  0  0  0  0
   -1.4011   54.8987   77.2352 H   0  0  0  0  0  0  0  0  0  0  0  0
   -0.7770   54.2608   74.3299 H   0  0  0  0  0  0  0  0  0  0  0  0
   -2.4064   54.7394   74.9612 H   0  0  0  0  0  0  0  0  0  0  0  0
   -0.8056   56.5427   73.9504 H   0  0  0  0  0  0  0  0  0  0  0  0
   -1.7464   56.8463   75.5078 H   0  0  0  0  0  0  0  0  0  0  0  0
    1.4878   55.0374   75.0193 H   0  0  0  0  0  0  0  0  0  0  0  0
    2.4478   55.9791   77.7469 H   0  0  0  0  0  0  0  0  0  0  0  0
    3.3176   55.0032   76.4616 H   0  0  0  0  0  0  0  0  0  0  0  0
    4.2753   57.2877   76.3930 H   0  0  0  0  0  0  0  0  0  0  0  0
    1.2779   57.1733   73.8623 H   0  0  0  0  0  0  0  0  0  0  0  0
   -0.6403   58.8228   74.6278 H   0  0  0  0  0  0  0  0  0  0  0  0
    0.7831   59.7500   75.2930 H   0  0  0  0  0  0  0  0  0  0  0  0
    0.8020   58.7606   72.4523 H   0  0  0  0  0  0  0  0  0  0  0  0
   -0.0907   60.2987   72.9564 H   0  0  0  0  0  0  0  0  0  0  0  0
    1.9987   61.1796   73.8409 H   0  0  0  0  0  0  0  0  0  0  0  0
    4.4180   59.0388   75.1350 H   0  0  0  0  0  0  0  0  0  0  0  0
    2.8150   59.9955   75.3644 H   0  0  0  0  0  0  0  0  0  0  0  0
    3.7798   57.5200   73.0905 H   0  0  0  0  0  0  0  0  0  0  0  0
    2.7204   58.2253   71.8229 H   0  0  0  0  0  0  0  0  0  0  0  0
    4.4809   58.5822   71.8229 H   0  0  0  0  0  0  0  0  0  0  0  0
    4.5296   61.3172   74.0391 H   0  0  0  0  0  0  0  0  0  0  0  0
    5.4643   59.9555   73.2302 H   0  0  0  0  0  0  0  0  0  0  0  0
    5.5041   62.0366   71.9186 H   0  0  0  0  0  0  0  0  0  0  0  0
    4.7010   60.6574   71.0708 H   0  0  0  0  0  0  0  0  0  0  0  0
    3.2869   62.8497   72.6093 H   0  0  0  0  0  0  0  0  0  0  0  0
    1.8838   59.3720   70.7272 H   0  0  0  0  0  0  0  0  0  0  0  0
    1.1085   60.7184   69.8257 H   0  0  0  0  0  0  0  0  0  0  0  0
    2.8969   60.5500   69.8257 H   0  0  0  0  0  0  0  0  0  0  0  0
   -0.0690   61.6507   71.4661 H   0  0  0  0  0  0  0  0  0  0  0  0
    0.8021   62.7616   72.6468 H   0  0  0  0  0  0  0  0  0  0  0  0
    0.8081   62.9340   69.6224 H   0  0  0  0  0  0  0  0  0  0  0  0
    0.0226   64.0564   70.8116 H   0  0  0  0  0  0  0  0  0  0  0  0
    2.1914   64.6239   71.7384 H   0  0  0  0  0  0  0  0  0  0  0  0
    4.8464   64.3853   71.8474 H   0  0  0  0  0  0  0  0  0  0  0  0
    5.5405   63.7839   70.3036 H   0  0  0  0  0  0  0  0  0  0  0  0
    4.4583   65.2176   70.3036 H   0  0  0  0  0  0  0  0  0  0  0  0
    0.3271   56.7963   77.9406 H   0  0  0  0  0  0  0  0  0  0  0  0
    0.5056   58.3910   77.1333 H   0  0  0  0  0  0  0  0  0  0  0  0
   -1.0856   57.5574   77.1333 H   0  0  0  0  0  0  0  0  0  0  0  0
   -1.6445   52.7085   77.5463 H   0  0  0  0  0  0  0  0  0  0  0  0
    0.9992   53.0401   78.4947 H   0  0  0  0  0  0  0  0  0  0  0  0
    1.5739   54.7758   78.5153 H   0  0  0  0  0  0  0  0  0  0  0  0
   -0.1811   54.4070   79.9667 H   0  0  0  0  0  0  0  0  0  0  0  0
    0.9680   68.2935   69.3436 H   0  0  0  0  0  0  0  0  0  0  0  0
    2.6334   67.6031   69.0866 H   0  0  0  0  0  0  0  0  0  0  0  0
    1.9350   67.6792   66.9233 H   0  0  0  0  0  0  0  0  0  0  0  0
    1.3009   66.0427   67.4099 H   0  0  0  0  0  0  0  0  0  0  0  0
    0.4569   69.2405   65.9870 H   0  0  0  0  0  0  0  0  0  0  0  0
   -1.8635   69.8992   65.3514 H   0  0  0  0  0  0  0  0  0  0  0  0
   -3.4410   66.5854   67.6288 H   0  0  0  0  0  0  0  0  0  0  0  0
   -1.1224   65.9270   68.2789 H   0  0  0  0  0  0  0  0  0  0  0  0
   -4.8189   68.1592   66.3864 H   0  0  0  0  0  0  0  0  0  0  0  0
  1  2  1  6
  3  1  1  0
  4  3  1  0
  5  4  1  0
  6  5  1  0
  7  1  1  0
  7  6  1  0
  8  7  1  0
  9  8  1  0
 10  9  2  0
 11 10  1  0
 11  6  1  0
 12 11  1  0
 13 12  1  0
 14 13  1  0
 15 14  1  0
 16 15  1  0
 16 10  1  0
 15 17  1  6
 18 15  1  0
 19 18  1  0
 20 19  1  0
 21 20  1  0
 21 14  1  0
 21 22  1  6
 23 21  1  0
 24 23  1  0
 25 24  1  0
 26 25  1  0
 26 20  1  0
 26 27  1  1
  6 28  1  1
 29 26  1  0
 30 29  2  0
 31 29  1  0
 32  3  1  0
 33  1  1  0
 34 33  1  0
 35 25  1  0
 36 35  1  0
 37 36  2  0
 38 36  1  0
 39 38  1  0
 40 39  1  0
 41 40  2  0
 42 41  1  0
 43 42  2  0
 44 43  1  0
 45 44  2  0
 45 40  1  0
 46 43  1  0
  2 47  1  0
  2 48  1  0
  2 49  1  0
  3 50  1  1
  4 51  1  0
  4 52  1  0
  5 53  1  0
  5 54  1  0
  7 55  1  6
  8 56  1  0
  8 57  1  0
  9 58  1  0
 11 59  1  6
 12 60  1  0
 12 61  1  0
 13 62  1  0
 13 63  1  0
 14 64  1  1
 16 65  1  0
 16 66  1  0
 17 67  1  0
 17 68  1  0
 17 69  1  0
 18 70  1  0
 18 71  1  0
 19 72  1  0
 19 73  1  0
 20 74  1  1
 22 75  1  0
 22 76  1  0
 22 77  1  0
 23 78  1  0
 23 79  1  0
 24 80  1  0
 24 81  1  0
 25 82  1  1
 27 83  1  0
 27 84  1  0
 27 85  1  0
 28 86  1  0
 28 87  1  0
 28 88  1  0
 32 89  1  0
 33 90  1  0
 33 91  1  0
 34 92  1  0
 38 93  1  0
 38 94  1  0
 39 95  1  0
 39 96  1  0
 41 97  1  0
 42 98  1  0
 44 99  1  0
 45100  1  0
 46101  1  0
M  CHG  1  31  -1
M  END
>  <score>  (1) 
-10.323

$$$$
=
     RDKit          3D

101106  0  0  0  0  0  0  0  0999 V2000
    0.3820   54.3680   76.7440 C   0  0  2  0  0  0  0  0  0  0  0  0
    0.9690   53.0630   76.1350 C   0  0  0  0  0  0  0  0  0  0  0  0
   -1.1520   54.4360   76.4820 C   0  0  1  0  0  0  0  0  0  0  0  0
   -1.4700   54.9960   75.1070 C   0  0  0  0  0  0  0  0  0  0  0  0
   -1.0590   56.4580   74.9890 C   0  0  0  0  0  0  0  0  0  0  0  0
    0.2500   56.8600   75.7470 C   0  0  1  0  0  0  0  0  0  0  0  0
    1.1220   55.5860   76.0420 C   0  0  1  0  0  0  0  0  0  0  0  0
    2.4630   55.9650   76.7000 C   0  0  0  0  0  0  0  0  0  0  0  0
    3.1090   57.1860   76.1210 C   0  0  0  0  0  0  0  0  0  0  0  0
    2.5170   58.0500   75.2750 C   0  0  0  0  0  0  0  0  0  0  0  0
    1.0950   57.8230   74.7980 C   0  0  2  0  0  0  0  0  0  0  0  0
    0.3660   59.1470   74.4860 C   0  0  0  0  0  0  0  0  0  0  0  0
    0.6860   59.6970   73.0900 C   0  0  0  0  0  0  0  0  0  0  0  0
    2.0000   60.5100   72.9570 C   0  0  1  0  0  0  0  0  0  0  0  0
    3.3020   59.6930   73.3130 C   0  0  1  0  0  0  0  0  0  0  0  0
    3.2890   59.2770   74.8260 C   0  0  0  0  0  0  0  0  0  0  0  0
    3.5420   58.4380   72.4460 C   0  0  0  0  0  0  0  0  0  0  0  0
    4.5370   60.6270   73.1670 C   0  0  0  0  0  0  0  0  0  0  0  0
    4.6250   61.3790   71.8430 C   0  0  0  0  0  0  0  0  0  0  0  0
    3.3750   62.2420   71.6180 C   0  0  2  0  0  0  0  0  0  0  0  0
    2.0670   61.3610   71.5950 C   0  0  1  0  0  0  0  0  0  0  0  0
    1.9830   60.4450   70.3520 C   0  0  0  0  0  0  0  0  0  0  0  0
    0.8390   62.3280   71.5410 C   0  0  0  0  0  0  0  0  0  0  0  0
    0.9180   63.4220   70.4780 C   0  0  0  0  0  0  0  0  0  0  0  0
    2.2190   64.2160   70.5780 C   0  0  1  0  0  0  0  0  0  0  0  0
    3.4770   63.3130   70.4680 C   0  0  1  0  0  0  0  0  0  0  0  0
    4.7190   64.2230   70.6550 C   0  0  0  0  0  0  0  0  0  0  0  0
   -0.1270   57.6060   77.0520 C   0  0  0  0  0  0  0  0  0  0  0  0
    3.7370   62.7150   69.0510 C   0  0  0  0  0  0  0  0  0  0  0  0
    3.3390   63.3920   68.0630 O   0  0  0  0  0  0  0  0  0  0  0  0
    4.3290   61.5970   69.0280 O   0  0  0  0  0  1  0  0  0  0  0  0
   -1.7460   53.1460   76.6250 O   0  0  0  0  0  0  0  0  0  0  0  0
    0.5590   54.2900   78.2880 C   0  0  0  0  0  0  0  0  0  0  0  0
   -0.6710   54.2370   79.0040 O   0  0  0  0  0  0  0  0  0  0  0  0
    2.2450   65.2840   69.6100 O   0  0  0  0  0  0  0  0  0  0  0  0
    1.2860   66.2380   69.6790 C   0  0  0  0  0  0  0  0  0  0  0  0
    0.6100   66.5110   70.6640 O   0  0  0  0  0  0  0  0  0  0  0  0
    1.1240   66.9070   68.3370 C   0  0  0  0  0  0  0  0  0  0  0  0
    1.0980   68.4280   68.4360 C   0  0  0  0  0  0  0  0  0  0  0  0
    2.3740   69.0680   67.9410 C   0  0  0  0  0  0  0  0  0  0  0  0
    3.1610   69.8480   68.8000 C   0  0  0  0  0  0  0  0  0  0  0  0
    4.3480   70.4240   68.3430 C   0  0  0  0  0  0  0  0  0  0  0  0
    4.7530   70.2160   67.0300 C   0  0  0  0  0  0  0  0  0  0  0  0
    3.9890   69.4420   66.1630 C   0  0  0  0  0  0  0  0  0  0  0  0
    2.8000   68.8690   66.6200 C   0  0  0  0  0  0  0  0  0  0  0  0
    5.9210   70.7930   66.6230 O   0  0  0  0  0  0  0  0  0  0  0  0
    1.2740   52.3849   76.9457 H   0  0  0  0  0  0  0  0  0  0  0  0
    0.2050   52.5721   75.5143 H   0  0  0  0  0  0  0  0  0  0  0  0
    1.8432   53.3089   75.5143 H   0  0  0  0  0  0  0  0  0  0  0  0
   -1.5757   55.1184   77.2336 H   0  0  0  0  0  0  0  0  0  0  0  0
   -0.9288   54.4106   74.3491 H   0  0  0  0  0  0  0  0  0  0  0  0
   -2.5569   54.9302   74.9513 H   0  0  0  0  0  0  0  0  0  0  0  0
   -0.9140   56.6829   73.9221 H   0  0  0  0  0  0  0  0  0  0  0  0
   -1.8675   57.0351   75.4615 H   0  0  0  0  0  0  0  0  0  0  0  0
    1.3410   55.1640   75.0501 H   0  0  0  0  0  0  0  0  0  0  0  0
    2.2832   56.1447   77.7702 H   0  0  0  0  0  0  0  0  0  0  0  0
    3.1519   55.1270   76.5177 H   0  0  0  0  0  0  0  0  0  0  0  0
    4.1499   57.3933   76.4100 H   0  0  0  0  0  0  0  0  0  0  0  0
    1.1824   57.2797   73.8455 H   0  0  0  0  0  0  0  0  0  0  0  0
   -0.7182   58.9739   74.5538 H   0  0  0  0  0  0  0  0  0  0  0  0
    0.7113   59.8915   75.2184 H   0  0  0  0  0  0  0  0  0  0  0  0
    0.7488   58.8430   72.3995 H   0  0  0  0  0  0  0  0  0  0  0  0
   -0.1227   60.4068   72.8616 H   0  0  0  0  0  0  0  0  0  0  0  0
    1.9709   61.2700   73.7517 H   0  0  0  0  0  0  0  0  0  0  0  0
    4.3370   59.1160   75.1188 H   0  0  0  0  0  0  0  0  0  0  0  0
    2.7468   60.1038   75.3080 H   0  0  0  0  0  0  0  0  0  0  0  0
    3.7084   57.5680   73.0983 H   0  0  0  0  0  0  0  0  0  0  0  0
    2.6621   58.2573   71.8110 H   0  0  0  0  0  0  0  0  0  0  0  0
    4.4265   58.5947   71.8110 H   0  0  0  0  0  0  0  0  0  0  0  0
    4.5015   61.3686   73.9787 H   0  0  0  0  0  0  0  0  0  0  0  0
    5.4217   59.9747   73.2088 H   0  0  0  0  0  0  0  0  0  0  0  0
    5.5130   62.0280   71.8560 H   0  0  0  0  0  0  0  0  0  0  0  0
    4.6968   60.6453   71.0266 H   0  0  0  0  0  0  0  0  0  0  0  0
    3.3019   62.8927   72.5019 H   0  0  0  0  0  0  0  0  0  0  0  0
    1.8870   59.3976   70.6742 H   0  0  0  0  0  0  0  0  0  0  0  0
    1.1068   60.7249   69.7488 H   0  0  0  0  0  0  0  0  0  0  0  0
    2.8955   60.5609   69.7488 H   0  0  0  0  0  0  0  0  0  0  0  0
   -0.0599   61.7256   71.3430 H   0  0  0  0  0  0  0  0  0  0  0  0
    0.8162   62.8464   72.5109 H   0  0  0  0  0  0  0  0  0  0  0  0
    0.8603   62.9567   69.4830 H   0  0  0  0  0  0  0  0  0  0  0  0
    0.0801   64.1163   70.6385 H   0  0  0  0  0  0  0  0  0  0  0  0
    2.2481   64.6643   71.5821 H   0  0  0  0  0  0  0  0  0  0  0  0
    4.9117   64.3642   71.7287 H   0  0  0  0  0  0  0  0  0  0  0  0
    5.5939   63.7506   70.1844 H   0  0  0  0  0  0  0  0  0  0  0  0
    4.5322   65.1996   70.1844 H   0  0  0  0  0  0  0  0  0  0  0  0
    0.1777   57.0031   77.9201 H   0  0  0  0  0  0  0  0  0  0  0  0
    0.3885   58.5773   77.0811 H   0  0  0  0  0  0  0  0  0  0  0  0
   -1.2147   57.7671   77.0811 H   0  0  0  0  0  0  0  0  0  0  0  0
   -1.8442   52.9327   77.5867 H   0  0  0  0  0  0  0  0  0  0  0  0
    1.1383   53.3856   78.5258 H   0  0  0  0  0  0  0  0  0  0  0  0
    1.0724   55.2117   78.5994 H   0  0  0  0  0  0  0  0  0  0  0  0
   -0.4872   54.2449   79.9768 H   0  0  0  0  0  0  0  0  0  0  0  0
    1.9648   66.6108   67.6926 H   0  0  0  0  0  0  0  0  0  0  0  0
    0.1583   66.5851   67.9202 H   0  0  0  0  0  0  0  0  0  0  0  0
    0.2587   68.8053   67.8334 H   0  0  0  0  0  0  0  0  0  0  0  0
    0.9866   68.6892   69.4987 H   0  0  0  0  0  0  0  0  0  0  0  0
    2.8414   70.0072   69.8404 H   0  0  0  0  0  0  0  0  0  0  0  0
    4.9597   71.0395   69.0191 H   0  0  0  0  0  0  0  0  0  0  0  0
    4.3185   69.2824   65.1257 H   0  0  0  0  0  0  0  0  0  0  0  0
    2.1925   68.2563   65.9377 H   0  0  0  0  0  0  0  0  0  0  0  0
    6.2389   70.6652   65.6942 H   0  0  0  0  0  0  0  0  0  0  0  0
  1  2  1  6
  3  1  1  0
  4  3  1  0
  5  4  1  0
  6  5  1  0
  7  1  1  0
  7  6  1  0
  8  7  1  0
  9  8  1  0
 10  9  2  0
 11 10  1  0
 11  6  1  0
 12 11  1  0
 13 12  1  0
 14 13  1  0
 15 14  1  0
 16 15  1  0
 16 10  1  0
 15 17  1  6
 18 15  1  0
 19 18  1  0
 20 19  1  0
 21 20  1  0
 21 14  1  0
 21 22  1  6
 23 21  1  0
 24 23  1  0
 25 24  1  0
 26 25  1  0
 26 20  1  0
 26 27  1  1
  6 28  1  1
 29 26  1  0
 30 29  2  0
 31 29  1  0
 32  3  1  0
 33  1  1  0
 34 33  1  0
 35 25  1  0
 36 35  1  0
 37 36  2  0
 38 36  1  0
 39 38  1  0
 40 39  1  0
 41 40  2  0
 42 41  1  0
 43 42  2  0
 44 43  1  0
 45 44  2  0
 45 40  1  0
 46 43  1  0
  2 47  1  0
  2 48  1  0
  2 49  1  0
  3 50  1  1
  4 51  1  0
  4 52  1  0
  5 53  1  0
  5 54  1  0
  7 55  1  6
  8 56  1  0
  8 57  1  0
  9 58  1  0
 11 59  1  6
 12 60  1  0
 12 61  1  0
 13 62  1  0
 13 63  1  0
 14 64  1  1
 16 65  1  0
 16 66  1  0
 17 67  1  0
 17 68  1  0
 17 69  1  0
 18 70  1  0
 18 71  1  0
 19 72  1  0
 19 73  1  0
 20 74  1  1
 22 75  1  0
 22 76  1  0
 22 77  1  0
 23 78  1  0
 23 79  1  0
 24 80  1  0
 24 81  1  0
 25 82  1  1
 27 83  1  0
 27 84  1  0
 27 85  1  0
 28 86  1  0
 28 87  1  0
 28 88  1  0
 32 89  1  0
 33 90  1  0
 33 91  1  0
 34 92  1  0
 38 93  1  0
 38 94  1  0
 39 95  1  0
 39 96  1  0
 41 97  1  0
 42 98  1  0
 44 99  1  0
 45100  1  0
 46101  1  0
M  CHG  1  31  -1
M  END
>  <score>  (2) 
-10.27

$$$$
=
     RDKit          3D

101106  0  0  0  0  0  0  0  0999 V2000
   -0.7710   54.9080   77.3470 C   0  0  2  0  0  0  0  0  0  0  0  0
   -0.1510   53.5510   76.9040 C   0  0  0  0  0  0  0  0  0  0  0  0
   -2.2690   54.9720   76.9250 C   0  0  1  0  0  0  0  0  0  0  0  0
   -2.4350   55.4240   75.4850 C   0  0  0  0  0  0  0  0  0  0  0  0
   -1.9850   56.8680   75.2960 C   0  0  0  0  0  0  0  0  0  0  0  0
   -0.7520   57.3140   76.1510 C   0  0  1  0  0  0  0  0  0  0  0  0
    0.0600   56.0570   76.6310 C   0  0  1  0  0  0  0  0  0  0  0  0
    1.3350   56.4720   77.3920 C   0  0  0  0  0  0  0  0  0  0  0  0
    2.0600   57.6350   76.7890 C   0  0  0  0  0  0  0  0  0  0  0  0
    1.5730   58.4360   75.8220 C   0  0  0  0  0  0  0  0  0  0  0  0
    0.2030   58.1880   75.2210 C   0  0  2  0  0  0  0  0  0  0  0  0
   -0.4640   59.4910   74.7340 C   0  0  0  0  0  0  0  0  0  0  0  0
    0.0060   59.9250   73.3390 C   0  0  0  0  0  0  0  0  0  0  0  0
    1.3420   60.7090   73.2790 C   0  0  1  0  0  0  0  0  0  0  0  0
    2.5850   59.9090   73.8290 C   0  0  1  0  0  0  0  0  0  0  0  0
    2.4110   59.6150   75.3610 C   0  0  0  0  0  0  0  0  0  0  0  0
    2.8870   58.5860   73.0920 C   0  0  0  0  0  0  0  0  0  0  0  0
    3.8470   60.8140   73.7380 C   0  0  0  0  0  0  0  0  0  0  0  0
    4.0820   61.4570   72.3750 C   0  0  0  0  0  0  0  0  0  0  0  0
    2.8790   62.3140   71.9570 C   0  0  2  0  0  0  0  0  0  0  0  0
    1.5640   61.4490   71.8690 C   0  0  1  0  0  0  0  0  0  0  0  0
    1.5870   60.4380   70.6990 C   0  0  0  0  0  0  0  0  0  0  0  0
    0.3660   62.4230   71.6140 C   0  0  0  0  0  0  0  0  0  0  0  0
    0.5740   63.4280   70.4830 C   0  0  0  0  0  0  0  0  0  0  0  0
    1.8730   64.2120   70.6530 C   0  0  1  0  0  0  0  0  0  0  0  0
    3.1180   63.2890   70.7430 C   0  0  1  0  0  0  0  0  0  0  0  0
    4.3520   64.1970   70.9850 C   0  0  0  0  0  0  0  0  0  0  0  0
   -1.2450   58.1650   77.3490 C   0  0  0  0  0  0  0  0  0  0  0  0
    3.5080   62.5770   69.4110 C   0  0  0  0  0  0  0  0  0  0  0  0
    4.2380   61.5520   69.5040 O   0  0  0  0  0  0  0  0  0  0  0  0
    3.0480   63.1000   68.3550 O   0  0  0  0  0  1  0  0  0  0  0  0
   -2.8990   53.7040   77.1060 O   0  0  0  0  0  0  0  0  0  0  0  0
   -0.7530   54.9500   78.9020 C   0  0  0  0  0  0  0  0  0  0  0  0
   -1.9950   55.3350   79.4800 O   0  0  0  0  0  0  0  0  0  0  0  0
    2.0180   65.2000   69.6120 O   0  0  0  0  0  0  0  0  0  0  0  0
    1.1770   66.2620   69.6130 C   0  0  0  0  0  0  0  0  0  0  0  0
    0.1830   66.3950   70.3170 O   0  0  0  0  0  0  0  0  0  0  0  0
    1.6100   67.2640   68.5720 C   0  0  0  0  0  0  0  0  0  0  0  0
    0.4380   68.0240   67.9610 C   0  0  0  0  0  0  0  0  0  0  0  0
    0.6150   68.2810   66.4830 C   0  0  0  0  0  0  0  0  0  0  0  0
   -0.5000   68.3970   65.6400 C   0  0  0  0  0  0  0  0  0  0  0  0
   -0.3320   68.6510   64.2780 C   0  0  0  0  0  0  0  0  0  0  0  0
    0.9470   68.7960   63.7580 C   0  0  0  0  0  0  0  0  0  0  0  0
    2.0660   68.6900   64.5770 C   0  0  0  0  0  0  0  0  0  0  0  0
    1.8980   68.4320   65.9390 C   0  0  0  0  0  0  0  0  0  0  0  0
    1.0700   69.0480   62.4220 O   0  0  0  0  0  0  0  0  0  0  0  0
    0.1177   52.9628   77.7938 H   0  0  0  0  0  0  0  0  0  0  0  0
   -0.8832   52.9923   76.3025 H   0  0  0  0  0  0  0  0  0  0  0  0
    0.7507   53.7388   76.3025 H   0  0  0  0  0  0  0  0  0  0  0  0
   -2.7534   55.7165   77.5739 H   0  0  0  0  0  0  0  0  0  0  0  0
   -1.8315   54.7737   74.8347 H   0  0  0  0  0  0  0  0  0  0  0  0
   -3.5016   55.3585   75.2241 H   0  0  0  0  0  0  0  0  0  0  0  0
   -1.7279   57.0054   74.2353 H   0  0  0  0  0  0  0  0  0  0  0  0
   -2.8258   57.4903   75.6364 H   0  0  0  0  0  0  0  0  0  0  0  0
    0.3693   55.5546   75.7026 H   0  0  0  0  0  0  0  0  0  0  0  0
    1.0511   56.7386   78.4207 H   0  0  0  0  0  0  0  0  0  0  0  0
    2.0223   55.6143   77.3475 H   0  0  0  0  0  0  0  0  0  0  0  0
    3.0704   57.8524   77.1656 H   0  0  0  0  0  0  0  0  0  0  0  0
    0.3752   57.5695   74.3278 H   0  0  0  0  0  0  0  0  0  0  0  0
   -1.5527   59.3366   74.7039 H   0  0  0  0  0  0  0  0  0  0  0  0
   -0.1793   60.2872   75.4376 H   0  0  0  0  0  0  0  0  0  0  0  0
    0.1213   59.0184   72.7268 H   0  0  0  0  0  0  0  0  0  0  0  0
   -0.7614   60.6237   72.9744 H   0  0  0  0  0  0  0  0  0  0  0  0
    1.2465   61.5293   74.0056 H   0  0  0  0  0  0  0  0  0  0  0  0
    3.4206   59.4655   75.7713 H   0  0  0  0  0  0  0  0  0  0  0  0
    1.8398   60.4840   75.7197 H   0  0  0  0  0  0  0  0  0  0  0  0
    3.0689   57.7893   73.8284 H   0  0  0  0  0  0  0  0  0  0  0  0
    2.0280   58.3133   72.4613 H   0  0  0  0  0  0  0  0  0  0  0  0
    3.7793   58.7130   72.4613 H   0  0  0  0  0  0  0  0  0  0  0  0
    3.7446   61.6181   74.4816 H   0  0  0  0  0  0  0  0  0  0  0  0
    4.7102   60.1572   73.9211 H   0  0  0  0  0  0  0  0  0  0  0  0
    4.9770   62.0943   72.4273 H   0  0  0  0  0  0  0  0  0  0  0  0
    4.2202   60.6595   71.6301 H   0  0  0  0  0  0  0  0  0  0  0  0
    2.7296   63.0343   72.7748 H   0  0  0  0  0  0  0  0  0  0  0  0
    1.6103   59.4139   71.0998 H   0  0  0  0  0  0  0  0  0  0  0  0
    0.6856   60.5701   70.0825 H   0  0  0  0  0  0  0  0  0  0  0  0
    2.4814   60.6109   70.0825 H   0  0  0  0  0  0  0  0  0  0  0  0
   -0.5196   61.8170   71.3721 H   0  0  0  0  0  0  0  0  0  0  0  0
    0.2546   63.0169   72.5332 H   0  0  0  0  0  0  0  0  0  0  0  0
    0.6080   62.8857   69.5266 H   0  0  0  0  0  0  0  0  0  0  0  0
   -0.2619   64.1428   70.5027 H   0  0  0  0  0  0  0  0  0  0  0  0
    1.8088   64.7382   71.6168 H   0  0  0  0  0  0  0  0  0  0  0  0
    4.5134   64.3157   72.0666 H   0  0  0  0  0  0  0  0  0  0  0  0
    5.2412   63.7362   70.5300 H   0  0  0  0  0  0  0  0  0  0  0  0
    4.1766   65.1830   70.5300 H   0  0  0  0  0  0  0  0  0  0  0  0
   -0.9598   57.6727   78.2904 H   0  0  0  0  0  0  0  0  0  0  0  0
   -0.7854   59.1633   77.3034 H   0  0  0  0  0  0  0  0  0  0  0  0
   -2.3397   58.2629   77.3034 H   0  0  0  0  0  0  0  0  0  0  0  0
   -2.9920   53.5169   78.0737 H   0  0  0  0  0  0  0  0  0  0  0  0
   -0.4936   53.9475   79.2731 H   0  0  0  0  0  0  0  0  0  0  0  0
   -0.0141   55.7109   79.1937 H   0  0  0  0  0  0  0  0  0  0  0  0
   -1.9209   55.3120   80.4670 H   0  0  0  0  0  0  0  0  0  0  0  0
    2.2914   67.9879   69.0428 H   0  0  0  0  0  0  0  0  0  0  0  0
    2.1031   66.7076   67.7613 H   0  0  0  0  0  0  0  0  0  0  0  0
   -0.4787   67.4340   68.1080 H   0  0  0  0  0  0  0  0  0  0  0  0
    0.3786   69.0011   68.4627 H   0  0  0  0  0  0  0  0  0  0  0  0
   -1.5128   68.2871   66.0548 H   0  0  0  0  0  0  0  0  0  0  0  0
   -1.2090   68.7359   63.6195 H   0  0  0  0  0  0  0  0  0  0  0  0
    3.0751   68.8084   64.1553 H   0  0  0  0  0  0  0  0  0  0  0  0
    2.7801   68.3465   66.5906 H   0  0  0  0  0  0  0  0  0  0  0  0
    1.9679   69.1567   62.0194 H   0  0  0  0  0  0  0  0  0  0  0  0
  1  2  1  1
  3  1  1  0
  4  3  1  0
  5  4  1  0
  6  5  1  0
  7  1  1  0
  7  6  1  0
  8  7  1  0
  9  8  1  0
 10  9  2  0
 11 10  1  0
 11  6  1  0
 12 11  1  0
 13 12  1  0
 14 13  1  0
 15 14  1  0
 16 15  1  0
 16 10  1  0
 15 17  1  6
 18 15  1  0
 19 18  1  0
 20 19  1  0
 21 20  1  0
 21 14  1  0
 21 22  1  6
 23 21  1  0
 24 23  1  0
 25 24  1  0
 26 25  1  0
 26 20  1  0
 26 27  1  1
  6 28  1  1
 29 26  1  0
 30 29  2  0
 31 29  1  0
 32  3  1  0
 33  1  1  0
 34 33  1  0
 35 25  1  0
 36 35  1  0
 37 36  2  0
 38 36  1  0
 39 38  1  0
 40 39  1  0
 41 40  2  0
 42 41  1  0
 43 42  2  0
 44 43  1  0
 45 44  2  0
 45 40  1  0
 46 43  1  0
  2 47  1  0
  2 48  1  0
  2 49  1  0
  3 50  1  1
  4 51  1  0
  4 52  1  0
  5 53  1  0
  5 54  1  0
  7 55  1  6
  8 56  1  0
  8 57  1  0
  9 58  1  0
 11 59  1  6
 12 60  1  0
 12 61  1  0
 13 62  1  0
 13 63  1  0
 14 64  1  1
 16 65  1  0
 16 66  1  0
 17 67  1  0
 17 68  1  0
 17 69  1  0
 18 70  1  0
 18 71  1  0
 19 72  1  0
 19 73  1  0
 20 74  1  1
 22 75  1  0
 22 76  1  0
 22 77  1  0
 23 78  1  0
 23 79  1  0
 24 80  1  0
 24 81  1  0
 25 82  1  1
 27 83  1  0
 27 84  1  0
 27 85  1  0
 28 86  1  0
 28 87  1  0
 28 88  1  0
 32 89  1  0
 33 90  1  0
 33 91  1  0
 34 92  1  0
 38 93  1  0
 38 94  1  0
 39 95  1  0
 39 96  1  0
 41 97  1  0
 42 98  1  0
 44 99  1  0
 45100  1  0
 46101  1  0
M  CHG  1  31  -1
M  END
>  <score>  (3) 
-8.651

$$$$
=
     RDKit          3D

101106  0  0  0  0  0  0  0  0999 V2000
    4.2580   62.1890   70.9820 C   0  0  2  0  0  0  0  0  0  0  0  0
    5.0600   63.4870   71.2850 C   0  0  0  0  0  0  0  0  0  0  0  0
    3.4540   62.3560   69.6580 C   0  0  1  0  0  0  0  0  0  0  0  0
    2.1290   63.0620   69.8820 C   0  0  0  0  0  0  0  0  0  0  0  0
    1.1820   62.2190   70.7280 C   0  0  0  0  0  0  0  0  0  0  0  0
    1.8530   61.3710   71.8600 C   0  0  1  0  0  0  0  0  0  0  0  0
    3.2730   61.9510   72.2050 C   0  0  1  0  0  0  0  0  0  0  0  0
    3.9140   61.1950   73.3860 C   0  0  0  0  0  0  0  0  0  0  0  0
    2.9620   60.8610   74.4920 C   0  0  0  0  0  0  0  0  0  0  0  0
    1.6220   60.9670   74.4210 C   0  0  0  0  0  0  0  0  0  0  0  0
    0.9470   61.4860   73.1660 C   0  0  2  0  0  0  0  0  0  0  0  0
   -0.4620   60.8870   72.9720 C   0  0  0  0  0  0  0  0  0  0  0  0
   -1.5430   61.6120   73.7850 C   0  0  0  0  0  0  0  0  0  0  0  0
   -1.6820   61.1890   75.2700 C   0  0  1  0  0  0  0  0  0  0  0  0
   -0.3830   61.4290   76.1330 C   0  0  1  0  0  0  0  0  0  0  0  0
    0.7910   60.5260   75.6130 C   0  0  0  0  0  0  0  0  0  0  0  0
    0.0970   62.8950   76.1980 C   0  0  0  0  0  0  0  0  0  0  0  0
   -0.6470   60.9400   77.5860 C   0  0  0  0  0  0  0  0  0  0  0  0
   -1.9200   61.4810   78.2270 C   0  0  0  0  0  0  0  0  0  0  0  0
   -3.1550   61.1120   77.3940 C   0  0  2  0  0  0  0  0  0  0  0  0
   -3.0560   61.6980   75.9330 C   0  0  1  0  0  0  0  0  0  0  0  0
   -3.1640   63.2390   75.8960 C   0  0  0  0  0  0  0  0  0  0  0  0
   -4.2570   61.1300   75.1070 C   0  0  0  0  0  0  0  0  0  0  0  0
   -5.6240   61.2520   75.7770 C   0  0  0  0  0  0  0  0  0  0  0  0
   -5.6190   60.6630   77.1860 C   0  0  1  0  0  0  0  0  0  0  0  0
   -4.5480   61.3160   78.1000 C   0  0  1  0  0  0  0  0  0  0  0  0
   -4.5980   60.5860   79.4680 C   0  0  0  0  0  0  0  0  0  0  0  0
    1.9380   59.8920   71.4050 C   0  0  0  0  0  0  0  0  0  0  0  0
   -4.8490   62.7880   78.5200 C   0  0  0  0  0  0  0  0  0  0  0  0
   -5.6930   63.4190   77.8250 O   0  0  0  0  0  0  0  0  0  0  0  0
   -4.2120   63.2120   79.5270 O   0  0  0  0  0  1  0  0  0  0  0  0
    4.2210   63.0710   68.6890 O   0  0  0  0  0  0  0  0  0  0  0  0
    5.2840   61.0480   70.7290 C   0  0  0  0  0  0  0  0  0  0  0  0
    4.9000   60.1500   69.6930 O   0  0  0  0  0  0  0  0  0  0  0  0
   -6.9340   60.7290   77.7760 O   0  0  0  0  0  0  0  0  0  0  0  0
   -7.9850   60.2740   77.0540 C   0  0  0  0  0  0  0  0  0  0  0  0
   -8.2000   59.1060   76.7490 O   0  0  0  0  0  0  0  0  0  0  0  0
   -8.8570   61.4280   76.6260 C   0  0  0  0  0  0  0  0  0  0  0  0
   -9.2900   61.3300   75.1680 C   0  0  0  0  0  0  0  0  0  0  0  0
   -8.8730   62.5310   74.3510 C   0  0  0  0  0  0  0  0  0  0  0  0
   -9.0040   62.5250   72.9550 C   0  0  0  0  0  0  0  0  0  0  0  0
   -8.6310   63.6430   72.2070 C   0  0  0  0  0  0  0  0  0  0  0  0
   -8.1350   64.7690   72.8520 C   0  0  0  0  0  0  0  0  0  0  0  0
   -8.0020   64.7970   74.2360 C   0  0  0  0  0  0  0  0  0  0  0  0
   -8.3710   63.6770   74.9840 C   0  0  0  0  0  0  0  0  0  0  0  0
   -7.7860   65.8430   72.0850 O   0  0  0  0  0  0  0  0  0  0  0  0
    5.1429   63.6211   72.3736 H   0  0  0  0  0  0  0  0  0  0  0  0
    6.0662   63.4068   70.8478 H   0  0  0  0  0  0  0  0  0  0  0  0
    4.5381   64.3510   70.8478 H   0  0  0  0  0  0  0  0  0  0  0  0
    3.2414   61.3442   69.2825 H   0  0  0  0  0  0  0  0  0  0  0  0
    2.3151   64.0160   70.3971 H   0  0  0  0  0  0  0  0  0  0  0  0
    1.6583   63.2309   68.9022 H   0  0  0  0  0  0  0  0  0  0  0  0
    0.4559   62.8975   71.1997 H   0  0  0  0  0  0  0  0  0  0  0  0
    0.7307   61.4918   70.0371 H   0  0  0  0  0  0  0  0  0  0  0  0
    3.0798   62.9839   72.5304 H   0  0  0  0  0  0  0  0  0  0  0  0
    4.3408   60.2562   73.0033 H   0  0  0  0  0  0  0  0  0  0  0  0
    4.6731   61.8656   73.8150 H   0  0  0  0  0  0  0  0  0  0  0  0
    3.3918   60.5002   75.4381 H   0  0  0  0  0  0  0  0  0  0  0  0
    0.8116   62.5661   73.3244 H   0  0  0  0  0  0  0  0  0  0  0  0
   -0.7251   60.9499   71.9058 H   0  0  0  0  0  0  0  0  0  0  0  0
   -0.4273   59.8467   73.3278 H   0  0  0  0  0  0  0  0  0  0  0  0
   -1.3147   62.6878   73.7625 H   0  0  0  0  0  0  0  0  0  0  0  0
   -2.4983   61.3416   73.3114 H   0  0  0  0  0  0  0  0  0  0  0  0
   -1.7686   60.0924   75.2681 H   0  0  0  0  0  0  0  0  0  0  0  0
    1.4877   60.3965   76.4544 H   0  0  0  0  0  0  0  0  0  0  0  0
    0.2728   59.6302   75.2403 H   0  0  0  0  0  0  0  0  0  0  0  0
    0.1974   63.2017   77.2496 H   0  0  0  0  0  0  0  0  0  0  0  0
    1.0713   62.9844   75.6954 H   0  0  0  0  0  0  0  0  0  0  0  0
   -0.6358   63.5434   75.6954 H   0  0  0  0  0  0  0  0  0  0  0  0
   -0.7132   59.8421   77.5697 H   0  0  0  0  0  0  0  0  0  0  0  0
    0.1879   61.3185   78.1940 H   0  0  0  0  0  0  0  0  0  0  0  0
   -2.0250   61.0532   79.2349 H   0  0  0  0  0  0  0  0  0  0  0  0
   -1.8474   62.5774   78.2793 H   0  0  0  0  0  0  0  0  0  0  0  0
   -3.1299   60.0165   77.2983 H   0  0  0  0  0  0  0  0  0  0  0  0
   -3.1914   63.6294   76.9240 H   0  0  0  0  0  0  0  0  0  0  0  0
   -2.2928   63.6551   75.3688 H   0  0  0  0  0  0  0  0  0  0  0  0
   -4.0847   63.5295   75.3688 H   0  0  0  0  0  0  0  0  0  0  0  0
   -4.2978   61.6711   74.1501 H   0  0  0  0  0  0  0  0  0  0  0  0
   -4.0674   60.0522   74.9954 H   0  0  0  0  0  0  0  0  0  0  0  0
   -5.8978   62.3157   75.8366 H   0  0  0  0  0  0  0  0  0  0  0  0
   -6.3521   60.6899   75.1738 H   0  0  0  0  0  0  0  0  0  0  0  0
   -5.3396   59.6032   77.0925 H   0  0  0  0  0  0  0  0  0  0  0  0
   -4.5473   61.3258   80.2805 H   0  0  0  0  0  0  0  0  0  0  0  0
   -5.5371   60.0187   79.5468 H   0  0  0  0  0  0  0  0  0  0  0  0
   -3.7450   59.8959   79.5468 H   0  0  0  0  0  0  0  0  0  0  0  0
    1.9756   59.2381   72.2887 H   0  0  0  0  0  0  0  0  0  0  0  0
    1.0527   59.6425   70.8017 H   0  0  0  0  0  0  0  0  0  0  0  0
    2.8460   59.7456   70.8017 H   0  0  0  0  0  0  0  0  0  0  0  0
    4.8616   63.6682   69.1505 H   0  0  0  0  0  0  0  0  0  0  0  0
    6.2475   61.5024   70.4548 H   0  0  0  0  0  0  0  0  0  0  0  0
    5.3450   60.4601   71.6567 H   0  0  0  0  0  0  0  0  0  0  0  0
    4.5440   59.3174   70.0931 H   0  0  0  0  0  0  0  0  0  0  0  0
   -9.7560   61.4434   77.2596 H   0  0  0  0  0  0  0  0  0  0  0  0
   -8.2658   62.3491   76.7354 H   0  0  0  0  0  0  0  0  0  0  0  0
   -8.8368   60.4302   74.7266 H   0  0  0  0  0  0  0  0  0  0  0  0
  -10.3889   61.2837   75.1514 H   0  0  0  0  0  0  0  0  0  0  0  0
   -9.4027   61.6347   72.4467 H   0  0  0  0  0  0  0  0  0  0  0  0
   -8.7294   63.6325   71.1115 H   0  0  0  0  0  0  0  0  0  0  0  0
   -7.6094   65.6939   74.7374 H   0  0  0  0  0  0  0  0  0  0  0  0
   -8.2670   63.6940   76.0789 H   0  0  0  0  0  0  0  0  0  0  0  0
   -7.4292   66.6615   72.5125 H   0  0  0  0  0  0  0  0  0  0  0  0
  1  2  1  1
  3  1  1  0
  4  3  1  0
  5  4  1  0
  6  5  1  0
  7  1  1  0
  7  6  1  0
  8  7  1  0
  9  8  1  0
 10  9  2  0
 11 10  1  0
 11  6  1  0
 12 11  1  0
 13 12  1  0
 14 13  1  0
 15 14  1  0
 16 15  1  0
 16 10  1  0
 15 17  1  1
 18 15  1  0
 19 18  1  0
 20 19  1  0
 21 20  1  0
 21 14  1  0
 21 22  1  1
 23 21  1  0
 24 23  1  0
 25 24  1  0
 26 25  1  0
 26 20  1  0
 26 27  1  1
  6 28  1  6
 29 26  1  0
 30 29  2  0
 31 29  1  0
 32  3  1  0
 33  1  1  0
 34 33  1  0
 35 25  1  0
 36 35  1  0
 37 36  2  0
 38 36  1  0
 39 38  1  0
 40 39  1  0
 41 40  2  0
 42 41  1  0
 43 42  2  0
 44 43  1  0
 45 44  2  0
 45 40  1  0
 46 43  1  0
  2 47  1  0
  2 48  1  0
  2 49  1  0
  3 50  1  6
  4 51  1  0
  4 52  1  0
  5 53  1  0
  5 54  1  0
  7 55  1  1
  8 56  1  0
  8 57  1  0
  9 58  1  0
 11 59  1  1
 12 60  1  0
 12 61  1  0
 13 62  1  0
 13 63  1  0
 14 64  1  6
 16 65  1  0
 16 66  1  0
 17 67  1  0
 17 68  1  0
 17 69  1  0
 18 70  1  0
 18 71  1  0
 19 72  1  0
 19 73  1  0
 20 74  1  6
 22 75  1  0
 22 76  1  0
 22 77  1  0
 23 78  1  0
 23 79  1  0
 24 80  1  0
 24 81  1  0
 25 82  1  6
 27 83  1  0
 27 84  1  0
 27 85  1  0
 28 86  1  0
 28 87  1  0
 28 88  1  0
 32 89  1  0
 33 90  1  0
 33 91  1  0
 34 92  1  0
 38 93  1  0
 38 94  1  0
 39 95  1  0
 39 96  1  0
 41 97  1  0
 42 98  1  0
 44 99  1  0
 45100  1  0
 46101  1  0
M  CHG  1  31  -1
M  END
>  <score>  (4) 
-8.601

$$$$
=
     RDKit          3D

101106  0  0  0  0  0  0  0  0999 V2000
    3.5950   62.9410   70.5830 C   0  0  2  0  0  0  0  0  0  0  0  0
    4.2530   64.2180   71.1800 C   0  0  0  0  0  0  0  0  0  0  0  0
    2.1430   63.2570   70.1190 C   0  0  1  0  0  0  0  0  0  0  0  0
    1.1480   63.1740   71.2630 C   0  0  0  0  0  0  0  0  0  0  0  0
    1.0150   61.7480   71.7850 C   0  0  0  0  0  0  0  0  0  0  0  0
    2.3300   60.8990   71.7870 C   0  0  1  0  0  0  0  0  0  0  0  0
    3.5870   61.8410   71.7290 C   0  0  1  0  0  0  0  0  0  0  0  0
    4.8960   61.0340   71.8300 C   0  0  0  0  0  0  0  0  0  0  0  0
    4.8550   59.9150   72.8250 C   0  0  0  0  0  0  0  0  0  0  0  0
    3.7430   59.4550   73.4290 C   0  0  0  0  0  0  0  0  0  0  0  0
    2.3900   60.0850   73.1560 C   0  0  2  0  0  0  0  0  0  0  0  0
    1.2350   59.0730   73.3030 C   0  0  0  0  0  0  0  0  0  0  0  0
    0.7870   58.8750   74.7580 C   0  0  0  0  0  0  0  0  0  0  0  0
    1.6250   57.8830   75.6050 C   0  0  1  0  0  0  0  0  0  0  0  0
    3.1410   58.2920   75.7630 C   0  0  1  0  0  0  0  0  0  0  0  0
    3.8610   58.2690   74.3690 C   0  0  0  0  0  0  0  0  0  0  0  0
    3.3810   59.6620   76.4340 C   0  0  0  0  0  0  0  0  0  0  0  0
    3.8690   57.2060   76.6060 C   0  0  0  0  0  0  0  0  0  0  0  0
    3.1880   56.8460   77.9220 C   0  0  0  0  0  0  0  0  0  0  0  0
    1.7560   56.3470   77.6800 C   0  0  2  0  0  0  0  0  0  0  0  0
    0.8820   57.4440   76.9610 C   0  0  1  0  0  0  0  0  0  0  0  0
    0.5880   58.6650   77.8640 C   0  0  0  0  0  0  0  0  0  0  0  0
   -0.4950   56.7960   76.5960 C   0  0  0  0  0  0  0  0  0  0  0  0
   -1.1820   56.0450   77.7340 C   0  0  0  0  0  0  0  0  0  0  0  0
   -0.2560   55.0090   78.3700 C   0  0  1  0  0  0  0  0  0  0  0  0
    1.0610   55.6360   78.9010 C   0  0  1  0  0  0  0  0  0  0  0  0
    1.9350   54.4790   79.4520 C   0  0  0  0  0  0  0  0  0  0  0  0
    2.3010   59.9140   70.5910 C   0  0  0  0  0  0  0  0  0  0  0  0
    0.8990   56.5360   80.1650 C   0  0  0  0  0  0  0  0  0  0  0  0
   -0.2770   56.8630   80.4870 O   0  0  0  0  0  0  0  0  0  0  0  0
    1.9730   56.8530   80.7540 O   0  0  0  0  0  1  0  0  0  0  0  0
    2.0760   64.5510   69.5180 O   0  0  0  0  0  0  0  0  0  0  0  0
    4.3900   62.5540   69.3030 C   0  0  0  0  0  0  0  0  0  0  0  0
    3.6470   62.7090   68.0990 O   0  0  0  0  0  0  0  0  0  0  0  0
   -0.9440   54.2660   79.3960 O   0  0  0  0  0  0  0  0  0  0  0  0
   -1.6710   53.1840   79.0290 C   0  0  0  0  0  0  0  0  0  0  0  0
   -2.8540   52.9890   79.2850 O   0  0  0  0  0  0  0  0  0  0  0  0
   -0.8000   52.2040   78.2840 C   0  0  0  0  0  0  0  0  0  0  0  0
   -1.1810   52.0780   76.8120 C   0  0  0  0  0  0  0  0  0  0  0  0
   -0.2660   52.8660   75.9020 C   0  0  0  0  0  0  0  0  0  0  0  0
   -0.7900   53.6140   74.8390 C   0  0  0  0  0  0  0  0  0  0  0  0
    0.0570   54.3530   74.0110 C   0  0  0  0  0  0  0  0  0  0  0  0
    1.4250   54.3500   74.2490 C   0  0  0  0  0  0  0  0  0  0  0  0
    1.9650   53.6190   75.3010 C   0  0  0  0  0  0  0  0  0  0  0  0
    1.1180   52.8770   76.1270 C   0  0  0  0  0  0  0  0  0  0  0  0
    2.2200   55.0880   73.4190 O   0  0  0  0  0  0  0  0  0  0  0  0
    4.2258   64.1652   72.2784 H   0  0  0  0  0  0  0  0  0  0  0  0
    5.2976   64.2845   70.8419 H   0  0  0  0  0  0  0  0  0  0  0  0
    3.7008   65.1073   70.8419 H   0  0  0  0  0  0  0  0  0  0  0  0
    1.8713   62.4930   69.3757 H   0  0  0  0  0  0  0  0  0  0  0  0
    1.4898   63.8240   72.0819 H   0  0  0  0  0  0  0  0  0  0  0  0
    0.1653   63.4982   70.8900 H   0  0  0  0  0  0  0  0  0  0  0  0
    0.6452   61.8003   72.8197 H   0  0  0  0  0  0  0  0  0  0  0  0
    0.3306   61.2380   71.0911 H   0  0  0  0  0  0  0  0  0  0  0  0
    3.5073   62.4674   72.6297 H   0  0  0  0  0  0  0  0  0  0  0  0
    5.1147   60.6070   70.8401 H   0  0  0  0  0  0  0  0  0  0  0  0
    5.6717   61.7337   72.1746 H   0  0  0  0  0  0  0  0  0  0  0  0
    5.8086   59.4309   73.0825 H   0  0  0  0  0  0  0  0  0  0  0  0
    2.2479   60.8405   73.9428 H   0  0  0  0  0  0  0  0  0  0  0  0
    0.3762   59.4352   72.7188 H   0  0  0  0  0  0  0  0  0  0  0  0
    1.6022   58.1022   72.9387 H   0  0  0  0  0  0  0  0  0  0  0  0
    0.8232   59.8550   75.2563 H   0  0  0  0  0  0  0  0  0  0  0  0
   -0.2186   58.4333   74.6981 H   0  0  0  0  0  0  0  0  0  0  0  0
    1.6874   56.9559   75.0163 H   0  0  0  0  0  0  0  0  0  0  0  0
    4.9336   58.1290   74.5689 H   0  0  0  0  0  0  0  0  0  0  0  0
    3.3356   57.4677   73.8287 H   0  0  0  0  0  0  0  0  0  0  0  0
    3.3602   59.5434   77.5274 H   0  0  0  0  0  0  0  0  0  0  0  0
    4.3615   60.0542   76.1263 H   0  0  0  0  0  0  0  0  0  0  0  0
    2.5922   60.3642   76.1263 H   0  0  0  0  0  0  0  0  0  0  0  0
    3.9394   56.2924   75.9974 H   0  0  0  0  0  0  0  0  0  0  0  0
    4.8481   57.6302   76.8732 H   0  0  0  0  0  0  0  0  0  0  0  0
    3.7656   56.0542   78.4215 H   0  0  0  0  0  0  0  0  0  0  0  0
    3.1444   57.7462   78.5527 H   0  0  0  0  0  0  0  0  0  0  0  0
    1.8495   55.5067   76.9763 H   0  0  0  0  0  0  0  0  0  0  0  0
    0.6600   58.3658   78.9201 H   0  0  0  0  0  0  0  0  0  0  0  0
    1.3206   59.4590   77.6570 H   0  0  0  0  0  0  0  0  0  0  0  0
   -0.4257   59.0385   77.6570 H   0  0  0  0  0  0  0  0  0  0  0  0
   -1.1700   57.5973   76.2607 H   0  0  0  0  0  0  0  0  0  0  0  0
   -0.2833   56.0462   75.8195 H   0  0  0  0  0  0  0  0  0  0  0  0
   -1.4892   56.7683   78.5037 H   0  0  0  0  0  0  0  0  0  0  0  0
   -2.0527   55.5164   77.3186 H   0  0  0  0  0  0  0  0  0  0  0  0
    0.0360   54.3046   77.5771 H   0  0  0  0  0  0  0  0  0  0  0  0
    1.9195   54.4995   80.5517 H   0  0  0  0  0  0  0  0  0  0  0  0
    1.5360   53.5172   79.0975 H   0  0  0  0  0  0  0  0  0  0  0  0
    2.9693   54.5999   79.0975 H   0  0  0  0  0  0  0  0  0  0  0  0
    2.2706   58.8809   70.9675 H   0  0  0  0  0  0  0  0  0  0  0  0
    1.4082   60.1074   69.9783 H   0  0  0  0  0  0  0  0  0  0  0  0
    3.2037   60.0545   69.9783 H   0  0  0  0  0  0  0  0  0  0  0  0
    2.0402   65.2422   70.2259 H   0  0  0  0  0  0  0  0  0  0  0  0
    5.2843   63.1917   69.2437 H   0  0  0  0  0  0  0  0  0  0  0  0
    4.6406   61.4865   69.3908 H   0  0  0  0  0  0  0  0  0  0  0  0
    2.7018   62.9062   68.3176 H   0  0  0  0  0  0  0  0  0  0  0  0
    0.2449   52.5415   78.3494 H   0  0  0  0  0  0  0  0  0  0  0  0
   -0.9385   51.2166   78.7486 H   0  0  0  0  0  0  0  0  0  0  0  0
   -1.1331   51.0170   76.5258 H   0  0  0  0  0  0  0  0  0  0  0  0
   -2.1960   52.4857   76.6958 H   0  0  0  0  0  0  0  0  0  0  0  0
   -1.8747   53.6189   74.6560 H   0  0  0  0  0  0  0  0  0  0  0  0
   -0.3573   54.9347   73.1743 H   0  0  0  0  0  0  0  0  0  0  0  0
    3.0501   53.6250   75.4812 H   0  0  0  0  0  0  0  0  0  0  0  0
    1.5399   52.2966   76.9607 H   0  0  0  0  0  0  0  0  0  0  0  0
    3.1996   55.1080   73.5605 H   0  0  0  0  0  0  0  0  0  0  0  0
  1  2  1  1
  3  1  1  0
  4  3  1  0
  5  4  1  0
  6  5  1  0
  7  1  1  0
  7  6  1  0
  8  7  1  0
  9  8  1  0
 10  9  2  0
 11 10  1  0
 11  6  1  0
 12 11  1  0
 13 12  1  0
 14 13  1  0
 15 14  1  0
 16 15  1  0
 16 10  1  0
 15 17  1  1
 18 15  1  0
 19 18  1  0
 20 19  1  0
 21 20  1  0
 21 14  1  0
 21 22  1  1
 23 21  1  0
 24 23  1  0
 25 24  1  0
 26 25  1  0
 26 20  1  0
 26 27  1  1
  6 28  1  6
 29 26  1  0
 30 29  2  0
 31 29  1  0
 32  3  1  0
 33  1  1  0
 34 33  1  0
 35 25  1  0
 36 35  1  0
 37 36  2  0
 38 36  1  0
 39 38  1  0
 40 39  1  0
 41 40  2  0
 42 41  1  0
 43 42  2  0
 44 43  1  0
 45 44  2  0
 45 40  1  0
 46 43  1  0
  2 47  1  0
  2 48  1  0
  2 49  1  0
  3 50  1  6
  4 51  1  0
  4 52  1  0
  5 53  1  0
  5 54  1  0
  7 55  1  1
  8 56  1  0
  8 57  1  0
  9 58  1  0
 11 59  1  1
 12 60  1  0
 12 61  1  0
 13 62  1  0
 13 63  1  0
 14 64  1  6
 16 65  1  0
 16 66  1  0
 17 67  1  0
 17 68  1  0
 17 69  1  0
 18 70  1  0
 18 71  1  0
 19 72  1  0
 19 73  1  0
 20 74  1  6
 22 75  1  0
 22 76  1  0
 22 77  1  0
 23 78  1  0
 23 79  1  0
 24 80  1  0
 24 81  1  0
 25 82  1  6
 27 83  1  0
 27 84  1  0
 27 85  1  0
 28 86  1  0
 28 87  1  0
 28 88  1  0
 32 89  1  0
 33 90  1  0
 33 91  1  0
 34 92  1  0
 38 93  1  0
 38 94  1  0
 39 95  1  0
 39 96  1  0
 41 97  1  0
 42 98  1  0
 44 99  1  0
 45100  1  0
 46101  1  0
M  CHG  1  31  -1
M  END
>  <score>  (5) 
-8.528

$$$$
=
     RDKit          3D

101106  0  0  0  0  0  0  0  0999 V2000
    4.2180   62.1320   70.8100 C   0  0  2  0  0  0  0  0  0  0  0  0
    5.2410   63.2920   70.9880 C   0  0  0  0  0  0  0  0  0  0  0  0
    3.2820   62.4280   69.6020 C   0  0  1  0  0  0  0  0  0  0  0  0
    2.1200   63.3260   69.9890 C   0  0  0  0  0  0  0  0  0  0  0  0
    1.1760   62.6310   70.9630 C   0  0  0  0  0  0  0  0  0  0  0  0
    1.8550   61.6840   72.0080 C   0  0  1  0  0  0  0  0  0  0  0  0
    3.3790   62.0400   72.1560 C   0  0  1  0  0  0  0  0  0  0  0  0
    4.0490   61.1870   73.2520 C   0  0  0  0  0  0  0  0  0  0  0  0
    3.2120   60.9940   74.4780 C   0  0  0  0  0  0  0  0  0  0  0  0
    1.9050   61.3020   74.5830 C   0  0  0  0  0  0  0  0  0  0  0  0
    1.1570   61.9260   73.4200 C   0  0  2  0  0  0  0  0  0  0  0  0
   -0.3400   61.5500   73.4210 C   0  0  0  0  0  0  0  0  0  0  0  0
   -1.1820   62.4250   74.3600 C   0  0  0  0  0  0  0  0  0  0  0  0
   -1.1860   62.0190   75.8560 C   0  0  1  0  0  0  0  0  0  0  0  0
    0.2370   62.0520   76.5370 C   0  0  1  0  0  0  0  0  0  0  0  0
    1.1820   60.9860   75.8800 C   0  0  0  0  0  0  0  0  0  0  0  0
    0.9370   63.4280   76.5180 C   0  0  0  0  0  0  0  0  0  0  0  0
    0.0960   61.6000   78.0190 C   0  0  0  0  0  0  0  0  0  0  0  0
   -0.9840   62.3240   78.8150 C   0  0  0  0  0  0  0  0  0  0  0  0
   -2.3600   62.1520   78.1560 C   0  0  2  0  0  0  0  0  0  0  0  0
   -2.3670   62.7260   76.6870 C   0  0  1  0  0  0  0  0  0  0  0  0
   -2.2450   64.2660   76.6430 C   0  0  0  0  0  0  0  0  0  0  0  0
   -3.7390   62.3520   76.0330 C   0  0  0  0  0  0  0  0  0  0  0  0
   -4.9710   62.6760   76.8760 C   0  0  0  0  0  0  0  0  0  0  0  0
   -4.8700   62.0840   78.2800 C   0  0  1  0  0  0  0  0  0  0  0  0
   -3.6010   62.5610   79.0360 C   0  0  1  0  0  0  0  0  0  0  0  0
   -3.5800   61.8380   80.4080 C   0  0  0  0  0  0  0  0  0  0  0  0
    1.6540   60.2120   71.5670 C   0  0  0  0  0  0  0  0  0  0  0  0
   -3.6170   64.0590   79.4710 C   0  0  0  0  0  0  0  0  0  0  0  0
   -4.4460   64.8130   78.8920 O   0  0  0  0  0  0  0  0  0  0  0  0
   -2.7900   64.3770   80.3740 O   0  0  0  0  0  1  0  0  0  0  0  0
    4.0130   63.0250   68.5310 O   0  0  0  0  0  0  0  0  0  0  0  0
    5.0180   60.8500   70.4410 C   0  0  0  0  0  0  0  0  0  0  0  0
    4.4710   60.1310   69.3410 O   0  0  0  0  0  0  0  0  0  0  0  0
   -6.0690   62.3450   79.0360 O   0  0  0  0  0  0  0  0  0  0  0  0
   -7.1130   61.4940   78.8990 C   0  0  0  0  0  0  0  0  0  0  0  0
   -8.2670   61.8050   78.6240 O   0  0  0  0  0  0  0  0  0  0  0  0
   -6.6690   60.0810   79.1820 C   0  0  0  0  0  0  0  0  0  0  0  0
   -6.8610   59.1520   77.9880 C   0  0  0  0  0  0  0  0  0  0  0  0
   -5.6140   59.0190   77.1450 C   0  0  0  0  0  0  0  0  0  0  0  0
   -5.6800   59.1430   75.7500 C   0  0  0  0  0  0  0  0  0  0  0  0
   -4.5240   59.0360   74.9760 C   0  0  0  0  0  0  0  0  0  0  0  0
   -3.3000   58.8110   75.5940 C   0  0  0  0  0  0  0  0  0  0  0  0
   -3.2120   58.6890   76.9770 C   0  0  0  0  0  0  0  0  0  0  0  0
   -4.3700   58.7930   77.7500 C   0  0  0  0  0  0  0  0  0  0  0  0
   -2.1920   58.7150   74.8030 O   0  0  0  0  0  0  0  0  0  0  0  0
    5.4035   63.4763   72.0602 H   0  0  0  0  0  0  0  0  0  0  0  0
    6.1948   63.0156   70.5148 H   0  0  0  0  0  0  0  0  0  0  0  0
    4.8475   64.2037   70.5148 H   0  0  0  0  0  0  0  0  0  0  0  0
    2.8716   61.4625   69.2713 H   0  0  0  0  0  0  0  0  0  0  0  0
    2.5148   64.2369   70.4626 H   0  0  0  0  0  0  0  0  0  0  0  0
    1.5554   63.5712   69.0774 H   0  0  0  0  0  0  0  0  0  0  0  0
    0.6294   63.4085   71.5167 H   0  0  0  0  0  0  0  0  0  0  0  0
    0.5323   61.9855   70.3474 H   0  0  0  0  0  0  0  0  0  0  0  0
    3.3890   63.0878   72.4908 H   0  0  0  0  0  0  0  0  0  0  0  0
    4.2742   60.1969   72.8289 H   0  0  0  0  0  0  0  0  0  0  0  0
    4.9512   61.7311   73.5681 H   0  0  0  0  0  0  0  0  0  0  0  0
    3.7038   60.5664   75.3642 H   0  0  0  0  0  0  0  0  0  0  0  0
    1.2093   63.0130   73.5800 H   0  0  0  0  0  0  0  0  0  0  0  0
   -0.7289   61.6601   72.3980 H   0  0  0  0  0  0  0  0  0  0  0  0
   -0.4169   60.5140   73.7827 H   0  0  0  0  0  0  0  0  0  0  0  0
   -0.7989   63.4540   74.2928 H   0  0  0  0  0  0  0  0  0  0  0  0
   -2.2213   62.3047   74.0203 H   0  0  0  0  0  0  0  0  0  0  0  0
   -1.4377   60.9485   75.8807 H   0  0  0  0  0  0  0  0  0  0  0  0
    1.9563   60.7480   76.6242 H   0  0  0  0  0  0  0  0  0  0  0  0
    0.4896   60.1815   75.5912 H   0  0  0  0  0  0  0  0  0  0  0  0
    1.1090   63.7662   77.5505 H   0  0  0  0  0  0  0  0  0  0  0  0
    1.9009   63.3419   75.9950 H   0  0  0  0  0  0  0  0  0  0  0  0
    0.2998   64.1563   75.9950 H   0  0  0  0  0  0  0  0  0  0  0  0
   -0.1375   60.5251   78.0269 H   0  0  0  0  0  0  0  0  0  0  0  0
    1.0516   61.8438   78.5063 H   0  0  0  0  0  0  0  0  0  0  0  0
   -1.0186   61.9104   79.8337 H   0  0  0  0  0  0  0  0  0  0  0  0
   -0.7399   63.3962   78.8431 H   0  0  0  0  0  0  0  0  0  0  0  0
   -2.5136   61.0660   78.0727 H   0  0  0  0  0  0  0  0  0  0  0  0
   -2.2137   64.6608   77.6692 H   0  0  0  0  0  0  0  0  0  0  0  0
   -1.3219   64.5457   76.1142 H   0  0  0  0  0  0  0  0  0  0  0  0
   -3.1126   64.6876   76.1142 H   0  0  0  0  0  0  0  0  0  0  0  0
   -3.8234   62.8993   75.0826 H   0  0  0  0  0  0  0  0  0  0  0  0
   -3.7313   61.2588   75.9112 H   0  0  0  0  0  0  0  0  0  0  0  0
   -5.0698   63.7686   76.9567 H   0  0  0  0  0  0  0  0  0  0  0  0
   -5.8489   62.2347   76.3815 H   0  0  0  0  0  0  0  0  0  0  0  0
   -4.7699   60.9946   78.1654 H   0  0  0  0  0  0  0  0  0  0  0  0
   -3.6017   62.5841   81.2160 H   0  0  0  0  0  0  0  0  0  0  0  0
   -4.4595   61.1825   80.4905 H   0  0  0  0  0  0  0  0  0  0  0  0
   -2.6640   61.2346   80.4905 H   0  0  0  0  0  0  0  0  0  0  0  0
    1.5665   59.5713   72.4569 H   0  0  0  0  0  0  0  0  0  0  0  0
    0.7365   60.1314   70.9656 H   0  0  0  0  0  0  0  0  0  0  0  0
    2.5163   59.8884   70.9656 H   0  0  0  0  0  0  0  0  0  0  0  0
    4.7244   63.6060   68.9005 H   0  0  0  0  0  0  0  0  0  0  0  0
    6.0470   61.1440   70.1865 H   0  0  0  0  0  0  0  0  0  0  0  0
    4.9760   60.1824   71.3142 H   0  0  0  0  0  0  0  0  0  0  0  0
    3.9075   59.3903   69.6784 H   0  0  0  0  0  0  0  0  0  0  0  0
   -5.6020   60.0945   79.4490 H   0  0  0  0  0  0  0  0  0  0  0  0
   -7.2901   59.6966   80.0045 H   0  0  0  0  0  0  0  0  0  0  0  0
   -7.1425   58.1556   78.3593 H   0  0  0  0  0  0  0  0  0  0  0  0
   -7.6465   59.5866   77.3523 H   0  0  0  0  0  0  0  0  0  0  0  0
   -6.6491   59.3258   75.2627 H   0  0  0  0  0  0  0  0  0  0  0  0
   -4.5814   59.1293   73.8815 H   0  0  0  0  0  0  0  0  0  0  0  0
   -2.2384   58.5121   77.4574 H   0  0  0  0  0  0  0  0  0  0  0  0
   -4.3055   58.6967   78.8439 H   0  0  0  0  0  0  0  0  0  0  0  0
   -1.3045   58.5550   75.2115 H   0  0  0  0  0  0  0  0  0  0  0  0
  1  2  1  1
  3  1  1  0
  4  3  1  0
  5  4  1  0
  6  5  1  0
  7  1  1  0
  7  6  1  0
  8  7  1  0
  9  8  1  0
 10  9  2  0
 11 10  1  0
 11  6  1  0
 12 11  1  0
 13 12  1  0
 14 13  1  0
 15 14  1  0
 16 15  1  0
 16 10  1  0
 15 17  1  1
 18 15  1  0
 19 18  1  0
 20 19  1  0
 21 20  1  0
 21 14  1  0
 21 22  1  1
 23 21  1  0
 24 23  1  0
 25 24  1  0
 26 25  1  0
 26 20  1  0
 26 27  1  1
  6 28  1  6
 29 26  1  0
 30 29  2  0
 31 29  1  0
 32  3  1  0
 33  1  1  0
 34 33  1  0
 35 25  1  0
 36 35  1  0
 37 36  2  0
 38 36  1  0
 39 38  1  0
 40 39  1  0
 41 40  2  0
 42 41  1  0
 43 42  2  0
 44 43  1  0
 45 44  2  0
 45 40  1  0
 46 43  1  0
  2 47  1  0
  2 48  1  0
  2 49  1  0
  3 50  1  6
  4 51  1  0
  4 52  1  0
  5 53  1  0
  5 54  1  0
  7 55  1  1
  8 56  1  0
  8 57  1  0
  9 58  1  0
 11 59  1  1
 12 60  1  0
 12 61  1  0
 13 62  1  0
 13 63  1  0
 14 64  1  6
 16 65  1  0
 16 66  1  0
 17 67  1  0
 17 68  1  0
 17 69  1  0
 18 70  1  0
 18 71  1  0
 19 72  1  0
 19 73  1  0
 20 74  1  6
 22 75  1  0
 22 76  1  0
 22 77  1  0
 23 78  1  0
 23 79  1  0
 24 80  1  0
 24 81  1  0
 25 82  1  6
 27 83  1  0
 27 84  1  0
 27 85  1  0
 28 86  1  0
 28 87  1  0
 28 88  1  0
 32 89  1  0
 33 90  1  0
 33 91  1  0
 34 92  1  0
 38 93  1  0
 38 94  1  0
 39 95  1  0
 39 96  1  0
 41 97  1  0
 42 98  1  0
 44 99  1  0
 45100  1  0
 46101  1  0
M  CHG  1  31  -1
M  END
>  <score>  (6) 
-8.496

$$$$
=
     RDKit          3D

101106  0  0  0  0  0  0  0  0999 V2000
    3.6590   61.4610   70.9230 C   0  0  2  0  0  0  0  0  0  0  0  0
    3.1120   62.2990   69.7320 C   0  0  0  0  0  0  0  0  0  0  0  0
    4.0490   60.0340   70.4360 C   0  0  1  0  0  0  0  0  0  0  0  0
    2.8530   59.1000   70.3950 C   0  0  0  0  0  0  0  0  0  0  0  0
    2.3090   58.8250   71.7920 C   0  0  0  0  0  0  0  0  0  0  0  0
    2.3690   60.0270   72.7930 C   0  0  1  0  0  0  0  0  0  0  0  0
    2.5030   61.3820   72.0090 C   0  0  1  0  0  0  0  0  0  0  0  0
    2.4630   62.5890   72.9680 C   0  0  0  0  0  0  0  0  0  0  0  0
    1.4560   62.4680   74.0690 C   0  0  0  0  0  0  0  0  0  0  0  0
    0.7890   61.3430   74.3890 C   0  0  0  0  0  0  0  0  0  0  0  0
    0.9960   60.0630   73.6020 C   0  0  2  0  0  0  0  0  0  0  0  0
    0.7770   58.8050   74.4680 C   0  0  0  0  0  0  0  0  0  0  0  0
   -0.7010   58.4150   74.6040 C   0  0  0  0  0  0  0  0  0  0  0  0
   -1.5130   59.1730   75.6860 C   0  0  1  0  0  0  0  0  0  0  0  0
   -1.5860   60.7330   75.4620 C   0  0  1  0  0  0  0  0  0  0  0  0
   -0.1560   61.3690   75.5770 C   0  0  0  0  0  0  0  0  0  0  0  0
   -2.2280   61.1710   74.1280 C   0  0  0  0  0  0  0  0  0  0  0  0
   -2.4000   61.3700   76.6250 C   0  0  0  0  0  0  0  0  0  0  0  0
   -3.7540   60.7230   76.8950 C   0  0  0  0  0  0  0  0  0  0  0  0
   -3.5950   59.2310   77.2190 C   0  0  2  0  0  0  0  0  0  0  0  0
   -2.9110   58.4560   76.0270 C   0  0  1  0  0  0  0  0  0  0  0  0
   -3.8160   58.3600   74.7760 C   0  0  0  0  0  0  0  0  0  0  0  0
   -2.6270   56.9940   76.5060 C   0  0  0  0  0  0  0  0  0  0  0  0
   -3.8080   56.2850   77.1650 C   0  0  0  0  0  0  0  0  0  0  0  0
   -4.4040   57.1120   78.3020 C   0  0  1  0  0  0  0  0  0  0  0  0
   -4.8580   58.5220   77.8360 C   0  0  1  0  0  0  0  0  0  0  0  0
   -5.3740   59.2790   79.0870 C   0  0  0  0  0  0  0  0  0  0  0  0
    3.5510   59.8150   73.7720 C   0  0  0  0  0  0  0  0  0  0  0  0
   -6.1190   58.5380   76.9180 C   0  0  0  0  0  0  0  0  0  0  0  0
   -6.4390   57.4480   76.3660 O   0  0  0  0  0  0  0  0  0  0  0  0
   -6.7080   59.6520   76.8140 O   0  0  0  0  0  1  0  0  0  0  0  0
    4.6600   60.0900   69.1470 O   0  0  0  0  0  0  0  0  0  0  0  0
    4.9760   62.1330   71.4080 C   0  0  0  0  0  0  0  0  0  0  0  0
    6.0270   61.2100   71.6740 O   0  0  0  0  0  0  0  0  0  0  0  0
   -5.4740   56.3970   78.9530 O   0  0  0  0  0  0  0  0  0  0  0  0
   -5.4500   55.0430   78.9290 C   0  0  0  0  0  0  0  0  0  0  0  0
   -6.3010   54.3150   78.4310 O   0  0  0  0  0  0  0  0  0  0  0  0
   -4.2280   54.5350   79.6530 C   0  0  0  0  0  0  0  0  0  0  0  0
   -3.8500   53.1150   79.2460 C   0  0  0  0  0  0  0  0  0  0  0  0
   -3.0760   53.0650   77.9490 C   0  0  0  0  0  0  0  0  0  0  0  0
   -3.6760   52.5780   76.7790 C   0  0  0  0  0  0  0  0  0  0  0  0
   -2.9620   52.5490   75.5800 C   0  0  0  0  0  0  0  0  0  0  0  0
   -1.6520   53.0120   75.5470 C   0  0  0  0  0  0  0  0  0  0  0  0
   -1.0410   53.5020   76.6950 C   0  0  0  0  0  0  0  0  0  0  0  0
   -1.7540   53.5280   77.8950 C   0  0  0  0  0  0  0  0  0  0  0  0
   -0.9890   52.9700   74.3540 O   0  0  0  0  0  0  0  0  0  0  0  0
    2.5491   63.1614   70.1184 H   0  0  0  0  0  0  0  0  0  0  0  0
    3.9522   62.6550   69.1177 H   0  0  0  0  0  0  0  0  0  0  0  0
    2.4480   61.6731   69.1177 H   0  0  0  0  0  0  0  0  0  0  0  0
    4.7691   59.6326   71.1643 H   0  0  0  0  0  0  0  0  0  0  0  0
    2.0604   59.5611   69.7874 H   0  0  0  0  0  0  0  0  0  0  0  0
    3.1771   58.1443   69.9572 H   0  0  0  0  0  0  0  0  0  0  0  0
    1.2565   58.5216   71.6911 H   0  0  0  0  0  0  0  0  0  0  0  0
    2.9589   58.0469   72.2188 H   0  0  0  0  0  0  0  0  0  0  0  0
    1.6062   61.4256   71.3735 H   0  0  0  0  0  0  0  0  0  0  0  0
    3.4585   62.7011   73.4224 H   0  0  0  0  0  0  0  0  0  0  0  0
    2.1676   63.4605   72.3653 H   0  0  0  0  0  0  0  0  0  0  0  0
    1.2443   63.3691   74.6634 H   0  0  0  0  0  0  0  0  0  0  0  0
    0.2113   60.0550   72.8312 H   0  0  0  0  0  0  0  0  0  0  0  0
    1.3193   57.9655   74.0086 H   0  0  0  0  0  0  0  0  0  0  0  0
    1.1491   59.0340   75.4775 H   0  0  0  0  0  0  0  0  0  0  0  0
   -1.1861   58.5948   73.6332 H   0  0  0  0  0  0  0  0  0  0  0  0
   -0.6992   57.3619   74.9216 H   0  0  0  0  0  0  0  0  0  0  0  0
   -0.9316   59.0930   76.6164 H   0  0  0  0  0  0  0  0  0  0  0  0
   -0.3003   62.4264   75.8437 H   0  0  0  0  0  0  0  0  0  0  0  0
    0.3472   60.7234   76.3118 H   0  0  0  0  0  0  0  0  0  0  0  0
   -3.1207   61.7800   74.3332 H   0  0  0  0  0  0  0  0  0  0  0  0
   -1.5042   61.7644   73.5501 H   0  0  0  0  0  0  0  0  0  0  0  0
   -2.5165   60.2806   73.5501 H   0  0  0  0  0  0  0  0  0  0  0  0
   -1.7980   61.2968   77.5427 H   0  0  0  0  0  0  0  0  0  0  0  0
   -2.6100   62.4062   76.3212 H   0  0  0  0  0  0  0  0  0  0  0  0
   -4.2303   61.2278   77.7484 H   0  0  0  0  0  0  0  0  0  0  0  0
   -4.3761   60.8218   75.9932 H   0  0  0  0  0  0  0  0  0  0  0  0
   -2.8971   59.1861   78.0681 H   0  0  0  0  0  0  0  0  0  0  0  0
   -4.8645   58.2488   75.0896 H   0  0  0  0  0  0  0  0  0  0  0  0
   -3.7083   59.2746   74.1744 H   0  0  0  0  0  0  0  0  0  0  0  0
   -3.5188   57.4883   74.1744 H   0  0  0  0  0  0  0  0  0  0  0  0
   -2.3203   56.4026   75.6307 H   0  0  0  0  0  0  0  0  0  0  0  0
   -1.8478   57.0717   77.2785 H   0  0  0  0  0  0  0  0  0  0  0  0
   -4.5856   56.1093   76.4071 H   0  0  0  0  0  0  0  0  0  0  0  0
   -3.4449   55.3361   77.5866 H   0  0  0  0  0  0  0  0  0  0  0  0
   -3.6037   57.2727   79.0393 H   0  0  0  0  0  0  0  0  0  0  0  0
   -5.0247   58.7666   79.9956 H   0  0  0  0  0  0  0  0  0  0  0  0
   -4.9895   60.3096   79.0765 H   0  0  0  0  0  0  0  0  0  0  0  0
   -6.4738   59.2978   79.0765 H   0  0  0  0  0  0  0  0  0  0  0  0
    3.1857   59.8805   74.8075 H   0  0  0  0  0  0  0  0  0  0  0  0
    3.9947   58.8229   73.6018 H   0  0  0  0  0  0  0  0  0  0  0  0
    4.3118   60.5910   73.6018 H   0  0  0  0  0  0  0  0  0  0  0  0
    5.6405   60.1799   69.2502 H   0  0  0  0  0  0  0  0  0  0  0  0
    5.3164   62.8314   70.6293 H   0  0  0  0  0  0  0  0  0  0  0  0
    4.7468   62.6402   72.3568 H   0  0  0  0  0  0  0  0  0  0  0  0
    6.1396   61.1111   72.6526 H   0  0  0  0  0  0  0  0  0  0  0  0
   -3.3830   55.2022   79.4278 H   0  0  0  0  0  0  0  0  0  0  0  0
   -4.4608   54.5214   80.7280 H   0  0  0  0  0  0  0  0  0  0  0  0
   -3.2317   52.6739   80.0417 H   0  0  0  0  0  0  0  0  0  0  0  0
   -4.7838   52.5531   79.0968 H   0  0  0  0  0  0  0  0  0  0  0  0
   -4.7147   52.2170   76.8062 H   0  0  0  0  0  0  0  0  0  0  0  0
   -3.4341   52.1614   74.6652 H   0  0  0  0  0  0  0  0  0  0  0  0
   -0.0038   53.8665   76.6585 H   0  0  0  0  0  0  0  0  0  0  0  0
   -1.2742   53.9152   78.8060 H   0  0  0  0  0  0  0  0  0  0  0  0
   -0.0547   53.2920   74.2953 H   0  0  0  0  0  0  0  0  0  0  0  0
  1  2  1  6
  3  1  1  0
  4  3  1  0
  5  4  1  0
  6  5  1  0
  7  1  1  0
  7  6  1  0
  8  7  1  0
  9  8  1  0
 10  9  2  0
 11 10  1  0
 11  6  1  0
 12 11  1  0
 13 12  1  0
 14 13  1  0
 15 14  1  0
 16 15  1  0
 16 10  1  0
 15 17  1  6
 18 15  1  0
 19 18  1  0
 20 19  1  0
 21 20  1  0
 21 14  1  0
 21 22  1  6
 23 21  1  0
 24 23  1  0
 25 24  1  0
 26 25  1  0
 26 20  1  0
 26 27  1  1
  6 28  1  1
 29 26  1  0
 30 29  2  0
 31 29  1  0
 32  3  1  0
 33  1  1  0
 34 33  1  0
 35 25  1  0
 36 35  1  0
 37 36  2  0
 38 36  1  0
 39 38  1  0
 40 39  1  0
 41 40  2  0
 42 41  1  0
 43 42  2  0
 44 43  1  0
 45 44  2  0
 45 40  1  0
 46 43  1  0
  2 47  1  0
  2 48  1  0
  2 49  1  0
  3 50  1  1
  4 51  1  0
  4 52  1  0
  5 53  1  0
  5 54  1  0
  7 55  1  6
  8 56  1  0
  8 57  1  0
  9 58  1  0
 11 59  1  6
 12 60  1  0
 12 61  1  0
 13 62  1  0
 13 63  1  0
 14 64  1  1
 16 65  1  0
 16 66  1  0
 17 67  1  0
 17 68  1  0
 17 69  1  0
 18 70  1  0
 18 71  1  0
 19 72  1  0
 19 73  1  0
 20 74  1  1
 22 75  1  0
 22 76  1  0
 22 77  1  0
 23 78  1  0
 23 79  1  0
 24 80  1  0
 24 81  1  0
 25 82  1  1
 27 83  1  0
 27 84  1  0
 27 85  1  0
 28 86  1  0
 28 87  1  0
 28 88  1  0
 32 89  1  0
 33 90  1  0
 33 91  1  0
 34 92  1  0
 38 93  1  0
 38 94  1  0
 39 95  1  0
 39 96  1  0
 41 97  1  0
 42 98  1  0
 44 99  1  0
 45100  1  0
 46101  1  0
M  CHG  1  31  -1
M  END
>  <score>  (7) 
-8.304

$$$$
=
     RDKit          3D

101106  0  0  0  0  0  0  0  0999 V2000
    1.7810   63.2690   70.4800 C   0  0  2  0  0  0  0  0  0  0  0  0
    0.5700   63.4590   69.5210 C   0  0  0  0  0  0  0  0  0  0  0  0
    2.9460   62.5560   69.7330 C   0  0  1  0  0  0  0  0  0  0  0  0
    2.7790   61.0470   69.7270 C   0  0  0  0  0  0  0  0  0  0  0  0
    2.8940   60.4660   71.1310 C   0  0  0  0  0  0  0  0  0  0  0  0
    2.3010   61.3440   72.2810 C   0  0  1  0  0  0  0  0  0  0  0  0
    1.2760   62.3840   71.6990 C   0  0  1  0  0  0  0  0  0  0  0  0
    0.6030   63.1960   72.8240 C   0  0  0  0  0  0  0  0  0  0  0  0
    0.2330   62.3890   74.0290 C   0  0  0  0  0  0  0  0  0  0  0  0
    0.6360   61.1260   74.2710 C   0  0  0  0  0  0  0  0  0  0  0  0
    1.5110   60.3840   73.2780 C   0  0  2  0  0  0  0  0  0  0  0  0
    2.4260   59.3510   73.9680 C   0  0  0  0  0  0  0  0  0  0  0  0
    1.7230   58.0190   74.2580 C   0  0  0  0  0  0  0  0  0  0  0  0
    0.8640   57.9640   75.5480 C   0  0  1  0  0  0  0  0  0  0  0  0
   -0.3280   58.9960   75.5740 C   0  0  1  0  0  0  0  0  0  0  0  0
    0.2230   60.4660   75.5740 C   0  0  0  0  0  0  0  0  0  0  0  0
   -1.3520   58.8410   74.4290 C   0  0  0  0  0  0  0  0  0  0  0  0
   -1.0850   58.8560   76.9260 C   0  0  0  0  0  0  0  0  0  0  0  0
   -1.4960   57.4330   77.2900 C   0  0  0  0  0  0  0  0  0  0  0  0
   -0.2720   56.5090   77.3590 C   0  0  2  0  0  0  0  0  0  0  0  0
    0.4870   56.4610   75.9770 C   0  0  1  0  0  0  0  0  0  0  0  0
   -0.3230   55.7440   74.8720 C   0  0  0  0  0  0  0  0  0  0  0  0
    1.8070   55.6470   76.1850 C   0  0  0  0  0  0  0  0  0  0  0  0
    1.6400   54.3060   76.8950 C   0  0  0  0  0  0  0  0  0  0  0  0
    0.8910   54.4530   78.2180 C   0  0  1  0  0  0  0  0  0  0  0  0
   -0.5050   55.1080   78.0400 C   0  0  1  0  0  0  0  0  0  0  0  0
   -1.1260   55.2660   79.4530 C   0  0  0  0  0  0  0  0  0  0  0  0
    3.4590   62.0470   73.0340 C   0  0  0  0  0  0  0  0  0  0  0  0
   -1.5670   54.2140   77.3290 C   0  0  0  0  0  0  0  0  0  0  0  0
   -1.1320   53.3220   76.5480 O   0  0  0  0  0  0  0  0  0  0  0  0
   -2.7740   54.4700   77.6070 O   0  0  0  0  0  1  0  0  0  0  0  0
    3.0520   63.0330   68.3910 O   0  0  0  0  0  0  0  0  0  0  0  0
    2.3060   64.6820   70.8630 C   0  0  0  0  0  0  0  0  0  0  0  0
    1.6030   65.7470   70.2320 O   0  0  0  0  0  0  0  0  0  0  0  0
    0.8020   53.1870   78.9030 O   0  0  0  0  0  0  0  0  0  0  0  0
    1.7140   52.9110   79.8650 C   0  0  0  0  0  0  0  0  0  0  0  0
    2.2700   51.8340   80.0430 O   0  0  0  0  0  0  0  0  0  0  0  0
    1.9270   54.1220   80.7380 C   0  0  0  0  0  0  0  0  0  0  0  0
    3.3210   54.7210   80.5850 C   0  0  0  0  0  0  0  0  0  0  0  0
    3.3130   56.0370   79.8410 C   0  0  0  0  0  0  0  0  0  0  0  0
    4.3130   56.3320   78.9040 C   0  0  0  0  0  0  0  0  0  0  0  0
    4.2940   57.5410   78.2070 C   0  0  0  0  0  0  0  0  0  0  0  0
    3.2720   58.4530   78.4410 C   0  0  0  0  0  0  0  0  0  0  0  0
    2.2680   58.1780   79.3630 C   0  0  0  0  0  0  0  0  0  0  0  0
    2.2900   56.9700   80.0620 C   0  0  0  0  0  0  0  0  0  0  0  0
    3.2860   59.6230   77.7370 O   0  0  0  0  0  0  0  0  0  0  0  0
   -0.3466   63.6028   70.1119 H   0  0  0  0  0  0  0  0  0  0  0  0
    0.7396   64.3415   68.8867 H   0  0  0  0  0  0  0  0  0  0  0  0
    0.4611   62.5669   68.8867 H   0  0  0  0  0  0  0  0  0  0  0  0
    3.8704   62.7941   70.2797 H   0  0  0  0  0  0  0  0  0  0  0  0
    1.7887   60.7988   69.3176 H   0  0  0  0  0  0  0  0  0  0  0  0
    3.5787   60.6141   69.1081 H   0  0  0  0  0  0  0  0  0  0  0  0
    2.3699   59.4989   71.1401 H   0  0  0  0  0  0  0  0  0  0  0  0
    3.9721   60.3924   71.3367 H   0  0  0  0  0  0  0  0  0  0  0  0
    0.5009   61.7709   71.2159 H   0  0  0  0  0  0  0  0  0  0  0  0
    1.2976   63.9883   73.1399 H   0  0  0  0  0  0  0  0  0  0  0  0
   -0.3359   63.5913   72.4090 H   0  0  0  0  0  0  0  0  0  0  0  0
   -0.4195   62.8644   74.7762 H   0  0  0  0  0  0  0  0  0  0  0  0
    0.8212   59.8157   72.6367 H   0  0  0  0  0  0  0  0  0  0  0  0
    3.2885   59.1559   73.3137 H   0  0  0  0  0  0  0  0  0  0  0  0
    2.7292   59.7778   74.9354 H   0  0  0  0  0  0  0  0  0  0  0  0
    1.0639   57.7951   73.4063 H   0  0  0  0  0  0  0  0  0  0  0  0
    2.5303   57.2876   74.4109 H   0  0  0  0  0  0  0  0  0  0  0  0
    1.5106   58.3268   76.3606 H   0  0  0  0  0  0  0  0  0  0  0  0
   -0.5619   61.0984   76.0145 H   0  0  0  0  0  0  0  0  0  0  0  0
    1.1723   60.3781   76.1227 H   0  0  0  0  0  0  0  0  0  0  0  0
   -2.3557   58.6891   74.8528 H   0  0  0  0  0  0  0  0  0  0  0  0
   -1.3494   59.7498   73.8092 H   0  0  0  0  0  0  0  0  0  0  0  0
   -1.0805   57.9737   73.8092 H   0  0  0  0  0  0  0  0  0  0  0  0
   -0.4312   59.2372   77.7243 H   0  0  0  0  0  0  0  0  0  0  0  0
   -2.0186   59.4272   76.8163 H   0  0  0  0  0  0  0  0  0  0  0  0
   -1.9958   57.4422   78.2698 H   0  0  0  0  0  0  0  0  0  0  0  0
   -2.1778   57.0551   76.5139 H   0  0  0  0  0  0  0  0  0  0  0  0
    0.4130   56.9784   78.0804 H   0  0  0  0  0  0  0  0  0  0  0  0
   -1.0700   55.0828   75.3355 H   0  0  0  0  0  0  0  0  0  0  0  0
   -0.8329   56.4921   74.2472 H   0  0  0  0  0  0  0  0  0  0  0  0
    0.3577   55.1471   74.2472 H   0  0  0  0  0  0  0  0  0  0  0  0
    2.2478   55.4554   75.1956 H   0  0  0  0  0  0  0  0  0  0  0  0
    2.4437   56.2609   76.8390 H   0  0  0  0  0  0  0  0  0  0  0  0
    1.0763   53.6247   76.2407 H   0  0  0  0  0  0  0  0  0  0  0  0
    2.6420   53.9075   77.1123 H   0  0  0  0  0  0  0  0  0  0  0  0
    1.4764   55.1397   78.8472 H   0  0  0  0  0  0  0  0  0  0  0  0
   -0.3574   55.0704   80.2153 H   0  0  0  0  0  0  0  0  0  0  0  0
   -1.5090   56.2902   79.5728 H   0  0  0  0  0  0  0  0  0  0  0  0
   -1.9519   54.5494   79.5728 H   0  0  0  0  0  0  0  0  0  0  0  0
    3.3022   61.9518   74.1186 H   0  0  0  0  0  0  0  0  0  0  0  0
    4.4144   61.5763   72.7589 H   0  0  0  0  0  0  0  0  0  0  0  0
    3.4822   63.1118   72.7589 H   0  0  0  0  0  0  0  0  0  0  0  0
    3.2668   63.9994   68.4003 H   0  0  0  0  0  0  0  0  0  0  0  0
    2.2133   64.8028   71.9524 H   0  0  0  0  0  0  0  0  0  0  0  0
    3.3496   64.7397   70.5201 H   0  0  0  0  0  0  0  0  0  0  0  0
    1.2121   66.3392   70.9224 H   0  0  0  0  0  0  0  0  0  0  0  0
    1.1840   54.8864   80.4666 H   0  0  0  0  0  0  0  0  0  0  0  0
    1.8169   53.8004   81.7842 H   0  0  0  0  0  0  0  0  0  0  0  0
    3.7449   54.8857   81.5866 H   0  0  0  0  0  0  0  0  0  0  0  0
    3.9243   54.0121   79.9990 H   0  0  0  0  0  0  0  0  0  0  0  0
    5.1179   55.6059   78.7169 H   0  0  0  0  0  0  0  0  0  0  0  0
    5.0837   57.7707   77.4765 H   0  0  0  0  0  0  0  0  0  0  0  0
    1.4630   58.9065   79.5400 H   0  0  0  0  0  0  0  0  0  0  0  0
    1.4980   56.7481   80.7924 H   0  0  0  0  0  0  0  0  0  0  0  0
    2.5729   60.2948   77.8792 H   0  0  0  0  0  0  0  0  0  0  0  0
  1  2  1  6
  3  1  1  0
  4  3  1  0
  5  4  1  0
  6  5  1  0
  7  1  1  0
  7  6  1  0
  8  7  1  0
  9  8  1  0
 10  9  2  0
 11 10  1  0
 11  6  1  0
 12 11  1  0
 13 12  1  0
 14 13  1  0
 15 14  1  0
 16 15  1  0
 16 10  1  0
 15 17  1  6
 18 15  1  0
 19 18  1  0
 20 19  1  0
 21 20  1  0
 21 14  1  0
 21 22  1  6
 23 21  1  0
 24 23  1  0
 25 24  1  0
 26 25  1  0
 26 20  1  0
 26 27  1  1
  6 28  1  1
 29 26  1  0
 30 29  2  0
 31 29  1  0
 32  3  1  0
 33  1  1  0
 34 33  1  0
 35 25  1  0
 36 35  1  0
 37 36  2  0
 38 36  1  0
 39 38  1  0
 40 39  1  0
 41 40  2  0
 42 41  1  0
 43 42  2  0
 44 43  1  0
 45 44  2  0
 45 40  1  0
 46 43  1  0
  2 47  1  0
  2 48  1  0
  2 49  1  0
  3 50  1  1
  4 51  1  0
  4 52  1  0
  5 53  1  0
  5 54  1  0
  7 55  1  6
  8 56  1  0
  8 57  1  0
  9 58  1  0
 11 59  1  6
 12 60  1  0
 12 61  1  0
 13 62  1  0
 13 63  1  0
 14 64  1  1
 16 65  1  0
 16 66  1  0
 17 67  1  0
 17 68  1  0
 17 69  1  0
 18 70  1  0
 18 71  1  0
 19 72  1  0
 19 73  1  0
 20 74  1  1
 22 75  1  0
 22 76  1  0
 22 77  1  0
 23 78  1  0
 23 79  1  0
 24 80  1  0
 24 81  1  0
 25 82  1  1
 27 83  1  0
 27 84  1  0
 27 85  1  0
 28 86  1  0
 28 87  1  0
 28 88  1  0
 32 89  1  0
 33 90  1  0
 33 91  1  0
 34 92  1  0
 38 93  1  0
 38 94  1  0
 39 95  1  0
 39 96  1  0
 41 97  1  0
 42 98  1  0
 44 99  1  0
 45100  1  0
 46101  1  0
M  CHG  1  31  -1
M  END
>  <score>  (8) 
-8.118

$$$$
=
     RDKit          3D

101106  0  0  0  0  0  0  0  0999 V2000
    4.0170   61.0100   70.9020 C   0  0  2  0  0  0  0  0  0  0  0  0
    5.5540   60.7990   70.7750 C   0  0  0  0  0  0  0  0  0  0  0  0
    3.7230   62.3420   71.6550 C   0  0  1  0  0  0  0  0  0  0  0  0
    3.7720   62.1650   73.1620 C   0  0  0  0  0  0  0  0  0  0  0  0
    2.6490   61.2610   73.6570 C   0  0  0  0  0  0  0  0  0  0  0  0
    2.2650   60.0750   72.7120 C   0  0  1  0  0  0  0  0  0  0  0  0
    3.4410   59.7720   71.7130 C   0  0  1  0  0  0  0  0  0  0  0  0
    3.1280   58.5430   70.8370 C   0  0  0  0  0  0  0  0  0  0  0  0
    2.4720   57.4150   71.5710 C   0  0  0  0  0  0  0  0  0  0  0  0
    1.9610   57.4910   72.8140 C   0  0  0  0  0  0  0  0  0  0  0  0
    2.0420   58.7790   73.6120 C   0  0  2  0  0  0  0  0  0  0  0  0
    0.8650   58.9290   74.5980 C   0  0  0  0  0  0  0  0  0  0  0  0
    1.0770   58.1670   75.9130 C   0  0  0  0  0  0  0  0  0  0  0  0
    0.7310   56.6550   75.8930 C   0  0  1  0  0  0  0  0  0  0  0  0
    1.5810   55.8130   74.8640 C   0  0  1  0  0  0  0  0  0  0  0  0
    1.2700   56.2710   73.3960 C   0  0  0  0  0  0  0  0  0  0  0  0
    3.1070   55.8510   75.0940 C   0  0  0  0  0  0  0  0  0  0  0  0
    1.1170   54.3290   74.9250 C   0  0  0  0  0  0  0  0  0  0  0  0
    1.0700   53.7250   76.3240 C   0  0  0  0  0  0  0  0  0  0  0  0
    0.1340   54.5300   77.2380 C   0  0  2  0  0  0  0  0  0  0  0  0
    0.6090   56.0280   77.3680 C   0  0  1  0  0  0  0  0  0  0  0  0
    1.9330   56.1720   78.1530 C   0  0  0  0  0  0  0  0  0  0  0  0
   -0.4870   56.8110   78.1630 C   0  0  0  0  0  0  0  0  0  0  0  0
   -0.9490   56.1500   79.4590 C   0  0  0  0  0  0  0  0  0  0  0  0
   -1.3840   54.7030   79.2340 C   0  0  1  0  0  0  0  0  0  0  0  0
   -0.2650   53.8370   78.5960 C   0  0  1  0  0  0  0  0  0  0  0  0
   -0.8530   52.4230   78.3550 C   0  0  0  0  0  0  0  0  0  0  0  0
    0.9560   60.4260   71.9610 C   0  0  0  0  0  0  0  0  0  0  0  0
    0.9400   53.5210   79.5360 C   0  0  0  0  0  0  0  0  0  0  0  0
    1.6740   52.5460   79.2150 O   0  0  0  0  0  0  0  0  0  0  0  0
    1.0670   54.2810   80.5380 O   0  0  0  0  0  1  0  0  0  0  0  0
    4.6440   63.3590   71.2600 O   0  0  0  0  0  0  0  0  0  0  0  0
    3.4440   61.1840   69.4660 C   0  0  0  0  0  0  0  0  0  0  0  0
    2.6120   62.3290   69.3160 O   0  0  0  0  0  0  0  0  0  0  0  0
   -1.8780   54.1180   80.4560 O   0  0  0  0  0  0  0  0  0  0  0  0
   -3.1510   53.6590   80.4800 C   0  0  0  0  0  0  0  0  0  0  0  0
   -3.5020   52.5210   80.7690 O   0  0  0  0  0  0  0  0  0  0  0  0
   -4.1020   54.7470   80.0490 C   0  0  0  0  0  0  0  0  0  0  0  0
   -4.6120   54.5550   78.6250 C   0  0  0  0  0  0  0  0  0  0  0  0
   -4.1170   55.6240   77.6780 C   0  0  0  0  0  0  0  0  0  0  0  0
   -3.4200   55.2780   76.5120 C   0  0  0  0  0  0  0  0  0  0  0  0
   -2.9790   56.2680   75.6320 C   0  0  0  0  0  0  0  0  0  0  0  0
   -3.2400   57.6030   75.9120 C   0  0  0  0  0  0  0  0  0  0  0  0
   -3.9340   57.9680   77.0610 C   0  0  0  0  0  0  0  0  0  0  0  0
   -4.3720   56.9770   77.9420 C   0  0  0  0  0  0  0  0  0  0  0  0
   -2.7960   58.5410   75.0260 O   0  0  0  0  0  0  0  0  0  0  0  0
    5.9999   60.7378   71.7787 H   0  0  0  0  0  0  0  0  0  0  0  0
    5.7520   59.8653   70.2283 H   0  0  0  0  0  0  0  0  0  0  0  0
    5.9963   61.6449   70.2283 H   0  0  0  0  0  0  0  0  0  0  0  0
    2.7025   62.6474   71.3808 H   0  0  0  0  0  0  0  0  0  0  0  0
    4.7383   61.7176   73.4378 H   0  0  0  0  0  0  0  0  0  0  0  0
    3.6495   63.1534   73.6289 H   0  0  0  0  0  0  0  0  0  0  0  0
    2.9584   60.8363   74.6234 H   0  0  0  0  0  0  0  0  0  0  0  0
    1.7548   61.8990   73.7152 H   0  0  0  0  0  0  0  0  0  0  0  0
    4.2954   59.5180   72.3575 H   0  0  0  0  0  0  0  0  0  0  0  0
    2.4586   58.8607   70.0241 H   0  0  0  0  0  0  0  0  0  0  0  0
    4.0931   58.1623   70.4715 H   0  0  0  0  0  0  0  0  0  0  0  0
    2.4020   56.4470   71.0533 H   0  0  0  0  0  0  0  0  0  0  0  0
    2.9542   58.6958   74.2210 H   0  0  0  0  0  0  0  0  0  0  0  0
    0.7367   59.9967   74.8294 H   0  0  0  0  0  0  0  0  0  0  0  0
   -0.0247   58.5016   74.1124 H   0  0  0  0  0  0  0  0  0  0  0  0
    2.1370   58.2649   76.1902 H   0  0  0  0  0  0  0  0  0  0  0  0
    0.3770   58.6192   76.6309 H   0  0  0  0  0  0  0  0  0  0  0  0
   -0.2858   56.5793   75.4801 H   0  0  0  0  0  0  0  0  0  0  0  0
    1.5189   55.4234   72.7405 H   0  0  0  0  0  0  0  0  0  0  0  0
    0.2159   56.5811   73.4482 H   0  0  0  0  0  0  0  0  0  0  0  0
    3.3150   55.8562   76.1741 H   0  0  0  0  0  0  0  0  0  0  0  0
    3.5691   54.9641   74.6359 H   0  0  0  0  0  0  0  0  0  0  0  0
    3.5243   56.7598   74.6359 H   0  0  0  0  0  0  0  0  0  0  0  0
    0.1069   54.2694   74.4936 H   0  0  0  0  0  0  0  0  0  0  0  0
    1.8661   53.7497   74.3654 H   0  0  0  0  0  0  0  0  0  0  0  0
    0.7049   52.6895   76.2570 H   0  0  0  0  0  0  0  0  0  0  0  0
    2.0835   53.7485   76.7509 H   0  0  0  0  0  0  0  0  0  0  0  0
   -0.8373   54.5504   76.7222 H   0  0  0  0  0  0  0  0  0  0  0  0
    1.7235   56.1492   79.2326 H   0  0  0  0  0  0  0  0  0  0  0  0
    2.6059   55.3417   77.8925 H   0  0  0  0  0  0  0  0  0  0  0  0
    2.4117   57.1275   77.8925 H   0  0  0  0  0  0  0  0  0  0  0  0
   -0.0824   57.8029   78.4127 H   0  0  0  0  0  0  0  0  0  0  0  0
   -1.3702   56.8478   77.5083 H   0  0  0  0  0  0  0  0  0  0  0  0
   -0.1195   56.1642   80.1813 H   0  0  0  0  0  0  0  0  0  0  0  0
   -1.8145   56.7120   79.8398 H   0  0  0  0  0  0  0  0  0  0  0  0
   -2.2096   54.7234   78.5074 H   0  0  0  0  0  0  0  0  0  0  0  0
   -1.0540   51.9397   79.3225 H   0  0  0  0  0  0  0  0  0  0  0  0
   -1.7904   52.5078   77.7858 H   0  0  0  0  0  0  0  0  0  0  0  0
   -0.1318   51.8181   77.7858 H   0  0  0  0  0  0  0  0  0  0  0  0
    0.1607   60.6393   72.6904 H   0  0  0  0  0  0  0  0  0  0  0  0
    1.1216   61.3115   71.3297 H   0  0  0  0  0  0  0  0  0  0  0  0
    0.6564   59.5765   71.3297 H   0  0  0  0  0  0  0  0  0  0  0  0
    5.0302   63.7855   72.0657 H   0  0  0  0  0  0  0  0  0  0  0  0
    4.2866   61.2729   68.7645 H   0  0  0  0  0  0  0  0  0  0  0  0
    2.8179   60.3031   69.2612 H   0  0  0  0  0  0  0  0  0  0  0  0
    2.3613   62.6741   70.2094 H   0  0  0  0  0  0  0  0  0  0  0  0
   -4.9633   54.7525   80.7332 H   0  0  0  0  0  0  0  0  0  0  0  0
   -3.5518   55.6991   80.0785 H   0  0  0  0  0  0  0  0  0  0  0  0
   -4.2715   53.5753   78.2585 H   0  0  0  0  0  0  0  0  0  0  0  0
   -5.7097   54.6199   78.6541 H   0  0  0  0  0  0  0  0  0  0  0  0
   -3.2193   54.2197   76.2890 H   0  0  0  0  0  0  0  0  0  0  0  0
   -2.4274   55.9920   74.7212 H   0  0  0  0  0  0  0  0  0  0  0  0
   -4.1360   59.0281   77.2738 H   0  0  0  0  0  0  0  0  0  0  0  0
   -4.9221   57.2606   78.8514 H   0  0  0  0  0  0  0  0  0  0  0  0
   -2.9654   59.5015   75.1957 H   0  0  0  0  0  0  0  0  0  0  0  0
  1  2  1  6
  3  1  1  0
  4  3  1  0
  5  4  1  0
  6  5  1  0
  7  1  1  0
  7  6  1  0
  8  7  1  0
  9  8  1  0
 10  9  2  0
 11 10  1  0
 11  6  1  0
 12 11  1  0
 13 12  1  0
 14 13  1  0
 15 14  1  0
 16 15  1  0
 16 10  1  0
 15 17  1  1
 18 15  1  0
 19 18  1  0
 20 19  1  0
 21 20  1  0
 21 14  1  0
 21 22  1  1
 23 21  1  0
 24 23  1  0
 25 24  1  0
 26 25  1  0
 26 20  1  0
 26 27  1  6
  6 28  1  6
 29 26  1  0
 30 29  2  0
 31 29  1  0
 32  3  1  0
 33  1  1  0
 34 33  1  0
 35 25  1  0
 36 35  1  0
 37 36  2  0
 38 36  1  0
 39 38  1  0
 40 39  1  0
 41 40  2  0
 42 41  1  0
 43 42  2  0
 44 43  1  0
 45 44  2  0
 45 40  1  0
 46 43  1  0
  2 47  1  0
  2 48  1  0
  2 49  1  0
  3 50  1  1
  4 51  1  0
  4 52  1  0
  5 53  1  0
  5 54  1  0
  7 55  1  1
  8 56  1  0
  8 57  1  0
  9 58  1  0
 11 59  1  1
 12 60  1  0
 12 61  1  0
 13 62  1  0
 13 63  1  0
 14 64  1  6
 16 65  1  0
 16 66  1  0
 17 67  1  0
 17 68  1  0
 17 69  1  0
 18 70  1  0
 18 71  1  0
 19 72  1  0
 19 73  1  0
 20 74  1  6
 22 75  1  0
 22 76  1  0
 22 77  1  0
 23 78  1  0
 23 79  1  0
 24 80  1  0
 24 81  1  0
 25 82  1  6
 27 83  1  0
 27 84  1  0
 27 85  1  0
 28 86  1  0
 28 87  1  0
 28 88  1  0
 32 89  1  0
 33 90  1  0
 33 91  1  0
 34 92  1  0
 38 93  1  0
 38 94  1  0
 39 95  1  0
 39 96  1  0
 41 97  1  0
 42 98  1  0
 44 99  1  0
 45100  1  0
 46101  1  0
M  CHG  1  31  -1
M  END
>  <score>  (9) 
-7.713

$$$$
