=
     RDKit          3D

177187  0  0  0  0  0  0  0  0999 V2000
   -2.5310   55.3630   78.9940 C   0  0  2  0  0  0  0  0  0  0  0  0
   -3.3460   54.4520   79.7350 O   0  0  0  0  0  0  0  0  0  0  0  0
   -4.6160   54.1030   79.1480 C   0  0  1  0  0  0  0  0  0  0  0  0
   -5.3100   55.2960   78.4720 C   0  0  1  0  0  0  0  0  0  0  0  0
   -4.7510   56.6070   79.0230 C   0  0  1  0  0  0  0  0  0  0  0  0
   -3.2540   56.7060   78.6900 C   0  0  1  0  0  0  0  0  0  0  0  0
   -5.1590   55.2760   77.0440 O   0  0  0  0  0  0  0  0  0  0  0  0
   -5.4760   57.6730   78.3680 O   0  0  0  0  0  0  0  0  0  0  0  0
   -6.7880   57.8630   78.9100 C   0  0  2  0  0  0  0  0  0  0  0  0
   -7.6370   56.7660   78.5230 O   0  0  0  0  0  0  0  0  0  0  0  0
   -8.1250   56.9050   77.1880 C   0  0  0  0  0  0  0  0  0  0  0  0
   -9.1400   58.0500   77.1290 C   0  0  2  0  0  0  0  0  0  0  0  0
   -8.8410   59.1190   78.1880 C   0  0  1  0  0  0  0  0  0  0  0  0
   -7.3380   59.2310   78.4270 C   0  0  1  0  0  0  0  0  0  0  0  0
   -7.0950   60.2700   79.3890 O   0  0  0  0  0  0  0  0  0  0  0  0
   -9.3580   60.3930   77.7690 O   0  0  0  0  0  0  0  0  0  0  0  0
  -10.4720   57.5660   77.3610 O   0  0  0  0  0  0  0  0  0  0  0  0
   -2.7030   57.7690   79.5000 O   0  0  0  0  0  0  0  0  0  0  0  0
   -1.8370   58.6340   78.7580 C   0  0  2  0  0  0  0  0  0  0  0  0
   -1.2220   59.5690   79.6520 O   0  0  0  0  0  0  0  0  0  0  0  0
   -1.9960   60.7380   79.9350 C   0  0  1  0  0  0  0  0  0  0  0  0
   -2.2450   61.5600   78.6460 C   0  0  1  0  0  0  0  0  0  0  0  0
   -2.0680   60.7130   77.3710 C   0  0  1  0  0  0  0  0  0  0  0  0
   -2.6210   59.3100   77.6110 C   0  0  1  0  0  0  0  0  0  0  0  0
   -3.5400   62.1860   78.6610 O   0  0  0  0  0  0  0  0  0  0  0  0
   -2.5270   58.5400   76.4020 O   0  0  0  0  0  0  0  0  0  0  0  0
   -2.7920   61.2890   76.2620 O   0  0  0  0  0  0  0  0  0  0  0  0
   -4.2040   61.0500   76.3080 C   0  0  2  0  0  0  0  0  0  0  0  0
   -4.4870   59.8890   75.5260 O   0  0  0  0  0  0  0  0  0  0  0  0
   -5.8900   59.5850   75.4760 C   0  0  1  0  0  0  0  0  0  0  0  0
   -6.6440   60.7300   74.7810 C   0  0  2  0  0  0  0  0  0  0  0  0
   -6.4070   62.0210   75.5690 C   0  0  1  0  0  0  0  0  0  0  0  0
   -4.9130   62.2940   75.7320 C   0  0  1  0  0  0  0  0  0  0  0  0
   -8.0530   60.4930   74.7260 O   0  0  0  0  0  0  0  0  0  0  0  0
   -7.0180   63.1310   74.8940 O   0  0  0  0  0  0  0  0  0  0  0  0
   -4.7440   63.4310   76.5920 O   0  0  0  0  0  0  0  0  0  0  0  0
   -6.0490   58.2520   74.7380 C   0  0  0  0  0  0  0  0  0  0  0  0
   -5.1200   57.2900   75.2320 O   0  0  0  0  0  0  0  0  0  0  0  0
   -3.2530   60.4300   80.7700 C   0  0  0  0  0  0  0  0  0  0  0  0
   -4.3760   60.1460   79.9370 O   0  0  0  0  0  0  0  0  0  0  0  0
   -4.5240   52.8650   78.2420 C   0  0  0  0  0  0  0  0  0  0  0  0
   -5.8020   52.5690   77.6690 O   0  0  0  0  0  0  0  0  0  0  0  0
   -2.0830   54.7640   77.7830 O   0  0  0  0  0  0  0  0  0  0  0  0
   -1.2950   52.8170   76.5080 C   0  0  1  0  0  0  0  0  0  0  0  0
   -0.2770   53.6300   75.8920 O   0  0  0  0  0  0  0  0  0  0  0  0
    0.9290   53.6760   76.6510 C   0  0  2  0  0  0  0  0  0  0  0  0
    0.6950   54.1750   78.0930 C   0  0  1  0  0  0  0  0  0  0  0  0
   -0.4110   53.3510   78.7550 C   0  0  2  0  0  0  0  0  0  0  0  0
   -1.6810   53.3860   77.8910 C   0  0  1  0  0  0  0  0  0  0  0  0
   -0.6840   53.8400   80.0740 O   0  0  0  0  0  0  0  0  0  0  0  0
    1.8960   54.0610   78.8780 O   0  0  0  0  0  0  0  0  0  0  0  0
    1.8570   54.5900   76.0510 O   0  0  0  0  0  0  0  0  0  0  0  0
    1.2400   55.6650   75.3230 C   0  0  2  0  0  0  0  0  0  0  0  0
    2.2650   56.1470   74.2930 C   0  0  0  0  0  0  0  0  0  0  0  0
    1.7930   57.4200   73.5820 C   0  0  2  0  0  0  0  0  0  0  0  0
    2.7610   57.8230   72.4640 C   0  0  0  0  0  0  0  0  0  0  0  0
    2.2210   59.0120   71.6710 C   0  0  0  0  0  0  0  0  0  0  0  0
    1.8850   60.2080   72.5720 C   0  0  2  0  0  0  0  0  0  0  0  0
    0.9170   59.7850   73.7270 C   0  0  1  0  0  0  0  0  0  0  0  0
    1.5010   58.5910   74.5720 C   0  0  1  0  0  0  0  0  0  0  0  0
    0.4540   58.0840   75.5990 C   0  0  0  0  0  0  0  0  0  0  0  0
    0.8560   56.7880   76.3120 C   0  0  1  0  0  0  0  0  0  0  0  0
    2.7700   59.0320   75.3450 C   0  0  0  0  0  0  0  0  0  0  0  0
    0.4300   60.9940   74.5710 C   0  0  0  0  0  0  0  0  0  0  0  0
   -0.0700   62.1830   73.7260 C   0  0  0  0  0  0  0  0  0  0  0  0
    0.9590   62.6000   72.6580 C   0  0  1  0  0  0  0  0  0  0  0  0
    1.2200   61.3410   71.7820 C   0  0  1  0  0  0  0  0  0  0  0  0
    1.8710   61.8930   70.5160 C   0  0  1  0  0  0  0  0  0  0  0  0
    0.9860   63.1170   70.2430 C   0  0  1  0  0  0  0  0  0  0  0  0
    0.3950   63.5880   71.5910 C   0  0  2  0  0  0  0  0  0  0  0  0
    0.7750   65.0740   71.6320 C   0  0  1  0  0  0  0  0  0  0  0  0
    1.0160   65.4020   70.1450 C   0  0  2  0  0  0  0  0  0  0  0  0
    1.6910   64.2170   69.6630 O   0  0  0  0  0  0  0  0  0  0  0  0
    1.9380   66.6140   69.9200 C   0  0  0  0  0  0  0  0  0  0  0  0
    1.1530   67.8680   69.5550 C   0  0  0  0  0  0  0  0  0  0  0  0
    0.2470   67.6220   68.3380 C   0  0  2  0  0  0  0  0  0  0  0  0
   -0.1080   66.1390   68.1910 C   0  0  0  0  0  0  0  0  0  0  0  0
   -0.2420   65.5440   69.4770 O   0  0  0  0  0  0  0  0  0  0  0  0
    0.8690   68.1510   67.0470 C   0  0  0  0  0  0  0  0  0  0  0  0
   -0.2770   65.9190   72.3370 C   0  0  0  0  0  0  0  0  0  0  0  0
    2.2080   63.1580   73.3840 C   0  0  0  0  0  0  0  0  0  0  0  0
    3.2300   62.2510   70.7150 O   0  0  0  0  0  0  0  0  0  0  0  0
   -0.2550   56.3980   77.1330 O   0  0  0  0  0  0  0  0  0  0  0  0
   -2.4780   52.7070   75.5460 C   0  0  0  0  0  0  0  0  0  0  0  0
   -2.9460   54.0010   75.1850 O   0  0  0  0  0  0  0  0  0  0  0  0
   -1.6641   55.5972   79.6293 H   0  0  0  0  0  0  0  0  0  0  0  0
   -5.2724   53.8174   79.9832 H   0  0  0  0  0  0  0  0  0  0  0  0
   -6.3837   55.2171   78.6977 H   0  0  0  0  0  0  0  0  0  0  0  0
   -4.8644   56.6668   80.1155 H   0  0  0  0  0  0  0  0  0  0  0  0
   -3.1131   56.9179   77.6199 H   0  0  0  0  0  0  0  0  0  0  0  0
   -4.2042   55.1495   76.8149 H   0  0  0  0  0  0  0  0  0  0  0  0
   -6.7559   57.8775   80.0094 H   0  0  0  0  0  0  0  0  0  0  0  0
   -7.2853   57.1249   76.5123 H   0  0  0  0  0  0  0  0  0  0  0  0
   -8.6119   55.9687   76.8776 H   0  0  0  0  0  0  0  0  0  0  0  0
   -9.0612   58.4883   76.1232 H   0  0  0  0  0  0  0  0  0  0  0  0
   -9.3305   58.8199   79.1266 H   0  0  0  0  0  0  0  0  0  0  0  0
   -6.8163   59.4933   77.4948 H   0  0  0  0  0  0  0  0  0  0  0  0
   -7.1815   59.9001   80.3032 H   0  0  0  0  0  0  0  0  0  0  0  0
   -9.5790   60.9376   78.5656 H   0  0  0  0  0  0  0  0  0  0  0  0
  -10.6364   57.5063   78.3354 H   0  0  0  0  0  0  0  0  0  0  0  0
   -1.0281   58.0585   78.2841 H   0  0  0  0  0  0  0  0  0  0  0  0
   -1.4081   61.3945   80.5933 H   0  0  0  0  0  0  0  0  0  0  0  0
   -1.4800   62.3502   78.6274 H   0  0  0  0  0  0  0  0  0  0  0  0
   -0.9945   60.6804   77.1332 H   0  0  0  0  0  0  0  0  0  0  0  0
   -3.6801   59.3721   77.9015 H   0  0  0  0  0  0  0  0  0  0  0  0
   -3.8283   62.3254   79.5978 H   0  0  0  0  0  0  0  0  0  0  0  0
   -2.4102   57.5833   76.6283 H   0  0  0  0  0  0  0  0  0  0  0  0
   -4.5575   60.8776   77.3353 H   0  0  0  0  0  0  0  0  0  0  0  0
   -6.3188   59.4881   76.4843 H   0  0  0  0  0  0  0  0  0  0  0  0
   -6.2665   60.8048   73.7505 H   0  0  0  0  0  0  0  0  0  0  0  0
   -6.8579   61.8978   76.5647 H   0  0  0  0  0  0  0  0  0  0  0  0
   -4.4598   62.5119   74.7537 H   0  0  0  0  0  0  0  0  0  0  0  0
   -8.4136   60.4323   75.6460 H   0  0  0  0  0  0  0  0  0  0  0  0
   -7.3701   63.7706   75.5626 H   0  0  0  0  0  0  0  0  0  0  0  0
   -4.7874   63.1393   77.5371 H   0  0  0  0  0  0  0  0  0  0  0  0
   -7.0720   57.8762   74.8872 H   0  0  0  0  0  0  0  0  0  0  0  0
   -5.8551   58.4145   73.6675 H   0  0  0  0  0  0  0  0  0  0  0  0
   -5.1296   57.3000   76.2219 H   0  0  0  0  0  0  0  0  0  0  0  0
   -3.0526   59.5579   81.4098 H   0  0  0  0  0  0  0  0  0  0  0  0
   -3.4892   61.3153   81.3786 H   0  0  0  0  0  0  0  0  0  0  0  0
   -5.1640   59.9467   80.5021 H   0  0  0  0  0  0  0  0  0  0  0  0
   -3.8015   53.0591   77.4355 H   0  0  0  0  0  0  0  0  0  0  0  0
   -4.1960   52.0055   78.8450 H   0  0  0  0  0  0  0  0  0  0  0  0
   -6.4606   52.4165   78.3923 H   0  0  0  0  0  0  0  0  0  0  0  0
   -0.9202   51.8005   76.6985 H   0  0  0  0  0  0  0  0  0  0  0  0
    1.3174   52.6470   76.6695 H   0  0  0  0  0  0  0  0  0  0  0  0
    0.3992   55.2333   78.0435 H   0  0  0  0  0  0  0  0  0  0  0  0
   -0.0712   52.3083   78.8412 H   0  0  0  0  0  0  0  0  0  0  0  0
   -2.5087   52.7983   78.3147 H   0  0  0  0  0  0  0  0  0  0  0  0
   -0.3281   53.2025   80.7425 H   0  0  0  0  0  0  0  0  0  0  0  0
    1.6646   54.0830   79.8403 H   0  0  0  0  0  0  0  0  0  0  0  0
    0.3202   55.3470   74.8103 H   0  0  0  0  0  0  0  0  0  0  0  0
    3.2155   56.3558   74.8057 H   0  0  0  0  0  0  0  0  0  0  0  0
    2.3919   55.3574   73.5377 H   0  0  0  0  0  0  0  0  0  0  0  0
    0.8279   57.1859   73.1090 H   0  0  0  0  0  0  0  0  0  0  0  0
    3.7290   58.0975   72.9085 H   0  0  0  0  0  0  0  0  0  0  0  0
    2.8780   56.9703   71.7790 H   0  0  0  0  0  0  0  0  0  0  0  0
    2.9805   59.3231   70.9386 H   0  0  0  0  0  0  0  0  0  0  0  0
    1.2924   58.6924   71.1754 H   0  0  0  0  0  0  0  0  0  0  0  0
    2.8387   60.5634   72.9892 H   0  0  0  0  0  0  0  0  0  0  0  0
    0.0009   59.3907   73.2631 H   0  0  0  0  0  0  0  0  0  0  0  0
    0.3083   58.8659   76.3589 H   0  0  0  0  0  0  0  0  0  0  0  0
   -0.4645   57.8648   75.0348 H   0  0  0  0  0  0  0  0  0  0  0  0
    1.7553   56.9628   76.9209 H   0  0  0  0  0  0  0  0  0  0  0  0
    2.5816   58.9665   76.4268 H   0  0  0  0  0  0  0  0  0  0  0  0
    3.6093   58.3728   75.0784 H   0  0  0  0  0  0  0  0  0  0  0  0
    3.0197   60.0696   75.0784 H   0  0  0  0  0  0  0  0  0  0  0  0
   -0.3943   60.6566   75.2165 H   0  0  0  0  0  0  0  0  0  0  0  0
    1.2964   61.3523   75.1464 H   0  0  0  0  0  0  0  0  0  0  0  0
   -1.0060   61.8949   73.2250 H   0  0  0  0  0  0  0  0  0  0  0  0
   -0.2285   63.0380   74.3997 H   0  0  0  0  0  0  0  0  0  0  0  0
    0.3273   60.7844   71.4607 H   0  0  0  0  0  0  0  0  0  0  0  0
    1.9187   61.1720   69.6866 H   0  0  0  0  0  0  0  0  0  0  0  0
    0.2161   62.8069   69.5212 H   0  0  0  0  0  0  0  0  0  0  0  0
   -0.6902   63.5549   71.7677 H   0  0  0  0  0  0  0  0  0  0  0  0
    1.6668   65.3028   72.2340 H   0  0  0  0  0  0  0  0  0  0  0  0
    2.5044   66.8057   70.8433 H   0  0  0  0  0  0  0  0  0  0  0  0
    2.6109   66.3783   69.0823 H   0  0  0  0  0  0  0  0  0  0  0  0
    0.5301   68.1636   70.4121 H   0  0  0  0  0  0  0  0  0  0  0  0
    1.8677   68.6650   69.3018 H   0  0  0  0  0  0  0  0  0  0  0  0
   -0.6819   68.1826   68.5193 H   0  0  0  0  0  0  0  0  0  0  0  0
   -1.0576   66.0436   67.6441 H   0  0  0  0  0  0  0  0  0  0  0  0
    0.6929   65.6278   67.6367 H   0  0  0  0  0  0  0  0  0  0  0  0
    1.6860   68.8458   67.2915 H   0  0  0  0  0  0  0  0  0  0  0  0
    1.2663   67.3099   66.4599 H   0  0  0  0  0  0  0  0  0  0  0  0
    0.1026   68.6782   66.4599 H   0  0  0  0  0  0  0  0  0  0  0  0
   -0.1559   65.8218   73.4260 H   0  0  0  0  0  0  0  0  0  0  0  0
   -0.1551   66.9731   72.0472 H   0  0  0  0  0  0  0  0  0  0  0  0
   -1.2800   65.5727   72.0472 H   0  0  0  0  0  0  0  0  0  0  0  0
    2.0598   63.0918   74.4720 H   0  0  0  0  0  0  0  0  0  0  0  0
    3.0920   62.5692   73.0978 H   0  0  0  0  0  0  0  0  0  0  0  0
    2.3593   64.2093   73.0978 H   0  0  0  0  0  0  0  0  0  0  0  0
    3.4194   62.3009   71.6854 H   0  0  0  0  0  0  0  0  0  0  0  0
   -0.0067   56.4852   78.0874 H   0  0  0  0  0  0  0  0  0  0  0  0
   -2.1595   52.1710   74.6398 H   0  0  0  0  0  0  0  0  0  0  0  0
   -3.2921   52.1591   76.0430 H   0  0  0  0  0  0  0  0  0  0  0  0
   -3.1351   54.5239   76.0041 H   0  0  0  0  0  0  0  0  0  0  0  0
  2  1  1  0
  3  2  1  0
  4  3  1  0
  5  4  1  0
  6  5  1  0
  6  1  1  0
  7  4  1  0
  8  5  1  0
  9  8  1  0
 10  9  1  0
 11 10  1  0
 12 11  1  0
 13 12  1  0
 14 13  1  0
 14  9  1  0
 15 14  1  0
 16 13  1  0
 17 12  1  0
 18  6  1  0
 19 18  1  0
 20 19  1  0
 21 20  1  0
 22 21  1  0
 23 22  1  0
 24 19  1  0
 24 23  1  0
 25 22  1  0
 26 24  1  0
 27 23  1  0
 28 27  1  0
 29 28  1  0
 30 29  1  0
 31 30  1  0
 32 31  1  0
 33 32  1  0
 33 28  1  0
 34 31  1  0
 35 32  1  0
 36 33  1  0
 37 30  1  0
 38 37  1  0
 39 21  1  0
 40 39  1  0
 41  3  1  0
 42 41  1  0
 43  1  1  0
 45 44  1  0
 46 45  1  0
 47 46  1  0
 48 47  1  0
 49 48  1  0
 49 44  1  0
 49 43  1  0
 50 48  1  0
 51 47  1  0
 52 46  1  0
 53 52  1  0
 54 53  1  0
 55 54  1  0
 56 55  1  0
 57 56  1  0
 58 57  1  0
 59 58  1  0
 60 59  1  0
 60 55  1  0
 61 60  1  0
 62 61  1  0
 62 53  1  0
 60 63  1  1
 64 59  1  0
 65 64  1  0
 66 65  1  0
 67 66  1  0
 67 58  1  0
 68 67  1  0
 69 68  1  0
 70 69  1  0
 70 66  1  0
 71 70  1  0
 72 71  1  0
 73 69  1  0
 72 73  1  6
 74 72  1  0
 75 74  1  0
 76 75  1  0
 77 76  1  0
 78 77  1  0
 78 72  1  0
 79 76  1  0
 80 71  1  0
 66 81  1  1
 82 68  1  0
 83 62  1  0
 84 44  1  0
 85 84  1  0
  1 86  1  1
  3 87  1  1
  4 88  1  6
  5 89  1  1
  6 90  1  6
  7 91  1  0
  9 92  1  1
 11 93  1  0
 11 94  1  0
 12 95  1  6
 13 96  1  1
 14 97  1  6
 15 98  1  0
 16 99  1  0
 17100  1  0
 19101  1  6
 21102  1  1
 22103  1  6
 23104  1  6
 24105  1  1
 25106  1  0
 26107  1  0
 28108  1  1
 30109  1  1
 31110  1  6
 32111  1  1
 33112  1  6
 34113  1  0
 35114  1  0
 36115  1  0
 37116  1  0
 37117  1  0
 38118  1  0
 39119  1  0
 39120  1  0
 40121  1  0
 41122  1  0
 41123  1  0
 42124  1  0
 44125  1  1
 46126  1  1
 47127  1  6
 48128  1  1
 49129  1  1
 50130  1  0
 51131  1  0
 53132  1  6
 54133  1  0
 54134  1  0
 55135  1  6
 56136  1  0
 56137  1  0
 57138  1  0
 57139  1  0
 58140  1  1
 59141  1  6
 61142  1  0
 61143  1  0
 62144  1  1
 63145  1  0
 63146  1  0
 63147  1  0
 64148  1  0
 64149  1  0
 65150  1  0
 65151  1  0
 67152  1  6
 68153  1  6
 69154  1  6
 70155  1  6
 71156  1  1
 74157  1  0
 74158  1  0
 75159  1  0
 75160  1  0
 76161  1  1
 77162  1  0
 77163  1  0
 79164  1  0
 79165  1  0
 79166  1  0
 80167  1  0
 80168  1  0
 80169  1  0
 81170  1  0
 81171  1  0
 81172  1  0
 82173  1  0
 83174  1  0
 84175  1  0
 84176  1  0
 85177  1  0
M  END
>  <score>  (1) 
-5.911

$$$$
=
     RDKit          3D

177187  0  0  0  0  0  0  0  0999 V2000
   -1.7060   55.6360   77.6430 C   0  0  2  0  0  0  0  0  0  0  0  0
   -2.2980   54.4210   77.1800 O   0  0  0  0  0  0  0  0  0  0  0  0
   -2.5180   54.3140   75.7590 C   0  0  1  0  0  0  0  0  0  0  0  0
   -3.0000   55.6300   75.1280 C   0  0  1  0  0  0  0  0  0  0  0  0
   -3.6020   56.5350   76.2020 C   0  0  1  0  0  0  0  0  0  0  0  0
   -2.5200   56.8970   77.2320 C   0  0  1  0  0  0  0  0  0  0  0  0
   -1.9430   56.3290   74.4520 O   0  0  0  0  0  0  0  0  0  0  0  0
   -4.0610   57.7290   75.5270 O   0  0  0  0  0  0  0  0  0  0  0  0
   -5.4680   57.7040   75.2590 C   0  0  2  0  0  0  0  0  0  0  0  0
   -5.7940   58.7090   74.2800 O   0  0  0  0  0  0  0  0  0  0  0  0
   -5.8860   60.0130   74.8540 C   0  0  0  0  0  0  0  0  0  0  0  0
   -7.1340   60.0980   75.7370 C   0  0  2  0  0  0  0  0  0  0  0  0
   -7.4960   58.7300   76.3290 C   0  0  1  0  0  0  0  0  0  0  0  0
   -6.2370   57.9090   76.5900 C   0  0  1  0  0  0  0  0  0  0  0  0
   -6.6120   56.6570   77.1860 O   0  0  0  0  0  0  0  0  0  0  0  0
   -8.2260   58.8970   77.5560 O   0  0  0  0  0  0  0  0  0  0  0  0
   -8.2640   60.5600   74.9810 O   0  0  0  0  0  0  0  0  0  0  0  0
   -3.1910   57.4590   78.3820 O   0  0  0  0  0  0  0  0  0  0  0  0
   -2.6650   58.7360   78.7580 C   0  0  2  0  0  0  0  0  0  0  0  0
   -2.8380   58.9230   80.1670 O   0  0  0  0  0  0  0  0  0  0  0  0
   -4.1140   59.4370   80.5600 C   0  0  1  0  0  0  0  0  0  0  0  0
   -4.3480   60.8470   79.9610 C   0  0  1  0  0  0  0  0  0  0  0  0
   -3.4460   61.1210   78.7420 C   0  0  1  0  0  0  0  0  0  0  0  0
   -3.3180   59.8480   77.9080 C   0  0  1  0  0  0  0  0  0  0  0  0
   -5.7310   61.0540   79.6230 O   0  0  0  0  0  0  0  0  0  0  0  0
   -2.5400   60.1190   76.7310 O   0  0  0  0  0  0  0  0  0  0  0  0
   -4.0130   62.1470   77.8990 O   0  0  0  0  0  0  0  0  0  0  0  0
   -3.3900   63.4280   78.0520 C   0  0  2  0  0  0  0  0  0  0  0  0
   -4.2560   64.2570   78.8300 O   0  0  0  0  0  0  0  0  0  0  0  0
   -3.7370   65.5840   79.0090 C   0  0  1  0  0  0  0  0  0  0  0  0
   -3.6290   66.2860   77.6460 C   0  0  2  0  0  0  0  0  0  0  0  0
   -2.6990   65.4680   76.7460 C   0  0  1  0  0  0  0  0  0  0  0  0
   -3.1750   64.0190   76.6430 C   0  0  1  0  0  0  0  0  0  0  0  0
   -3.0910   67.6060   77.7600 O   0  0  0  0  0  0  0  0  0  0  0  0
   -2.6510   66.0430   75.4310 O   0  0  0  0  0  0  0  0  0  0  0  0
   -2.1990   63.2650   75.9080 O   0  0  0  0  0  0  0  0  0  0  0  0
   -4.6740   66.3220   79.9700 C   0  0  0  0  0  0  0  0  0  0  0  0
   -5.2110   67.4890   79.3510 O   0  0  0  0  0  0  0  0  0  0  0  0
   -5.2560   58.4290   80.3300 C   0  0  0  0  0  0  0  0  0  0  0  0
   -4.8670   57.1070   80.6960 O   0  0  0  0  0  0  0  0  0  0  0  0
   -1.3190   53.6960   75.0240 C   0  0  0  0  0  0  0  0  0  0  0  0
   -1.1690   52.3180   75.3830 O   0  0  0  0  0  0  0  0  0  0  0  0
   -0.3640   55.7490   77.1790 O   0  0  0  0  0  0  0  0  0  0  0  0
    1.8070   54.7480   76.6130 C   0  0  1  0  0  0  0  0  0  0  0  0
    2.4830   55.8380   77.2700 O   0  0  0  0  0  0  0  0  0  0  0  0
    2.6880   55.6040   78.6610 C   0  0  2  0  0  0  0  0  0  0  0  0
    1.3690   55.3110   79.4070 C   0  0  1  0  0  0  0  0  0  0  0  0
    0.6150   54.1810   78.7040 C   0  0  2  0  0  0  0  0  0  0  0  0
    0.4050   54.5330   77.2230 C   0  0  1  0  0  0  0  0  0  0  0  0
   -0.6420   53.9370   79.3480 O   0  0  0  0  0  0  0  0  0  0  0  0
    1.6240   54.9240   80.7700 O   0  0  0  0  0  0  0  0  0  0  0  0
    3.2560   56.7670   79.2810 O   0  0  0  0  0  0  0  0  0  0  0  0
    3.5060   57.8550   78.3760 C   0  0  2  0  0  0  0  0  0  0  0  0
    2.2100   58.6620   78.2860 C   0  0  0  0  0  0  0  0  0  0  0  0
    2.2920   59.7420   77.2010 C   0  0  2  0  0  0  0  0  0  0  0  0
    1.0430   60.6290   77.2030 C   0  0  0  0  0  0  0  0  0  0  0  0
    1.1860   61.7840   76.2140 C   0  0  0  0  0  0  0  0  0  0  0  0
    1.5190   61.2980   74.7960 C   0  0  2  0  0  0  0  0  0  0  0  0
    2.7810   60.3720   74.8040 C   0  0  1  0  0  0  0  0  0  0  0  0
    2.6080   59.1560   75.7890 C   0  0  1  0  0  0  0  0  0  0  0  0
    3.9300   58.3510   75.9010 C   0  0  0  0  0  0  0  0  0  0  0  0
    3.9180   57.2830   77.0010 C   0  0  1  0  0  0  0  0  0  0  0  0
    1.4940   58.1980   75.2920 C   0  0  0  0  0  0  0  0  0  0  0  0
    3.2430   59.9820   73.3730 C   0  0  0  0  0  0  0  0  0  0  0  0
    3.3360   61.1760   72.4020 C   0  0  0  0  0  0  0  0  0  0  0  0
    2.0370   62.0030   72.3830 C   0  0  1  0  0  0  0  0  0  0  0  0
    1.7920   62.4710   73.8470 C   0  0  1  0  0  0  0  0  0  0  0  0
    0.7880   63.6140   73.7130 C   0  0  1  0  0  0  0  0  0  0  0  0
    1.3760   64.3790   72.5190 C   0  0  1  0  0  0  0  0  0  0  0  0
    2.1730   63.3760   71.6560 C   0  0  2  0  0  0  0  0  0  0  0  0
    1.5750   63.5750   70.2570 C   0  0  1  0  0  0  0  0  0  0  0  0
    0.9510   64.9820   70.3540 C   0  0  2  0  0  0  0  0  0  0  0  0
    0.3870   64.9880   71.6860 O   0  0  0  0  0  0  0  0  0  0  0  0
   -0.1830   65.2270   69.3420 C   0  0  0  0  0  0  0  0  0  0  0  0
    0.2830   66.0590   68.1540 C   0  0  0  0  0  0  0  0  0  0  0  0
    0.9140   67.3820   68.6150 C   0  0  2  0  0  0  0  0  0  0  0  0
    1.4640   67.2760   70.0420 C   0  0  0  0  0  0  0  0  0  0  0  0
    1.9840   65.9700   70.2640 O   0  0  0  0  0  0  0  0  0  0  0  0
   -0.0630   68.5500   68.5070 C   0  0  0  0  0  0  0  0  0  0  0  0
    2.6080   63.3810   69.1550 C   0  0  0  0  0  0  0  0  0  0  0  0
    0.9120   61.1220   71.7850 C   0  0  0  0  0  0  0  0  0  0  0  0
   -0.5290   63.1520   73.4550 O   0  0  0  0  0  0  0  0  0  0  0  0
    5.2350   56.7140   77.0490 O   0  0  0  0  0  0  0  0  0  0  0  0
    1.7780   55.0290   75.1110 C   0  0  0  0  0  0  0  0  0  0  0  0
    3.0910   54.9590   74.5680 O   0  0  0  0  0  0  0  0  0  0  0  0
   -1.7116   55.5889   78.7420 H   0  0  0  0  0  0  0  0  0  0  0  0
   -3.3493   53.6053   75.6295 H   0  0  0  0  0  0  0  0  0  0  0  0
   -3.7633   55.3707   74.3796 H   0  0  0  0  0  0  0  0  0  0  0  0
   -4.4288   56.0385   76.7310 H   0  0  0  0  0  0  0  0  0  0  0  0
   -1.8102   57.6198   76.8032 H   0  0  0  0  0  0  0  0  0  0  0  0
   -1.3337   56.7319   75.1202 H   0  0  0  0  0  0  0  0  0  0  0  0
   -5.7663   56.7319   74.8395 H   0  0  0  0  0  0  0  0  0  0  0  0
   -4.9918   60.2085   75.4641 H   0  0  0  0  0  0  0  0  0  0  0  0
   -5.9546   60.7618   74.0511 H   0  0  0  0  0  0  0  0  0  0  0  0
   -6.8993   60.8044   76.5469 H   0  0  0  0  0  0  0  0  0  0  0  0
   -8.1256   58.1955   75.6024 H   0  0  0  0  0  0  0  0  0  0  0  0
   -5.5681   58.4364   77.2860 H   0  0  0  0  0  0  0  0  0  0  0  0
   -6.5870   56.7404   78.1722 H   0  0  0  0  0  0  0  0  0  0  0  0
   -7.6169   58.7577   78.3239 H   0  0  0  0  0  0  0  0  0  0  0  0
   -8.9786   60.8521   75.6008 H   0  0  0  0  0  0  0  0  0  0  0  0
   -1.5850   58.7853   78.5553 H   0  0  0  0  0  0  0  0  0  0  0  0
   -4.1134   59.5767   81.6511 H   0  0  0  0  0  0  0  0  0  0  0  0
   -4.0723   61.5679   80.7448 H   0  0  0  0  0  0  0  0  0  0  0  0
   -2.4648   61.4510   79.1138 H   0  0  0  0  0  0  0  0  0  0  0  0
   -4.3152   59.5058   77.5941 H   0  0  0  0  0  0  0  0  0  0  0  0
   -6.2651   61.1339   80.4527 H   0  0  0  0  0  0  0  0  0  0  0  0
   -1.6392   60.4328   76.9959 H   0  0  0  0  0  0  0  0  0  0  0  0
   -2.4193   63.3538   78.5641 H   0  0  0  0  0  0  0  0  0  0  0  0
   -2.7249   65.5677   79.4395 H   0  0  0  0  0  0  0  0  0  0  0  0
   -4.6427   66.3614   77.2257 H   0  0  0  0  0  0  0  0  0  0  0  0
   -1.6946   65.4830   77.1944 H   0  0  0  0  0  0  0  0  0  0  0  0
   -4.1380   63.9741   76.1132 H   0  0  0  0  0  0  0  0  0  0  0  0
   -2.9949   67.8417   78.7167 H   0  0  0  0  0  0  0  0  0  0  0  0
   -2.5689   67.0269   75.5039 H   0  0  0  0  0  0  0  0  0  0  0  0
   -1.5965   62.7996   76.5409 H   0  0  0  0  0  0  0  0  0  0  0  0
   -5.4987   65.6526   80.2560 H   0  0  0  0  0  0  0  0  0  0  0  0
   -4.1026   66.6240   80.8601 H   0  0  0  0  0  0  0  0  0  0  0  0
   -5.5046   68.1271   80.0486 H   0  0  0  0  0  0  0  0  0  0  0  0
   -6.1237   58.7272   80.9367 H   0  0  0  0  0  0  0  0  0  0  0  0
   -5.5079   58.4309   79.2592 H   0  0  0  0  0  0  0  0  0  0  0  0
   -4.8446   57.0309   81.6828 H   0  0  0  0  0  0  0  0  0  0  0  0
   -1.4809   53.7721   73.9386 H   0  0  0  0  0  0  0  0  0  0  0  0
   -0.4067   54.2402   75.3095 H   0  0  0  0  0  0  0  0  0  0  0  0
   -1.1598   52.2331   76.3693 H   0  0  0  0  0  0  0  0  0  0  0  0
    2.3475   53.8026   76.7685 H   0  0  0  0  0  0  0  0  0  0  0  0
    3.3567   54.7332   78.7282 H   0  0  0  0  0  0  0  0  0  0  0  0
    0.7638   56.2295   79.4027 H   0  0  0  0  0  0  0  0  0  0  0  0
    1.2153   53.2614   78.7672 H   0  0  0  0  0  0  0  0  0  0  0  0
   -0.1255   53.7483   76.6637 H   0  0  0  0  0  0  0  0  0  0  0  0
   -0.5197   53.9607   80.3301 H   0  0  0  0  0  0  0  0  0  0  0  0
    1.1962   55.5732   81.3829 H   0  0  0  0  0  0  0  0  0  0  0  0
    4.3237   58.5046   78.7216 H   0  0  0  0  0  0  0  0  0  0  0  0
    1.3804   57.9798   78.0487 H   0  0  0  0  0  0  0  0  0  0  0  0
    2.0458   59.1583   79.2538 H   0  0  0  0  0  0  0  0  0  0  0  0
    3.1481   60.3854   77.4521 H   0  0  0  0  0  0  0  0  0  0  0  0
    0.1705   60.0212   76.9215 H   0  0  0  0  0  0  0  0  0  0  0  0
    0.9139   61.0476   78.2120 H   0  0  0  0  0  0  0  0  0  0  0  0
    0.2391   62.3429   76.1833 H   0  0  0  0  0  0  0  0  0  0  0  0
    2.0162   62.4195   76.5560 H   0  0  0  0  0  0  0  0  0  0  0  0
    0.6412   60.7376   74.4418 H   0  0  0  0  0  0  0  0  0  0  0  0
    3.6190   60.9568   75.2112 H   0  0  0  0  0  0  0  0  0  0  0  0
    4.1147   57.8533   74.9376 H   0  0  0  0  0  0  0  0  0  0  0  0
    4.7195   59.0703   76.1641 H   0  0  0  0  0  0  0  0  0  0  0  0
    3.1649   56.5165   76.7656 H   0  0  0  0  0  0  0  0  0  0  0  0
    0.9787   57.7549   76.1569 H   0  0  0  0  0  0  0  0  0  0  0  0
    0.7710   58.7608   74.6833 H   0  0  0  0  0  0  0  0  0  0  0  0
    1.9422   57.3989   74.6833 H   0  0  0  0  0  0  0  0  0  0  0  0
    4.2364   59.5150   73.4445 H   0  0  0  0  0  0  0  0  0  0  0  0
    2.4840   59.2972   72.9668 H   0  0  0  0  0  0  0  0  0  0  0  0
    4.1666   61.8255   72.7155 H   0  0  0  0  0  0  0  0  0  0  0  0
    3.5029   60.7799   71.3895 H   0  0  0  0  0  0  0  0  0  0  0  0
    2.6661   62.8800   74.3749 H   0  0  0  0  0  0  0  0  0  0  0  0
    0.6702   64.2166   74.6257 H   0  0  0  0  0  0  0  0  0  0  0  0
    2.0018   65.1868   72.9262 H   0  0  0  0  0  0  0  0  0  0  0  0
    3.2604   63.4870   71.5321 H   0  0  0  0  0  0  0  0  0  0  0  0
    0.8193   62.8286   69.9711 H   0  0  0  0  0  0  0  0  0  0  0  0
   -0.5473   64.2562   68.9748 H   0  0  0  0  0  0  0  0  0  0  0  0
   -0.9817   65.7834   69.8544 H   0  0  0  0  0  0  0  0  0  0  0  0
    1.0289   65.4850   67.5846 H   0  0  0  0  0  0  0  0  0  0  0  0
   -0.5905   66.2899   67.5266 H   0  0  0  0  0  0  0  0  0  0  0  0
    1.7546   67.5825   67.9345 H   0  0  0  0  0  0  0  0  0  0  0  0
    2.2658   68.0163   70.1800 H   0  0  0  0  0  0  0  0  0  0  0  0
    0.6523   67.4697   70.7587 H   0  0  0  0  0  0  0  0  0  0  0  0
   -0.3447   68.8868   69.5156 H   0  0  0  0  0  0  0  0  0  0  0  0
    0.4148   69.3787   67.9638 H   0  0  0  0  0  0  0  0  0  0  0  0
   -0.9630   68.2262   67.9638 H   0  0  0  0  0  0  0  0  0  0  0  0
    3.5943   63.1958   69.6055 H   0  0  0  0  0  0  0  0  0  0  0  0
    2.3222   62.5208   68.5318 H   0  0  0  0  0  0  0  0  0  0  0  0
    2.6537   64.2863   68.5318 H   0  0  0  0  0  0  0  0  0  0  0  0
    0.3305   60.6666   72.6001 H   0  0  0  0  0  0  0  0  0  0  0  0
    0.2496   61.7440   71.1651 H   0  0  0  0  0  0  0  0  0  0  0  0
    1.3571   60.3298   71.1651 H   0  0  0  0  0  0  0  0  0  0  0  0
   -0.9953   62.9884   74.3128 H   0  0  0  0  0  0  0  0  0  0  0  0
    5.5091   56.5956   77.9929 H   0  0  0  0  0  0  0  0  0  0  0  0
    1.1403   54.2825   74.6149 H   0  0  0  0  0  0  0  0  0  0  0  0
    1.3765   56.0395   74.9447 H   0  0  0  0  0  0  0  0  0  0  0  0
    3.7513   54.9238   75.3048 H   0  0  0  0  0  0  0  0  0  0  0  0
  2  1  1  0
  3  2  1  0
  4  3  1  0
  5  4  1  0
  6  5  1  0
  6  1  1  0
  7  4  1  0
  8  5  1  0
  9  8  1  0
 10  9  1  0
 11 10  1  0
 12 11  1  0
 13 12  1  0
 14 13  1  0
 14  9  1  0
 15 14  1  0
 16 13  1  0
 17 12  1  0
 18  6  1  0
 19 18  1  0
 20 19  1  0
 21 20  1  0
 22 21  1  0
 23 22  1  0
 24 19  1  0
 24 23  1  0
 25 22  1  0
 26 24  1  0
 27 23  1  0
 28 27  1  0
 29 28  1  0
 30 29  1  0
 31 30  1  0
 32 31  1  0
 33 32  1  0
 33 28  1  0
 34 31  1  0
 35 32  1  0
 36 33  1  0
 37 30  1  0
 38 37  1  0
 39 21  1  0
 40 39  1  0
 41  3  1  0
 42 41  1  0
 43  1  1  0
 45 44  1  0
 46 45  1  0
 47 46  1  0
 48 47  1  0
 49 48  1  0
 49 44  1  0
 49 43  1  0
 50 48  1  0
 51 47  1  0
 52 46  1  0
 53 52  1  0
 54 53  1  0
 55 54  1  0
 56 55  1  0
 57 56  1  0
 58 57  1  0
 59 58  1  0
 60 59  1  0
 60 55  1  0
 61 60  1  0
 62 61  1  0
 62 53  1  0
 60 63  1  6
 64 59  1  0
 65 64  1  0
 66 65  1  0
 67 66  1  0
 67 58  1  0
 68 67  1  0
 69 68  1  0
 70 69  1  0
 70 66  1  0
 71 70  1  0
 72 71  1  0
 73 69  1  0
 72 73  1  1
 74 72  1  0
 75 74  1  0
 76 75  1  0
 77 76  1  0
 78 77  1  0
 78 72  1  0
 79 76  1  0
 80 71  1  0
 66 81  1  6
 82 68  1  0
 83 62  1  0
 84 44  1  0
 85 84  1  0
  1 86  1  1
  3 87  1  1
  4 88  1  6
  5 89  1  1
  6 90  1  6
  7 91  1  0
  9 92  1  6
 11 93  1  0
 11 94  1  0
 12 95  1  1
 13 96  1  6
 14 97  1  1
 15 98  1  0
 16 99  1  0
 17100  1  0
 19101  1  1
 21102  1  1
 22103  1  1
 23104  1  1
 24105  1  6
 25106  1  0
 26107  1  0
 28108  1  1
 30109  1  1
 31110  1  6
 32111  1  1
 33112  1  6
 34113  1  0
 35114  1  0
 36115  1  0
 37116  1  0
 37117  1  0
 38118  1  0
 39119  1  0
 39120  1  0
 40121  1  0
 41122  1  0
 41123  1  0
 42124  1  0
 44125  1  6
 46126  1  6
 47127  1  1
 48128  1  6
 49129  1  6
 50130  1  0
 51131  1  0
 53132  1  1
 54133  1  0
 54134  1  0
 55135  1  1
 56136  1  0
 56137  1  0
 57138  1  0
 57139  1  0
 58140  1  6
 59141  1  1
 61142  1  0
 61143  1  0
 62144  1  6
 63145  1  0
 63146  1  0
 63147  1  0
 64148  1  0
 64149  1  0
 65150  1  0
 65151  1  0
 67152  1  1
 68153  1  1
 69154  1  1
 70155  1  6
 71156  1  6
 74157  1  0
 74158  1  0
 75159  1  0
 75160  1  0
 76161  1  6
 77162  1  0
 77163  1  0
 79164  1  0
 79165  1  0
 79166  1  0
 80167  1  0
 80168  1  0
 80169  1  0
 81170  1  0
 81171  1  0
 81172  1  0
 82173  1  0
 83174  1  0
 84175  1  0
 84176  1  0
 85177  1  0
M  END
>  <score>  (2) 
-5.362

$$$$
=
     RDKit          3D

177187  0  0  0  0  0  0  0  0999 V2000
   -1.1390   55.3840   77.2770 C   0  0  2  0  0  0  0  0  0  0  0  0
   -1.8240   54.1650   77.5700 O   0  0  0  0  0  0  0  0  0  0  0  0
   -2.8300   53.7490   76.6240 C   0  0  1  0  0  0  0  0  0  0  0  0
   -3.6590   54.9220   76.0780 C   0  0  1  0  0  0  0  0  0  0  0  0
   -3.5630   56.1150   77.0280 C   0  0  1  0  0  0  0  0  0  0  0  0
   -2.1040   56.5920   77.1080 C   0  0  1  0  0  0  0  0  0  0  0  0
   -3.2370   55.3230   74.7650 O   0  0  0  0  0  0  0  0  0  0  0  0
   -4.3940   57.1580   76.4670 O   0  0  0  0  0  0  0  0  0  0  0  0
   -5.2500   57.7660   77.4420 C   0  0  2  0  0  0  0  0  0  0  0  0
   -6.0600   56.7570   78.0730 O   0  0  0  0  0  0  0  0  0  0  0  0
   -7.1780   56.3790   77.2690 C   0  0  0  0  0  0  0  0  0  0  0  0
   -8.1880   57.5280   77.2210 C   0  0  2  0  0  0  0  0  0  0  0  0
   -7.4960   58.8890   77.3750 C   0  0  1  0  0  0  0  0  0  0  0  0
   -6.1060   58.8570   76.7470 C   0  0  1  0  0  0  0  0  0  0  0  0
   -5.5100   60.1590   76.8700 O   0  0  0  0  0  0  0  0  0  0  0  0
   -8.2830   59.9190   76.7530 O   0  0  0  0  0  0  0  0  0  0  0  0
   -9.1520   57.4060   78.2790 O   0  0  0  0  0  0  0  0  0  0  0  0
   -2.0030   57.4790   78.2450 O   0  0  0  0  0  0  0  0  0  0  0  0
   -1.3780   58.7240   77.9170 C   0  0  2  0  0  0  0  0  0  0  0  0
   -0.6280   59.1890   79.0460 O   0  0  0  0  0  0  0  0  0  0  0  0
   -1.3800   59.9270   80.0130 C   0  0  1  0  0  0  0  0  0  0  0  0
   -1.9610   61.2200   79.3900 C   0  0  1  0  0  0  0  0  0  0  0  0
   -2.0320   61.1460   77.8520 C   0  0  1  0  0  0  0  0  0  0  0  0
   -2.4380   59.7360   77.4290 C   0  0  1  0  0  0  0  0  0  0  0  0
   -3.2510   61.5390   79.9410 O   0  0  0  0  0  0  0  0  0  0  0  0
   -2.5790   59.6830   76.0010 O   0  0  0  0  0  0  0  0  0  0  0  0
   -3.0200   62.0640   77.3350 O   0  0  0  0  0  0  0  0  0  0  0  0
   -2.7530   63.4360   77.6510 C   0  0  2  0  0  0  0  0  0  0  0  0
   -3.8250   63.9260   78.4590 O   0  0  0  0  0  0  0  0  0  0  0  0
   -3.6710   65.3130   78.8000 C   0  0  1  0  0  0  0  0  0  0  0  0
   -3.7090   66.1670   77.5230 C   0  0  2  0  0  0  0  0  0  0  0  0
   -2.5750   65.7170   76.5980 C   0  0  1  0  0  0  0  0  0  0  0  0
   -2.6580   64.2160   76.3230 C   0  0  1  0  0  0  0  0  0  0  0  0
   -3.5340   67.5590   77.7990 O   0  0  0  0  0  0  0  0  0  0  0  0
   -2.6410   66.4290   75.3530 O   0  0  0  0  0  0  0  0  0  0  0  0
   -1.5010   63.8210   75.5720 O   0  0  0  0  0  0  0  0  0  0  0  0
   -4.7930   65.6770   79.7770 C   0  0  0  0  0  0  0  0  0  0  0  0
   -5.9410   66.1440   79.0720 O   0  0  0  0  0  0  0  0  0  0  0  0
   -2.3960   59.0500   80.7700 C   0  0  0  0  0  0  0  0  0  0  0  0
   -3.6640   59.0390   80.1180 O   0  0  0  0  0  0  0  0  0  0  0  0
   -2.2580   52.8480   75.5180 C   0  0  0  0  0  0  0  0  0  0  0  0
   -1.0570   52.2100   75.9650 O   0  0  0  0  0  0  0  0  0  0  0  0
   -0.3320   55.2370   76.1130 O   0  0  0  0  0  0  0  0  0  0  0  0
    1.8940   54.7730   75.1820 C   0  0  1  0  0  0  0  0  0  0  0  0
    2.1730   56.1860   75.1380 O   0  0  0  0  0  0  0  0  0  0  0  0
    2.7350   56.6780   76.3520 C   0  0  2  0  0  0  0  0  0  0  0  0
    1.8390   56.3830   77.5740 C   0  0  1  0  0  0  0  0  0  0  0  0
    1.4990   54.8920   77.6200 C   0  0  2  0  0  0  0  0  0  0  0  0
    0.8650   54.4580   76.2890 C   0  0  1  0  0  0  0  0  0  0  0  0
    0.6180   54.6100   78.7140 O   0  0  0  0  0  0  0  0  0  0  0  0
    2.5030   56.7480   78.7980 O   0  0  0  0  0  0  0  0  0  0  0  0
    2.8790   58.1040   76.2890 O   0  0  0  0  0  0  0  0  0  0  0  0
    2.4410   58.6880   75.0510 C   0  0  2  0  0  0  0  0  0  0  0  0
    3.4160   59.8200   74.7260 C   0  0  0  0  0  0  0  0  0  0  0  0
    2.9420   60.6450   73.5240 C   0  0  2  0  0  0  0  0  0  0  0  0
    3.9860   61.6940   73.1230 C   0  0  0  0  0  0  0  0  0  0  0  0
    3.5710   62.4230   71.8460 C   0  0  0  0  0  0  0  0  0  0  0  0
    2.1730   63.0460   71.9590 C   0  0  2  0  0  0  0  0  0  0  0  0
    1.1160   61.9750   72.3930 C   0  0  1  0  0  0  0  0  0  0  0  0
    1.5240   61.2620   73.7360 C   0  0  1  0  0  0  0  0  0  0  0  0
    0.5510   60.0960   74.0540 C   0  0  0  0  0  0  0  0  0  0  0  0
    0.9970   59.2120   75.2230 C   0  0  1  0  0  0  0  0  0  0  0  0
    1.4940   62.2600   74.9220 C   0  0  0  0  0  0  0  0  0  0  0  0
   -0.3360   62.5270   72.3710 C   0  0  0  0  0  0  0  0  0  0  0  0
   -0.6940   63.2860   71.0780 C   0  0  0  0  0  0  0  0  0  0  0  0
    0.3430   64.3760   70.7460 C   0  0  1  0  0  0  0  0  0  0  0  0
    1.7170   63.6550   70.6280 C   0  0  1  0  0  0  0  0  0  0  0  0
    2.6020   64.6540   69.8860 C   0  0  1  0  0  0  0  0  0  0  0  0
    1.6420   65.1330   68.7880 C   0  0  1  0  0  0  0  0  0  0  0  0
    0.1990   64.9690   69.3120 C   0  0  2  0  0  0  0  0  0  0  0  0
   -0.4020   66.3650   69.1060 C   0  0  1  0  0  0  0  0  0  0  0  0
    0.5170   66.9730   68.0280 C   0  0  2  0  0  0  0  0  0  0  0  0
    1.8260   66.5040   68.4250 O   0  0  0  0  0  0  0  0  0  0  0  0
    0.5310   68.5120   68.0230 C   0  0  0  0  0  0  0  0  0  0  0  0
   -0.3290   69.0870   66.9040 C   0  0  0  0  0  0  0  0  0  0  0  0
    0.0850   68.5210   65.5370 C   0  0  2  0  0  0  0  0  0  0  0  0
    0.7670   67.1560   65.6770 C   0  0  0  0  0  0  0  0  0  0  0  0
    0.1770   66.4280   66.7480 O   0  0  0  0  0  0  0  0  0  0  0  0
    0.9820   69.4880   64.7670 C   0  0  0  0  0  0  0  0  0  0  0  0
   -1.8850   66.3110   68.7630 C   0  0  0  0  0  0  0  0  0  0  0  0
    0.2700   65.4610   71.8490 C   0  0  0  0  0  0  0  0  0  0  0  0
    3.0350   65.7190   70.7180 O   0  0  0  0  0  0  0  0  0  0  0  0
    0.0600   58.1280   75.3130 O   0  0  0  0  0  0  0  0  0  0  0  0
    1.4460   54.3220   73.7920 C   0  0  0  0  0  0  0  0  0  0  0  0
    2.5410   53.7650   73.0750 O   0  0  0  0  0  0  0  0  0  0  0  0
   -0.4977   55.6003   78.1442 H   0  0  0  0  0  0  0  0  0  0  0  0
   -3.5407   53.1249   77.1856 H   0  0  0  0  0  0  0  0  0  0  0  0
   -4.7010   54.5772   76.0049 H   0  0  0  0  0  0  0  0  0  0  0  0
   -3.8937   55.8494   78.0429 H   0  0  0  0  0  0  0  0  0  0  0  0
   -1.8195   57.1122   76.1815 H   0  0  0  0  0  0  0  0  0  0  0  0
   -2.5215   56.0029   74.8416 H   0  0  0  0  0  0  0  0  0  0  0  0
   -4.6575   58.2494   78.2328 H   0  0  0  0  0  0  0  0  0  0  0  0
   -6.8349   56.1504   76.2492 H   0  0  0  0  0  0  0  0  0  0  0  0
   -7.6570   55.4896   77.7045 H   0  0  0  0  0  0  0  0  0  0  0  0
   -8.6843   57.4701   76.2411 H   0  0  0  0  0  0  0  0  0  0  0  0
   -7.3969   59.1066   78.4487 H   0  0  0  0  0  0  0  0  0  0  0  0
   -6.1687   58.6043   75.6783 H   0  0  0  0  0  0  0  0  0  0  0  0
   -5.4064   60.3853   77.8282 H   0  0  0  0  0  0  0  0  0  0  0  0
   -8.7088   60.4763   77.4518 H   0  0  0  0  0  0  0  0  0  0  0  0
   -8.6914   57.4643   79.1534 H   0  0  0  0  0  0  0  0  0  0  0  0
   -0.6681   58.5940   77.0868 H   0  0  0  0  0  0  0  0  0  0  0  0
   -0.6944   60.2641   80.8044 H   0  0  0  0  0  0  0  0  0  0  0  0
   -1.2650   62.0310   79.6505 H   0  0  0  0  0  0  0  0  0  0  0  0
   -1.0408   61.4089   77.4541 H   0  0  0  0  0  0  0  0  0  0  0  0
   -3.4048   59.4742   77.8836 H   0  0  0  0  0  0  0  0  0  0  0  0
   -3.1999   61.5264   80.9296 H   0  0  0  0  0  0  0  0  0  0  0  0
   -3.4803   59.3442   75.7707 H   0  0  0  0  0  0  0  0  0  0  0  0
   -1.8108   63.5534   78.2064 H   0  0  0  0  0  0  0  0  0  0  0  0
   -2.7016   65.5060   79.2827 H   0  0  0  0  0  0  0  0  0  0  0  0
   -4.6956   66.0293   77.0564 H   0  0  0  0  0  0  0  0  0  0  0  0
   -1.6211   65.9352   77.1004 H   0  0  0  0  0  0  0  0  0  0  0  0
   -3.5615   63.9883   75.7383 H   0  0  0  0  0  0  0  0  0  0  0  0
   -3.5161   67.7015   78.7785 H   0  0  0  0  0  0  0  0  0  0  0  0
   -2.7309   67.3986   75.5317 H   0  0  0  0  0  0  0  0  0  0  0  0
   -0.7726   63.5723   76.1946 H   0  0  0  0  0  0  0  0  0  0  0  0
   -5.0658   64.7864   80.3622 H   0  0  0  0  0  0  0  0  0  0  0  0
   -4.4370   66.4763   80.4437 H   0  0  0  0  0  0  0  0  0  0  0  0
   -6.6342   66.4260   79.7201 H   0  0  0  0  0  0  0  0  0  0  0  0
   -2.0115   58.0207   80.8214 H   0  0  0  0  0  0  0  0  0  0  0  0
   -2.5298   59.4686   81.7784 H   0  0  0  0  0  0  0  0  0  0  0  0
   -4.3843   59.0328   80.7972 H   0  0  0  0  0  0  0  0  0  0  0  0
   -3.0005   52.0798   75.2561 H   0  0  0  0  0  0  0  0  0  0  0  0
   -2.0272   53.4663   74.6380 H   0  0  0  0  0  0  0  0  0  0  0  0
   -1.0375   52.1997   76.9548 H   0  0  0  0  0  0  0  0  0  0  0  0
    2.7982   54.2046   75.4451 H   0  0  0  0  0  0  0  0  0  0  0  0
    3.7042   56.1706   76.4673 H   0  0  0  0  0  0  0  0  0  0  0  0
    0.9191   56.9779   77.4744 H   0  0  0  0  0  0  0  0  0  0  0  0
    2.4269   54.3213   77.7727 H   0  0  0  0  0  0  0  0  0  0  0  0
    0.6079   53.3888   76.2612 H   0  0  0  0  0  0  0  0  0  0  0  0
    1.0939   54.7623   79.5687 H   0  0  0  0  0  0  0  0  0  0  0  0
    1.9597   56.4494   79.5699 H   0  0  0  0  0  0  0  0  0  0  0  0
    2.4320   57.9588   74.2275 H   0  0  0  0  0  0  0  0  0  0  0  0
    3.5006   60.4807   75.6014 H   0  0  0  0  0  0  0  0  0  0  0  0
    4.3897   59.3741   74.4749 H   0  0  0  0  0  0  0  0  0  0  0  0
    2.8372   59.9496   72.6782 H   0  0  0  0  0  0  0  0  0  0  0  0
    4.0903   62.4264   73.9370 H   0  0  0  0  0  0  0  0  0  0  0  0
    4.9421   61.1824   72.9382 H   0  0  0  0  0  0  0  0  0  0  0  0
    4.2990   63.2221   71.6424 H   0  0  0  0  0  0  0  0  0  0  0  0
    3.5457   61.6852   71.0305 H   0  0  0  0  0  0  0  0  0  0  0  0
    2.2433   63.8380   72.7191 H   0  0  0  0  0  0  0  0  0  0  0  0
    1.1167   61.1808   71.6320 H   0  0  0  0  0  0  0  0  0  0  0  0
   -0.4323   60.5235   74.2995 H   0  0  0  0  0  0  0  0  0  0  0  0
    0.5233   59.4530   73.1619 H   0  0  0  0  0  0  0  0  0  0  0  0
    1.0080   59.8029   76.1507 H   0  0  0  0  0  0  0  0  0  0  0  0
    1.5107   61.7030   75.8704 H   0  0  0  0  0  0  0  0  0  0  0  0
    2.3727   62.9195   74.8685 H   0  0  0  0  0  0  0  0  0  0  0  0
    0.5772   62.8656   74.8685 H   0  0  0  0  0  0  0  0  0  0  0  0
   -1.0303   61.6808   72.4798 H   0  0  0  0  0  0  0  0  0  0  0  0
   -0.4171   63.2476   73.1981 H   0  0  0  0  0  0  0  0  0  0  0  0
   -0.7356   62.5691   70.2447 H   0  0  0  0  0  0  0  0  0  0  0  0
   -1.6673   63.7759   71.2286 H   0  0  0  0  0  0  0  0  0  0  0  0
    1.7247   62.7268   70.0377 H   0  0  0  0  0  0  0  0  0  0  0  0
    3.5441   64.2265   69.5123 H   0  0  0  0  0  0  0  0  0  0  0  0
    1.8441   64.5282   67.8917 H   0  0  0  0  0  0  0  0  0  0  0  0
   -0.4972   64.2720   68.8226 H   0  0  0  0  0  0  0  0  0  0  0  0
   -0.4184   66.9943   70.0081 H   0  0  0  0  0  0  0  0  0  0  0  0
    0.1466   68.8738   68.9880 H   0  0  0  0  0  0  0  0  0  0  0  0
    1.5674   68.8419   67.8587 H   0  0  0  0  0  0  0  0  0  0  0  0
   -1.3820   68.8318   67.0938 H   0  0  0  0  0  0  0  0  0  0  0  0
   -0.1912   70.1782   66.8850 H   0  0  0  0  0  0  0  0  0  0  0  0
   -0.8407   68.3866   64.9583 H   0  0  0  0  0  0  0  0  0  0  0  0
    0.6466   66.5903   64.7413 H   0  0  0  0  0  0  0  0  0  0  0  0
    1.8366   67.3050   65.8860 H   0  0  0  0  0  0  0  0  0  0  0  0
    1.5529   70.1035   65.4778 H   0  0  0  0  0  0  0  0  0  0  0  0
    1.6780   68.9177   64.1343 H   0  0  0  0  0  0  0  0  0  0  0  0
    0.3611   70.1393   64.1343 H   0  0  0  0  0  0  0  0  0  0  0  0
   -2.4754   66.2895   69.6909 H   0  0  0  0  0  0  0  0  0  0  0  0
   -2.1580   67.1998   68.1752 H   0  0  0  0  0  0  0  0  0  0  0  0
   -2.0926   65.4047   68.1752 H   0  0  0  0  0  0  0  0  0  0  0  0
    0.3023   64.9810   72.8382 H   0  0  0  0  0  0  0  0  0  0  0  0
    1.1240   66.1466   71.7461 H   0  0  0  0  0  0  0  0  0  0  0  0
   -0.6682   66.0260   71.7461 H   0  0  0  0  0  0  0  0  0  0  0  0
    2.9296   65.4597   71.6676 H   0  0  0  0  0  0  0  0  0  0  0  0
   -0.1171   57.9231   76.2652 H   0  0  0  0  0  0  0  0  0  0  0  0
    0.6560   53.5634   73.8941 H   0  0  0  0  0  0  0  0  0  0  0  0
    1.0639   55.1933   73.2399 H   0  0  0  0  0  0  0  0  0  0  0  0
    3.2144   53.4225   73.7148 H   0  0  0  0  0  0  0  0  0  0  0  0
  2  1  1  0
  3  2  1  0
  4  3  1  0
  5  4  1  0
  6  5  1  0
  6  1  1  0
  7  4  1  0
  8  5  1  0
  9  8  1  0
 10  9  1  0
 11 10  1  0
 12 11  1  0
 13 12  1  0
 14 13  1  0
 14  9  1  0
 15 14  1  0
 16 13  1  0
 17 12  1  0
 18  6  1  0
 19 18  1  0
 20 19  1  0
 21 20  1  0
 22 21  1  0
 23 22  1  0
 24 19  1  0
 24 23  1  0
 25 22  1  0
 26 24  1  0
 27 23  1  0
 28 27  1  0
 29 28  1  0
 30 29  1  0
 31 30  1  0
 32 31  1  0
 33 32  1  0
 33 28  1  0
 34 31  1  0
 35 32  1  0
 36 33  1  0
 37 30  1  0
 38 37  1  0
 39 21  1  0
 40 39  1  0
 41  3  1  0
 42 41  1  0
 43  1  1  0
 45 44  1  0
 46 45  1  0
 47 46  1  0
 48 47  1  0
 49 48  1  0
 49 44  1  0
 49 43  1  0
 50 48  1  0
 51 47  1  0
 52 46  1  0
 53 52  1  0
 54 53  1  0
 55 54  1  0
 56 55  1  0
 57 56  1  0
 58 57  1  0
 59 58  1  0
 60 59  1  0
 60 55  1  0
 61 60  1  0
 62 61  1  0
 62 53  1  0
 60 63  1  1
 64 59  1  0
 65 64  1  0
 66 65  1  0
 67 66  1  0
 67 58  1  0
 68 67  1  0
 69 68  1  0
 70 69  1  0
 70 66  1  0
 71 70  1  0
 72 71  1  0
 73 69  1  0
 72 73  1  1
 74 72  1  0
 75 74  1  0
 76 75  1  0
 77 76  1  0
 78 77  1  0
 78 72  1  0
 79 76  1  0
 80 71  1  0
 66 81  1  1
 82 68  1  0
 83 62  1  0
 84 44  1  0
 85 84  1  0
  1 86  1  1
  3 87  1  1
  4 88  1  6
  5 89  1  1
  6 90  1  6
  7 91  1  0
  9 92  1  1
 11 93  1  0
 11 94  1  0
 12 95  1  6
 13 96  1  1
 14 97  1  6
 15 98  1  0
 16 99  1  0
 17100  1  0
 19101  1  6
 21102  1  1
 22103  1  6
 23104  1  6
 24105  1  1
 25106  1  0
 26107  1  0
 28108  1  1
 30109  1  1
 31110  1  6
 32111  1  1
 33112  1  6
 34113  1  0
 35114  1  0
 36115  1  0
 37116  1  0
 37117  1  0
 38118  1  0
 39119  1  0
 39120  1  0
 40121  1  0
 41122  1  0
 41123  1  0
 42124  1  0
 44125  1  1
 46126  1  1
 47127  1  6
 48128  1  1
 49129  1  1
 50130  1  0
 51131  1  0
 53132  1  6
 54133  1  0
 54134  1  0
 55135  1  6
 56136  1  0
 56137  1  0
 57138  1  0
 57139  1  0
 58140  1  1
 59141  1  6
 61142  1  0
 61143  1  0
 62144  1  1
 63145  1  0
 63146  1  0
 63147  1  0
 64148  1  0
 64149  1  0
 65150  1  0
 65151  1  0
 67152  1  6
 68153  1  6
 69154  1  6
 70155  1  6
 71156  1  1
 74157  1  0
 74158  1  0
 75159  1  0
 75160  1  0
 76161  1  6
 77162  1  0
 77163  1  0
 79164  1  0
 79165  1  0
 79166  1  0
 80167  1  0
 80168  1  0
 80169  1  0
 81170  1  0
 81171  1  0
 81172  1  0
 82173  1  0
 83174  1  0
 84175  1  0
 84176  1  0
 85177  1  0
M  END
>  <score>  (3) 
-4.924

$$$$
=
     RDKit          3D

177187  0  0  0  0  0  0  0  0999 V2000
   -2.7360   56.2390   77.7950 C   0  0  2  0  0  0  0  0  0  0  0  0
   -2.2070   57.1780   78.7330 O   0  0  0  0  0  0  0  0  0  0  0  0
   -2.4630   56.9080   80.1260 C   0  0  1  0  0  0  0  0  0  0  0  0
   -3.8780   56.3640   80.3800 C   0  0  1  0  0  0  0  0  0  0  0  0
   -4.7940   56.7270   79.2110 C   0  0  1  0  0  0  0  0  0  0  0  0
   -4.2760   56.0590   77.9270 C   0  0  1  0  0  0  0  0  0  0  0  0
   -3.8880   54.9410   80.5700 O   0  0  0  0  0  0  0  0  0  0  0  0
   -6.1060   56.2150   79.5400 O   0  0  0  0  0  0  0  0  0  0  0  0
   -6.4690   55.0780   78.7460 C   0  0  2  0  0  0  0  0  0  0  0  0
   -7.5440   55.4320   77.8550 O   0  0  0  0  0  0  0  0  0  0  0  0
   -8.8130   55.4300   78.5100 C   0  0  0  0  0  0  0  0  0  0  0  0
   -9.2160   53.9910   78.8430 C   0  0  2  0  0  0  0  0  0  0  0  0
   -7.9860   53.1020   79.0680 C   0  0  1  0  0  0  0  0  0  0  0  0
   -6.8490   53.9080   79.6900 C   0  0  1  0  0  0  0  0  0  0  0  0
   -5.7340   53.0330   79.9270 O   0  0  0  0  0  0  0  0  0  0  0  0
   -8.3210   51.9990   79.9260 O   0  0  0  0  0  0  0  0  0  0  0  0
   -9.9820   53.4140   77.7740 O   0  0  0  0  0  0  0  0  0  0  0  0
   -4.9530   56.6840   76.8140 O   0  0  0  0  0  0  0  0  0  0  0  0
   -5.4320   57.9960   77.1270 C   0  0  2  0  0  0  0  0  0  0  0  0
   -6.7740   58.1380   76.6470 O   0  0  0  0  0  0  0  0  0  0  0  0
   -6.8910   58.5230   75.2740 C   0  0  1  0  0  0  0  0  0  0  0  0
   -6.2580   59.9160   75.0360 C   0  0  1  0  0  0  0  0  0  0  0  0
   -5.2540   60.2980   76.1420 C   0  0  1  0  0  0  0  0  0  0  0  0
   -4.4640   59.0600   76.5610 C   0  0  1  0  0  0  0  0  0  0  0  0
   -5.6380   60.0000   73.7410 O   0  0  0  0  0  0  0  0  0  0  0  0
   -3.4760   59.4260   77.5380 O   0  0  0  0  0  0  0  0  0  0  0  0
   -4.3120   61.2830   75.6670 O   0  0  0  0  0  0  0  0  0  0  0  0
   -4.3670   62.5240   76.3810 C   0  0  2  0  0  0  0  0  0  0  0  0
   -4.8650   63.5290   75.4960 O   0  0  0  0  0  0  0  0  0  0  0  0
   -4.9230   64.8270   76.1080 C   0  0  1  0  0  0  0  0  0  0  0  0
   -3.5050   65.2880   76.4780 C   0  0  2  0  0  0  0  0  0  0  0  0
   -2.8960   64.2700   77.4460 C   0  0  1  0  0  0  0  0  0  0  0  0
   -2.9370   62.8620   76.8530 C   0  0  1  0  0  0  0  0  0  0  0  0
   -3.5030   66.5670   77.1170 O   0  0  0  0  0  0  0  0  0  0  0  0
   -1.5340   64.6190   77.7370 O   0  0  0  0  0  0  0  0  0  0  0  0
   -2.4870   61.9310   77.8490 O   0  0  0  0  0  0  0  0  0  0  0  0
   -5.6030   65.7770   75.1170 C   0  0  0  0  0  0  0  0  0  0  0  0
   -4.6420   66.6310   74.5000 O   0  0  0  0  0  0  0  0  0  0  0  0
   -6.4270   57.4180   74.3060 C   0  0  0  0  0  0  0  0  0  0  0  0
   -6.8650   57.6730   72.9730 O   0  0  0  0  0  0  0  0  0  0  0  0
   -1.3630   56.0500   80.7700 C   0  0  0  0  0  0  0  0  0  0  0  0
   -0.0710   56.4810   80.3280 O   0  0  0  0  0  0  0  0  0  0  0  0
   -2.0840   54.9800   77.9230 O   0  0  0  0  0  0  0  0  0  0  0  0
   -1.0590   55.5680   75.7690 C   0  0  1  0  0  0  0  0  0  0  0  0
   -0.1080   56.4110   76.4490 O   0  0  0  0  0  0  0  0  0  0  0  0
    1.0600   55.7060   76.8620 C   0  0  2  0  0  0  0  0  0  0  0  0
    0.7270   54.4990   77.7640 C   0  0  1  0  0  0  0  0  0  0  0  0
   -0.3110   53.6090   77.0780 C   0  0  2  0  0  0  0  0  0  0  0  0
   -1.5480   54.4390   76.7020 C   0  0  1  0  0  0  0  0  0  0  0  0
   -0.6770   52.5150   77.9280 O   0  0  0  0  0  0  0  0  0  0  0  0
    1.9060   53.7180   78.0340 O   0  0  0  0  0  0  0  0  0  0  0  0
    1.9110   56.5670   77.6330 O   0  0  0  0  0  0  0  0  0  0  0  0
    2.3050   57.7700   76.9530 C   0  0  2  0  0  0  0  0  0  0  0  0
    1.0250   58.5610   76.6760 C   0  0  0  0  0  0  0  0  0  0  0  0
    1.2960   59.7770   75.7840 C   0  0  2  0  0  0  0  0  0  0  0  0
    0.0370   60.6370   75.6170 C   0  0  0  0  0  0  0  0  0  0  0  0
    0.3430   61.9160   74.8400 C   0  0  0  0  0  0  0  0  0  0  0  0
    1.0020   61.6290   73.4840 C   0  0  2  0  0  0  0  0  0  0  0  0
    2.2730   60.7300   73.6580 C   0  0  1  0  0  0  0  0  0  0  0  0
    1.9420   59.3910   74.4160 C   0  0  1  0  0  0  0  0  0  0  0  0
    3.2410   58.5990   74.7200 C   0  0  0  0  0  0  0  0  0  0  0  0
    3.0360   57.3940   75.6440 C   0  0  1  0  0  0  0  0  0  0  0  0
    1.0100   58.4910   73.5640 C   0  0  0  0  0  0  0  0  0  0  0  0
    3.0570   60.5430   72.3300 C   0  0  0  0  0  0  0  0  0  0  0  0
    3.3080   61.8570   71.5640 C   0  0  0  0  0  0  0  0  0  0  0  0
    2.0080   62.6590   71.3590 C   0  0  1  0  0  0  0  0  0  0  0  0
    1.4250   62.9220   72.7770 C   0  0  1  0  0  0  0  0  0  0  0  0
    0.4250   64.0560   72.5660 C   0  0  1  0  0  0  0  0  0  0  0  0
    1.2260   64.9840   71.6420 C   0  0  1  0  0  0  0  0  0  0  0  0
    2.2390   64.1180   70.8610 C   0  0  2  0  0  0  0  0  0  0  0  0
    1.9570   64.4930   69.4000 C   0  0  1  0  0  0  0  0  0  0  0  0
    1.2630   65.8640   69.5320 C   0  0  2  0  0  0  0  0  0  0  0  0
    0.4190   65.6830   70.6920 O   0  0  0  0  0  0  0  0  0  0  0  0
    0.3710   66.2240   68.3300 C   0  0  0  0  0  0  0  0  0  0  0  0
    1.0490   67.2150   67.3930 C   0  0  0  0  0  0  0  0  0  0  0  0
    1.5020   68.4750   68.1480 C   0  0  2  0  0  0  0  0  0  0  0  0
    1.7270   68.1870   69.6360 C   0  0  0  0  0  0  0  0  0  0  0  0
    2.2440   66.8720   69.8020 O   0  0  0  0  0  0  0  0  0  0  0  0
    0.5200   69.6310   67.9710 C   0  0  0  0  0  0  0  0  0  0  0  0
    3.2150   64.4640   68.5430 C   0  0  0  0  0  0  0  0  0  0  0  0
    1.0850   61.8480   70.4160 C   0  0  0  0  0  0  0  0  0  0  0  0
   -0.7810   63.6130   71.9620 O   0  0  0  0  0  0  0  0  0  0  0  0
    4.3340   56.8450   75.9150 O   0  0  0  0  0  0  0  0  0  0  0  0
   -2.1910   56.4450   75.2340 C   0  0  0  0  0  0  0  0  0  0  0  0
   -3.2710   55.6390   74.7800 O   0  0  0  0  0  0  0  0  0  0  0  0
   -2.5416   56.6518   76.7941 H   0  0  0  0  0  0  0  0  0  0  0  0
   -2.4266   57.8808   80.6382 H   0  0  0  0  0  0  0  0  0  0  0  0
   -4.2437   56.8290   81.3074 H   0  0  0  0  0  0  0  0  0  0  0  0
   -4.8247   57.8139   79.0448 H   0  0  0  0  0  0  0  0  0  0  0  0
   -4.4786   54.9780   77.9489 H   0  0  0  0  0  0  0  0  0  0  0  0
   -3.8894   54.7374   81.5388 H   0  0  0  0  0  0  0  0  0  0  0  0
   -5.6233   54.7522   78.1226 H   0  0  0  0  0  0  0  0  0  0  0  0
   -8.7468   56.0160   79.4386 H   0  0  0  0  0  0  0  0  0  0  0  0
   -9.5678   55.8768   77.8461 H   0  0  0  0  0  0  0  0  0  0  0  0
   -9.8163   54.0377   79.7636 H   0  0  0  0  0  0  0  0  0  0  0  0
   -7.6564   52.7154   78.0924 H   0  0  0  0  0  0  0  0  0  0  0  0
   -7.1609   54.3403   80.6522 H   0  0  0  0  0  0  0  0  0  0  0  0
   -5.5991   52.9271   80.9020 H   0  0  0  0  0  0  0  0  0  0  0  0
   -8.2360   52.2790   80.8718 H   0  0  0  0  0  0  0  0  0  0  0  0
  -10.7130   52.8634   78.1516 H   0  0  0  0  0  0  0  0  0  0  0  0
   -5.4603   58.1489   78.2160 H   0  0  0  0  0  0  0  0  0  0  0  0
   -7.9582   58.6400   75.0346 H   0  0  0  0  0  0  0  0  0  0  0  0
   -7.0829   60.6428   75.0720 H   0  0  0  0  0  0  0  0  0  0  0  0
   -5.8228   60.7102   76.9885 H   0  0  0  0  0  0  0  0  0  0  0  0
   -3.9483   58.6335   75.6880 H   0  0  0  0  0  0  0  0  0  0  0  0
   -4.6629   60.1321   73.8499 H   0  0  0  0  0  0  0  0  0  0  0  0
   -3.8442   59.2896   78.4468 H   0  0  0  0  0  0  0  0  0  0  0  0
   -5.0311   62.4634   77.2558 H   0  0  0  0  0  0  0  0  0  0  0  0
   -5.5055   64.8086   77.0410 H   0  0  0  0  0  0  0  0  0  0  0  0
   -2.9235   65.3661   75.5475 H   0  0  0  0  0  0  0  0  0  0  0  0
   -3.4895   64.2851   78.3720 H   0  0  0  0  0  0  0  0  0  0  0  0
   -2.2749   62.8012   75.9767 H   0  0  0  0  0  0  0  0  0  0  0  0
   -3.5032   66.4450   78.0995 H   0  0  0  0  0  0  0  0  0  0  0  0
   -1.4042   64.6523   78.7179 H   0  0  0  0  0  0  0  0  0  0  0  0
   -2.6654   62.3000   78.7502 H   0  0  0  0  0  0  0  0  0  0  0  0
   -6.1124   65.1862   74.3414 H   0  0  0  0  0  0  0  0  0  0  0  0
   -6.3300   66.3969   75.6621 H   0  0  0  0  0  0  0  0  0  0  0  0
   -4.1177   67.0969   75.1987 H   0  0  0  0  0  0  0  0  0  0  0  0
   -5.3281   57.3705   74.3182 H   0  0  0  0  0  0  0  0  0  0  0  0
   -6.8640   56.4641   74.6363 H   0  0  0  0  0  0  0  0  0  0  0  0
   -7.7203   58.1710   72.9963 H   0  0  0  0  0  0  0  0  0  0  0  0
   -1.4224   56.1460   81.8642 H   0  0  0  0  0  0  0  0  0  0  0  0
   -1.5097   55.0007   80.4742 H   0  0  0  0  0  0  0  0  0  0  0  0
    0.5001   56.6715   81.1139 H   0  0  0  0  0  0  0  0  0  0  0  0
   -0.5897   55.0633   74.9117 H   0  0  0  0  0  0  0  0  0  0  0  0
    1.5501   55.3599   75.9400 H   0  0  0  0  0  0  0  0  0  0  0  0
    0.3269   54.8833   78.7138 H   0  0  0  0  0  0  0  0  0  0  0  0
    0.1296   53.1954   76.1589 H   0  0  0  0  0  0  0  0  0  0  0  0
   -2.3262   53.8503   76.1942 H   0  0  0  0  0  0  0  0  0  0  0  0
   -0.5856   52.7881   78.8752 H   0  0  0  0  0  0  0  0  0  0  0  0
    2.0303   53.6357   79.0127 H   0  0  0  0  0  0  0  0  0  0  0  0
    2.9957   58.3801   77.5536 H   0  0  0  0  0  0  0  0  0  0  0  0
    0.3007   57.9035   76.1730 H   0  0  0  0  0  0  0  0  0  0  0  0
    0.6277   58.9204   77.6367 H   0  0  0  0  0  0  0  0  0  0  0  0
    2.0458   60.3935   76.3014 H   0  0  0  0  0  0  0  0  0  0  0  0
   -0.7233   60.0586   75.0716 H   0  0  0  0  0  0  0  0  0  0  0  0
   -0.3310   60.9148   76.6157 H   0  0  0  0  0  0  0  0  0  0  0  0
   -0.5978   62.4595   74.6683 H   0  0  0  0  0  0  0  0  0  0  0  0
    1.0478   62.5128   75.4376 H   0  0  0  0  0  0  0  0  0  0  0  0
    0.2499   61.1071   72.8741 H   0  0  0  0  0  0  0  0  0  0  0  0
    2.9732   61.2680   74.3139 H   0  0  0  0  0  0  0  0  0  0  0  0
    3.6564   58.2376   73.7677 H   0  0  0  0  0  0  0  0  0  0  0  0
    3.9187   59.2893   75.2437 H   0  0  0  0  0  0  0  0  0  0  0  0
    2.3896   56.6541   75.1493 H   0  0  0  0  0  0  0  0  0  0  0  0
    0.3797   57.8824   74.2291 H   0  0  0  0  0  0  0  0  0  0  0  0
    0.3707   59.1222   72.9293 H   0  0  0  0  0  0  0  0  0  0  0  0
    1.6185   57.8300   72.9293 H   0  0  0  0  0  0  0  0  0  0  0  0
    4.0302   60.0866   72.5634 H   0  0  0  0  0  0  0  0  0  0  0  0
    2.4381   59.9071   71.6800 H   0  0  0  0  0  0  0  0  0  0  0  0
    4.0189   62.4718   72.1355 H   0  0  0  0  0  0  0  0  0  0  0  0
    3.7119   61.6025   70.5730 H   0  0  0  0  0  0  0  0  0  0  0  0
    2.1418   63.2694   73.5356 H   0  0  0  0  0  0  0  0  0  0  0  0
    0.0818   64.5282   73.4983 H   0  0  0  0  0  0  0  0  0  0  0  0
    1.7081   65.7408   72.2783 H   0  0  0  0  0  0  0  0  0  0  0  0
    3.3207   64.2614   71.0001 H   0  0  0  0  0  0  0  0  0  0  0  0
    1.3183   63.7797   68.8586 H   0  0  0  0  0  0  0  0  0  0  0  0
    0.1420   65.3054   67.7700 H   0  0  0  0  0  0  0  0  0  0  0  0
   -0.5458   66.6938   68.7158 H   0  0  0  0  0  0  0  0  0  0  0  0
    1.9275   66.7345   66.9376 H   0  0  0  0  0  0  0  0  0  0  0  0
    0.3255   67.5138   66.6202 H   0  0  0  0  0  0  0  0  0  0  0  0
    2.4622   68.7793   67.7060 H   0  0  0  0  0  0  0  0  0  0  0  0
    2.4437   68.9149   70.0441 H   0  0  0  0  0  0  0  0  0  0  0  0
    0.7687   68.2694   70.1697 H   0  0  0  0  0  0  0  0  0  0  0  0
    0.2064   70.0002   68.9586 H   0  0  0  0  0  0  0  0  0  0  0  0
    1.0076   70.4442   67.4134 H   0  0  0  0  0  0  0  0  0  0  0  0
   -0.3614   69.2813   67.4134 H   0  0  0  0  0  0  0  0  0  0  0  0
    4.1016   64.4436   69.1938 H   0  0  0  0  0  0  0  0  0  0  0  0
    3.2055   63.5658   67.9080 H   0  0  0  0  0  0  0  0  0  0  0  0
    3.2469   65.3616   67.9080 H   0  0  0  0  0  0  0  0  0  0  0  0
    0.3922   61.2392   71.0155 H   0  0  0  0  0  0  0  0  0  0  0  0
    0.5108   62.5391   69.7814 H   0  0  0  0  0  0  0  0  0  0  0  0
    1.6965   61.1897   69.7814 H   0  0  0  0  0  0  0  0  0  0  0  0
   -1.4341   63.3731   72.6663 H   0  0  0  0  0  0  0  0  0  0  0  0
    4.4701   56.7874   76.8939 H   0  0  0  0  0  0  0  0  0  0  0  0
   -2.5461   57.1079   76.0368 H   0  0  0  0  0  0  0  0  0  0  0  0
   -1.8121   57.0413   74.3909 H   0  0  0  0  0  0  0  0  0  0  0  0
   -3.7604   55.2737   75.5592 H   0  0  0  0  0  0  0  0  0  0  0  0
  2  1  1  0
  3  2  1  0
  4  3  1  0
  5  4  1  0
  6  5  1  0
  6  1  1  0
  7  4  1  0
  8  5  1  0
  9  8  1  0
 10  9  1  0
 11 10  1  0
 12 11  1  0
 13 12  1  0
 14 13  1  0
 14  9  1  0
 15 14  1  0
 16 13  1  0
 17 12  1  0
 18  6  1  0
 19 18  1  0
 20 19  1  0
 21 20  1  0
 22 21  1  0
 23 22  1  0
 24 19  1  0
 24 23  1  0
 25 22  1  0
 26 24  1  0
 27 23  1  0
 28 27  1  0
 29 28  1  0
 30 29  1  0
 31 30  1  0
 32 31  1  0
 33 32  1  0
 33 28  1  0
 34 31  1  0
 35 32  1  0
 36 33  1  0
 37 30  1  0
 38 37  1  0
 39 21  1  0
 40 39  1  0
 41  3  1  0
 42 41  1  0
 43  1  1  0
 45 44  1  0
 46 45  1  0
 47 46  1  0
 48 47  1  0
 49 48  1  0
 49 44  1  0
 49 43  1  0
 50 48  1  0
 51 47  1  0
 52 46  1  0
 53 52  1  0
 54 53  1  0
 55 54  1  0
 56 55  1  0
 57 56  1  0
 58 57  1  0
 59 58  1  0
 60 59  1  0
 60 55  1  0
 61 60  1  0
 62 61  1  0
 62 53  1  0
 60 63  1  6
 64 59  1  0
 65 64  1  0
 66 65  1  0
 67 66  1  0
 67 58  1  0
 68 67  1  0
 69 68  1  0
 70 69  1  0
 70 66  1  0
 71 70  1  0
 72 71  1  0
 73 69  1  0
 72 73  1  1
 74 72  1  0
 75 74  1  0
 76 75  1  0
 77 76  1  0
 78 77  1  0
 78 72  1  0
 79 76  1  0
 80 71  1  0
 66 81  1  6
 82 68  1  0
 83 62  1  0
 84 44  1  0
 85 84  1  0
  1 86  1  6
  3 87  1  1
  4 88  1  1
  5 89  1  6
  6 90  1  1
  7 91  1  0
  9 92  1  6
 11 93  1  0
 11 94  1  0
 12 95  1  1
 13 96  1  6
 14 97  1  1
 15 98  1  0
 16 99  1  0
 17100  1  0
 19101  1  1
 21102  1  6
 22103  1  6
 23104  1  1
 24105  1  6
 25106  1  0
 26107  1  0
 28108  1  1
 30109  1  1
 31110  1  6
 32111  1  1
 33112  1  6
 34113  1  0
 35114  1  0
 36115  1  0
 37116  1  0
 37117  1  0
 38118  1  0
 39119  1  0
 39120  1  0
 40121  1  0
 41122  1  0
 41123  1  0
 42124  1  0
 44125  1  6
 46126  1  6
 47127  1  1
 48128  1  6
 49129  1  6
 50130  1  0
 51131  1  0
 53132  1  1
 54133  1  0
 54134  1  0
 55135  1  1
 56136  1  0
 56137  1  0
 57138  1  0
 57139  1  0
 58140  1  6
 59141  1  1
 61142  1  0
 61143  1  0
 62144  1  6
 63145  1  0
 63146  1  0
 63147  1  0
 64148  1  0
 64149  1  0
 65150  1  0
 65151  1  0
 67152  1  1
 68153  1  1
 69154  1  1
 70155  1  1
 71156  1  6
 74157  1  0
 74158  1  0
 75159  1  0
 75160  1  0
 76161  1  6
 77162  1  0
 77163  1  0
 79164  1  0
 79165  1  0
 79166  1  0
 80167  1  0
 80168  1  0
 80169  1  0
 81170  1  0
 81171  1  0
 81172  1  0
 82173  1  0
 83174  1  0
 84175  1  0
 84176  1  0
 85177  1  0
M  END
>  <score>  (4) 
-4.585

$$$$
=
     RDKit          3D

177187  0  0  0  0  0  0  0  0999 V2000
   -4.7000   60.2250   79.7690 C   0  0  2  0  0  0  0  0  0  0  0  0
   -4.4700   61.2530   80.7340 O   0  0  0  0  0  0  0  0  0  0  0  0
   -3.6440   62.3570   80.3120 C   0  0  1  0  0  0  0  0  0  0  0  0
   -2.4580   61.9170   79.4400 C   0  0  1  0  0  0  0  0  0  0  0  0
   -2.1660   60.4340   79.6650 C   0  0  1  0  0  0  0  0  0  0  0  0
   -3.3820   59.6000   79.2290 C   0  0  1  0  0  0  0  0  0  0  0  0
   -2.6940   62.1500   78.0420 O   0  0  0  0  0  0  0  0  0  0  0  0
   -1.0220   60.1080   78.8410 O   0  0  0  0  0  0  0  0  0  0  0  0
    0.2180   60.2280   79.5480 C   0  0  2  0  0  0  0  0  0  0  0  0
    0.4590   61.6090   79.8750 O   0  0  0  0  0  0  0  0  0  0  0  0
    0.9760   62.3450   78.7650 C   0  0  0  0  0  0  0  0  0  0  0  0
    2.4090   61.8940   78.4720 C   0  0  2  0  0  0  0  0  0  0  0  0
    2.6300   60.4310   78.8760 C   0  0  1  0  0  0  0  0  0  0  0  0
    1.3510   59.6220   78.6790 C   0  0  1  0  0  0  0  0  0  0  0  0
    1.6100   58.2520   79.0230 O   0  0  0  0  0  0  0  0  0  0  0  0
    3.6900   59.8550   78.0940 O   0  0  0  0  0  0  0  0  0  0  0  0
    3.3550   62.6960   79.1970 O   0  0  0  0  0  0  0  0  0  0  0  0
   -3.2020   58.2680   79.7590 O   0  0  0  0  0  0  0  0  0  0  0  0
   -2.9840   57.2920   78.7350 C   0  0  2  0  0  0  0  0  0  0  0  0
   -4.2190   56.6250   78.4460 O   0  0  0  0  0  0  0  0  0  0  0  0
   -4.5280   55.5220   79.3020 C   0  0  1  0  0  0  0  0  0  0  0  0
   -3.4600   54.4080   79.1730 C   0  0  1  0  0  0  0  0  0  0  0  0
   -2.1330   54.9360   78.5950 C   0  0  1  0  0  0  0  0  0  0  0  0
   -1.8510   56.3280   79.1540 C   0  0  1  0  0  0  0  0  0  0  0  0
   -3.2350   53.7440   80.4290 O   0  0  0  0  0  0  0  0  0  0  0  0
   -0.5790   56.7930   78.6760 O   0  0  0  0  0  0  0  0  0  0  0  0
   -1.0300   54.0800   78.9650 O   0  0  0  0  0  0  0  0  0  0  0  0
   -0.3000   53.5630   77.8470 C   0  0  2  0  0  0  0  0  0  0  0  0
    0.4790   54.6230   77.2910 O   0  0  0  0  0  0  0  0  0  0  0  0
    1.2240   54.2140   76.1330 C   0  0  1  0  0  0  0  0  0  0  0  0
    0.2550   53.8020   75.0130 C   0  0  2  0  0  0  0  0  0  0  0  0
   -0.6160   52.6500   75.5200 C   0  0  1  0  0  0  0  0  0  0  0  0
   -1.3230   53.0300   76.8200 C   0  0  1  0  0  0  0  0  0  0  0  0
    0.9430   53.3590   73.8410 O   0  0  0  0  0  0  0  0  0  0  0  0
   -1.6000   52.3030   74.5330 O   0  0  0  0  0  0  0  0  0  0  0  0
   -2.0110   51.8760   77.3250 O   0  0  0  0  0  0  0  0  0  0  0  0
    2.1220   55.3850   75.7220 C   0  0  0  0  0  0  0  0  0  0  0  0
    3.1770   54.9360   74.8740 O   0  0  0  0  0  0  0  0  0  0  0  0
   -4.8470   55.9610   80.7440 C   0  0  0  0  0  0  0  0  0  0  0  0
   -5.8220   57.0020   80.7690 O   0  0  0  0  0  0  0  0  0  0  0  0
   -4.4630   63.4970   79.6870 C   0  0  0  0  0  0  0  0  0  0  0  0
   -3.9990   64.7650   80.1640 O   0  0  0  0  0  0  0  0  0  0  0  0
   -5.4860   60.7180   78.6890 O   0  0  0  0  0  0  0  0  0  0  0  0
   -7.5690   61.6660   77.7980 C   0  0  1  0  0  0  0  0  0  0  0  0
   -7.6100   60.6380   76.7900 O   0  0  0  0  0  0  0  0  0  0  0  0
   -8.2820   59.4600   77.2280 C   0  0  2  0  0  0  0  0  0  0  0  0
   -7.6610   58.8740   78.5140 C   0  0  1  0  0  0  0  0  0  0  0  0
   -7.5730   59.9610   79.5880 C   0  0  2  0  0  0  0  0  0  0  0  0
   -6.8030   61.1740   79.0450 C   0  0  1  0  0  0  0  0  0  0  0  0
   -6.9430   59.4500   80.7700 O   0  0  0  0  0  0  0  0  0  0  0  0
   -8.4540   57.7840   79.0180 O   0  0  0  0  0  0  0  0  0  0  0  0
   -8.1860   58.4350   76.2280 O   0  0  0  0  0  0  0  0  0  0  0  0
   -7.1080   58.6180   75.2950 C   0  0  2  0  0  0  0  0  0  0  0  0
   -5.8440   58.0830   75.9700 C   0  0  0  0  0  0  0  0  0  0  0  0
   -4.5900   58.3980   75.1480 C   0  0  2  0  0  0  0  0  0  0  0  0
   -3.3440   57.7480   75.7620 C   0  0  0  0  0  0  0  0  0  0  0  0
   -2.1210   57.9510   74.8700 C   0  0  0  0  0  0  0  0  0  0  0  0
   -1.8740   59.4320   74.5490 C   0  0  2  0  0  0  0  0  0  0  0  0
   -3.1570   60.0970   73.9460 C   0  0  1  0  0  0  0  0  0  0  0  0
   -4.4030   59.9270   74.8930 C   0  0  1  0  0  0  0  0  0  0  0  0
   -5.6910   60.4460   74.2000 C   0  0  0  0  0  0  0  0  0  0  0  0
   -6.9820   60.1210   74.9600 C   0  0  1  0  0  0  0  0  0  0  0  0
   -4.2060   60.7180   76.2120 C   0  0  0  0  0  0  0  0  0  0  0  0
   -2.9050   61.5530   73.4670 C   0  0  0  0  0  0  0  0  0  0  0  0
   -1.6390   61.7120   72.6010 C   0  0  0  0  0  0  0  0  0  0  0  0
   -0.3980   61.1070   73.2820 C   0  0  1  0  0  0  0  0  0  0  0  0
   -0.7280   59.6090   73.5460 C   0  0  1  0  0  0  0  0  0  0  0  0
    0.6330   58.9640   73.7980 C   0  0  1  0  0  0  0  0  0  0  0  0
    1.4710   59.6070   72.6840 C   0  0  1  0  0  0  0  0  0  0  0  0
    0.8370   60.9730   72.3400 C   0  0  2  0  0  0  0  0  0  0  0  0
    2.0190   61.9420   72.4670 C   0  0  1  0  0  0  0  0  0  0  0  0
    3.2380   61.0100   72.3130 C   0  0  2  0  0  0  0  0  0  0  0  0
    2.8340   59.8340   73.0510 O   0  0  0  0  0  0  0  0  0  0  0  0
    4.5260   61.5660   72.9480 C   0  0  0  0  0  0  0  0  0  0  0  0
    5.4690   62.1520   71.9040 C   0  0  0  0  0  0  0  0  0  0  0  0
    5.7870   61.1270   70.8040 C   0  0  2  0  0  0  0  0  0  0  0  0
    4.6780   60.0770   70.6760 C   0  0  0  0  0  0  0  0  0  0  0  0
    3.4130   60.6770   70.9320 O   0  0  0  0  0  0  0  0  0  0  0  0
    7.1380   60.4500   71.0270 C   0  0  0  0  0  0  0  0  0  0  0  0
    1.9330   63.0930   71.4740 C   0  0  0  0  0  0  0  0  0  0  0  0
   -0.0890   61.9390   74.5510 C   0  0  0  0  0  0  0  0  0  0  0  0
    1.1450   59.2600   75.0890 O   0  0  0  0  0  0  0  0  0  0  0  0
   -8.0740   60.5630   74.1400 O   0  0  0  0  0  0  0  0  0  0  0  0
   -6.9730   62.9310   77.1800 C   0  0  0  0  0  0  0  0  0  0  0  0
   -7.8500   63.4620   76.1950 O   0  0  0  0  0  0  0  0  0  0  0  0
   -5.2496   59.4253   80.2871 H   0  0  0  0  0  0  0  0  0  0  0  0
   -3.1960   62.7730   81.2265 H   0  0  0  0  0  0  0  0  0  0  0  0
   -1.5913   62.5241   79.7404 H   0  0  0  0  0  0  0  0  0  0  0  0
   -1.9633   60.2192   80.7246 H   0  0  0  0  0  0  0  0  0  0  0  0
   -3.4568   59.5755   78.1318 H   0  0  0  0  0  0  0  0  0  0  0  0
   -3.3945   62.8416   77.9364 H   0  0  0  0  0  0  0  0  0  0  0  0
    0.1811   59.6717   80.4963 H   0  0  0  0  0  0  0  0  0  0  0  0
    0.3472   62.1637   77.8808 H   0  0  0  0  0  0  0  0  0  0  0  0
    0.9730   63.4184   79.0054 H   0  0  0  0  0  0  0  0  0  0  0  0
    2.5599   62.0080   77.3884 H   0  0  0  0  0  0  0  0  0  0  0  0
    2.9082   60.4047   79.9399 H   0  0  0  0  0  0  0  0  0  0  0  0
    1.0254   59.6596   77.6290 H   0  0  0  0  0  0  0  0  0  0  0  0
    1.6280   58.1569   80.0083 H   0  0  0  0  0  0  0  0  0  0  0  0
    4.3794   59.4804   78.6977 H   0  0  0  0  0  0  0  0  0  0  0  0
    3.2130   62.5756   80.1693 H   0  0  0  0  0  0  0  0  0  0  0  0
   -2.6509   57.7749   77.8045 H   0  0  0  0  0  0  0  0  0  0  0  0
   -5.4696   55.0679   78.9597 H   0  0  0  0  0  0  0  0  0  0  0  0
   -3.8619   53.6724   78.4608 H   0  0  0  0  0  0  0  0  0  0  0  0
   -2.2287   54.9616   77.4995 H   0  0  0  0  0  0  0  0  0  0  0  0
   -1.8145   56.2878   80.2527 H   0  0  0  0  0  0  0  0  0  0  0  0
   -3.4449   54.3636   81.1721 H   0  0  0  0  0  0  0  0  0  0  0  0
    0.0050   57.0065   79.4463 H   0  0  0  0  0  0  0  0  0  0  0  0
    0.3752   52.7461   78.1416 H   0  0  0  0  0  0  0  0  0  0  0  0
    1.8547   53.3385   76.3467 H   0  0  0  0  0  0  0  0  0  0  0  0
   -0.3469   54.6834   74.7469 H   0  0  0  0  0  0  0  0  0  0  0  0
    0.0406   51.7882   75.7101 H   0  0  0  0  0  0  0  0  0  0  0  0
   -2.0536   53.8306   76.6323 H   0  0  0  0  0  0  0  0  0  0  0  0
    1.7453   52.8424   74.1048 H   0  0  0  0  0  0  0  0  0  0  0  0
   -2.4310   52.0100   74.9843 H   0  0  0  0  0  0  0  0  0  0  0  0
   -2.0010   51.8928   78.3148 H   0  0  0  0  0  0  0  0  0  0  0  0
    1.5190   56.1314   75.1842 H   0  0  0  0  0  0  0  0  0  0  0  0
    2.5603   55.8301   76.6274 H   0  0  0  0  0  0  0  0  0  0  0  0
    3.9318   54.6148   75.4282 H   0  0  0  0  0  0  0  0  0  0  0  0
   -5.2326   55.0963   81.3040 H   0  0  0  0  0  0  0  0  0  0  0  0
   -3.9223   56.3425   81.2016 H   0  0  0  0  0  0  0  0  0  0  0  0
   -6.0364   57.2309   81.7080 H   0  0  0  0  0  0  0  0  0  0  0  0
   -4.3579   63.4610   78.5926 H   0  0  0  0  0  0  0  0  0  0  0  0
   -5.5189   63.3742   79.9697 H   0  0  0  0  0  0  0  0  0  0  0  0
   -3.9989   64.7652   81.1540 H   0  0  0  0  0  0  0  0  0  0  0  0
   -8.5831   61.9084   78.1485 H   0  0  0  0  0  0  0  0  0  0  0  0
   -9.3243   59.7561   77.4175 H   0  0  0  0  0  0  0  0  0  0  0  0
   -6.6557   58.5010   78.2685 H   0  0  0  0  0  0  0  0  0  0  0  0
   -8.5915   60.2803   79.8540 H   0  0  0  0  0  0  0  0  0  0  0  0
   -6.7179   61.9931   79.7742 H   0  0  0  0  0  0  0  0  0  0  0  0
   -7.3957   59.8172   81.5702 H   0  0  0  0  0  0  0  0  0  0  0  0
   -8.4435   57.7984   80.0078 H   0  0  0  0  0  0  0  0  0  0  0  0
   -7.2789   58.0817   74.3499 H   0  0  0  0  0  0  0  0  0  0  0  0
   -5.7459   58.5464   76.9628 H   0  0  0  0  0  0  0  0  0  0  0  0
   -5.9349   56.9900   76.0542 H   0  0  0  0  0  0  0  0  0  0  0  0
   -4.7361   57.9487   74.1546 H   0  0  0  0  0  0  0  0  0  0  0  0
   -3.1503   58.2009   76.7455 H   0  0  0  0  0  0  0  0  0  0  0  0
   -3.5273   56.6681   75.8627 H   0  0  0  0  0  0  0  0  0  0  0  0
   -1.2365   57.5483   75.3852 H   0  0  0  0  0  0  0  0  0  0  0  0
   -2.3058   57.4269   73.9207 H   0  0  0  0  0  0  0  0  0  0  0  0
   -1.6076   59.9178   75.4993 H   0  0  0  0  0  0  0  0  0  0  0  0
   -3.4144   59.5491   73.0276 H   0  0  0  0  0  0  0  0  0  0  0  0
   -5.6139   61.5388   74.1005 H   0  0  0  0  0  0  0  0  0  0  0  0
   -5.7570   59.9358   73.2277 H   0  0  0  0  0  0  0  0  0  0  0  0
   -6.9818   60.6381   75.9309 H   0  0  0  0  0  0  0  0  0  0  0  0
   -4.3726   60.0490   77.0691 H   0  0  0  0  0  0  0  0  0  0  0  0
   -3.1813   61.1160   76.2513 H   0  0  0  0  0  0  0  0  0  0  0  0
   -4.9243   61.5501   76.2513 H   0  0  0  0  0  0  0  0  0  0  0  0
   -3.7732   61.8788   72.8754 H   0  0  0  0  0  0  0  0  0  0  0  0
   -2.7562   62.1660   74.3682 H   0  0  0  0  0  0  0  0  0  0  0  0
   -1.8001   61.2036   71.6389 H   0  0  0  0  0  0  0  0  0  0  0  0
   -1.4581   62.7873   72.4559 H   0  0  0  0  0  0  0  0  0  0  0  0
   -1.1865   59.0619   72.7090 H   0  0  0  0  0  0  0  0  0  0  0  0
    0.6171   57.8643   73.7787 H   0  0  0  0  0  0  0  0  0  0  0  0
    1.4743   58.9087   71.8341 H   0  0  0  0  0  0  0  0  0  0  0  0
    0.4106   61.1556   71.3426 H   0  0  0  0  0  0  0  0  0  0  0  0
    2.0609   62.4901   73.4198 H   0  0  0  0  0  0  0  0  0  0  0  0
    4.2565   62.3546   73.6659 H   0  0  0  0  0  0  0  0  0  0  0  0
    5.0454   60.7348   73.4473 H   0  0  0  0  0  0  0  0  0  0  0  0
    4.9952   63.0333   71.4470 H   0  0  0  0  0  0  0  0  0  0  0  0
    6.4093   62.4313   72.4019 H   0  0  0  0  0  0  0  0  0  0  0  0
    5.8430   61.6872   69.8590 H   0  0  0  0  0  0  0  0  0  0  0  0
    4.6852   59.6607   69.6578 H   0  0  0  0  0  0  0  0  0  0  0  0
    4.8530   59.2735   71.4066 H   0  0  0  0  0  0  0  0  0  0  0  0
    7.3269   60.3553   72.1065 H   0  0  0  0  0  0  0  0  0  0  0  0
    7.1276   59.4506   70.5675 H   0  0  0  0  0  0  0  0  0  0  0  0
    7.9324   61.0565   70.5675 H   0  0  0  0  0  0  0  0  0  0  0  0
    1.8619   64.0447   72.0210 H   0  0  0  0  0  0  0  0  0  0  0  0
    2.8331   63.0999   70.8418 H   0  0  0  0  0  0  0  0  0  0  0  0
    1.0418   62.9660   70.8418 H   0  0  0  0  0  0  0  0  0  0  0  0
   -0.3117   61.3393   75.4459 H   0  0  0  0  0  0  0  0  0  0  0  0
    0.9741   62.2216   74.5543 H   0  0  0  0  0  0  0  0  0  0  0  0
   -0.7098   62.8470   74.5543 H   0  0  0  0  0  0  0  0  0  0  0  0
    0.5293   58.9041   75.7777 H   0  0  0  0  0  0  0  0  0  0  0  0
   -8.8193   60.8647   74.7175 H   0  0  0  0  0  0  0  0  0  0  0  0
   -6.8175   63.6813   77.9692 H   0  0  0  0  0  0  0  0  0  0  0  0
   -6.0138   62.6781   76.7046 H   0  0  0  0  0  0  0  0  0  0  0  0
   -8.6067   63.9202   76.6394 H   0  0  0  0  0  0  0  0  0  0  0  0
  2  1  1  0
  3  2  1  0
  4  3  1  0
  5  4  1  0
  6  5  1  0
  6  1  1  0
  7  4  1  0
  8  5  1  0
  9  8  1  0
 10  9  1  0
 11 10  1  0
 12 11  1  0
 13 12  1  0
 14 13  1  0
 14  9  1  0
 15 14  1  0
 16 13  1  0
 17 12  1  0
 18  6  1  0
 19 18  1  0
 20 19  1  0
 21 20  1  0
 22 21  1  0
 23 22  1  0
 24 19  1  0
 24 23  1  0
 25 22  1  0
 26 24  1  0
 27 23  1  0
 28 27  1  0
 29 28  1  0
 30 29  1  0
 31 30  1  0
 32 31  1  0
 33 32  1  0
 33 28  1  0
 34 31  1  0
 35 32  1  0
 36 33  1  0
 37 30  1  0
 38 37  1  0
 39 21  1  0
 40 39  1  0
 41  3  1  0
 42 41  1  0
 43  1  1  0
 45 44  1  0
 46 45  1  0
 47 46  1  0
 48 47  1  0
 49 48  1  0
 49 44  1  0
 49 43  1  0
 50 48  1  0
 51 47  1  0
 52 46  1  0
 53 52  1  0
 54 53  1  0
 55 54  1  0
 56 55  1  0
 57 56  1  0
 58 57  1  0
 59 58  1  0
 60 59  1  0
 60 55  1  0
 61 60  1  0
 62 61  1  0
 62 53  1  0
 60 63  1  1
 64 59  1  0
 65 64  1  0
 66 65  1  0
 67 66  1  0
 67 58  1  0
 68 67  1  0
 69 68  1  0
 70 69  1  0
 70 66  1  0
 71 70  1  0
 72 71  1  0
 73 69  1  0
 72 73  1  1
 74 72  1  0
 75 74  1  0
 76 75  1  0
 77 76  1  0
 78 77  1  0
 78 72  1  0
 79 76  1  0
 80 71  1  0
 66 81  1  1
 82 68  1  0
 83 62  1  0
 84 44  1  0
 85 84  1  0
  1 86  1  1
  3 87  1  1
  4 88  1  1
  5 89  1  1
  6 90  1  6
  7 91  1  0
  9 92  1  1
 11 93  1  0
 11 94  1  0
 12 95  1  6
 13 96  1  1
 14 97  1  6
 15 98  1  0
 16 99  1  0
 17100  1  0
 19101  1  6
 21102  1  6
 22103  1  6
 23104  1  6
 24105  1  1
 25106  1  0
 26107  1  0
 28108  1  1
 30109  1  1
 31110  1  6
 32111  1  1
 33112  1  6
 34113  1  0
 35114  1  0
 36115  1  0
 37116  1  0
 37117  1  0
 38118  1  0
 39119  1  0
 39120  1  0
 40121  1  0
 41122  1  0
 41123  1  0
 42124  1  0
 44125  1  1
 46126  1  1
 47127  1  6
 48128  1  1
 49129  1  1
 50130  1  0
 51131  1  0
 53132  1  6
 54133  1  0
 54134  1  0
 55135  1  6
 56136  1  0
 56137  1  0
 57138  1  0
 57139  1  0
 58140  1  1
 59141  1  6
 61142  1  0
 61143  1  0
 62144  1  1
 63145  1  0
 63146  1  0
 63147  1  0
 64148  1  0
 64149  1  0
 65150  1  0
 65151  1  0
 67152  1  6
 68153  1  6
 69154  1  6
 70155  1  6
 71156  1  1
 74157  1  0
 74158  1  0
 75159  1  0
 75160  1  0
 76161  1  6
 77162  1  0
 77163  1  0
 79164  1  0
 79165  1  0
 79166  1  0
 80167  1  0
 80168  1  0
 80169  1  0
 81170  1  0
 81171  1  0
 81172  1  0
 82173  1  0
 83174  1  0
 84175  1  0
 84176  1  0
 85177  1  0
M  END
>  <score>  (5) 
-4.245

$$$$
=
     RDKit          3D

177187  0  0  0  0  0  0  0  0999 V2000
   -2.2840   59.0070   77.8160 C   0  0  2  0  0  0  0  0  0  0  0  0
   -2.3410   60.1100   78.7220 O   0  0  0  0  0  0  0  0  0  0  0  0
   -2.4080   59.7860   80.1250 C   0  0  1  0  0  0  0  0  0  0  0  0
   -3.3080   58.5750   80.4170 C   0  0  1  0  0  0  0  0  0  0  0  0
   -4.2770   58.3530   79.2560 C   0  0  1  0  0  0  0  0  0  0  0  0
   -3.4840   58.0310   77.9800 C   0  0  1  0  0  0  0  0  0  0  0  0
   -2.5500   57.3760   80.6410 O   0  0  0  0  0  0  0  0  0  0  0  0
   -5.1070   57.2260   79.6200 O   0  0  0  0  0  0  0  0  0  0  0  0
   -4.8650   56.0750   78.8010 C   0  0  2  0  0  0  0  0  0  0  0  0
   -5.9970   55.8450   77.9420 O   0  0  0  0  0  0  0  0  0  0  0  0
   -7.0660   55.1850   78.6210 C   0  0  0  0  0  0  0  0  0  0  0  0
   -6.6690   53.7370   78.9200 C   0  0  2  0  0  0  0  0  0  0  0  0
   -5.1510   53.5970   79.0950 C   0  0  1  0  0  0  0  0  0  0  0  0
   -4.5650   54.8610   79.7170 C   0  0  1  0  0  0  0  0  0  0  0  0
   -3.1530   54.6740   79.9070 O   0  0  0  0  0  0  0  0  0  0  0  0
   -4.8490   52.4650   79.9270 O   0  0  0  0  0  0  0  0  0  0  0  0
   -7.0670   52.8660   77.8490 O   0  0  0  0  0  0  0  0  0  0  0  0
   -4.3930   58.1590   76.8640 O   0  0  0  0  0  0  0  0  0  0  0  0
   -5.4090   59.1420   77.0920 C   0  0  2  0  0  0  0  0  0  0  0  0
   -6.6900   58.5790   76.7840 O   0  0  0  0  0  0  0  0  0  0  0  0
   -7.0670   58.6430   75.4060 C   0  0  1  0  0  0  0  0  0  0  0  0
   -7.1800   60.1140   74.9340 C   0  0  1  0  0  0  0  0  0  0  0  0
   -6.4000   61.0820   75.8460 C   0  0  1  0  0  0  0  0  0  0  0  0
   -5.0950   60.4240   76.2890 C   0  0  1  0  0  0  0  0  0  0  0  0
   -6.7620   60.2630   73.5660 O   0  0  0  0  0  0  0  0  0  0  0  0
   -4.3310   61.3500   77.0780 O   0  0  0  0  0  0  0  0  0  0  0  0
   -6.0660   62.2980   75.1440 O   0  0  0  0  0  0  0  0  0  0  0  0
   -7.1440   63.2390   75.0760 C   0  0  2  0  0  0  0  0  0  0  0  0
   -7.4280   63.4950   73.6990 O   0  0  0  0  0  0  0  0  0  0  0  0
   -8.4760   64.4620   73.5210 C   0  0  1  0  0  0  0  0  0  0  0  0
   -8.0330   65.8170   74.0970 C   0  0  2  0  0  0  0  0  0  0  0  0
   -7.7210   65.6380   75.5850 C   0  0  1  0  0  0  0  0  0  0  0  0
   -6.6930   64.5270   75.7970 C   0  0  1  0  0  0  0  0  0  0  0  0
   -9.0490   66.8150   73.9710 O   0  0  0  0  0  0  0  0  0  0  0  0
   -7.2110   66.8630   76.1340 O   0  0  0  0  0  0  0  0  0  0  0  0
   -6.5410   64.3050   77.2070 O   0  0  0  0  0  0  0  0  0  0  0  0
   -8.7840   64.5400   72.0230 C   0  0  0  0  0  0  0  0  0  0  0  0
   -8.0240   65.5770   71.4070 O   0  0  0  0  0  0  0  0  0  0  0  0
   -6.2050   57.7320   74.5110 C   0  0  0  0  0  0  0  0  0  0  0  0
   -6.7800   57.5770   73.2160 O   0  0  0  0  0  0  0  0  0  0  0  0
   -1.0180   59.6750   80.7700 C   0  0  0  0  0  0  0  0  0  0  0  0
   -0.0580   60.4250   80.0180 O   0  0  0  0  0  0  0  0  0  0  0  0
   -1.0560   58.3010   77.9620 O   0  0  0  0  0  0  0  0  0  0  0  0
   -0.2020   57.2910   75.8920 C   0  0  1  0  0  0  0  0  0  0  0  0
    1.0920   57.8740   76.1390 O   0  0  0  0  0  0  0  0  0  0  0  0
    1.9290   57.0430   76.9410 C   0  0  2  0  0  0  0  0  0  0  0  0
    1.2760   56.6840   78.2930 C   0  0  1  0  0  0  0  0  0  0  0  0
   -0.1180   56.0990   78.0560 C   0  0  2  0  0  0  0  0  0  0  0  0
   -0.9610   57.0720   77.2180 C   0  0  1  0  0  0  0  0  0  0  0  0
   -0.7630   55.8160   79.3030 O   0  0  0  0  0  0  0  0  0  0  0  0
    2.0710   55.7210   79.0080 O   0  0  0  0  0  0  0  0  0  0  0  0
    3.1530   57.7240   77.2490 O   0  0  0  0  0  0  0  0  0  0  0  0
    3.3900   58.9010   76.4580 C   0  0  2  0  0  0  0  0  0  0  0  0
    2.0620   59.6560   76.3810 C   0  0  0  0  0  0  0  0  0  0  0  0
    2.1400   60.8330   75.4020 C   0  0  2  0  0  0  0  0  0  0  0  0
    0.8510   61.6630   75.4260 C   0  0  0  0  0  0  0  0  0  0  0  0
    0.9810   62.9080   74.5520 C   0  0  0  0  0  0  0  0  0  0  0  0
    1.3950   62.5690   73.1130 C   0  0  2  0  0  0  0  0  0  0  0  0
    2.6980   61.7000   73.0960 C   0  0  1  0  0  0  0  0  0  0  0  0
    2.5410   60.3930   73.9590 C   0  0  1  0  0  0  0  0  0  0  0  0
    3.8940   59.6390   74.0600 C   0  0  0  0  0  0  0  0  0  0  0  0
    3.8860   58.4750   75.0580 C   0  0  1  0  0  0  0  0  0  0  0  0
    1.4950   59.4380   73.3280 C   0  0  0  0  0  0  0  0  0  0  0  0
    3.2380   61.4630   71.6590 C   0  0  0  0  0  0  0  0  0  0  0  0
    3.3160   62.7440   70.8040 C   0  0  0  0  0  0  0  0  0  0  0  0
    1.9810   63.5130   70.7990 C   0  0  1  0  0  0  0  0  0  0  0  0
    1.6530   63.8330   72.2860 C   0  0  1  0  0  0  0  0  0  0  0  0
    0.6040   64.9400   72.2090 C   0  0  1  0  0  0  0  0  0  0  0  0
    1.2040   65.8350   71.1160 C   0  0  1  0  0  0  0  0  0  0  0  0
    2.0830   64.9510   70.2050 C   0  0  2  0  0  0  0  0  0  0  0  0
    1.5360   65.2520   68.8040 C   0  0  1  0  0  0  0  0  0  0  0  0
    0.8430   66.6150   68.9970 C   0  0  2  0  0  0  0  0  0  0  0  0
    0.2240   66.4760   70.2960 O   0  0  0  0  0  0  0  0  0  0  0  0
   -0.2570   66.9030   67.9600 C   0  0  0  0  0  0  0  0  0  0  0  0
    0.2190   67.8600   66.8740 C   0  0  0  0  0  0  0  0  0  0  0  0
    0.7670   69.1610   67.4800 C   0  0  2  0  0  0  0  0  0  0  0  0
    1.2600   68.9490   68.9160 C   0  0  0  0  0  0  0  0  0  0  0  0
    1.8310   67.6510   69.0430 O   0  0  0  0  0  0  0  0  0  0  0  0
   -0.2590   70.2910   67.4320 C   0  0  0  0  0  0  0  0  0  0  0  0
    2.6220   65.2030   67.7370 C   0  0  0  0  0  0  0  0  0  0  0  0
    0.9260   62.6430   70.0730 C   0  0  0  0  0  0  0  0  0  0  0  0
   -0.6790   64.4480   71.8500 O   0  0  0  0  0  0  0  0  0  0  0  0
    5.2250   57.9620   75.1150 O   0  0  0  0  0  0  0  0  0  0  0  0
   -0.9550   58.1810   74.9020 C   0  0  0  0  0  0  0  0  0  0  0  0
   -2.3360   57.8410   74.8800 O   0  0  0  0  0  0  0  0  0  0  0  0
   -2.3454   59.4296   76.8023 H   0  0  0  0  0  0  0  0  0  0  0  0
   -2.8994   60.6403   80.6136 H   0  0  0  0  0  0  0  0  0  0  0  0
   -3.8650   58.7982   81.3389 H   0  0  0  0  0  0  0  0  0  0  0  0
   -4.8879   59.2474   79.0643 H   0  0  0  0  0  0  0  0  0  0  0  0
   -3.0727   57.0121   78.0320 H   0  0  0  0  0  0  0  0  0  0  0  0
   -2.4536   57.2235   81.6144 H   0  0  0  0  0  0  0  0  0  0  0  0
   -3.9913   56.2354   78.1522 H   0  0  0  0  0  0  0  0  0  0  0  0
   -7.2786   55.7085   79.5648 H   0  0  0  0  0  0  0  0  0  0  0  0
   -7.9632   55.1935   77.9846 H   0  0  0  0  0  0  0  0  0  0  0  0
   -7.1801   53.4568   79.8529 H   0  0  0  0  0  0  0  0  0  0  0  0
   -4.7016   53.4469   78.1023 H   0  0  0  0  0  0  0  0  0  0  0  0
   -5.0232   55.0594   80.6971 H   0  0  0  0  0  0  0  0  0  0  0  0
   -2.9511   54.6473   80.8758 H   0  0  0  0  0  0  0  0  0  0  0  0
   -4.9190   52.7272   80.8791 H   0  0  0  0  0  0  0  0  0  0  0  0
   -7.4476   52.0331   78.2251 H   0  0  0  0  0  0  0  0  0  0  0  0
   -5.4311   59.4378   78.1513 H   0  0  0  0  0  0  0  0  0  0  0  0
   -8.0772   58.2206   75.3010 H   0  0  0  0  0  0  0  0  0  0  0  0
   -8.2449   60.3812   75.0013 H   0  0  0  0  0  0  0  0  0  0  0  0
   -7.0368   61.3193   76.7109 H   0  0  0  0  0  0  0  0  0  0  0  0
   -4.4994   60.1458   75.4070 H   0  0  0  0  0  0  0  0  0  0  0  0
   -5.8298   60.5953   73.5401 H   0  0  0  0  0  0  0  0  0  0  0  0
   -4.4817   61.1673   78.0392 H   0  0  0  0  0  0  0  0  0  0  0  0
   -8.0545   62.8550   75.5592 H   0  0  0  0  0  0  0  0  0  0  0  0
   -9.3907   64.1714   74.0586 H   0  0  0  0  0  0  0  0  0  0  0  0
   -7.1503   66.1503   73.5315 H   0  0  0  0  0  0  0  0  0  0  0  0
   -8.6551   65.3624   76.0963 H   0  0  0  0  0  0  0  0  0  0  0  0
   -5.7227   64.8233   75.3718 H   0  0  0  0  0  0  0  0  0  0  0  0
   -9.3422   67.1030   74.8717 H   0  0  0  0  0  0  0  0  0  0  0  0
   -7.2310   66.8151   77.1226 H   0  0  0  0  0  0  0  0  0  0  0  0
   -7.0240   65.0105   77.7061 H   0  0  0  0  0  0  0  0  0  0  0  0
   -8.5320   63.5786   71.5517 H   0  0  0  0  0  0  0  0  0  0  0  0
   -9.8539   64.7594   71.8923 H   0  0  0  0  0  0  0  0  0  0  0  0
   -7.6097   66.1423   72.1062 H   0  0  0  0  0  0  0  0  0  0  0  0
   -5.2043   58.1766   74.4069 H   0  0  0  0  0  0  0  0  0  0  0  0
   -6.1456   56.7403   74.9833 H   0  0  0  0  0  0  0  0  0  0  0  0
   -7.7319   57.3204   73.3062 H   0  0  0  0  0  0  0  0  0  0  0  0
   -1.0621   60.0685   81.7963 H   0  0  0  0  0  0  0  0  0  0  0  0
   -0.7140   58.6179   80.7834 H   0  0  0  0  0  0  0  0  0  0  0  0
    0.5496   60.8997   80.6389 H   0  0  0  0  0  0  0  0  0  0  0  0
   -0.1006   56.2935   75.4394 H   0  0  0  0  0  0  0  0  0  0  0  0
    2.1024   56.1282   76.3552 H   0  0  0  0  0  0  0  0  0  0  0  0
    1.2036   57.6035   78.8923 H   0  0  0  0  0  0  0  0  0  0  0  0
   -0.0162   55.1543   77.5017 H   0  0  0  0  0  0  0  0  0  0  0  0
   -1.9730   56.6960   77.0070 H   0  0  0  0  0  0  0  0  0  0  0  0
   -0.1674   56.0773   80.0494 H   0  0  0  0  0  0  0  0  0  0  0  0
    1.9581   55.8578   79.9820 H   0  0  0  0  0  0  0  0  0  0  0  0
    4.1607   59.5512   76.8977 H   0  0  0  0  0  0  0  0  0  0  0  0
    1.2762   58.9634   76.0452 H   0  0  0  0  0  0  0  0  0  0  0  0
    1.8330   60.0536   77.3807 H   0  0  0  0  0  0  0  0  0  0  0  0
    2.9548   61.4856   75.7488 H   0  0  0  0  0  0  0  0  0  0  0  0
    0.0202   61.0468   75.0518 H   0  0  0  0  0  0  0  0  0  0  0  0
    0.6608   61.9820   76.4614 H   0  0  0  0  0  0  0  0  0  0  0  0
    0.0111   63.4264   74.5283 H   0  0  0  0  0  0  0  0  0  0  0  0
    1.7659   63.5441   74.9870 H   0  0  0  0  0  0  0  0  0  0  0  0
    0.5591   62.0074   72.6705 H   0  0  0  0  0  0  0  0  0  0  0  0
    3.4898   62.2804   73.5922 H   0  0  0  0  0  0  0  0  0  0  0  0
    4.1429   59.2403   73.0655 H   0  0  0  0  0  0  0  0  0  0  0  0
    4.6365   60.3647   74.4233 H   0  0  0  0  0  0  0  0  0  0  0  0
    3.1807   57.7010   74.7211 H   0  0  0  0  0  0  0  0  0  0  0  0
    0.9360   58.9276   74.1261 H   0  0  0  0  0  0  0  0  0  0  0  0
    0.7979   60.0177   72.7051 H   0  0  0  0  0  0  0  0  0  0  0  0
    2.0091   58.6912   72.7051 H   0  0  0  0  0  0  0  0  0  0  0  0
    4.2483   61.0344   71.7345 H   0  0  0  0  0  0  0  0  0  0  0  0
    2.5298   60.7864   71.1583 H   0  0  0  0  0  0  0  0  0  0  0  0
    4.1012   63.3971   71.2126 H   0  0  0  0  0  0  0  0  0  0  0  0
    3.5441   62.4499   69.7689 H   0  0  0  0  0  0  0  0  0  0  0  0
    2.4849   64.2274   72.8880 H   0  0  0  0  0  0  0  0  0  0  0  0
    0.4214   65.4509   73.1659 H   0  0  0  0  0  0  0  0  0  0  0  0
    1.7730   66.6285   71.6225 H   0  0  0  0  0  0  0  0  0  0  0  0
    3.1683   65.1190   70.1420 H   0  0  0  0  0  0  0  0  0  0  0  0
    0.8285   64.5033   68.4181 H   0  0  0  0  0  0  0  0  0  0  0  0
   -0.5595   65.9553   67.4906 H   0  0  0  0  0  0  0  0  0  0  0  0
   -1.1017   67.3754   68.4829 H   0  0  0  0  0  0  0  0  0  0  0  0
    1.0144   67.3733   66.2905 H   0  0  0  0  0  0  0  0  0  0  0  0
   -0.6374   68.1096   66.2304 H   0  0  0  0  0  0  0  0  0  0  0  0
    1.6254   69.4586   66.8598 H   0  0  0  0  0  0  0  0  0  0  0  0
    2.0195   69.7073   69.1571 H   0  0  0  0  0  0  0  0  0  0  0  0
    0.4108   69.0417   69.6090 H   0  0  0  0  0  0  0  0  0  0  0  0
   -0.5273   70.5865   68.4571 H   0  0  0  0  0  0  0  0  0  0  0  0
    0.1705   71.1540   66.9022 H   0  0  0  0  0  0  0  0  0  0  0  0
   -1.1593   69.9465   66.9022 H   0  0  0  0  0  0  0  0  0  0  0  0
    3.6091   65.1585   68.2203 H   0  0  0  0  0  0  0  0  0  0  0  0
    2.4801   64.3103   67.1101 H   0  0  0  0  0  0  0  0  0  0  0  0
    2.5610   66.1048   67.1101 H   0  0  0  0  0  0  0  0  0  0  0  0
    0.3009   62.1276   70.8171 H   0  0  0  0  0  0  0  0  0  0  0  0
    0.2923   63.2846   69.4431 H   0  0  0  0  0  0  0  0  0  0  0  0
    1.4352   61.8987   69.4431 H   0  0  0  0  0  0  0  0  0  0  0  0
   -1.1974   64.2492   72.6697 H   0  0  0  0  0  0  0  0  0  0  0  0
    5.4983   57.8573   76.0608 H   0  0  0  0  0  0  0  0  0  0  0  0
   -0.8456   59.2329   75.2046 H   0  0  0  0  0  0  0  0  0  0  0  0
   -0.5348   58.0310   73.8966 H   0  0  0  0  0  0  0  0  0  0  0  0
   -2.6704   57.7587   75.8082 H   0  0  0  0  0  0  0  0  0  0  0  0
  2  1  1  0
  3  2  1  0
  4  3  1  0
  5  4  1  0
  6  5  1  0
  6  1  1  0
  7  4  1  0
  8  5  1  0
  9  8  1  0
 10  9  1  0
 11 10  1  0
 12 11  1  0
 13 12  1  0
 14 13  1  0
 14  9  1  0
 15 14  1  0
 16 13  1  0
 17 12  1  0
 18  6  1  0
 19 18  1  0
 20 19  1  0
 21 20  1  0
 22 21  1  0
 23 22  1  0
 24 19  1  0
 24 23  1  0
 25 22  1  0
 26 24  1  0
 27 23  1  0
 28 27  1  0
 29 28  1  0
 30 29  1  0
 31 30  1  0
 32 31  1  0
 33 32  1  0
 33 28  1  0
 34 31  1  0
 35 32  1  0
 36 33  1  0
 37 30  1  0
 38 37  1  0
 39 21  1  0
 40 39  1  0
 41  3  1  0
 42 41  1  0
 43  1  1  0
 45 44  1  0
 46 45  1  0
 47 46  1  0
 48 47  1  0
 49 48  1  0
 49 44  1  0
 49 43  1  0
 50 48  1  0
 51 47  1  0
 52 46  1  0
 53 52  1  0
 54 53  1  0
 55 54  1  0
 56 55  1  0
 57 56  1  0
 58 57  1  0
 59 58  1  0
 60 59  1  0
 60 55  1  0
 61 60  1  0
 62 61  1  0
 62 53  1  0
 60 63  1  6
 64 59  1  0
 65 64  1  0
 66 65  1  0
 67 66  1  0
 67 58  1  0
 68 67  1  0
 69 68  1  0
 70 69  1  0
 70 66  1  0
 71 70  1  0
 72 71  1  0
 73 69  1  0
 72 73  1  1
 74 72  1  0
 75 74  1  0
 76 75  1  0
 77 76  1  0
 78 77  1  0
 78 72  1  0
 79 76  1  0
 80 71  1  0
 66 81  1  6
 82 68  1  0
 83 62  1  0
 84 44  1  0
 85 84  1  0
  1 86  1  6
  3 87  1  1
  4 88  1  1
  5 89  1  6
  6 90  1  1
  7 91  1  0
  9 92  1  6
 11 93  1  0
 11 94  1  0
 12 95  1  1
 13 96  1  6
 14 97  1  1
 15 98  1  0
 16 99  1  0
 17100  1  0
 19101  1  1
 21102  1  1
 22103  1  6
 23104  1  1
 24105  1  6
 25106  1  0
 26107  1  0
 28108  1  1
 30109  1  1
 31110  1  6
 32111  1  1
 33112  1  6
 34113  1  0
 35114  1  0
 36115  1  0
 37116  1  0
 37117  1  0
 38118  1  0
 39119  1  0
 39120  1  0
 40121  1  0
 41122  1  0
 41123  1  0
 42124  1  0
 44125  1  6
 46126  1  6
 47127  1  1
 48128  1  6
 49129  1  6
 50130  1  0
 51131  1  0
 53132  1  1
 54133  1  0
 54134  1  0
 55135  1  1
 56136  1  0
 56137  1  0
 57138  1  0
 57139  1  0
 58140  1  6
 59141  1  1
 61142  1  0
 61143  1  0
 62144  1  6
 63145  1  0
 63146  1  0
 63147  1  0
 64148  1  0
 64149  1  0
 65150  1  0
 65151  1  0
 67152  1  1
 68153  1  1
 69154  1  1
 70155  1  6
 71156  1  6
 74157  1  0
 74158  1  0
 75159  1  0
 75160  1  0
 76161  1  6
 77162  1  0
 77163  1  0
 79164  1  0
 79165  1  0
 79166  1  0
 80167  1  0
 80168  1  0
 80169  1  0
 81170  1  0
 81171  1  0
 81172  1  0
 82173  1  0
 83174  1  0
 84175  1  0
 84176  1  0
 85177  1  0
M  END
>  <score>  (6) 
-4.207

$$$$
=
     RDKit          3D

177187  0  0  0  0  0  0  0  0999 V2000
   -0.8690   56.0020   77.3240 C   0  0  2  0  0  0  0  0  0  0  0  0
   -1.3630   54.7030   77.6570 O   0  0  0  0  0  0  0  0  0  0  0  0
   -2.2420   54.0840   76.6970 C   0  0  1  0  0  0  0  0  0  0  0  0
   -3.2230   55.0780   76.0560 C   0  0  1  0  0  0  0  0  0  0  0  0
   -3.3660   56.3150   76.9430 C   0  0  1  0  0  0  0  0  0  0  0  0
   -2.0080   57.0270   77.0520 C   0  0  1  0  0  0  0  0  0  0  0  0
   -2.8110   55.4790   74.7400 O   0  0  0  0  0  0  0  0  0  0  0  0
   -4.3270   57.1800   76.2930 O   0  0  0  0  0  0  0  0  0  0  0  0
   -5.6780   56.8810   76.6650 C   0  0  2  0  0  0  0  0  0  0  0  0
   -6.4890   58.0640   76.5380 O   0  0  0  0  0  0  0  0  0  0  0  0
   -6.3360   58.9480   77.6500 C   0  0  0  0  0  0  0  0  0  0  0  0
   -6.9790   58.3260   78.8920 C   0  0  2  0  0  0  0  0  0  0  0  0
   -6.9410   56.7930   78.8350 C   0  0  1  0  0  0  0  0  0  0  0  0
   -5.6870   56.3150   78.1090 C   0  0  1  0  0  0  0  0  0  0  0  0
   -5.6640   54.8790   78.1170 O   0  0  0  0  0  0  0  0  0  0  0  0
   -6.9670   56.2460   80.1640 O   0  0  0  0  0  0  0  0  0  0  0  0
   -8.3540   58.7240   79.0100 O   0  0  0  0  0  0  0  0  0  0  0  0
   -2.1050   57.9720   78.1420 O   0  0  0  0  0  0  0  0  0  0  0  0
   -1.1830   59.0590   78.0110 C   0  0  2  0  0  0  0  0  0  0  0  0
   -0.6880   59.4200   79.3060 O   0  0  0  0  0  0  0  0  0  0  0  0
   -1.5140   60.3280   80.0400 C   0  0  1  0  0  0  0  0  0  0  0  0
   -1.6400   61.6810   79.2970 C   0  0  1  0  0  0  0  0  0  0  0  0
   -1.3080   61.5570   77.7970 C   0  0  1  0  0  0  0  0  0  0  0  0
   -1.8530   60.2340   77.2630 C   0  0  1  0  0  0  0  0  0  0  0  0
   -2.9420   62.2640   79.4790 O   0  0  0  0  0  0  0  0  0  0  0  0
   -1.6120   60.1470   75.8500 O   0  0  0  0  0  0  0  0  0  0  0  0
   -1.9200   62.6240   77.0410 O   0  0  0  0  0  0  0  0  0  0  0  0
   -3.3510   62.5520   76.9970 C   0  0  2  0  0  0  0  0  0  0  0  0
   -3.7260   61.7850   75.8520 O   0  0  0  0  0  0  0  0  0  0  0  0
   -5.1500   61.6850   75.6950 C   0  0  1  0  0  0  0  0  0  0  0  0
   -5.7430   63.0820   75.4520 C   0  0  2  0  0  0  0  0  0  0  0  0
   -5.4000   63.9740   76.6480 C   0  0  1  0  0  0  0  0  0  0  0  0
   -3.8930   63.9940   76.9000 C   0  0  1  0  0  0  0  0  0  0  0  0
   -7.1660   63.0490   75.3140 O   0  0  0  0  0  0  0  0  0  0  0  0
   -5.8550   65.3160   76.4110 O   0  0  0  0  0  0  0  0  0  0  0  0
   -3.6380   64.7260   78.1080 O   0  0  0  0  0  0  0  0  0  0  0  0
   -5.4230   60.7280   74.5310 C   0  0  0  0  0  0  0  0  0  0  0  0
   -4.5500   59.6020   74.5920 O   0  0  0  0  0  0  0  0  0  0  0  0
   -2.8470   59.6960   80.4820 C   0  0  0  0  0  0  0  0  0  0  0  0
   -2.6950   58.3070   80.7700 O   0  0  0  0  0  0  0  0  0  0  0  0
   -1.4810   53.2370   75.6650 C   0  0  0  0  0  0  0  0  0  0  0  0
   -2.3960   52.6280   74.7470 O   0  0  0  0  0  0  0  0  0  0  0  0
    0.0040   55.9340   76.2020 O   0  0  0  0  0  0  0  0  0  0  0  0
    2.1530   55.2850   75.2040 C   0  0  1  0  0  0  0  0  0  0  0  0
    2.5030   56.6750   75.0490 O   0  0  0  0  0  0  0  0  0  0  0  0
    3.1500   57.2140   76.1990 C   0  0  2  0  0  0  0  0  0  0  0  0
    2.3020   57.0520   77.4790 C   0  0  1  0  0  0  0  0  0  0  0  0
    1.8860   55.5890   77.6430 C   0  0  2  0  0  0  0  0  0  0  0  0
    1.1650   55.1020   76.3760 C   0  0  1  0  0  0  0  0  0  0  0  0
    1.0460   55.4300   78.7940 O   0  0  0  0  0  0  0  0  0  0  0  0
    3.0440   57.4600   78.6430 O   0  0  0  0  0  0  0  0  0  0  0  0
    3.3660   58.6220   76.0310 O   0  0  0  0  0  0  0  0  0  0  0  0
    2.8540   59.1550   74.7990 C   0  0  2  0  0  0  0  0  0  0  0  0
    3.7440   60.3420   74.4260 C   0  0  0  0  0  0  0  0  0  0  0  0
    3.1820   61.1140   73.2270 C   0  0  2  0  0  0  0  0  0  0  0  0
    4.1430   62.2210   72.7780 C   0  0  0  0  0  0  0  0  0  0  0  0
    3.6440   62.8990   71.5040 C   0  0  0  0  0  0  0  0  0  0  0  0
    2.2120   63.4330   71.6510 C   0  0  2  0  0  0  0  0  0  0  0  0
    1.2410   62.3040   72.1340 C   0  0  1  0  0  0  0  0  0  0  0  0
    1.7340   61.6420   73.4740 C   0  0  1  0  0  0  0  0  0  0  0  0
    0.8480   60.4220   73.8400 C   0  0  0  0  0  0  0  0  0  0  0  0
    1.3850   59.5880   75.0080 C   0  0  1  0  0  0  0  0  0  0  0  0
    1.6750   62.6570   74.6450 C   0  0  0  0  0  0  0  0  0  0  0  0
   -0.2440   62.7610   72.1490 C   0  0  0  0  0  0  0  0  0  0  0  0
   -0.6890   63.4730   70.8550 C   0  0  0  0  0  0  0  0  0  0  0  0
    0.2640   64.6220   70.4750 C   0  0  1  0  0  0  0  0  0  0  0  0
    1.6780   63.9880   70.3260 C   0  0  1  0  0  0  0  0  0  0  0  0
    2.4740   65.0290   69.5410 C   0  0  1  0  0  0  0  0  0  0  0  0
    1.4520   65.4270   68.4660 C   0  0  1  0  0  0  0  0  0  0  0  0
    0.0390   65.1790   69.0370 C   0  0  2  0  0  0  0  0  0  0  0  0
   -0.6570   66.5310   68.8290 C   0  0  1  0  0  0  0  0  0  0  0  0
    0.1880   67.1770   67.7130 C   0  0  2  0  0  0  0  0  0  0  0  0
    1.5360   66.8000   68.0760 O   0  0  0  0  0  0  0  0  0  0  0  0
    0.1030   68.7140   67.6840 C   0  0  0  0  0  0  0  0  0  0  0  0
   -0.8260   69.2130   66.5840 C   0  0  0  0  0  0  0  0  0  0  0  0
   -0.4170   68.6520   65.2140 C   0  0  2  0  0  0  0  0  0  0  0  0
    0.3550   67.3350   65.3530 C   0  0  0  0  0  0  0  0  0  0  0  0
   -0.1540   66.5900   66.4530 O   0  0  0  0  0  0  0  0  0  0  0  0
    0.3920   69.6600   64.4010 C   0  0  0  0  0  0  0  0  0  0  0  0
   -2.1420   66.3760   68.5320 C   0  0  0  0  0  0  0  0  0  0  0  0
    0.1550   65.7190   71.5620 C   0  0  0  0  0  0  0  0  0  0  0  0
    2.8620   66.1340   70.3430 O   0  0  0  0  0  0  0  0  0  0  0  0
    0.5230   58.4490   75.1440 O   0  0  0  0  0  0  0  0  0  0  0  0
    1.6140   54.7680   73.8710 C   0  0  0  0  0  0  0  0  0  0  0  0
    1.7180   53.3510   73.8100 O   0  0  0  0  0  0  0  0  0  0  0  0
   -0.3110   56.3604   78.2016 H   0  0  0  0  0  0  0  0  0  0  0  0
   -2.8681   53.3794   77.2640 H   0  0  0  0  0  0  0  0  0  0  0  0
   -4.1911   54.5642   75.9618 H   0  0  0  0  0  0  0  0  0  0  0  0
   -3.6972   56.0485   77.9575 H   0  0  0  0  0  0  0  0  0  0  0  0
   -1.7678   57.5413   76.1098 H   0  0  0  0  0  0  0  0  0  0  0  0
   -2.1034   56.1677   74.8113 H   0  0  0  0  0  0  0  0  0  0  0  0
   -6.1062   56.1190   75.9971 H   0  0  0  0  0  0  0  0  0  0  0  0
   -5.2656   59.1181   77.8380 H   0  0  0  0  0  0  0  0  0  0  0  0
   -6.8269   59.9064   77.4253 H   0  0  0  0  0  0  0  0  0  0  0  0
   -6.4005   58.6822   79.7571 H   0  0  0  0  0  0  0  0  0  0  0  0
   -7.8267   56.4460   78.2826 H   0  0  0  0  0  0  0  0  0  0  0  0
   -4.7820   56.6788   78.6176 H   0  0  0  0  0  0  0  0  0  0  0  0
   -5.6588   54.5542   79.0522 H   0  0  0  0  0  0  0  0  0  0  0  0
   -6.9320   56.9824   80.8247 H   0  0  0  0  0  0  0  0  0  0  0  0
   -8.5963   58.7941   79.9673 H   0  0  0  0  0  0  0  0  0  0  0  0
   -0.3154   58.7594   77.4048 H   0  0  0  0  0  0  0  0  0  0  0  0
   -1.0155   60.5596   80.9928 H   0  0  0  0  0  0  0  0  0  0  0  0
   -0.8944   62.3533   79.7465 H   0  0  0  0  0  0  0  0  0  0  0  0
   -0.2147   61.6084   77.6873 H   0  0  0  0  0  0  0  0  0  0  0  0
   -2.9385   60.1825   77.4334 H   0  0  0  0  0  0  0  0  0  0  0  0
   -3.1330   62.3495   80.4466 H   0  0  0  0  0  0  0  0  0  0  0  0
   -0.6928   59.8152   75.6918 H   0  0  0  0  0  0  0  0  0  0  0  0
   -3.7651   62.0702   77.8950 H   0  0  0  0  0  0  0  0  0  0  0  0
   -5.6294   61.2884   76.6021 H   0  0  0  0  0  0  0  0  0  0  0  0
   -5.3152   63.4700   74.5158 H   0  0  0  0  0  0  0  0  0  0  0  0
   -5.9050   63.5608   77.5336 H   0  0  0  0  0  0  0  0  0  0  0  0
   -3.3761   64.4882   76.0642 H   0  0  0  0  0  0  0  0  0  0  0  0
   -7.5844   63.0393   76.2112 H   0  0  0  0  0  0  0  0  0  0  0  0
   -6.0089   65.7701   77.2772 H   0  0  0  0  0  0  0  0  0  0  0  0
   -3.8378   64.1525   78.8898 H   0  0  0  0  0  0  0  0  0  0  0  0
   -6.4653   60.3807   74.5853 H   0  0  0  0  0  0  0  0  0  0  0  0
   -5.2485   61.2613   73.5849 H   0  0  0  0  0  0  0  0  0  0  0  0
   -4.3725   59.3730   75.5386 H   0  0  0  0  0  0  0  0  0  0  0  0
   -3.2053   60.2116   81.3852 H   0  0  0  0  0  0  0  0  0  0  0  0
   -3.5695   59.8017   79.6593 H   0  0  0  0  0  0  0  0  0  0  0  0
   -2.6803   58.1730   81.7508 H   0  0  0  0  0  0  0  0  0  0  0  0
   -0.7851   53.8823   75.1088 H   0  0  0  0  0  0  0  0  0  0  0  0
   -0.9251   52.4473   76.1916 H   0  0  0  0  0  0  0  0  0  0  0  0
   -3.1049   52.1562   75.2518 H   0  0  0  0  0  0  0  0  0  0  0  0
    3.0383   54.6863   75.4645 H   0  0  0  0  0  0  0  0  0  0  0  0
    4.0952   56.6613   76.3042 H   0  0  0  0  0  0  0  0  0  0  0  0
    1.4113   57.6901   77.3815 H   0  0  0  0  0  0  0  0  0  0  0  0
    2.7894   54.9792   77.7916 H   0  0  0  0  0  0  0  0  0  0  0  0
    0.8511   54.0493   76.4339 H   0  0  0  0  0  0  0  0  0  0  0  0
    1.5889   55.5328   79.6155 H   0  0  0  0  0  0  0  0  0  0  0  0
    2.5527   57.1899   79.4589 H   0  0  0  0  0  0  0  0  0  0  0  0
    2.8672   58.4126   73.9874 H   0  0  0  0  0  0  0  0  0  0  0  0
    3.8121   61.0218   75.2881 H   0  0  0  0  0  0  0  0  0  0  0  0
    4.7364   59.9550   74.1514 H   0  0  0  0  0  0  0  0  0  0  0  0
    3.0975   60.3991   72.3953 H   0  0  0  0  0  0  0  0  0  0  0  0
    4.2236   62.9727   73.5771 H   0  0  0  0  0  0  0  0  0  0  0  0
    5.1245   61.7691   72.5718 H   0  0  0  0  0  0  0  0  0  0  0  0
    4.3123   63.7395   71.2655 H   0  0  0  0  0  0  0  0  0  0  0  0
    3.6421   62.1471   70.7011 H   0  0  0  0  0  0  0  0  0  0  0  0
    2.2532   64.2411   72.3962 H   0  0  0  0  0  0  0  0  0  0  0  0
    1.2711   61.4985   71.3855 H   0  0  0  0  0  0  0  0  0  0  0  0
   -0.1529   60.7902   74.1096 H   0  0  0  0  0  0  0  0  0  0  0  0
    0.8348   59.7634   72.9591 H   0  0  0  0  0  0  0  0  0  0  0  0
    1.3859   60.1939   75.9261 H   0  0  0  0  0  0  0  0  0  0  0  0
    1.7065   62.1152   75.6018 H   0  0  0  0  0  0  0  0  0  0  0  0
    2.5350   63.3400   74.5819 H   0  0  0  0  0  0  0  0  0  0  0  0
    0.7417   63.2358   74.5819 H   0  0  0  0  0  0  0  0  0  0  0  0
   -0.8785   61.8740   72.2926 H   0  0  0  0  0  0  0  0  0  0  0  0
   -0.3471   63.4890   72.9671 H   0  0  0  0  0  0  0  0  0  0  0  0
   -0.7079   62.7406   70.0345 H   0  0  0  0  0  0  0  0  0  0  0  0
   -1.6875   63.9011   71.0274 H   0  0  0  0  0  0  0  0  0  0  0  0
    1.7280   63.0517   69.7508 H   0  0  0  0  0  0  0  0  0  0  0  0
    3.4299   64.6562   69.1444 H   0  0  0  0  0  0  0  0  0  0  0  0
    1.6659   64.8214   67.5730 H   0  0  0  0  0  0  0  0  0  0  0  0
   -0.6245   64.4300   68.5800 H   0  0  0  0  0  0  0  0  0  0  0  0
   -0.6867   67.1732   69.7216 H   0  0  0  0  0  0  0  0  0  0  0  0
   -0.2742   69.0673   68.6550 H   0  0  0  0  0  0  0  0  0  0  0  0
    1.1106   69.1066   67.4822 H   0  0  0  0  0  0  0  0  0  0  0  0
   -1.8539   68.8933   66.8102 H   0  0  0  0  0  0  0  0  0  0  0  0
   -0.7607   70.3103   66.5444 H   0  0  0  0  0  0  0  0  0  0  0  0
   -1.3495   68.4499   64.6667 H   0  0  0  0  0  0  0  0  0  0  0  0
    0.2421   66.7467   64.4304 H   0  0  0  0  0  0  0  0  0  0  0  0
    1.4189   67.5549   65.5254 H   0  0  0  0  0  0  0  0  0  0  0  0
    0.9319   70.3327   65.0836 H   0  0  0  0  0  0  0  0  0  0  0  0
    1.1139   69.1246   63.7668 H   0  0  0  0  0  0  0  0  0  0  0  0
   -0.2870   70.2489   63.7668 H   0  0  0  0  0  0  0  0  0  0  0  0
   -2.7009   66.3177   69.4776 H   0  0  0  0  0  0  0  0  0  0  0  0
   -2.4923   67.2425   67.9519 H   0  0  0  0  0  0  0  0  0  0  0  0
   -2.3058   65.4559   67.9519 H   0  0  0  0  0  0  0  0  0  0  0  0
    0.2012   65.2542   72.5579 H   0  0  0  0  0  0  0  0  0  0  0  0
    0.9869   66.4299   71.4502 H   0  0  0  0  0  0  0  0  0  0  0  0
   -0.8006   66.2523   71.4502 H   0  0  0  0  0  0  0  0  0  0  0  0
    2.7775   65.8933   71.2996 H   0  0  0  0  0  0  0  0  0  0  0  0
    0.3781   58.2576   76.1045 H   0  0  0  0  0  0  0  0  0  0  0  0
    0.5579   55.0585   73.7699 H   0  0  0  0  0  0  0  0  0  0  0  0
    2.2062   55.2047   73.0533 H   0  0  0  0  0  0  0  0  0  0  0  0
    1.7451   52.9823   74.7284 H   0  0  0  0  0  0  0  0  0  0  0  0
  2  1  1  0
  3  2  1  0
  4  3  1  0
  5  4  1  0
  6  5  1  0
  6  1  1  0
  7  4  1  0
  8  5  1  0
  9  8  1  0
 10  9  1  0
 11 10  1  0
 12 11  1  0
 13 12  1  0
 14 13  1  0
 14  9  1  0
 15 14  1  0
 16 13  1  0
 17 12  1  0
 18  6  1  0
 19 18  1  0
 20 19  1  0
 21 20  1  0
 22 21  1  0
 23 22  1  0
 24 19  1  0
 24 23  1  0
 25 22  1  0
 26 24  1  0
 27 23  1  0
 28 27  1  0
 29 28  1  0
 30 29  1  0
 31 30  1  0
 32 31  1  0
 33 32  1  0
 33 28  1  0
 34 31  1  0
 35 32  1  0
 36 33  1  0
 37 30  1  0
 38 37  1  0
 39 21  1  0
 40 39  1  0
 41  3  1  0
 42 41  1  0
 43  1  1  0
 45 44  1  0
 46 45  1  0
 47 46  1  0
 48 47  1  0
 49 48  1  0
 49 44  1  0
 49 43  1  0
 50 48  1  0
 51 47  1  0
 52 46  1  0
 53 52  1  0
 54 53  1  0
 55 54  1  0
 56 55  1  0
 57 56  1  0
 58 57  1  0
 59 58  1  0
 60 59  1  0
 60 55  1  0
 61 60  1  0
 62 61  1  0
 62 53  1  0
 60 63  1  1
 64 59  1  0
 65 64  1  0
 66 65  1  0
 67 66  1  0
 67 58  1  0
 68 67  1  0
 69 68  1  0
 70 69  1  0
 70 66  1  0
 71 70  1  0
 72 71  1  0
 73 69  1  0
 72 73  1  1
 74 72  1  0
 75 74  1  0
 76 75  1  0
 77 76  1  0
 78 77  1  0
 78 72  1  0
 79 76  1  0
 80 71  1  0
 66 81  1  1
 82 68  1  0
 83 62  1  0
 84 44  1  0
 85 84  1  0
  1 86  1  1
  3 87  1  1
  4 88  1  6
  5 89  1  1
  6 90  1  6
  7 91  1  0
  9 92  1  6
 11 93  1  0
 11 94  1  0
 12 95  1  1
 13 96  1  6
 14 97  1  1
 15 98  1  0
 16 99  1  0
 17100  1  0
 19101  1  6
 21102  1  1
 22103  1  1
 23104  1  1
 24105  1  6
 25106  1  0
 26107  1  0
 28108  1  1
 30109  1  1
 31110  1  6
 32111  1  1
 33112  1  6
 34113  1  0
 35114  1  0
 36115  1  0
 37116  1  0
 37117  1  0
 38118  1  0
 39119  1  0
 39120  1  0
 40121  1  0
 41122  1  0
 41123  1  0
 42124  1  0
 44125  1  1
 46126  1  1
 47127  1  6
 48128  1  1
 49129  1  1
 50130  1  0
 51131  1  0
 53132  1  6
 54133  1  0
 54134  1  0
 55135  1  6
 56136  1  0
 56137  1  0
 57138  1  0
 57139  1  0
 58140  1  1
 59141  1  6
 61142  1  0
 61143  1  0
 62144  1  1
 63145  1  0
 63146  1  0
 63147  1  0
 64148  1  0
 64149  1  0
 65150  1  0
 65151  1  0
 67152  1  6
 68153  1  6
 69154  1  6
 70155  1  6
 71156  1  1
 74157  1  0
 74158  1  0
 75159  1  0
 75160  1  0
 76161  1  6
 77162  1  0
 77163  1  0
 79164  1  0
 79165  1  0
 79166  1  0
 80167  1  0
 80168  1  0
 80169  1  0
 81170  1  0
 81171  1  0
 81172  1  0
 82173  1  0
 83174  1  0
 84175  1  0
 84176  1  0
 85177  1  0
M  END
>  <score>  (7) 
-4.015

$$$$
=
     RDKit          3D

177187  0  0  0  0  0  0  0  0999 V2000
    2.6110   64.5920   70.1170 C   0  0  2  0  0  0  0  0  0  0  0  0
    2.1250   65.0070   71.3950 O   0  0  0  0  0  0  0  0  0  0  0  0
    0.7390   64.7290   71.6770 C   0  0  1  0  0  0  0  0  0  0  0  0
   -0.1740   64.9470   70.4600 C   0  0  1  0  0  0  0  0  0  0  0  0
    0.5120   65.8670   69.4510 C   0  0  1  0  0  0  0  0  0  0  0  0
    1.7970   65.1990   68.9380 C   0  0  1  0  0  0  0  0  0  0  0  0
   -0.5270   63.7130   69.8170 O   0  0  0  0  0  0  0  0  0  0  0  0
   -0.4200   66.0510   68.3590 O   0  0  0  0  0  0  0  0  0  0  0  0
   -1.2420   67.2120   68.5260 C   0  0  2  0  0  0  0  0  0  0  0  0
   -2.6250   66.8600   68.3300 O   0  0  0  0  0  0  0  0  0  0  0  0
   -2.9680   66.7660   66.9470 C   0  0  0  0  0  0  0  0  0  0  0  0
   -2.9660   68.1630   66.3210 C   0  0  2  0  0  0  0  0  0  0  0  0
   -1.9760   69.0940   67.0320 C   0  0  1  0  0  0  0  0  0  0  0  0
   -0.7690   68.3080   67.5350 C   0  0  1  0  0  0  0  0  0  0  0  0
    0.1550   69.2190   68.1530 O   0  0  0  0  0  0  0  0  0  0  0  0
   -1.5380   70.1300   66.1370 O   0  0  0  0  0  0  0  0  0  0  0  0
   -4.2680   68.7630   66.4060 O   0  0  0  0  0  0  0  0  0  0  0  0
    2.5710   66.2150   68.2620 O   0  0  0  0  0  0  0  0  0  0  0  0
    1.9280   66.7000   67.0780 C   0  0  2  0  0  0  0  0  0  0  0  0
    1.5850   65.5920   66.2380 O   0  0  0  0  0  0  0  0  0  0  0  0
    2.6300   65.1380   65.3740 C   0  0  1  0  0  0  0  0  0  0  0  0
    3.0440   66.2490   64.3780 C   0  0  1  0  0  0  0  0  0  0  0  0
    2.6330   67.6530   64.8660 C   0  0  1  0  0  0  0  0  0  0  0  0
    2.8280   67.7430   66.3780 C   0  0  1  0  0  0  0  0  0  0  0  0
    4.4530   66.2060   64.0940 O   0  0  0  0  0  0  0  0  0  0  0  0
    2.5180   69.0720   66.8260 O   0  0  0  0  0  0  0  0  0  0  0  0
    3.4510   68.6730   64.2530 O   0  0  0  0  0  0  0  0  0  0  0  0
    2.8080   69.3520   63.1680 C   0  0  2  0  0  0  0  0  0  0  0  0
    1.4020   69.1170   63.2620 O   0  0  0  0  0  0  0  0  0  0  0  0
    0.6660   69.7280   62.1900 C   0  0  1  0  0  0  0  0  0  0  0  0
    1.0870   69.1020   60.8510 C   0  0  2  0  0  0  0  0  0  0  0  0
    2.5890   69.3230   60.6590 C   0  0  1  0  0  0  0  0  0  0  0  0
    3.3780   68.7830   61.8510 C   0  0  1  0  0  0  0  0  0  0  0  0
    0.4040   69.6920   59.7420 O   0  0  0  0  0  0  0  0  0  0  0  0
    3.0360   68.6670   59.4620 O   0  0  0  0  0  0  0  0  0  0  0  0
    4.7590   69.1380   61.6880 O   0  0  0  0  0  0  0  0  0  0  0  0
   -0.8250   69.5310   62.4810 C   0  0  0  0  0  0  0  0  0  0  0  0
   -1.0080   68.7780   63.6780 O   0  0  0  0  0  0  0  0  0  0  0  0
    3.7910   64.4790   66.1420 C   0  0  0  0  0  0  0  0  0  0  0  0
    4.4500   63.4940   65.3490 O   0  0  0  0  0  0  0  0  0  0  0  0
    0.5390   63.3590   72.3440 C   0  0  0  0  0  0  0  0  0  0  0  0
   -0.8540   63.0350   72.4110 O   0  0  0  0  0  0  0  0  0  0  0  0
    2.6240   63.1720   70.0220 O   0  0  0  0  0  0  0  0  0  0  0  0
    4.9930   62.5220   70.0210 C   0  0  1  0  0  0  0  0  0  0  0  0
    4.7890   61.7690   71.2330 O   0  0  0  0  0  0  0  0  0  0  0  0
    4.3750   60.4270   70.9880 C   0  0  2  0  0  0  0  0  0  0  0  0
    3.0920   60.3560   70.1330 C   0  0  1  0  0  0  0  0  0  0  0  0
    3.2720   61.1810   68.8580 C   0  0  2  0  0  0  0  0  0  0  0  0
    3.6790   62.6190   69.2160 C   0  0  1  0  0  0  0  0  0  0  0  0
    2.0680   61.1770   68.0810 O   0  0  0  0  0  0  0  0  0  0  0  0
    2.7900   58.9960   69.7710 O   0  0  0  0  0  0  0  0  0  0  0  0
    4.0760   59.7670   72.2260 O   0  0  0  0  0  0  0  0  0  0  0  0
    2.6760   59.5210   72.4400 C   0  0  2  0  0  0  0  0  0  0  0  0
    2.2210   60.4850   73.5380 C   0  0  0  0  0  0  0  0  0  0  0  0
    0.7870   60.1870   73.9900 C   0  0  2  0  0  0  0  0  0  0  0  0
    0.2920   61.2340   74.9940 C   0  0  0  0  0  0  0  0  0  0  0  0
   -1.1790   61.0120   75.3410 C   0  0  0  0  0  0  0  0  0  0  0  0
   -1.4500   59.5870   75.8450 C   0  0  2  0  0  0  0  0  0  0  0  0
   -0.9190   58.5230   74.8280 C   0  0  1  0  0  0  0  0  0  0  0  0
    0.6090   58.7260   74.5120 C   0  0  1  0  0  0  0  0  0  0  0  0
    1.0670   57.7670   73.3810 C   0  0  0  0  0  0  0  0  0  0  0  0
    2.4810   58.0470   72.8600 C   0  0  1  0  0  0  0  0  0  0  0  0
    1.4740   58.4460   75.7690 C   0  0  0  0  0  0  0  0  0  0  0  0
   -1.3080   57.0720   75.2250 C   0  0  0  0  0  0  0  0  0  0  0  0
   -2.7940   56.9070   75.6010 C   0  0  0  0  0  0  0  0  0  0  0  0
   -3.2350   57.9330   76.6620 C   0  0  1  0  0  0  0  0  0  0  0  0
   -2.9470   59.3390   76.0590 C   0  0  1  0  0  0  0  0  0  0  0  0
   -3.7790   60.2910   76.9160 C   0  0  1  0  0  0  0  0  0  0  0  0
   -5.0990   59.5140   77.0180 C   0  0  1  0  0  0  0  0  0  0  0  0
   -4.7800   58.0110   76.8620 C   0  0  2  0  0  0  0  0  0  0  0  0
   -5.4330   57.3900   78.1040 C   0  0  1  0  0  0  0  0  0  0  0  0
   -6.4770   58.4520   78.5020 C   0  0  2  0  0  0  0  0  0  0  0  0
   -5.7750   59.6940   78.2650 O   0  0  0  0  0  0  0  0  0  0  0  0
   -6.8820   58.3960   79.9860 C   0  0  0  0  0  0  0  0  0  0  0  0
   -8.2310   57.7150   80.1840 C   0  0  0  0  0  0  0  0  0  0  0  0
   -9.3220   58.3840   79.3340 C   0  0  2  0  0  0  0  0  0  0  0  0
   -8.7270   59.0940   78.1130 C   0  0  0  0  0  0  0  0  0  0  0  0
   -7.6070   58.3630   77.6260 O   0  0  0  0  0  0  0  0  0  0  0  0
  -10.1700   59.3550   80.1520 C   0  0  0  0  0  0  0  0  0  0  0  0
   -5.9740   55.9930   77.8340 C   0  0  0  0  0  0  0  0  0  0  0  0
   -2.4800   57.6230   77.9780 C   0  0  0  0  0  0  0  0  0  0  0  0
   -3.1980   60.5260   78.1890 O   0  0  0  0  0  0  0  0  0  0  0  0
    2.7050   57.1590   71.7550 O   0  0  0  0  0  0  0  0  0  0  0  0
    5.5810   63.8840   70.3880 C   0  0  0  0  0  0  0  0  0  0  0  0
    5.8710   63.9400   71.7790 O   0  0  0  0  0  0  0  0  0  0  0  0
    3.6392   64.9738   70.0328 H   0  0  0  0  0  0  0  0  0  0  0  0
    0.4207   65.4757   72.4193 H   0  0  0  0  0  0  0  0  0  0  0  0
   -1.1008   65.4114   70.8279 H   0  0  0  0  0  0  0  0  0  0  0  0
    0.7839   66.8314   69.9048 H   0  0  0  0  0  0  0  0  0  0  0  0
    1.5521   64.3756   68.2510 H   0  0  0  0  0  0  0  0  0  0  0  0
   -0.7231   63.0274   70.5037 H   0  0  0  0  0  0  0  0  0  0  0  0
   -1.1489   67.6111   69.5468 H   0  0  0  0  0  0  0  0  0  0  0  0
   -2.2327   66.1321   66.4298 H   0  0  0  0  0  0  0  0  0  0  0  0
   -3.9701   66.3232   66.8486 H   0  0  0  0  0  0  0  0  0  0  0  0
   -2.6697   68.0363   65.2693 H   0  0  0  0  0  0  0  0  0  0  0  0
   -2.4880   69.5504   67.8920 H   0  0  0  0  0  0  0  0  0  0  0  0
   -0.2569   67.8078   66.6998 H   0  0  0  0  0  0  0  0  0  0  0  0
    0.0814   69.1464   69.1376 H   0  0  0  0  0  0  0  0  0  0  0  0
   -1.2111   70.9031   66.6619 H   0  0  0  0  0  0  0  0  0  0  0  0
   -4.5170   68.8777   67.3573 H   0  0  0  0  0  0  0  0  0  0  0  0
    0.9907   67.2177   67.3298 H   0  0  0  0  0  0  0  0  0  0  0  0
    2.2381   64.3186   64.7536 H   0  0  0  0  0  0  0  0  0  0  0  0
    2.4977   66.0493   63.4444 H   0  0  0  0  0  0  0  0  0  0  0  0
    1.5794   67.8122   64.5928 H   0  0  0  0  0  0  0  0  0  0  0  0
    3.8759   67.5264   66.6328 H   0  0  0  0  0  0  0  0  0  0  0  0
    4.9606   66.1905   64.9438 H   0  0  0  0  0  0  0  0  0  0  0  0
    2.5129   69.0938   67.8157 H   0  0  0  0  0  0  0  0  0  0  0  0
    2.9869   70.4369   63.2001 H   0  0  0  0  0  0  0  0  0  0  0  0
    0.8757   70.8054   62.1173 H   0  0  0  0  0  0  0  0  0  0  0  0
    0.8320   68.0325   60.8841 H   0  0  0  0  0  0  0  0  0  0  0  0
    2.7637   70.4060   60.5771 H   0  0  0  0  0  0  0  0  0  0  0  0
    3.2913   67.6874   61.8968 H   0  0  0  0  0  0  0  0  0  0  0  0
   -0.3015   70.3014   60.0752 H   0  0  0  0  0  0  0  0  0  0  0  0
    3.5767   67.8735   59.7028 H   0  0  0  0  0  0  0  0  0  0  0  0
    5.1792   69.2460   62.5779 H   0  0  0  0  0  0  0  0  0  0  0  0
   -1.3038   70.5146   62.5960 H   0  0  0  0  0  0  0  0  0  0  0  0
   -1.2800   68.9816   61.6436 H   0  0  0  0  0  0  0  0  0  0  0  0
   -0.8653   69.3651   64.4623 H   0  0  0  0  0  0  0  0  0  0  0  0
    4.5178   65.2545   66.4254 H   0  0  0  0  0  0  0  0  0  0  0  0
    3.3782   63.9845   67.0336 H   0  0  0  0  0  0  0  0  0  0  0  0
    4.8911   62.8346   65.9412 H   0  0  0  0  0  0  0  0  0  0  0  0
    1.0621   62.5901   71.7565 H   0  0  0  0  0  0  0  0  0  0  0  0
    0.9461   63.3965   73.3652 H   0  0  0  0  0  0  0  0  0  0  0  0
   -1.1325   62.9702   73.3588 H   0  0  0  0  0  0  0  0  0  0  0  0
    5.7102   62.0126   69.3606 H   0  0  0  0  0  0  0  0  0  0  0  0
    5.2067   59.9439   70.4542 H   0  0  0  0  0  0  0  0  0  0  0  0
    2.2612   60.7599   70.7301 H   0  0  0  0  0  0  0  0  0  0  0  0
    4.0711   60.7273   68.2533 H   0  0  0  0  0  0  0  0  0  0  0  0
    3.8322   63.2575   68.3334 H   0  0  0  0  0  0  0  0  0  0  0  0
    1.2846   61.1744   68.6863 H   0  0  0  0  0  0  0  0  0  0  0  0
    2.6699   58.4550   70.5914 H   0  0  0  0  0  0  0  0  0  0  0  0
    2.0802   59.6866   71.5303 H   0  0  0  0  0  0  0  0  0  0  0  0
    2.8954   60.3869   74.4015 H   0  0  0  0  0  0  0  0  0  0  0  0
    2.2491   61.5072   73.1325 H   0  0  0  0  0  0  0  0  0  0  0  0
    0.1469   60.2615   73.0985 H   0  0  0  0  0  0  0  0  0  0  0  0
    0.8925   61.1625   75.9129 H   0  0  0  0  0  0  0  0  0  0  0  0
    0.3969   62.2303   74.5397 H   0  0  0  0  0  0  0  0  0  0  0  0
   -1.4690   61.7260   76.1259 H   0  0  0  0  0  0  0  0  0  0  0  0
   -1.7676   61.1623   74.4240 H   0  0  0  0  0  0  0  0  0  0  0  0
   -0.9221   59.4884   76.8050 H   0  0  0  0  0  0  0  0  0  0  0  0
   -1.4364   58.6923   73.8721 H   0  0  0  0  0  0  0  0  0  0  0  0
    1.0385   56.7376   73.7678 H   0  0  0  0  0  0  0  0  0  0  0  0
    0.3803   57.9213   72.5357 H   0  0  0  0  0  0  0  0  0  0  0  0
    3.2129   57.8725   73.6624 H   0  0  0  0  0  0  0  0  0  0  0  0
    0.8790   58.6386   76.6739 H   0  0  0  0  0  0  0  0  0  0  0  0
    1.8016   57.3959   75.7622 H   0  0  0  0  0  0  0  0  0  0  0  0
    2.3548   59.1049   75.7622 H   0  0  0  0  0  0  0  0  0  0  0  0
   -1.0898   56.4094   74.3745 H   0  0  0  0  0  0  0  0  0  0  0  0
   -0.7209   56.8162   76.1194 H   0  0  0  0  0  0  0  0  0  0  0  0
   -3.4067   57.0437   74.6977 H   0  0  0  0  0  0  0  0  0  0  0  0
   -2.9293   55.9003   76.0231 H   0  0  0  0  0  0  0  0  0  0  0  0
   -3.2654   59.4911   75.0171 H   0  0  0  0  0  0  0  0  0  0  0  0
   -3.8779   61.3019   76.4938 H   0  0  0  0  0  0  0  0  0  0  0  0
   -5.7636   59.8959   76.2291 H   0  0  0  0  0  0  0  0  0  0  0  0
   -5.1724   57.4432   76.0055 H   0  0  0  0  0  0  0  0  0  0  0  0
   -4.7406   57.1894   78.9349 H   0  0  0  0  0  0  0  0  0  0  0  0
   -6.1162   57.8356   80.5423 H   0  0  0  0  0  0  0  0  0  0  0  0
   -6.9653   59.4290   80.3548 H   0  0  0  0  0  0  0  0  0  0  0  0
   -8.1457   56.6582   79.8910 H   0  0  0  0  0  0  0  0  0  0  0  0
   -8.5128   57.8026   81.2437 H   0  0  0  0  0  0  0  0  0  0  0  0
   -9.9812   57.5781   78.9790 H   0  0  0  0  0  0  0  0  0  0  0  0
   -9.4896   59.1622   77.3231 H   0  0  0  0  0  0  0  0  0  0  0  0
   -8.4019   60.1038   78.4039 H   0  0  0  0  0  0  0  0  0  0  0  0
  -10.0082   59.1697   81.2241 H   0  0  0  0  0  0  0  0  0  0  0  0
   -9.8799   60.3882   79.9106 H   0  0  0  0  0  0  0  0  0  0  0  0
  -11.2329   59.2067   79.9106 H   0  0  0  0  0  0  0  0  0  0  0  0
   -6.1707   55.4850   78.7896 H   0  0  0  0  0  0  0  0  0  0  0  0
   -6.9086   56.0666   77.2586 H   0  0  0  0  0  0  0  0  0  0  0  0
   -5.2336   55.4179   77.2586 H   0  0  0  0  0  0  0  0  0  0  0  0
   -3.1165   57.8844   78.8362 H   0  0  0  0  0  0  0  0  0  0  0  0
   -2.2347   56.5514   78.0163 H   0  0  0  0  0  0  0  0  0  0  0  0
   -1.5524   58.2131   78.0163 H   0  0  0  0  0  0  0  0  0  0  0  0
   -3.8392   60.2667   78.8973 H   0  0  0  0  0  0  0  0  0  0  0  0
    2.9323   56.2580   72.0965 H   0  0  0  0  0  0  0  0  0  0  0  0
    6.5079   64.0442   69.8177 H   0  0  0  0  0  0  0  0  0  0  0  0
    4.8475   64.6667   70.1446 H   0  0  0  0  0  0  0  0  0  0  0  0
    5.0418   63.7799   72.2957 H   0  0  0  0  0  0  0  0  0  0  0  0
  2  1  1  0
  3  2  1  0
  4  3  1  0
  5  4  1  0
  6  5  1  0
  6  1  1  0
  7  4  1  0
  8  5  1  0
  9  8  1  0
 10  9  1  0
 11 10  1  0
 12 11  1  0
 13 12  1  0
 14 13  1  0
 14  9  1  0
 15 14  1  0
 16 13  1  0
 17 12  1  0
 18  6  1  0
 19 18  1  0
 20 19  1  0
 21 20  1  0
 22 21  1  0
 23 22  1  0
 24 19  1  0
 24 23  1  0
 25 22  1  0
 26 24  1  0
 27 23  1  0
 28 27  1  0
 29 28  1  0
 30 29  1  0
 31 30  1  0
 32 31  1  0
 33 32  1  0
 33 28  1  0
 34 31  1  0
 35 32  1  0
 36 33  1  0
 37 30  1  0
 38 37  1  0
 39 21  1  0
 40 39  1  0
 41  3  1  0
 42 41  1  0
 43  1  1  0
 45 44  1  0
 46 45  1  0
 47 46  1  0
 48 47  1  0
 49 48  1  0
 49 44  1  0
 49 43  1  0
 50 48  1  0
 51 47  1  0
 52 46  1  0
 53 52  1  0
 54 53  1  0
 55 54  1  0
 56 55  1  0
 57 56  1  0
 58 57  1  0
 59 58  1  0
 60 59  1  0
 60 55  1  0
 61 60  1  0
 62 61  1  0
 62 53  1  0
 60 63  1  1
 64 59  1  0
 65 64  1  0
 66 65  1  0
 67 66  1  0
 67 58  1  0
 68 67  1  0
 69 68  1  0
 70 69  1  0
 70 66  1  0
 71 70  1  0
 72 71  1  0
 73 69  1  0
 72 73  1  1
 74 72  1  0
 75 74  1  0
 76 75  1  0
 77 76  1  0
 78 77  1  0
 78 72  1  0
 79 76  1  0
 80 71  1  0
 66 81  1  1
 82 68  1  0
 83 62  1  0
 84 44  1  0
 85 84  1  0
  1 86  1  6
  3 87  1  1
  4 88  1  1
  5 89  1  1
  6 90  1  6
  7 91  1  0
  9 92  1  1
 11 93  1  0
 11 94  1  0
 12 95  1  6
 13 96  1  1
 14 97  1  6
 15 98  1  0
 16 99  1  0
 17100  1  0
 19101  1  1
 21102  1  6
 22103  1  6
 23104  1  1
 24105  1  6
 25106  1  0
 26107  1  0
 28108  1  1
 30109  1  6
 31110  1  1
 32111  1  6
 33112  1  1
 34113  1  0
 35114  1  0
 36115  1  0
 37116  1  0
 37117  1  0
 38118  1  0
 39119  1  0
 39120  1  0
 40121  1  0
 41122  1  0
 41123  1  0
 42124  1  0
 44125  1  6
 46126  1  6
 47127  1  1
 48128  1  6
 49129  1  6
 50130  1  0
 51131  1  0
 53132  1  6
 54133  1  0
 54134  1  0
 55135  1  6
 56136  1  0
 56137  1  0
 57138  1  0
 57139  1  0
 58140  1  1
 59141  1  6
 61142  1  0
 61143  1  0
 62144  1  1
 63145  1  0
 63146  1  0
 63147  1  0
 64148  1  0
 64149  1  0
 65150  1  0
 65151  1  0
 67152  1  6
 68153  1  6
 69154  1  6
 70155  1  6
 71156  1  1
 74157  1  0
 74158  1  0
 75159  1  0
 75160  1  0
 76161  1  6
 77162  1  0
 77163  1  0
 79164  1  0
 79165  1  0
 79166  1  0
 80167  1  0
 80168  1  0
 80169  1  0
 81170  1  0
 81171  1  0
 81172  1  0
 82173  1  0
 83174  1  0
 84175  1  0
 84176  1  0
 85177  1  0
M  END
>  <score>  (8) 
-3.217

$$$$
=
     RDKit          3D

177187  0  0  0  0  0  0  0  0999 V2000
    2.0660   57.2080   78.3920 C   0  0  2  0  0  0  0  0  0  0  0  0
    3.1120   56.2470   78.2380 O   0  0  0  0  0  0  0  0  0  0  0  0
    3.9240   56.3660   77.0520 C   0  0  1  0  0  0  0  0  0  0  0  0
    3.1090   56.7410   75.8040 C   0  0  1  0  0  0  0  0  0  0  0  0
    1.6360   56.3930   76.0190 C   0  0  1  0  0  0  0  0  0  0  0  0
    1.0790   57.2210   77.1880 C   0  0  1  0  0  0  0  0  0  0  0  0
    3.2280   58.1340   75.4750 O   0  0  0  0  0  0  0  0  0  0  0  0
    0.9470   56.7410   74.7950 O   0  0  0  0  0  0  0  0  0  0  0  0
    0.6680   55.5990   73.9760 C   0  0  2  0  0  0  0  0  0  0  0  0
   -0.7560   55.4300   73.8480 O   0  0  0  0  0  0  0  0  0  0  0  0
   -1.3310   54.7990   74.9930 C   0  0  0  0  0  0  0  0  0  0  0  0
   -0.9000   53.3310   75.0420 C   0  0  2  0  0  0  0  0  0  0  0  0
    0.4730   53.1280   74.3870 C   0  0  1  0  0  0  0  0  0  0  0  0
    1.3540   54.3550   74.6000 C   0  0  1  0  0  0  0  0  0  0  0  0
    2.6430   54.1100   74.0140 O   0  0  0  0  0  0  0  0  0  0  0  0
    1.1190   51.9690   74.9370 O   0  0  0  0  0  0  0  0  0  0  0  0
   -1.8420   52.4980   74.3480 O   0  0  0  0  0  0  0  0  0  0  0  0
   -0.1850   56.6330   77.5680 O   0  0  0  0  0  0  0  0  0  0  0  0
   -1.2500   57.5890   77.5990 C   0  0  2  0  0  0  0  0  0  0  0  0
   -2.0230   57.3990   78.7900 O   0  0  0  0  0  0  0  0  0  0  0  0
   -3.0450   56.4020   78.6980 C   0  0  1  0  0  0  0  0  0  0  0  0
   -4.0950   56.7860   77.6260 C   0  0  1  0  0  0  0  0  0  0  0  0
   -3.5470   57.8110   76.6140 C   0  0  1  0  0  0  0  0  0  0  0  0
   -2.0870   57.4910   76.3040 C   0  0  1  0  0  0  0  0  0  0  0  0
   -4.6020   55.6250   76.9440 O   0  0  0  0  0  0  0  0  0  0  0  0
   -1.5950   58.3980   75.3050 O   0  0  0  0  0  0  0  0  0  0  0  0
   -4.2840   57.7580   75.3730 O   0  0  0  0  0  0  0  0  0  0  0  0
   -4.6670   59.0450   74.8730 C   0  0  2  0  0  0  0  0  0  0  0  0
   -4.2410   60.0340   75.8120 O   0  0  0  0  0  0  0  0  0  0  0  0
   -4.6130   61.3650   75.4190 C   0  0  1  0  0  0  0  0  0  0  0  0
   -6.1440   61.4840   75.3800 C   0  0  2  0  0  0  0  0  0  0  0  0
   -6.6890   60.4620   74.3790 C   0  0  1  0  0  0  0  0  0  0  0  0
   -6.2020   59.0540   74.7160 C   0  0  1  0  0  0  0  0  0  0  0  0
   -6.5740   62.7840   74.9680 O   0  0  0  0  0  0  0  0  0  0  0  0
   -8.1250   60.4790   74.3870 O   0  0  0  0  0  0  0  0  0  0  0  0
   -6.6220   58.1600   73.6750 O   0  0  0  0  0  0  0  0  0  0  0  0
   -3.9800   62.3370   76.4200 C   0  0  0  0  0  0  0  0  0  0  0  0
   -3.9590   63.6610   75.8900 O   0  0  0  0  0  0  0  0  0  0  0  0
   -2.4740   54.9760   78.5760 C   0  0  0  0  0  0  0  0  0  0  0  0
   -3.3790   54.0060   79.0970 O   0  0  0  0  0  0  0  0  0  0  0  0
    5.1490   57.2690   77.2670 C   0  0  0  0  0  0  0  0  0  0  0  0
    5.5690   57.2240   78.6340 O   0  0  0  0  0  0  0  0  0  0  0  0
    2.6060   58.5090   78.5950 O   0  0  0  0  0  0  0  0  0  0  0  0
    2.9260   60.4770   80.0300 C   0  0  1  0  0  0  0  0  0  0  0  0
    2.0170   61.2310   79.2040 O   0  0  0  0  0  0  0  0  0  0  0  0
    0.6580   61.0990   79.6140 C   0  0  2  0  0  0  0  0  0  0  0  0
    0.1970   59.6260   79.6500 C   0  0  1  0  0  0  0  0  0  0  0  0
    1.1710   58.7990   80.4920 C   0  0  2  0  0  0  0  0  0  0  0  0
    2.6020   58.9690   79.9590 C   0  0  1  0  0  0  0  0  0  0  0  0
    0.7920   57.4160   80.4870 O   0  0  0  0  0  0  0  0  0  0  0  0
   -1.1210   59.5130   80.2170 O   0  0  0  0  0  0  0  0  0  0  0  0
   -0.2060   61.7720   78.6870 O   0  0  0  0  0  0  0  0  0  0  0  0
    0.4810   62.4270   77.6080 C   0  0  2  0  0  0  0  0  0  0  0  0
   -0.5320   63.3610   76.9420 C   0  0  0  0  0  0  0  0  0  0  0  0
    0.0300   63.9750   75.6550 C   0  0  2  0  0  0  0  0  0  0  0  0
   -0.9360   65.0070   75.0630 C   0  0  0  0  0  0  0  0  0  0  0  0
   -0.3180   65.7140   73.8580 C   0  0  0  0  0  0  0  0  0  0  0  0
    0.1620   64.7250   72.7870 C   0  0  2  0  0  0  0  0  0  0  0  0
    1.1290   63.6580   73.4030 C   0  0  1  0  0  0  0  0  0  0  0  0
    0.4680   62.8990   74.6130 C   0  0  1  0  0  0  0  0  0  0  0  0
    1.5000   61.9700   75.3060 C   0  0  0  0  0  0  0  0  0  0  0  0
    1.0060   61.3600   76.6220 C   0  0  1  0  0  0  0  0  0  0  0  0
   -0.7250   62.0310   74.1350 C   0  0  0  0  0  0  0  0  0  0  0  0
    1.7580   62.7310   72.3260 C   0  0  0  0  0  0  0  0  0  0  0  0
    2.3350   63.4890   71.1130 C   0  0  0  0  0  0  0  0  0  0  0  0
    1.3110   64.4660   70.5060 C   0  0  1  0  0  0  0  0  0  0  0  0
    0.9010   65.4390   71.6490 C   0  0  1  0  0  0  0  0  0  0  0  0
    0.2570   66.6190   70.9240 C   0  0  1  0  0  0  0  0  0  0  0  0
    1.2420   66.8200   69.7640 C   0  0  1  0  0  0  0  0  0  0  0  0
    1.9240   65.4640   69.4770 C   0  0  2  0  0  0  0  0  0  0  0  0
    1.6870   65.2720   67.9740 C   0  0  1  0  0  0  0  0  0  0  0  0
    1.4220   66.7110   67.4870 C   0  0  2  0  0  0  0  0  0  0  0  0
    0.6220   67.2660   68.5560 O   0  0  0  0  0  0  0  0  0  0  0  0
    0.6100   66.7830   66.1810 C   0  0  0  0  0  0  0  0  0  0  0  0
    1.4960   67.0690   64.9750 C   0  0  0  0  0  0  0  0  0  0  0  0
    2.3280   68.3430   65.1850 C   0  0  2  0  0  0  0  0  0  0  0  0
    2.5360   68.6400   66.6740 C   0  0  0  0  0  0  0  0  0  0  0  0
    2.6630   67.4200   67.3960 O   0  0  0  0  0  0  0  0  0  0  0  0
    1.7100   69.5510   64.4830 C   0  0  0  0  0  0  0  0  0  0  0  0
    2.8390   64.5420   67.2970 C   0  0  0  0  0  0  0  0  0  0  0  0
    0.1480   63.6360   69.9090 C   0  0  0  0  0  0  0  0  0  0  0  0
   -1.0540   66.3260   70.4660 O   0  0  0  0  0  0  0  0  0  0  0  0
    2.1050   60.6290   77.1860 O   0  0  0  0  0  0  0  0  0  0  0  0
    4.3570   60.8100   79.6070 C   0  0  0  0  0  0  0  0  0  0  0  0
    5.1940   59.6690   79.7480 O   0  0  0  0  0  0  0  0  0  0  0  0
    1.4914   56.9073   79.2805 H   0  0  0  0  0  0  0  0  0  0  0  0
    4.3217   55.3604   76.8503 H   0  0  0  0  0  0  0  0  0  0  0  0
    3.5165   56.1615   74.9625 H   0  0  0  0  0  0  0  0  0  0  0  0
    1.5037   55.3275   76.2581 H   0  0  0  0  0  0  0  0  0  0  0  0
    0.9453   58.2699   76.8848 H   0  0  0  0  0  0  0  0  0  0  0  0
    3.2735   58.6671   76.3080 H   0  0  0  0  0  0  0  0  0  0  0  0
    1.0715   55.7388   72.9623 H   0  0  0  0  0  0  0  0  0  0  0  0
   -0.9884   55.3116   75.9040 H   0  0  0  0  0  0  0  0  0  0  0  0
   -2.4277   54.8554   74.9286 H   0  0  0  0  0  0  0  0  0  0  0  0
   -0.8517   53.0525   76.1051 H   0  0  0  0  0  0  0  0  0  0  0  0
    0.3221   52.9805   73.3074 H   0  0  0  0  0  0  0  0  0  0  0  0
    1.4926   54.5507   75.6735 H   0  0  0  0  0  0  0  0  0  0  0  0
    3.3129   53.9827   74.7317 H   0  0  0  0  0  0  0  0  0  0  0  0
    1.0934   52.0149   75.9256 H   0  0  0  0  0  0  0  0  0  0  0  0
   -2.3963   52.0078   75.0057 H   0  0  0  0  0  0  0  0  0  0  0  0
   -0.8501   58.6132   77.6327 H   0  0  0  0  0  0  0  0  0  0  0  0
   -3.5937   56.3759   79.6510 H   0  0  0  0  0  0  0  0  0  0  0  0
   -4.9284   57.2629   78.1627 H   0  0  0  0  0  0  0  0  0  0  0  0
   -3.6465   58.8118   77.0594 H   0  0  0  0  0  0  0  0  0  0  0  0
   -2.0053   56.4663   75.9124 H   0  0  0  0  0  0  0  0  0  0  0  0
   -4.8953   54.9533   77.6094 H   0  0  0  0  0  0  0  0  0  0  0  0
   -1.1724   59.1771   75.7461 H   0  0  0  0  0  0  0  0  0  0  0  0
   -4.2044   59.2607   73.8986 H   0  0  0  0  0  0  0  0  0  0  0  0
   -4.2493   61.6053   74.4091 H   0  0  0  0  0  0  0  0  0  0  0  0
   -6.5212   61.3019   76.3971 H   0  0  0  0  0  0  0  0  0  0  0  0
   -6.3200   60.7371   73.3799 H   0  0  0  0  0  0  0  0  0  0  0  0
   -6.6356   58.7226   75.6711 H   0  0  0  0  0  0  0  0  0  0  0  0
   -6.7577   63.3393   75.7667 H   0  0  0  0  0  0  0  0  0  0  0  0
   -8.4498   60.4828   75.3222 H   0  0  0  0  0  0  0  0  0  0  0  0
   -7.0065   57.3416   74.0781 H   0  0  0  0  0  0  0  0  0  0  0  0
   -4.5659   62.3296   77.3509 H   0  0  0  0  0  0  0  0  0  0  0  0
   -2.9461   62.0181   76.6183 H   0  0  0  0  0  0  0  0  0  0  0  0
   -3.9486   64.3141   76.6339 H   0  0  0  0  0  0  0  0  0  0  0  0
   -2.2855   54.7558   77.5149 H   0  0  0  0  0  0  0  0  0  0  0  0
   -1.5414   54.9261   79.1573 H   0  0  0  0  0  0  0  0  0  0  0  0
   -3.3558   54.0309   80.0864 H   0  0  0  0  0  0  0  0  0  0  0  0
    5.9715   56.9230   76.6237 H   0  0  0  0  0  0  0  0  0  0  0  0
    4.8782   58.3040   77.0112 H   0  0  0  0  0  0  0  0  0  0  0  0
    4.7792   57.3086   79.2248 H   0  0  0  0  0  0  0  0  0  0  0  0
    2.8133   60.7554   81.0882 H   0  0  0  0  0  0  0  0  0  0  0  0
    0.5998   61.5339   80.6227 H   0  0  0  0  0  0  0  0  0  0  0  0
    0.1753   59.2499   78.6165 H   0  0  0  0  0  0  0  0  0  0  0  0
    1.1358   59.1603   81.5304 H   0  0  0  0  0  0  0  0  0  0  0  0
    3.3481   58.4017   80.5348 H   0  0  0  0  0  0  0  0  0  0  0  0
    0.7039   57.0946   81.4192 H   0  0  0  0  0  0  0  0  0  0  0  0
   -1.0568   59.5185   81.2049 H   0  0  0  0  0  0  0  0  0  0  0  0
    1.3475   63.0077   77.9574 H   0  0  0  0  0  0  0  0  0  0  0  0
   -1.4392   62.7886   76.6982 H   0  0  0  0  0  0  0  0  0  0  0  0
   -0.7601   64.1778   77.6425 H   0  0  0  0  0  0  0  0  0  0  0  0
    0.9505   64.5105   75.9304 H   0  0  0  0  0  0  0  0  0  0  0  0
   -1.8570   64.4959   74.7458 H   0  0  0  0  0  0  0  0  0  0  0  0
   -1.1565   65.7603   75.8337 H   0  0  0  0  0  0  0  0  0  0  0  0
   -1.0724   66.3794   73.4127 H   0  0  0  0  0  0  0  0  0  0  0  0
    0.5571   66.2793   74.2112 H   0  0  0  0  0  0  0  0  0  0  0  0
   -0.7380   64.2344   72.3878 H   0  0  0  0  0  0  0  0  0  0  0  0
    1.9862   64.1966   73.8333 H   0  0  0  0  0  0  0  0  0  0  0  0
    1.7452   61.1497   74.6153 H   0  0  0  0  0  0  0  0  0  0  0  0
    2.3729   62.5925   75.5522 H   0  0  0  0  0  0  0  0  0  0  0  0
    0.1504   60.6973   76.4249 H   0  0  0  0  0  0  0  0  0  0  0  0
   -1.2655   61.6377   75.0086 H   0  0  0  0  0  0  0  0  0  0  0  0
   -1.4062   62.6461   73.5287 H   0  0  0  0  0  0  0  0  0  0  0  0
   -0.3494   61.1936   73.5287 H   0  0  0  0  0  0  0  0  0  0  0  0
    2.5706   62.1565   72.7946 H   0  0  0  0  0  0  0  0  0  0  0  0
    0.9512   62.0864   71.9470 H   0  0  0  0  0  0  0  0  0  0  0  0
    3.2198   64.0569   71.4366 H   0  0  0  0  0  0  0  0  0  0  0  0
    2.5984   62.7493   70.3427 H   0  0  0  0  0  0  0  0  0  0  0  0
    1.7256   65.8491   72.2506 H   0  0  0  0  0  0  0  0  0  0  0  0
    0.1108   67.5072   71.5563 H   0  0  0  0  0  0  0  0  0  0  0  0
    1.9526   67.6009   70.0726 H   0  0  0  0  0  0  0  0  0  0  0  0
    3.0072   65.3408   69.6240 H   0  0  0  0  0  0  0  0  0  0  0  0
    0.8437   64.6117   67.7235 H   0  0  0  0  0  0  0  0  0  0  0  0
    0.0991   65.8211   66.0266 H   0  0  0  0  0  0  0  0  0  0  0  0
   -0.1135   67.6063   66.2749 H   0  0  0  0  0  0  0  0  0  0  0  0
    2.1758   66.2183   64.8197 H   0  0  0  0  0  0  0  0  0  0  0  0
    0.8507   67.2160   64.0964 H   0  0  0  0  0  0  0  0  0  0  0  0
    3.3114   68.1548   64.7295 H   0  0  0  0  0  0  0  0  0  0  0  0
    3.4506   69.2375   66.8029 H   0  0  0  0  0  0  0  0  0  0  0  0
    1.6702   69.2001   67.0569 H   0  0  0  0  0  0  0  0  0  0  0  0
    1.3446   70.2652   65.2356 H   0  0  0  0  0  0  0  0  0  0  0  0
    2.4698   70.0379   63.8540 H   0  0  0  0  0  0  0  0  0  0  0  0
    0.8706   69.2197   63.8540 H   0  0  0  0  0  0  0  0  0  0  0  0
    3.5059   64.1194   68.0629 H   0  0  0  0  0  0  0  0  0  0  0  0
    2.4409   63.7310   66.6695 H   0  0  0  0  0  0  0  0  0  0  0  0
    3.4024   65.2483   66.6695 H   0  0  0  0  0  0  0  0  0  0  0  0
   -0.4528   63.2072   70.7246 H   0  0  0  0  0  0  0  0  0  0  0  0
   -0.4864   64.2867   69.2892 H   0  0  0  0  0  0  0  0  0  0  0  0
    0.5571   62.8245   69.2892 H   0  0  0  0  0  0  0  0  0  0  0  0
   -1.6528   66.1922   71.2430 H   0  0  0  0  0  0  0  0  0  0  0  0
    2.0523   60.6641   78.1740 H   0  0  0  0  0  0  0  0  0  0  0  0
    4.3583   61.1327   78.5554 H   0  0  0  0  0  0  0  0  0  0  0  0
    4.7408   61.6157   80.2501 H   0  0  0  0  0  0  0  0  0  0  0  0
    5.3335   59.4789   80.7095 H   0  0  0  0  0  0  0  0  0  0  0  0
  2  1  1  0
  3  2  1  0
  4  3  1  0
  5  4  1  0
  6  5  1  0
  6  1  1  0
  7  4  1  0
  8  5  1  0
  9  8  1  0
 10  9  1  0
 11 10  1  0
 12 11  1  0
 13 12  1  0
 14 13  1  0
 14  9  1  0
 15 14  1  0
 16 13  1  0
 17 12  1  0
 18  6  1  0
 19 18  1  0
 20 19  1  0
 21 20  1  0
 22 21  1  0
 23 22  1  0
 24 19  1  0
 24 23  1  0
 25 22  1  0
 26 24  1  0
 27 23  1  0
 28 27  1  0
 29 28  1  0
 30 29  1  0
 31 30  1  0
 32 31  1  0
 33 32  1  0
 33 28  1  0
 34 31  1  0
 35 32  1  0
 36 33  1  0
 37 30  1  0
 38 37  1  0
 39 21  1  0
 40 39  1  0
 41  3  1  0
 42 41  1  0
 43  1  1  0
 45 44  1  0
 46 45  1  0
 47 46  1  0
 48 47  1  0
 49 48  1  0
 49 44  1  0
 49 43  1  0
 50 48  1  0
 51 47  1  0
 52 46  1  0
 53 52  1  0
 54 53  1  0
 55 54  1  0
 56 55  1  0
 57 56  1  0
 58 57  1  0
 59 58  1  0
 60 59  1  0
 60 55  1  0
 61 60  1  0
 62 61  1  0
 62 53  1  0
 60 63  1  6
 64 59  1  0
 65 64  1  0
 66 65  1  0
 67 66  1  0
 67 58  1  0
 68 67  1  0
 69 68  1  0
 70 69  1  0
 70 66  1  0
 71 70  1  0
 72 71  1  0
 73 69  1  0
 72 73  1  1
 74 72  1  0
 75 74  1  0
 76 75  1  0
 77 76  1  0
 78 77  1  0
 78 72  1  0
 79 76  1  0
 80 71  1  0
 66 81  1  6
 82 68  1  0
 83 62  1  0
 84 44  1  0
 85 84  1  0
  1 86  1  1
  3 87  1  6
  4 88  1  6
  5 89  1  1
  6 90  1  6
  7 91  1  0
  9 92  1  6
 11 93  1  0
 11 94  1  0
 12 95  1  1
 13 96  1  6
 14 97  1  1
 15 98  1  0
 16 99  1  0
 17100  1  0
 19101  1  1
 21102  1  1
 22103  1  1
 23104  1  1
 24105  1  6
 25106  1  0
 26107  1  0
 28108  1  6
 30109  1  6
 31110  1  1
 32111  1  6
 33112  1  1
 34113  1  0
 35114  1  0
 36115  1  0
 37116  1  0
 37117  1  0
 38118  1  0
 39119  1  0
 39120  1  0
 40121  1  0
 41122  1  0
 41123  1  0
 42124  1  0
 44125  1  1
 46126  1  1
 47127  1  6
 48128  1  1
 49129  1  1
 50130  1  0
 51131  1  0
 53132  1  1
 54133  1  0
 54134  1  0
 55135  1  1
 56136  1  0
 56137  1  0
 57138  1  0
 57139  1  0
 58140  1  6
 59141  1  1
 61142  1  0
 61143  1  0
 62144  1  6
 63145  1  0
 63146  1  0
 63147  1  0
 64148  1  0
 64149  1  0
 65150  1  0
 65151  1  0
 67152  1  1
 68153  1  1
 69154  1  1
 70155  1  6
 71156  1  1
 74157  1  0
 74158  1  0
 75159  1  0
 75160  1  0
 76161  1  6
 77162  1  0
 77163  1  0
 79164  1  0
 79165  1  0
 79166  1  0
 80167  1  0
 80168  1  0
 80169  1  0
 81170  1  0
 81171  1  0
 81172  1  0
 82173  1  0
 83174  1  0
 84175  1  0
 84176  1  0
 85177  1  0
M  END
>  <score>  (9) 
-2.973

$$$$
