=
     RDKit          3D

 45 46  0  0  0  0  0  0  0  0999 V2000
   -0.7500   67.2650   68.1140 C   0  0  0  0  0  0  0  0  0  0  0  0
    0.4740   66.8570   68.8040 N   0  0  0  0  0  0  0  0  0  0  0  0
    1.5690   67.6920   68.6460 C   0  0  0  0  0  0  0  0  0  0  0  0
    1.6060   68.7880   67.9570 N   0  0  0  0  0  0  0  0  0  0  0  0
    0.4610   65.6820   69.5310 C   0  0  0  0  0  0  0  0  0  0  0  0
    1.4500   65.1720   70.1930 N   0  0  0  0  0  0  0  0  0  0  0  0
    2.8400   69.4600   67.9550 C   0  0  0  0  0  0  0  0  0  0  0  0
    3.2480   70.1430   69.1060 C   0  0  0  0  0  0  0  0  0  0  0  0
    4.4700   70.8160   69.1420 C   0  0  0  0  0  0  0  0  0  0  0  0
    5.3060   70.8180   68.0230 C   0  0  0  0  0  0  0  0  0  0  0  0
    4.9150   70.1070   66.8790 C   0  0  0  0  0  0  0  0  0  0  0  0
    3.6890   69.4220   66.8370 C   0  0  0  0  0  0  0  0  0  0  0  0
    3.2920   68.6740   65.5960 C   0  0  0  0  0  0  0  0  0  0  0  0
    6.6340   71.5130   68.0660 C   0  0  0  0  0  0  0  0  0  0  0  0
    1.1850   63.9600   70.8510 C   0  0  0  0  0  0  0  0  0  0  0  0
   -0.0310   63.7980   71.5210 C   0  0  0  0  0  0  0  0  0  0  0  0
   -0.3290   62.6070   72.1860 C   0  0  0  0  0  0  0  0  0  0  0  0
    0.5910   61.5540   72.1870 C   0  0  0  0  0  0  0  0  0  0  0  0
    1.8240   61.7260   71.5450 C   0  0  0  0  0  0  0  0  0  0  0  0
    2.1340   62.9240   70.8810 C   0  0  0  0  0  0  0  0  0  0  0  0
    3.4660   63.0840   70.2030 C   0  0  0  0  0  0  0  0  0  0  0  0
    0.2910   60.2850   72.9290 C   0  0  0  0  0  0  0  0  0  0  0  0
   -1.5207   67.5219   68.8556 H   0  0  0  0  0  0  0  0  0  0  0  0
   -0.5407   68.1420   67.4838 H   0  0  0  0  0  0  0  0  0  0  0  0
   -1.1088   66.4379   67.4838 H   0  0  0  0  0  0  0  0  0  0  0  0
    2.4974   67.3947   69.1557 H   0  0  0  0  0  0  0  0  0  0  0  0
   -0.4861   65.1229   69.5492 H   0  0  0  0  0  0  0  0  0  0  0  0
    2.5977   70.1496   69.9932 H   0  0  0  0  0  0  0  0  0  0  0  0
    4.7761   71.3471   70.0554 H   0  0  0  0  0  0  0  0  0  0  0  0
    5.5781   70.0853   66.0016 H   0  0  0  0  0  0  0  0  0  0  0  0
    2.7935   67.7348   65.8777 H   0  0  0  0  0  0  0  0  0  0  0  0
    2.6026   69.2908   65.0008 H   0  0  0  0  0  0  0  0  0  0  0  0
    4.1892   68.4487   65.0008 H   0  0  0  0  0  0  0  0  0  0  0  0
    6.9324   71.6692   69.1132 H   0  0  0  0  0  0  0  0  0  0  0  0
    7.3884   70.8941   67.5582 H   0  0  0  0  0  0  0  0  0  0  0  0
    6.5555   72.4856   67.5582 H   0  0  0  0  0  0  0  0  0  0  0  0
   -0.7626   64.6194   71.5244 H   0  0  0  0  0  0  0  0  0  0  0  0
   -1.2897   62.4968   72.7103 H   0  0  0  0  0  0  0  0  0  0  0  0
    2.5612   60.9097   71.5612 H   0  0  0  0  0  0  0  0  0  0  0  0
    4.2553   63.1788   70.9632 H   0  0  0  0  0  0  0  0  0  0  0  0
    3.6658   62.2034   69.5748 H   0  0  0  0  0  0  0  0  0  0  0  0
    3.4516   63.9869   69.5748 H   0  0  0  0  0  0  0  0  0  0  0  0
    0.3357   60.4740   74.0117 H   0  0  0  0  0  0  0  0  0  0  0  0
   -0.7154   59.9319   72.6597 H   0  0  0  0  0  0  0  0  0  0  0  0
    1.0327   59.5187   72.6597 H   0  0  0  0  0  0  0  0  0  0  0  0
  2  1  1  0
  3  2  1  0
  4  3  2  0
  5  2  1  0
  6  5  2  0
  7  4  1  0
  8  7  2  0
  9  8  1  0
 10  9  2  0
 11 10  1  0
 12 11  2  0
 12  7  1  0
 13 12  1  0
 14 10  1  0
 15  6  1  0
 16 15  2  0
 17 16  1  0
 18 17  2  0
 19 18  1  0
 20 19  2  0
 20 15  1  0
 21 20  1  0
 22 18  1  0
  1 23  1  0
  1 24  1  0
  1 25  1  0
  3 26  1  0
  5 27  1  0
  8 28  1  0
  9 29  1  0
 11 30  1  0
 13 31  1  0
 13 32  1  0
 13 33  1  0
 14 34  1  0
 14 35  1  0
 14 36  1  0
 16 37  1  0
 17 38  1  0
 19 39  1  0
 21 40  1  0
 21 41  1  0
 21 42  1  0
 22 43  1  0
 22 44  1  0
 22 45  1  0
M  END
>  <score>  (1) 
-10.658

$$$$
=
     RDKit          3D

 45 46  0  0  0  0  0  0  0  0999 V2000
   -1.4330   67.9350   67.3870 C   0  0  0  0  0  0  0  0  0  0  0  0
   -0.1030   67.4160   67.7050 N   0  0  0  0  0  0  0  0  0  0  0  0
    0.9110   67.7580   66.8260 C   0  0  0  0  0  0  0  0  0  0  0  0
    0.7920   68.4910   65.7640 N   0  0  0  0  0  0  0  0  0  0  0  0
    0.0420   66.6190   68.8250 C   0  0  0  0  0  0  0  0  0  0  0  0
    1.1380   66.0740   69.2480 N   0  0  0  0  0  0  0  0  0  0  0  0
    1.9770   68.6960   65.0350 C   0  0  0  0  0  0  0  0  0  0  0  0
    3.1740   68.9130   65.7250 C   0  0  0  0  0  0  0  0  0  0  0  0
    4.3700   69.1140   65.0350 C   0  0  0  0  0  0  0  0  0  0  0  0
    4.3870   69.1040   63.6380 C   0  0  0  0  0  0  0  0  0  0  0  0
    3.1950   68.8550   62.9440 C   0  0  0  0  0  0  0  0  0  0  0  0
    1.9870   68.6450   63.6310 C   0  0  0  0  0  0  0  0  0  0  0  0
    0.7230   68.3870   62.8620 C   0  0  0  0  0  0  0  0  0  0  0  0
    5.6740   69.2890   62.8910 C   0  0  0  0  0  0  0  0  0  0  0  0
    1.0260   65.3010   70.4150 C   0  0  0  0  0  0  0  0  0  0  0  0
    0.0930   65.6670   71.3900 C   0  0  0  0  0  0  0  0  0  0  0  0
   -0.0470   64.9220   72.5620 C   0  0  0  0  0  0  0  0  0  0  0  0
    0.7480   63.7910   72.7750 C   0  0  0  0  0  0  0  0  0  0  0  0
    1.7050   63.4410   71.8150 C   0  0  0  0  0  0  0  0  0  0  0  0
    1.8580   64.1900   70.6370 C   0  0  0  0  0  0  0  0  0  0  0  0
    2.8960   63.7950   69.6250 C   0  0  0  0  0  0  0  0  0  0  0  0
    0.6260   63.0070   74.0480 C   0  0  0  0  0  0  0  0  0  0  0  0
   -1.9765   68.1471   68.3196 H   0  0  0  0  0  0  0  0  0  0  0  0
   -1.3349   68.8608   66.8011 H   0  0  0  0  0  0  0  0  0  0  0  0
   -1.9879   67.1874   66.8011 H   0  0  0  0  0  0  0  0  0  0  0  0
    1.9152   67.3696   67.0512 H   0  0  0  0  0  0  0  0  0  0  0  0
   -0.8654   66.4284   69.4169 H   0  0  0  0  0  0  0  0  0  0  0  0
    3.1726   68.9254   66.8249 H   0  0  0  0  0  0  0  0  0  0  0  0
    5.3031   69.2810   65.5931 H   0  0  0  0  0  0  0  0  0  0  0  0
    3.2051   68.8234   61.8445 H   0  0  0  0  0  0  0  0  0  0  0  0
   -0.1059   68.2178   63.5651 H   0  0  0  0  0  0  0  0  0  0  0  0
    0.4949   69.2571   62.2288 H   0  0  0  0  0  0  0  0  0  0  0  0
    0.8542   67.4971   62.2288 H   0  0  0  0  0  0  0  0  0  0  0  0
    6.5001   69.4077   63.6076 H   0  0  0  0  0  0  0  0  0  0  0  0
    5.8608   68.4085   62.2587 H   0  0  0  0  0  0  0  0  0  0  0  0
    5.6052   70.1865   62.2587 H   0  0  0  0  0  0  0  0  0  0  0  0
   -0.5388   66.5534   71.2314 H   0  0  0  0  0  0  0  0  0  0  0  0
   -0.7843   65.2250   73.3200 H   0  0  0  0  0  0  0  0  0  0  0  0
    2.3477   62.5649   71.9863 H   0  0  0  0  0  0  0  0  0  0  0  0
    3.8021   63.4502   70.1446 H   0  0  0  0  0  0  0  0  0  0  0  0
    2.5035   62.9834   68.9947 H   0  0  0  0  0  0  0  0  0  0  0  0
    3.1423   64.6622   68.9947 H   0  0  0  0  0  0  0  0  0  0  0  0
    0.7315   63.6850   74.9077 H   0  0  0  0  0  0  0  0  0  0  0  0
   -0.3590   62.5186   74.0849 H   0  0  0  0  0  0  0  0  0  0  0  0
    1.4160   62.2424   74.0849 H   0  0  0  0  0  0  0  0  0  0  0  0
  2  1  1  0
  3  2  1  0
  4  3  2  0
  5  2  1  0
  6  5  2  0
  7  4  1  0
  8  7  2  0
  9  8  1  0
 10  9  2  0
 11 10  1  0
 12 11  2  0
 12  7  1  0
 13 12  1  0
 14 10  1  0
 15  6  1  0
 16 15  2  0
 17 16  1  0
 18 17  2  0
 19 18  1  0
 20 19  2  0
 20 15  1  0
 21 20  1  0
 22 18  1  0
  1 23  1  0
  1 24  1  0
  1 25  1  0
  3 26  1  0
  5 27  1  0
  8 28  1  0
  9 29  1  0
 11 30  1  0
 13 31  1  0
 13 32  1  0
 13 33  1  0
 14 34  1  0
 14 35  1  0
 14 36  1  0
 16 37  1  0
 17 38  1  0
 19 39  1  0
 21 40  1  0
 21 41  1  0
 21 42  1  0
 22 43  1  0
 22 44  1  0
 22 45  1  0
M  END
>  <score>  (2) 
-9.94

$$$$
=
     RDKit          3D

 45 46  0  0  0  0  0  0  0  0999 V2000
   -0.9650   67.8140   68.3420 C   0  0  0  0  0  0  0  0  0  0  0  0
    0.3360   67.1530   68.4400 N   0  0  0  0  0  0  0  0  0  0  0  0
    1.2870   67.5380   67.5090 C   0  0  0  0  0  0  0  0  0  0  0  0
    1.1330   68.4220   66.5740 N   0  0  0  0  0  0  0  0  0  0  0  0
    0.5160   66.1950   69.4200 C   0  0  0  0  0  0  0  0  0  0  0  0
    1.5930   65.5130   69.6440 N   0  0  0  0  0  0  0  0  0  0  0  0
    2.2540   68.6370   65.7540 C   0  0  0  0  0  0  0  0  0  0  0  0
    2.2220   68.1980   64.4260 C   0  0  0  0  0  0  0  0  0  0  0  0
    3.3150   68.3990   63.5810 C   0  0  0  0  0  0  0  0  0  0  0  0
    4.4610   69.0440   64.0530 C   0  0  0  0  0  0  0  0  0  0  0  0
    4.4820   69.5140   65.3740 C   0  0  0  0  0  0  0  0  0  0  0  0
    3.3850   69.3200   66.2300 C   0  0  0  0  0  0  0  0  0  0  0  0
    3.4370   69.8290   67.6420 C   0  0  0  0  0  0  0  0  0  0  0  0
    5.6250   69.2910   63.1420 C   0  0  0  0  0  0  0  0  0  0  0  0
    1.5240   64.5920   70.7020 C   0  0  0  0  0  0  0  0  0  0  0  0
    0.4130   64.6070   71.5500 C   0  0  0  0  0  0  0  0  0  0  0  0
    0.3100   63.7060   72.6120 C   0  0  0  0  0  0  0  0  0  0  0  0
    1.3230   62.7700   72.8390 C   0  0  0  0  0  0  0  0  0  0  0  0
    2.4530   62.7730   72.0100 C   0  0  0  0  0  0  0  0  0  0  0  0
    2.5670   63.6820   70.9450 C   0  0  0  0  0  0  0  0  0  0  0  0
    3.7920   63.6670   70.0750 C   0  0  0  0  0  0  0  0  0  0  0  0
    1.2350   61.8220   73.9990 C   0  0  0  0  0  0  0  0  0  0  0  0
   -1.3531   68.0112   69.3522 H   0  0  0  0  0  0  0  0  0  0  0  0
   -0.8534   68.7647   67.8001 H   0  0  0  0  0  0  0  0  0  0  0  0
   -1.6670   67.1633   67.8001 H   0  0  0  0  0  0  0  0  0  0  0  0
    2.2686   67.0452   67.5693 H   0  0  0  0  0  0  0  0  0  0  0  0
   -0.3432   65.9916   70.0761 H   0  0  0  0  0  0  0  0  0  0  0  0
    1.3253   67.6886   64.0432 H   0  0  0  0  0  0  0  0  0  0  0  0
    3.2738   68.0481   62.5393 H   0  0  0  0  0  0  0  0  0  0  0  0
    5.3717   70.0431   65.7460 H   0  0  0  0  0  0  0  0  0  0  0  0
    3.3506   68.9833   68.3400 H   0  0  0  0  0  0  0  0  0  0  0  0
    4.3927   70.3470   67.8101 H   0  0  0  0  0  0  0  0  0  0  0  0
    2.6057   70.5296   67.8101 H   0  0  0  0  0  0  0  0  0  0  0  0
    6.5265   69.4823   63.7426 H   0  0  0  0  0  0  0  0  0  0  0  0
    5.7879   68.4074   62.5074 H   0  0  0  0  0  0  0  0  0  0  0  0
    5.4150   70.1646   62.5074 H   0  0  0  0  0  0  0  0  0  0  0  0
   -0.3908   65.3381   71.3786 H   0  0  0  0  0  0  0  0  0  0  0  0
   -0.5702   63.7330   73.2712 H   0  0  0  0  0  0  0  0  0  0  0  0
    3.2631   62.0525   72.1961 H   0  0  0  0  0  0  0  0  0  0  0  0
    4.6914   63.6560   70.7083 H   0  0  0  0  0  0  0  0  0  0  0  0
    3.7797   62.7689   69.4399 H   0  0  0  0  0  0  0  0  0  0  0  0
    3.8017   64.5651   69.4399 H   0  0  0  0  0  0  0  0  0  0  0  0
    1.2876   62.3886   74.9404 H   0  0  0  0  0  0  0  0  0  0  0  0
    0.2822   61.2743   73.9534 H   0  0  0  0  0  0  0  0  0  0  0  0
    2.0708   61.1082   73.9534 H   0  0  0  0  0  0  0  0  0  0  0  0
  2  1  1  0
  3  2  1  0
  4  3  2  0
  5  2  1  0
  6  5  2  0
  7  4  1  0
  8  7  2  0
  9  8  1  0
 10  9  2  0
 11 10  1  0
 12 11  2  0
 12  7  1  0
 13 12  1  0
 14 10  1  0
 15  6  1  0
 16 15  2  0
 17 16  1  0
 18 17  2  0
 19 18  1  0
 20 19  2  0
 20 15  1  0
 21 20  1  0
 22 18  1  0
  1 23  1  0
  1 24  1  0
  1 25  1  0
  3 26  1  0
  5 27  1  0
  8 28  1  0
  9 29  1  0
 11 30  1  0
 13 31  1  0
 13 32  1  0
 13 33  1  0
 14 34  1  0
 14 35  1  0
 14 36  1  0
 16 37  1  0
 17 38  1  0
 19 39  1  0
 21 40  1  0
 21 41  1  0
 21 42  1  0
 22 43  1  0
 22 44  1  0
 22 45  1  0
M  END
>  <score>  (3) 
-9.364

$$$$
=
     RDKit          3D

 45 46  0  0  0  0  0  0  0  0999 V2000
   -0.3380   66.0810   71.6520 C   0  0  0  0  0  0  0  0  0  0  0  0
    0.3880   65.3870   70.5880 N   0  0  0  0  0  0  0  0  0  0  0  0
    0.4620   66.0460   69.3710 C   0  0  0  0  0  0  0  0  0  0  0  0
   -0.0430   67.2070   69.0940 N   0  0  0  0  0  0  0  0  0  0  0  0
    0.9200   64.1410   70.8580 C   0  0  0  0  0  0  0  0  0  0  0  0
    1.5820   63.3890   70.0370 N   0  0  0  0  0  0  0  0  0  0  0  0
    0.1710   67.6620   67.7820 C   0  0  0  0  0  0  0  0  0  0  0  0
    1.4800   67.8990   67.3470 C   0  0  0  0  0  0  0  0  0  0  0  0
    1.7310   68.3450   66.0480 C   0  0  0  0  0  0  0  0  0  0  0  0
    0.6730   68.5640   65.1620 C   0  0  0  0  0  0  0  0  0  0  0  0
   -0.6370   68.2970   65.5850 C   0  0  0  0  0  0  0  0  0  0  0  0
   -0.8970   67.8410   66.8890 C   0  0  0  0  0  0  0  0  0  0  0  0
   -2.3110   67.5680   67.3180 C   0  0  0  0  0  0  0  0  0  0  0  0
    0.9380   69.0140   63.7560 C   0  0  0  0  0  0  0  0  0  0  0  0
    2.0170   62.1570   70.5510 C   0  0  0  0  0  0  0  0  0  0  0  0
    1.4210   61.6520   71.7110 C   0  0  0  0  0  0  0  0  0  0  0  0
    1.8280   60.4300   72.2500 C   0  0  0  0  0  0  0  0  0  0  0  0
    2.8410   59.6920   71.6320 C   0  0  0  0  0  0  0  0  0  0  0  0
    3.4620   60.2110   70.4890 C   0  0  0  0  0  0  0  0  0  0  0  0
    3.0640   61.4430   69.9450 C   0  0  0  0  0  0  0  0  0  0  0  0
    3.7510   61.9790   68.7200 C   0  0  0  0  0  0  0  0  0  0  0  0
    3.3060   58.3950   72.2260 C   0  0  0  0  0  0  0  0  0  0  0  0
    0.0252   65.7338   72.6305 H   0  0  0  0  0  0  0  0  0  0  0  0
   -0.1719   67.1647   71.5627 H   0  0  0  0  0  0  0  0  0  0  0  0
   -1.4131   65.8663   71.5627 H   0  0  0  0  0  0  0  0  0  0  0  0
    1.0021   65.5336   68.5612 H   0  0  0  0  0  0  0  0  0  0  0  0
    0.7657   63.7474   71.8735 H   0  0  0  0  0  0  0  0  0  0  0  0
    2.3207   67.7320   68.0365 H   0  0  0  0  0  0  0  0  0  0  0  0
    2.7657   68.5247   65.7208 H   0  0  0  0  0  0  0  0  0  0  0  0
   -1.4733   68.4466   64.8863 H   0  0  0  0  0  0  0  0  0  0  0  0
   -2.3653   67.5575   68.4166 H   0  0  0  0  0  0  0  0  0  0  0  0
   -2.9717   68.3552   66.9257 H   0  0  0  0  0  0  0  0  0  0  0  0
   -2.6311   66.5915   66.9257 H   0  0  0  0  0  0  0  0  0  0  0  0
    1.4961   69.9617   63.7734 H   0  0  0  0  0  0  0  0  0  0  0  0
    1.5300   68.2494   63.2317 H   0  0  0  0  0  0  0  0  0  0  0  0
   -0.0178   69.1609   63.2317 H   0  0  0  0  0  0  0  0  0  0  0  0
    0.6219   62.2244   72.2047 H   0  0  0  0  0  0  0  0  0  0  0  0
    1.3499   60.0471   73.1637 H   0  0  0  0  0  0  0  0  0  0  0  0
    4.2743   59.6447   70.0098 H   0  0  0  0  0  0  0  0  0  0  0  0
    4.5849   62.6296   69.0223 H   0  0  0  0  0  0  0  0  0  0  0  0
    4.1379   61.1417   68.1206 H   0  0  0  0  0  0  0  0  0  0  0  0
    3.0329   62.5579   68.1206 H   0  0  0  0  0  0  0  0  0  0  0  0
    3.2811   58.4645   73.3235 H   0  0  0  0  0  0  0  0  0  0  0  0
    2.6435   57.5817   71.8950 H   0  0  0  0  0  0  0  0  0  0  0  0
    4.3344   58.1879   71.8950 H   0  0  0  0  0  0  0  0  0  0  0  0
  2  1  1  0
  3  2  1  0
  4  3  2  0
  5  2  1  0
  6  5  2  0
  7  4  1  0
  8  7  2  0
  9  8  1  0
 10  9  2  0
 11 10  1  0
 12 11  2  0
 12  7  1  0
 13 12  1  0
 14 10  1  0
 15  6  1  0
 16 15  2  0
 17 16  1  0
 18 17  2  0
 19 18  1  0
 20 19  2  0
 20 15  1  0
 21 20  1  0
 22 18  1  0
  1 23  1  0
  1 24  1  0
  1 25  1  0
  3 26  1  0
  5 27  1  0
  8 28  1  0
  9 29  1  0
 11 30  1  0
 13 31  1  0
 13 32  1  0
 13 33  1  0
 14 34  1  0
 14 35  1  0
 14 36  1  0
 16 37  1  0
 17 38  1  0
 19 39  1  0
 21 40  1  0
 21 41  1  0
 21 42  1  0
 22 43  1  0
 22 44  1  0
 22 45  1  0
M  END
>  <score>  (4) 
-8.984

$$$$
=
     RDKit          3D

 45 46  0  0  0  0  0  0  0  0999 V2000
   -0.0090   66.3960   70.8160 C   0  0  0  0  0  0  0  0  0  0  0  0
    1.0670   65.7300   70.0830 N   0  0  0  0  0  0  0  0  0  0  0  0
    1.4660   66.3360   68.9030 C   0  0  0  0  0  0  0  0  0  0  0  0
    0.9830   67.4270   68.3980 N   0  0  0  0  0  0  0  0  0  0  0  0
    1.5860   64.5560   70.5960 C   0  0  0  0  0  0  0  0  0  0  0  0
    2.5300   63.8370   70.0770 N   0  0  0  0  0  0  0  0  0  0  0  0
    1.5610   67.8410   67.1860 C   0  0  0  0  0  0  0  0  0  0  0  0
    1.2430   67.1540   66.0090 C   0  0  0  0  0  0  0  0  0  0  0  0
    1.7930   67.5400   64.7850 C   0  0  0  0  0  0  0  0  0  0  0  0
    2.6740   68.6220   64.7200 C   0  0  0  0  0  0  0  0  0  0  0  0
    2.9690   69.3320   65.8920 C   0  0  0  0  0  0  0  0  0  0  0  0
    2.4150   68.9540   67.1270 C   0  0  0  0  0  0  0  0  0  0  0  0
    2.7530   69.7290   68.3690 C   0  0  0  0  0  0  0  0  0  0  0  0
    3.2440   69.0610   63.4040 C   0  0  0  0  0  0  0  0  0  0  0  0
    2.8790   62.6800   70.7910 C   0  0  0  0  0  0  0  0  0  0  0  0
    1.8730   61.7950   71.1940 C   0  0  0  0  0  0  0  0  0  0  0  0
    2.1830   60.6350   71.9040 C   0  0  0  0  0  0  0  0  0  0  0  0
    3.5120   60.3390   72.2220 C   0  0  0  0  0  0  0  0  0  0  0  0
    4.5180   61.2390   71.8490 C   0  0  0  0  0  0  0  0  0  0  0  0
    4.2140   62.4130   71.1410 C   0  0  0  0  0  0  0  0  0  0  0  0
    5.3120   63.3650   70.7570 C   0  0  0  0  0  0  0  0  0  0  0  0
    3.8480   59.1110   73.0150 C   0  0  0  0  0  0  0  0  0  0  0  0
    0.1632   66.2894   71.8972 H   0  0  0  0  0  0  0  0  0  0  0  0
   -0.0271   67.4635   70.5511 H   0  0  0  0  0  0  0  0  0  0  0  0
   -0.9725   65.9361   70.5511 H   0  0  0  0  0  0  0  0  0  0  0  0
    2.2717   65.8427   68.3396 H   0  0  0  0  0  0  0  0  0  0  0  0
    1.1533   64.1958   71.5410 H   0  0  0  0  0  0  0  0  0  0  0  0
    0.5514   66.2996   66.0486 H   0  0  0  0  0  0  0  0  0  0  0  0
    1.5316   66.9902   63.8688 H   0  0  0  0  0  0  0  0  0  0  0  0
    3.6447   70.1987   65.8443 H   0  0  0  0  0  0  0  0  0  0  0  0
    2.4928   69.1323   69.2557 H   0  0  0  0  0  0  0  0  0  0  0  0
    3.8301   69.9520   68.3803 H   0  0  0  0  0  0  0  0  0  0  0  0
    2.1836   70.6701   68.3803 H   0  0  0  0  0  0  0  0  0  0  0  0
    4.1043   69.7236   63.5798 H   0  0  0  0  0  0  0  0  0  0  0  0
    3.5709   68.1791   62.8335 H   0  0  0  0  0  0  0  0  0  0  0  0
    2.4748   69.6023   62.8335 H   0  0  0  0  0  0  0  0  0  0  0  0
    0.8241   62.0168   70.9478 H   0  0  0  0  0  0  0  0  0  0  0  0
    1.3795   59.9510   72.2147 H   0  0  0  0  0  0  0  0  0  0  0  0
    5.5632   61.0228   72.1149 H   0  0  0  0  0  0  0  0  0  0  0  0
    5.7800   63.7708   71.6660 H   0  0  0  0  0  0  0  0  0  0  0  0
    6.0681   62.8319   70.1620 H   0  0  0  0  0  0  0  0  0  0  0  0
    4.8914   64.1890   70.1620 H   0  0  0  0  0  0  0  0  0  0  0  0
    3.7854   59.3397   74.0891 H   0  0  0  0  0  0  0  0  0  0  0  0
    3.1362   58.3093   72.7687 H   0  0  0  0  0  0  0  0  0  0  0  0
    4.8688   58.7834   72.7687 H   0  0  0  0  0  0  0  0  0  0  0  0
  2  1  1  0
  3  2  1  0
  4  3  2  0
  5  2  1  0
  6  5  2  0
  7  4  1  0
  8  7  2  0
  9  8  1  0
 10  9  2  0
 11 10  1  0
 12 11  2  0
 12  7  1  0
 13 12  1  0
 14 10  1  0
 15  6  1  0
 16 15  2  0
 17 16  1  0
 18 17  2  0
 19 18  1  0
 20 19  2  0
 20 15  1  0
 21 20  1  0
 22 18  1  0
  1 23  1  0
  1 24  1  0
  1 25  1  0
  3 26  1  0
  5 27  1  0
  8 28  1  0
  9 29  1  0
 11 30  1  0
 13 31  1  0
 13 32  1  0
 13 33  1  0
 14 34  1  0
 14 35  1  0
 14 36  1  0
 16 37  1  0
 17 38  1  0
 19 39  1  0
 21 40  1  0
 21 41  1  0
 21 42  1  0
 22 43  1  0
 22 44  1  0
 22 45  1  0
M  END
>  <score>  (5) 
-8.772

$$$$
=
     RDKit          3D

 45 46  0  0  0  0  0  0  0  0999 V2000
    4.1530   59.3460   73.4350 C   0  0  0  0  0  0  0  0  0  0  0  0
    2.7120   59.4940   73.2310 N   0  0  0  0  0  0  0  0  0  0  0  0
    2.2970   60.6870   72.6620 C   0  0  0  0  0  0  0  0  0  0  0  0
    3.0590   61.6690   72.2950 N   0  0  0  0  0  0  0  0  0  0  0  0
    1.8810   58.4650   73.6310 C   0  0  0  0  0  0  0  0  0  0  0  0
    0.5900   58.4320   73.5310 N   0  0  0  0  0  0  0  0  0  0  0  0
    2.3930   62.7750   71.7390 C   0  0  0  0  0  0  0  0  0  0  0  0
    1.0810   63.0520   72.1350 C   0  0  0  0  0  0  0  0  0  0  0  0
    0.3910   64.1460   71.6090 C   0  0  0  0  0  0  0  0  0  0  0  0
    1.0050   64.9810   70.6730 C   0  0  0  0  0  0  0  0  0  0  0  0
    2.3310   64.7250   70.2980 C   0  0  0  0  0  0  0  0  0  0  0  0
    3.0350   63.6300   70.8270 C   0  0  0  0  0  0  0  0  0  0  0  0
    4.4530   63.3750   70.4030 C   0  0  0  0  0  0  0  0  0  0  0  0
    0.2800   66.1750   70.1270 C   0  0  0  0  0  0  0  0  0  0  0  0
   -0.0300   57.2690   74.0150 C   0  0  0  0  0  0  0  0  0  0  0  0
    0.5140   56.0200   73.6980 C   0  0  0  0  0  0  0  0  0  0  0  0
   -0.0760   54.8440   74.1620 C   0  0  0  0  0  0  0  0  0  0  0  0
   -1.2250   54.9000   74.9560 C   0  0  0  0  0  0  0  0  0  0  0  0
   -1.7910   56.1470   75.2480 C   0  0  0  0  0  0  0  0  0  0  0  0
   -1.2080   57.3350   74.7780 C   0  0  0  0  0  0  0  0  0  0  0  0
   -1.8390   58.6600   75.1020 C   0  0  0  0  0  0  0  0  0  0  0  0
   -1.8830   53.6370   75.4290 C   0  0  0  0  0  0  0  0  0  0  0  0
    4.3703   59.3237   74.5131 H   0  0  0  0  0  0  0  0  0  0  0  0
    4.4944   58.4081   72.9727 H   0  0  0  0  0  0  0  0  0  0  0  0
    4.6779   60.1950   72.9727 H   0  0  0  0  0  0  0  0  0  0  0  0
    1.2154   60.8131   72.5066 H   0  0  0  0  0  0  0  0  0  0  0  0
    2.3648   57.5849   74.0797 H   0  0  0  0  0  0  0  0  0  0  0  0
    0.5863   62.4000   72.8700 H   0  0  0  0  0  0  0  0  0  0  0  0
   -0.6400   64.3509   71.9331 H   0  0  0  0  0  0  0  0  0  0  0  0
    2.8284   65.3918   69.5783 H   0  0  0  0  0  0  0  0  0  0  0  0
    5.0874   63.2609   71.2944 H   0  0  0  0  0  0  0  0  0  0  0  0
    4.4962   62.4547   69.8020 H   0  0  0  0  0  0  0  0  0  0  0  0
    4.8141   64.2226   69.8020 H   0  0  0  0  0  0  0  0  0  0  0  0
   -0.0932   66.7896   70.9594 H   0  0  0  0  0  0  0  0  0  0  0  0
    0.9684   66.7717   69.5106 H   0  0  0  0  0  0  0  0  0  0  0  0
   -0.5670   65.8394   69.5106 H   0  0  0  0  0  0  0  0  0  0  0  0
    1.4187   55.9643   73.0748 H   0  0  0  0  0  0  0  0  0  0  0  0
    0.3643   53.8700   73.9023 H   0  0  0  0  0  0  0  0  0  0  0  0
   -2.7069   56.1969   75.8552 H   0  0  0  0  0  0  0  0  0  0  0  0
   -1.8968   58.7814   76.1938 H   0  0  0  0  0  0  0  0  0  0  0  0
   -1.2301   59.4704   74.6747 H   0  0  0  0  0  0  0  0  0  0  0  0
   -2.8519   58.6980   74.6747 H   0  0  0  0  0  0  0  0  0  0  0  0
   -1.8927   53.6183   76.5288 H   0  0  0  0  0  0  0  0  0  0  0  0
   -2.9158   53.5984   75.0525 H   0  0  0  0  0  0  0  0  0  0  0  0
   -1.3228   52.7685   75.0525 H   0  0  0  0  0  0  0  0  0  0  0  0
  2  1  1  0
  3  2  1  0
  4  3  2  0
  5  2  1  0
  6  5  2  0
  7  4  1  0
  8  7  2  0
  9  8  1  0
 10  9  2  0
 11 10  1  0
 12 11  2  0
 12  7  1  0
 13 12  1  0
 14 10  1  0
 15  6  1  0
 16 15  2  0
 17 16  1  0
 18 17  2  0
 19 18  1  0
 20 19  2  0
 20 15  1  0
 21 20  1  0
 22 18  1  0
  1 23  1  0
  1 24  1  0
  1 25  1  0
  3 26  1  0
  5 27  1  0
  8 28  1  0
  9 29  1  0
 11 30  1  0
 13 31  1  0
 13 32  1  0
 13 33  1  0
 14 34  1  0
 14 35  1  0
 14 36  1  0
 16 37  1  0
 17 38  1  0
 19 39  1  0
 21 40  1  0
 21 41  1  0
 21 42  1  0
 22 43  1  0
 22 44  1  0
 22 45  1  0
M  END
>  <score>  (6) 
-8.29

$$$$
=
     RDKit          3D

 45 46  0  0  0  0  0  0  0  0999 V2000
    4.0660   68.6730   63.4040 C   0  0  0  0  0  0  0  0  0  0  0  0
    3.5480   69.0670   64.7140 N   0  0  0  0  0  0  0  0  0  0  0  0
    2.1720   69.0210   64.8630 C   0  0  0  0  0  0  0  0  0  0  0  0
    1.3120   68.6600   63.9630 N   0  0  0  0  0  0  0  0  0  0  0  0
    4.4460   69.4710   65.6830 C   0  0  0  0  0  0  0  0  0  0  0  0
    4.1630   69.8560   66.8860 N   0  0  0  0  0  0  0  0  0  0  0  0
   -0.0350   68.6970   64.3630 C   0  0  0  0  0  0  0  0  0  0  0  0
   -0.3640   68.3690   65.6830 C   0  0  0  0  0  0  0  0  0  0  0  0
   -1.6900   68.4010   66.1170 C   0  0  0  0  0  0  0  0  0  0  0  0
   -2.7120   68.7600   65.2340 C   0  0  0  0  0  0  0  0  0  0  0  0
   -2.3810   69.1190   63.9200 C   0  0  0  0  0  0  0  0  0  0  0  0
   -1.0480   69.0960   63.4760 C   0  0  0  0  0  0  0  0  0  0  0  0
   -0.7230   69.4810   62.0610 C   0  0  0  0  0  0  0  0  0  0  0  0
   -4.1340   68.8250   65.7030 C   0  0  0  0  0  0  0  0  0  0  0  0
    5.2580   70.2220   67.6850 C   0  0  0  0  0  0  0  0  0  0  0  0
    6.5440   70.1960   67.1360 C   0  0  0  0  0  0  0  0  0  0  0  0
    7.6550   70.5540   67.9000 C   0  0  0  0  0  0  0  0  0  0  0  0
    7.4960   70.9470   69.2320 C   0  0  0  0  0  0  0  0  0  0  0  0
    6.2130   70.9430   69.7940 C   0  0  0  0  0  0  0  0  0  0  0  0
    5.0900   70.5770   69.0350 C   0  0  0  0  0  0  0  0  0  0  0  0
    3.7250   70.5770   69.6640 C   0  0  0  0  0  0  0  0  0  0  0  0
    8.6900   71.3000   70.0690 C   0  0  0  0  0  0  0  0  0  0  0  0
    4.9351   68.0120   63.5371 H   0  0  0  0  0  0  0  0  0  0  0  0
    3.2825   68.1405   62.8449 H   0  0  0  0  0  0  0  0  0  0  0  0
    4.3700   69.5702   62.8449 H   0  0  0  0  0  0  0  0  0  0  0  0
    1.7691   69.3204   65.8418 H   0  0  0  0  0  0  0  0  0  0  0  0
    5.5100   69.4649   65.4038 H   0  0  0  0  0  0  0  0  0  0  0  0
    0.4316   68.0827   66.3866 H   0  0  0  0  0  0  0  0  0  0  0  0
   -1.9318   68.1426   67.1585 H   0  0  0  0  0  0  0  0  0  0  0  0
   -3.1776   69.4236   63.2253 H   0  0  0  0  0  0  0  0  0  0  0  0
   -0.0134   70.3216   62.0635 H   0  0  0  0  0  0  0  0  0  0  0  0
   -0.2725   68.6224   61.5416 H   0  0  0  0  0  0  0  0  0  0  0  0
   -1.6451   69.7811   61.5416 H   0  0  0  0  0  0  0  0  0  0  0  0
   -4.1577   68.8261   66.8027 H   0  0  0  0  0  0  0  0  0  0  0  0
   -4.6030   69.7455   65.3252 H   0  0  0  0  0  0  0  0  0  0  0  0
   -4.6850   67.9511   65.3252 H   0  0  0  0  0  0  0  0  0  0  0  0
    6.6812   69.8894   66.0885 H   0  0  0  0  0  0  0  0  0  0  0  0
    8.6596   70.5269   67.4527 H   0  0  0  0  0  0  0  0  0  0  0  0
    6.0831   71.2314   70.8475 H   0  0  0  0  0  0  0  0  0  0  0  0
    3.3920   69.5399   69.8175 H   0  0  0  0  0  0  0  0  0  0  0  0
    3.7679   71.0955   70.6332 H   0  0  0  0  0  0  0  0  0  0  0  0
    3.0161   71.0955   69.0017 H   0  0  0  0  0  0  0  0  0  0  0  0
    8.4270   71.2222   71.1343 H   0  0  0  0  0  0  0  0  0  0  0  0
    9.5139   70.6070   69.8432 H   0  0  0  0  0  0  0  0  0  0  0  0
    9.0046   72.3296   69.8432 H   0  0  0  0  0  0  0  0  0  0  0  0
  2  1  1  0
  3  2  1  0
  4  3  2  0
  5  2  1  0
  6  5  2  0
  7  4  1  0
  8  7  2  0
  9  8  1  0
 10  9  2  0
 11 10  1  0
 12 11  2  0
 12  7  1  0
 13 12  1  0
 14 10  1  0
 15  6  1  0
 16 15  2  0
 17 16  1  0
 18 17  2  0
 19 18  1  0
 20 19  2  0
 20 15  1  0
 21 20  1  0
 22 18  1  0
  1 23  1  0
  1 24  1  0
  1 25  1  0
  3 26  1  0
  5 27  1  0
  8 28  1  0
  9 29  1  0
 11 30  1  0
 13 31  1  0
 13 32  1  0
 13 33  1  0
 14 34  1  0
 14 35  1  0
 14 36  1  0
 16 37  1  0
 17 38  1  0
 19 39  1  0
 21 40  1  0
 21 41  1  0
 21 42  1  0
 22 43  1  0
 22 44  1  0
 22 45  1  0
M  END
>  <score>  (7) 
-7.885

$$$$
