=
     RDKit          3D

 90 96  0  0  0  0  0  0  0  0999 V2000
    2.0920   64.1200   69.9350 N   0  0  0  0  0  4  0  0  0  0  0  0
    1.5380   62.7060   69.9050 C   0  0  0  0  0  0  0  0  0  0  0  0
    2.5970   61.7180   69.3540 C   0  0  0  0  0  0  0  0  0  0  0  0
    3.9000   61.7650   70.1580 N   0  0  0  0  0  4  0  0  0  0  0  0
    4.4410   63.1960   70.2600 C   0  0  0  0  0  0  0  0  0  0  0  0
    3.3750   64.2060   70.7610 C   0  0  0  0  0  0  0  0  0  0  0  0
    1.0970   65.1950   70.3330 C   0  0  0  0  0  0  0  0  0  0  0  0
    1.4400   66.5920   69.8060 C   0  0  0  0  0  0  0  0  0  0  0  0
    0.5730   67.1650   68.6800 C   0  0  0  0  0  0  0  0  0  0  0  0
    0.9320   68.5590   68.4020 N   0  0  0  0  0  0  0  0  0  0  0  0
    1.8280   68.8470   67.3380 C   0  0  0  0  0  0  0  0  0  0  0  0
    1.5790   68.5820   65.9870 C   0  0  0  0  0  0  0  0  0  0  0  0
    0.2500   68.1970   65.3860 C   0  0  0  0  0  0  0  0  0  0  0  0
   -0.0010   68.9370   64.0680 C   0  0  0  0  0  0  0  0  0  0  0  0
    1.1770   68.9120   63.0880 C   0  0  0  0  0  0  0  0  0  0  0  0
    2.4540   68.3040   63.6590 C   0  0  0  0  0  0  0  0  0  0  0  0
    2.6530   68.6980   65.1000 C   0  0  0  0  0  0  0  0  0  0  0  0
    3.8820   69.1190   65.4670 N   0  0  0  0  0  0  0  0  0  0  0  0
    4.0440   69.6130   66.6950 C   0  0  0  0  0  0  0  0  0  0  0  0
    3.0440   69.5120   67.6820 C   0  0  0  0  0  0  0  0  0  0  0  0
    3.3060   70.0500   68.9670 C   0  0  0  0  0  0  0  0  0  0  0  0
    4.5230   70.6620   69.2640 C   0  0  0  0  0  0  0  0  0  0  0  0
    5.5030   70.7400   68.2850 C   0  0  0  0  0  0  0  0  0  0  0  0
    5.2550   70.2130   67.0160 C   0  0  0  0  0  0  0  0  0  0  0  0
    3.8220   61.0130   71.4850 C   0  0  0  0  0  0  0  0  0  0  0  0
    4.0820   59.5220   71.3100 C   0  0  0  0  0  0  0  0  0  0  0  0
    2.9110   58.6490   71.7770 C   0  0  0  0  0  0  0  0  0  0  0  0
    2.6690   58.8170   73.2120 N   0  0  0  0  0  0  0  0  0  0  0  0
    1.3230   58.5190   73.5960 C   0  0  0  0  0  0  0  0  0  0  0  0
    1.0480   57.2550   74.1360 C   0  0  0  0  0  0  0  0  0  0  0  0
    2.0450   56.1300   74.2340 C   0  0  0  0  0  0  0  0  0  0  0  0
    1.4190   54.7920   73.8290 C   0  0  0  0  0  0  0  0  0  0  0  0
    0.0070   54.5480   74.3810 C   0  0  0  0  0  0  0  0  0  0  0  0
   -0.5300   55.6800   75.2540 C   0  0  0  0  0  0  0  0  0  0  0  0
   -0.2320   57.0190   74.6330 C   0  0  0  0  0  0  0  0  0  0  0  0
   -1.2160   57.9390   74.6180 N   0  0  0  0  0  0  0  0  0  0  0  0
   -0.9840   59.1210   74.0330 C   0  0  0  0  0  0  0  0  0  0  0  0
    0.2710   59.4760   73.4890 C   0  0  0  0  0  0  0  0  0  0  0  0
    0.3960   60.7470   72.8680 C   0  0  0  0  0  0  0  0  0  0  0  0
   -0.6750   61.6380   72.8100 C   0  0  0  0  0  0  0  0  0  0  0  0
   -1.8920   61.2790   73.3690 C   0  0  0  0  0  0  0  0  0  0  0  0
   -2.0320   60.0280   73.9700 C   0  0  0  0  0  0  0  0  0  0  0  0
    2.3189   64.3289   68.9523 H   0  0  0  0  0  0  0  0  0  0  0  0
    1.2590   62.4051   70.9256 H   0  0  0  0  0  0  0  0  0  0  0  0
    0.6561   62.6841   69.2479 H   0  0  0  0  0  0  0  0  0  0  0  0
    2.1883   60.6978   69.3996 H   0  0  0  0  0  0  0  0  0  0  0  0
    2.8265   62.0092   68.3184 H   0  0  0  0  0  0  0  0  0  0  0  0
    4.6077   61.2360   69.6286 H   0  0  0  0  0  0  0  0  0  0  0  0
    5.2886   63.2024   70.9611 H   0  0  0  0  0  0  0  0  0  0  0  0
    4.7453   63.5084   69.2502 H   0  0  0  0  0  0  0  0  0  0  0  0
    3.1390   63.9849   71.8124 H   0  0  0  0  0  0  0  0  0  0  0  0
    3.7853   65.2214   70.6576 H   0  0  0  0  0  0  0  0  0  0  0  0
    0.1083   64.9119   69.9427 H   0  0  0  0  0  0  0  0  0  0  0  0
    1.1192   65.2564   71.4311 H   0  0  0  0  0  0  0  0  0  0  0  0
    1.3758   67.2878   70.6556 H   0  0  0  0  0  0  0  0  0  0  0  0
    2.4380   66.4807   69.3570 H   0  0  0  0  0  0  0  0  0  0  0  0
    0.7227   66.5660   67.7696 H   0  0  0  0  0  0  0  0  0  0  0  0
   -0.4806   67.1290   68.9942 H   0  0  0  0  0  0  0  0  0  0  0  0
    0.5387   69.3214   68.9721 H   0  0  0  0  0  0  0  0  0  0  0  0
    0.2434   67.1137   65.1954 H   0  0  0  0  0  0  0  0  0  0  0  0
   -0.5444   68.4725   66.0953 H   0  0  0  0  0  0  0  0  0  0  0  0
   -0.8680   68.4739   63.5742 H   0  0  0  0  0  0  0  0  0  0  0  0
   -0.1665   69.9925   64.3297 H   0  0  0  0  0  0  0  0  0  0  0  0
    0.8798   68.3248   62.2066 H   0  0  0  0  0  0  0  0  0  0  0  0
    1.4076   69.9597   62.8449 H   0  0  0  0  0  0  0  0  0  0  0  0
    2.3892   67.2079   63.5932 H   0  0  0  0  0  0  0  0  0  0  0  0
    3.3076   68.6799   63.0759 H   0  0  0  0  0  0  0  0  0  0  0  0
    2.5327   69.9832   69.7464 H   0  0  0  0  0  0  0  0  0  0  0  0
    4.7046   71.0792   70.2655 H   0  0  0  0  0  0  0  0  0  0  0  0
    6.4702   71.2145   68.5073 H   0  0  0  0  0  0  0  0  0  0  0  0
    6.0408   70.2747   66.2488 H   0  0  0  0  0  0  0  0  0  0  0  0
    4.5742   61.4267   72.1728 H   0  0  0  0  0  0  0  0  0  0  0  0
    2.8057   61.1366   71.8873 H   0  0  0  0  0  0  0  0  0  0  0  0
    4.2652   59.3212   70.2441 H   0  0  0  0  0  0  0  0  0  0  0  0
    4.9517   59.2651   71.9326 H   0  0  0  0  0  0  0  0  0  0  0  0
    2.0050   58.9368   71.2235 H   0  0  0  0  0  0  0  0  0  0  0  0
    3.1620   57.5953   71.5855 H   0  0  0  0  0  0  0  0  0  0  0  0
    3.3946   59.1192   73.8776 H   0  0  0  0  0  0  0  0  0  0  0  0
    2.8934   56.3445   73.5676 H   0  0  0  0  0  0  0  0  0  0  0  0
    2.3794   56.0537   75.2792 H   0  0  0  0  0  0  0  0  0  0  0  0
    1.3678   54.7567   72.7308 H   0  0  0  0  0  0  0  0  0  0  0  0
    2.0593   54.0079   74.2593 H   0  0  0  0  0  0  0  0  0  0  0  0
   -0.6773   54.4146   73.5302 H   0  0  0  0  0  0  0  0  0  0  0  0
    0.0691   53.6570   75.0230 H   0  0  0  0  0  0  0  0  0  0  0  0
   -1.6187   55.5667   75.3626 H   0  0  0  0  0  0  0  0  0  0  0  0
   -0.0408   55.6300   76.2379 H   0  0  0  0  0  0  0  0  0  0  0  0
    1.3596   61.0352   72.4226 H   0  0  0  0  0  0  0  0  0  0  0  0
   -0.5553   62.6179   72.3247 H   0  0  0  0  0  0  0  0  0  0  0  0
   -2.7420   61.9765   73.3387 H   0  0  0  0  0  0  0  0  0  0  0  0
   -3.0029   59.7522   74.4073 H   0  0  0  0  0  0  0  0  0  0  0  0
  2  1  1  0
  3  2  1  0
  4  3  1  0
  5  4  1  0
  6  5  1  0
  6  1  1  0
  7  1  1  0
  8  7  1  0
  9  8  1  0
 10  9  1  0
 11 10  1  0
 12 11  1  0
 13 12  1  0
 14 13  1  0
 15 14  1  0
 16 15  1  0
 17 16  1  0
 17 12  2  0
 18 17  1  0
 19 18  2  0
 20 19  1  0
 20 11  2  0
 21 20  1  0
 22 21  2  0
 23 22  1  0
 24 19  1  0
 24 23  2  0
 25  4  1  0
 26 25  1  0
 27 26  1  0
 28 27  1  0
 29 28  1  0
 30 29  1  0
 31 30  1  0
 32 31  1  0
 33 32  1  0
 34 33  1  0
 35 34  1  0
 35 30  2  0
 36 35  1  0
 37 36  2  0
 38 37  1  0
 38 29  2  0
 39 38  1  0
 40 39  2  0
 41 40  1  0
 42 37  1  0
 42 41  2  0
  1 43  1  0
  2 44  1  0
  2 45  1  0
  3 46  1  0
  3 47  1  0
  4 48  1  0
  5 49  1  0
  5 50  1  0
  6 51  1  0
  6 52  1  0
  7 53  1  0
  7 54  1  0
  8 55  1  0
  8 56  1  0
  9 57  1  0
  9 58  1  0
 10 59  1  0
 13 60  1  0
 13 61  1  0
 14 62  1  0
 14 63  1  0
 15 64  1  0
 15 65  1  0
 16 66  1  0
 16 67  1  0
 21 68  1  0
 22 69  1  0
 23 70  1  0
 24 71  1  0
 25 72  1  0
 25 73  1  0
 26 74  1  0
 26 75  1  0
 27 76  1  0
 27 77  1  0
 28 78  1  0
 31 79  1  0
 31 80  1  0
 32 81  1  0
 32 82  1  0
 33 83  1  0
 33 84  1  0
 34 85  1  0
 34 86  1  0
 39 87  1  0
 40 88  1  0
 41 89  1  0
 42 90  1  0
M  CHG  2   1   1   4   1
M  END
>  <score>  (1) 
-12.328

$$$$
=
     RDKit          3D

 90 96  0  0  0  0  0  0  0  0999 V2000
    2.1090   64.1370   69.8940 N   0  0  0  0  0  4  0  0  0  0  0  0
    1.6290   62.7000   69.7820 C   0  0  0  0  0  0  0  0  0  0  0  0
    2.7050   61.8180   69.1000 C   0  0  0  0  0  0  0  0  0  0  0  0
    4.0470   61.8770   69.8350 N   0  0  0  0  0  4  0  0  0  0  0  0
    4.5170   63.3250   70.0210 C   0  0  0  0  0  0  0  0  0  0  0  0
    3.4300   64.2310   70.6550 C   0  0  0  0  0  0  0  0  0  0  0  0
    1.0830   65.1200   70.4270 C   0  0  0  0  0  0  0  0  0  0  0  0
    1.3310   66.5730   70.0080 C   0  0  0  0  0  0  0  0  0  0  0  0
    0.6660   67.0710   68.7210 C   0  0  0  0  0  0  0  0  0  0  0  0
    0.9830   68.4820   68.4810 N   0  0  0  0  0  0  0  0  0  0  0  0
    1.8480   68.8270   67.4080 C   0  0  0  0  0  0  0  0  0  0  0  0
    1.5710   68.6060   66.0550 C   0  0  0  0  0  0  0  0  0  0  0  0
    0.2350   68.2160   65.4700 C   0  0  0  0  0  0  0  0  0  0  0  0
   -0.0620   68.9980   64.1870 C   0  0  0  0  0  0  0  0  0  0  0  0
    1.0930   69.0340   63.1790 C   0  0  0  0  0  0  0  0  0  0  0  0
    2.3950   68.4320   63.6980 C   0  0  0  0  0  0  0  0  0  0  0  0
    2.6200   68.7770   65.1470 C   0  0  0  0  0  0  0  0  0  0  0  0
    3.8490   69.2090   65.5000 N   0  0  0  0  0  0  0  0  0  0  0  0
    4.0310   69.6610   66.7420 C   0  0  0  0  0  0  0  0  0  0  0  0
    3.0570   69.5040   67.7480 C   0  0  0  0  0  0  0  0  0  0  0  0
    3.3400   70.0000   69.0450 C   0  0  0  0  0  0  0  0  0  0  0  0
    4.5510   70.6260   69.3370 C   0  0  0  0  0  0  0  0  0  0  0  0
    5.5050   70.7590   68.3390 C   0  0  0  0  0  0  0  0  0  0  0  0
    5.2380   70.2740   67.0570 C   0  0  0  0  0  0  0  0  0  0  0  0
    4.0840   61.0240   71.1010 C   0  0  0  0  0  0  0  0  0  0  0  0
    4.1560   59.5350   70.7820 C   0  0  0  0  0  0  0  0  0  0  0  0
    2.9570   58.7470   71.3220 C   0  0  0  0  0  0  0  0  0  0  0  0
    2.8470   58.8860   72.7750 N   0  0  0  0  0  0  0  0  0  0  0  0
    1.5190   58.6720   73.2640 C   0  0  0  0  0  0  0  0  0  0  0  0
    0.6550   59.7720   73.3530 C   0  0  0  0  0  0  0  0  0  0  0  0
    1.0560   61.1990   73.0860 C   0  0  0  0  0  0  0  0  0  0  0  0
    0.4710   62.1500   74.1340 C   0  0  0  0  0  0  0  0  0  0  0  0
   -0.9930   61.8740   74.5080 C   0  0  0  0  0  0  0  0  0  0  0  0
   -1.6230   60.7030   73.7570 C   0  0  0  0  0  0  0  0  0  0  0  0
   -0.6730   59.5360   73.6980 C   0  0  0  0  0  0  0  0  0  0  0  0
   -1.1670   58.3090   73.9540 N   0  0  0  0  0  0  0  0  0  0  0  0
   -0.3310   57.2640   73.9480 C   0  0  0  0  0  0  0  0  0  0  0  0
    1.0380   57.3760   73.6180 C   0  0  0  0  0  0  0  0  0  0  0  0
    1.8380   56.2050   73.6700 C   0  0  0  0  0  0  0  0  0  0  0  0
    1.2960   54.9670   74.0140 C   0  0  0  0  0  0  0  0  0  0  0  0
   -0.0540   54.8730   74.3140 C   0  0  0  0  0  0  0  0  0  0  0  0
   -0.8480   56.0190   74.2790 C   0  0  0  0  0  0  0  0  0  0  0  0
    2.2686   64.4339   68.9207 H   0  0  0  0  0  0  0  0  0  0  0  0
    1.4247   62.3074   70.7891 H   0  0  0  0  0  0  0  0  0  0  0  0
    0.7136   62.6780   69.1725 H   0  0  0  0  0  0  0  0  0  0  0  0
    2.3533   60.7758   69.0865 H   0  0  0  0  0  0  0  0  0  0  0  0
    2.8598   62.1996   68.0800 H   0  0  0  0  0  0  0  0  0  0  0  0
    4.7499   61.4301   69.2292 H   0  0  0  0  0  0  0  0  0  0  0  0
    5.4015   63.3265   70.6750 H   0  0  0  0  0  0  0  0  0  0  0  0
    4.7468   63.7300   69.0244 H   0  0  0  0  0  0  0  0  0  0  0  0
    3.2657   63.9169   71.6963 H   0  0  0  0  0  0  0  0  0  0  0  0
    3.7803   65.2728   70.6108 H   0  0  0  0  0  0  0  0  0  0  0  0
    0.0916   64.8186   70.0578 H   0  0  0  0  0  0  0  0  0  0  0  0
    1.1554   65.0898   71.5242 H   0  0  0  0  0  0  0  0  0  0  0  0
    0.9787   67.2153   70.8286 H   0  0  0  0  0  0  0  0  0  0  0  0
    2.4096   66.6191   69.7970 H   0  0  0  0  0  0  0  0  0  0  0  0
    1.0281   66.4712   67.8730 H   0  0  0  0  0  0  0  0  0  0  0  0
   -0.4242   66.9685   68.8261 H   0  0  0  0  0  0  0  0  0  0  0  0
    0.5830   69.2153   69.0837 H   0  0  0  0  0  0  0  0  0  0  0  0
    0.2453   67.1405   65.2395 H   0  0  0  0  0  0  0  0  0  0  0  0
   -0.5475   68.4493   66.2071 H   0  0  0  0  0  0  0  0  0  0  0  0
   -0.9310   68.5351   63.6965 H   0  0  0  0  0  0  0  0  0  0  0  0
   -0.2422   70.0395   64.4916 H   0  0  0  0  0  0  0  0  0  0  0  0
    0.7868   68.4736   62.2833 H   0  0  0  0  0  0  0  0  0  0  0  0
    1.2966   70.0945   62.9694 H   0  0  0  0  0  0  0  0  0  0  0  0
    2.3504   67.3379   63.5932 H   0  0  0  0  0  0  0  0  0  0  0  0
    3.2271   68.8465   63.1099 H   0  0  0  0  0  0  0  0  0  0  0  0
    2.5872   69.8886   69.8393 H   0  0  0  0  0  0  0  0  0  0  0  0
    4.7479   71.0105   70.3486 H   0  0  0  0  0  0  0  0  0  0  0  0
    6.4678   71.2445   68.5564 H   0  0  0  0  0  0  0  0  0  0  0  0
    6.0041   70.3800   66.2748 H   0  0  0  0  0  0  0  0  0  0  0  0
    4.9681   61.3040   71.6926 H   0  0  0  0  0  0  0  0  0  0  0  0
    3.1562   61.2076   71.6627 H   0  0  0  0  0  0  0  0  0  0  0  0
    4.1926   59.4121   69.6895 H   0  0  0  0  0  0  0  0  0  0  0  0
    5.0576   59.1374   71.2709 H   0  0  0  0  0  0  0  0  0  0  0  0
    2.0369   59.1271   70.8540 H   0  0  0  0  0  0  0  0  0  0  0  0
    3.1013   57.6831   71.0825 H   0  0  0  0  0  0  0  0  0  0  0  0
    3.6452   59.1149   73.3844 H   0  0  0  0  0  0  0  0  0  0  0  0
    2.1533   61.2725   73.1090 H   0  0  0  0  0  0  0  0  0  0  0  0
    0.6656   61.4892   72.0994 H   0  0  0  0  0  0  0  0  0  0  0  0
    1.0787   62.0686   75.0472 H   0  0  0  0  0  0  0  0  0  0  0  0
    0.4924   63.1548   73.6868 H   0  0  0  0  0  0  0  0  0  0  0  0
   -1.0383   61.6568   75.5854 H   0  0  0  0  0  0  0  0  0  0  0  0
   -1.5643   62.7716   74.2286 H   0  0  0  0  0  0  0  0  0  0  0  0
   -2.5426   60.3942   74.2756 H   0  0  0  0  0  0  0  0  0  0  0  0
   -1.8534   61.0239   72.7304 H   0  0  0  0  0  0  0  0  0  0  0  0
    2.9100   56.2755   73.4336 H   0  0  0  0  0  0  0  0  0  0  0  0
    1.9348   54.0721   74.0470 H   0  0  0  0  0  0  0  0  0  0  0  0
   -0.4961   53.9010   74.5779 H   0  0  0  0  0  0  0  0  0  0  0  0
   -1.9176   55.9336   74.5213 H   0  0  0  0  0  0  0  0  0  0  0  0
  2  1  1  0
  3  2  1  0
  4  3  1  0
  5  4  1  0
  6  5  1  0
  6  1  1  0
  7  1  1  0
  8  7  1  0
  9  8  1  0
 10  9  1  0
 11 10  1  0
 12 11  1  0
 13 12  1  0
 14 13  1  0
 15 14  1  0
 16 15  1  0
 17 16  1  0
 17 12  2  0
 18 17  1  0
 19 18  2  0
 20 19  1  0
 20 11  2  0
 21 20  1  0
 22 21  2  0
 23 22  1  0
 24 19  1  0
 24 23  2  0
 25  4  1  0
 26 25  1  0
 27 26  1  0
 28 27  1  0
 29 28  1  0
 30 29  1  0
 31 30  1  0
 32 31  1  0
 33 32  1  0
 34 33  1  0
 35 34  1  0
 35 30  2  0
 36 35  1  0
 37 36  2  0
 38 37  1  0
 38 29  2  0
 39 38  1  0
 40 39  2  0
 41 40  1  0
 42 37  1  0
 42 41  2  0
  1 43  1  0
  2 44  1  0
  2 45  1  0
  3 46  1  0
  3 47  1  0
  4 48  1  0
  5 49  1  0
  5 50  1  0
  6 51  1  0
  6 52  1  0
  7 53  1  0
  7 54  1  0
  8 55  1  0
  8 56  1  0
  9 57  1  0
  9 58  1  0
 10 59  1  0
 13 60  1  0
 13 61  1  0
 14 62  1  0
 14 63  1  0
 15 64  1  0
 15 65  1  0
 16 66  1  0
 16 67  1  0
 21 68  1  0
 22 69  1  0
 23 70  1  0
 24 71  1  0
 25 72  1  0
 25 73  1  0
 26 74  1  0
 26 75  1  0
 27 76  1  0
 27 77  1  0
 28 78  1  0
 31 79  1  0
 31 80  1  0
 32 81  1  0
 32 82  1  0
 33 83  1  0
 33 84  1  0
 34 85  1  0
 34 86  1  0
 39 87  1  0
 40 88  1  0
 41 89  1  0
 42 90  1  0
M  CHG  2   1   1   4   1
M  END
>  <score>  (2) 
-11.958

$$$$
=
     RDKit          3D

 90 96  0  0  0  0  0  0  0  0999 V2000
    0.9160   65.4450   70.0670 N   0  0  0  0  0  4  0  0  0  0  0  0
    0.3560   65.3390   71.4760 C   0  0  0  0  0  0  0  0  0  0  0  0
    0.0230   63.8640   71.8190 C   0  0  0  0  0  0  0  0  0  0  0  0
    1.2400   62.9480   71.6570 N   0  0  0  0  0  4  0  0  0  0  0  0
    1.8640   63.0910   70.2640 C   0  0  0  0  0  0  0  0  0  0  0  0
    2.1530   64.5680   69.8860 C   0  0  0  0  0  0  0  0  0  0  0  0
    1.1550   66.8590   69.5730 C   0  0  0  0  0  0  0  0  0  0  0  0
    0.3210   67.2430   68.3460 C   0  0  0  0  0  0  0  0  0  0  0  0
    1.0290   67.3000   66.9890 C   0  0  0  0  0  0  0  0  0  0  0  0
    1.4080   68.6750   66.6530 N   0  0  0  0  0  0  0  0  0  0  0  0
    2.5860   68.9060   65.8920 C   0  0  0  0  0  0  0  0  0  0  0  0
    2.7290   68.6150   64.5310 C   0  0  0  0  0  0  0  0  0  0  0  0
    1.6180   68.2600   63.5740 C   0  0  0  0  0  0  0  0  0  0  0  0
    1.7900   68.9740   62.2300 C   0  0  0  0  0  0  0  0  0  0  0  0
    3.2000   68.8850   61.6360 C   0  0  0  0  0  0  0  0  0  0  0  0
    4.2310   68.2490   62.5630 C   0  0  0  0  0  0  0  0  0  0  0  0
    4.0180   68.6730   63.9940 C   0  0  0  0  0  0  0  0  0  0  0  0
    5.1030   69.0610   64.6960 N   0  0  0  0  0  0  0  0  0  0  0  0
    4.9210   69.5800   65.9110 C   0  0  0  0  0  0  0  0  0  0  0  0
    3.6740   69.5380   66.5650 C   0  0  0  0  0  0  0  0  0  0  0  0
    3.5720   70.1000   67.8630 C   0  0  0  0  0  0  0  0  0  0  0  0
    4.6730   70.6780   68.4930 C   0  0  0  0  0  0  0  0  0  0  0  0
    5.8980   70.6980   67.8410 C   0  0  0  0  0  0  0  0  0  0  0  0
    6.0090   70.1470   66.5630 C   0  0  0  0  0  0  0  0  0  0  0  0
    2.2300   63.0430   72.8160 C   0  0  0  0  0  0  0  0  0  0  0  0
    1.5460   62.8590   74.1660 C   0  0  0  0  0  0  0  0  0  0  0  0
    0.8790   61.4880   74.3190 C   0  0  0  0  0  0  0  0  0  0  0  0
    1.8690   60.4510   74.6180 N   0  0  0  0  0  0  0  0  0  0  0  0
    1.7150   59.2750   73.8170 C   0  0  0  0  0  0  0  0  0  0  0  0
    2.6070   59.0690   72.7550 C   0  0  0  0  0  0  0  0  0  0  0  0
    3.6510   60.0600   72.3110 C   0  0  0  0  0  0  0  0  0  0  0  0
    3.7030   60.1700   70.7840 C   0  0  0  0  0  0  0  0  0  0  0  0
    3.6220   58.8290   70.0390 C   0  0  0  0  0  0  0  0  0  0  0  0
    3.5180   57.6090   70.9510 C   0  0  0  0  0  0  0  0  0  0  0  0
    2.5390   57.8610   72.0670 C   0  0  0  0  0  0  0  0  0  0  0  0
    1.6600   56.8840   72.3660 N   0  0  0  0  0  0  0  0  0  0  0  0
    0.7550   57.1050   73.3270 C   0  0  0  0  0  0  0  0  0  0  0  0
    0.7190   58.2920   74.0920 C   0  0  0  0  0  0  0  0  0  0  0  0
   -0.3030   58.4290   75.0670 C   0  0  0  0  0  0  0  0  0  0  0  0
   -1.2390   57.4200   75.2900 C   0  0  0  0  0  0  0  0  0  0  0  0
   -1.1750   56.2540   74.5430 C   0  0  0  0  0  0  0  0  0  0  0  0
   -0.1830   56.1120   73.5720 C   0  0  0  0  0  0  0  0  0  0  0  0
    0.1649   65.0837   69.4618 H   0  0  0  0  0  0  0  0  0  0  0  0
    1.1013   65.7175   72.1911 H   0  0  0  0  0  0  0  0  0  0  0  0
   -0.5662   65.9354   71.5379 H   0  0  0  0  0  0  0  0  0  0  0  0
   -0.3246   63.8116   72.8613 H   0  0  0  0  0  0  0  0  0  0  0  0
   -0.7556   63.5207   71.1220 H   0  0  0  0  0  0  0  0  0  0  0  0
    0.9036   61.9761   71.7137 H   0  0  0  0  0  0  0  0  0  0  0  0
    2.8104   62.5308   70.2432 H   0  0  0  0  0  0  0  0  0  0  0  0
    1.1416   62.6965   69.5343 H   0  0  0  0  0  0  0  0  0  0  0  0
    2.9593   64.9503   70.5293 H   0  0  0  0  0  0  0  0  0  0  0  0
    2.4475   64.6016   68.8267 H   0  0  0  0  0  0  0  0  0  0  0  0
    0.9106   67.5556   70.3885 H   0  0  0  0  0  0  0  0  0  0  0  0
    2.2106   66.9143   69.2687 H   0  0  0  0  0  0  0  0  0  0  0  0
   -0.4934   66.5086   68.2603 H   0  0  0  0  0  0  0  0  0  0  0  0
    0.0078   68.2798   68.5381 H   0  0  0  0  0  0  0  0  0  0  0  0
    1.9344   66.6766   67.0290 H   0  0  0  0  0  0  0  0  0  0  0  0
    0.3392   66.9276   66.2173 H   0  0  0  0  0  0  0  0  0  0  0  0
    0.8267   69.4660   66.9651 H   0  0  0  0  0  0  0  0  0  0  0  0
    1.6243   67.1730   63.4054 H   0  0  0  0  0  0  0  0  0  0  0  0
    0.6634   68.5803   64.0170 H   0  0  0  0  0  0  0  0  0  0  0  0
    1.0864   68.5277   61.5119 H   0  0  0  0  0  0  0  0  0  0  0  0
    1.5972   70.0407   62.4168 H   0  0  0  0  0  0  0  0  0  0  0  0
    3.1489   68.2862   60.7147 H   0  0  0  0  0  0  0  0  0  0  0  0
    3.5323   69.9180   61.4556 H   0  0  0  0  0  0  0  0  0  0  0  0
    4.1447   67.1544   62.4972 H   0  0  0  0  0  0  0  0  0  0  0  0
    5.2315   68.5807   62.2484 H   0  0  0  0  0  0  0  0  0  0  0  0
    2.6033   70.0794   68.3838 H   0  0  0  0  0  0  0  0  0  0  0  0
    4.5718   71.1143   69.4977 H   0  0  0  0  0  0  0  0  0  0  0  0
    6.7767   71.1455   68.3285 H   0  0  0  0  0  0  0  0  0  0  0  0
    6.9860   70.1622   66.0577 H   0  0  0  0  0  0  0  0  0  0  0  0
    2.9944   62.2613   72.6954 H   0  0  0  0  0  0  0  0  0  0  0  0
    2.6812   64.0460   72.7969 H   0  0  0  0  0  0  0  0  0  0  0  0
    2.2999   62.9721   74.9589 H   0  0  0  0  0  0  0  0  0  0  0  0
    0.7544   63.6193   74.2394 H   0  0  0  0  0  0  0  0  0  0  0  0
    0.1476   61.5338   75.1393 H   0  0  0  0  0  0  0  0  0  0  0  0
    0.3815   61.2336   73.3715 H   0  0  0  0  0  0  0  0  0  0  0  0
    2.6026   60.5574   75.3331 H   0  0  0  0  0  0  0  0  0  0  0  0
    3.4102   61.0469   72.7330 H   0  0  0  0  0  0  0  0  0  0  0  0
    4.6321   59.7124   72.6668 H   0  0  0  0  0  0  0  0  0  0  0  0
    2.8589   60.7949   70.4569 H   0  0  0  0  0  0  0  0  0  0  0  0
    4.6839   60.6026   70.5377 H   0  0  0  0  0  0  0  0  0  0  0  0
    2.7353   58.8494   69.3884 H   0  0  0  0  0  0  0  0  0  0  0  0
    4.5619   58.7233   69.4774 H   0  0  0  0  0  0  0  0  0  0  0  0
    3.1785   56.7449   70.3610 H   0  0  0  0  0  0  0  0  0  0  0  0
    4.5076   57.4080   71.3872 H   0  0  0  0  0  0  0  0  0  0  0  0
   -0.3580   59.3532   75.6609 H   0  0  0  0  0  0  0  0  0  0  0  0
   -2.0217   57.5481   76.0523 H   0  0  0  0  0  0  0  0  0  0  0  0
   -1.9014   55.4460   74.7146 H   0  0  0  0  0  0  0  0  0  0  0  0
   -0.1432   55.1842   72.9824 H   0  0  0  0  0  0  0  0  0  0  0  0
  2  1  1  0
  3  2  1  0
  4  3  1  0
  5  4  1  0
  6  5  1  0
  6  1  1  0
  7  1  1  0
  8  7  1  0
  9  8  1  0
 10  9  1  0
 11 10  1  0
 12 11  1  0
 13 12  1  0
 14 13  1  0
 15 14  1  0
 16 15  1  0
 17 16  1  0
 17 12  2  0
 18 17  1  0
 19 18  2  0
 20 19  1  0
 20 11  2  0
 21 20  1  0
 22 21  2  0
 23 22  1  0
 24 19  1  0
 24 23  2  0
 25  4  1  0
 26 25  1  0
 27 26  1  0
 28 27  1  0
 29 28  1  0
 30 29  1  0
 31 30  1  0
 32 31  1  0
 33 32  1  0
 34 33  1  0
 35 34  1  0
 35 30  2  0
 36 35  1  0
 37 36  2  0
 38 37  1  0
 38 29  2  0
 39 38  1  0
 40 39  2  0
 41 40  1  0
 42 37  1  0
 42 41  2  0
  1 43  1  0
  2 44  1  0
  2 45  1  0
  3 46  1  0
  3 47  1  0
  4 48  1  0
  5 49  1  0
  5 50  1  0
  6 51  1  0
  6 52  1  0
  7 53  1  0
  7 54  1  0
  8 55  1  0
  8 56  1  0
  9 57  1  0
  9 58  1  0
 10 59  1  0
 13 60  1  0
 13 61  1  0
 14 62  1  0
 14 63  1  0
 15 64  1  0
 15 65  1  0
 16 66  1  0
 16 67  1  0
 21 68  1  0
 22 69  1  0
 23 70  1  0
 24 71  1  0
 25 72  1  0
 25 73  1  0
 26 74  1  0
 26 75  1  0
 27 76  1  0
 27 77  1  0
 28 78  1  0
 31 79  1  0
 31 80  1  0
 32 81  1  0
 32 82  1  0
 33 83  1  0
 33 84  1  0
 34 85  1  0
 34 86  1  0
 39 87  1  0
 40 88  1  0
 41 89  1  0
 42 90  1  0
M  CHG  2   1   1   4   1
M  END
>  <score>  (3) 
-11.55

$$$$
=
     RDKit          3D

 90 96  0  0  0  0  0  0  0  0999 V2000
    1.2150   65.1280   70.1790 N   0  0  0  0  0  4  0  0  0  0  0  0
    0.2700   64.9420   71.3550 C   0  0  0  0  0  0  0  0  0  0  0  0
    0.0160   63.4350   71.6150 C   0  0  0  0  0  0  0  0  0  0  0  0
    1.3190   62.6650   71.8480 N   0  0  0  0  0  4  0  0  0  0  0  0
    2.3150   62.8950   70.7050 C   0  0  0  0  0  0  0  0  0  0  0  0
    2.5390   64.3990   70.4000 C   0  0  0  0  0  0  0  0  0  0  0  0
    1.4320   66.5670   69.7490 C   0  0  0  0  0  0  0  0  0  0  0  0
    0.3340   67.1200   68.8350 C   0  0  0  0  0  0  0  0  0  0  0  0
    0.6730   67.3370   67.3570 C   0  0  0  0  0  0  0  0  0  0  0  0
    1.1750   68.6950   67.1290 N   0  0  0  0  0  0  0  0  0  0  0  0
    2.2860   68.8890   66.2650 C   0  0  0  0  0  0  0  0  0  0  0  0
    2.3030   68.5810   64.9000 C   0  0  0  0  0  0  0  0  0  0  0  0
    1.1030   68.2440   64.0490 C   0  0  0  0  0  0  0  0  0  0  0  0
    1.1740   68.9400   62.6860 C   0  0  0  0  0  0  0  0  0  0  0  0
    2.5240   68.8110   61.9720 C   0  0  0  0  0  0  0  0  0  0  0  0
    3.6170   68.1590   62.8120 C   0  0  0  0  0  0  0  0  0  0  0  0
    3.5400   68.6020   64.2510 C   0  0  0  0  0  0  0  0  0  0  0  0
    4.6920   68.9700   64.8510 N   0  0  0  0  0  0  0  0  0  0  0  0
    4.6300   69.5050   66.0710 C   0  0  0  0  0  0  0  0  0  0  0  0
    3.4440   69.5000   66.8330 C   0  0  0  0  0  0  0  0  0  0  0  0
    3.4710   70.0770   68.1270 C   0  0  0  0  0  0  0  0  0  0  0  0
    4.6360   70.6340   68.6510 C   0  0  0  0  0  0  0  0  0  0  0  0
    5.7990   70.6170   67.8950 C   0  0  0  0  0  0  0  0  0  0  0  0
    5.7840   70.0520   66.6180 C   0  0  0  0  0  0  0  0  0  0  0  0
    1.8950   62.8570   73.2490 C   0  0  0  0  0  0  0  0  0  0  0  0
    0.8270   62.7190   74.3280 C   0  0  0  0  0  0  0  0  0  0  0  0
    0.5670   61.2640   74.7340 C   0  0  0  0  0  0  0  0  0  0  0  0
    1.8220   60.5210   74.8630 N   0  0  0  0  0  0  0  0  0  0  0  0
    1.7560   59.2000   74.3170 C   0  0  0  0  0  0  0  0  0  0  0  0
    1.0240   58.2260   75.0120 C   0  0  0  0  0  0  0  0  0  0  0  0
    0.3960   58.4320   76.3650 C   0  0  0  0  0  0  0  0  0  0  0  0
    0.6230   57.2220   77.2770 C   0  0  0  0  0  0  0  0  0  0  0  0
    0.4310   55.8580   76.5960 C   0  0  0  0  0  0  0  0  0  0  0  0
    0.0320   55.9420   75.1240 C   0  0  0  0  0  0  0  0  0  0  0  0
    0.8500   56.9840   74.4090 C   0  0  0  0  0  0  0  0  0  0  0  0
    1.3490   56.6690   73.1980 N   0  0  0  0  0  0  0  0  0  0  0  0
    2.1140   57.5660   72.5630 C   0  0  0  0  0  0  0  0  0  0  0  0
    2.3680   58.8580   73.0750 C   0  0  0  0  0  0  0  0  0  0  0  0
    3.2160   59.7190   72.3300 C   0  0  0  0  0  0  0  0  0  0  0  0
    3.7720   59.3200   71.1140 C   0  0  0  0  0  0  0  0  0  0  0  0
    3.4940   58.0560   70.6190 C   0  0  0  0  0  0  0  0  0  0  0  0
    2.6720   57.1960   71.3480 C   0  0  0  0  0  0  0  0  0  0  0  0
    0.7286   64.6910   69.3832 H   0  0  0  0  0  0  0  0  0  0  0  0
    0.7164   65.3940   72.2530 H   0  0  0  0  0  0  0  0  0  0  0  0
   -0.6883   65.4290   71.1215 H   0  0  0  0  0  0  0  0  0  0  0  0
   -0.6220   63.3309   72.5050 H   0  0  0  0  0  0  0  0  0  0  0  0
   -0.4723   63.0142   70.7237 H   0  0  0  0  0  0  0  0  0  0  0  0
    1.0921   61.6606   71.8222 H   0  0  0  0  0  0  0  0  0  0  0  0
    3.2795   62.4448   70.9827 H   0  0  0  0  0  0  0  0  0  0  0  0
    1.8952   62.4314   69.8001 H   0  0  0  0  0  0  0  0  0  0  0  0
    3.0645   64.8615   71.2485 H   0  0  0  0  0  0  0  0  0  0  0  0
    3.1355   64.4796   69.4793 H   0  0  0  0  0  0  0  0  0  0  0  0
    1.4780   67.1939   70.6517 H   0  0  0  0  0  0  0  0  0  0  0  0
    2.3666   66.5869   69.1692 H   0  0  0  0  0  0  0  0  0  0  0  0
   -0.5118   66.4179   68.8774 H   0  0  0  0  0  0  0  0  0  0  0  0
    0.1348   68.1297   69.2232 H   0  0  0  0  0  0  0  0  0  0  0  0
    1.4436   66.6127   67.0542 H   0  0  0  0  0  0  0  0  0  0  0  0
   -0.2417   67.1962   66.7625 H   0  0  0  0  0  0  0  0  0  0  0  0
    0.7272   69.4999   67.5901 H   0  0  0  0  0  0  0  0  0  0  0  0
    1.0679   67.1555   63.8941 H   0  0  0  0  0  0  0  0  0  0  0  0
    0.1990   68.5923   64.5700 H   0  0  0  0  0  0  0  0  0  0  0  0
    0.4000   68.5037   62.0375 H   0  0  0  0  0  0  0  0  0  0  0  0
    1.0238   70.0130   62.8762 H   0  0  0  0  0  0  0  0  0  0  0  0
    2.3781   68.2050   61.0657 H   0  0  0  0  0  0  0  0  0  0  0  0
    2.8634   69.8339   61.7515 H   0  0  0  0  0  0  0  0  0  0  0  0
    3.4997   67.0662   62.7668 H   0  0  0  0  0  0  0  0  0  0  0  0
    4.5936   68.4628   62.4071 H   0  0  0  0  0  0  0  0  0  0  0  0
    2.5519   70.0854   68.7313 H   0  0  0  0  0  0  0  0  0  0  0  0
    4.6334   71.0831   69.6551 H   0  0  0  0  0  0  0  0  0  0  0  0
    6.7277   71.0461   68.2991 H   0  0  0  0  0  0  0  0  0  0  0  0
    6.7125   70.0397   66.0283 H   0  0  0  0  0  0  0  0  0  0  0  0
    2.6733   62.0987   73.4203 H   0  0  0  0  0  0  0  0  0  0  0  0
    2.3107   63.8736   73.3097 H   0  0  0  0  0  0  0  0  0  0  0  0
    1.1537   63.2776   75.2175 H   0  0  0  0  0  0  0  0  0  0  0  0
   -0.1112   63.1166   73.9136 H   0  0  0  0  0  0  0  0  0  0  0  0
    0.0397   61.2490   75.6992 H   0  0  0  0  0  0  0  0  0  0  0  0
   -0.0431   60.7868   73.9530 H   0  0  0  0  0  0  0  0  0  0  0  0
    2.6680   60.9104   75.3029 H   0  0  0  0  0  0  0  0  0  0  0  0
    0.8406   59.3221   76.8341 H   0  0  0  0  0  0  0  0  0  0  0  0
   -0.6874   58.5632   76.2273 H   0  0  0  0  0  0  0  0  0  0  0  0
    1.6526   57.2711   77.6610 H   0  0  0  0  0  0  0  0  0  0  0  0
   -0.1383   57.2832   78.0686 H   0  0  0  0  0  0  0  0  0  0  0  0
    1.3775   55.3019   76.6653 H   0  0  0  0  0  0  0  0  0  0  0  0
   -0.3974   55.3580   77.1193 H   0  0  0  0  0  0  0  0  0  0  0  0
    0.1980   54.9640   74.6486 H   0  0  0  0  0  0  0  0  0  0  0  0
   -1.0299   56.2219   75.0611 H   0  0  0  0  0  0  0  0  0  0  0  0
    3.4397   60.7229   72.7200 H   0  0  0  0  0  0  0  0  0  0  0  0
    4.4259   60.0036   70.5527 H   0  0  0  0  0  0  0  0  0  0  0  0
    3.9187   57.7326   69.6572 H   0  0  0  0  0  0  0  0  0  0  0  0
    2.4599   56.1939   70.9470 H   0  0  0  0  0  0  0  0  0  0  0  0
  2  1  1  0
  3  2  1  0
  4  3  1  0
  5  4  1  0
  6  5  1  0
  6  1  1  0
  7  1  1  0
  8  7  1  0
  9  8  1  0
 10  9  1  0
 11 10  1  0
 12 11  1  0
 13 12  1  0
 14 13  1  0
 15 14  1  0
 16 15  1  0
 17 16  1  0
 17 12  2  0
 18 17  1  0
 19 18  2  0
 20 19  1  0
 20 11  2  0
 21 20  1  0
 22 21  2  0
 23 22  1  0
 24 19  1  0
 24 23  2  0
 25  4  1  0
 26 25  1  0
 27 26  1  0
 28 27  1  0
 29 28  1  0
 30 29  1  0
 31 30  1  0
 32 31  1  0
 33 32  1  0
 34 33  1  0
 35 34  1  0
 35 30  2  0
 36 35  1  0
 37 36  2  0
 38 37  1  0
 38 29  2  0
 39 38  1  0
 40 39  2  0
 41 40  1  0
 42 37  1  0
 42 41  2  0
  1 43  1  0
  2 44  1  0
  2 45  1  0
  3 46  1  0
  3 47  1  0
  4 48  1  0
  5 49  1  0
  5 50  1  0
  6 51  1  0
  6 52  1  0
  7 53  1  0
  7 54  1  0
  8 55  1  0
  8 56  1  0
  9 57  1  0
  9 58  1  0
 10 59  1  0
 13 60  1  0
 13 61  1  0
 14 62  1  0
 14 63  1  0
 15 64  1  0
 15 65  1  0
 16 66  1  0
 16 67  1  0
 21 68  1  0
 22 69  1  0
 23 70  1  0
 24 71  1  0
 25 72  1  0
 25 73  1  0
 26 74  1  0
 26 75  1  0
 27 76  1  0
 27 77  1  0
 28 78  1  0
 31 79  1  0
 31 80  1  0
 32 81  1  0
 32 82  1  0
 33 83  1  0
 33 84  1  0
 34 85  1  0
 34 86  1  0
 39 87  1  0
 40 88  1  0
 41 89  1  0
 42 90  1  0
M  CHG  2   1   1   4   1
M  END
>  <score>  (4) 
-11.369

$$$$
=
     RDKit          3D

 90 96  0  0  0  0  0  0  0  0999 V2000
    0.7990   64.6140   70.4850 N   0  0  0  0  0  4  0  0  0  0  0  0
    0.4590   63.8370   71.7460 C   0  0  0  0  0  0  0  0  0  0  0  0
    0.7920   62.3350   71.5640 C   0  0  0  0  0  0  0  0  0  0  0  0
    2.2570   62.1130   71.1780 N   0  0  0  0  0  4  0  0  0  0  0  0
    2.6410   62.9430   69.9470 C   0  0  0  0  0  0  0  0  0  0  0  0
    2.2660   64.4410   70.0950 C   0  0  0  0  0  0  0  0  0  0  0  0
    0.3920   66.0760   70.4990 C   0  0  0  0  0  0  0  0  0  0  0  0
    1.1460   66.9460   69.4880 C   0  0  0  0  0  0  0  0  0  0  0  0
    0.3770   67.4520   68.2640 C   0  0  0  0  0  0  0  0  0  0  0  0
    0.7940   68.8120   67.9090 N   0  0  0  0  0  0  0  0  0  0  0  0
    1.8590   68.9930   66.9870 C   0  0  0  0  0  0  0  0  0  0  0  0
    1.8030   68.6730   65.6260 C   0  0  0  0  0  0  0  0  0  0  0  0
    0.5600   68.3310   64.8420 C   0  0  0  0  0  0  0  0  0  0  0  0
    0.5620   69.0140   63.4700 C   0  0  0  0  0  0  0  0  0  0  0  0
    1.8730   68.8730   62.6880 C   0  0  0  0  0  0  0  0  0  0  0  0
    3.0060   68.2260   63.4770 C   0  0  0  0  0  0  0  0  0  0  0  0
    3.0060   68.6830   64.9130 C   0  0  0  0  0  0  0  0  0  0  0  0
    4.1880   69.0530   65.4490 N   0  0  0  0  0  0  0  0  0  0  0  0
    4.1910   69.6000   66.6660 C   0  0  0  0  0  0  0  0  0  0  0  0
    3.0460   69.6070   67.4870 C   0  0  0  0  0  0  0  0  0  0  0  0
    3.1420   70.1970   68.7730 C   0  0  0  0  0  0  0  0  0  0  0  0
    4.3340   70.7550   69.2300 C   0  0  0  0  0  0  0  0  0  0  0  0
    5.4560   70.7260   68.4150 C   0  0  0  0  0  0  0  0  0  0  0  0
    5.3730   70.1480   67.1460 C   0  0  0  0  0  0  0  0  0  0  0  0
    3.2200   62.2310   72.3570 C   0  0  0  0  0  0  0  0  0  0  0  0
    2.5670   61.8170   73.6700 C   0  0  0  0  0  0  0  0  0  0  0  0
    2.8380   60.3540   74.0410 C   0  0  0  0  0  0  0  0  0  0  0  0
    1.7160   59.7840   74.7900 N   0  0  0  0  0  0  0  0  0  0  0  0
    2.0250   58.5270   75.4000 C   0  0  0  0  0  0  0  0  0  0  0  0
    1.6390   57.3520   74.7400 C   0  0  0  0  0  0  0  0  0  0  0  0
    0.8100   57.3090   73.4840 C   0  0  0  0  0  0  0  0  0  0  0  0
   -0.2630   56.2180   73.5600 C   0  0  0  0  0  0  0  0  0  0  0  0
    0.2160   54.8830   74.1500 C   0  0  0  0  0  0  0  0  0  0  0  0
    1.6900   54.8660   74.5480 C   0  0  0  0  0  0  0  0  0  0  0  0
    2.0620   56.1350   75.2690 C   0  0  0  0  0  0  0  0  0  0  0  0
    2.8150   56.0290   76.3800 N   0  0  0  0  0  0  0  0  0  0  0  0
    3.1220   57.1420   77.0590 C   0  0  0  0  0  0  0  0  0  0  0  0
    2.7470   58.4340   76.6270 C   0  0  0  0  0  0  0  0  0  0  0  0
    3.1020   59.5410   77.4400 C   0  0  0  0  0  0  0  0  0  0  0  0
    3.8200   59.3760   78.6240 C   0  0  0  0  0  0  0  0  0  0  0  0
    4.1970   58.1020   79.0200 C   0  0  0  0  0  0  0  0  0  0  0  0
    3.8420   57.0040   78.2370 C   0  0  0  0  0  0  0  0  0  0  0  0
    0.2118   64.1892   69.7531 H   0  0  0  0  0  0  0  0  0  0  0  0
    1.0436   64.2381   72.5871 H   0  0  0  0  0  0  0  0  0  0  0  0
   -0.6172   63.9408   71.9486 H   0  0  0  0  0  0  0  0  0  0  0  0
    0.5907   61.8099   72.5094 H   0  0  0  0  0  0  0  0  0  0  0  0
    0.1640   61.9449   70.7495 H   0  0  0  0  0  0  0  0  0  0  0  0
    2.3546   61.1283   70.8923 H   0  0  0  0  0  0  0  0  0  0  0  0
    3.7277   62.8655   69.7952 H   0  0  0  0  0  0  0  0  0  0  0  0
    2.0811   62.5433   69.0886 H   0  0  0  0  0  0  0  0  0  0  0  0
    2.8986   64.8928   70.8732 H   0  0  0  0  0  0  0  0  0  0  0  0
    2.4263   64.9348   69.1252 H   0  0  0  0  0  0  0  0  0  0  0  0
   -0.6829   66.1373   70.2734 H   0  0  0  0  0  0  0  0  0  0  0  0
    0.6398   66.4642   71.4979 H   0  0  0  0  0  0  0  0  0  0  0  0
    1.5184   67.8285   70.0288 H   0  0  0  0  0  0  0  0  0  0  0  0
    1.9179   66.2810   69.0733 H   0  0  0  0  0  0  0  0  0  0  0  0
    0.5724   66.7820   67.4138 H   0  0  0  0  0  0  0  0  0  0  0  0
   -0.6963   67.4652   68.5043 H   0  0  0  0  0  0  0  0  0  0  0  0
    0.3199   69.6270   68.3236 H   0  0  0  0  0  0  0  0  0  0  0  0
    0.5145   67.2412   64.6998 H   0  0  0  0  0  0  0  0  0  0  0  0
   -0.3151   68.6865   65.4058 H   0  0  0  0  0  0  0  0  0  0  0  0
   -0.2461   68.5744   62.8669 H   0  0  0  0  0  0  0  0  0  0  0  0
    0.4252   70.0893   63.6572 H   0  0  0  0  0  0  0  0  0  0  0  0
    1.6785   68.2582   61.7969 H   0  0  0  0  0  0  0  0  0  0  0  0
    2.2034   69.8923   62.4393 H   0  0  0  0  0  0  0  0  0  0  0  0
    2.8832   67.1332   63.4491 H   0  0  0  0  0  0  0  0  0  0  0  0
    3.9609   68.5230   63.0189 H   0  0  0  0  0  0  0  0  0  0  0  0
    2.2556   70.2145   69.4242 H   0  0  0  0  0  0  0  0  0  0  0  0
    4.3849   71.2144   70.2282 H   0  0  0  0  0  0  0  0  0  0  0  0
    6.4058   71.1557   68.7660 H   0  0  0  0  0  0  0  0  0  0  0  0
    6.2695   70.1264   66.5089 H   0  0  0  0  0  0  0  0  0  0  0  0
    4.0889   61.5823   72.1723 H   0  0  0  0  0  0  0  0  0  0  0  0
    3.5224   63.2850   72.4450 H   0  0  0  0  0  0  0  0  0  0  0  0
    2.9568   62.4599   74.4730 H   0  0  0  0  0  0  0  0  0  0  0  0
    1.4798   61.9280   73.5451 H   0  0  0  0  0  0  0  0  0  0  0  0
    2.9881   59.7716   73.1200 H   0  0  0  0  0  0  0  0  0  0  0  0
    3.7368   60.3146   74.6739 H   0  0  0  0  0  0  0  0  0  0  0  0
    0.7968   60.2419   74.8697 H   0  0  0  0  0  0  0  0  0  0  0  0
    0.3200   58.2840   73.3450 H   0  0  0  0  0  0  0  0  0  0  0  0
    1.4750   57.0824   72.6376 H   0  0  0  0  0  0  0  0  0  0  0  0
   -1.0875   56.5920   74.1847 H   0  0  0  0  0  0  0  0  0  0  0  0
   -0.5647   56.0078   72.5233 H   0  0  0  0  0  0  0  0  0  0  0  0
   -0.3853   54.6663   75.0452 H   0  0  0  0  0  0  0  0  0  0  0  0
    0.0937   54.1271   73.3603 H   0  0  0  0  0  0  0  0  0  0  0  0
    1.8753   54.0072   75.2099 H   0  0  0  0  0  0  0  0  0  0  0  0
    2.3011   54.7850   73.6370 H   0  0  0  0  0  0  0  0  0  0  0  0
    2.8039   60.5532   77.1292 H   0  0  0  0  0  0  0  0  0  0  0  0
    4.0849   60.2491   79.2384 H   0  0  0  0  0  0  0  0  0  0  0  0
    4.7727   57.9581   79.9462 H   0  0  0  0  0  0  0  0  0  0  0  0
    4.1421   55.9973   78.5634 H   0  0  0  0  0  0  0  0  0  0  0  0
  2  1  1  0
  3  2  1  0
  4  3  1  0
  5  4  1  0
  6  5  1  0
  6  1  1  0
  7  1  1  0
  8  7  1  0
  9  8  1  0
 10  9  1  0
 11 10  1  0
 12 11  1  0
 13 12  1  0
 14 13  1  0
 15 14  1  0
 16 15  1  0
 17 16  1  0
 17 12  2  0
 18 17  1  0
 19 18  2  0
 20 19  1  0
 20 11  2  0
 21 20  1  0
 22 21  2  0
 23 22  1  0
 24 19  1  0
 24 23  2  0
 25  4  1  0
 26 25  1  0
 27 26  1  0
 28 27  1  0
 29 28  1  0
 30 29  1  0
 31 30  1  0
 32 31  1  0
 33 32  1  0
 34 33  1  0
 35 34  1  0
 35 30  2  0
 36 35  1  0
 37 36  2  0
 38 37  1  0
 38 29  2  0
 39 38  1  0
 40 39  2  0
 41 40  1  0
 42 37  1  0
 42 41  2  0
  1 43  1  0
  2 44  1  0
  2 45  1  0
  3 46  1  0
  3 47  1  0
  4 48  1  0
  5 49  1  0
  5 50  1  0
  6 51  1  0
  6 52  1  0
  7 53  1  0
  7 54  1  0
  8 55  1  0
  8 56  1  0
  9 57  1  0
  9 58  1  0
 10 59  1  0
 13 60  1  0
 13 61  1  0
 14 62  1  0
 14 63  1  0
 15 64  1  0
 15 65  1  0
 16 66  1  0
 16 67  1  0
 21 68  1  0
 22 69  1  0
 23 70  1  0
 24 71  1  0
 25 72  1  0
 25 73  1  0
 26 74  1  0
 26 75  1  0
 27 76  1  0
 27 77  1  0
 28 78  1  0
 31 79  1  0
 31 80  1  0
 32 81  1  0
 32 82  1  0
 33 83  1  0
 33 84  1  0
 34 85  1  0
 34 86  1  0
 39 87  1  0
 40 88  1  0
 41 89  1  0
 42 90  1  0
M  CHG  2   1   1   4   1
M  END
>  <score>  (5) 
-11.342

$$$$
=
     RDKit          3D

 90 96  0  0  0  0  0  0  0  0999 V2000
    0.3990   63.9220   71.7470 N   0  0  0  0  0  4  0  0  0  0  0  0
   -0.2960   65.2700   71.8400 C   0  0  0  0  0  0  0  0  0  0  0  0
    0.5820   66.3790   71.2080 C   0  0  0  0  0  0  0  0  0  0  0  0
    0.9480   66.0640   69.7540 N   0  0  0  0  0  4  0  0  0  0  0  0
    1.5880   64.6770   69.6280 C   0  0  0  0  0  0  0  0  0  0  0  0
    0.7440   63.5640   70.3030 C   0  0  0  0  0  0  0  0  0  0  0  0
   -0.3110   62.7810   72.4530 C   0  0  0  0  0  0  0  0  0  0  0  0
    0.4770   62.1800   73.6210 C   0  0  0  0  0  0  0  0  0  0  0  0
    1.8960   62.7010   73.8720 C   0  0  0  0  0  0  0  0  0  0  0  0
    2.8450   61.5910   74.0000 N   0  0  0  0  0  0  0  0  0  0  0  0
    2.7070   60.4580   73.1550 C   0  0  0  0  0  0  0  0  0  0  0  0
    2.0910   59.2560   73.5200 C   0  0  0  0  0  0  0  0  0  0  0  0
    1.2460   59.0260   74.7490 C   0  0  0  0  0  0  0  0  0  0  0  0
    0.0020   58.1940   74.4220 C   0  0  0  0  0  0  0  0  0  0  0  0
    0.2750   56.9380   73.5880 C   0  0  0  0  0  0  0  0  0  0  0  0
    1.7090   56.8220   73.0820 C   0  0  0  0  0  0  0  0  0  0  0  0
    2.2540   58.1630   72.6640 C   0  0  0  0  0  0  0  0  0  0  0  0
    2.9060   58.2300   71.4840 N   0  0  0  0  0  0  0  0  0  0  0  0
    3.2650   59.4300   71.0240 C   0  0  0  0  0  0  0  0  0  0  0  0
    3.1830   60.5920   71.8160 C   0  0  0  0  0  0  0  0  0  0  0  0
    3.6010   61.8240   71.2530 C   0  0  0  0  0  0  0  0  0  0  0  0
    4.0900   61.8990   69.9500 C   0  0  0  0  0  0  0  0  0  0  0  0
    4.1780   60.7420   69.1880 C   0  0  0  0  0  0  0  0  0  0  0  0
    3.7690   59.5230   69.7330 C   0  0  0  0  0  0  0  0  0  0  0  0
   -0.1870   66.3390   68.7700 C   0  0  0  0  0  0  0  0  0  0  0  0
    0.0240   67.6400   68.0060 C   0  0  0  0  0  0  0  0  0  0  0  0
    1.4700   67.8330   67.5350 C   0  0  0  0  0  0  0  0  0  0  0  0
    1.6930   69.2020   67.0650 N   0  0  0  0  0  0  0  0  0  0  0  0
    2.9390   69.3690   66.3810 C   0  0  0  0  0  0  0  0  0  0  0  0
    4.0620   69.7600   67.1240 C   0  0  0  0  0  0  0  0  0  0  0  0
    4.0330   70.1400   68.5810 C   0  0  0  0  0  0  0  0  0  0  0  0
    4.8870   71.3830   68.8510 C   0  0  0  0  0  0  0  0  0  0  0  0
    6.2440   71.4010   68.1300 C   0  0  0  0  0  0  0  0  0  0  0  0
    6.5170   70.1660   67.2760 C   0  0  0  0  0  0  0  0  0  0  0  0
    5.2960   69.7870   66.4800 C   0  0  0  0  0  0  0  0  0  0  0  0
    5.4660   69.4620   65.1840 N   0  0  0  0  0  0  0  0  0  0  0  0
    4.3880   69.1640   64.4490 C   0  0  0  0  0  0  0  0  0  0  0  0
    3.0820   69.1070   64.9860 C   0  0  0  0  0  0  0  0  0  0  0  0
    2.0080   68.8060   64.1070 C   0  0  0  0  0  0  0  0  0  0  0  0
    2.2250   68.5500   62.7540 C   0  0  0  0  0  0  0  0  0  0  0  0
    3.5150   68.5890   62.2500 C   0  0  0  0  0  0  0  0  0  0  0  0
    4.5780   68.8970   63.1000 C   0  0  0  0  0  0  0  0  0  0  0  0
    1.2759   64.0460   72.2728 H   0  0  0  0  0  0  0  0  0  0  0  0
   -1.2560   65.2198   71.3052 H   0  0  0  0  0  0  0  0  0  0  0  0
   -0.4640   65.5108   72.9001 H   0  0  0  0  0  0  0  0  0  0  0  0
    0.0287   67.3293   71.2368 H   0  0  0  0  0  0  0  0  0  0  0  0
    1.5154   66.4436   71.7864 H   0  0  0  0  0  0  0  0  0  0  0  0
    1.6761   66.7337   69.4671 H   0  0  0  0  0  0  0  0  0  0  0  0
    1.6984   64.4362   68.5604 H   0  0  0  0  0  0  0  0  0  0  0  0
    2.5609   64.7125   70.1400 H   0  0  0  0  0  0  0  0  0  0  0  0
   -0.1886   63.4287   69.7356 H   0  0  0  0  0  0  0  0  0  0  0  0
    1.3363   62.6371   70.3090 H   0  0  0  0  0  0  0  0  0  0  0  0
   -1.2692   63.1576   72.8404 H   0  0  0  0  0  0  0  0  0  0  0  0
   -0.4379   61.9792   71.7107 H   0  0  0  0  0  0  0  0  0  0  0  0
   -0.1052   62.3611   74.5366 H   0  0  0  0  0  0  0  0  0  0  0  0
    0.6155   61.1240   73.3460 H   0  0  0  0  0  0  0  0  0  0  0  0
    2.1998   63.3393   73.0292 H   0  0  0  0  0  0  0  0  0  0  0  0
    1.8988   63.2762   74.8097 H   0  0  0  0  0  0  0  0  0  0  0  0
    3.6037   61.6324   74.6954 H   0  0  0  0  0  0  0  0  0  0  0  0
    1.8458   58.4931   75.5015 H   0  0  0  0  0  0  0  0  0  0  0  0
    0.9186   60.0035   75.1329 H   0  0  0  0  0  0  0  0  0  0  0  0
   -0.4611   57.8823   75.3699 H   0  0  0  0  0  0  0  0  0  0  0  0
   -0.6511   58.8364   73.8130 H   0  0  0  0  0  0  0  0  0  0  0  0
    0.0564   56.0572   74.2095 H   0  0  0  0  0  0  0  0  0  0  0  0
   -0.3692   57.0033   72.6988 H   0  0  0  0  0  0  0  0  0  0  0  0
    2.3401   56.4136   73.8851 H   0  0  0  0  0  0  0  0  0  0  0  0
    1.7144   56.1573   72.2055 H   0  0  0  0  0  0  0  0  0  0  0  0
    3.5381   62.7408   71.8577 H   0  0  0  0  0  0  0  0  0  0  0  0
    4.4033   62.8659   69.5294 H   0  0  0  0  0  0  0  0  0  0  0  0
    4.5678   60.7851   68.1603 H   0  0  0  0  0  0  0  0  0  0  0  0
    3.8482   58.6111   69.1229 H   0  0  0  0  0  0  0  0  0  0  0  0
   -0.2420   65.5091   68.0501 H   0  0  0  0  0  0  0  0  0  0  0  0
   -1.1208   66.4294   69.3444 H   0  0  0  0  0  0  0  0  0  0  0  0
   -0.6341   67.6391   67.1246 H   0  0  0  0  0  0  0  0  0  0  0  0
   -0.2099   68.4659   68.6938 H   0  0  0  0  0  0  0  0  0  0  0  0
    2.1516   67.6253   68.3730 H   0  0  0  0  0  0  0  0  0  0  0  0
    1.6610   67.1417   66.7009 H   0  0  0  0  0  0  0  0  0  0  0  0
    1.0204   69.9681   67.2120 H   0  0  0  0  0  0  0  0  0  0  0  0
    2.9940   70.3485   68.8760 H   0  0  0  0  0  0  0  0  0  0  0  0
    4.4440   69.3036   69.1654 H   0  0  0  0  0  0  0  0  0  0  0  0
    4.3166   72.2667   68.5290 H   0  0  0  0  0  0  0  0  0  0  0  0
    5.1086   71.3787   69.9284 H   0  0  0  0  0  0  0  0  0  0  0  0
    6.2755   72.2855   67.4768 H   0  0  0  0  0  0  0  0  0  0  0  0
    7.0167   71.4203   68.9127 H   0  0  0  0  0  0  0  0  0  0  0  0
    7.3457   70.3809   66.5853 H   0  0  0  0  0  0  0  0  0  0  0  0
    6.7797   69.3289   67.9396 H   0  0  0  0  0  0  0  0  0  0  0  0
    0.9821   68.7742   64.5026 H   0  0  0  0  0  0  0  0  0  0  0  0
    1.3781   68.3187   62.0912 H   0  0  0  0  0  0  0  0  0  0  0  0
    3.7001   68.3785   61.1863 H   0  0  0  0  0  0  0  0  0  0  0  0
    5.5976   68.9292   62.6885 H   0  0  0  0  0  0  0  0  0  0  0  0
  2  1  1  0
  3  2  1  0
  4  3  1  0
  5  4  1  0
  6  5  1  0
  6  1  1  0
  7  1  1  0
  8  7  1  0
  9  8  1  0
 10  9  1  0
 11 10  1  0
 12 11  1  0
 13 12  1  0
 14 13  1  0
 15 14  1  0
 16 15  1  0
 17 16  1  0
 17 12  2  0
 18 17  1  0
 19 18  2  0
 20 19  1  0
 20 11  2  0
 21 20  1  0
 22 21  2  0
 23 22  1  0
 24 19  1  0
 24 23  2  0
 25  4  1  0
 26 25  1  0
 27 26  1  0
 28 27  1  0
 29 28  1  0
 30 29  1  0
 31 30  1  0
 32 31  1  0
 33 32  1  0
 34 33  1  0
 35 34  1  0
 35 30  2  0
 36 35  1  0
 37 36  2  0
 38 37  1  0
 38 29  2  0
 39 38  1  0
 40 39  2  0
 41 40  1  0
 42 37  1  0
 42 41  2  0
  1 43  1  0
  2 44  1  0
  2 45  1  0
  3 46  1  0
  3 47  1  0
  4 48  1  0
  5 49  1  0
  5 50  1  0
  6 51  1  0
  6 52  1  0
  7 53  1  0
  7 54  1  0
  8 55  1  0
  8 56  1  0
  9 57  1  0
  9 58  1  0
 10 59  1  0
 13 60  1  0
 13 61  1  0
 14 62  1  0
 14 63  1  0
 15 64  1  0
 15 65  1  0
 16 66  1  0
 16 67  1  0
 21 68  1  0
 22 69  1  0
 23 70  1  0
 24 71  1  0
 25 72  1  0
 25 73  1  0
 26 74  1  0
 26 75  1  0
 27 76  1  0
 27 77  1  0
 28 78  1  0
 31 79  1  0
 31 80  1  0
 32 81  1  0
 32 82  1  0
 33 83  1  0
 33 84  1  0
 34 85  1  0
 34 86  1  0
 39 87  1  0
 40 88  1  0
 41 89  1  0
 42 90  1  0
M  CHG  2   1   1   4   1
M  END
>  <score>  (6) 
-11.263

$$$$
=
     RDKit          3D

 90 96  0  0  0  0  0  0  0  0999 V2000
    1.1420   65.1180   70.9380 N   0  0  0  0  0  4  0  0  0  0  0  0
    2.1190   64.5840   69.9050 C   0  0  0  0  0  0  0  0  0  0  0  0
    3.2730   63.8130   70.5940 C   0  0  0  0  0  0  0  0  0  0  0  0
    2.7560   62.6750   71.4800 N   0  0  0  0  0  4  0  0  0  0  0  0
    1.7160   63.1810   72.4860 C   0  0  0  0  0  0  0  0  0  0  0  0
    0.5820   64.0000   71.8150 C   0  0  0  0  0  0  0  0  0  0  0  0
    0.0400   66.0040   70.3870 C   0  0  0  0  0  0  0  0  0  0  0  0
    0.4230   66.7570   69.1090 C   0  0  0  0  0  0  0  0  0  0  0  0
    1.5460   67.7950   69.1980 C   0  0  0  0  0  0  0  0  0  0  0  0
    1.3570   68.8560   68.2040 N   0  0  0  0  0  0  0  0  0  0  0  0
    2.3320   69.0350   67.1860 C   0  0  0  0  0  0  0  0  0  0  0  0
    2.1800   68.6370   65.8540 C   0  0  0  0  0  0  0  0  0  0  0  0
    0.8950   68.1960   65.1970 C   0  0  0  0  0  0  0  0  0  0  0  0
    0.7490   68.8010   63.7970 C   0  0  0  0  0  0  0  0  0  0  0  0
    1.9960   68.6770   62.9140 C   0  0  0  0  0  0  0  0  0  0  0  0
    3.2220   68.1280   63.6360 C   0  0  0  0  0  0  0  0  0  0  0  0
    3.3170   68.6630   65.0410 C   0  0  0  0  0  0  0  0  0  0  0  0
    4.5190   69.1160   65.4540 N   0  0  0  0  0  0  0  0  0  0  0  0
    4.5950   69.7300   66.6360 C   0  0  0  0  0  0  0  0  0  0  0  0
    3.5240   69.7290   67.5510 C   0  0  0  0  0  0  0  0  0  0  0  0
    3.6960   70.3930   68.7920 C   0  0  0  0  0  0  0  0  0  0  0  0
    4.8920   71.0300   69.1170 C   0  0  0  0  0  0  0  0  0  0  0  0
    5.9430   71.0080   68.2110 C   0  0  0  0  0  0  0  0  0  0  0  0
    5.7840   70.3580   66.9850 C   0  0  0  0  0  0  0  0  0  0  0  0
    2.3370   61.4360   70.6930 C   0  0  0  0  0  0  0  0  0  0  0  0
    3.3290   60.2910   70.8640 C   0  0  0  0  0  0  0  0  0  0  0  0
    3.6130   59.9560   72.3320 C   0  0  0  0  0  0  0  0  0  0  0  0
    2.6270   59.0090   72.8570 N   0  0  0  0  0  0  0  0  0  0  0  0
    2.0740   59.4080   74.1150 C   0  0  0  0  0  0  0  0  0  0  0  0
    2.8200   59.1690   75.2780 C   0  0  0  0  0  0  0  0  0  0  0  0
    4.1190   58.4080   75.3200 C   0  0  0  0  0  0  0  0  0  0  0  0
    4.1630   57.4430   76.5090 C   0  0  0  0  0  0  0  0  0  0  0  0
    3.6260   58.0210   77.8270 C   0  0  0  0  0  0  0  0  0  0  0  0
    3.1510   59.4690   77.7310 C   0  0  0  0  0  0  0  0  0  0  0  0
    2.3400   59.6820   76.4810 C   0  0  0  0  0  0  0  0  0  0  0  0
    1.1980   60.3880   76.5840 N   0  0  0  0  0  0  0  0  0  0  0  0
    0.4410   60.5530   75.4920 C   0  0  0  0  0  0  0  0  0  0  0  0
    0.8180   60.0770   74.2170 C   0  0  0  0  0  0  0  0  0  0  0  0
   -0.0750   60.2840   73.1330 C   0  0  0  0  0  0  0  0  0  0  0  0
   -1.2850   60.9580   73.3040 C   0  0  0  0  0  0  0  0  0  0  0  0
   -1.6270   61.4360   74.5600 C   0  0  0  0  0  0  0  0  0  0  0  0
   -0.7640   61.2270   75.6350 C   0  0  0  0  0  0  0  0  0  0  0  0
    1.7069   65.7460   71.5274 H   0  0  0  0  0  0  0  0  0  0  0  0
    1.5877   63.9050   69.2218 H   0  0  0  0  0  0  0  0  0  0  0  0
    2.5425   65.4313   69.3458 H   0  0  0  0  0  0  0  0  0  0  0  0
    3.9292   63.3896   69.8193 H   0  0  0  0  0  0  0  0  0  0  0  0
    3.8187   64.5209   71.2351 H   0  0  0  0  0  0  0  0  0  0  0  0
    3.5494   62.3383   72.0440 H   0  0  0  0  0  0  0  0  0  0  0  0
    1.2697   62.3148   72.9963 H   0  0  0  0  0  0  0  0  0  0  0  0
    2.2336   63.8472   73.1919 H   0  0  0  0  0  0  0  0  0  0  0  0
   -0.0244   63.3265   71.1916 H   0  0  0  0  0  0  0  0  0  0  0  0
   -0.0291   64.4566   72.6075 H   0  0  0  0  0  0  0  0  0  0  0  0
   -0.8335   65.3726   70.1673 H   0  0  0  0  0  0  0  0  0  0  0  0
   -0.1680   66.7652   71.1534 H   0  0  0  0  0  0  0  0  0  0  0  0
    0.7291   66.0062   68.3656 H   0  0  0  0  0  0  0  0  0  0  0  0
   -0.4733   67.3415   68.8541 H   0  0  0  0  0  0  0  0  0  0  0  0
    1.5465   68.2398   70.2040 H   0  0  0  0  0  0  0  0  0  0  0  0
    2.5048   67.2937   68.9994 H   0  0  0  0  0  0  0  0  0  0  0  0
    0.5270   69.4646   68.2432 H   0  0  0  0  0  0  0  0  0  0  0  0
    0.8925   67.0990   65.1153 H   0  0  0  0  0  0  0  0  0  0  0  0
    0.0530   68.5424   65.8143 H   0  0  0  0  0  0  0  0  0  0  0  0
   -0.0832   68.2921   63.2886 H   0  0  0  0  0  0  0  0  0  0  0  0
    0.5744   69.8776   63.9397 H   0  0  0  0  0  0  0  0  0  0  0  0
    1.7596   68.0049   62.0759 H   0  0  0  0  0  0  0  0  0  0  0  0
    2.2526   69.6949   62.5852 H   0  0  0  0  0  0  0  0  0  0  0  0
    3.1533   67.0308   63.6746 H   0  0  0  0  0  0  0  0  0  0  0  0
    4.1195   68.4434   63.0837 H   0  0  0  0  0  0  0  0  0  0  0  0
    2.8666   70.4056   69.5145 H   0  0  0  0  0  0  0  0  0  0  0  0
    5.0020   71.5454   70.0825 H   0  0  0  0  0  0  0  0  0  0  0  0
    6.8958   71.4996   68.4570 H   0  0  0  0  0  0  0  0  0  0  0  0
    6.6244   70.3429   66.2754 H   0  0  0  0  0  0  0  0  0  0  0  0
    1.3493   61.1066   71.0478 H   0  0  0  0  0  0  0  0  0  0  0  0
    2.3065   61.7039   69.6266 H   0  0  0  0  0  0  0  0  0  0  0  0
    2.9185   59.3960   70.3738 H   0  0  0  0  0  0  0  0  0  0  0  0
    4.2792   60.6097   70.4105 H   0  0  0  0  0  0  0  0  0  0  0  0
    4.6160   59.5113   72.4115 H   0  0  0  0  0  0  0  0  0  0  0  0
    3.5537   60.8839   72.9199 H   0  0  0  0  0  0  0  0  0  0  0  0
    2.3584   58.1424   72.3695 H   0  0  0  0  0  0  0  0  0  0  0  0
    4.2274   57.8333   74.3884 H   0  0  0  0  0  0  0  0  0  0  0  0
    4.9406   59.1311   75.4303 H   0  0  0  0  0  0  0  0  0  0  0  0
    3.5624   56.5575   76.2536 H   0  0  0  0  0  0  0  0  0  0  0  0
    5.2245   57.2119   76.6816 H   0  0  0  0  0  0  0  0  0  0  0  0
    2.7783   57.4014   78.1548 H   0  0  0  0  0  0  0  0  0  0  0  0
    4.4638   58.0110   78.5398 H   0  0  0  0  0  0  0  0  0  0  0  0
    2.5305   59.7042   78.6083 H   0  0  0  0  0  0  0  0  0  0  0  0
    4.0311   60.1280   77.6977 H   0  0  0  0  0  0  0  0  0  0  0  0
    0.1928   59.9046   72.1358 H   0  0  0  0  0  0  0  0  0  0  0  0
   -1.9616   61.1088   72.4499 H   0  0  0  0  0  0  0  0  0  0  0  0
   -2.5735   61.9768   74.7073 H   0  0  0  0  0  0  0  0  0  0  0  0
   -1.0469   61.6081   76.6273 H   0  0  0  0  0  0  0  0  0  0  0  0
  2  1  1  0
  3  2  1  0
  4  3  1  0
  5  4  1  0
  6  5  1  0
  6  1  1  0
  7  1  1  0
  8  7  1  0
  9  8  1  0
 10  9  1  0
 11 10  1  0
 12 11  1  0
 13 12  1  0
 14 13  1  0
 15 14  1  0
 16 15  1  0
 17 16  1  0
 17 12  2  0
 18 17  1  0
 19 18  2  0
 20 19  1  0
 20 11  2  0
 21 20  1  0
 22 21  2  0
 23 22  1  0
 24 19  1  0
 24 23  2  0
 25  4  1  0
 26 25  1  0
 27 26  1  0
 28 27  1  0
 29 28  1  0
 30 29  1  0
 31 30  1  0
 32 31  1  0
 33 32  1  0
 34 33  1  0
 35 34  1  0
 35 30  2  0
 36 35  1  0
 37 36  2  0
 38 37  1  0
 38 29  2  0
 39 38  1  0
 40 39  2  0
 41 40  1  0
 42 37  1  0
 42 41  2  0
  1 43  1  0
  2 44  1  0
  2 45  1  0
  3 46  1  0
  3 47  1  0
  4 48  1  0
  5 49  1  0
  5 50  1  0
  6 51  1  0
  6 52  1  0
  7 53  1  0
  7 54  1  0
  8 55  1  0
  8 56  1  0
  9 57  1  0
  9 58  1  0
 10 59  1  0
 13 60  1  0
 13 61  1  0
 14 62  1  0
 14 63  1  0
 15 64  1  0
 15 65  1  0
 16 66  1  0
 16 67  1  0
 21 68  1  0
 22 69  1  0
 23 70  1  0
 24 71  1  0
 25 72  1  0
 25 73  1  0
 26 74  1  0
 26 75  1  0
 27 76  1  0
 27 77  1  0
 28 78  1  0
 31 79  1  0
 31 80  1  0
 32 81  1  0
 32 82  1  0
 33 83  1  0
 33 84  1  0
 34 85  1  0
 34 86  1  0
 39 87  1  0
 40 88  1  0
 41 89  1  0
 42 90  1  0
M  CHG  2   1   1   4   1
M  END
>  <score>  (7) 
-11.04

$$$$
=
     RDKit          3D

 90 96  0  0  0  0  0  0  0  0999 V2000
    0.5060   63.8730   71.9150 N   0  0  0  0  0  4  0  0  0  0  0  0
   -0.3400   65.1350   71.9180 C   0  0  0  0  0  0  0  0  0  0  0  0
    0.4690   66.3330   71.3600 C   0  0  0  0  0  0  0  0  0  0  0  0
    1.0110   66.0570   69.9550 N   0  0  0  0  0  4  0  0  0  0  0  0
    1.8110   64.7500   69.9140 C   0  0  0  0  0  0  0  0  0  0  0  0
    1.0330   63.5510   70.5170 C   0  0  0  0  0  0  0  0  0  0  0  0
   -0.1390   62.6620   72.5630 C   0  0  0  0  0  0  0  0  0  0  0  0
    0.1960   62.4930   74.0480 C   0  0  0  0  0  0  0  0  0  0  0  0
    1.6560   62.6720   74.4780 C   0  0  0  0  0  0  0  0  0  0  0  0
    2.2810   61.3770   74.7600 N   0  0  0  0  0  0  0  0  0  0  0  0
    2.5160   60.4720   73.6900 C   0  0  0  0  0  0  0  0  0  0  0  0
    3.1790   60.7940   72.5000 C   0  0  0  0  0  0  0  0  0  0  0  0
    3.9800   62.0460   72.2380 C   0  0  0  0  0  0  0  0  0  0  0  0
    5.2800   61.7290   71.4920 C   0  0  0  0  0  0  0  0  0  0  0  0
    5.1120   60.8090   70.2770 C   0  0  0  0  0  0  0  0  0  0  0  0
    3.7100   60.2300   70.1200 C   0  0  0  0  0  0  0  0  0  0  0  0
    3.1130   59.8680   71.4560 C   0  0  0  0  0  0  0  0  0  0  0  0
    2.5120   58.6640   71.5630 N   0  0  0  0  0  0  0  0  0  0  0  0
    2.1100   58.2600   72.7690 C   0  0  0  0  0  0  0  0  0  0  0  0
    2.0940   59.1230   73.8820 C   0  0  0  0  0  0  0  0  0  0  0  0
    1.6360   58.6150   75.1240 C   0  0  0  0  0  0  0  0  0  0  0  0
    1.2020   57.2970   75.2550 C   0  0  0  0  0  0  0  0  0  0  0  0
    1.2100   56.4640   74.1450 C   0  0  0  0  0  0  0  0  0  0  0  0
    1.6590   56.9540   72.9170 C   0  0  0  0  0  0  0  0  0  0  0  0
   -0.0430   66.1990   68.8590 C   0  0  0  0  0  0  0  0  0  0  0  0
    0.0970   67.5140   68.1020 C   0  0  0  0  0  0  0  0  0  0  0  0
    1.5310   67.7910   67.6360 C   0  0  0  0  0  0  0  0  0  0  0  0
    1.6440   69.1250   67.0440 N   0  0  0  0  0  0  0  0  0  0  0  0
    2.9090   69.3600   66.4190 C   0  0  0  0  0  0  0  0  0  0  0  0
    3.9830   69.7770   67.2190 C   0  0  0  0  0  0  0  0  0  0  0  0
    3.8770   70.1180   68.6820 C   0  0  0  0  0  0  0  0  0  0  0  0
    4.6660   71.3870   69.0190 C   0  0  0  0  0  0  0  0  0  0  0  0
    6.0500   71.4790   68.3580 C   0  0  0  0  0  0  0  0  0  0  0  0
    6.4100   70.2790   67.4860 C   0  0  0  0  0  0  0  0  0  0  0  0
    5.2410   69.8720   66.6300 C   0  0  0  0  0  0  0  0  0  0  0  0
    5.4780   69.5880   65.3350 N   0  0  0  0  0  0  0  0  0  0  0  0
    4.4460   69.2650   64.5460 C   0  0  0  0  0  0  0  0  0  0  0  0
    3.1220   69.1410   65.0250 C   0  0  0  0  0  0  0  0  0  0  0  0
    2.1000   68.8200   64.0940 C   0  0  0  0  0  0  0  0  0  0  0  0
    2.3830   68.6080   62.7450 C   0  0  0  0  0  0  0  0  0  0  0  0
    3.6910   68.7130   62.2990 C   0  0  0  0  0  0  0  0  0  0  0  0
    4.7030   69.0410   63.2010 C   0  0  0  0  0  0  0  0  0  0  0  0
    1.3056   64.0966   72.5246 H   0  0  0  0  0  0  0  0  0  0  0  0
   -1.2297   64.9757   71.2910 H   0  0  0  0  0  0  0  0  0  0  0  0
   -0.6398   65.3595   72.9523 H   0  0  0  0  0  0  0  0  0  0  0  0
   -0.1861   67.2158   71.3205 H   0  0  0  0  0  0  0  0  0  0  0  0
    1.3271   66.5025   72.0270 H   0  0  0  0  0  0  0  0  0  0  0  0
    1.6843   66.8038   69.7316 H   0  0  0  0  0  0  0  0  0  0  0  0
    2.0550   64.5198   68.8664 H   0  0  0  0  0  0  0  0  0  0  0  0
    2.7168   64.8964   70.5207 H   0  0  0  0  0  0  0  0  0  0  0  0
    0.1834   63.3098   69.8613 H   0  0  0  0  0  0  0  0  0  0  0  0
    1.7213   62.6965   70.5954 H   0  0  0  0  0  0  0  0  0  0  0  0
   -1.2303   62.7578   72.4641 H   0  0  0  0  0  0  0  0  0  0  0  0
    0.2591   61.7765   72.0458 H   0  0  0  0  0  0  0  0  0  0  0  0
   -0.4022   63.2293   74.6047 H   0  0  0  0  0  0  0  0  0  0  0  0
   -0.0278   61.4377   74.2632 H   0  0  0  0  0  0  0  0  0  0  0  0
    2.2108   63.1712   73.6699 H   0  0  0  0  0  0  0  0  0  0  0  0
    1.6803   63.2807   75.3939 H   0  0  0  0  0  0  0  0  0  0  0  0
    2.5469   61.1256   75.7228 H   0  0  0  0  0  0  0  0  0  0  0  0
    3.3771   62.7364   71.6299 H   0  0  0  0  0  0  0  0  0  0  0  0
    4.2371   62.5025   73.2052 H   0  0  0  0  0  0  0  0  0  0  0  0
    5.7169   62.6774   71.1461 H   0  0  0  0  0  0  0  0  0  0  0  0
    5.9237   61.1908   72.2033 H   0  0  0  0  0  0  0  0  0  0  0  0
    5.3500   61.3865   69.3716 H   0  0  0  0  0  0  0  0  0  0  0  0
    5.7905   59.9568   70.4298 H   0  0  0  0  0  0  0  0  0  0  0  0
    3.0670   60.9765   69.6308 H   0  0  0  0  0  0  0  0  0  0  0  0
    3.7784   59.3161   69.5117 H   0  0  0  0  0  0  0  0  0  0  0  0
    1.6229   59.2756   76.0035 H   0  0  0  0  0  0  0  0  0  0  0  0
    0.8564   56.9206   76.2291 H   0  0  0  0  0  0  0  0  0  0  0  0
    0.8645   55.4233   74.2321 H   0  0  0  0  0  0  0  0  0  0  0  0
    1.6556   56.2873   72.0420 H   0  0  0  0  0  0  0  0  0  0  0  0
    0.0682   65.3664   68.1488 H   0  0  0  0  0  0  0  0  0  0  0  0
   -1.0342   66.1843   69.3357 H   0  0  0  0  0  0  0  0  0  0  0  0
   -0.5577   67.4807   67.2187 H   0  0  0  0  0  0  0  0  0  0  0  0
   -0.1845   68.3217   68.7936 H   0  0  0  0  0  0  0  0  0  0  0  0
    2.2090   67.7225   68.4995 H   0  0  0  0  0  0  0  0  0  0  0  0
    1.8006   67.0460   66.8729 H   0  0  0  0  0  0  0  0  0  0  0  0
    0.8884   69.8243   67.0744 H   0  0  0  0  0  0  0  0  0  0  0  0
    2.8187   70.2764   68.9367 H   0  0  0  0  0  0  0  0  0  0  0  0
    4.2979   69.2842   69.2631 H   0  0  0  0  0  0  0  0  0  0  0  0
    4.0733   72.2549   68.6945 H   0  0  0  0  0  0  0  0  0  0  0  0
    4.8419   71.3635   70.1046 H   0  0  0  0  0  0  0  0  0  0  0  0
    6.0722   72.3811   67.7290 H   0  0  0  0  0  0  0  0  0  0  0  0
    6.7875   71.5087   69.1736 H   0  0  0  0  0  0  0  0  0  0  0  0
    7.2570   70.5458   66.8368 H   0  0  0  0  0  0  0  0  0  0  0  0
    6.6797   69.4361   68.1393 H   0  0  0  0  0  0  0  0  0  0  0  0
    1.0607   68.7365   64.4446 H   0  0  0  0  0  0  0  0  0  0  0  0
    1.5751   68.3596   62.0410 H   0  0  0  0  0  0  0  0  0  0  0  0
    3.9297   68.5386   61.2395 H   0  0  0  0  0  0  0  0  0  0  0  0
    5.7369   69.1247   62.8348 H   0  0  0  0  0  0  0  0  0  0  0  0
  2  1  1  0
  3  2  1  0
  4  3  1  0
  5  4  1  0
  6  5  1  0
  6  1  1  0
  7  1  1  0
  8  7  1  0
  9  8  1  0
 10  9  1  0
 11 10  1  0
 12 11  1  0
 13 12  1  0
 14 13  1  0
 15 14  1  0
 16 15  1  0
 17 16  1  0
 17 12  2  0
 18 17  1  0
 19 18  2  0
 20 19  1  0
 20 11  2  0
 21 20  1  0
 22 21  2  0
 23 22  1  0
 24 19  1  0
 24 23  2  0
 25  4  1  0
 26 25  1  0
 27 26  1  0
 28 27  1  0
 29 28  1  0
 30 29  1  0
 31 30  1  0
 32 31  1  0
 33 32  1  0
 34 33  1  0
 35 34  1  0
 35 30  2  0
 36 35  1  0
 37 36  2  0
 38 37  1  0
 38 29  2  0
 39 38  1  0
 40 39  2  0
 41 40  1  0
 42 37  1  0
 42 41  2  0
  1 43  1  0
  2 44  1  0
  2 45  1  0
  3 46  1  0
  3 47  1  0
  4 48  1  0
  5 49  1  0
  5 50  1  0
  6 51  1  0
  6 52  1  0
  7 53  1  0
  7 54  1  0
  8 55  1  0
  8 56  1  0
  9 57  1  0
  9 58  1  0
 10 59  1  0
 13 60  1  0
 13 61  1  0
 14 62  1  0
 14 63  1  0
 15 64  1  0
 15 65  1  0
 16 66  1  0
 16 67  1  0
 21 68  1  0
 22 69  1  0
 23 70  1  0
 24 71  1  0
 25 72  1  0
 25 73  1  0
 26 74  1  0
 26 75  1  0
 27 76  1  0
 27 77  1  0
 28 78  1  0
 31 79  1  0
 31 80  1  0
 32 81  1  0
 32 82  1  0
 33 83  1  0
 33 84  1  0
 34 85  1  0
 34 86  1  0
 39 87  1  0
 40 88  1  0
 41 89  1  0
 42 90  1  0
M  CHG  2   1   1   4   1
M  END
>  <score>  (8) 
-10.94

$$$$
=
     RDKit          3D

 90 96  0  0  0  0  0  0  0  0999 V2000
    1.1620   65.2090   70.0950 N   0  0  0  0  0  4  0  0  0  0  0  0
    0.2030   64.6970   71.1570 C   0  0  0  0  0  0  0  0  0  0  0  0
    0.1190   63.1500   71.1140 C   0  0  0  0  0  0  0  0  0  0  0  0
    1.4940   62.4950   71.2750 N   0  0  0  0  0  4  0  0  0  0  0  0
    2.4970   63.0490   70.2560 C   0  0  0  0  0  0  0  0  0  0  0  0
    2.5540   64.5990   70.2520 C   0  0  0  0  0  0  0  0  0  0  0  0
    1.2240   66.7180   69.9560 C   0  0  0  0  0  0  0  0  0  0  0  0
    1.2880   67.2120   68.5070 C   0  0  0  0  0  0  0  0  0  0  0  0
    1.1800   68.7200   68.2590 C   0  0  0  0  0  0  0  0  0  0  0  0
    1.5540   69.0500   66.8800 N   0  0  0  0  0  0  0  0  0  0  0  0
    2.9280   69.0770   66.5210 C   0  0  0  0  0  0  0  0  0  0  0  0
    3.9020   69.8700   67.1380 C   0  0  0  0  0  0  0  0  0  0  0  0
    3.7440   70.6280   68.4330 C   0  0  0  0  0  0  0  0  0  0  0  0
    4.9890   70.4910   69.3150 C   0  0  0  0  0  0  0  0  0  0  0  0
    6.3170   70.7330   68.5890 C   0  0  0  0  0  0  0  0  0  0  0  0
    6.1820   70.9010   67.0790 C   0  0  0  0  0  0  0  0  0  0  0  0
    5.1490   69.9620   66.5120 C   0  0  0  0  0  0  0  0  0  0  0  0
    5.4760   69.2750   65.3970 N   0  0  0  0  0  0  0  0  0  0  0  0
    4.6390   68.3310   64.9640 C   0  0  0  0  0  0  0  0  0  0  0  0
    3.3430   68.1770   65.4940 C   0  0  0  0  0  0  0  0  0  0  0  0
    2.5130   67.1570   64.9640 C   0  0  0  0  0  0  0  0  0  0  0  0
    2.9520   66.3230   63.9370 C   0  0  0  0  0  0  0  0  0  0  0  0
    4.2260   66.4980   63.4160 C   0  0  0  0  0  0  0  0  0  0  0  0
    5.0520   67.4990   63.9310 C   0  0  0  0  0  0  0  0  0  0  0  0
    1.9910   62.4730   72.7180 C   0  0  0  0  0  0  0  0  0  0  0  0
    3.0210   61.3740   72.9490 C   0  0  0  0  0  0  0  0  0  0  0  0
    2.4750   60.2030   73.7750 C   0  0  0  0  0  0  0  0  0  0  0  0
    1.6690   59.3050   72.9450 N   0  0  0  0  0  0  0  0  0  0  0  0
    0.5970   58.6850   73.6620 C   0  0  0  0  0  0  0  0  0  0  0  0
    0.8060   57.4090   74.2040 C   0  0  0  0  0  0  0  0  0  0  0  0
    2.0430   56.5790   73.9860 C   0  0  0  0  0  0  0  0  0  0  0  0
    1.6920   55.1130   73.7080 C   0  0  0  0  0  0  0  0  0  0  0  0
    0.5880   54.5350   74.6060 C   0  0  0  0  0  0  0  0  0  0  0  0
    0.0370   55.5180   75.6360 C   0  0  0  0  0  0  0  0  0  0  0  0
   -0.1910   56.8700   75.0140 C   0  0  0  0  0  0  0  0  0  0  0  0
   -1.3420   57.5080   75.2990 N   0  0  0  0  0  0  0  0  0  0  0  0
   -1.5820   58.6920   74.7230 C   0  0  0  0  0  0  0  0  0  0  0  0
   -0.6520   59.3390   73.8780 C   0  0  0  0  0  0  0  0  0  0  0  0
   -1.0230   60.5810   73.2990 C   0  0  0  0  0  0  0  0  0  0  0  0
   -2.2600   61.1680   73.5650 C   0  0  0  0  0  0  0  0  0  0  0  0
   -3.1510   60.5280   74.4130 C   0  0  0  0  0  0  0  0  0  0  0  0
   -2.8030   59.3010   74.9780 C   0  0  0  0  0  0  0  0  0  0  0  0
    0.7593   64.8843   69.2043 H   0  0  0  0  0  0  0  0  0  0  0  0
    0.5594   65.0125   72.1487 H   0  0  0  0  0  0  0  0  0  0  0  0
   -0.7968   65.1125   70.9628 H   0  0  0  0  0  0  0  0  0  0  0  0
   -0.5351   62.8073   71.9293 H   0  0  0  0  0  0  0  0  0  0  0  0
   -0.2825   62.8592   70.1321 H   0  0  0  0  0  0  0  0  0  0  0  0
    1.3883   61.4958   71.0483 H   0  0  0  0  0  0  0  0  0  0  0  0
    3.4969   62.6610   70.5001 H   0  0  0  0  0  0  0  0  0  0  0  0
    2.1674   62.7267   69.2573 H   0  0  0  0  0  0  0  0  0  0  0  0
    2.9904   64.9433   71.2012 H   0  0  0  0  0  0  0  0  0  0  0  0
    3.1702   64.9200   69.3992 H   0  0  0  0  0  0  0  0  0  0  0  0
    0.3264   67.1452   70.4270 H   0  0  0  0  0  0  0  0  0  0  0  0
    2.1555   67.0428   70.4427 H   0  0  0  0  0  0  0  0  0  0  0  0
    2.2498   66.8793   68.0895 H   0  0  0  0  0  0  0  0  0  0  0  0
    0.3910   66.7890   68.0312 H   0  0  0  0  0  0  0  0  0  0  0  0
    0.1434   69.0414   68.4381 H   0  0  0  0  0  0  0  0  0  0  0  0
    1.8662   69.2396   68.9439 H   0  0  0  0  0  0  0  0  0  0  0  0
    0.8285   69.2598   66.1796 H   0  0  0  0  0  0  0  0  0  0  0  0
    3.5803   71.6921   68.2074 H   0  0  0  0  0  0  0  0  0  0  0  0
    2.8854   70.2085   68.9777 H   0  0  0  0  0  0  0  0  0  0  0  0
    4.9094   71.2190   70.1358 H   0  0  0  0  0  0  0  0  0  0  0  0
    5.0104   69.4477   69.6630 H   0  0  0  0  0  0  0  0  0  0  0  0
    6.7726   71.6467   68.9985 H   0  0  0  0  0  0  0  0  0  0  0  0
    6.9351   69.8381   68.7537 H   0  0  0  0  0  0  0  0  0  0  0  0
    5.8833   71.9366   66.8593 H   0  0  0  0  0  0  0  0  0  0  0  0
    7.1525   70.6684   66.6165 H   0  0  0  0  0  0  0  0  0  0  0  0
    1.5006   67.0208   65.3721 H   0  0  0  0  0  0  0  0  0  0  0  0
    2.2947   65.5337   63.5434 H   0  0  0  0  0  0  0  0  0  0  0  0
    4.5835   65.8513   62.6012 H   0  0  0  0  0  0  0  0  0  0  0  0
    6.0581   67.6326   63.5068 H   0  0  0  0  0  0  0  0  0  0  0  0
    2.4503   63.4451   72.9505 H   0  0  0  0  0  0  0  0  0  0  0  0
    1.1290   62.2744   73.3718 H   0  0  0  0  0  0  0  0  0  0  0  0
    3.3490   60.9903   71.9716 H   0  0  0  0  0  0  0  0  0  0  0  0
    3.8522   61.8171   73.5170 H   0  0  0  0  0  0  0  0  0  0  0  0
    3.3182   59.6392   74.2006 H   0  0  0  0  0  0  0  0  0  0  0  0
    1.8374   60.6064   74.5754 H   0  0  0  0  0  0  0  0  0  0  0  0
    1.8550   59.1367   71.9460 H   0  0  0  0  0  0  0  0  0  0  0  0
    2.5981   56.9831   73.1266 H   0  0  0  0  0  0  0  0  0  0  0  0
    2.6533   56.6211   74.9002 H   0  0  0  0  0  0  0  0  0  0  0  0
    1.3600   55.0327   72.6624 H   0  0  0  0  0  0  0  0  0  0  0  0
    2.6009   54.5308   73.9199 H   0  0  0  0  0  0  0  0  0  0  0  0
   -0.2426   54.2077   73.9634 H   0  0  0  0  0  0  0  0  0  0  0  0
    1.0426   53.7082   75.1714 H   0  0  0  0  0  0  0  0  0  0  0  0
   -0.9174   55.1347   76.0262 H   0  0  0  0  0  0  0  0  0  0  0  0
    0.7685   55.6229   76.4508 H   0  0  0  0  0  0  0  0  0  0  0  0
   -0.3191   61.0919   72.6255 H   0  0  0  0  0  0  0  0  0  0  0  0
   -2.5266   62.1312   73.1056 H   0  0  0  0  0  0  0  0  0  0  0  0
   -4.1259   60.9848   74.6387 H   0  0  0  0  0  0  0  0  0  0  0  0
   -3.5187   58.8003   75.6466 H   0  0  0  0  0  0  0  0  0  0  0  0
  2  1  1  0
  3  2  1  0
  4  3  1  0
  5  4  1  0
  6  5  1  0
  6  1  1  0
  7  1  1  0
  8  7  1  0
  9  8  1  0
 10  9  1  0
 11 10  1  0
 12 11  1  0
 13 12  1  0
 14 13  1  0
 15 14  1  0
 16 15  1  0
 17 16  1  0
 17 12  2  0
 18 17  1  0
 19 18  2  0
 20 19  1  0
 20 11  2  0
 21 20  1  0
 22 21  2  0
 23 22  1  0
 24 19  1  0
 24 23  2  0
 25  4  1  0
 26 25  1  0
 27 26  1  0
 28 27  1  0
 29 28  1  0
 30 29  1  0
 31 30  1  0
 32 31  1  0
 33 32  1  0
 34 33  1  0
 35 34  1  0
 35 30  2  0
 36 35  1  0
 37 36  2  0
 38 37  1  0
 38 29  2  0
 39 38  1  0
 40 39  2  0
 41 40  1  0
 42 37  1  0
 42 41  2  0
  1 43  1  0
  2 44  1  0
  2 45  1  0
  3 46  1  0
  3 47  1  0
  4 48  1  0
  5 49  1  0
  5 50  1  0
  6 51  1  0
  6 52  1  0
  7 53  1  0
  7 54  1  0
  8 55  1  0
  8 56  1  0
  9 57  1  0
  9 58  1  0
 10 59  1  0
 13 60  1  0
 13 61  1  0
 14 62  1  0
 14 63  1  0
 15 64  1  0
 15 65  1  0
 16 66  1  0
 16 67  1  0
 21 68  1  0
 22 69  1  0
 23 70  1  0
 24 71  1  0
 25 72  1  0
 25 73  1  0
 26 74  1  0
 26 75  1  0
 27 76  1  0
 27 77  1  0
 28 78  1  0
 31 79  1  0
 31 80  1  0
 32 81  1  0
 32 82  1  0
 33 83  1  0
 33 84  1  0
 34 85  1  0
 34 86  1  0
 39 87  1  0
 40 88  1  0
 41 89  1  0
 42 90  1  0
M  CHG  2   1   1   4   1
M  END
>  <score>  (9) 
-10.936

$$$$
