=
     RDKit          3D

 49 50  0  0  0  0  0  0  0  0999 V2000
   -0.5540   68.5650   66.1520 S   0  0  0  0  0  6  0  0  0  0  0  0
   -0.5250   69.6760   67.0720 O   0  0  0  0  0  0  0  0  0  0  0  0
   -1.6540   68.3960   65.2350 O   0  0  0  0  0  0  0  0  0  0  0  0
   -0.4190   67.2120   67.0660 N   0  0  0  0  0  0  0  0  0  0  0  0
   -1.3310   66.8360   68.0400 C   0  0  0  0  0  0  0  0  0  0  0  0
   -2.4730   67.2520   68.1390 O   0  0  0  0  0  0  0  0  0  0  0  0
   -0.7750   65.9200   68.8720 O   0  0  0  0  0  0  0  0  0  0  0  0
    0.2750   66.4520   69.6820 C   0  0  0  0  0  0  0  0  0  0  0  0
    0.8450   65.3170   70.4940 C   0  0  0  0  0  0  0  0  0  0  0  0
    2.1100   64.7920   70.1920 C   0  0  0  0  0  0  0  0  0  0  0  0
    2.6460   63.7550   70.9570 C   0  0  0  0  0  0  0  0  0  0  0  0
    1.9280   63.2390   72.0340 C   0  0  0  0  0  0  0  0  0  0  0  0
    0.6760   63.7630   72.3520 C   0  0  0  0  0  0  0  0  0  0  0  0
    0.1380   64.8000   71.5880 C   0  0  0  0  0  0  0  0  0  0  0  0
    0.8530   68.5460   65.2760 N   0  0  0  0  0  0  0  0  0  0  0  0
    2.0320   67.8680   65.8590 C   0  0  1  0  0  0  0  0  0  0  0  0
    2.2210   66.5400   65.1180 C   0  0  0  0  0  0  0  0  0  0  0  0
    3.7150   69.4270   66.9330 C   0  0  0  0  0  0  0  0  0  0  0  0
    4.9100   70.1490   66.9390 C   0  0  0  0  0  0  0  0  0  0  0  0
    5.7050   70.1810   65.8000 C   0  0  0  0  0  0  0  0  0  0  0  0
    5.3170   69.4780   64.6590 C   0  0  0  0  0  0  0  0  0  0  0  0
    4.1340   68.7290   64.6510 C   0  0  0  0  0  0  0  0  0  0  0  0
    3.3120   68.6910   65.8010 C   0  0  0  0  0  0  0  0  0  0  0  0
    3.3770   70.3180   69.0450 C   0  0  0  0  0  0  0  0  0  0  0  0
    2.9440   69.3670   68.0680 O   0  0  0  0  0  0  0  0  0  0  0  0
    3.6930   68.0070   63.5670 O   0  0  0  0  0  0  0  0  0  0  0  0
    3.4600   68.7120   62.3530 C   0  0  0  0  0  0  0  0  0  0  0  0
    0.3954   66.6019   66.9068 H   0  0  0  0  0  0  0  0  0  0  0  0
    1.0581   66.8862   69.0431 H   0  0  0  0  0  0  0  0  0  0  0  0
   -0.1098   67.2435   70.3419 H   0  0  0  0  0  0  0  0  0  0  0  0
    2.6834   65.2002   69.3467 H   0  0  0  0  0  0  0  0  0  0  0  0
    3.6361   63.3446   70.7095 H   0  0  0  0  0  0  0  0  0  0  0  0
    2.3491   62.4183   72.6332 H   0  0  0  0  0  0  0  0  0  0  0  0
    0.1117   63.3591   73.2055 H   0  0  0  0  0  0  0  0  0  0  0  0
   -0.8477   65.2142   71.8464 H   0  0  0  0  0  0  0  0  0  0  0  0
    0.6477   68.0835   64.3789 H   0  0  0  0  0  0  0  0  0  0  0  0
    1.8365   67.7135   66.9304 H   0  0  0  0  0  0  0  0  0  0  0  0
    2.3369   65.7258   65.8485 H   0  0  0  0  0  0  0  0  0  0  0  0
    1.3417   66.3439   64.4868 H   0  0  0  0  0  0  0  0  0  0  0  0
    3.1201   66.5970   64.4868 H   0  0  0  0  0  0  0  0  0  0  0  0
    5.2215   70.6915   67.8438 H   0  0  0  0  0  0  0  0  0  0  0  0
    6.6400   70.7604   65.7978 H   0  0  0  0  0  0  0  0  0  0  0  0
    5.9463   69.5125   63.7574 H   0  0  0  0  0  0  0  0  0  0  0  0
    3.1945   69.9171   70.0530 H   0  0  0  0  0  0  0  0  0  0  0  0
    4.4521   70.5119   68.9166 H   0  0  0  0  0  0  0  0  0  0  0  0
    2.8173   71.2562   68.9166 H   0  0  0  0  0  0  0  0  0  0  0  0
    3.1223   69.7337   62.5813 H   0  0  0  0  0  0  0  0  0  0  0  0
    4.3916   68.7555   61.7696 H   0  0  0  0  0  0  0  0  0  0  0  0
    2.6860   68.1918   61.7696 H   0  0  0  0  0  0  0  0  0  0  0  0
  2  1  2  0
  3  1  2  0
  4  1  1  0
  5  4  1  0
  6  5  2  0
  7  5  1  0
  8  7  1  0
  9  8  1  0
 10  9  2  0
 11 10  1  0
 12 11  2  0
 13 12  1  0
 14  9  1  0
 14 13  2  0
 15  1  1  0
 16 15  1  0
 17 16  1  0
 19 18  2  0
 20 19  1  0
 21 20  2  0
 22 21  1  0
 23 22  2  0
 23 18  1  0
 23 16  1  0
 25 24  1  0
 25 18  1  0
 26 22  1  0
 27 26  1  0
  4 28  1  0
  8 29  1  0
  8 30  1  0
 10 31  1  0
 11 32  1  0
 12 33  1  0
 13 34  1  0
 14 35  1  0
 15 36  1  0
 16 37  1  1
 17 38  1  0
 17 39  1  0
 17 40  1  0
 19 41  1  0
 20 42  1  0
 21 43  1  0
 24 44  1  0
 24 45  1  0
 24 46  1  0
 27 47  1  0
 27 48  1  0
 27 49  1  0
M  END
>  <score>  (1) 
-9.637

$$$$
=
     RDKit          3D

 49 50  0  0  0  0  0  0  0  0999 V2000
   -0.4190   67.3710   67.5030 S   0  0  0  0  0  6  0  0  0  0  0  0
   -0.6180   68.7000   68.0270 O   0  0  0  0  0  0  0  0  0  0  0  0
   -1.2610   66.8600   66.4500 O   0  0  0  0  0  0  0  0  0  0  0  0
   -0.5080   66.3560   68.7870 N   0  0  0  0  0  0  0  0  0  0  0  0
    0.5140   66.1690   69.7040 C   0  0  0  0  0  0  0  0  0  0  0  0
    1.4560   66.9230   69.8770 O   0  0  0  0  0  0  0  0  0  0  0  0
    0.3130   65.0220   70.4000 O   0  0  0  0  0  0  0  0  0  0  0  0
    1.3800   64.7070   71.2960 C   0  0  0  0  0  0  0  0  0  0  0  0
    2.2940   63.7360   70.5940 C   0  0  0  0  0  0  0  0  0  0  0  0
    3.6860   63.8740   70.6910 C   0  0  0  0  0  0  0  0  0  0  0  0
    4.5330   62.9630   70.0570 C   0  0  0  0  0  0  0  0  0  0  0  0
    3.9970   61.9020   69.3290 C   0  0  0  0  0  0  0  0  0  0  0  0
    2.6150   61.7480   69.2380 C   0  0  0  0  0  0  0  0  0  0  0  0
    1.7660   62.6580   69.8700 C   0  0  0  0  0  0  0  0  0  0  0  0
    1.1590   67.2040   67.0250 N   0  0  0  0  0  0  0  0  0  0  0  0
    1.5420   67.7070   65.6870 C   0  0  1  0  0  0  0  0  0  0  0  0
    0.4700   68.7050   65.2390 C   0  0  0  0  0  0  0  0  0  0  0  0
    3.2990   69.2520   66.6590 C   0  0  0  0  0  0  0  0  0  0  0  0
    4.5720   69.8250   66.6820 C   0  0  0  0  0  0  0  0  0  0  0  0
    5.4770   69.5430   65.6660 C   0  0  0  0  0  0  0  0  0  0  0  0
    5.1180   68.6750   64.6340 C   0  0  0  0  0  0  0  0  0  0  0  0
    3.8520   68.0750   64.6140 C   0  0  0  0  0  0  0  0  0  0  0  0
    2.9200   68.3560   65.6390 C   0  0  0  0  0  0  0  0  0  0  0  0
    3.0330   70.2460   68.7350 C   0  0  0  0  0  0  0  0  0  0  0  0
    2.4160   69.5040   67.6800 O   0  0  0  0  0  0  0  0  0  0  0  0
    3.4330   67.2060   63.6350 O   0  0  0  0  0  0  0  0  0  0  0  0
    4.3280   66.1720   63.2410 C   0  0  0  0  0  0  0  0  0  0  0  0
   -1.3792   65.8231   68.9208 H   0  0  0  0  0  0  0  0  0  0  0  0
    1.9332   65.6214   71.5564 H   0  0  0  0  0  0  0  0  0  0  0  0
    0.9873   64.2655   72.2238 H   0  0  0  0  0  0  0  0  0  0  0  0
    4.1135   64.7055   71.2705 H   0  0  0  0  0  0  0  0  0  0  0  0
    5.6239   63.0826   70.1320 H   0  0  0  0  0  0  0  0  0  0  0  0
    4.6646   61.1866   68.8266 H   0  0  0  0  0  0  0  0  0  0  0  0
    2.1925   60.9080   68.6672 H   0  0  0  0  0  0  0  0  0  0  0  0
    0.6759   62.5284   69.7995 H   0  0  0  0  0  0  0  0  0  0  0  0
    1.7412   67.6992   67.7155 H   0  0  0  0  0  0  0  0  0  0  0  0
    1.6058   66.8439   65.0081 H   0  0  0  0  0  0  0  0  0  0  0  0
   -0.0087   69.1506   66.1235 H   0  0  0  0  0  0  0  0  0  0  0  0
    0.9364   69.4979   64.6359 H   0  0  0  0  0  0  0  0  0  0  0  0
   -0.2876   68.1832   64.6359 H   0  0  0  0  0  0  0  0  0  0  0  0
    4.8581   70.4987   67.5032 H   0  0  0  0  0  0  0  0  0  0  0  0
    6.4758   70.0037   65.6752 H   0  0  0  0  0  0  0  0  0  0  0  0
    5.8357   68.4598   63.8286 H   0  0  0  0  0  0  0  0  0  0  0  0
    2.7020   69.8479   69.7055 H   0  0  0  0  0  0  0  0  0  0  0  0
    4.1265   70.1562   68.6556 H   0  0  0  0  0  0  0  0  0  0  0  0
    2.7453   71.3047   68.6556 H   0  0  0  0  0  0  0  0  0  0  0  0
    4.7465   65.6885   64.1360 H   0  0  0  0  0  0  0  0  0  0  0  0
    3.7856   65.4263   62.6412 H   0  0  0  0  0  0  0  0  0  0  0  0
    5.1437   66.6019   62.6412 H   0  0  0  0  0  0  0  0  0  0  0  0
  2  1  2  0
  3  1  2  0
  4  1  1  0
  5  4  1  0
  6  5  2  0
  7  5  1  0
  8  7  1  0
  9  8  1  0
 10  9  2  0
 11 10  1  0
 12 11  2  0
 13 12  1  0
 14  9  1  0
 14 13  2  0
 15  1  1  0
 16 15  1  0
 17 16  1  0
 19 18  2  0
 20 19  1  0
 21 20  2  0
 22 21  1  0
 23 22  2  0
 23 18  1  0
 23 16  1  0
 25 24  1  0
 25 18  1  0
 26 22  1  0
 27 26  1  0
  4 28  1  0
  8 29  1  0
  8 30  1  0
 10 31  1  0
 11 32  1  0
 12 33  1  0
 13 34  1  0
 14 35  1  0
 15 36  1  0
 16 37  1  6
 17 38  1  0
 17 39  1  0
 17 40  1  0
 19 41  1  0
 20 42  1  0
 21 43  1  0
 24 44  1  0
 24 45  1  0
 24 46  1  0
 27 47  1  0
 27 48  1  0
 27 49  1  0
M  END
>  <score>  (2) 
-9.541

$$$$
=
     RDKit          3D

 49 50  0  0  0  0  0  0  0  0999 V2000
    1.2280   69.0590   67.5420 S   0  0  0  0  0  6  0  0  0  0  0  0
    2.5430   69.4830   67.9610 O   0  0  0  0  0  0  0  0  0  0  0  0
    0.1000   69.9510   67.6420 O   0  0  0  0  0  0  0  0  0  0  0  0
    0.8980   67.6950   68.3870 N   0  0  0  0  0  0  0  0  0  0  0  0
   -0.1830   66.8650   68.1350 C   0  0  0  0  0  0  0  0  0  0  0  0
   -0.8320   66.8420   67.1030 O   0  0  0  0  0  0  0  0  0  0  0  0
   -0.4150   66.0620   69.2030 O   0  0  0  0  0  0  0  0  0  0  0  0
    0.4970   66.2750   70.2820 C   0  0  0  0  0  0  0  0  0  0  0  0
    1.0660   64.9350   70.6710 C   0  0  0  0  0  0  0  0  0  0  0  0
    2.3760   64.5870   70.3110 C   0  0  0  0  0  0  0  0  0  0  0  0
    2.9090   63.3540   70.6880 C   0  0  0  0  0  0  0  0  0  0  0  0
    2.1430   62.4610   71.4360 C   0  0  0  0  0  0  0  0  0  0  0  0
    0.8450   62.8020   71.8100 C   0  0  0  0  0  0  0  0  0  0  0  0
    0.3090   64.0350   71.4330 C   0  0  0  0  0  0  0  0  0  0  0  0
    1.3070   68.5030   65.9820 N   0  0  0  0  0  0  0  0  0  0  0  0
    2.5530   67.8390   65.5380 C   0  0  1  0  0  0  0  0  0  0  0  0
    2.2940   66.3300   65.5130 C   0  0  0  0  0  0  0  0  0  0  0  0
    4.4060   68.6860   64.0320 C   0  0  0  0  0  0  0  0  0  0  0  0
    4.9190   69.0700   62.7920 C   0  0  0  0  0  0  0  0  0  0  0  0
    4.0830   69.1240   61.6830 C   0  0  0  0  0  0  0  0  0  0  0  0
    2.7370   68.7780   61.8070 C   0  0  0  0  0  0  0  0  0  0  0  0
    2.2180   68.3660   63.0410 C   0  0  0  0  0  0  0  0  0  0  0  0
    3.0560   68.3110   64.1790 C   0  0  0  0  0  0  0  0  0  0  0  0
    5.5100   69.8910   65.6750 C   0  0  0  0  0  0  0  0  0  0  0  0
    5.2380   68.6000   65.1210 O   0  0  0  0  0  0  0  0  0  0  0  0
    0.9060   68.0030   63.2370 O   0  0  0  0  0  0  0  0  0  0  0  0
   -0.0950   68.7480   62.5520 C   0  0  0  0  0  0  0  0  0  0  0  0
    1.5346   67.4377   69.1547 H   0  0  0  0  0  0  0  0  0  0  0  0
    1.3066   66.9472   69.9614 H   0  0  0  0  0  0  0  0  0  0  0  0
   -0.0180   66.7381   71.1366 H   0  0  0  0  0  0  0  0  0  0  0  0
    2.9874   65.2910   69.7274 H   0  0  0  0  0  0  0  0  0  0  0  0
    3.9348   63.0861   70.3947 H   0  0  0  0  0  0  0  0  0  0  0  0
    2.5631   61.4880   71.7306 H   0  0  0  0  0  0  0  0  0  0  0  0
    0.2416   62.0990   72.4031 H   0  0  0  0  0  0  0  0  0  0  0  0
   -0.7142   64.3016   71.7362 H   0  0  0  0  0  0  0  0  0  0  0  0
    0.5402   67.8263   65.8599 H   0  0  0  0  0  0  0  0  0  0  0  0
    3.3492   68.1046   66.2490 H   0  0  0  0  0  0  0  0  0  0  0  0
    2.2291   65.9520   66.5440 H   0  0  0  0  0  0  0  0  0  0  0  0
    1.3482   66.1289   64.9885 H   0  0  0  0  0  0  0  0  0  0  0  0
    3.1186   65.8251   64.9885 H   0  0  0  0  0  0  0  0  0  0  0  0
    5.9833   69.3295   62.6926 H   0  0  0  0  0  0  0  0  0  0  0  0
    4.4824   69.4394   60.7078 H   0  0  0  0  0  0  0  0  0  0  0  0
    2.0777   68.8292   60.9280 H   0  0  0  0  0  0  0  0  0  0  0  0
    5.4969   69.8289   66.7732 H   0  0  0  0  0  0  0  0  0  0  0  0
    6.4999   70.2331   65.3389 H   0  0  0  0  0  0  0  0  0  0  0  0
    4.7422   70.6034   65.3389 H   0  0  0  0  0  0  0  0  0  0  0  0
   -0.7532   69.2379   63.2847 H   0  0  0  0  0  0  0  0  0  0  0  0
    0.3836   69.5114   61.9210 H   0  0  0  0  0  0  0  0  0  0  0  0
   -0.6889   68.0704   61.9210 H   0  0  0  0  0  0  0  0  0  0  0  0
  2  1  2  0
  3  1  2  0
  4  1  1  0
  5  4  1  0
  6  5  2  0
  7  5  1  0
  8  7  1  0
  9  8  1  0
 10  9  2  0
 11 10  1  0
 12 11  2  0
 13 12  1  0
 14  9  1  0
 14 13  2  0
 15  1  1  0
 16 15  1  0
 17 16  1  0
 19 18  2  0
 20 19  1  0
 21 20  2  0
 22 21  1  0
 23 22  2  0
 23 18  1  0
 23 16  1  0
 25 24  1  0
 25 18  1  0
 26 22  1  0
 27 26  1  0
  4 28  1  0
  8 29  1  0
  8 30  1  0
 10 31  1  0
 11 32  1  0
 12 33  1  0
 13 34  1  0
 14 35  1  0
 15 36  1  0
 16 37  1  1
 17 38  1  0
 17 39  1  0
 17 40  1  0
 19 41  1  0
 20 42  1  0
 21 43  1  0
 24 44  1  0
 24 45  1  0
 24 46  1  0
 27 47  1  0
 27 48  1  0
 27 49  1  0
M  END
>  <score>  (3) 
-9.437

$$$$
=
     RDKit          3D

 49 50  0  0  0  0  0  0  0  0999 V2000
   -0.5350   68.5970   66.1280 S   0  0  0  0  0  6  0  0  0  0  0  0
   -0.5500   69.7080   67.0490 O   0  0  0  0  0  0  0  0  0  0  0  0
   -1.6140   68.4020   65.1920 O   0  0  0  0  0  0  0  0  0  0  0  0
   -0.3820   67.2470   67.0440 N   0  0  0  0  0  0  0  0  0  0  0  0
   -1.2940   66.8550   68.0110 C   0  0  0  0  0  0  0  0  0  0  0  0
   -2.4440   67.2490   68.1020 O   0  0  0  0  0  0  0  0  0  0  0  0
   -0.7270   65.9490   68.8480 O   0  0  0  0  0  0  0  0  0  0  0  0
    0.3690   66.4760   69.5960 C   0  0  0  0  0  0  0  0  0  0  0  0
    0.9030   65.3680   70.4670 C   0  0  0  0  0  0  0  0  0  0  0  0
    0.1430   64.8780   71.5390 C   0  0  0  0  0  0  0  0  0  0  0  0
    0.6300   63.8380   72.3330 C   0  0  0  0  0  0  0  0  0  0  0  0
    1.8740   63.2720   72.0580 C   0  0  0  0  0  0  0  0  0  0  0  0
    2.6300   63.7420   70.9860 C   0  0  0  0  0  0  0  0  0  0  0  0
    2.1460   64.7830   70.1910 C   0  0  0  0  0  0  0  0  0  0  0  0
    0.8870   68.6140   65.2760 N   0  0  0  0  0  0  0  0  0  0  0  0
    2.0540   67.9060   65.8470 C   0  0  1  0  0  0  0  0  0  0  0  0
    2.1890   66.5660   65.1180 C   0  0  0  0  0  0  0  0  0  0  0  0
    4.0740   68.7060   64.5460 C   0  0  0  0  0  0  0  0  0  0  0  0
    5.2430   69.4570   64.4080 C   0  0  0  0  0  0  0  0  0  0  0  0
    5.7400   70.1720   65.4910 C   0  0  0  0  0  0  0  0  0  0  0  0
    5.0600   70.1530   66.7090 C   0  0  0  0  0  0  0  0  0  0  0  0
    3.8720   69.4240   66.8520 C   0  0  0  0  0  0  0  0  0  0  0  0
    3.3580   68.6880   65.7590 C   0  0  0  0  0  0  0  0  0  0  0  0
    4.6060   67.4650   62.6640 C   0  0  0  0  0  0  0  0  0  0  0  0
    3.5650   68.0260   63.4670 O   0  0  0  0  0  0  0  0  0  0  0  0
    3.1460   69.3650   68.0170 O   0  0  0  0  0  0  0  0  0  0  0  0
    3.4080   70.3510   69.0110 C   0  0  0  0  0  0  0  0  0  0  0  0
    0.4447   66.6518   66.8913 H   0  0  0  0  0  0  0  0  0  0  0  0
    1.1555   66.8270   68.9117 H   0  0  0  0  0  0  0  0  0  0  0  0
    0.0421   67.3270   70.2116 H   0  0  0  0  0  0  0  0  0  0  0  0
   -0.8427   65.3157   71.7555 H   0  0  0  0  0  0  0  0  0  0  0  0
    0.0312   63.4646   73.1768 H   0  0  0  0  0  0  0  0  0  0  0  0
    2.2584   62.4552   72.6866 H   0  0  0  0  0  0  0  0  0  0  0  0
    3.6094   63.2924   70.7657 H   0  0  0  0  0  0  0  0  0  0  0  0
    2.7445   65.1462   69.3425 H   0  0  0  0  0  0  0  0  0  0  0  0
    0.6960   68.1942   64.3550 H   0  0  0  0  0  0  0  0  0  0  0  0
    1.8719   67.7692   66.9232 H   0  0  0  0  0  0  0  0  0  0  0  0
    2.2708   65.7540   65.8555 H   0  0  0  0  0  0  0  0  0  0  0  0
    1.3030   66.4007   64.4874 H   0  0  0  0  0  0  0  0  0  0  0  0
    3.0902   66.5808   64.4874 H   0  0  0  0  0  0  0  0  0  0  0  0
    5.7701   69.4826   63.4428 H   0  0  0  0  0  0  0  0  0  0  0  0
    6.6687   70.7524   65.3880 H   0  0  0  0  0  0  0  0  0  0  0  0
    5.4603   70.7157   67.5652 H   0  0  0  0  0  0  0  0  0  0  0  0
    5.3859   67.0447   63.3160 H   0  0  0  0  0  0  0  0  0  0  0  0
    4.1905   66.6686   62.0290 H   0  0  0  0  0  0  0  0  0  0  0  0
    5.0427   68.2499   62.0290 H   0  0  0  0  0  0  0  0  0  0  0  0
    3.2896   69.9054   70.0097 H   0  0  0  0  0  0  0  0  0  0  0  0
    4.4364   70.7239   68.8955 H   0  0  0  0  0  0  0  0  0  0  0  0
    2.7004   71.1852   68.8955 H   0  0  0  0  0  0  0  0  0  0  0  0
  2  1  2  0
  3  1  2  0
  4  1  1  0
  5  4  1  0
  6  5  2  0
  7  5  1  0
  8  7  1  0
  9  8  1  0
 10  9  2  0
 11 10  1  0
 12 11  2  0
 13 12  1  0
 14  9  1  0
 14 13  2  0
 15  1  1  0
 16 15  1  0
 17 16  1  0
 19 18  2  0
 20 19  1  0
 21 20  2  0
 22 21  1  0
 23 22  2  0
 23 18  1  0
 23 16  1  0
 25 24  1  0
 25 18  1  0
 26 22  1  0
 27 26  1  0
  4 28  1  0
  8 29  1  0
  8 30  1  0
 10 31  1  0
 11 32  1  0
 12 33  1  0
 13 34  1  0
 14 35  1  0
 15 36  1  0
 16 37  1  1
 17 38  1  0
 17 39  1  0
 17 40  1  0
 19 41  1  0
 20 42  1  0
 21 43  1  0
 24 44  1  0
 24 45  1  0
 24 46  1  0
 27 47  1  0
 27 48  1  0
 27 49  1  0
M  END
>  <score>  (4) 
-9.414

$$$$
=
     RDKit          3D

 49 50  0  0  0  0  0  0  0  0999 V2000
   -0.2120   67.6630   67.3450 S   0  0  0  0  0  6  0  0  0  0  0  0
   -0.6690   68.8610   68.0070 O   0  0  0  0  0  0  0  0  0  0  0  0
   -0.8220   67.2220   66.1160 O   0  0  0  0  0  0  0  0  0  0  0  0
   -0.3260   66.4590   68.4510 N   0  0  0  0  0  0  0  0  0  0  0  0
    0.5910   66.2480   69.4690 C   0  0  0  0  0  0  0  0  0  0  0  0
    1.3980   67.0660   69.8760 O   0  0  0  0  0  0  0  0  0  0  0  0
    0.4570   64.9920   69.9650 O   0  0  0  0  0  0  0  0  0  0  0  0
    1.3740   64.6970   71.0190 C   0  0  0  0  0  0  0  0  0  0  0  0
    2.3600   63.6840   70.4970 C   0  0  0  0  0  0  0  0  0  0  0  0
    3.7380   63.8780   70.6700 C   0  0  0  0  0  0  0  0  0  0  0  0
    4.6500   62.9290   70.2040 C   0  0  0  0  0  0  0  0  0  0  0  0
    4.1930   61.7750   69.5700 C   0  0  0  0  0  0  0  0  0  0  0  0
    2.8260   61.5650   69.4060 C   0  0  0  0  0  0  0  0  0  0  0  0
    1.9120   62.5130   69.8710 C   0  0  0  0  0  0  0  0  0  0  0  0
    1.4240   67.7680   67.0980 N   0  0  0  0  0  0  0  0  0  0  0  0
    2.0040   69.0980   66.8060 C   0  0  1  0  0  0  0  0  0  0  0  0
    2.6410   69.6230   68.0960 C   0  0  0  0  0  0  0  0  0  0  0  0
    2.6290   68.6950   64.3840 C   0  0  0  0  0  0  0  0  0  0  0  0
    3.5210   68.7300   63.3100 C   0  0  0  0  0  0  0  0  0  0  0  0
    4.8370   69.1260   63.5160 C   0  0  0  0  0  0  0  0  0  0  0  0
    5.2600   69.5050   64.7900 C   0  0  0  0  0  0  0  0  0  0  0  0
    4.3670   69.4990   65.8690 C   0  0  0  0  0  0  0  0  0  0  0  0
    3.0260   69.0930   65.6760 C   0  0  0  0  0  0  0  0  0  0  0  0
    0.7300   69.0980   63.1210 C   0  0  0  0  0  0  0  0  0  0  0  0
    1.3200   68.3360   64.1760 O   0  0  0  0  0  0  0  0  0  0  0  0
    4.7110   69.8650   67.1490 O   0  0  0  0  0  0  0  0  0  0  0  0
    6.0600   70.2530   67.3860 C   0  0  0  0  0  0  0  0  0  0  0  0
   -1.1300   65.8185   68.3856 H   0  0  0  0  0  0  0  0  0  0  0  0
    1.9027   65.6125   71.3230 H   0  0  0  0  0  0  0  0  0  0  0  0
    0.8401   64.2997   71.8948 H   0  0  0  0  0  0  0  0  0  0  0  0
    4.1029   64.7839   71.1762 H   0  0  0  0  0  0  0  0  0  0  0  0
    5.7296   63.0922   70.3373 H   0  0  0  0  0  0  0  0  0  0  0  0
    4.9122   61.0299   69.1991 H   0  0  0  0  0  0  0  0  0  0  0  0
    2.4659   60.6517   68.9098 H   0  0  0  0  0  0  0  0  0  0  0  0
    0.8331   62.3394   69.7450 H   0  0  0  0  0  0  0  0  0  0  0  0
    1.8845   67.4143   67.9487 H   0  0  0  0  0  0  0  0  0  0  0  0
    1.1912   69.7521   66.4574 H   0  0  0  0  0  0  0  0  0  0  0  0
    2.1194   69.1931   68.9638 H   0  0  0  0  0  0  0  0  0  0  0  0
    3.7018   69.3334   68.1254 H   0  0  0  0  0  0  0  0  0  0  0  0
    2.5593   70.7196   68.1254 H   0  0  0  0  0  0  0  0  0  0  0  0
    3.1826   68.4447   62.3030 H   0  0  0  0  0  0  0  0  0  0  0  0
    5.5451   69.1406   62.6744 H   0  0  0  0  0  0  0  0  0  0  0  0
    6.3045   69.8114   64.9487 H   0  0  0  0  0  0  0  0  0  0  0  0
    0.1098   69.8990   63.5497 H   0  0  0  0  0  0  0  0  0  0  0  0
    1.5231   69.5407   62.5005 H   0  0  0  0  0  0  0  0  0  0  0  0
    0.1028   68.4410   62.5005 H   0  0  0  0  0  0  0  0  0  0  0  0
    6.2415   70.3052   68.4697 H   0  0  0  0  0  0  0  0  0  0  0  0
    6.7387   69.5136   66.9357 H   0  0  0  0  0  0  0  0  0  0  0  0
    6.2422   71.2400   66.9357 H   0  0  0  0  0  0  0  0  0  0  0  0
  2  1  2  0
  3  1  2  0
  4  1  1  0
  5  4  1  0
  6  5  2  0
  7  5  1  0
  8  7  1  0
  9  8  1  0
 10  9  2  0
 11 10  1  0
 12 11  2  0
 13 12  1  0
 14  9  1  0
 14 13  2  0
 15  1  1  0
 16 15  1  0
 17 16  1  0
 19 18  2  0
 20 19  1  0
 21 20  2  0
 22 21  1  0
 23 22  2  0
 23 18  1  0
 23 16  1  0
 25 24  1  0
 25 18  1  0
 26 22  1  0
 27 26  1  0
  4 28  1  0
  8 29  1  0
  8 30  1  0
 10 31  1  0
 11 32  1  0
 12 33  1  0
 13 34  1  0
 14 35  1  0
 15 36  1  0
 16 37  1  6
 17 38  1  0
 17 39  1  0
 17 40  1  0
 19 41  1  0
 20 42  1  0
 21 43  1  0
 24 44  1  0
 24 45  1  0
 24 46  1  0
 27 47  1  0
 27 48  1  0
 27 49  1  0
M  END
>  <score>  (5) 
-9.403

$$$$
=
     RDKit          3D

 49 50  0  0  0  0  0  0  0  0999 V2000
    0.4350   66.0500   70.0110 S   0  0  0  0  0  6  0  0  0  0  0  0
   -0.5750   65.7530   69.0240 O   0  0  0  0  0  0  0  0  0  0  0  0
    0.0660   66.4460   71.3470 O   0  0  0  0  0  0  0  0  0  0  0  0
    1.3810   67.2170   69.3580 N   0  0  0  0  0  0  0  0  0  0  0  0
    1.0200   67.9940   68.2680 C   0  0  0  0  0  0  0  0  0  0  0  0
   -0.1170   68.1460   67.8530 O   0  0  0  0  0  0  0  0  0  0  0  0
    2.1180   68.5780   67.7260 O   0  0  0  0  0  0  0  0  0  0  0  0
    2.4440   69.8350   68.3220 C   0  0  0  0  0  0  0  0  0  0  0  0
    3.9060   70.0960   68.0640 C   0  0  0  0  0  0  0  0  0  0  0  0
    4.4710   69.8040   66.8150 C   0  0  0  0  0  0  0  0  0  0  0  0
    5.8210   70.0650   66.5700 C   0  0  0  0  0  0  0  0  0  0  0  0
    6.6140   70.6290   67.5680 C   0  0  0  0  0  0  0  0  0  0  0  0
    6.0600   70.9360   68.8080 C   0  0  0  0  0  0  0  0  0  0  0  0
    4.7100   70.6750   69.0550 C   0  0  0  0  0  0  0  0  0  0  0  0
    1.4780   64.7670   70.1250 N   0  0  0  0  0  0  0  0  0  0  0  0
    1.2900   63.8080   71.2370 C   0  0  1  0  0  0  0  0  0  0  0  0
   -0.0300   63.0680   70.9970 C   0  0  0  0  0  0  0  0  0  0  0  0
    2.7670   62.3430   72.6820 C   0  0  0  0  0  0  0  0  0  0  0  0
    3.7690   61.3880   72.8650 C   0  0  0  0  0  0  0  0  0  0  0  0
    4.4810   60.9130   71.7700 C   0  0  0  0  0  0  0  0  0  0  0  0
    4.1830   61.3790   70.4900 C   0  0  0  0  0  0  0  0  0  0  0  0
    3.1620   62.3170   70.2920 C   0  0  0  0  0  0  0  0  0  0  0  0
    2.4310   62.8120   71.3970 C   0  0  0  0  0  0  0  0  0  0  0  0
    1.8170   61.7420   74.7080 C   0  0  0  0  0  0  0  0  0  0  0  0
    2.0400   62.7880   73.7590 O   0  0  0  0  0  0  0  0  0  0  0  0
    2.8080   62.8140   69.0600 O   0  0  0  0  0  0  0  0  0  0  0  0
    3.8230   62.9040   68.0660 C   0  0  0  0  0  0  0  0  0  0  0  0
    2.3034   67.3843   69.7847 H   0  0  0  0  0  0  0  0  0  0  0  0
    1.8353   70.6329   67.8715 H   0  0  0  0  0  0  0  0  0  0  0  0
    2.2400   69.8147   69.4027 H   0  0  0  0  0  0  0  0  0  0  0  0
    3.8468   69.3662   66.0221 H   0  0  0  0  0  0  0  0  0  0  0  0
    6.2584   69.8255   65.5895 H   0  0  0  0  0  0  0  0  0  0  0  0
    7.6780   70.8316   67.3759 H   0  0  0  0  0  0  0  0  0  0  0  0
    6.6858   71.3844   69.5937 H   0  0  0  0  0  0  0  0  0  0  0  0
    4.2753   70.9256   70.0339 H   0  0  0  0  0  0  0  0  0  0  0  0
    1.4036   64.2342   69.2466 H   0  0  0  0  0  0  0  0  0  0  0  0
    1.2728   64.3803   72.1762 H   0  0  0  0  0  0  0  0  0  0  0  0
   -0.4876   62.8115   71.9639 H   0  0  0  0  0  0  0  0  0  0  0  0
   -0.7142   63.7141   70.4274 H   0  0  0  0  0  0  0  0  0  0  0  0
    0.1642   62.1472   70.4274 H   0  0  0  0  0  0  0  0  0  0  0  0
    3.9945   61.0123   73.8740 H   0  0  0  0  0  0  0  0  0  0  0  0
    5.2792   60.1698   71.9130 H   0  0  0  0  0  0  0  0  0  0  0  0
    4.7552   61.0064   69.6276 H   0  0  0  0  0  0  0  0  0  0  0  0
    1.9033   62.1470   75.7271 H   0  0  0  0  0  0  0  0  0  0  0  0
    0.8096   61.3244   74.5635 H   0  0  0  0  0  0  0  0  0  0  0  0
    2.5665   60.9499   74.5635 H   0  0  0  0  0  0  0  0  0  0  0  0
    4.8058   62.9911   68.5523 H   0  0  0  0  0  0  0  0  0  0  0  0
    3.8031   62.0006   67.4388 H   0  0  0  0  0  0  0  0  0  0  0  0
    3.6444   63.7898   67.4388 H   0  0  0  0  0  0  0  0  0  0  0  0
  2  1  2  0
  3  1  2  0
  4  1  1  0
  5  4  1  0
  6  5  2  0
  7  5  1  0
  8  7  1  0
  9  8  1  0
 10  9  2  0
 11 10  1  0
 12 11  2  0
 13 12  1  0
 14  9  1  0
 14 13  2  0
 15  1  1  0
 16 15  1  0
 17 16  1  0
 19 18  2  0
 20 19  1  0
 21 20  2  0
 22 21  1  0
 23 22  2  0
 23 18  1  0
 23 16  1  0
 25 24  1  0
 25 18  1  0
 26 22  1  0
 27 26  1  0
  4 28  1  0
  8 29  1  0
  8 30  1  0
 10 31  1  0
 11 32  1  0
 12 33  1  0
 13 34  1  0
 14 35  1  0
 15 36  1  0
 16 37  1  1
 17 38  1  0
 17 39  1  0
 17 40  1  0
 19 41  1  0
 20 42  1  0
 21 43  1  0
 24 44  1  0
 24 45  1  0
 24 46  1  0
 27 47  1  0
 27 48  1  0
 27 49  1  0
M  END
>  <score>  (6) 
-9.4

$$$$
=
     RDKit          3D

 49 50  0  0  0  0  0  0  0  0999 V2000
   -0.2520   67.6890   67.3190 S   0  0  0  0  0  6  0  0  0  0  0  0
   -0.6990   68.8770   68.0060 O   0  0  0  0  0  0  0  0  0  0  0  0
   -0.8620   67.2820   66.0780 O   0  0  0  0  0  0  0  0  0  0  0  0
   -0.3820   66.4620   68.3970 N   0  0  0  0  0  0  0  0  0  0  0  0
    0.5180   66.2300   69.4260 C   0  0  0  0  0  0  0  0  0  0  0  0
    1.3160   67.0410   69.8640 O   0  0  0  0  0  0  0  0  0  0  0  0
    0.3770   64.9640   69.8930 O   0  0  0  0  0  0  0  0  0  0  0  0
    1.2070   64.6800   71.0200 C   0  0  0  0  0  0  0  0  0  0  0  0
    2.2650   63.7040   70.5740 C   0  0  0  0  0  0  0  0  0  0  0  0
    3.6250   64.0270   70.6920 C   0  0  0  0  0  0  0  0  0  0  0  0
    4.6050   63.1150   70.2970 C   0  0  0  0  0  0  0  0  0  0  0  0
    4.2360   61.8700   69.7890 C   0  0  0  0  0  0  0  0  0  0  0  0
    2.8890   61.5350   69.6790 C   0  0  0  0  0  0  0  0  0  0  0  0
    1.9060   62.4450   70.0730 C   0  0  0  0  0  0  0  0  0  0  0  0
    1.3860   67.7820   67.0800 N   0  0  0  0  0  0  0  0  0  0  0  0
    1.9820   69.1120   66.8220 C   0  0  1  0  0  0  0  0  0  0  0  0
    2.6320   69.5920   68.1230 C   0  0  0  0  0  0  0  0  0  0  0  0
    4.3250   69.5190   65.9520 C   0  0  0  0  0  0  0  0  0  0  0  0
    5.3000   69.4920   64.9530 C   0  0  0  0  0  0  0  0  0  0  0  0
    4.9580   69.1090   63.6610 C   0  0  0  0  0  0  0  0  0  0  0  0
    3.6460   68.7370   63.3700 C   0  0  0  0  0  0  0  0  0  0  0  0
    2.6660   68.7350   64.3700 C   0  0  0  0  0  0  0  0  0  0  0  0
    2.9980   69.1260   65.6880 C   0  0  0  0  0  0  0  0  0  0  0  0
    6.0240   70.3170   67.3110 C   0  0  0  0  0  0  0  0  0  0  0  0
    4.6690   69.8640   67.2360 O   0  0  0  0  0  0  0  0  0  0  0  0
    1.3570   68.3730   64.1580 O   0  0  0  0  0  0  0  0  0  0  0  0
    0.6000   69.1430   63.2300 C   0  0  0  0  0  0  0  0  0  0  0  0
   -1.1837   65.8220   68.3044 H   0  0  0  0  0  0  0  0  0  0  0  0
    1.6791   65.6058   71.3806 H   0  0  0  0  0  0  0  0  0  0  0  0
    0.6108   64.2543   71.8406 H   0  0  0  0  0  0  0  0  0  0  0  0
    3.9210   65.0053   71.0985 H   0  0  0  0  0  0  0  0  0  0  0  0
    5.6692   63.3786   70.3865 H   0  0  0  0  0  0  0  0  0  0  0  0
    5.0087   61.1528   69.4753 H   0  0  0  0  0  0  0  0  0  0  0  0
    2.5987   60.5515   69.2809 H   0  0  0  0  0  0  0  0  0  0  0  0
    0.8436   62.1723   69.9898 H   0  0  0  0  0  0  0  0  0  0  0  0
    1.8395   67.4028   67.9235 H   0  0  0  0  0  0  0  0  0  0  0  0
    1.1761   69.7857   66.4956 H   0  0  0  0  0  0  0  0  0  0  0  0
    2.0789   69.1836   68.9816 H   0  0  0  0  0  0  0  0  0  0  0  0
    3.6755   69.2461   68.1609 H   0  0  0  0  0  0  0  0  0  0  0  0
    2.6084   70.6911   68.1609 H   0  0  0  0  0  0  0  0  0  0  0  0
    6.3372   69.7733   65.1878 H   0  0  0  0  0  0  0  0  0  0  0  0
    5.7215   69.0994   62.8692 H   0  0  0  0  0  0  0  0  0  0  0  0
    3.3783   68.4422   62.3446 H   0  0  0  0  0  0  0  0  0  0  0  0
    6.3197   70.4159   68.3659 H   0  0  0  0  0  0  0  0  0  0  0  0
    6.6818   69.5899   66.8124 H   0  0  0  0  0  0  0  0  0  0  0  0
    6.1123   71.2935   66.8124 H   0  0  0  0  0  0  0  0  0  0  0  0
   -0.0688   69.8233   63.7775 H   0  0  0  0  0  0  0  0  0  0  0  0
    1.2825   69.7299   62.5977 H   0  0  0  0  0  0  0  0  0  0  0  0
    0.0015   68.4706   62.5977 H   0  0  0  0  0  0  0  0  0  0  0  0
  2  1  2  0
  3  1  2  0
  4  1  1  0
  5  4  1  0
  6  5  2  0
  7  5  1  0
  8  7  1  0
  9  8  1  0
 10  9  2  0
 11 10  1  0
 12 11  2  0
 13 12  1  0
 14  9  1  0
 14 13  2  0
 15  1  1  0
 16 15  1  0
 17 16  1  0
 19 18  2  0
 20 19  1  0
 21 20  2  0
 22 21  1  0
 23 22  2  0
 23 18  1  0
 23 16  1  0
 25 24  1  0
 25 18  1  0
 26 22  1  0
 27 26  1  0
  4 28  1  0
  8 29  1  0
  8 30  1  0
 10 31  1  0
 11 32  1  0
 12 33  1  0
 13 34  1  0
 14 35  1  0
 15 36  1  0
 16 37  1  6
 17 38  1  0
 17 39  1  0
 17 40  1  0
 19 41  1  0
 20 42  1  0
 21 43  1  0
 24 44  1  0
 24 45  1  0
 24 46  1  0
 27 47  1  0
 27 48  1  0
 27 49  1  0
M  END
>  <score>  (7) 
-9.376

$$$$
=
     RDKit          3D

 49 50  0  0  0  0  0  0  0  0999 V2000
    1.3420   69.1010   67.5490 S   0  0  0  0  0  6  0  0  0  0  0  0
    2.6570   69.5750   67.9080 O   0  0  0  0  0  0  0  0  0  0  0  0
    0.1860   69.9490   67.7040 O   0  0  0  0  0  0  0  0  0  0  0  0
    1.1030   67.7240   68.4050 N   0  0  0  0  0  0  0  0  0  0  0  0
    0.0190   66.8770   68.2310 C   0  0  0  0  0  0  0  0  0  0  0  0
   -0.7100   66.8520   67.2540 O   0  0  0  0  0  0  0  0  0  0  0  0
   -0.1130   66.0620   69.3070 O   0  0  0  0  0  0  0  0  0  0  0  0
    0.9920   66.1290   70.2100 C   0  0  0  0  0  0  0  0  0  0  0  0
    1.3470   64.7170   70.6030 C   0  0  0  0  0  0  0  0  0  0  0  0
    2.6680   64.2590   70.4930 C   0  0  0  0  0  0  0  0  0  0  0  0
    2.9990   62.9590   70.8760 C   0  0  0  0  0  0  0  0  0  0  0  0
    2.0170   62.1080   71.3800 C   0  0  0  0  0  0  0  0  0  0  0  0
    0.7040   62.5570   71.5060 C   0  0  0  0  0  0  0  0  0  0  0  0
    0.3700   63.8580   71.1230 C   0  0  0  0  0  0  0  0  0  0  0  0
    1.3690   68.5510   65.9860 N   0  0  0  0  0  0  0  0  0  0  0  0
    2.5950   67.8780   65.5020 C   0  0  1  0  0  0  0  0  0  0  0  0
    2.3570   66.3660   65.5740 C   0  0  0  0  0  0  0  0  0  0  0  0
    2.0390   68.3040   63.0670 C   0  0  0  0  0  0  0  0  0  0  0  0
    2.3640   68.7210   61.7750 C   0  0  0  0  0  0  0  0  0  0  0  0
    3.6710   69.0830   61.4720 C   0  0  0  0  0  0  0  0  0  0  0  0
    4.6520   69.0470   62.4630 C   0  0  0  0  0  0  0  0  0  0  0  0
    4.3320   68.6560   63.7700 C   0  0  0  0  0  0  0  0  0  0  0  0
    3.0070   68.2800   64.0910 C   0  0  0  0  0  0  0  0  0  0  0  0
   -0.1870   68.8400   62.7120 C   0  0  0  0  0  0  0  0  0  0  0  0
    0.7410   67.9780   63.3770 O   0  0  0  0  0  0  0  0  0  0  0  0
    5.2430   68.6030   64.7980 O   0  0  0  0  0  0  0  0  0  0  0  0
    5.3900   69.7610   65.6110 C   0  0  0  0  0  0  0  0  0  0  0  0
    1.8026   67.4717   69.1176 H   0  0  0  0  0  0  0  0  0  0  0  0
    1.8507   66.6081   69.7169 H   0  0  0  0  0  0  0  0  0  0  0  0
    0.7292   66.7224   71.0982 H   0  0  0  0  0  0  0  0  0  0  0  0
    3.4480   64.9290   70.1023 H   0  0  0  0  0  0  0  0  0  0  0  0
    4.0361   62.6052   70.7801 H   0  0  0  0  0  0  0  0  0  0  0  0
    2.2785   61.0820   71.6783 H   0  0  0  0  0  0  0  0  0  0  0  0
   -0.0701   61.8864   71.9074 H   0  0  0  0  0  0  0  0  0  0  0  0
   -0.6665   64.2103   71.2303 H   0  0  0  0  0  0  0  0  0  0  0  0
    0.5929   67.8815   65.8845 H   0  0  0  0  0  0  0  0  0  0  0  0
    3.4289   68.1915   66.1472 H   0  0  0  0  0  0  0  0  0  0  0  0
    2.3076   66.0523   66.6272 H   0  0  0  0  0  0  0  0  0  0  0  0
    1.4090   66.1198   65.0733 H   0  0  0  0  0  0  0  0  0  0  0  0
    3.1835   65.8405   65.0733 H   0  0  0  0  0  0  0  0  0  0  0  0
    1.5866   68.7630   60.9979 H   0  0  0  0  0  0  0  0  0  0  0  0
    3.9319   69.3979   60.4508 H   0  0  0  0  0  0  0  0  0  0  0  0
    5.6864   69.3282   62.2162 H   0  0  0  0  0  0  0  0  0  0  0  0
   -0.7781   69.3890   63.4598 H   0  0  0  0  0  0  0  0  0  0  0  0
    0.3630   69.5549   62.0824 H   0  0  0  0  0  0  0  0  0  0  0  0
   -0.8595   68.2388   62.0824 H   0  0  0  0  0  0  0  0  0  0  0  0
    5.3532   69.4715   66.6716 H   0  0  0  0  0  0  0  0  0  0  0  0
    6.3562   70.2404   65.3950 H   0  0  0  0  0  0  0  0  0  0  0  0
    4.5742   70.4666   65.3950 H   0  0  0  0  0  0  0  0  0  0  0  0
  2  1  2  0
  3  1  2  0
  4  1  1  0
  5  4  1  0
  6  5  2  0
  7  5  1  0
  8  7  1  0
  9  8  1  0
 10  9  2  0
 11 10  1  0
 12 11  2  0
 13 12  1  0
 14  9  1  0
 14 13  2  0
 15  1  1  0
 16 15  1  0
 17 16  1  0
 19 18  2  0
 20 19  1  0
 21 20  2  0
 22 21  1  0
 23 22  2  0
 23 18  1  0
 23 16  1  0
 25 24  1  0
 25 18  1  0
 26 22  1  0
 27 26  1  0
  4 28  1  0
  8 29  1  0
  8 30  1  0
 10 31  1  0
 11 32  1  0
 12 33  1  0
 13 34  1  0
 14 35  1  0
 15 36  1  0
 16 37  1  1
 17 38  1  0
 17 39  1  0
 17 40  1  0
 19 41  1  0
 20 42  1  0
 21 43  1  0
 24 44  1  0
 24 45  1  0
 24 46  1  0
 27 47  1  0
 27 48  1  0
 27 49  1  0
M  END
>  <score>  (8) 
-9.373

$$$$
=
     RDKit          3D

 49 50  0  0  0  0  0  0  0  0999 V2000
    2.9510   68.2530   62.1770 S   0  0  0  0  0  6  0  0  0  0  0  0
    3.8080   67.1280   61.8920 O   0  0  0  0  0  0  0  0  0  0  0  0
    2.5400   69.1500   61.1270 O   0  0  0  0  0  0  0  0  0  0  0  0
    3.7100   69.1200   63.3430 N   0  0  0  0  0  0  0  0  0  0  0  0
    5.0610   69.4280   63.3290 C   0  0  0  0  0  0  0  0  0  0  0  0
    5.7870   69.3860   62.3500 O   0  0  0  0  0  0  0  0  0  0  0  0
    5.4680   69.7980   64.5690 O   0  0  0  0  0  0  0  0  0  0  0  0
    4.5060   69.5220   65.5890 C   0  0  0  0  0  0  0  0  0  0  0  0
    5.0790   70.0000   66.8980 C   0  0  0  0  0  0  0  0  0  0  0  0
    4.2480   70.1840   68.0130 C   0  0  0  0  0  0  0  0  0  0  0  0
    4.7830   70.6070   69.2310 C   0  0  0  0  0  0  0  0  0  0  0  0
    6.1520   70.8420   69.3490 C   0  0  0  0  0  0  0  0  0  0  0  0
    6.9880   70.6490   68.2520 C   0  0  0  0  0  0  0  0  0  0  0  0
    6.4560   70.2260   67.0320 C   0  0  0  0  0  0  0  0  0  0  0  0
    1.5910   67.7180   62.9580 N   0  0  0  0  0  0  0  0  0  0  0  0
    0.8320   68.6830   63.7840 C   0  0  1  0  0  0  0  0  0  0  0  0
   -0.4640   69.0160   63.0400 C   0  0  0  0  0  0  0  0  0  0  0  0
   -0.7380   68.4620   65.7600 C   0  0  0  0  0  0  0  0  0  0  0  0
   -1.0830   67.9760   67.0220 C   0  0  0  0  0  0  0  0  0  0  0  0
   -0.1630   67.2360   67.7550 C   0  0  0  0  0  0  0  0  0  0  0  0
    1.0970   66.9660   67.2210 C   0  0  0  0  0  0  0  0  0  0  0  0
    1.4450   67.4270   65.9450 C   0  0  0  0  0  0  0  0  0  0  0  0
    0.5200   68.1850   65.1900 C   0  0  0  0  0  0  0  0  0  0  0  0
   -2.9780   69.0120   65.5480 C   0  0  0  0  0  0  0  0  0  0  0  0
   -1.6580   69.1650   65.0210 O   0  0  0  0  0  0  0  0  0  0  0  0
    2.6630   67.1930   65.3530 O   0  0  0  0  0  0  0  0  0  0  0  0
    3.0150   65.8420   65.0740 C   0  0  0  0  0  0  0  0  0  0  0  0
    3.1468   69.4573   64.1367 H   0  0  0  0  0  0  0  0  0  0  0  0
    3.5679   70.0545   65.3736 H   0  0  0  0  0  0  0  0  0  0  0  0
    4.2886   68.4446   65.6332 H   0  0  0  0  0  0  0  0  0  0  0  0
    3.1680   69.9938   67.9271 H   0  0  0  0  0  0  0  0  0  0  0  0
    4.1235   70.7551   70.0988 H   0  0  0  0  0  0  0  0  0  0  0  0
    6.5717   71.1797   70.3081 H   0  0  0  0  0  0  0  0  0  0  0  0
    8.0689   70.8300   68.3466 H   0  0  0  0  0  0  0  0  0  0  0  0
    7.1218   70.0691   66.1706 H   0  0  0  0  0  0  0  0  0  0  0  0
    0.9470   67.3596   62.2385 H   0  0  0  0  0  0  0  0  0  0  0  0
    1.4617   69.5737   63.9261 H   0  0  0  0  0  0  0  0  0  0  0  0
   -1.2625   69.2212   63.7682 H   0  0  0  0  0  0  0  0  0  0  0  0
   -0.3068   69.9029   62.4086 H   0  0  0  0  0  0  0  0  0  0  0  0
   -0.7538   68.1632   62.4086 H   0  0  0  0  0  0  0  0  0  0  0  0
   -2.0818   68.1784   67.4359 H   0  0  0  0  0  0  0  0  0  0  0  0
   -0.4282   66.8635   68.7555 H   0  0  0  0  0  0  0  0  0  0  0  0
    1.8243   66.3855   67.8076 H   0  0  0  0  0  0  0  0  0  0  0  0
   -2.9368   69.0168   66.6472 H   0  0  0  0  0  0  0  0  0  0  0  0
   -3.6099   69.8429   65.2012 H   0  0  0  0  0  0  0  0  0  0  0  0
   -3.4031   68.0586   65.2012 H   0  0  0  0  0  0  0  0  0  0  0  0
    3.1569   65.2974   66.0191 H   0  0  0  0  0  0  0  0  0  0  0  0
    2.2109   65.3659   64.4937 H   0  0  0  0  0  0  0  0  0  0  0  0
    3.9492   65.8188   64.4937 H   0  0  0  0  0  0  0  0  0  0  0  0
  2  1  2  0
  3  1  2  0
  4  1  1  0
  5  4  1  0
  6  5  2  0
  7  5  1  0
  8  7  1  0
  9  8  1  0
 10  9  2  0
 11 10  1  0
 12 11  2  0
 13 12  1  0
 14  9  1  0
 14 13  2  0
 15  1  1  0
 16 15  1  0
 17 16  1  0
 19 18  2  0
 20 19  1  0
 21 20  2  0
 22 21  1  0
 23 22  2  0
 23 18  1  0
 23 16  1  0
 25 24  1  0
 25 18  1  0
 26 22  1  0
 27 26  1  0
  4 28  1  0
  8 29  1  0
  8 30  1  0
 10 31  1  0
 11 32  1  0
 12 33  1  0
 13 34  1  0
 14 35  1  0
 15 36  1  0
 16 37  1  1
 17 38  1  0
 17 39  1  0
 17 40  1  0
 19 41  1  0
 20 42  1  0
 21 43  1  0
 24 44  1  0
 24 45  1  0
 24 46  1  0
 27 47  1  0
 27 48  1  0
 27 49  1  0
M  END
>  <score>  (9) 
-9.198

$$$$
