=
     RDKit          3D

 22 23  0  0  0  0  0  0  0  0999 V2000
    1.5090   69.3450   67.6740 C   0  0  0  0  0  0  0  0  0  0  0  0
    2.9220   69.7750   67.9090 C   0  0  0  0  0  0  0  0  0  0  0  0
    3.3490   70.2490   69.1580 C   0  0  0  0  0  0  0  0  0  0  0  0
    4.6850   70.6530   69.3700 C   0  0  0  0  0  0  0  0  0  0  0  0
    5.6410   70.5970   68.3430 C   0  0  0  0  0  0  0  0  0  0  0  0
    5.2070   70.1280   67.1150 C   0  0  0  0  0  0  0  0  0  0  0  0
    3.8820   69.7300   66.9090 C   0  0  0  0  0  0  0  0  0  0  0  0
    3.7840   69.2960   65.5080 C   0  0  0  0  0  0  0  0  0  0  0  0
    2.8080   68.8760   64.9280 O   0  0  0  0  0  0  0  0  0  0  0  0
    5.2050   69.4870   64.9180 C   0  0  0  0  0  0  0  0  0  0  0  0
    5.5520   69.2450   63.7840 O   0  0  0  0  0  0  0  0  0  0  0  0
    5.9660   69.9840   65.9540 N   0  0  0  0  0  0  0  0  0  0  0  0
    7.0550   71.0280   68.5790 C   0  0  0  0  0  0  0  0  0  0  0  0
    1.0067   69.1921   68.6406 H   0  0  0  0  0  0  0  0  0  0  0  0
    0.9790   70.1225   67.1043 H   0  0  0  0  0  0  0  0  0  0  0  0
    1.5020   68.4041   67.1043 H   0  0  0  0  0  0  0  0  0  0  0  0
    2.6294   70.3071   69.9880 H   0  0  0  0  0  0  0  0  0  0  0  0
    4.9841   71.0202   70.3628 H   0  0  0  0  0  0  0  0  0  0  0  0
    6.9662   70.2188   65.8803 H   0  0  0  0  0  0  0  0  0  0  0  0
    7.2449   71.0859   69.6609 H   0  0  0  0  0  0  0  0  0  0  0  0
    7.7414   70.2983   68.1247 H   0  0  0  0  0  0  0  0  0  0  0  0
    7.2177   72.0165   68.1247 H   0  0  0  0  0  0  0  0  0  0  0  0
  2  1  1  0
  3  2  2  0
  4  3  1  0
  5  4  2  0
  6  5  1  0
  7  6  2  0
  7  2  1  0
  8  7  1  0
  9  8  2  0
 10  8  1  0
 11 10  2  0
 12 10  1  0
 12  6  1  0
 13  5  1  0
  1 14  1  0
  1 15  1  0
  1 16  1  0
  3 17  1  0
  4 18  1  0
 12 19  1  0
 13 20  1  0
 13 21  1  0
 13 22  1  0
M  END
>  <score>  (1) 
-8.813

$$$$
=
     RDKit          3D

 22 23  0  0  0  0  0  0  0  0999 V2000
    5.4570   69.1910   62.5950 C   0  0  0  0  0  0  0  0  0  0  0  0
    4.6520   69.2160   63.8540 C   0  0  0  0  0  0  0  0  0  0  0  0
    5.2300   69.5330   65.0910 C   0  0  0  0  0  0  0  0  0  0  0  0
    4.4630   69.5530   66.2750 C   0  0  0  0  0  0  0  0  0  0  0  0
    3.0900   69.2570   66.2660 C   0  0  0  0  0  0  0  0  0  0  0  0
    2.5300   68.9440   65.0390 C   0  0  0  0  0  0  0  0  0  0  0  0
    3.2960   68.9250   63.8680 C   0  0  0  0  0  0  0  0  0  0  0  0
    2.3860   68.5580   62.7740 C   0  0  0  0  0  0  0  0  0  0  0  0
    2.6500   68.4320   61.6000 O   0  0  0  0  0  0  0  0  0  0  0  0
    0.9990   68.3640   63.4400 C   0  0  0  0  0  0  0  0  0  0  0  0
   -0.0310   68.0550   62.8840 O   0  0  0  0  0  0  0  0  0  0  0  0
    1.2000   68.6160   64.7800 N   0  0  0  0  0  0  0  0  0  0  0  0
    2.2850   69.2810   67.5280 C   0  0  0  0  0  0  0  0  0  0  0  0
    6.5277   69.1577   62.8450 H   0  0  0  0  0  0  0  0  0  0  0  0
    5.1900   68.3007   62.0067 H   0  0  0  0  0  0  0  0  0  0  0  0
    5.2458   70.0961   62.0067 H   0  0  0  0  0  0  0  0  0  0  0  0
    6.3029   69.7709   65.1396 H   0  0  0  0  0  0  0  0  0  0  0  0
    4.9517   69.8063   67.2274 H   0  0  0  0  0  0  0  0  0  0  0  0
    0.4626   68.5682   65.4976 H   0  0  0  0  0  0  0  0  0  0  0  0
    2.9617   69.2608   68.3950 H   0  0  0  0  0  0  0  0  0  0  0  0
    1.6777   70.1977   67.5581 H   0  0  0  0  0  0  0  0  0  0  0  0
    1.6241   68.4022   67.5581 H   0  0  0  0  0  0  0  0  0  0  0  0
  2  1  1  0
  3  2  2  0
  4  3  1  0
  5  4  2  0
  6  5  1  0
  7  6  2  0
  7  2  1  0
  8  7  1  0
  9  8  2  0
 10  8  1  0
 11 10  2  0
 12 10  1  0
 12  6  1  0
 13  5  1  0
  1 14  1  0
  1 15  1  0
  1 16  1  0
  3 17  1  0
  4 18  1  0
 12 19  1  0
 13 20  1  0
 13 21  1  0
 13 22  1  0
M  END
>  <score>  (2) 
-8.465

$$$$
=
     RDKit          3D

 22 23  0  0  0  0  0  0  0  0999 V2000
    3.4300   70.2180   69.1480 C   0  0  0  0  0  0  0  0  0  0  0  0
    3.8740   69.9480   67.7460 C   0  0  0  0  0  0  0  0  0  0  0  0
    5.1770   70.2420   67.3180 C   0  0  0  0  0  0  0  0  0  0  0  0
    5.5870   69.9850   65.9920 C   0  0  0  0  0  0  0  0  0  0  0  0
    4.7120   69.4260   65.0470 C   0  0  0  0  0  0  0  0  0  0  0  0
    3.4280   69.1420   65.4820 C   0  0  0  0  0  0  0  0  0  0  0  0
    3.0260   69.3990   66.7970 C   0  0  0  0  0  0  0  0  0  0  0  0
    1.6220   68.9780   66.9000 C   0  0  0  0  0  0  0  0  0  0  0  0
    0.9000   69.0300   67.8690 O   0  0  0  0  0  0  0  0  0  0  0  0
    1.2480   68.4450   65.4920 C   0  0  0  0  0  0  0  0  0  0  0  0
    0.1750   68.0000   65.1510 O   0  0  0  0  0  0  0  0  0  0  0  0
    2.3900   68.5890   64.7330 N   0  0  0  0  0  0  0  0  0  0  0  0
    5.1570   69.1580   63.6440 C   0  0  0  0  0  0  0  0  0  0  0  0
    4.1520   69.7789   69.8522 H   0  0  0  0  0  0  0  0  0  0  0  0
    3.3723   71.3042   69.3116 H   0  0  0  0  0  0  0  0  0  0  0  0
    2.4390   69.7694   69.3116 H   0  0  0  0  0  0  0  0  0  0  0  0
    5.8926   70.6810   68.0288 H   0  0  0  0  0  0  0  0  0  0  0  0
    6.6168   70.2286   65.6918 H   0  0  0  0  0  0  0  0  0  0  0  0
    2.4665   68.3225   63.7410 H   0  0  0  0  0  0  0  0  0  0  0  0
    6.0992   68.5906   63.6602 H   0  0  0  0  0  0  0  0  0  0  0  0
    4.3861   68.5738   63.1201 H   0  0  0  0  0  0  0  0  0  0  0  0
    5.3129   70.1126   63.1201 H   0  0  0  0  0  0  0  0  0  0  0  0
  2  1  1  0
  3  2  2  0
  4  3  1  0
  5  4  2  0
  6  5  1  0
  7  6  2  0
  7  2  1  0
  8  7  1  0
  9  8  2  0
 10  8  1  0
 11 10  2  0
 12 10  1  0
 12  6  1  0
 13  5  1  0
  1 14  1  0
  1 15  1  0
  1 16  1  0
  3 17  1  0
  4 18  1  0
 12 19  1  0
 13 20  1  0
 13 21  1  0
 13 22  1  0
M  END
>  <score>  (3) 
-8.442

$$$$
=
     RDKit          3D

 22 23  0  0  0  0  0  0  0  0999 V2000
    1.8950   69.3120   68.2010 C   0  0  0  0  0  0  0  0  0  0  0  0
    2.8320   69.3390   67.0370 C   0  0  0  0  0  0  0  0  0  0  0  0
    2.4480   68.8660   65.7730 C   0  0  0  0  0  0  0  0  0  0  0  0
    3.3400   68.8950   64.6790 C   0  0  0  0  0  0  0  0  0  0  0  0
    4.6450   69.3960   64.8080 C   0  0  0  0  0  0  0  0  0  0  0  0
    5.0120   69.8590   66.0610 C   0  0  0  0  0  0  0  0  0  0  0  0
    4.1240   69.8280   67.1410 C   0  0  0  0  0  0  0  0  0  0  0  0
    4.8430   70.3910   68.2940 C   0  0  0  0  0  0  0  0  0  0  0  0
    4.4320   70.5440   69.4220 O   0  0  0  0  0  0  0  0  0  0  0  0
    6.2530   70.7540   67.7620 C   0  0  0  0  0  0  0  0  0  0  0  0
    7.1580   71.2470   68.3970 O   0  0  0  0  0  0  0  0  0  0  0  0
    6.2440   70.3980   66.4310 N   0  0  0  0  0  0  0  0  0  0  0  0
    5.5830   69.4220   63.6410 C   0  0  0  0  0  0  0  0  0  0  0  0
    2.4725   69.3286   69.1371 H   0  0  0  0  0  0  0  0  0  0  0  0
    1.2355   70.1915   68.1613 H   0  0  0  0  0  0  0  0  0  0  0  0
    1.2873   68.3960   68.1613 H   0  0  0  0  0  0  0  0  0  0  0  0
    1.4334   68.4652   65.6319 H   0  0  0  0  0  0  0  0  0  0  0  0
    3.0044   68.5160   63.7024 H   0  0  0  0  0  0  0  0  0  0  0  0
    7.0434   70.5148   65.7921 H   0  0  0  0  0  0  0  0  0  0  0  0
    6.6206   69.4508   64.0051 H   0  0  0  0  0  0  0  0  0  0  0  0
    5.4336   68.5194   63.0303 H   0  0  0  0  0  0  0  0  0  0  0  0
    5.3838   70.3150   63.0303 H   0  0  0  0  0  0  0  0  0  0  0  0
  2  1  1  0
  3  2  2  0
  4  3  1  0
  5  4  2  0
  6  5  1  0
  7  6  2  0
  7  2  1  0
  8  7  1  0
  9  8  2  0
 10  8  1  0
 11 10  2  0
 12 10  1  0
 12  6  1  0
 13  5  1  0
  1 14  1  0
  1 15  1  0
  1 16  1  0
  3 17  1  0
  4 18  1  0
 12 19  1  0
 13 20  1  0
 13 21  1  0
 13 22  1  0
M  END
>  <score>  (4) 
-8.44

$$$$
=
     RDKit          3D

 22 23  0  0  0  0  0  0  0  0999 V2000
    4.1410   68.8200   63.9700 C   0  0  0  0  0  0  0  0  0  0  0  0
    4.2630   69.2950   65.3830 C   0  0  0  0  0  0  0  0  0  0  0  0
    5.4700   69.7970   65.8890 C   0  0  0  0  0  0  0  0  0  0  0  0
    5.5750   70.2420   67.2240 C   0  0  0  0  0  0  0  0  0  0  0  0
    4.4790   70.2020   68.1010 C   0  0  0  0  0  0  0  0  0  0  0  0
    3.2930   69.7030   67.5890 C   0  0  0  0  0  0  0  0  0  0  0  0
    3.1940   69.2620   66.2650 C   0  0  0  0  0  0  0  0  0  0  0  0
    1.8100   68.8070   66.0740 C   0  0  0  0  0  0  0  0  0  0  0  0
    1.3100   68.3530   65.0700 O   0  0  0  0  0  0  0  0  0  0  0  0
    1.1110   69.0320   67.4400 C   0  0  0  0  0  0  0  0  0  0  0  0
   -0.0440   68.7850   67.7080 O   0  0  0  0  0  0  0  0  0  0  0  0
    2.0800   69.5650   68.2620 N   0  0  0  0  0  0  0  0  0  0  0  0
    4.6020   70.6760   69.5150 C   0  0  0  0  0  0  0  0  0  0  0  0
    3.8674   67.7546   63.9637 H   0  0  0  0  0  0  0  0  0  0  0  0
    3.3630   69.4015   63.4536 H   0  0  0  0  0  0  0  0  0  0  0  0
    5.1029   68.9546   63.4536 H   0  0  0  0  0  0  0  0  0  0  0  0
    6.3518   69.8449   65.2332 H   0  0  0  0  0  0  0  0  0  0  0  0
    6.5386   70.6295   67.5864 H   0  0  0  0  0  0  0  0  0  0  0  0
    1.9278   69.8275   69.2463 H   0  0  0  0  0  0  0  0  0  0  0  0
    4.3860   69.8436   70.2009 H   0  0  0  0  0  0  0  0  0  0  0  0
    5.6246   71.0408   69.6918 H   0  0  0  0  0  0  0  0  0  0  0  0
    3.8859   71.4920   69.6918 H   0  0  0  0  0  0  0  0  0  0  0  0
  2  1  1  0
  3  2  2  0
  4  3  1  0
  5  4  2  0
  6  5  1  0
  7  6  2  0
  7  2  1  0
  8  7  1  0
  9  8  2  0
 10  8  1  0
 11 10  2  0
 12 10  1  0
 12  6  1  0
 13  5  1  0
  1 14  1  0
  1 15  1  0
  1 16  1  0
  3 17  1  0
  4 18  1  0
 12 19  1  0
 13 20  1  0
 13 21  1  0
 13 22  1  0
M  END
>  <score>  (5) 
-8.439

$$$$
=
     RDKit          3D

 22 23  0  0  0  0  0  0  0  0999 V2000
    6.3860   70.4980   66.9200 C   0  0  0  0  0  0  0  0  0  0  0  0
    4.9550   70.1040   67.1020 C   0  0  0  0  0  0  0  0  0  0  0  0
    4.3090   70.2310   68.3400 C   0  0  0  0  0  0  0  0  0  0  0  0
    2.9580   69.8550   68.5020 C   0  0  0  0  0  0  0  0  0  0  0  0
    2.2050   69.3400   67.4350 C   0  0  0  0  0  0  0  0  0  0  0  0
    2.8550   69.2190   66.2180 C   0  0  0  0  0  0  0  0  0  0  0  0
    4.1940   69.5920   66.0630 C   0  0  0  0  0  0  0  0  0  0  0  0
    4.5450   69.3300   64.6590 C   0  0  0  0  0  0  0  0  0  0  0  0
    5.6090   69.5160   64.1130 O   0  0  0  0  0  0  0  0  0  0  0  0
    3.2560   68.7600   64.0130 C   0  0  0  0  0  0  0  0  0  0  0  0
    3.1210   68.4130   62.8600 O   0  0  0  0  0  0  0  0  0  0  0  0
    2.3200   68.7380   65.0240 N   0  0  0  0  0  0  0  0  0  0  0  0
    0.7730   68.9450   67.6180 C   0  0  0  0  0  0  0  0  0  0  0  0
    6.8586   70.6281   67.9048 H   0  0  0  0  0  0  0  0  0  0  0  0
    6.9145   69.7119   66.3607 H   0  0  0  0  0  0  0  0  0  0  0  0
    6.4376   71.4438   66.3607 H   0  0  0  0  0  0  0  0  0  0  0  0
    4.8651   70.6309   69.2007 H   0  0  0  0  0  0  0  0  0  0  0  0
    2.4839   69.9683   69.4881 H   0  0  0  0  0  0  0  0  0  0  0  0
    1.3505   68.4088   64.9120 H   0  0  0  0  0  0  0  0  0  0  0  0
    0.5444   68.8820   68.6921 H   0  0  0  0  0  0  0  0  0  0  0  0
    0.1222   69.6972   67.1482 H   0  0  0  0  0  0  0  0  0  0  0  0
    0.5999   67.9656   67.1482 H   0  0  0  0  0  0  0  0  0  0  0  0
  2  1  1  0
  3  2  2  0
  4  3  1  0
  5  4  2  0
  6  5  1  0
  7  6  2  0
  7  2  1  0
  8  7  1  0
  9  8  2  0
 10  8  1  0
 11 10  2  0
 12 10  1  0
 12  6  1  0
 13  5  1  0
  1 14  1  0
  1 15  1  0
  1 16  1  0
  3 17  1  0
  4 18  1  0
 12 19  1  0
 13 20  1  0
 13 21  1  0
 13 22  1  0
M  END
>  <score>  (6) 
-8.192

$$$$
=
     RDKit          3D

 22 23  0  0  0  0  0  0  0  0999 V2000
    4.9600   70.9070   69.0390 C   0  0  0  0  0  0  0  0  0  0  0  0
    3.9470   70.1740   68.2190 C   0  0  0  0  0  0  0  0  0  0  0  0
    2.7110   69.7840   68.7530 C   0  0  0  0  0  0  0  0  0  0  0  0
    1.7610   69.0910   67.9710 C   0  0  0  0  0  0  0  0  0  0  0  0
    2.0120   68.7640   66.6290 C   0  0  0  0  0  0  0  0  0  0  0  0
    3.2370   69.1540   66.1140 C   0  0  0  0  0  0  0  0  0  0  0  0
    4.1750   69.8390   66.8930 C   0  0  0  0  0  0  0  0  0  0  0  0
    5.3400   70.0880   66.0310 C   0  0  0  0  0  0  0  0  0  0  0  0
    6.3690   70.6550   66.3190 O   0  0  0  0  0  0  0  0  0  0  0  0
    4.9740   69.4680   64.6570 C   0  0  0  0  0  0  0  0  0  0  0  0
    5.6660   69.4570   63.6640 O   0  0  0  0  0  0  0  0  0  0  0  0
    3.7100   68.9430   64.8190 N   0  0  0  0  0  0  0  0  0  0  0  0
    0.9980   68.0300   65.8090 C   0  0  0  0  0  0  0  0  0  0  0  0
    4.7476   70.7533   70.1073 H   0  0  0  0  0  0  0  0  0  0  0  0
    5.9653   70.5258   68.8065 H   0  0  0  0  0  0  0  0  0  0  0  0
    4.9123   71.9811   68.8065 H   0  0  0  0  0  0  0  0  0  0  0  0
    2.4766   70.0223   69.8010 H   0  0  0  0  0  0  0  0  0  0  0  0
    0.8017   68.8005   68.4241 H   0  0  0  0  0  0  0  0  0  0  0  0
    3.1828   68.4575   64.0792 H   0  0  0  0  0  0  0  0  0  0  0  0
    0.2892   67.5169   66.4756 H   0  0  0  0  0  0  0  0  0  0  0  0
    0.4531   68.7443   65.1743 H   0  0  0  0  0  0  0  0  0  0  0  0
    1.5064   67.2892   65.1743 H   0  0  0  0  0  0  0  0  0  0  0  0
  2  1  1  0
  3  2  2  0
  4  3  1  0
  5  4  2  0
  6  5  1  0
  7  6  2  0
  7  2  1  0
  8  7  1  0
  9  8  2  0
 10  8  1  0
 11 10  2  0
 12 10  1  0
 12  6  1  0
 13  5  1  0
  1 14  1  0
  1 15  1  0
  1 16  1  0
  3 17  1  0
  4 18  1  0
 12 19  1  0
 13 20  1  0
 13 21  1  0
 13 22  1  0
M  END
>  <score>  (7) 
-7.562

$$$$
=
     RDKit          3D

 22 23  0  0  0  0  0  0  0  0999 V2000
    5.4460   68.4990   62.8500 C   0  0  0  0  0  0  0  0  0  0  0  0
    4.4130   68.3250   63.9170 C   0  0  0  0  0  0  0  0  0  0  0  0
    3.9150   69.4160   64.6430 C   0  0  0  0  0  0  0  0  0  0  0  0
    2.9400   69.2420   65.6490 C   0  0  0  0  0  0  0  0  0  0  0  0
    2.4290   67.9730   65.9660 C   0  0  0  0  0  0  0  0  0  0  0  0
    2.9300   66.9040   65.2420 C   0  0  0  0  0  0  0  0  0  0  0  0
    3.8960   67.0820   64.2470 C   0  0  0  0  0  0  0  0  0  0  0  0
    4.1880   65.7490   63.6980 C   0  0  0  0  0  0  0  0  0  0  0  0
    4.9660   65.4640   62.8170 O   0  0  0  0  0  0  0  0  0  0  0  0
    3.2800   64.7720   64.4890 C   0  0  0  0  0  0  0  0  0  0  0  0
    3.2150   63.5720   64.3430 O   0  0  0  0  0  0  0  0  0  0  0  0
    2.5800   65.5610   65.3750 N   0  0  0  0  0  0  0  0  0  0  0  0
    1.3960   67.8000   67.0350 C   0  0  0  0  0  0  0  0  0  0  0  0
    6.4291   68.6646   63.3149 H   0  0  0  0  0  0  0  0  0  0  0  0
    5.4836   67.5945   62.2251 H   0  0  0  0  0  0  0  0  0  0  0  0
    5.1852   69.3659   62.2251 H   0  0  0  0  0  0  0  0  0  0  0  0
    4.2910   70.4264   64.4247 H   0  0  0  0  0  0  0  0  0  0  0  0
    2.5718   70.1214   66.1976 H   0  0  0  0  0  0  0  0  0  0  0  0
    1.8873   65.2047   66.0489 H   0  0  0  0  0  0  0  0  0  0  0  0
    1.8735   67.8800   68.0227 H   0  0  0  0  0  0  0  0  0  0  0  0
    0.6293   68.5822   66.9340 H   0  0  0  0  0  0  0  0  0  0  0  0
    0.9260   66.8106   66.9340 H   0  0  0  0  0  0  0  0  0  0  0  0
  2  1  1  0
  3  2  2  0
  4  3  1  0
  5  4  2  0
  6  5  1  0
  7  6  2  0
  7  2  1  0
  8  7  1  0
  9  8  2  0
 10  8  1  0
 11 10  2  0
 12 10  1  0
 12  6  1  0
 13  5  1  0
  1 14  1  0
  1 15  1  0
  1 16  1  0
  3 17  1  0
  4 18  1  0
 12 19  1  0
 13 20  1  0
 13 21  1  0
 13 22  1  0
M  END
>  <score>  (8) 
-7.504

$$$$
=
     RDKit          3D

 22 23  0  0  0  0  0  0  0  0999 V2000
    1.9420   68.7210   68.0270 C   0  0  0  0  0  0  0  0  0  0  0  0
    1.7530   68.7570   66.5450 C   0  0  0  0  0  0  0  0  0  0  0  0
    2.8430   68.7770   65.6640 C   0  0  0  0  0  0  0  0  0  0  0  0
    2.6550   68.8120   64.2650 C   0  0  0  0  0  0  0  0  0  0  0  0
    1.3700   68.8290   63.6970 C   0  0  0  0  0  0  0  0  0  0  0  0
    0.3020   68.8100   64.5780 C   0  0  0  0  0  0  0  0  0  0  0  0
    0.4940   68.7760   65.9630 C   0  0  0  0  0  0  0  0  0  0  0  0
   -0.8420   68.7630   66.5750 C   0  0  0  0  0  0  0  0  0  0  0  0
   -1.1190   68.7340   67.7520 O   0  0  0  0  0  0  0  0  0  0  0  0
   -1.8380   68.7950   65.3870 C   0  0  0  0  0  0  0  0  0  0  0  0
   -3.0470   68.7960   65.4600 O   0  0  0  0  0  0  0  0  0  0  0  0
   -1.0540   68.8210   64.2540 N   0  0  0  0  0  0  0  0  0  0  0  0
    1.1820   68.8660   62.2130 C   0  0  0  0  0  0  0  0  0  0  0  0
    0.9781   68.9046   68.5241 H   0  0  0  0  0  0  0  0  0  0  0  0
    2.3255   67.7337   68.3239 H   0  0  0  0  0  0  0  0  0  0  0  0
    2.6616   69.4982   68.3239 H   0  0  0  0  0  0  0  0  0  0  0  0
    3.8651   68.7652   66.0705 H   0  0  0  0  0  0  0  0  0  0  0  0
    3.5347   68.8263   63.6047 H   0  0  0  0  0  0  0  0  0  0  0  0
   -1.4221   68.8454   63.2923 H   0  0  0  0  0  0  0  0  0  0  0  0
    0.1267   69.0737   61.9822 H   0  0  0  0  0  0  0  0  0  0  0  0
    1.8140   69.6570   61.7829 H   0  0  0  0  0  0  0  0  0  0  0  0
    1.4671   67.8945   61.7829 H   0  0  0  0  0  0  0  0  0  0  0  0
  2  1  1  0
  3  2  2  0
  4  3  1  0
  5  4  2  0
  6  5  1  0
  7  6  2  0
  7  2  1  0
  8  7  1  0
  9  8  2  0
 10  8  1  0
 11 10  2  0
 12 10  1  0
 12  6  1  0
 13  5  1  0
  1 14  1  0
  1 15  1  0
  1 16  1  0
  3 17  1  0
  4 18  1  0
 12 19  1  0
 13 20  1  0
 13 21  1  0
 13 22  1  0
M  END
>  <score>  (9) 
-7.172

$$$$
