=
     RDKit          3D

 60 63  0  0  0  0  0  0  0  0999 V2000
   -4.6210   57.5410   75.8850 O   0  0  0  0  0  0  0  0  0  0  0  0
   -3.7540   58.3390   75.5300 C   0  0  0  0  0  0  0  0  0  0  0  0
   -4.0990   59.7150   75.0340 C   0  0  0  0  0  0  0  0  0  0  0  0
   -2.9980   60.2670   74.1400 C   0  0  0  0  0  0  0  0  0  0  0  0
   -1.5830   60.2090   74.7830 C   0  0  1  0  0  0  0  0  0  0  0  0
   -1.3190   58.7880   75.3310 C   0  0  0  0  0  0  0  0  0  0  0  0
   -2.3290   57.9560   75.6470 C   0  0  0  0  0  0  0  0  0  0  0  0
    0.0890   58.3700   75.4770 C   0  0  0  0  0  0  0  0  0  0  0  0
    1.1000   59.1190   74.9960 C   0  0  0  0  0  0  0  0  0  0  0  0
    0.9300   60.4150   74.2530 C   0  0  2  0  0  0  0  0  0  0  0  0
   -0.5120   60.5300   73.6850 C   0  0  2  0  0  0  0  0  0  0  0  0
   -0.7050   61.8650   72.9260 C   0  0  0  0  0  0  0  0  0  0  0  0
    0.3520   62.0580   71.8210 C   0  0  0  0  0  0  0  0  0  0  0  0
    1.7890   61.9620   72.3660 C   0  0  1  0  0  0  0  0  0  0  0  0
    1.9210   60.5880   73.0890 C   0  0  1  0  0  0  0  0  0  0  0  0
    3.4150   60.4950   73.3810 C   0  0  0  0  0  0  0  0  0  0  0  0
    4.0900   61.2150   72.1980 C   0  0  0  0  0  0  0  0  0  0  0  0
    2.9520   61.8230   71.3140 C   0  0  2  0  0  0  0  0  0  0  0  0
    2.0330   63.1620   73.3310 C   0  0  0  0  0  0  0  0  0  0  0  0
    0.4120   57.0940   76.2190 C   0  0  0  0  0  0  0  0  0  0  0  0
   -1.5250   61.2160   75.9580 C   0  0  0  0  0  0  0  0  0  0  0  0
    3.4910   63.1250   70.6560 C   0  0  0  0  0  0  0  0  0  0  0  0
    2.7660   63.9640   70.1180 O   0  0  0  0  0  0  0  0  0  0  0  0
    4.9790   63.3770   70.7510 C   0  0  0  0  0  0  0  0  0  0  0  0
    2.6630   60.7740   70.3490 O   0  0  0  0  0  0  0  0  0  0  0  0
    3.6640   59.9820   69.8860 C   0  0  0  0  0  0  0  0  0  0  0  0
    4.6000   60.3480   69.1940 O   0  0  0  0  0  0  0  0  0  0  0  0
    3.4610   58.5750   70.3590 C   0  0  0  0  0  0  0  0  0  0  0  0
   -5.0365   59.6657   74.4606 H   0  0  0  0  0  0  0  0  0  0  0  0
   -4.2113   60.3814   75.9020 H   0  0  0  0  0  0  0  0  0  0  0  0
   -2.9806   59.6817   73.2088 H   0  0  0  0  0  0  0  0  0  0  0  0
   -3.2282   61.3282   73.9643 H   0  0  0  0  0  0  0  0  0  0  0  0
   -2.0844   56.9463   76.0084 H   0  0  0  0  0  0  0  0  0  0  0  0
    2.1254   58.7557   75.1588 H   0  0  0  0  0  0  0  0  0  0  0  0
    1.1301   61.2073   74.9894 H   0  0  0  0  0  0  0  0  0  0  0  0
   -0.6709   59.7551   72.9206 H   0  0  0  0  0  0  0  0  0  0  0  0
   -1.7045   61.8712   72.4666 H   0  0  0  0  0  0  0  0  0  0  0  0
   -0.5949   62.6864   73.6492 H   0  0  0  0  0  0  0  0  0  0  0  0
    0.2107   61.2801   71.0562 H   0  0  0  0  0  0  0  0  0  0  0  0
    0.2181   63.0647   71.3984 H   0  0  0  0  0  0  0  0  0  0  0  0
    1.6124   59.7163   72.4933 H   0  0  0  0  0  0  0  0  0  0  0  0
    3.6569   60.9967   74.3296 H   0  0  0  0  0  0  0  0  0  0  0  0
    3.7551   59.4539   73.4836 H   0  0  0  0  0  0  0  0  0  0  0  0
    4.7466   62.0155   72.5695 H   0  0  0  0  0  0  0  0  0  0  0  0
    4.7044   60.5138   71.6143 H   0  0  0  0  0  0  0  0  0  0  0  0
    1.9625   62.8152   74.3725 H   0  0  0  0  0  0  0  0  0  0  0  0
    3.0345   63.5798   73.1507 H   0  0  0  0  0  0  0  0  0  0  0  0
    1.2742   63.9377   73.1507 H   0  0  0  0  0  0  0  0  0  0  0  0
    0.3654   57.2781   77.3025 H   0  0  0  0  0  0  0  0  0  0  0  0
   -0.3178   56.3171   75.9473 H   0  0  0  0  0  0  0  0  0  0  0  0
    1.4236   56.7579   75.9473 H   0  0  0  0  0  0  0  0  0  0  0  0
   -1.5565   60.6688   76.9117 H   0  0  0  0  0  0  0  0  0  0  0  0
   -0.5920   61.7956   75.8985 H   0  0  0  0  0  0  0  0  0  0  0  0
   -2.3853   61.8989   75.8985 H   0  0  0  0  0  0  0  0  0  0  0  0
    5.2756   63.4272   71.8091 H   0  0  0  0  0  0  0  0  0  0  0  0
    5.5219   62.5580   70.2565 H   0  0  0  0  0  0  0  0  0  0  0  0
    5.2220   64.3291   70.2565 H   0  0  0  0  0  0  0  0  0  0  0  0
    3.4581   58.5547   71.4588 H   0  0  0  0  0  0  0  0  0  0  0  0
    2.4990   58.1969   69.9827 H   0  0  0  0  0  0  0  0  0  0  0  0
    4.2769   57.9404   69.9827 H   0  0  0  0  0  0  0  0  0  0  0  0
  2  1  2  0
  3  2  1  0
  4  3  1  0
  5  4  1  0
  6  5  1  0
  7  6  2  0
  7  2  1  0
  8  6  1  0
  9  8  2  0
 10  9  1  0
 11 10  1  0
 11  5  1  0
 12 11  1  0
 13 12  1  0
 14 13  1  0
 15 14  1  0
 15 10  1  0
 16 15  1  0
 17 16  1  0
 18 17  1  0
 18 14  1  0
 14 19  1  1
 20  8  1  0
  5 21  1  1
 22 18  1  0
 23 22  2  0
 24 22  1  0
 18 25  1  6
 26 25  1  0
 27 26  2  0
 28 26  1  0
  3 29  1  0
  3 30  1  0
  4 31  1  0
  4 32  1  0
  7 33  1  0
  9 34  1  0
 10 35  1  1
 11 36  1  6
 12 37  1  0
 12 38  1  0
 13 39  1  0
 13 40  1  0
 15 41  1  6
 16 42  1  0
 16 43  1  0
 17 44  1  0
 17 45  1  0
 19 46  1  0
 19 47  1  0
 19 48  1  0
 20 49  1  0
 20 50  1  0
 20 51  1  0
 21 52  1  0
 21 53  1  0
 21 54  1  0
 24 55  1  0
 24 56  1  0
 24 57  1  0
 28 58  1  0
 28 59  1  0
 28 60  1  0
M  END
>  <score>  (1) 
-8.374

$$$$
=
     RDKit          3D

 60 63  0  0  0  0  0  0  0  0999 V2000
    3.3930   62.9730   67.8290 O   0  0  0  0  0  0  0  0  0  0  0  0
    3.3630   62.3450   68.8860 C   0  0  0  0  0  0  0  0  0  0  0  0
    4.3010   61.2020   69.1560 C   0  0  0  0  0  0  0  0  0  0  0  0
    3.7220   60.2500   70.1920 C   0  0  0  0  0  0  0  0  0  0  0  0
    3.2600   60.9550   71.4990 C   0  0  1  0  0  0  0  0  0  0  0  0
    2.3540   62.1580   71.1490 C   0  0  0  0  0  0  0  0  0  0  0  0
    2.4150   62.7580   69.9450 C   0  0  0  0  0  0  0  0  0  0  0  0
    1.4030   62.6130   72.1820 C   0  0  0  0  0  0  0  0  0  0  0  0
    1.2040   61.9110   73.3150 C   0  0  0  0  0  0  0  0  0  0  0  0
    1.8810   60.6100   73.6490 C   0  0  2  0  0  0  0  0  0  0  0  0
    2.4340   59.9390   72.3600 C   0  0  2  0  0  0  0  0  0  0  0  0
    3.1420   58.6030   72.6900 C   0  0  0  0  0  0  0  0  0  0  0  0
    2.2270   57.6440   73.4750 C   0  0  0  0  0  0  0  0  0  0  0  0
    1.6800   58.2850   74.7640 C   0  0  1  0  0  0  0  0  0  0  0  0
    0.9580   59.6040   74.3560 C   0  0  1  0  0  0  0  0  0  0  0  0
    0.2660   60.0310   75.6480 C   0  0  0  0  0  0  0  0  0  0  0  0
   -0.1100   58.7080   76.3440 C   0  0  0  0  0  0  0  0  0  0  0  0
    0.4960   57.5460   75.4920 C   0  0  2  0  0  0  0  0  0  0  0  0
    2.8740   58.5420   75.7340 C   0  0  0  0  0  0  0  0  0  0  0  0
    0.6630   63.9150   71.9880 C   0  0  0  0  0  0  0  0  0  0  0  0
    4.5070   61.4730   72.2560 C   0  0  0  0  0  0  0  0  0  0  0  0
    0.8550   56.3760   76.4520 C   0  0  0  0  0  0  0  0  0  0  0  0
    1.6360   55.4710   76.1560 O   0  0  0  0  0  0  0  0  0  0  0  0
    0.2460   56.4120   77.8360 C   0  0  0  0  0  0  0  0  0  0  0  0
   -0.5660   57.2100   74.5570 O   0  0  0  0  0  0  0  0  0  0  0  0
   -0.9280   55.9140   74.3760 C   0  0  0  0  0  0  0  0  0  0  0  0
   -0.3400   55.0990   73.6850 O   0  0  0  0  0  0  0  0  0  0  0  0
   -2.1670   55.6170   75.1650 C   0  0  0  0  0  0  0  0  0  0  0  0
    4.4748   60.6513   68.2198 H   0  0  0  0  0  0  0  0  0  0  0  0
    5.2451   61.6100   69.5461 H   0  0  0  0  0  0  0  0  0  0  0  0
    2.8551   59.7388   69.7479 H   0  0  0  0  0  0  0  0  0  0  0  0
    4.5242   59.5506   70.4700 H   0  0  0  0  0  0  0  0  0  0  0  0
    1.7291   63.5930   69.7392 H   0  0  0  0  0  0  0  0  0  0  0  0
    0.4943   62.3194   74.0495 H   0  0  0  0  0  0  0  0  0  0  0  0
    2.6952   60.8689   74.3419 H   0  0  0  0  0  0  0  0  0  0  0  0
    1.5983   59.6512   71.7051 H   0  0  0  0  0  0  0  0  0  0  0  0
    3.4414   58.1179   71.7493 H   0  0  0  0  0  0  0  0  0  0  0  0
    4.0170   58.8279   73.3175 H   0  0  0  0  0  0  0  0  0  0  0  0
    1.3796   57.3591   72.8341 H   0  0  0  0  0  0  0  0  0  0  0  0
    2.8251   56.7666   73.7622 H   0  0  0  0  0  0  0  0  0  0  0  0
    0.2076   59.4965   73.5590 H   0  0  0  0  0  0  0  0  0  0  0  0
    0.9487   60.6205   76.2776 H   0  0  0  0  0  0  0  0  0  0  0  0
   -0.6114   60.6674   75.4604 H   0  0  0  0  0  0  0  0  0  0  0  0
    0.3074   58.6860   77.3615 H   0  0  0  0  0  0  0  0  0  0  0  0
   -1.2025   58.6054   76.4214 H   0  0  0  0  0  0  0  0  0  0  0  0
    2.5241   58.4667   76.7742 H   0  0  0  0  0  0  0  0  0  0  0  0
    3.6590   57.7922   75.5560 H   0  0  0  0  0  0  0  0  0  0  0  0
    3.2810   59.5483   75.5560 H   0  0  0  0  0  0  0  0  0  0  0  0
    0.4175   64.3470   72.9694 H   0  0  0  0  0  0  0  0  0  0  0  0
    1.2971   64.6170   71.4266 H   0  0  0  0  0  0  0  0  0  0  0  0
   -0.2646   63.7294   71.4266 H   0  0  0  0  0  0  0  0  0  0  0  0
    4.3340   61.4011   73.3399 H   0  0  0  0  0  0  0  0  0  0  0  0
    5.3811   60.8635   71.9830 H   0  0  0  0  0  0  0  0  0  0  0  0
    4.6920   62.5224   71.9830 H   0  0  0  0  0  0  0  0  0  0  0  0
    1.0457   56.3647   78.5898 H   0  0  0  0  0  0  0  0  0  0  0  0
   -0.3223   57.3453   77.9624 H   0  0  0  0  0  0  0  0  0  0  0  0
   -0.4283   55.5521   77.9624 H   0  0  0  0  0  0  0  0  0  0  0  0
   -1.9392   55.6716   76.2398 H   0  0  0  0  0  0  0  0  0  0  0  0
   -2.9450   56.3541   74.9172 H   0  0  0  0  0  0  0  0  0  0  0  0
   -2.5263   54.6073   74.9172 H   0  0  0  0  0  0  0  0  0  0  0  0
  2  1  2  0
  3  2  1  0
  4  3  1  0
  5  4  1  0
  6  5  1  0
  7  6  2  0
  7  2  1  0
  8  6  1  0
  9  8  2  0
 10  9  1  0
 11 10  1  0
 11  5  1  0
 12 11  1  0
 13 12  1  0
 14 13  1  0
 15 14  1  0
 15 10  1  0
 16 15  1  0
 17 16  1  0
 18 17  1  0
 18 14  1  0
 14 19  1  1
 20  8  1  0
  5 21  1  1
 22 18  1  0
 23 22  2  0
 24 22  1  0
 18 25  1  6
 26 25  1  0
 27 26  2  0
 28 26  1  0
  3 29  1  0
  3 30  1  0
  4 31  1  0
  4 32  1  0
  7 33  1  0
  9 34  1  0
 10 35  1  1
 11 36  1  6
 12 37  1  0
 12 38  1  0
 13 39  1  0
 13 40  1  0
 15 41  1  6
 16 42  1  0
 16 43  1  0
 17 44  1  0
 17 45  1  0
 19 46  1  0
 19 47  1  0
 19 48  1  0
 20 49  1  0
 20 50  1  0
 20 51  1  0
 21 52  1  0
 21 53  1  0
 21 54  1  0
 24 55  1  0
 24 56  1  0
 24 57  1  0
 28 58  1  0
 28 59  1  0
 28 60  1  0
M  END
>  <score>  (2) 
-8.314

$$$$
=
     RDKit          3D

 60 63  0  0  0  0  0  0  0  0999 V2000
    1.5470   67.2630   69.7080 O   0  0  0  0  0  0  0  0  0  0  0  0
    1.2590   66.1950   70.2460 C   0  0  0  0  0  0  0  0  0  0  0  0
    0.0290   66.0410   71.0960 C   0  0  0  0  0  0  0  0  0  0  0  0
    0.1850   64.8950   72.0850 C   0  0  0  0  0  0  0  0  0  0  0  0
    0.6170   63.5550   71.4250 C   0  0  1  0  0  0  0  0  0  0  0  0
    1.8440   63.7950   70.5150 C   0  0  0  0  0  0  0  0  0  0  0  0
    2.1160   65.0120   70.0070 C   0  0  0  0  0  0  0  0  0  0  0  0
    2.7180   62.6390   70.2380 C   0  0  0  0  0  0  0  0  0  0  0  0
    2.5620   61.4660   70.8830 C   0  0  0  0  0  0  0  0  0  0  0  0
    1.5310   61.2030   71.9460 C   0  0  2  0  0  0  0  0  0  0  0  0
    1.0190   62.5400   72.5500 C   0  0  2  0  0  0  0  0  0  0  0  0
   -0.0510   62.2850   73.6390 C   0  0  0  0  0  0  0  0  0  0  0  0
    0.4610   61.3320   74.7370 C   0  0  0  0  0  0  0  0  0  0  0  0
    0.9600   59.9940   74.1610 C   0  0  1  0  0  0  0  0  0  0  0  0
    2.0500   60.3240   73.0980 C   0  0  1  0  0  0  0  0  0  0  0  0
    2.6320   58.9530   72.7650 C   0  0  0  0  0  0  0  0  0  0  0  0
    2.5480   58.1630   74.0850 C   0  0  0  0  0  0  0  0  0  0  0  0
    1.7940   59.0630   75.1180 C   0  0  2  0  0  0  0  0  0  0  0  0
   -0.2550   59.2370   73.5450 C   0  0  0  0  0  0  0  0  0  0  0  0
    3.7890   62.7540   69.1790 C   0  0  0  0  0  0  0  0  0  0  0  0
   -0.5510   63.0240   70.5590 C   0  0  0  0  0  0  0  0  0  0  0  0
    1.0090   58.1350   76.0890 C   0  0  0  0  0  0  0  0  0  0  0  0
    0.2410   58.5540   76.9550 O   0  0  0  0  0  0  0  0  0  0  0  0
    1.1710   56.6440   75.8940 C   0  0  0  0  0  0  0  0  0  0  0  0
    2.8580   59.8050   75.7750 O   0  0  0  0  0  0  0  0  0  0  0  0
    3.3710   59.3610   76.9510 C   0  0  0  0  0  0  0  0  0  0  0  0
    3.9890   58.3220   77.1120 O   0  0  0  0  0  0  0  0  0  0  0  0
    3.0760   60.3470   78.0400 C   0  0  0  0  0  0  0  0  0  0  0  0
   -0.1422   66.9744   71.6522 H   0  0  0  0  0  0  0  0  0  0  0  0
   -0.8244   65.8202   70.4380 H   0  0  0  0  0  0  0  0  0  0  0  0
    0.9460   65.1779   72.8272 H   0  0  0  0  0  0  0  0  0  0  0  0
   -0.8022   64.7260   72.5399 H   0  0  0  0  0  0  0  0  0  0  0  0
    3.0160   65.1325   69.3862 H   0  0  0  0  0  0  0  0  0  0  0  0
    3.2376   60.6412   70.6124 H   0  0  0  0  0  0  0  0  0  0  0  0
    0.7187   60.6590   71.4417 H   0  0  0  0  0  0  0  0  0  0  0  0
    1.8394   63.0412   73.0845 H   0  0  0  0  0  0  0  0  0  0  0  0
   -0.3241   63.2453   74.1008 H   0  0  0  0  0  0  0  0  0  0  0  0
   -0.9210   61.8142   73.1580 H   0  0  0  0  0  0  0  0  0  0  0  0
    1.2906   61.8193   75.2702 H   0  0  0  0  0  0  0  0  0  0  0  0
   -0.3785   61.1156   75.4140 H   0  0  0  0  0  0  0  0  0  0  0  0
    2.8556   60.9865   73.4474 H   0  0  0  0  0  0  0  0  0  0  0  0
    2.0401   58.4604   71.9795 H   0  0  0  0  0  0  0  0  0  0  0  0
    3.6616   59.0188   72.3835 H   0  0  0  0  0  0  0  0  0  0  0  0
    1.9946   57.2254   73.9280 H   0  0  0  0  0  0  0  0  0  0  0  0
    3.5535   57.9082   74.4512 H   0  0  0  0  0  0  0  0  0  0  0  0
   -0.8888   58.8421   74.3527 H   0  0  0  0  0  0  0  0  0  0  0  0
   -0.8418   59.9296   72.9237 H   0  0  0  0  0  0  0  0  0  0  0  0
    0.1080   58.4050   72.9237 H   0  0  0  0  0  0  0  0  0  0  0  0
    4.7719   62.8595   69.6615 H   0  0  0  0  0  0  0  0  0  0  0  0
    3.7834   61.8501   68.5522 H   0  0  0  0  0  0  0  0  0  0  0  0
    3.5916   63.6361   68.5522 H   0  0  0  0  0  0  0  0  0  0  0  0
   -1.3558   62.6581   71.2135 H   0  0  0  0  0  0  0  0  0  0  0  0
   -0.9353   63.8359   69.9241 H   0  0  0  0  0  0  0  0  0  0  0  0
   -0.1919   62.2007   69.9241 H   0  0  0  0  0  0  0  0  0  0  0  0
    1.2247   56.1496   76.8752 H   0  0  0  0  0  0  0  0  0  0  0  0
    0.3102   56.2520   75.3325 H   0  0  0  0  0  0  0  0  0  0  0  0
    2.0959   56.4460   75.3325 H   0  0  0  0  0  0  0  0  0  0  0  0
    3.2199   59.8662   79.0188 H   0  0  0  0  0  0  0  0  0  0  0  0
    3.7562   61.2068   77.9503 H   0  0  0  0  0  0  0  0  0  0  0  0
    2.0353   60.6919   77.9503 H   0  0  0  0  0  0  0  0  0  0  0  0
  2  1  2  0
  3  2  1  0
  4  3  1  0
  5  4  1  0
  6  5  1  0
  7  6  2  0
  7  2  1  0
  8  6  1  0
  9  8  2  0
 10  9  1  0
 11 10  1  0
 11  5  1  0
 12 11  1  0
 13 12  1  0
 14 13  1  0
 15 14  1  0
 15 10  1  0
 16 15  1  0
 17 16  1  0
 18 17  1  0
 18 14  1  0
 14 19  1  6
 20  8  1  0
  5 21  1  6
 22 18  1  0
 23 22  2  0
 24 22  1  0
 18 25  1  1
 26 25  1  0
 27 26  2  0
 28 26  1  0
  3 29  1  0
  3 30  1  0
  4 31  1  0
  4 32  1  0
  7 33  1  0
  9 34  1  0
 10 35  1  6
 11 36  1  1
 12 37  1  0
 12 38  1  0
 13 39  1  0
 13 40  1  0
 15 41  1  1
 16 42  1  0
 16 43  1  0
 17 44  1  0
 17 45  1  0
 19 46  1  0
 19 47  1  0
 19 48  1  0
 20 49  1  0
 20 50  1  0
 20 51  1  0
 21 52  1  0
 21 53  1  0
 21 54  1  0
 24 55  1  0
 24 56  1  0
 24 57  1  0
 28 58  1  0
 28 59  1  0
 28 60  1  0
M  END
>  <score>  (3) 
-8.05

$$$$
=
     RDKit          3D

 60 63  0  0  0  0  0  0  0  0999 V2000
    0.5110   54.5450   76.9650 O   0  0  0  0  0  0  0  0  0  0  0  0
    0.5370   55.6880   76.5110 C   0  0  0  0  0  0  0  0  0  0  0  0
   -0.7180   56.4890   76.3060 C   0  0  0  0  0  0  0  0  0  0  0  0
   -0.5180   57.5590   75.2430 C   0  0  0  0  0  0  0  0  0  0  0  0
    0.7240   58.4610   75.4900 C   0  0  1  0  0  0  0  0  0  0  0  0
    1.9640   57.5770   75.7570 C   0  0  0  0  0  0  0  0  0  0  0  0
    1.8440   56.3140   76.2080 C   0  0  0  0  0  0  0  0  0  0  0  0
    3.2880   58.1680   75.4830 C   0  0  0  0  0  0  0  0  0  0  0  0
    3.4150   59.3570   74.8630 C   0  0  0  0  0  0  0  0  0  0  0  0
    2.2670   60.1940   74.3680 C   0  0  2  0  0  0  0  0  0  0  0  0
    0.9900   59.3220   74.2070 C   0  0  2  0  0  0  0  0  0  0  0  0
   -0.2030   60.1720   73.7070 C   0  0  0  0  0  0  0  0  0  0  0  0
    0.1310   60.9240   72.4050 C   0  0  0  0  0  0  0  0  0  0  0  0
    1.3860   61.8060   72.5470 C   0  0  1  0  0  0  0  0  0  0  0  0
    2.5490   60.8850   73.0220 C   0  0  1  0  0  0  0  0  0  0  0  0
    3.7730   61.7890   72.9080 C   0  0  0  0  0  0  0  0  0  0  0  0
    3.4760   62.6960   71.6980 C   0  0  0  0  0  0  0  0  0  0  0  0
    2.0210   62.3760   71.2240 C   0  0  2  0  0  0  0  0  0  0  0  0
    1.0790   62.9430   73.5680 C   0  0  0  0  0  0  0  0  0  0  0  0
    4.5330   57.4450   75.9410 C   0  0  0  0  0  0  0  0  0  0  0  0
    0.4620   59.3450   76.7330 C   0  0  0  0  0  0  0  0  0  0  0  0
    1.4080   63.6760   70.6290 C   0  0  0  0  0  0  0  0  0  0  0  0
    0.2490   63.7530   70.2180 O   0  0  0  0  0  0  0  0  0  0  0  0
    2.2840   64.9080   70.6240 C   0  0  0  0  0  0  0  0  0  0  0  0
    2.2010   61.3260   70.2340 O   0  0  0  0  0  0  0  0  0  0  0  0
    3.1190   61.4750   69.2440 C   0  0  0  0  0  0  0  0  0  0  0  0
    3.0910   62.3230   68.3680 O   0  0  0  0  0  0  0  0  0  0  0  0
    4.1940   60.4410   69.3870 C   0  0  0  0  0  0  0  0  0  0  0  0
   -1.5269   55.8144   75.9888 H   0  0  0  0  0  0  0  0  0  0  0  0
   -0.9758   56.9830   77.2545 H   0  0  0  0  0  0  0  0  0  0  0  0
   -0.3984   57.0625   74.2687 H   0  0  0  0  0  0  0  0  0  0  0  0
   -1.4018   58.2131   75.2751 H   0  0  0  0  0  0  0  0  0  0  0  0
    2.7580   55.7207   76.3581 H   0  0  0  0  0  0  0  0  0  0  0  0
    4.4326   59.7444   74.7072 H   0  0  0  0  0  0  0  0  0  0  0  0
    2.1208   60.9760   75.1276 H   0  0  0  0  0  0  0  0  0  0  0  0
    1.1479   58.5778   73.4125 H   0  0  0  0  0  0  0  0  0  0  0  0
   -1.0604   59.5077   73.5237 H   0  0  0  0  0  0  0  0  0  0  0  0
   -0.4367   60.9184   74.4805 H   0  0  0  0  0  0  0  0  0  0  0  0
    0.3038   60.1884   71.6056 H   0  0  0  0  0  0  0  0  0  0  0  0
   -0.7183   61.5815   72.1678 H   0  0  0  0  0  0  0  0  0  0  0  0
    2.7059   59.9820   72.4137 H   0  0  0  0  0  0  0  0  0  0  0  0
    3.8989   62.3890   73.8213 H   0  0  0  0  0  0  0  0  0  0  0  0
    4.7037   61.2165   72.7813 H   0  0  0  0  0  0  0  0  0  0  0  0
    3.5522   63.7532   71.9922 H   0  0  0  0  0  0  0  0  0  0  0  0
    4.1983   62.5147   70.8885 H   0  0  0  0  0  0  0  0  0  0  0  0
    1.1839   62.5546   74.5918 H   0  0  0  0  0  0  0  0  0  0  0  0
    1.7853   63.7725   73.4164 H   0  0  0  0  0  0  0  0  0  0  0  0
    0.0511   63.3043   73.4164 H   0  0  0  0  0  0  0  0  0  0  0  0
    4.5633   57.4274   77.0404 H   0  0  0  0  0  0  0  0  0  0  0  0
    4.5201   56.4139   75.5580 H   0  0  0  0  0  0  0  0  0  0  0  0
    5.4221   57.9673   75.5580 H   0  0  0  0  0  0  0  0  0  0  0  0
    0.6366   58.7558   77.6453 H   0  0  0  0  0  0  0  0  0  0  0  0
    1.1427   60.2090   76.7186 H   0  0  0  0  0  0  0  0  0  0  0  0
   -0.5795   59.6985   76.7186 H   0  0  0  0  0  0  0  0  0  0  0  0
    2.4985   65.2096   71.6599 H   0  0  0  0  0  0  0  0  0  0  0  0
    3.2275   64.6850   70.1042 H   0  0  0  0  0  0  0  0  0  0  0  0
    1.7635   65.7259   70.1042 H   0  0  0  0  0  0  0  0  0  0  0  0
    4.3857   60.2566   70.4544 H   0  0  0  0  0  0  0  0  0  0  0  0
    3.8701   59.5064   68.9058 H   0  0  0  0  0  0  0  0  0  0  0  0
    5.1153   60.8010   68.9058 H   0  0  0  0  0  0  0  0  0  0  0  0
  2  1  2  0
  3  2  1  0
  4  3  1  0
  5  4  1  0
  6  5  1  0
  7  6  2  0
  7  2  1  0
  8  6  1  0
  9  8  2  0
 10  9  1  0
 11 10  1  0
 11  5  1  0
 12 11  1  0
 13 12  1  0
 14 13  1  0
 15 14  1  0
 15 10  1  0
 16 15  1  0
 17 16  1  0
 18 17  1  0
 18 14  1  0
 14 19  1  1
 20  8  1  0
  5 21  1  1
 22 18  1  0
 23 22  2  0
 24 22  1  0
 18 25  1  6
 26 25  1  0
 27 26  2  0
 28 26  1  0
  3 29  1  0
  3 30  1  0
  4 31  1  0
  4 32  1  0
  7 33  1  0
  9 34  1  0
 10 35  1  1
 11 36  1  6
 12 37  1  0
 12 38  1  0
 13 39  1  0
 13 40  1  0
 15 41  1  6
 16 42  1  0
 16 43  1  0
 17 44  1  0
 17 45  1  0
 19 46  1  0
 19 47  1  0
 19 48  1  0
 20 49  1  0
 20 50  1  0
 20 51  1  0
 21 52  1  0
 21 53  1  0
 21 54  1  0
 24 55  1  0
 24 56  1  0
 24 57  1  0
 28 58  1  0
 28 59  1  0
 28 60  1  0
M  END
>  <score>  (4) 
-7.891

$$$$
=
     RDKit          3D

 60 63  0  0  0  0  0  0  0  0999 V2000
    3.4210   62.7080   68.0570 O   0  0  0  0  0  0  0  0  0  0  0  0
    3.0670   62.2920   69.1580 C   0  0  0  0  0  0  0  0  0  0  0  0
    3.6230   61.0240   69.7450 C   0  0  0  0  0  0  0  0  0  0  0  0
    2.6640   60.4230   70.7620 C   0  0  0  0  0  0  0  0  0  0  0  0
    2.2050   61.4270   71.8560 C   0  0  1  0  0  0  0  0  0  0  0  0
    1.7060   62.7310   71.1910 C   0  0  0  0  0  0  0  0  0  0  0  0
    2.1060   63.0880   69.9550 C   0  0  0  0  0  0  0  0  0  0  0  0
    0.7580   63.5620   71.9570 C   0  0  0  0  0  0  0  0  0  0  0  0
    0.2120   63.1290   73.1100 C   0  0  0  0  0  0  0  0  0  0  0  0
    0.4690   61.7820   73.7280 C   0  0  2  0  0  0  0  0  0  0  0  0
    1.0210   60.7920   72.6640 C   0  0  2  0  0  0  0  0  0  0  0  0
    1.3000   59.4040   73.2880 C   0  0  0  0  0  0  0  0  0  0  0  0
    0.0580   58.8310   73.9980 C   0  0  0  0  0  0  0  0  0  0  0  0
   -0.4970   59.7910   75.0670 C   0  0  1  0  0  0  0  0  0  0  0  0
   -0.7810   61.1530   74.3660 C   0  0  1  0  0  0  0  0  0  0  0  0
   -1.5300   61.9410   75.4370 C   0  0  0  0  0  0  0  0  0  0  0  0
   -2.3380   60.8800   76.2090 C   0  0  0  0  0  0  0  0  0  0  0  0
   -1.9300   59.4810   75.6410 C   0  0  2  0  0  0  0  0  0  0  0  0
    0.5580   59.9230   76.2080 C   0  0  0  0  0  0  0  0  0  0  0  0
    0.4200   64.9490   71.4640 C   0  0  0  0  0  0  0  0  0  0  0  0
    3.4110   61.7610   72.7680 C   0  0  0  0  0  0  0  0  0  0  0  0
   -2.0380   58.4400   76.7920 C   0  0  0  0  0  0  0  0  0  0  0  0
   -1.7530   57.2490   76.6580 O   0  0  0  0  0  0  0  0  0  0  0  0
   -2.4610   58.9580   78.1490 C   0  0  0  0  0  0  0  0  0  0  0  0
   -2.8840   59.2480   74.5700 O   0  0  0  0  0  0  0  0  0  0  0  0
   -4.2000   59.5260   74.7590 C   0  0  0  0  0  0  0  0  0  0  0  0
   -4.7380   60.6020   74.5530 O   0  0  0  0  0  0  0  0  0  0  0  0
   -4.9130   58.3050   75.2530 C   0  0  0  0  0  0  0  0  0  0  0  0
    3.7905   60.2973   68.9364 H   0  0  0  0  0  0  0  0  0  0  0  0
    4.5685   61.2609   70.2548 H   0  0  0  0  0  0  0  0  0  0  0  0
    1.7735   60.0602   70.2277 H   0  0  0  0  0  0  0  0  0  0  0  0
    3.2043   59.6134   71.2745 H   0  0  0  0  0  0  0  0  0  0  0  0
    1.7004   64.0125   69.5183 H   0  0  0  0  0  0  0  0  0  0  0  0
   -0.4716   63.8102   73.6379 H   0  0  0  0  0  0  0  0  0  0  0  0
    1.2058   61.9581   74.5256 H   0  0  0  0  0  0  0  0  0  0  0  0
    0.2498   60.5997   71.9036 H   0  0  0  0  0  0  0  0  0  0  0  0
    1.6048   58.7106   72.4903 H   0  0  0  0  0  0  0  0  0  0  0  0
    2.0962   59.5220   74.0377 H   0  0  0  0  0  0  0  0  0  0  0  0
   -0.7248   58.6459   73.2477 H   0  0  0  0  0  0  0  0  0  0  0  0
    0.3574   57.9007   74.5029 H   0  0  0  0  0  0  0  0  0  0  0  0
   -1.4012   61.0902   73.4597 H   0  0  0  0  0  0  0  0  0  0  0  0
   -0.8238   62.4538   76.1065 H   0  0  0  0  0  0  0  0  0  0  0  0
   -2.1734   62.7221   75.0058 H   0  0  0  0  0  0  0  0  0  0  0  0
   -2.1019   60.9341   77.2820 H   0  0  0  0  0  0  0  0  0  0  0  0
   -3.4182   61.0493   76.0887 H   0  0  0  0  0  0  0  0  0  0  0  0
    0.0532   59.8598   77.1833 H   0  0  0  0  0  0  0  0  0  0  0  0
    1.2940   59.1099   76.1227 H   0  0  0  0  0  0  0  0  0  0  0  0
    1.0710   60.8923   76.1227 H   0  0  0  0  0  0  0  0  0  0  0  0
    0.2578   65.6146   72.3246 H   0  0  0  0  0  0  0  0  0  0  0  0
    1.2506   65.3339   70.8542 H   0  0  0  0  0  0  0  0  0  0  0  0
   -0.4946   64.9086   70.8542 H   0  0  0  0  0  0  0  0  0  0  0  0
    3.1079   61.6771   73.8221 H   0  0  0  0  0  0  0  0  0  0  0  0
    4.2306   61.0560   72.5649 H   0  0  0  0  0  0  0  0  0  0  0  0
    3.7512   62.7872   72.5649 H   0  0  0  0  0  0  0  0  0  0  0  0
   -1.9751   58.3630   78.9363 H   0  0  0  0  0  0  0  0  0  0  0  0
   -2.1621   60.0119   78.2487 H   0  0  0  0  0  0  0  0  0  0  0  0
   -3.5534   58.8757   78.2487 H   0  0  0  0  0  0  0  0  0  0  0  0
   -4.9151   58.3015   76.3530 H   0  0  0  0  0  0  0  0  0  0  0  0
   -5.9494   58.3113   74.8844 H   0  0  0  0  0  0  0  0  0  0  0  0
   -4.3982   57.4055   74.8844 H   0  0  0  0  0  0  0  0  0  0  0  0
  2  1  2  0
  3  2  1  0
  4  3  1  0
  5  4  1  0
  6  5  1  0
  7  6  2  0
  7  2  1  0
  8  6  1  0
  9  8  2  0
 10  9  1  0
 11 10  1  0
 11  5  1  0
 12 11  1  0
 13 12  1  0
 14 13  1  0
 15 14  1  0
 15 10  1  0
 16 15  1  0
 17 16  1  0
 18 17  1  0
 18 14  1  0
 14 19  1  1
 20  8  1  0
  5 21  1  1
 22 18  1  0
 23 22  2  0
 24 22  1  0
 18 25  1  6
 26 25  1  0
 27 26  2  0
 28 26  1  0
  3 29  1  0
  3 30  1  0
  4 31  1  0
  4 32  1  0
  7 33  1  0
  9 34  1  0
 10 35  1  1
 11 36  1  6
 12 37  1  0
 12 38  1  0
 13 39  1  0
 13 40  1  0
 15 41  1  6
 16 42  1  0
 16 43  1  0
 17 44  1  0
 17 45  1  0
 19 46  1  0
 19 47  1  0
 19 48  1  0
 20 49  1  0
 20 50  1  0
 20 51  1  0
 21 52  1  0
 21 53  1  0
 21 54  1  0
 24 55  1  0
 24 56  1  0
 24 57  1  0
 28 58  1  0
 28 59  1  0
 28 60  1  0
M  END
>  <score>  (5) 
-7.879

$$$$
=
     RDKit          3D

 60 63  0  0  0  0  0  0  0  0999 V2000
   -5.0800   63.9420   77.2060 O   0  0  0  0  0  0  0  0  0  0  0  0
   -3.9580   63.5840   76.8500 C   0  0  0  0  0  0  0  0  0  0  0  0
   -2.7220   64.3480   77.2350 C   0  0  0  0  0  0  0  0  0  0  0  0
   -1.5910   64.0930   76.2490 C   0  0  0  0  0  0  0  0  0  0  0  0
   -1.3010   62.5850   76.0080 C   0  0  1  0  0  0  0  0  0  0  0  0
   -2.6200   61.8470   75.6810 C   0  0  0  0  0  0  0  0  0  0  0  0
   -3.8140   62.3370   76.0670 C   0  0  0  0  0  0  0  0  0  0  0  0
   -2.5210   60.5910   74.9140 C   0  0  0  0  0  0  0  0  0  0  0  0
   -1.3570   60.1880   74.3680 C   0  0  0  0  0  0  0  0  0  0  0  0
   -0.0630   60.9500   74.4470 C   0  0  2  0  0  0  0  0  0  0  0  0
   -0.3320   62.4440   74.7830 C   0  0  2  0  0  0  0  0  0  0  0  0
    0.9920   63.2390   74.8770 C   0  0  0  0  0  0  0  0  0  0  0  0
    1.8430   63.0950   73.6000 C   0  0  0  0  0  0  0  0  0  0  0  0
    2.1330   61.6220   73.2570 C   0  0  1  0  0  0  0  0  0  0  0  0
    0.7620   60.8910   73.1490 C   0  0  1  0  0  0  0  0  0  0  0  0
    1.1430   59.5250   72.5880 C   0  0  0  0  0  0  0  0  0  0  0  0
    2.3470   59.8030   71.6670 C   0  0  0  0  0  0  0  0  0  0  0  0
    2.7120   61.3160   71.8250 C   0  0  2  0  0  0  0  0  0  0  0  0
    3.0350   61.0210   74.3780 C   0  0  0  0  0  0  0  0  0  0  0  0
   -3.7410   59.7120   74.7680 C   0  0  0  0  0  0  0  0  0  0  0  0
   -0.6950   61.9790   77.2960 C   0  0  0  0  0  0  0  0  0  0  0  0
    4.2460   61.4690   71.6180 C   0  0  0  0  0  0  0  0  0  0  0  0
    4.8850   62.4550   71.9870 O   0  0  0  0  0  0  0  0  0  0  0  0
    4.9720   60.3050   70.9810 C   0  0  0  0  0  0  0  0  0  0  0  0
    1.9290   61.9720   70.7920 O   0  0  0  0  0  0  0  0  0  0  0  0
    2.5440   62.7450   69.8590 C   0  0  0  0  0  0  0  0  0  0  0  0
    3.0660   62.3420   68.8320 O   0  0  0  0  0  0  0  0  0  0  0  0
    2.4830   64.1840   70.2690 C   0  0  0  0  0  0  0  0  0  0  0  0
   -2.9532   65.4234   77.2462 H   0  0  0  0  0  0  0  0  0  0  0  0
   -2.3994   64.0116   78.2314 H   0  0  0  0  0  0  0  0  0  0  0  0
   -1.8588   64.5534   75.2865 H   0  0  0  0  0  0  0  0  0  0  0  0
   -0.6802   64.5302   76.6841 H   0  0  0  0  0  0  0  0  0  0  0  0
   -4.7233   61.7848   75.7873 H   0  0  0  0  0  0  0  0  0  0  0  0
   -1.3530   59.2316   73.8247 H   0  0  0  0  0  0  0  0  0  0  0  0
    0.5195   60.4631   75.2430 H   0  0  0  0  0  0  0  0  0  0  0  0
   -0.8769   62.9177   73.9531 H   0  0  0  0  0  0  0  0  0  0  0  0
    0.7575   64.3028   75.0296 H   0  0  0  0  0  0  0  0  0  0  0  0
    1.5722   62.8350   75.7197 H   0  0  0  0  0  0  0  0  0  0  0  0
    1.3016   63.5543   72.7599 H   0  0  0  0  0  0  0  0  0  0  0  0
    2.8059   63.5961   73.7777 H   0  0  0  0  0  0  0  0  0  0  0  0
    0.0315   61.3681   72.4791 H   0  0  0  0  0  0  0  0  0  0  0  0
    1.4254   58.8375   73.3989 H   0  0  0  0  0  0  0  0  0  0  0  0
    0.3096   59.0480   72.0514 H   0  0  0  0  0  0  0  0  0  0  0  0
    3.2010   59.1765   71.9639 H   0  0  0  0  0  0  0  0  0  0  0  0
    2.1003   59.5684   70.6210 H   0  0  0  0  0  0  0  0  0  0  0  0
    2.6266   61.2931   75.3625 H   0  0  0  0  0  0  0  0  0  0  0  0
    3.0593   59.9255   74.2812 H   0  0  0  0  0  0  0  0  0  0  0  0
    4.0553   61.4204   74.2812 H   0  0  0  0  0  0  0  0  0  0  0  0
   -4.1184   59.4401   75.7648 H   0  0  0  0  0  0  0  0  0  0  0  0
   -4.5215   60.2567   74.2164 H   0  0  0  0  0  0  0  0  0  0  0  0
   -3.4714   58.7992   74.2164 H   0  0  0  0  0  0  0  0  0  0  0  0
   -1.1619   62.4459   78.1758 H   0  0  0  0  0  0  0  0  0  0  0  0
   -0.8812   60.8950   77.3140 H   0  0  0  0  0  0  0  0  0  0  0  0
    0.3890   62.1652   77.3140 H   0  0  0  0  0  0  0  0  0  0  0  0
    5.3791   59.6522   71.7672 H   0  0  0  0  0  0  0  0  0  0  0  0
    4.2704   59.7328   70.3563 H   0  0  0  0  0  0  0  0  0  0  0  0
    5.7945   60.6834   70.3563 H   0  0  0  0  0  0  0  0  0  0  0  0
    2.4801   64.2526   71.3669 H   0  0  0  0  0  0  0  0  0  0  0  0
    3.3594   64.7162   69.8707 H   0  0  0  0  0  0  0  0  0  0  0  0
    1.5647   64.6401   69.8707 H   0  0  0  0  0  0  0  0  0  0  0  0
  2  1  2  0
  3  2  1  0
  4  3  1  0
  5  4  1  0
  6  5  1  0
  7  6  2  0
  7  2  1  0
  8  6  1  0
  9  8  2  0
 10  9  1  0
 11 10  1  0
 11  5  1  0
 12 11  1  0
 13 12  1  0
 14 13  1  0
 15 14  1  0
 15 10  1  0
 16 15  1  0
 17 16  1  0
 18 17  1  0
 18 14  1  0
 14 19  1  1
 20  8  1  0
  5 21  1  1
 22 18  1  0
 23 22  2  0
 24 22  1  0
 18 25  1  6
 26 25  1  0
 27 26  2  0
 28 26  1  0
  3 29  1  0
  3 30  1  0
  4 31  1  0
  4 32  1  0
  7 33  1  0
  9 34  1  0
 10 35  1  1
 11 36  1  6
 12 37  1  0
 12 38  1  0
 13 39  1  0
 13 40  1  0
 15 41  1  6
 16 42  1  0
 16 43  1  0
 17 44  1  0
 17 45  1  0
 19 46  1  0
 19 47  1  0
 19 48  1  0
 20 49  1  0
 20 50  1  0
 20 51  1  0
 21 52  1  0
 21 53  1  0
 21 54  1  0
 24 55  1  0
 24 56  1  0
 24 57  1  0
 28 58  1  0
 28 59  1  0
 28 60  1  0
M  END
>  <score>  (6) 
-7.378

$$$$
=
     RDKit          3D

 60 63  0  0  0  0  0  0  0  0999 V2000
    3.3460   61.7230   69.6940 O   0  0  0  0  0  0  0  0  0  0  0  0
    3.1220   61.0500   70.6980 C   0  0  0  0  0  0  0  0  0  0  0  0
    4.1770   60.1780   71.3210 C   0  0  0  0  0  0  0  0  0  0  0  0
    3.5510   59.0510   72.1280 C   0  0  0  0  0  0  0  0  0  0  0  0
    2.4990   59.5350   73.1660 C   0  0  1  0  0  0  0  0  0  0  0  0
    1.4840   60.4770   72.4770 C   0  0  0  0  0  0  0  0  0  0  0  0
    1.7950   61.1400   71.3460 C   0  0  0  0  0  0  0  0  0  0  0  0
    0.1520   60.6080   73.0980 C   0  0  0  0  0  0  0  0  0  0  0  0
   -0.2310   59.8150   74.1180 C   0  0  0  0  0  0  0  0  0  0  0  0
    0.6080   58.7200   74.7160 C   0  0  2  0  0  0  0  0  0  0  0  0
    1.7270   58.2910   73.7260 C   0  0  2  0  0  0  0  0  0  0  0  0
    2.6060   57.1710   74.3320 C   0  0  0  0  0  0  0  0  0  0  0  0
    1.7650   55.9620   74.7880 C   0  0  0  0  0  0  0  0  0  0  0  0
    0.6590   56.3640   75.7820 C   0  0  1  0  0  0  0  0  0  0  0  0
   -0.2000   57.4690   75.0990 C   0  0  1  0  0  0  0  0  0  0  0  0
   -1.3810   57.6250   76.0520 C   0  0  0  0  0  0  0  0  0  0  0  0
   -1.6090   56.2130   76.6260 C   0  0  0  0  0  0  0  0  0  0  0  0
   -0.4620   55.3000   76.0820 C   0  0  2  0  0  0  0  0  0  0  0  0
    1.3330   56.8690   77.0940 C   0  0  0  0  0  0  0  0  0  0  0  0
   -0.7930   61.6800   72.6100 C   0  0  0  0  0  0  0  0  0  0  0  0
    3.2240   60.3170   74.2880 C   0  0  0  0  0  0  0  0  0  0  0  0
   -0.1590   54.2120   77.1520 C   0  0  0  0  0  0  0  0  0  0  0  0
    0.8670   53.5310   77.1540 O   0  0  0  0  0  0  0  0  0  0  0  0
   -1.1650   54.0490   78.2690 C   0  0  0  0  0  0  0  0  0  0  0  0
   -1.0080   54.7520   74.8510 O   0  0  0  0  0  0  0  0  0  0  0  0
   -1.1810   53.4120   74.7210 C   0  0  0  0  0  0  0  0  0  0  0  0
   -2.1180   52.7680   75.1660 O   0  0  0  0  0  0  0  0  0  0  0  0
   -0.0500   52.8250   73.9350 C   0  0  0  0  0  0  0  0  0  0  0  0
    4.8015   59.7459   70.5253 H   0  0  0  0  0  0  0  0  0  0  0  0
    4.7852   60.7958   71.9980 H   0  0  0  0  0  0  0  0  0  0  0  0
    3.0577   58.3574   71.4312 H   0  0  0  0  0  0  0  0  0  0  0  0
    4.3633   58.5709   72.6934 H   0  0  0  0  0  0  0  0  0  0  0  0
    1.0271   61.7774   70.8833 H   0  0  0  0  0  0  0  0  0  0  0  0
   -1.2312   59.9811   74.5446 H   0  0  0  0  0  0  0  0  0  0  0  0
    1.0344   59.1436   75.6372 H   0  0  0  0  0  0  0  0  0  0  0  0
    1.2746   57.8319   72.8346 H   0  0  0  0  0  0  0  0  0  0  0  0
    3.3279   56.8357   73.5728 H   0  0  0  0  0  0  0  0  0  0  0  0
    3.1193   57.5809   75.2143 H   0  0  0  0  0  0  0  0  0  0  0  0
    1.2975   55.5024   73.9047 H   0  0  0  0  0  0  0  0  0  0  0  0
    2.4372   55.2563   75.2981 H   0  0  0  0  0  0  0  0  0  0  0  0
   -0.5732   57.2149   74.0959 H   0  0  0  0  0  0  0  0  0  0  0  0
   -1.1397   58.3362   76.8557 H   0  0  0  0  0  0  0  0  0  0  0  0
   -2.2751   58.0182   75.5461 H   0  0  0  0  0  0  0  0  0  0  0  0
   -1.5767   56.2436   77.7251 H   0  0  0  0  0  0  0  0  0  0  0  0
   -2.5928   55.8240   76.3248 H   0  0  0  0  0  0  0  0  0  0  0  0
    0.7931   56.4644   77.9628 H   0  0  0  0  0  0  0  0  0  0  0  0
    2.3793   56.5307   77.1224 H   0  0  0  0  0  0  0  0  0  0  0  0
    1.3022   57.9682   77.1224 H   0  0  0  0  0  0  0  0  0  0  0  0
   -1.2441   62.1917   73.4730 H   0  0  0  0  0  0  0  0  0  0  0  0
   -0.2379   62.4085   72.0008 H   0  0  0  0  0  0  0  0  0  0  0  0
   -1.5854   61.2207   72.0008 H   0  0  0  0  0  0  0  0  0  0  0  0
    2.8847   59.9510   75.2682 H   0  0  0  0  0  0  0  0  0  0  0  0
    4.3099   60.1672   74.1965 H   0  0  0  0  0  0  0  0  0  0  0  0
    2.9926   61.3885   74.1965 H   0  0  0  0  0  0  0  0  0  0  0  0
   -0.6527   54.1320   79.2389 H   0  0  0  0  0  0  0  0  0  0  0  0
   -1.9307   54.8348   78.1904 H   0  0  0  0  0  0  0  0  0  0  0  0
   -1.6434   53.0616   78.1904 H   0  0  0  0  0  0  0  0  0  0  0  0
    0.7102   52.4304   74.6252 H   0  0  0  0  0  0  0  0  0  0  0  0
   -0.4284   52.0095   73.3012 H   0  0  0  0  0  0  0  0  0  0  0  0
    0.3991   53.6038   73.3012 H   0  0  0  0  0  0  0  0  0  0  0  0
  2  1  2  0
  3  2  1  0
  4  3  1  0
  5  4  1  0
  6  5  1  0
  7  6  2  0
  7  2  1  0
  8  6  1  0
  9  8  2  0
 10  9  1  0
 11 10  1  0
 11  5  1  0
 12 11  1  0
 13 12  1  0
 14 13  1  0
 15 14  1  0
 15 10  1  0
 16 15  1  0
 17 16  1  0
 18 17  1  0
 18 14  1  0
 14 19  1  1
 20  8  1  0
  5 21  1  1
 22 18  1  0
 23 22  2  0
 24 22  1  0
 18 25  1  6
 26 25  1  0
 27 26  2  0
 28 26  1  0
  3 29  1  0
  3 30  1  0
  4 31  1  0
  4 32  1  0
  7 33  1  0
  9 34  1  0
 10 35  1  1
 11 36  1  6
 12 37  1  0
 12 38  1  0
 13 39  1  0
 13 40  1  0
 15 41  1  6
 16 42  1  0
 16 43  1  0
 17 44  1  0
 17 45  1  0
 19 46  1  0
 19 47  1  0
 19 48  1  0
 20 49  1  0
 20 50  1  0
 20 51  1  0
 21 52  1  0
 21 53  1  0
 21 54  1  0
 24 55  1  0
 24 56  1  0
 24 57  1  0
 28 58  1  0
 28 59  1  0
 28 60  1  0
M  END
>  <score>  (7) 
-7.094

$$$$
=
     RDKit          3D

 60 63  0  0  0  0  0  0  0  0999 V2000
    3.2910   63.1360   69.5380 O   0  0  0  0  0  0  0  0  0  0  0  0
    2.8480   62.5680   70.5340 C   0  0  0  0  0  0  0  0  0  0  0  0
    2.0390   63.2970   71.5710 C   0  0  0  0  0  0  0  0  0  0  0  0
    2.1110   62.5930   72.9180 C   0  0  0  0  0  0  0  0  0  0  0  0
    1.7560   61.0810   72.8510 C   0  0  1  0  0  0  0  0  0  0  0  0
    2.5720   60.4040   71.7250 C   0  0  0  0  0  0  0  0  0  0  0  0
    3.0670   61.1120   70.6920 C   0  0  0  0  0  0  0  0  0  0  0  0
    2.8020   58.9510   71.8350 C   0  0  0  0  0  0  0  0  0  0  0  0
    2.4710   58.2670   72.9480 C   0  0  0  0  0  0  0  0  0  0  0  0
    1.8710   58.8780   74.1840 C   0  0  2  0  0  0  0  0  0  0  0  0
    2.1350   60.4090   74.2160 C   0  0  2  0  0  0  0  0  0  0  0  0
    1.5140   61.0540   75.4790 C   0  0  0  0  0  0  0  0  0  0  0  0
    2.0000   60.3720   76.7720 C   0  0  0  0  0  0  0  0  0  0  0  0
    1.7350   58.8550   76.7670 C   0  0  1  0  0  0  0  0  0  0  0  0
    2.4100   58.2700   75.4900 C   0  0  1  0  0  0  0  0  0  0  0  0
    2.2910   56.7630   75.6980 C   0  0  0  0  0  0  0  0  0  0  0  0
    2.4040   56.5690   77.2230 C   0  0  0  0  0  0  0  0  0  0  0  0
    2.4550   57.9920   77.8690 C   0  0  2  0  0  0  0  0  0  0  0  0
    0.1930   58.6220   76.7780 C   0  0  0  0  0  0  0  0  0  0  0  0
    3.3840   58.2000   70.6610 C   0  0  0  0  0  0  0  0  0  0  0  0
    0.2480   60.9330   72.5340 C   0  0  0  0  0  0  0  0  0  0  0  0
    1.7910   57.9120   79.2730 C   0  0  0  0  0  0  0  0  0  0  0  0
    1.5540   58.9000   79.9690 O   0  0  0  0  0  0  0  0  0  0  0  0
    1.3690   56.5420   79.7550 C   0  0  0  0  0  0  0  0  0  0  0  0
    3.8760   58.2970   77.9280 O   0  0  0  0  0  0  0  0  0  0  0  0
    4.6460   57.7640   78.9120 C   0  0  0  0  0  0  0  0  0  0  0  0
    5.0010   56.6000   78.9860 O   0  0  0  0  0  0  0  0  0  0  0  0
    5.0120   58.8260   79.9030 C   0  0  0  0  0  0  0  0  0  0  0  0
    2.4308   64.3192   71.6787 H   0  0  0  0  0  0  0  0  0  0  0  0
    0.9891   63.3173   71.2436 H   0  0  0  0  0  0  0  0  0  0  0  0
    3.1347   62.6927   73.3080 H   0  0  0  0  0  0  0  0  0  0  0  0
    1.3656   63.0702   73.5711 H   0  0  0  0  0  0  0  0  0  0  0  0
    3.6610   60.5848   69.9309 H   0  0  0  0  0  0  0  0  0  0  0  0
    2.6531   57.1822   72.9526 H   0  0  0  0  0  0  0  0  0  0  0  0
    0.7937   58.6628   74.1281 H   0  0  0  0  0  0  0  0  0  0  0  0
    3.2145   60.5950   74.3161 H   0  0  0  0  0  0  0  0  0  0  0  0
    1.7957   62.1169   75.5103 H   0  0  0  0  0  0  0  0  0  0  0  0
    0.4221   60.9340   75.4206 H   0  0  0  0  0  0  0  0  0  0  0  0
    3.0818   60.5419   76.8766 H   0  0  0  0  0  0  0  0  0  0  0  0
    1.4419   60.8086   77.6133 H   0  0  0  0  0  0  0  0  0  0  0  0
    3.4691   58.5367   75.3589 H   0  0  0  0  0  0  0  0  0  0  0  0
    1.3211   56.3960   75.3310 H   0  0  0  0  0  0  0  0  0  0  0  0
    3.0633   56.2045   75.1488 H   0  0  0  0  0  0  0  0  0  0  0  0
    1.5301   56.0162   77.5981 H   0  0  0  0  0  0  0  0  0  0  0  0
    3.3060   55.9929   77.4770 H   0  0  0  0  0  0  0  0  0  0  0  0
   -0.1623   58.5683   77.8177 H   0  0  0  0  0  0  0  0  0  0  0  0
   -0.3073   59.4547   76.2621 H   0  0  0  0  0  0  0  0  0  0  0  0
   -0.0390   57.6786   76.2621 H   0  0  0  0  0  0  0  0  0  0  0  0
    4.0191   57.3805   71.0284 H   0  0  0  0  0  0  0  0  0  0  0  0
    2.5685   57.7861   70.0498 H   0  0  0  0  0  0  0  0  0  0  0  0
    3.9883   58.8864   70.0498 H   0  0  0  0  0  0  0  0  0  0  0  0
   -0.3205   60.8772   73.4740 H   0  0  0  0  0  0  0  0  0  0  0  0
   -0.0912   61.8022   71.9514 H   0  0  0  0  0  0  0  0  0  0  0  0
    0.0842   60.0145   71.9514 H   0  0  0  0  0  0  0  0  0  0  0  0
    1.3640   56.5257   80.8549 H   0  0  0  0  0  0  0  0  0  0  0  0
    0.3597   56.3163   79.3804 H   0  0  0  0  0  0  0  0  0  0  0  0
    2.0764   55.7875   79.3804 H   0  0  0  0  0  0  0  0  0  0  0  0
    4.8780   58.4373   80.9233 H   0  0  0  0  0  0  0  0  0  0  0  0
    6.0625   59.1176   79.7567 H   0  0  0  0  0  0  0  0  0  0  0  0
    4.3642   59.7029   79.7567 H   0  0  0  0  0  0  0  0  0  0  0  0
  2  1  2  0
  3  2  1  0
  4  3  1  0
  5  4  1  0
  6  5  1  0
  7  6  2  0
  7  2  1  0
  8  6  1  0
  9  8  2  0
 10  9  1  0
 11 10  1  0
 11  5  1  0
 12 11  1  0
 13 12  1  0
 14 13  1  0
 15 14  1  0
 15 10  1  0
 16 15  1  0
 17 16  1  0
 18 17  1  0
 18 14  1  0
 14 19  1  6
 20  8  1  0
  5 21  1  6
 22 18  1  0
 23 22  2  0
 24 22  1  0
 18 25  1  1
 26 25  1  0
 27 26  2  0
 28 26  1  0
  3 29  1  0
  3 30  1  0
  4 31  1  0
  4 32  1  0
  7 33  1  0
  9 34  1  0
 10 35  1  6
 11 36  1  1
 12 37  1  0
 12 38  1  0
 13 39  1  0
 13 40  1  0
 15 41  1  1
 16 42  1  0
 16 43  1  0
 17 44  1  0
 17 45  1  0
 19 46  1  0
 19 47  1  0
 19 48  1  0
 20 49  1  0
 20 50  1  0
 20 51  1  0
 21 52  1  0
 21 53  1  0
 21 54  1  0
 24 55  1  0
 24 56  1  0
 24 57  1  0
 28 58  1  0
 28 59  1  0
 28 60  1  0
M  END
>  <score>  (8) 
-6.905

$$$$
=
     RDKit          3D

 60 63  0  0  0  0  0  0  0  0999 V2000
    3.6670   62.5790   68.7630 O   0  0  0  0  0  0  0  0  0  0  0  0
    2.9980   62.6090   69.7940 C   0  0  0  0  0  0  0  0  0  0  0  0
    2.2480   63.8410   70.2190 C   0  0  0  0  0  0  0  0  0  0  0  0
    2.0080   63.8460   71.7210 C   0  0  0  0  0  0  0  0  0  0  0  0
    1.3480   62.5420   72.2530 C   0  0  1  0  0  0  0  0  0  0  0  0
    2.1270   61.3140   71.7280 C   0  0  0  0  0  0  0  0  0  0  0  0
    2.8800   61.3820   70.6130 C   0  0  0  0  0  0  0  0  0  0  0  0
    2.0250   60.0650   72.5070 C   0  0  0  0  0  0  0  0  0  0  0  0
    1.4280   60.0330   73.7140 C   0  0  0  0  0  0  0  0  0  0  0  0
    0.8310   61.2270   74.4080 C   0  0  2  0  0  0  0  0  0  0  0  0
    1.4110   62.5430   73.8190 C   0  0  2  0  0  0  0  0  0  0  0  0
    0.7980   63.7810   74.5170 C   0  0  0  0  0  0  0  0  0  0  0  0
    0.9720   63.7240   76.0470 C   0  0  0  0  0  0  0  0  0  0  0  0
    0.3900   62.4330   76.6520 C   0  0  1  0  0  0  0  0  0  0  0  0
    1.0690   61.2340   75.9270 C   0  0  1  0  0  0  0  0  0  0  0  0
    0.6070   60.0310   76.7450 C   0  0  0  0  0  0  0  0  0  0  0  0
    0.4960   60.5590   78.1880 C   0  0  0  0  0  0  0  0  0  0  0  0
    0.7740   62.0980   78.1420 C   0  0  2  0  0  0  0  0  0  0  0  0
   -1.1560   62.4460   76.4510 C   0  0  0  0  0  0  0  0  0  0  0  0
    2.5670   58.7810   71.9250 C   0  0  0  0  0  0  0  0  0  0  0  0
   -0.1080   62.4700   71.7340 C   0  0  0  0  0  0  0  0  0  0  0  0
   -0.0530   62.7750   79.2720 C   0  0  0  0  0  0  0  0  0  0  0  0
   -0.0370   63.9870   79.4910 O   0  0  0  0  0  0  0  0  0  0  0  0
   -0.9590   61.8810   80.0890 C   0  0  0  0  0  0  0  0  0  0  0  0
    2.2100   62.1980   78.3480 O   0  0  0  0  0  0  0  0  0  0  0  0
    2.7970   61.5360   79.3780 C   0  0  0  0  0  0  0  0  0  0  0  0
    2.5830   61.7290   80.5630 O   0  0  0  0  0  0  0  0  0  0  0  0
    3.7520   60.5110   78.8460 C   0  0  0  0  0  0  0  0  0  0  0  0
    2.8347   64.7306   69.9461 H   0  0  0  0  0  0  0  0  0  0  0  0
    1.2730   63.8492   69.7097 H   0  0  0  0  0  0  0  0  0  0  0  0
    2.9760   63.9767   72.2269 H   0  0  0  0  0  0  0  0  0  0  0  0
    1.3095   64.6691   71.9322 H   0  0  0  0  0  0  0  0  0  0  0  0
    3.4323   60.4847   70.2969 H   0  0  0  0  0  0  0  0  0  0  0  0
    1.3729   59.0631   74.2300 H   0  0  0  0  0  0  0  0  0  0  0  0
   -0.2532   61.1593   74.2349 H   0  0  0  0  0  0  0  0  0  0  0  0
    2.4859   62.6062   74.0437 H   0  0  0  0  0  0  0  0  0  0  0  0
    1.2943   64.6858   74.1363 H   0  0  0  0  0  0  0  0  0  0  0  0
   -0.2797   63.7970   74.2972 H   0  0  0  0  0  0  0  0  0  0  0  0
    2.0452   63.7733   76.2834 H   0  0  0  0  0  0  0  0  0  0  0  0
    0.4265   64.5753   76.4804 H   0  0  0  0  0  0  0  0  0  0  0  0
    2.1685   61.2619   75.9102 H   0  0  0  0  0  0  0  0  0  0  0  0
   -0.3689   59.6705   76.3876 H   0  0  0  0  0  0  0  0  0  0  0  0
    1.3013   59.1816   76.6648 H   0  0  0  0  0  0  0  0  0  0  0  0
   -0.5138   60.3703   78.5814 H   0  0  0  0  0  0  0  0  0  0  0  0
    1.2178   60.0520   78.8452 H   0  0  0  0  0  0  0  0  0  0  0  0
   -1.6533   62.4502   77.4322 H   0  0  0  0  0  0  0  0  0  0  0  0
   -1.4452   63.3466   75.8895 H   0  0  0  0  0  0  0  0  0  0  0  0
   -1.4603   61.5504   75.8895 H   0  0  0  0  0  0  0  0  0  0  0  0
    2.8540   58.1011   72.7407 H   0  0  0  0  0  0  0  0  0  0  0  0
    1.7934   58.3041   71.3052 H   0  0  0  0  0  0  0  0  0  0  0  0
    3.4483   59.0027   71.3052 H   0  0  0  0  0  0  0  0  0  0  0  0
   -0.8004   62.4358   72.5880 H   0  0  0  0  0  0  0  0  0  0  0  0
   -0.3237   63.3586   71.1225 H   0  0  0  0  0  0  0  0  0  0  0  0
   -0.2349   61.5645   71.1225 H   0  0  0  0  0  0  0  0  0  0  0  0
   -0.7799   62.0578   81.1598 H   0  0  0  0  0  0  0  0  0  0  0  0
   -2.0089   62.1068   79.8507 H   0  0  0  0  0  0  0  0  0  0  0  0
   -0.7472   60.8282   79.8507 H   0  0  0  0  0  0  0  0  0  0  0  0
    4.2366   59.9908   79.6854 H   0  0  0  0  0  0  0  0  0  0  0  0
    3.2031   59.7826   78.2311 H   0  0  0  0  0  0  0  0  0  0  0  0
    4.5173   61.0071   78.2311 H   0  0  0  0  0  0  0  0  0  0  0  0
  2  1  2  0
  3  2  1  0
  4  3  1  0
  5  4  1  0
  6  5  1  0
  7  6  2  0
  7  2  1  0
  8  6  1  0
  9  8  2  0
 10  9  1  0
 11 10  1  0
 11  5  1  0
 12 11  1  0
 13 12  1  0
 14 13  1  0
 15 14  1  0
 15 10  1  0
 16 15  1  0
 17 16  1  0
 18 17  1  0
 18 14  1  0
 14 19  1  1
 20  8  1  0
  5 21  1  1
 22 18  1  0
 23 22  2  0
 24 22  1  0
 18 25  1  1
 26 25  1  0
 27 26  2  0
 28 26  1  0
  3 29  1  0
  3 30  1  0
  4 31  1  0
  4 32  1  0
  7 33  1  0
  9 34  1  0
 10 35  1  1
 11 36  1  6
 12 37  1  0
 12 38  1  0
 13 39  1  0
 13 40  1  0
 15 41  1  6
 16 42  1  0
 16 43  1  0
 17 44  1  0
 17 45  1  0
 19 46  1  0
 19 47  1  0
 19 48  1  0
 20 49  1  0
 20 50  1  0
 20 51  1  0
 21 52  1  0
 21 53  1  0
 21 54  1  0
 24 55  1  0
 24 56  1  0
 24 57  1  0
 28 58  1  0
 28 59  1  0
 28 60  1  0
M  END
>  <score>  (9) 
-6.896

$$$$
