=
     RDKit          3D

 31 33  0  0  0  0  0  0  0  0999 V2000
    3.4910   69.0240   65.2690 C   0  0  0  0  0  0  0  0  0  0  0  0
    2.7580   69.1460   66.5980 C   0  0  0  0  0  0  0  0  0  0  0  0
    1.6260   68.7840   66.8680 O   0  0  0  0  0  0  0  0  0  0  0  0
    3.6380   69.8010   67.5650 C   0  0  0  0  0  0  0  0  0  0  0  0
    4.8500   70.1060   66.9670 C   0  0  0  0  0  0  0  0  0  0  0  0
    4.8370   69.6770   65.5700 C   0  0  0  0  0  0  0  0  0  0  0  0
    5.7690   69.8600   64.8070 O   0  0  0  0  0  0  0  0  0  0  0  0
    5.8670   70.7330   67.6630 C   0  0  0  0  0  0  0  0  0  0  0  0
    5.6320   71.0490   69.0050 C   0  0  0  0  0  0  0  0  0  0  0  0
    4.4000   70.7380   69.6130 C   0  0  0  0  0  0  0  0  0  0  0  0
    3.3840   70.1050   68.8900 C   0  0  0  0  0  0  0  0  0  0  0  0
    3.9840   65.0390   63.6060 C   0  0  0  0  0  0  0  0  0  0  0  0
    4.7490   66.1150   63.1560 C   0  0  0  0  0  0  0  0  0  0  0  0
    4.5760   67.3910   63.6980 C   0  0  0  0  0  0  0  0  0  0  0  0
    3.6320   67.6220   64.7090 C   0  0  0  0  0  0  0  0  0  0  0  0
    2.8700   66.5340   65.1590 C   0  0  0  0  0  0  0  0  0  0  0  0
    3.0440   65.2550   64.6110 C   0  0  0  0  0  0  0  0  0  0  0  0
    5.3200   63.0760   63.5230 C   0  0  0  0  0  0  0  0  0  0  0  0
    4.2510   63.8480   62.9910 O   0  0  0  0  0  0  0  0  0  0  0  0
    2.9213   69.5048   64.4602 H   0  0  0  0  0  0  0  0  0  0  0  0
    6.8250   70.9742   67.1793 H   0  0  0  0  0  0  0  0  0  0  0  0
    6.4181   71.5460   69.5923 H   0  0  0  0  0  0  0  0  0  0  0  0
    4.2351   70.9962   70.6695 H   0  0  0  0  0  0  0  0  0  0  0  0
    2.4193   69.8582   69.3575 H   0  0  0  0  0  0  0  0  0  0  0  0
    5.4972   65.9571   62.3652 H   0  0  0  0  0  0  0  0  0  0  0  0
    5.1886   68.2258   63.3267 H   0  0  0  0  0  0  0  0  0  0  0  0
    2.1248   66.6862   65.9536 H   0  0  0  0  0  0  0  0  0  0  0  0
    2.4338   64.4163   64.9774 H   0  0  0  0  0  0  0  0  0  0  0  0
    5.2811   63.1041   64.6220 H   0  0  0  0  0  0  0  0  0  0  0  0
    5.2271   62.0352   63.1793 H   0  0  0  0  0  0  0  0  0  0  0  0
    6.2788   63.4915   63.1793 H   0  0  0  0  0  0  0  0  0  0  0  0
  2  1  1  0
  3  2  2  0
  4  2  1  0
  5  4  2  0
  6  1  1  0
  6  5  1  0
  7  6  2  0
  8  5  1  0
  9  8  2  0
 10  9  1  0
 11 10  2  0
 11  4  1  0
 13 12  2  0
 14 13  1  0
 15 14  2  0
 15  1  1  0
 16 15  1  0
 17 12  1  0
 17 16  2  0
 19 18  1  0
 19 12  1  0
  1 20  1  0
  8 21  1  0
  9 22  1  0
 10 23  1  0
 11 24  1  0
 13 25  1  0
 14 26  1  0
 16 27  1  0
 17 28  1  0
 18 29  1  0
 18 30  1  0
 18 31  1  0
M  END
>  <score>  (1) 
-10.159

$$$$
=
     RDKit          3D

 31 33  0  0  0  0  0  0  0  0999 V2000
    3.2660   68.3060   65.4210 C   0  0  0  0  0  0  0  0  0  0  0  0
    1.7560   68.4890   65.5010 C   0  0  0  0  0  0  0  0  0  0  0  0
    1.0380   68.4010   66.4810 O   0  0  0  0  0  0  0  0  0  0  0  0
    1.2470   68.7940   64.1640 C   0  0  0  0  0  0  0  0  0  0  0  0
    2.2920   68.8140   63.2550 C   0  0  0  0  0  0  0  0  0  0  0  0
    3.5500   68.5160   63.9380 C   0  0  0  0  0  0  0  0  0  0  0  0
    4.6190   68.4360   63.3590 O   0  0  0  0  0  0  0  0  0  0  0  0
    2.0840   69.0790   61.9140 C   0  0  0  0  0  0  0  0  0  0  0  0
    0.7720   69.3320   61.5010 C   0  0  0  0  0  0  0  0  0  0  0  0
   -0.2900   69.3120   62.4260 C   0  0  0  0  0  0  0  0  0  0  0  0
   -0.0580   69.0400   63.7780 C   0  0  0  0  0  0  0  0  0  0  0  0
    5.7230   70.9060   67.8900 C   0  0  0  0  0  0  0  0  0  0  0  0
    6.1920   70.3960   66.6800 C   0  0  0  0  0  0  0  0  0  0  0  0
    5.3910   69.5580   65.8990 C   0  0  0  0  0  0  0  0  0  0  0  0
    4.0960   69.2110   66.3110 C   0  0  0  0  0  0  0  0  0  0  0  0
    3.6310   69.7330   67.5270 C   0  0  0  0  0  0  0  0  0  0  0  0
    4.4380   70.5710   68.3090 C   0  0  0  0  0  0  0  0  0  0  0  0
    7.5500   71.0630   69.4010 C   0  0  0  0  0  0  0  0  0  0  0  0
    6.6060   71.7090   68.5550 O   0  0  0  0  0  0  0  0  0  0  0  0
    3.5636   67.3194   65.8059 H   0  0  0  0  0  0  0  0  0  0  0  0
    2.9195   69.0904   61.1985 H   0  0  0  0  0  0  0  0  0  0  0  0
    0.5672   69.5490   60.4422 H   0  0  0  0  0  0  0  0  0  0  0  0
   -1.3149   69.5129   62.0806 H   0  0  0  0  0  0  0  0  0  0  0  0
   -0.8820   69.0224   64.5065 H   0  0  0  0  0  0  0  0  0  0  0  0
    7.2040   70.6561   66.3361 H   0  0  0  0  0  0  0  0  0  0  0  0
    5.7815   69.1654   64.9485 H   0  0  0  0  0  0  0  0  0  0  0  0
    2.6175   69.4809   67.8723 H   0  0  0  0  0  0  0  0  0  0  0  0
    4.0534   70.9668   69.2605 H   0  0  0  0  0  0  0  0  0  0  0  0
    7.2844   71.2448   70.4528 H   0  0  0  0  0  0  0  0  0  0  0  0
    7.5405   69.9812   69.2021 H   0  0  0  0  0  0  0  0  0  0  0  0
    8.5550   71.4636   69.2021 H   0  0  0  0  0  0  0  0  0  0  0  0
  2  1  1  0
  3  2  2  0
  4  2  1  0
  5  4  2  0
  6  1  1  0
  6  5  1  0
  7  6  2  0
  8  5  1  0
  9  8  2  0
 10  9  1  0
 11 10  2  0
 11  4  1  0
 13 12  2  0
 14 13  1  0
 15 14  2  0
 15  1  1  0
 16 15  1  0
 17 12  1  0
 17 16  2  0
 19 18  1  0
 19 12  1  0
  1 20  1  0
  8 21  1  0
  9 22  1  0
 10 23  1  0
 11 24  1  0
 13 25  1  0
 14 26  1  0
 16 27  1  0
 17 28  1  0
 18 29  1  0
 18 30  1  0
 18 31  1  0
M  END
>  <score>  (2) 
-10.061

$$$$
=
     RDKit          3D

 31 33  0  0  0  0  0  0  0  0999 V2000
    1.9900   67.8870   66.1380 C   0  0  0  0  0  0  0  0  0  0  0  0
    1.1460   67.2640   67.2410 C   0  0  0  0  0  0  0  0  0  0  0  0
    1.5200   66.5910   68.1850 O   0  0  0  0  0  0  0  0  0  0  0  0
   -0.2590   67.5900   67.0010 C   0  0  0  0  0  0  0  0  0  0  0  0
   -0.3760   68.3520   65.8500 C   0  0  0  0  0  0  0  0  0  0  0  0
    0.9440   68.5670   65.2610 C   0  0  0  0  0  0  0  0  0  0  0  0
    1.1180   69.1770   64.2200 O   0  0  0  0  0  0  0  0  0  0  0  0
   -1.6030   68.7960   65.3930 C   0  0  0  0  0  0  0  0  0  0  0  0
   -2.7340   68.4510   66.1400 C   0  0  0  0  0  0  0  0  0  0  0  0
   -2.6150   67.6760   67.3100 C   0  0  0  0  0  0  0  0  0  0  0  0
   -1.3640   67.2360   67.7540 C   0  0  0  0  0  0  0  0  0  0  0  0
    5.0720   70.6170   67.5290 C   0  0  0  0  0  0  0  0  0  0  0  0
    3.9190   70.3810   68.2770 C   0  0  0  0  0  0  0  0  0  0  0  0
    2.9360   69.5030   67.8140 C   0  0  0  0  0  0  0  0  0  0  0  0
    3.0830   68.8360   66.5880 C   0  0  0  0  0  0  0  0  0  0  0  0
    4.2480   69.0770   65.8450 C   0  0  0  0  0  0  0  0  0  0  0  0
    5.2320   69.9600   66.3110 C   0  0  0  0  0  0  0  0  0  0  0  0
    6.9910   70.9460   68.8910 C   0  0  0  0  0  0  0  0  0  0  0  0
    5.9510   71.4980   68.0940 O   0  0  0  0  0  0  0  0  0  0  0  0
    2.5894   67.1221   65.6227 H   0  0  0  0  0  0  0  0  0  0  0  0
   -1.6866   69.3981   64.4762 H   0  0  0  0  0  0  0  0  0  0  0  0
   -3.7275   68.7887   65.8100 H   0  0  0  0  0  0  0  0  0  0  0  0
   -3.5174   67.4135   67.8817 H   0  0  0  0  0  0  0  0  0  0  0  0
   -1.2626   66.6314   68.6673 H   0  0  0  0  0  0  0  0  0  0  0  0
    3.7821   70.8915   69.2417 H   0  0  0  0  0  0  0  0  0  0  0  0
    2.0335   69.3319   68.4192 H   0  0  0  0  0  0  0  0  0  0  0  0
    4.3917   68.5653   64.8819 H   0  0  0  0  0  0  0  0  0  0  0  0
    6.1369   70.1354   65.7107 H   0  0  0  0  0  0  0  0  0  0  0  0
    6.7457   71.0762   69.9554 H   0  0  0  0  0  0  0  0  0  0  0  0
    7.0949   69.8740   68.6671 H   0  0  0  0  0  0  0  0  0  0  0  0
    7.9370   71.4607   68.6671 H   0  0  0  0  0  0  0  0  0  0  0  0
  2  1  1  0
  3  2  2  0
  4  2  1  0
  5  4  2  0
  6  1  1  0
  6  5  1  0
  7  6  2  0
  8  5  1  0
  9  8  2  0
 10  9  1  0
 11 10  2  0
 11  4  1  0
 13 12  2  0
 14 13  1  0
 15 14  2  0
 15  1  1  0
 16 15  1  0
 17 12  1  0
 17 16  2  0
 19 18  1  0
 19 12  1  0
  1 20  1  0
  8 21  1  0
  9 22  1  0
 10 23  1  0
 11 24  1  0
 13 25  1  0
 14 26  1  0
 16 27  1  0
 17 28  1  0
 18 29  1  0
 18 30  1  0
 18 31  1  0
M  END
>  <score>  (3) 
-9.893

$$$$
=
     RDKit          3D

 31 33  0  0  0  0  0  0  0  0999 V2000
    3.4640   68.2930   65.3130 C   0  0  0  0  0  0  0  0  0  0  0  0
    4.8020   68.9910   65.5170 C   0  0  0  0  0  0  0  0  0  0  0  0
    5.7850   68.9570   64.7980 O   0  0  0  0  0  0  0  0  0  0  0  0
    4.7530   69.7480   66.7670 C   0  0  0  0  0  0  0  0  0  0  0  0
    3.5160   69.5840   67.3690 C   0  0  0  0  0  0  0  0  0  0  0  0
    2.6790   68.7060   66.5540 C   0  0  0  0  0  0  0  0  0  0  0  0
    1.5530   68.3700   66.8760 O   0  0  0  0  0  0  0  0  0  0  0  0
    3.2040   70.1960   68.5690 C   0  0  0  0  0  0  0  0  0  0  0  0
    4.1880   70.9940   69.1620 C   0  0  0  0  0  0  0  0  0  0  0  0
    5.4450   71.1610   68.5500 C   0  0  0  0  0  0  0  0  0  0  0  0
    5.7400   70.5320   67.3360 C   0  0  0  0  0  0  0  0  0  0  0  0
    1.2800   69.2430   61.6770 C   0  0  0  0  0  0  0  0  0  0  0  0
    0.6680   69.2990   62.9290 C   0  0  0  0  0  0  0  0  0  0  0  0
    1.3830   68.9870   64.0880 C   0  0  0  0  0  0  0  0  0  0  0  0
    2.7330   68.6120   64.0240 C   0  0  0  0  0  0  0  0  0  0  0  0
    3.3420   68.5620   62.7610 C   0  0  0  0  0  0  0  0  0  0  0  0
    2.6210   68.8730   61.6000 C   0  0  0  0  0  0  0  0  0  0  0  0
   -0.6740   70.3610   60.9200 C   0  0  0  0  0  0  0  0  0  0  0  0
    0.4700   69.5690   60.6270 O   0  0  0  0  0  0  0  0  0  0  0  0
    3.6006   67.2073   65.2008 H   0  0  0  0  0  0  0  0  0  0  0  0
    2.2190   70.0604   69.0396 H   0  0  0  0  0  0  0  0  0  0  0  0
    3.9773   71.4968   70.1174 H   0  0  0  0  0  0  0  0  0  0  0  0
    6.2044   71.7939   69.0325 H   0  0  0  0  0  0  0  0  0  0  0  0
    6.7200   70.6562   66.8521 H   0  0  0  0  0  0  0  0  0  0  0  0
   -0.3895   69.5921   63.0048 H   0  0  0  0  0  0  0  0  0  0  0  0
    0.8799   69.0362   65.0650 H   0  0  0  0  0  0  0  0  0  0  0  0
    4.4007   68.2745   62.6808 H   0  0  0  0  0  0  0  0  0  0  0  0
    3.1180   68.8246   60.6199 H   0  0  0  0  0  0  0  0  0  0  0  0
   -0.7933   70.4436   62.0104 H   0  0  0  0  0  0  0  0  0  0  0  0
   -0.5456   71.3645   60.4881 H   0  0  0  0  0  0  0  0  0  0  0  0
   -1.5681   69.8876   60.4881 H   0  0  0  0  0  0  0  0  0  0  0  0
  2  1  1  0
  3  2  2  0
  4  2  1  0
  5  4  2  0
  6  1  1  0
  6  5  1  0
  7  6  2  0
  8  5  1  0
  9  8  2  0
 10  9  1  0
 11 10  2  0
 11  4  1  0
 13 12  2  0
 14 13  1  0
 15 14  2  0
 15  1  1  0
 16 15  1  0
 17 12  1  0
 17 16  2  0
 19 18  1  0
 19 12  1  0
  1 20  1  0
  8 21  1  0
  9 22  1  0
 10 23  1  0
 11 24  1  0
 13 25  1  0
 14 26  1  0
 16 27  1  0
 17 28  1  0
 18 29  1  0
 18 30  1  0
 18 31  1  0
M  END
>  <score>  (4) 
-9.593

$$$$
=
     RDKit          3D

 31 33  0  0  0  0  0  0  0  0999 V2000
    1.4090   69.0470   67.2410 C   0  0  0  0  0  0  0  0  0  0  0  0
    2.7460   69.6700   67.6200 C   0  0  0  0  0  0  0  0  0  0  0  0
    3.0550   70.2070   68.6690 O   0  0  0  0  0  0  0  0  0  0  0  0
    3.6640   69.5410   66.4900 C   0  0  0  0  0  0  0  0  0  0  0  0
    3.0290   68.9020   65.4370 C   0  0  0  0  0  0  0  0  0  0  0  0
    1.6530   68.5790   65.8100 C   0  0  0  0  0  0  0  0  0  0  0  0
    0.8640   68.0450   65.0510 O   0  0  0  0  0  0  0  0  0  0  0  0
    3.6750   68.6520   64.2410 C   0  0  0  0  0  0  0  0  0  0  0  0
    5.0060   69.0670   64.1270 C   0  0  0  0  0  0  0  0  0  0  0  0
    5.6520   69.7160   65.1970 C   0  0  0  0  0  0  0  0  0  0  0  0
    4.9790   69.9600   66.3980 C   0  0  0  0  0  0  0  0  0  0  0  0
    0.0690   65.8770   69.8960 C   0  0  0  0  0  0  0  0  0  0  0  0
    1.3260   66.4630   70.0400 C   0  0  0  0  0  0  0  0  0  0  0  0
    1.7430   67.4790   69.1770 C   0  0  0  0  0  0  0  0  0  0  0  0
    0.9100   67.9360   68.1440 C   0  0  0  0  0  0  0  0  0  0  0  0
   -0.3540   67.3430   68.0090 C   0  0  0  0  0  0  0  0  0  0  0  0
   -0.7690   66.3230   68.8760 C   0  0  0  0  0  0  0  0  0  0  0  0
    0.8510   64.0200   71.1550 C   0  0  0  0  0  0  0  0  0  0  0  0
   -0.2140   64.8950   70.8030 O   0  0  0  0  0  0  0  0  0  0  0  0
    0.5911   69.7746   67.3492 H   0  0  0  0  0  0  0  0  0  0  0  0
    3.1618   68.1458   63.4101 H   0  0  0  0  0  0  0  0  0  0  0  0
    5.5543   68.8844   63.1910 H   0  0  0  0  0  0  0  0  0  0  0  0
    6.6990   70.0349   65.0865 H   0  0  0  0  0  0  0  0  0  0  0  0
    5.4767   70.4662   67.2383 H   0  0  0  0  0  0  0  0  0  0  0  0
    1.9967   66.1214   70.8422 H   0  0  0  0  0  0  0  0  0  0  0  0
    2.7387   67.9275   69.3089 H   0  0  0  0  0  0  0  0  0  0  0  0
   -1.0297   67.6837   67.2106 H   0  0  0  0  0  0  0  0  0  0  0  0
   -1.7640   65.8710   68.7503 H   0  0  0  0  0  0  0  0  0  0  0  0
    0.9272   63.9574   72.2506 H   0  0  0  0  0  0  0  0  0  0  0  0
    0.6545   63.0191   70.7433 H   0  0  0  0  0  0  0  0  0  0  0  0
    1.7948   64.4070   70.7433 H   0  0  0  0  0  0  0  0  0  0  0  0
  2  1  1  0
  3  2  2  0
  4  2  1  0
  5  4  2  0
  6  1  1  0
  6  5  1  0
  7  6  2  0
  8  5  1  0
  9  8  2  0
 10  9  1  0
 11 10  2  0
 11  4  1  0
 13 12  2  0
 14 13  1  0
 15 14  2  0
 15  1  1  0
 16 15  1  0
 17 12  1  0
 17 16  2  0
 19 18  1  0
 19 12  1  0
  1 20  1  0
  8 21  1  0
  9 22  1  0
 10 23  1  0
 11 24  1  0
 13 25  1  0
 14 26  1  0
 16 27  1  0
 17 28  1  0
 18 29  1  0
 18 30  1  0
 18 31  1  0
M  END
>  <score>  (5) 
-9.314

$$$$
=
     RDKit          3D

 31 33  0  0  0  0  0  0  0  0999 V2000
    3.8770   69.2110   65.3660 C   0  0  0  0  0  0  0  0  0  0  0  0
    4.7010   68.5220   64.2870 C   0  0  0  0  0  0  0  0  0  0  0  0
    5.5920   68.9960   63.6040 O   0  0  0  0  0  0  0  0  0  0  0  0
    4.2520   67.1360   64.1630 C   0  0  0  0  0  0  0  0  0  0  0  0
    3.2220   66.8930   65.0570 C   0  0  0  0  0  0  0  0  0  0  0  0
    2.9270   68.1060   65.8170 C   0  0  0  0  0  0  0  0  0  0  0  0
    2.0370   68.1730   66.6460 O   0  0  0  0  0  0  0  0  0  0  0  0
    2.6140   65.6540   65.1460 C   0  0  0  0  0  0  0  0  0  0  0  0
    3.0780   64.6440   64.2980 C   0  0  0  0  0  0  0  0  0  0  0  0
    4.1260   64.8910   63.3900 C   0  0  0  0  0  0  0  0  0  0  0  0
    4.7270   66.1520   63.3150 C   0  0  0  0  0  0  0  0  0  0  0  0
    6.2010   70.9610   68.5960 C   0  0  0  0  0  0  0  0  0  0  0  0
    6.7990   70.5710   67.3980 C   0  0  0  0  0  0  0  0  0  0  0  0
    6.0380   70.0070   66.3700 C   0  0  0  0  0  0  0  0  0  0  0  0
    4.6560   69.8190   66.5160 C   0  0  0  0  0  0  0  0  0  0  0  0
    4.0620   70.2180   67.7220 C   0  0  0  0  0  0  0  0  0  0  0  0
    4.8280   70.7820   68.7520 C   0  0  0  0  0  0  0  0  0  0  0  0
    7.5730   70.6100   70.5030 C   0  0  0  0  0  0  0  0  0  0  0  0
    7.0560   71.4950   69.5170 O   0  0  0  0  0  0  0  0  0  0  0  0
    3.3781   70.1066   64.9673 H   0  0  0  0  0  0  0  0  0  0  0  0
    1.7956   65.4700   65.8577 H   0  0  0  0  0  0  0  0  0  0  0  0
    2.6194   63.6451   64.3404 H   0  0  0  0  0  0  0  0  0  0  0  0
    4.4762   64.0823   62.7317 H   0  0  0  0  0  0  0  0  0  0  0  0
    5.5459   66.3532   62.6087 H   0  0  0  0  0  0  0  0  0  0  0  0
    7.8816   70.7087   67.2605 H   0  0  0  0  0  0  0  0  0  0  0  0
    6.5301   69.7064   65.4333 H   0  0  0  0  0  0  0  0  0  0  0  0
    2.9789   70.0865   67.8620 H   0  0  0  0  0  0  0  0  0  0  0  0
    4.3413   71.0856   69.6906 H   0  0  0  0  0  0  0  0  0  0  0  0
    7.3436   71.0027   71.5046 H   0  0  0  0  0  0  0  0  0  0  0  0
    7.1121   69.6184   70.3835 H   0  0  0  0  0  0  0  0  0  0  0  0
    8.6631   70.5245   70.3835 H   0  0  0  0  0  0  0  0  0  0  0  0
  2  1  1  0
  3  2  2  0
  4  2  1  0
  5  4  2  0
  6  1  1  0
  6  5  1  0
  7  6  2  0
  8  5  1  0
  9  8  2  0
 10  9  1  0
 11 10  2  0
 11  4  1  0
 13 12  2  0
 14 13  1  0
 15 14  2  0
 15  1  1  0
 16 15  1  0
 17 12  1  0
 17 16  2  0
 19 18  1  0
 19 12  1  0
  1 20  1  0
  8 21  1  0
  9 22  1  0
 10 23  1  0
 11 24  1  0
 13 25  1  0
 14 26  1  0
 16 27  1  0
 17 28  1  0
 18 29  1  0
 18 30  1  0
 18 31  1  0
M  END
>  <score>  (6) 
-9.137

$$$$
=
     RDKit          3D

 31 33  0  0  0  0  0  0  0  0999 V2000
    2.2700   67.3380   66.2160 C   0  0  0  0  0  0  0  0  0  0  0  0
    2.6590   66.5080   65.0000 C   0  0  0  0  0  0  0  0  0  0  0  0
    2.2910   65.3840   64.7080 O   0  0  0  0  0  0  0  0  0  0  0  0
    3.5950   67.2790   64.1830 C   0  0  0  0  0  0  0  0  0  0  0  0
    3.8340   68.5080   64.7740 C   0  0  0  0  0  0  0  0  0  0  0  0
    3.0750   68.6180   66.0180 C   0  0  0  0  0  0  0  0  0  0  0  0
    3.1350   69.5880   66.7520 O   0  0  0  0  0  0  0  0  0  0  0  0
    4.6870   69.4360   64.2040 C   0  0  0  0  0  0  0  0  0  0  0  0
    5.3040   69.0890   62.9970 C   0  0  0  0  0  0  0  0  0  0  0  0
    5.0600   67.8390   62.3960 C   0  0  0  0  0  0  0  0  0  0  0  0
    4.1950   66.9150   62.9910 C   0  0  0  0  0  0  0  0  0  0  0  0
   -1.9800   68.1420   66.6440 C   0  0  0  0  0  0  0  0  0  0  0  0
   -1.2360   68.6940   65.6020 C   0  0  0  0  0  0  0  0  0  0  0  0
    0.1300   68.4290   65.4800 C   0  0  0  0  0  0  0  0  0  0  0  0
    0.7880   67.6000   66.4010 C   0  0  0  0  0  0  0  0  0  0  0  0
    0.0320   67.0460   67.4440 C   0  0  0  0  0  0  0  0  0  0  0  0
   -1.3380   67.3160   67.5650 C   0  0  0  0  0  0  0  0  0  0  0  0
   -3.8450   68.9680   65.4280 C   0  0  0  0  0  0  0  0  0  0  0  0
   -3.3030   68.4830   66.6490 O   0  0  0  0  0  0  0  0  0  0  0  0
    2.4943   66.7982   67.1479 H   0  0  0  0  0  0  0  0  0  0  0  0
    4.8731   70.4094   64.6813 H   0  0  0  0  0  0  0  0  0  0  0  0
    5.9878   69.8011   62.5118 H   0  0  0  0  0  0  0  0  0  0  0  0
    5.5557   67.5863   61.4471 H   0  0  0  0  0  0  0  0  0  0  0  0
    3.9993   65.9362   62.5287 H   0  0  0  0  0  0  0  0  0  0  0  0
   -1.7307   69.3461   64.8671 H   0  0  0  0  0  0  0  0  0  0  0  0
    0.6975   68.8763   64.6506 H   0  0  0  0  0  0  0  0  0  0  0  0
    0.5216   66.3895   68.1784 H   0  0  0  0  0  0  0  0  0  0  0  0
   -1.9108   66.8727   68.3929 H   0  0  0  0  0  0  0  0  0  0  0  0
   -4.6488   69.6873   65.6437 H   0  0  0  0  0  0  0  0  0  0  0  0
   -3.0539   69.4654   64.8476 H   0  0  0  0  0  0  0  0  0  0  0  0
   -4.2518   68.1268   64.8476 H   0  0  0  0  0  0  0  0  0  0  0  0
  2  1  1  0
  3  2  2  0
  4  2  1  0
  5  4  2  0
  6  1  1  0
  6  5  1  0
  7  6  2  0
  8  5  1  0
  9  8  2  0
 10  9  1  0
 11 10  2  0
 11  4  1  0
 13 12  2  0
 14 13  1  0
 15 14  2  0
 15  1  1  0
 16 15  1  0
 17 12  1  0
 17 16  2  0
 19 18  1  0
 19 12  1  0
  1 20  1  0
  8 21  1  0
  9 22  1  0
 10 23  1  0
 11 24  1  0
 13 25  1  0
 14 26  1  0
 16 27  1  0
 17 28  1  0
 18 29  1  0
 18 30  1  0
 18 31  1  0
M  END
>  <score>  (7) 
-9.127

$$$$
=
     RDKit          3D

 31 33  0  0  0  0  0  0  0  0999 V2000
    3.4350   59.4650   72.2280 C   0  0  0  0  0  0  0  0  0  0  0  0
    3.6160   59.4720   70.7160 C   0  0  0  0  0  0  0  0  0  0  0  0
    3.7410   58.5170   69.9690 O   0  0  0  0  0  0  0  0  0  0  0  0
    3.6280   60.8570   70.2490 C   0  0  0  0  0  0  0  0  0  0  0  0
    3.4800   61.7180   71.3230 C   0  0  0  0  0  0  0  0  0  0  0  0
    3.3670   60.9520   72.5620 C   0  0  0  0  0  0  0  0  0  0  0  0
    3.2630   61.4700   73.6600 O   0  0  0  0  0  0  0  0  0  0  0  0
    3.4580   63.0910   71.1580 C   0  0  0  0  0  0  0  0  0  0  0  0
    3.5900   63.5870   69.8570 C   0  0  0  0  0  0  0  0  0  0  0  0
    3.7410   62.7120   68.7640 C   0  0  0  0  0  0  0  0  0  0  0  0
    3.7610   61.3260   68.9540 C   0  0  0  0  0  0  0  0  0  0  0  0
    0.0820   57.1500   73.7400 C   0  0  0  0  0  0  0  0  0  0  0  0
    1.2630   56.5340   73.3270 C   0  0  0  0  0  0  0  0  0  0  0  0
    2.3310   57.2930   72.8400 C   0  0  0  0  0  0  0  0  0  0  0  0
    2.2440   58.6900   72.7550 C   0  0  0  0  0  0  0  0  0  0  0  0
    1.0540   59.3010   73.1770 C   0  0  0  0  0  0  0  0  0  0  0  0
   -0.0170   58.5380   73.6630 C   0  0  0  0  0  0  0  0  0  0  0  0
   -0.4770   54.9620   74.4770 C   0  0  0  0  0  0  0  0  0  0  0  0
   -0.8830   56.2950   74.1920 O   0  0  0  0  0  0  0  0  0  0  0  0
    4.2569   58.9245   72.7203 H   0  0  0  0  0  0  0  0  0  0  0  0
    3.3411   63.7674   72.0176 H   0  0  0  0  0  0  0  0  0  0  0  0
    3.5757   64.6735   69.6855 H   0  0  0  0  0  0  0  0  0  0  0  0
    3.8444   63.1230   67.7489 H   0  0  0  0  0  0  0  0  0  0  0  0
    3.8780   60.6352   68.1060 H   0  0  0  0  0  0  0  0  0  0  0  0
    1.3551   55.4394   73.3851 H   0  0  0  0  0  0  0  0  0  0  0  0
    3.2533   56.7870   72.5187 H   0  0  0  0  0  0  0  0  0  0  0  0
    0.9597   60.3958   73.1258 H   0  0  0  0  0  0  0  0  0  0  0  0
   -0.9419   59.0383   73.9858 H   0  0  0  0  0  0  0  0  0  0  0  0
   -0.4329   54.8172   75.5665 H   0  0  0  0  0  0  0  0  0  0  0  0
   -1.2012   54.2573   74.0424 H   0  0  0  0  0  0  0  0  0  0  0  0
    0.5171   54.7806   74.0424 H   0  0  0  0  0  0  0  0  0  0  0  0
  2  1  1  0
  3  2  2  0
  4  2  1  0
  5  4  2  0
  6  1  1  0
  6  5  1  0
  7  6  2  0
  8  5  1  0
  9  8  2  0
 10  9  1  0
 11 10  2  0
 11  4  1  0
 13 12  2  0
 14 13  1  0
 15 14  2  0
 15  1  1  0
 16 15  1  0
 17 12  1  0
 17 16  2  0
 19 18  1  0
 19 12  1  0
  1 20  1  0
  8 21  1  0
  9 22  1  0
 10 23  1  0
 11 24  1  0
 13 25  1  0
 14 26  1  0
 16 27  1  0
 17 28  1  0
 18 29  1  0
 18 30  1  0
 18 31  1  0
M  END
>  <score>  (8) 
-8.116

$$$$
=
     RDKit          3D

 31 33  0  0  0  0  0  0  0  0999 V2000
    2.9210   61.7140   72.0650 C   0  0  0  0  0  0  0  0  0  0  0  0
    2.1630   60.8530   73.0650 C   0  0  0  0  0  0  0  0  0  0  0  0
    1.5660   61.2100   74.0660 O   0  0  0  0  0  0  0  0  0  0  0  0
    2.2550   59.4540   72.6490 C   0  0  0  0  0  0  0  0  0  0  0  0
    3.0040   59.3570   71.4880 C   0  0  0  0  0  0  0  0  0  0  0  0
    3.4540   60.6840   71.0740 C   0  0  0  0  0  0  0  0  0  0  0  0
    4.1620   60.8750   70.1010 O   0  0  0  0  0  0  0  0  0  0  0  0
    3.2470   58.1390   70.8780 C   0  0  0  0  0  0  0  0  0  0  0  0
    2.7040   56.9980   71.4770 C   0  0  0  0  0  0  0  0  0  0  0  0
    1.9420   57.0970   72.6580 C   0  0  0  0  0  0  0  0  0  0  0  0
    1.7100   58.3380   73.2580 C   0  0  0  0  0  0  0  0  0  0  0  0
    0.7360   64.9240   70.1120 C   0  0  0  0  0  0  0  0  0  0  0  0
    2.1160   64.9920   70.2980 C   0  0  0  0  0  0  0  0  0  0  0  0
    2.8040   63.9540   70.9310 C   0  0  0  0  0  0  0  0  0  0  0  0
    2.1250   62.8160   71.3930 C   0  0  0  0  0  0  0  0  0  0  0  0
    0.7380   62.7540   71.1970 C   0  0  0  0  0  0  0  0  0  0  0  0
    0.0500   63.7980   70.5640 C   0  0  0  0  0  0  0  0  0  0  0  0
    1.0660   67.0790   69.1680 C   0  0  0  0  0  0  0  0  0  0  0  0
    0.1870   66.0060   69.4830 O   0  0  0  0  0  0  0  0  0  0  0  0
    3.6986   62.3077   72.5679 H   0  0  0  0  0  0  0  0  0  0  0  0
    3.8445   58.0709   69.9570 H   0  0  0  0  0  0  0  0  0  0  0  0
    2.8738   56.0116   71.0208 H   0  0  0  0  0  0  0  0  0  0  0  0
    1.5247   56.1868   73.1133 H   0  0  0  0  0  0  0  0  0  0  0  0
    1.1162   58.4239   74.1800 H   0  0  0  0  0  0  0  0  0  0  0  0
    2.6696   65.8734   69.9421 H   0  0  0  0  0  0  0  0  0  0  0  0
    3.8927   64.0296   71.0692 H   0  0  0  0  0  0  0  0  0  0  0  0
    0.1810   61.8718   71.5457 H   0  0  0  0  0  0  0  0  0  0  0  0
   -1.0387   63.7284   70.4229 H   0  0  0  0  0  0  0  0  0  0  0  0
    1.4381   67.5333   70.0981 H   0  0  0  0  0  0  0  0  0  0  0  0
    1.9146   66.6976   68.5811 H   0  0  0  0  0  0  0  0  0  0  0  0
    0.5250   67.8359   68.5811 H   0  0  0  0  0  0  0  0  0  0  0  0
  2  1  1  0
  3  2  2  0
  4  2  1  0
  5  4  2  0
  6  1  1  0
  6  5  1  0
  7  6  2  0
  8  5  1  0
  9  8  2  0
 10  9  1  0
 11 10  2  0
 11  4  1  0
 13 12  2  0
 14 13  1  0
 15 14  2  0
 15  1  1  0
 16 15  1  0
 17 12  1  0
 17 16  2  0
 19 18  1  0
 19 12  1  0
  1 20  1  0
  8 21  1  0
  9 22  1  0
 10 23  1  0
 11 24  1  0
 13 25  1  0
 14 26  1  0
 16 27  1  0
 17 28  1  0
 18 29  1  0
 18 30  1  0
 18 31  1  0
M  END
>  <score>  (9) 
-8.078

$$$$
