=
     RDKit          3D

 32 33  0  0  0  0  0  0  0  0999 V2000
    2.1850   68.3770   64.8400 C   0  0  0  0  0  0  0  0  0  0  0  0
    1.6560   68.9530   63.8970 O   0  0  0  0  0  0  0  0  0  0  0  0
    3.1540   69.0420   65.7470 C   0  0  0  0  0  0  0  0  0  0  0  0
    4.4410   69.3900   65.3240 C   0  0  0  0  0  0  0  0  0  0  0  0
    5.2980   70.0720   66.1920 C   0  0  0  0  0  0  0  0  0  0  0  0
    4.8910   70.4150   67.4920 C   0  0  0  0  0  0  0  0  0  0  0  0
    3.6030   70.0420   67.9080 C   0  0  0  0  0  0  0  0  0  0  0  0
    2.7410   69.3600   67.0460 C   0  0  0  0  0  0  0  0  0  0  0  0
    5.8200   71.1740   68.4220 C   0  0  0  0  0  0  0  0  0  0  0  0
    6.0420   72.3940   68.1430 O   0  0  0  0  0  0  0  0  0  0  0  0
    6.2970   70.5340   69.4100 O   0  0  0  0  0  1  0  0  0  0  0  0
    1.8940   66.9060   65.0200 C   0  0  0  0  0  0  0  0  0  0  0  0
    0.8070   66.5700   65.4730 O   0  0  0  0  0  0  0  0  0  0  0  0
    4.9180   64.0690   63.8870 C   0  0  0  0  0  0  0  0  0  0  0  0
    4.7360   65.2540   63.1690 C   0  0  0  0  0  0  0  0  0  0  0  0
    3.7520   66.1710   63.5480 C   0  0  0  0  0  0  0  0  0  0  0  0
    2.9390   65.9140   64.6570 C   0  0  0  0  0  0  0  0  0  0  0  0
    3.1240   64.7310   65.3820 C   0  0  0  0  0  0  0  0  0  0  0  0
    4.1110   63.8130   64.9960 C   0  0  0  0  0  0  0  0  0  0  0  0
    5.5220   62.2350   62.5020 C   0  0  0  0  0  0  0  0  0  0  0  0
    5.9120   63.2590   63.4100 O   0  0  0  0  0  0  0  0  0  0  0  0
    4.7779   69.1274   64.3103 H   0  0  0  0  0  0  0  0  0  0  0  0
    6.3078   70.3447   65.8517 H   0  0  0  0  0  0  0  0  0  0  0  0
    3.2683   70.2901   68.9261 H   0  0  0  0  0  0  0  0  0  0  0  0
    1.7361   69.0724   67.3886 H   0  0  0  0  0  0  0  0  0  0  0  0
    5.3729   65.4668   62.2978 H   0  0  0  0  0  0  0  0  0  0  0  0
    3.6162   67.0983   62.9722 H   0  0  0  0  0  0  0  0  0  0  0  0
    2.4926   64.5207   66.2579 H   0  0  0  0  0  0  0  0  0  0  0  0
    4.2499   62.8855   65.5709 H   0  0  0  0  0  0  0  0  0  0  0  0
    5.1860   61.3528   63.0666 H   0  0  0  0  0  0  0  0  0  0  0  0
    4.6999   62.6000   61.8688 H   0  0  0  0  0  0  0  0  0  0  0  0
    6.3786   61.9607   61.8688 H   0  0  0  0  0  0  0  0  0  0  0  0
  2  1  2  0
  3  1  1  0
  4  3  2  0
  5  4  1  0
  6  5  2  0
  7  6  1  0
  8  7  2  0
  8  3  1  0
  9  6  1  0
 10  9  2  0
 11  9  1  0
 12  1  1  0
 13 12  2  0
 15 14  2  0
 16 15  1  0
 17 16  2  0
 17 12  1  0
 18 17  1  0
 19 18  2  0
 19 14  1  0
 21 14  1  0
 21 20  1  0
  4 22  1  0
  5 23  1  0
  7 24  1  0
  8 25  1  0
 15 26  1  0
 16 27  1  0
 18 28  1  0
 19 29  1  0
 20 30  1  0
 20 31  1  0
 20 32  1  0
M  CHG  1  11  -1
M  END
>  <score>  (1) 
-9.524

$$$$
=
     RDKit          3D

 32 33  0  0  0  0  0  0  0  0999 V2000
    1.3920   68.6750   66.4530 C   0  0  0  0  0  0  0  0  0  0  0  0
    0.3780   68.5220   67.1250 O   0  0  0  0  0  0  0  0  0  0  0  0
    2.6310   69.2850   66.9970 C   0  0  0  0  0  0  0  0  0  0  0  0
    3.7990   69.3850   66.2340 C   0  0  0  0  0  0  0  0  0  0  0  0
    4.9240   70.0230   66.7650 C   0  0  0  0  0  0  0  0  0  0  0  0
    4.9050   70.5680   68.0590 C   0  0  0  0  0  0  0  0  0  0  0  0
    3.7310   70.4440   68.8180 C   0  0  0  0  0  0  0  0  0  0  0  0
    2.6030   69.8060   68.2950 C   0  0  0  0  0  0  0  0  0  0  0  0
    6.1230   71.2800   68.6200 C   0  0  0  0  0  0  0  0  0  0  0  0
    6.3570   72.4500   68.1850 O   0  0  0  0  0  0  0  0  0  0  0  0
    6.8100   70.6520   69.4850 O   0  0  0  0  0  1  0  0  0  0  0  0
    1.3320   68.3010   64.9920 C   0  0  0  0  0  0  0  0  0  0  0  0
    0.4640   68.8020   64.2880 O   0  0  0  0  0  0  0  0  0  0  0  0
    4.1770   65.4360   63.5170 C   0  0  0  0  0  0  0  0  0  0  0  0
    3.3380   65.1320   64.5920 C   0  0  0  0  0  0  0  0  0  0  0  0
    2.4140   66.0690   65.0610 C   0  0  0  0  0  0  0  0  0  0  0  0
    2.3160   67.3260   64.4550 C   0  0  0  0  0  0  0  0  0  0  0  0
    3.1510   67.6310   63.3740 C   0  0  0  0  0  0  0  0  0  0  0  0
    4.0780   66.6880   62.9090 C   0  0  0  0  0  0  0  0  0  0  0  0
    4.9110   63.2030   63.8640 C   0  0  0  0  0  0  0  0  0  0  0  0
    5.0360   64.4330   63.1600 O   0  0  0  0  0  0  0  0  0  0  0  0
    3.8323   68.9628   65.2188 H   0  0  0  0  0  0  0  0  0  0  0  0
    5.8390   70.0993   66.1592 H   0  0  0  0  0  0  0  0  0  0  0  0
    3.6983   70.8544   69.8380 H   0  0  0  0  0  0  0  0  0  0  0  0
    1.6921   69.7134   68.9046 H   0  0  0  0  0  0  0  0  0  0  0  0
    3.4056   64.1454   65.0737 H   0  0  0  0  0  0  0  0  0  0  0  0
    1.7612   65.8174   65.9098 H   0  0  0  0  0  0  0  0  0  0  0  0
    3.0795   68.6149   62.8873 H   0  0  0  0  0  0  0  0  0  0  0  0
    4.7314   66.9365   62.0597 H   0  0  0  0  0  0  0  0  0  0  0  0
    4.9307   63.3966   64.9467 H   0  0  0  0  0  0  0  0  0  0  0  0
    3.9593   62.7215   63.5948 H   0  0  0  0  0  0  0  0  0  0  0  0
    5.7464   62.5399   63.5948 H   0  0  0  0  0  0  0  0  0  0  0  0
  2  1  2  0
  3  1  1  0
  4  3  2  0
  5  4  1  0
  6  5  2  0
  7  6  1  0
  8  7  2  0
  8  3  1  0
  9  6  1  0
 10  9  2  0
 11  9  1  0
 12  1  1  0
 13 12  2  0
 15 14  2  0
 16 15  1  0
 17 16  2  0
 17 12  1  0
 18 17  1  0
 19 18  2  0
 19 14  1  0
 21 14  1  0
 21 20  1  0
  4 22  1  0
  5 23  1  0
  7 24  1  0
  8 25  1  0
 15 26  1  0
 16 27  1  0
 18 28  1  0
 19 29  1  0
 20 30  1  0
 20 31  1  0
 20 32  1  0
M  CHG  1  11  -1
M  END
>  <score>  (2) 
-9.478

$$$$
=
     RDKit          3D

 32 33  0  0  0  0  0  0  0  0999 V2000
    3.7500   68.9900   64.9020 C   0  0  0  0  0  0  0  0  0  0  0  0
    3.8080   69.4560   63.7700 O   0  0  0  0  0  0  0  0  0  0  0  0
    4.5270   69.5430   66.0400 C   0  0  0  0  0  0  0  0  0  0  0  0
    3.9290   69.8240   67.2730 C   0  0  0  0  0  0  0  0  0  0  0  0
    4.7110   70.2850   68.3360 C   0  0  0  0  0  0  0  0  0  0  0  0
    6.0940   70.4750   68.1900 C   0  0  0  0  0  0  0  0  0  0  0  0
    6.6760   70.2050   66.9410 C   0  0  0  0  0  0  0  0  0  0  0  0
    5.9010   69.7450   65.8730 C   0  0  0  0  0  0  0  0  0  0  0  0
    6.9400   70.9540   69.3550 C   0  0  0  0  0  0  0  0  0  0  0  0
    7.8810   71.7650   69.0880 O   0  0  0  0  0  0  0  0  0  0  0  0
    6.6370   70.5130   70.5070 O   0  0  0  0  0  1  0  0  0  0  0  0
    2.9160   67.7490   65.1110 C   0  0  0  0  0  0  0  0  0  0  0  0
    3.4060   66.6560   64.8530 O   0  0  0  0  0  0  0  0  0  0  0  0
   -1.1280   68.2260   66.4870 C   0  0  0  0  0  0  0  0  0  0  0  0
   -0.7320   68.7010   65.2340 C   0  0  0  0  0  0  0  0  0  0  0  0
    0.5840   68.5380   64.7940 C   0  0  0  0  0  0  0  0  0  0  0  0
    1.5220   67.8910   65.6060 C   0  0  0  0  0  0  0  0  0  0  0  0
    1.1260   67.4080   66.8590 C   0  0  0  0  0  0  0  0  0  0  0  0
   -0.1950   67.5770   67.2960 C   0  0  0  0  0  0  0  0  0  0  0  0
   -3.3010   68.8050   65.7170 C   0  0  0  0  0  0  0  0  0  0  0  0
   -2.4410   68.4540   66.7950 O   0  0  0  0  0  0  0  0  0  0  0  0
    2.8462   69.6826   67.4057 H   0  0  0  0  0  0  0  0  0  0  0  0
    4.2345   70.5025   69.3033 H   0  0  0  0  0  0  0  0  0  0  0  0
    7.7564   70.3576   66.8014 H   0  0  0  0  0  0  0  0  0  0  0  0
    6.3720   69.5415   64.9000 H   0  0  0  0  0  0  0  0  0  0  0  0
   -1.4635   69.2082   64.5877 H   0  0  0  0  0  0  0  0  0  0  0  0
    0.8835   68.9193   63.8066 H   0  0  0  0  0  0  0  0  0  0  0  0
    1.8545   66.8938   67.5031 H   0  0  0  0  0  0  0  0  0  0  0  0
   -0.4978   67.1957   68.2824 H   0  0  0  0  0  0  0  0  0  0  0  0
   -4.2500   69.1923   66.1162 H   0  0  0  0  0  0  0  0  0  0  0  0
   -2.8195   69.5786   65.1007 H   0  0  0  0  0  0  0  0  0  0  0  0
   -3.4983   67.9154   65.1007 H   0  0  0  0  0  0  0  0  0  0  0  0
  2  1  2  0
  3  1  1  0
  4  3  2  0
  5  4  1  0
  6  5  2  0
  7  6  1  0
  8  7  2  0
  8  3  1  0
  9  6  1  0
 10  9  2  0
 11  9  1  0
 12  1  1  0
 13 12  2  0
 15 14  2  0
 16 15  1  0
 17 16  2  0
 17 12  1  0
 18 17  1  0
 19 18  2  0
 19 14  1  0
 21 14  1  0
 21 20  1  0
  4 22  1  0
  5 23  1  0
  7 24  1  0
  8 25  1  0
 15 26  1  0
 16 27  1  0
 18 28  1  0
 19 29  1  0
 20 30  1  0
 20 31  1  0
 20 32  1  0
M  CHG  1  11  -1
M  END
>  <score>  (3) 
-9.191

$$$$
=
     RDKit          3D

 32 33  0  0  0  0  0  0  0  0999 V2000
    3.1280   67.8040   64.8720 C   0  0  0  0  0  0  0  0  0  0  0  0
    3.5660   66.7230   64.4940 O   0  0  0  0  0  0  0  0  0  0  0  0
    1.7170   67.9960   65.2920 C   0  0  0  0  0  0  0  0  0  0  0  0
    0.7770   68.6090   64.4570 C   0  0  0  0  0  0  0  0  0  0  0  0
   -0.5550   68.7130   64.8680 C   0  0  0  0  0  0  0  0  0  0  0  0
   -0.9710   68.2130   66.1120 C   0  0  0  0  0  0  0  0  0  0  0  0
   -0.0120   67.6160   66.9450 C   0  0  0  0  0  0  0  0  0  0  0  0
    1.3220   67.5090   66.5430 C   0  0  0  0  0  0  0  0  0  0  0  0
   -2.4230   68.3090   66.5420 C   0  0  0  0  0  0  0  0  0  0  0  0
   -3.2050   68.9640   65.7840 O   0  0  0  0  0  0  0  0  0  0  0  0
   -2.7460   67.7220   67.6210 O   0  0  0  0  0  1  0  0  0  0  0  0
    4.0530   68.9960   64.8210 C   0  0  0  0  0  0  0  0  0  0  0  0
    4.3440   69.4720   63.7310 O   0  0  0  0  0  0  0  0  0  0  0  0
    5.7020   70.5510   68.4730 C   0  0  0  0  0  0  0  0  0  0  0  0
    6.5160   70.2890   67.3680 C   0  0  0  0  0  0  0  0  0  0  0  0
    5.9700   69.7870   66.1850 C   0  0  0  0  0  0  0  0  0  0  0  0
    4.5950   69.5440   66.0920 C   0  0  0  0  0  0  0  0  0  0  0  0
    3.7760   69.8120   67.1950 C   0  0  0  0  0  0  0  0  0  0  0  0
    4.3300   70.3130   68.3810 C   0  0  0  0  0  0  0  0  0  0  0  0
    7.7800   70.9180   69.5650 C   0  0  0  0  0  0  0  0  0  0  0  0
    6.3620   71.0370   69.5680 O   0  0  0  0  0  0  0  0  0  0  0  0
    1.0852   69.0082   63.4794 H   0  0  0  0  0  0  0  0  0  0  0  0
   -1.2894   69.1946   64.2056 H   0  0  0  0  0  0  0  0  0  0  0  0
   -0.3148   67.2268   67.9283 H   0  0  0  0  0  0  0  0  0  0  0  0
    2.0616   67.0419   67.2099 H   0  0  0  0  0  0  0  0  0  0  0  0
    7.5975   70.4801   67.4306 H   0  0  0  0  0  0  0  0  0  0  0  0
    6.6226   69.5819   65.3236 H   0  0  0  0  0  0  0  0  0  0  0  0
    2.6933   69.6287   67.1308 H   0  0  0  0  0  0  0  0  0  0  0  0
    3.6798   70.5197   69.2439 H   0  0  0  0  0  0  0  0  0  0  0  0
    8.1476   70.8872   70.6013 H   0  0  0  0  0  0  0  0  0  0  0  0
    8.0692   69.9924   69.0457 H   0  0  0  0  0  0  0  0  0  0  0  0
    8.2194   71.7824   69.0457 H   0  0  0  0  0  0  0  0  0  0  0  0
  2  1  2  0
  3  1  1  0
  4  3  2  0
  5  4  1  0
  6  5  2  0
  7  6  1  0
  8  7  2  0
  8  3  1  0
  9  6  1  0
 10  9  2  0
 11  9  1  0
 12  1  1  0
 13 12  2  0
 15 14  2  0
 16 15  1  0
 17 16  2  0
 17 12  1  0
 18 17  1  0
 19 18  2  0
 19 14  1  0
 21 14  1  0
 21 20  1  0
  4 22  1  0
  5 23  1  0
  7 24  1  0
  8 25  1  0
 15 26  1  0
 16 27  1  0
 18 28  1  0
 19 29  1  0
 20 30  1  0
 20 31  1  0
 20 32  1  0
M  CHG  1  11  -1
M  END
>  <score>  (4) 
-9.184

$$$$
=
     RDKit          3D

 32 33  0  0  0  0  0  0  0  0999 V2000
    1.5100   67.9640   66.8230 C   0  0  0  0  0  0  0  0  0  0  0  0
    1.1470   66.9390   67.3890 O   0  0  0  0  0  0  0  0  0  0  0  0
    1.9280   67.9900   65.3990 C   0  0  0  0  0  0  0  0  0  0  0  0
    1.3240   68.8430   64.4690 C   0  0  0  0  0  0  0  0  0  0  0  0
    1.7920   68.8790   63.1530 C   0  0  0  0  0  0  0  0  0  0  0  0
    2.8620   68.0690   62.7400 C   0  0  0  0  0  0  0  0  0  0  0  0
    3.4460   67.2060   63.6810 C   0  0  0  0  0  0  0  0  0  0  0  0
    2.9840   67.1630   64.9990 C   0  0  0  0  0  0  0  0  0  0  0  0
    3.3790   68.1300   61.3150 C   0  0  0  0  0  0  0  0  0  0  0  0
    4.1360   67.1830   60.9360 O   0  0  0  0  0  0  0  0  0  0  0  0
    3.0080   69.1200   60.6090 O   0  0  0  0  0  1  0  0  0  0  0  0
    1.6130   69.2250   67.6470 C   0  0  0  0  0  0  0  0  0  0  0  0
    0.5870   69.7330   68.0810 O   0  0  0  0  0  0  0  0  0  0  0  0
    5.4510   71.0030   68.4130 C   0  0  0  0  0  0  0  0  0  0  0  0
    4.3930   71.1530   69.3140 C   0  0  0  0  0  0  0  0  0  0  0  0
    3.1510   70.5680   69.0580 C   0  0  0  0  0  0  0  0  0  0  0  0
    2.9530   69.8190   67.8920 C   0  0  0  0  0  0  0  0  0  0  0  0
    4.0120   69.6620   66.9910 C   0  0  0  0  0  0  0  0  0  0  0  0
    5.2560   70.2530   67.2520 C   0  0  0  0  0  0  0  0  0  0  0  0
    7.5340   70.8630   69.5470 C   0  0  0  0  0  0  0  0  0  0  0  0
    6.6100   71.6280   68.7830 O   0  0  0  0  0  0  0  0  0  0  0  0
    0.4830   69.4835   64.7730 H   0  0  0  0  0  0  0  0  0  0  0  0
    1.3138   69.5538   62.4277 H   0  0  0  0  0  0  0  0  0  0  0  0
    4.2786   66.5548   63.3765 H   0  0  0  0  0  0  0  0  0  0  0  0
    3.4506   66.4786   65.7228 H   0  0  0  0  0  0  0  0  0  0  0  0
    4.5401   71.7377   70.2340 H   0  0  0  0  0  0  0  0  0  0  0  0
    2.3262   70.6961   69.7744 H   0  0  0  0  0  0  0  0  0  0  0  0
    3.8677   69.0722   66.0738 H   0  0  0  0  0  0  0  0  0  0  0  0
    6.0830   70.1251   66.5381 H   0  0  0  0  0  0  0  0  0  0  0  0
    7.3431   71.0211   70.6187 H   0  0  0  0  0  0  0  0  0  0  0  0
    7.4140   69.7963   69.3066 H   0  0  0  0  0  0  0  0  0  0  0  0
    8.5596   71.1799   69.3066 H   0  0  0  0  0  0  0  0  0  0  0  0
  2  1  2  0
  3  1  1  0
  4  3  2  0
  5  4  1  0
  6  5  2  0
  7  6  1  0
  8  7  2  0
  8  3  1  0
  9  6  1  0
 10  9  2  0
 11  9  1  0
 12  1  1  0
 13 12  2  0
 15 14  2  0
 16 15  1  0
 17 16  2  0
 17 12  1  0
 18 17  1  0
 19 18  2  0
 19 14  1  0
 21 14  1  0
 21 20  1  0
  4 22  1  0
  5 23  1  0
  7 24  1  0
  8 25  1  0
 15 26  1  0
 16 27  1  0
 18 28  1  0
 19 29  1  0
 20 30  1  0
 20 31  1  0
 20 32  1  0
M  CHG  1  11  -1
M  END
>  <score>  (5) 
-8.941

$$$$
=
     RDKit          3D

 32 33  0  0  0  0  0  0  0  0999 V2000
    3.7510   67.9120   64.1240 C   0  0  0  0  0  0  0  0  0  0  0  0
    4.0150   66.7240   63.9700 O   0  0  0  0  0  0  0  0  0  0  0  0
    4.3820   68.7450   65.1780 C   0  0  0  0  0  0  0  0  0  0  0  0
    5.6870   69.2310   65.0500 C   0  0  0  0  0  0  0  0  0  0  0  0
    6.2190   70.0650   66.0380 C   0  0  0  0  0  0  0  0  0  0  0  0
    5.4640   70.4240   67.1670 C   0  0  0  0  0  0  0  0  0  0  0  0
    4.1630   69.9130   67.2890 C   0  0  0  0  0  0  0  0  0  0  0  0
    3.6240   69.0790   66.3060 C   0  0  0  0  0  0  0  0  0  0  0  0
    6.0410   71.3470   68.2250 C   0  0  0  0  0  0  0  0  0  0  0  0
    5.8550   72.5940   68.0640 O   0  0  0  0  0  0  0  0  0  0  0  0
    6.6580   70.8020   69.1920 O   0  0  0  0  0  1  0  0  0  0  0  0
    2.6740   68.5120   63.2520 C   0  0  0  0  0  0  0  0  0  0  0  0
    2.9710   68.9000   62.1290 O   0  0  0  0  0  0  0  0  0  0  0  0
   -1.2990   68.7920   64.8660 C   0  0  0  0  0  0  0  0  0  0  0  0
   -0.2290   68.3660   65.6560 C   0  0  0  0  0  0  0  0  0  0  0  0
    1.0600   68.2820   65.1230 C   0  0  0  0  0  0  0  0  0  0  0  0
    1.2930   68.6290   63.7880 C   0  0  0  0  0  0  0  0  0  0  0  0
    0.2230   69.0630   62.9960 C   0  0  0  0  0  0  0  0  0  0  0  0
   -1.0680   69.1430   63.5350 C   0  0  0  0  0  0  0  0  0  0  0  0
   -2.6140   68.0690   66.7090 C   0  0  0  0  0  0  0  0  0  0  0  0
   -2.5060   68.8270   65.5090 O   0  0  0  0  0  0  0  0  0  0  0  0
    6.2936   68.9577   64.1740 H   0  0  0  0  0  0  0  0  0  0  0  0
    7.2451   70.4462   65.9296 H   0  0  0  0  0  0  0  0  0  0  0  0
    3.5589   70.1726   68.1709 H   0  0  0  0  0  0  0  0  0  0  0  0
    2.6033   68.6847   66.4188 H   0  0  0  0  0  0  0  0  0  0  0  0
   -0.4025   68.0941   66.7076 H   0  0  0  0  0  0  0  0  0  0  0  0
    1.8938   67.9421   65.7549 H   0  0  0  0  0  0  0  0  0  0  0  0
    0.3965   69.3423   61.9463 H   0  0  0  0  0  0  0  0  0  0  0  0
   -1.9035   69.4841   62.9060 H   0  0  0  0  0  0  0  0  0  0  0  0
   -2.5185   68.7393   67.5759 H   0  0  0  0  0  0  0  0  0  0  0  0
   -3.5926   67.5677   66.7392 H   0  0  0  0  0  0  0  0  0  0  0  0
   -1.8143   67.3143   66.7392 H   0  0  0  0  0  0  0  0  0  0  0  0
  2  1  2  0
  3  1  1  0
  4  3  2  0
  5  4  1  0
  6  5  2  0
  7  6  1  0
  8  7  2  0
  8  3  1  0
  9  6  1  0
 10  9  2  0
 11  9  1  0
 12  1  1  0
 13 12  2  0
 15 14  2  0
 16 15  1  0
 17 16  2  0
 17 12  1  0
 18 17  1  0
 19 18  2  0
 19 14  1  0
 21 14  1  0
 21 20  1  0
  4 22  1  0
  5 23  1  0
  7 24  1  0
  8 25  1  0
 15 26  1  0
 16 27  1  0
 18 28  1  0
 19 29  1  0
 20 30  1  0
 20 31  1  0
 20 32  1  0
M  CHG  1  11  -1
M  END
>  <score>  (6) 
-8.521

$$$$
=
     RDKit          3D

 32 33  0  0  0  0  0  0  0  0999 V2000
    2.2230   68.3750   64.8100 C   0  0  0  0  0  0  0  0  0  0  0  0
    1.6130   69.0050   63.9520 O   0  0  0  0  0  0  0  0  0  0  0  0
    2.9770   67.1330   64.5090 C   0  0  0  0  0  0  0  0  0  0  0  0
    2.6920   65.9230   65.1520 C   0  0  0  0  0  0  0  0  0  0  0  0
    3.3850   64.7640   64.7920 C   0  0  0  0  0  0  0  0  0  0  0  0
    4.3720   64.7900   63.7940 C   0  0  0  0  0  0  0  0  0  0  0  0
    4.6590   66.0150   63.1710 C   0  0  0  0  0  0  0  0  0  0  0  0
    3.9710   67.1780   63.5250 C   0  0  0  0  0  0  0  0  0  0  0  0
    5.1050   63.5220   63.3940 C   0  0  0  0  0  0  0  0  0  0  0  0
    6.3420   63.4580   63.6800 O   0  0  0  0  0  0  0  0  0  0  0  0
    4.4250   62.6220   62.8110 O   0  0  0  0  0  1  0  0  0  0  0  0
    2.1200   68.8500   66.2390 C   0  0  0  0  0  0  0  0  0  0  0  0
    1.0680   68.6800   66.8440 O   0  0  0  0  0  0  0  0  0  0  0  0
    5.5560   70.7540   67.9830 C   0  0  0  0  0  0  0  0  0  0  0  0
    5.5850   70.2750   66.6710 C   0  0  0  0  0  0  0  0  0  0  0  0
    4.4620   69.6610   66.1120 C   0  0  0  0  0  0  0  0  0  0  0  0
    3.2890   69.5220   66.8630 C   0  0  0  0  0  0  0  0  0  0  0  0
    3.2540   70.0080   68.1750 C   0  0  0  0  0  0  0  0  0  0  0  0
    4.3850   70.6210   68.7320 C   0  0  0  0  0  0  0  0  0  0  0  0
    7.3690   70.7220   69.5200 C   0  0  0  0  0  0  0  0  0  0  0  0
    6.7210   71.3300   68.4080 O   0  0  0  0  0  0  0  0  0  0  0  0
    1.9243   65.8843   65.9389 H   0  0  0  0  0  0  0  0  0  0  0  0
    3.1533   63.8157   65.2990 H   0  0  0  0  0  0  0  0  0  0  0  0
    5.4361   66.0595   62.3937 H   0  0  0  0  0  0  0  0  0  0  0  0
    4.2109   68.1304   63.0297 H   0  0  0  0  0  0  0  0  0  0  0  0
    6.5015   70.3825   66.0722 H   0  0  0  0  0  0  0  0  0  0  0  0
    4.4994   69.2856   65.0787 H   0  0  0  0  0  0  0  0  0  0  0  0
    2.3352   69.9086   68.7716 H   0  0  0  0  0  0  0  0  0  0  0  0
    4.3498   70.9992   69.7644 H   0  0  0  0  0  0  0  0  0  0  0  0
    6.9451   71.1198   70.4539 H   0  0  0  0  0  0  0  0  0  0  0  0
    7.2168   69.6332   69.4827 H   0  0  0  0  0  0  0  0  0  0  0  0
    8.4459   70.9432   69.4827 H   0  0  0  0  0  0  0  0  0  0  0  0
  2  1  2  0
  3  1  1  0
  4  3  2  0
  5  4  1  0
  6  5  2  0
  7  6  1  0
  8  7  2  0
  8  3  1  0
  9  6  1  0
 10  9  2  0
 11  9  1  0
 12  1  1  0
 13 12  2  0
 15 14  2  0
 16 15  1  0
 17 16  2  0
 17 12  1  0
 18 17  1  0
 19 18  2  0
 19 14  1  0
 21 14  1  0
 21 20  1  0
  4 22  1  0
  5 23  1  0
  7 24  1  0
  8 25  1  0
 15 26  1  0
 16 27  1  0
 18 28  1  0
 19 29  1  0
 20 30  1  0
 20 31  1  0
 20 32  1  0
M  CHG  1  11  -1
M  END
>  <score>  (7) 
-8.497

$$$$
=
     RDKit          3D

 32 33  0  0  0  0  0  0  0  0999 V2000
    0.2080   68.7600   67.4020 C   0  0  0  0  0  0  0  0  0  0  0  0
   -0.0300   69.9260   67.6960 O   0  0  0  0  0  0  0  0  0  0  0  0
    0.2550   67.6710   68.4100 C   0  0  0  0  0  0  0  0  0  0  0  0
   -0.8050   66.7740   68.5750 C   0  0  0  0  0  0  0  0  0  0  0  0
   -0.6930   65.7260   69.4930 C   0  0  0  0  0  0  0  0  0  0  0  0
    0.4710   65.5540   70.2590 C   0  0  0  0  0  0  0  0  0  0  0  0
    1.5190   66.4730   70.0940 C   0  0  0  0  0  0  0  0  0  0  0  0
    1.4150   67.5250   69.1800 C   0  0  0  0  0  0  0  0  0  0  0  0
    0.5950   64.4000   71.2370 C   0  0  0  0  0  0  0  0  0  0  0  0
    1.2820   63.3990   70.8620 O   0  0  0  0  0  0  0  0  0  0  0  0
    0.0080   64.5280   72.3570 O   0  0  0  0  0  1  0  0  0  0  0  0
    0.5500   68.4520   65.9640 C   0  0  0  0  0  0  0  0  0  0  0  0
   -0.2980   67.9260   65.2540 O   0  0  0  0  0  0  0  0  0  0  0  0
    4.4630   69.3520   64.4290 C   0  0  0  0  0  0  0  0  0  0  0  0
    3.4320   68.9410   63.5800 C   0  0  0  0  0  0  0  0  0  0  0  0
    2.1630   68.6540   64.0890 C   0  0  0  0  0  0  0  0  0  0  0  0
    1.9090   68.7800   65.4580 C   0  0  0  0  0  0  0  0  0  0  0  0
    2.9380   69.1980   66.3110 C   0  0  0  0  0  0  0  0  0  0  0  0
    4.2100   69.4820   65.7960 C   0  0  0  0  0  0  0  0  0  0  0  0
    5.8460   68.9940   62.5300 C   0  0  0  0  0  0  0  0  0  0  0  0
    5.6550   69.5980   63.8040 O   0  0  0  0  0  0  0  0  0  0  0  0
   -1.7249   66.8929   67.9837 H   0  0  0  0  0  0  0  0  0  0  0  0
   -1.5309   65.0242   69.6174 H   0  0  0  0  0  0  0  0  0  0  0  0
    2.4353   66.3636   70.6927 H   0  0  0  0  0  0  0  0  0  0  0  0
    2.2445   68.2383   69.0656 H   0  0  0  0  0  0  0  0  0  0  0  0
    3.6213   68.8425   62.5009 H   0  0  0  0  0  0  0  0  0  0  0  0
    1.3611   68.3278   63.4104 H   0  0  0  0  0  0  0  0  0  0  0  0
    2.7471   69.3038   67.3891 H   0  0  0  0  0  0  0  0  0  0  0  0
    5.0135   69.8091   66.4723 H   0  0  0  0  0  0  0  0  0  0  0  0
    6.1752   67.9529   62.6634 H   0  0  0  0  0  0  0  0  0  0  0  0
    4.8989   69.0103   61.9708 H   0  0  0  0  0  0  0  0  0  0  0  0
    6.6116   69.5518   61.9708 H   0  0  0  0  0  0  0  0  0  0  0  0
  2  1  2  0
  3  1  1  0
  4  3  2  0
  5  4  1  0
  6  5  2  0
  7  6  1  0
  8  7  2  0
  8  3  1  0
  9  6  1  0
 10  9  2  0
 11  9  1  0
 12  1  1  0
 13 12  2  0
 15 14  2  0
 16 15  1  0
 17 16  2  0
 17 12  1  0
 18 17  1  0
 19 18  2  0
 19 14  1  0
 21 14  1  0
 21 20  1  0
  4 22  1  0
  5 23  1  0
  7 24  1  0
  8 25  1  0
 15 26  1  0
 16 27  1  0
 18 28  1  0
 19 29  1  0
 20 30  1  0
 20 31  1  0
 20 32  1  0
M  CHG  1  11  -1
M  END
>  <score>  (8) 
-8.177

$$$$
=
     RDKit          3D

 32 33  0  0  0  0  0  0  0  0999 V2000
    4.1380   70.1200   67.3620 C   0  0  0  0  0  0  0  0  0  0  0  0
    4.9440   71.0220   67.5620 O   0  0  0  0  0  0  0  0  0  0  0  0
    4.0350   69.4080   66.0640 C   0  0  0  0  0  0  0  0  0  0  0  0
    2.8020   69.1730   65.4470 C   0  0  0  0  0  0  0  0  0  0  0  0
    2.7570   68.5540   64.1950 C   0  0  0  0  0  0  0  0  0  0  0  0
    3.9340   68.1570   63.5400 C   0  0  0  0  0  0  0  0  0  0  0  0
    5.1620   68.3840   64.1800 C   0  0  0  0  0  0  0  0  0  0  0  0
    5.2160   69.0010   65.4320 C   0  0  0  0  0  0  0  0  0  0  0  0
    3.8780   67.5050   62.1700 C   0  0  0  0  0  0  0  0  0  0  0  0
    3.3170   68.1650   61.2410 O   0  0  0  0  0  0  0  0  0  0  0  0
    4.4040   66.3540   62.0580 O   0  0  0  0  0  1  0  0  0  0  0  0
    3.1590   69.7930   68.4640 C   0  0  0  0  0  0  0  0  0  0  0  0
    3.4580   70.0650   69.6200 O   0  0  0  0  0  0  0  0  0  0  0  0
   -0.5220   67.8200   67.4480 C   0  0  0  0  0  0  0  0  0  0  0  0
    0.5650   67.1030   67.9550 C   0  0  0  0  0  0  0  0  0  0  0  0
    1.7560   67.7540   68.2850 C   0  0  0  0  0  0  0  0  0  0  0  0
    1.8710   69.1380   68.1160 C   0  0  0  0  0  0  0  0  0  0  0  0
    0.7820   69.8600   67.6150 C   0  0  0  0  0  0  0  0  0  0  0  0
   -0.4100   69.2010   67.2820 C   0  0  0  0  0  0  0  0  0  0  0  0
   -2.8460   67.7620   66.9540 C   0  0  0  0  0  0  0  0  0  0  0  0
   -1.6250   67.0620   67.1640 O   0  0  0  0  0  0  0  0  0  0  0  0
    1.8695   69.4749   65.9463 H   0  0  0  0  0  0  0  0  0  0  0  0
    1.7838   68.3748   63.7147 H   0  0  0  0  0  0  0  0  0  0  0  0
    6.0953   68.0716   63.6888 H   0  0  0  0  0  0  0  0  0  0  0  0
    6.1869   69.1672   65.9216 H   0  0  0  0  0  0  0  0  0  0  0  0
    0.4819   66.0152   68.0956 H   0  0  0  0  0  0  0  0  0  0  0  0
    2.6057   67.1770   68.6788 H   0  0  0  0  0  0  0  0  0  0  0  0
    0.8614   70.9490   67.4819 H   0  0  0  0  0  0  0  0  0  0  0  0
   -1.2612   69.7756   66.8879 H   0  0  0  0  0  0  0  0  0  0  0  0
   -3.2934   68.0185   67.9256 H   0  0  0  0  0  0  0  0  0  0  0  0
   -2.6475   68.6835   66.3870 H   0  0  0  0  0  0  0  0  0  0  0  0
   -3.5409   67.1251   66.3870 H   0  0  0  0  0  0  0  0  0  0  0  0
  2  1  2  0
  3  1  1  0
  4  3  2  0
  5  4  1  0
  6  5  2  0
  7  6  1  0
  8  7  2  0
  8  3  1  0
  9  6  1  0
 10  9  2  0
 11  9  1  0
 12  1  1  0
 13 12  2  0
 15 14  2  0
 16 15  1  0
 17 16  2  0
 17 12  1  0
 18 17  1  0
 19 18  2  0
 19 14  1  0
 21 14  1  0
 21 20  1  0
  4 22  1  0
  5 23  1  0
  7 24  1  0
  8 25  1  0
 15 26  1  0
 16 27  1  0
 18 28  1  0
 19 29  1  0
 20 30  1  0
 20 31  1  0
 20 32  1  0
M  CHG  1  11  -1
M  END
>  <score>  (9) 
-7.845

$$$$
