=
     RDKit          3D

 30 31  0  0  0  0  0  0  0  0999 V2000
    1.6020   70.2560   68.0410 N   0  0  0  0  0  4  0  0  0  0  0  0
    2.0820   69.4390   67.0860 C   0  0  0  0  0  0  0  0  0  0  0  0
    3.3870   69.4790   66.7190 N   0  0  0  0  0  0  0  0  0  0  0  0
    1.2550   68.6220   66.3840 N   0  0  0  0  0  0  0  0  0  0  0  0
    4.4650   69.9710   67.5070 C   0  0  0  0  0  0  0  0  0  0  0  0
    4.3490   70.2560   68.8710 C   0  0  0  0  0  0  0  0  0  0  0  0
    5.4560   70.7110   69.5900 C   0  0  0  0  0  0  0  0  0  0  0  0
    6.6860   70.8670   68.9540 C   0  0  0  0  0  0  0  0  0  0  0  0
    6.8160   70.5530   67.6040 C   0  0  0  0  0  0  0  0  0  0  0  0
    5.7090   70.0950   66.8850 C   0  0  0  0  0  0  0  0  0  0  0  0
   -0.0260   68.1640   66.8020 C   0  0  0  0  0  0  0  0  0  0  0  0
   -1.1380   68.6780   66.1320 C   0  0  0  0  0  0  0  0  0  0  0  0
   -2.4250   68.2590   66.4770 C   0  0  0  0  0  0  0  0  0  0  0  0
   -2.6020   67.3080   67.4790 C   0  0  0  0  0  0  0  0  0  0  0  0
   -1.4950   66.7660   68.1260 C   0  0  0  0  0  0  0  0  0  0  0  0
   -0.2070   67.1870   67.7840 C   0  0  0  0  0  0  0  0  0  0  0  0
    0.6076   70.2104   68.3057 H   0  0  0  0  0  0  0  0  0  0  0  0
    2.2289   70.9271   68.5074 H   0  0  0  0  0  0  0  0  0  0  0  0
    3.6196   69.1196   65.7822 H   0  0  0  0  0  0  0  0  0  0  0  0
    1.5861   68.3038   65.4620 H   0  0  0  0  0  0  0  0  0  0  0  0
    3.3827   70.1213   69.3791 H   0  0  0  0  0  0  0  0  0  0  0  0
    5.3570   70.9466   70.6599 H   0  0  0  0  0  0  0  0  0  0  0  0
    7.5541   71.2382   69.5185 H   0  0  0  0  0  0  0  0  0  0  0  0
    7.7893   70.6654   67.1039 H   0  0  0  0  0  0  0  0  0  0  0  0
    5.8181   69.8306   65.8228 H   0  0  0  0  0  0  0  0  0  0  0  0
   -0.9998   69.4165   65.3286 H   0  0  0  0  0  0  0  0  0  0  0  0
   -3.2984   68.6800   65.9575 H   0  0  0  0  0  0  0  0  0  0  0  0
   -3.6157   66.9854   67.7589 H   0  0  0  0  0  0  0  0  0  0  0  0
   -1.6343   66.0049   68.9079 H   0  0  0  0  0  0  0  0  0  0  0  0
    0.6661   66.7482   68.2891 H   0  0  0  0  0  0  0  0  0  0  0  0
  2  1  2  3
  3  2  1  0
  4  2  1  0
  5  3  1  0
  6  5  2  0
  7  6  1  0
  8  7  2  0
  9  8  1  0
 10  5  1  0
 10  9  2  0
 11  4  1  0
 12 11  2  0
 13 12  1  0
 14 13  2  0
 15 14  1  0
 16 15  2  0
 16 11  1  0
  1 17  1  0
  1 18  1  0
  3 19  1  0
  4 20  1  0
  6 21  1  0
  7 22  1  0
  8 23  1  0
  9 24  1  0
 10 25  1  0
 12 26  1  0
 13 27  1  0
 14 28  1  0
 15 29  1  0
 16 30  1  0
M  CHG  1   1   1
M  END
>  <score>  (1) 
-8.973

$$$$
=
     RDKit          3D

 30 31  0  0  0  0  0  0  0  0999 V2000
    1.8090   68.6000   68.3120 N   0  0  0  0  0  4  0  0  0  0  0  0
    2.0370   68.6280   66.9860 C   0  0  0  0  0  0  0  0  0  0  0  0
    1.0950   68.2070   66.1050 N   0  0  0  0  0  0  0  0  0  0  0  0
    3.2520   68.9760   66.4920 N   0  0  0  0  0  0  0  0  0  0  0  0
   -0.3060   68.1370   66.3440 C   0  0  0  0  0  0  0  0  0  0  0  0
   -1.2390   68.9300   65.6700 C   0  0  0  0  0  0  0  0  0  0  0  0
   -2.6030   68.7890   65.9370 C   0  0  0  0  0  0  0  0  0  0  0  0
   -3.0400   67.8460   66.8640 C   0  0  0  0  0  0  0  0  0  0  0  0
   -2.1170   67.0300   67.5140 C   0  0  0  0  0  0  0  0  0  0  0  0
   -0.7530   67.1690   67.2460 C   0  0  0  0  0  0  0  0  0  0  0  0
    4.2380   69.7550   67.1600 C   0  0  0  0  0  0  0  0  0  0  0  0
    5.4690   69.9150   66.5200 C   0  0  0  0  0  0  0  0  0  0  0  0
    6.4760   70.6830   67.1080 C   0  0  0  0  0  0  0  0  0  0  0  0
    6.2470   71.3120   68.3300 C   0  0  0  0  0  0  0  0  0  0  0  0
    5.0100   71.1850   68.9560 C   0  0  0  0  0  0  0  0  0  0  0  0
    4.0030   70.4150   68.3690 C   0  0  0  0  0  0  0  0  0  0  0  0
    2.5356   68.9235   68.9664 H   0  0  0  0  0  0  0  0  0  0  0  0
    0.9079   68.2550   68.6724 H   0  0  0  0  0  0  0  0  0  0  0  0
    1.4251   67.9101   65.1756 H   0  0  0  0  0  0  0  0  0  0  0  0
    3.4823   68.6451   65.5442 H   0  0  0  0  0  0  0  0  0  0  0  0
   -0.8985   69.6668   64.9276 H   0  0  0  0  0  0  0  0  0  0  0  0
   -3.3332   69.4240   65.4140 H   0  0  0  0  0  0  0  0  0  0  0  0
   -4.1133   67.7456   67.0827 H   0  0  0  0  0  0  0  0  0  0  0  0
   -2.4618   66.2768   68.2377 H   0  0  0  0  0  0  0  0  0  0  0  0
   -0.0272   66.5125   67.7481 H   0  0  0  0  0  0  0  0  0  0  0  0
    5.6462   69.4332   65.5471 H   0  0  0  0  0  0  0  0  0  0  0  0
    7.4492   70.7914   66.6069 H   0  0  0  0  0  0  0  0  0  0  0  0
    7.0430   71.9085   68.7998 H   0  0  0  0  0  0  0  0  0  0  0  0
    4.8252   71.6919   69.9146 H   0  0  0  0  0  0  0  0  0  0  0  0
    3.0224   70.3280   68.8599 H   0  0  0  0  0  0  0  0  0  0  0  0
  2  1  2  3
  3  2  1  0
  4  2  1  0
  5  3  1  0
  6  5  2  0
  7  6  1  0
  8  7  2  0
  9  8  1  0
 10  5  1  0
 10  9  2  0
 11  4  1  0
 12 11  2  0
 13 12  1  0
 14 13  2  0
 15 14  1  0
 16 15  2  0
 16 11  1  0
  1 17  1  0
  1 18  1  0
  3 19  1  0
  4 20  1  0
  6 21  1  0
  7 22  1  0
  8 23  1  0
  9 24  1  0
 10 25  1  0
 12 26  1  0
 13 27  1  0
 14 28  1  0
 15 29  1  0
 16 30  1  0
M  CHG  1   1   1
M  END
>  <score>  (2) 
-8.576

$$$$
=
     RDKit          3D

 30 31  0  0  0  0  0  0  0  0999 V2000
    1.9970   66.7640   65.5100 N   0  0  0  0  0  4  0  0  0  0  0  0
    1.5750   68.0300   65.6780 C   0  0  0  0  0  0  0  0  0  0  0  0
    0.7060   68.3530   66.6690 N   0  0  0  0  0  0  0  0  0  0  0  0
    1.9210   69.0060   64.8000 N   0  0  0  0  0  0  0  0  0  0  0  0
    0.4890   67.6170   67.8670 C   0  0  0  0  0  0  0  0  0  0  0  0
   -0.6780   66.8900   68.1190 C   0  0  0  0  0  0  0  0  0  0  0  0
   -0.8130   66.1680   69.3070 C   0  0  0  0  0  0  0  0  0  0  0  0
    0.2230   66.1550   70.2380 C   0  0  0  0  0  0  0  0  0  0  0  0
    1.4020   66.8500   69.9780 C   0  0  0  0  0  0  0  0  0  0  0  0
    1.5370   67.5700   68.7880 C   0  0  0  0  0  0  0  0  0  0  0  0
    3.0480   68.9920   63.9320 C   0  0  0  0  0  0  0  0  0  0  0  0
    4.2870   69.3250   64.4850 C   0  0  0  0  0  0  0  0  0  0  0  0
    5.4380   69.3140   63.6950 C   0  0  0  0  0  0  0  0  0  0  0  0
    5.3590   68.9470   62.3540 C   0  0  0  0  0  0  0  0  0  0  0  0
    4.1320   68.5800   61.8060 C   0  0  0  0  0  0  0  0  0  0  0  0
    2.9790   68.5940   62.5940 C   0  0  0  0  0  0  0  0  0  0  0  0
    2.6568   66.5374   64.7523 H   0  0  0  0  0  0  0  0  0  0  0  0
    1.6603   66.0212   66.1391 H   0  0  0  0  0  0  0  0  0  0  0  0
    0.1515   69.2116   66.5419 H   0  0  0  0  0  0  0  0  0  0  0  0
    1.3102   69.8343   64.7584 H   0  0  0  0  0  0  0  0  0  0  0  0
   -1.4924   66.8865   67.3796 H   0  0  0  0  0  0  0  0  0  0  0  0
   -1.7388   65.6089   69.5077 H   0  0  0  0  0  0  0  0  0  0  0  0
    0.1102   65.5959   71.1786 H   0  0  0  0  0  0  0  0  0  0  0  0
    2.2248   66.8321   70.7078 H   0  0  0  0  0  0  0  0  0  0  0  0
    2.4753   68.1033   68.5756 H   0  0  0  0  0  0  0  0  0  0  0  0
    4.3560   69.5973   65.5485 H   0  0  0  0  0  0  0  0  0  0  0  0
    6.4075   69.5953   64.1319 H   0  0  0  0  0  0  0  0  0  0  0  0
    6.2639   68.9469   61.7286 H   0  0  0  0  0  0  0  0  0  0  0  0
    4.0711   68.2784   60.7499 H   0  0  0  0  0  0  0  0  0  0  0  0
    2.0144   68.2911   62.1606 H   0  0  0  0  0  0  0  0  0  0  0  0
  2  1  2  3
  3  2  1  0
  4  2  1  0
  5  3  1  0
  6  5  2  0
  7  6  1  0
  8  7  2  0
  9  8  1  0
 10  5  1  0
 10  9  2  0
 11  4  1  0
 12 11  2  0
 13 12  1  0
 14 13  2  0
 15 14  1  0
 16 15  2  0
 16 11  1  0
  1 17  1  0
  1 18  1  0
  3 19  1  0
  4 20  1  0
  6 21  1  0
  7 22  1  0
  8 23  1  0
  9 24  1  0
 10 25  1  0
 12 26  1  0
 13 27  1  0
 14 28  1  0
 15 29  1  0
 16 30  1  0
M  CHG  1   1   1
M  END
>  <score>  (3) 
-8.069

$$$$
=
     RDKit          3D

 30 31  0  0  0  0  0  0  0  0999 V2000
    1.4080   67.1710   64.9890 N   0  0  0  0  0  4  0  0  0  0  0  0
    1.6260   68.3060   65.6770 C   0  0  0  0  0  0  0  0  0  0  0  0
    2.7530   69.0370   65.4840 N   0  0  0  0  0  0  0  0  0  0  0  0
    0.7800   68.7010   66.6620 N   0  0  0  0  0  0  0  0  0  0  0  0
    3.5730   69.0220   64.3210 C   0  0  0  0  0  0  0  0  0  0  0  0
    3.0880   68.7220   63.0450 C   0  0  0  0  0  0  0  0  0  0  0  0
    3.9450   68.7510   61.9420 C   0  0  0  0  0  0  0  0  0  0  0  0
    5.2850   69.0970   62.1080 C   0  0  0  0  0  0  0  0  0  0  0  0
    5.7660   69.4290   63.3730 C   0  0  0  0  0  0  0  0  0  0  0  0
    4.9080   69.4020   64.4740 C   0  0  0  0  0  0  0  0  0  0  0  0
   -0.5820   68.3140   66.8030 C   0  0  0  0  0  0  0  0  0  0  0  0
   -1.5250   68.9990   66.0330 C   0  0  0  0  0  0  0  0  0  0  0  0
   -2.8770   68.6590   66.1070 C   0  0  0  0  0  0  0  0  0  0  0  0
   -3.2890   67.6170   66.9350 C   0  0  0  0  0  0  0  0  0  0  0  0
   -2.3490   66.9080   67.6780 C   0  0  0  0  0  0  0  0  0  0  0  0
   -0.9960   67.2490   67.6070 C   0  0  0  0  0  0  0  0  0  0  0  0
    0.5467   66.6292   65.1488 H   0  0  0  0  0  0  0  0  0  0  0  0
    2.1024   66.8436   64.3023 H   0  0  0  0  0  0  0  0  0  0  0  0
    3.0418   69.6609   66.2509 H   0  0  0  0  0  0  0  0  0  0  0  0
    1.1595   69.3410   67.3743 H   0  0  0  0  0  0  0  0  0  0  0  0
    2.0279   68.4622   62.9087 H   0  0  0  0  0  0  0  0  0  0  0  0
    3.5619   68.5006   60.9417 H   0  0  0  0  0  0  0  0  0  0  0  0
    5.9622   69.1080   61.2412 H   0  0  0  0  0  0  0  0  0  0  0  0
    6.8208   69.7121   63.5040 H   0  0  0  0  0  0  0  0  0  0  0  0
    5.2860   69.6819   65.4684 H   0  0  0  0  0  0  0  0  0  0  0  0
   -1.2006   69.8105   65.3649 H   0  0  0  0  0  0  0  0  0  0  0  0
   -3.6170   69.2138   65.5116 H   0  0  0  0  0  0  0  0  0  0  0  0
   -4.3552   67.3549   67.0016 H   0  0  0  0  0  0  0  0  0  0  0  0
   -2.6724   66.0773   68.3225 H   0  0  0  0  0  0  0  0  0  0  0  0
   -0.2550   66.6777   68.1854 H   0  0  0  0  0  0  0  0  0  0  0  0
  2  1  2  3
  3  2  1  0
  4  2  1  0
  5  3  1  0
  6  5  2  0
  7  6  1  0
  8  7  2  0
  9  8  1  0
 10  5  1  0
 10  9  2  0
 11  4  1  0
 12 11  2  0
 13 12  1  0
 14 13  2  0
 15 14  1  0
 16 15  2  0
 16 11  1  0
  1 17  1  0
  1 18  1  0
  3 19  1  0
  4 20  1  0
  6 21  1  0
  7 22  1  0
  8 23  1  0
  9 24  1  0
 10 25  1  0
 12 26  1  0
 13 27  1  0
 14 28  1  0
 15 29  1  0
 16 30  1  0
M  CHG  1   1   1
M  END
>  <score>  (4) 
-7.815

$$$$
=
     RDKit          3D

 30 31  0  0  0  0  0  0  0  0999 V2000
   -0.3240   66.4910   68.0610 N   0  0  0  0  0  4  0  0  0  0  0  0
    0.6620   67.2690   68.5430 C   0  0  0  0  0  0  0  0  0  0  0  0
    1.1920   67.0480   69.7720 N   0  0  0  0  0  0  0  0  0  0  0  0
    1.0860   68.3640   67.8610 N   0  0  0  0  0  0  0  0  0  0  0  0
    1.1650   65.8190   70.4890 C   0  0  0  0  0  0  0  0  0  0  0  0
    0.1530   65.4810   71.3920 C   0  0  0  0  0  0  0  0  0  0  0  0
    0.1750   64.2440   72.0410 C   0  0  0  0  0  0  0  0  0  0  0  0
    1.1980   63.3350   71.7770 C   0  0  0  0  0  0  0  0  0  0  0  0
    2.1900   63.6530   70.8530 C   0  0  0  0  0  0  0  0  0  0  0  0
    2.1660   64.8890   70.2020 C   0  0  0  0  0  0  0  0  0  0  0  0
    0.9410   68.5910   66.4640 C   0  0  0  0  0  0  0  0  0  0  0  0
    2.1050   68.5810   65.6910 C   0  0  0  0  0  0  0  0  0  0  0  0
    2.0350   68.7780   64.3100 C   0  0  0  0  0  0  0  0  0  0  0  0
    0.8000   68.9620   63.6940 C   0  0  0  0  0  0  0  0  0  0  0  0
   -0.3660   68.9370   64.4550 C   0  0  0  0  0  0  0  0  0  0  0  0
   -0.2980   68.7440   65.8370 C   0  0  0  0  0  0  0  0  0  0  0  0
   -0.7139   66.6743   67.1254 H   0  0  0  0  0  0  0  0  0  0  0  0
   -0.6890   65.7121   68.6275 H   0  0  0  0  0  0  0  0  0  0  0  0
    1.6578   67.8447   70.2293 H   0  0  0  0  0  0  0  0  0  0  0  0
    1.5571   69.0997   68.4066 H   0  0  0  0  0  0  0  0  0  0  0  0
   -0.6630   66.1910   71.5922 H   0  0  0  0  0  0  0  0  0  0  0  0
   -0.6159   63.9872   72.7611 H   0  0  0  0  0  0  0  0  0  0  0  0
    1.2217   62.3667   72.2984 H   0  0  0  0  0  0  0  0  0  0  0  0
    2.9917   62.9318   70.6358 H   0  0  0  0  0  0  0  0  0  0  0  0
    2.9403   65.1308   69.4590 H   0  0  0  0  0  0  0  0  0  0  0  0
    3.0806   68.4173   66.1721 H   0  0  0  0  0  0  0  0  0  0  0  0
    2.9561   68.7878   63.7087 H   0  0  0  0  0  0  0  0  0  0  0  0
    0.7454   69.1269   62.6078 H   0  0  0  0  0  0  0  0  0  0  0  0
   -1.3428   69.0695   63.9669 H   0  0  0  0  0  0  0  0  0  0  0  0
   -1.2221   68.7124   66.4328 H   0  0  0  0  0  0  0  0  0  0  0  0
  2  1  2  3
  3  2  1  0
  4  2  1  0
  5  3  1  0
  6  5  2  0
  7  6  1  0
  8  7  2  0
  9  8  1  0
 10  5  1  0
 10  9  2  0
 11  4  1  0
 12 11  2  0
 13 12  1  0
 14 13  2  0
 15 14  1  0
 16 15  2  0
 16 11  1  0
  1 17  1  0
  1 18  1  0
  3 19  1  0
  4 20  1  0
  6 21  1  0
  7 22  1  0
  8 23  1  0
  9 24  1  0
 10 25  1  0
 12 26  1  0
 13 27  1  0
 14 28  1  0
 15 29  1  0
 16 30  1  0
M  CHG  1   1   1
M  END
>  <score>  (5) 
-7.697

$$$$
=
     RDKit          3D

 30 31  0  0  0  0  0  0  0  0999 V2000
    0.0800   64.3620   69.9100 N   0  0  0  0  0  4  0  0  0  0  0  0
    1.2240   65.0640   70.0080 C   0  0  0  0  0  0  0  0  0  0  0  0
    2.3350   64.5200   70.5650 N   0  0  0  0  0  0  0  0  0  0  0  0
    1.2750   66.3720   69.6500 N   0  0  0  0  0  0  0  0  0  0  0  0
    2.6200   63.1310   70.6830 C   0  0  0  0  0  0  0  0  0  0  0  0
    2.3670   62.3920   71.8420 C   0  0  0  0  0  0  0  0  0  0  0  0
    2.6470   61.0240   71.8790 C   0  0  0  0  0  0  0  0  0  0  0  0
    3.1630   60.3860   70.7520 C   0  0  0  0  0  0  0  0  0  0  0  0
    3.3860   61.1110   69.5840 C   0  0  0  0  0  0  0  0  0  0  0  0
    3.1040   62.4780   69.5470 C   0  0  0  0  0  0  0  0  0  0  0  0
    0.3860   67.0330   68.7560 C   0  0  0  0  0  0  0  0  0  0  0  0
    0.8950   68.1140   68.0320 C   0  0  0  0  0  0  0  0  0  0  0  0
    0.0850   68.7970   67.1230 C   0  0  0  0  0  0  0  0  0  0  0  0
   -1.2310   68.3870   66.9170 C   0  0  0  0  0  0  0  0  0  0  0  0
   -1.7320   67.2880   67.6110 C   0  0  0  0  0  0  0  0  0  0  0  0
   -0.9230   66.6060   68.5230 C   0  0  0  0  0  0  0  0  0  0  0  0
   -0.7533   64.7921   69.4839 H   0  0  0  0  0  0  0  0  0  0  0  0
    0.0377   63.3946   70.2611 H   0  0  0  0  0  0  0  0  0  0  0  0
    3.0383   65.1739   70.9375 H   0  0  0  0  0  0  0  0  0  0  0  0
    2.0278   66.9400   70.0641 H   0  0  0  0  0  0  0  0  0  0  0  0
    1.9459   62.8894   72.7282 H   0  0  0  0  0  0  0  0  0  0  0  0
    2.4602   60.4496   72.7983 H   0  0  0  0  0  0  0  0  0  0  0  0
    3.3938   59.3110   70.7852 H   0  0  0  0  0  0  0  0  0  0  0  0
    3.7841   60.6069   68.6910 H   0  0  0  0  0  0  0  0  0  0  0  0
    3.2640   63.0442   68.6176 H   0  0  0  0  0  0  0  0  0  0  0  0
    1.9388   68.4284   68.1789 H   0  0  0  0  0  0  0  0  0  0  0  0
    0.4855   69.6589   66.5692 H   0  0  0  0  0  0  0  0  0  0  0  0
   -1.8728   68.9302   66.2078 H   0  0  0  0  0  0  0  0  0  0  0  0
   -2.7669   66.9565   67.4405 H   0  0  0  0  0  0  0  0  0  0  0  0
   -1.3181   65.7304   69.0590 H   0  0  0  0  0  0  0  0  0  0  0  0
  2  1  2  3
  3  2  1  0
  4  2  1  0
  5  3  1  0
  6  5  2  0
  7  6  1  0
  8  7  2  0
  9  8  1  0
 10  5  1  0
 10  9  2  0
 11  4  1  0
 12 11  2  0
 13 12  1  0
 14 13  2  0
 15 14  1  0
 16 15  2  0
 16 11  1  0
  1 17  1  0
  1 18  1  0
  3 19  1  0
  4 20  1  0
  6 21  1  0
  7 22  1  0
  8 23  1  0
  9 24  1  0
 10 25  1  0
 12 26  1  0
 13 27  1  0
 14 28  1  0
 15 29  1  0
 16 30  1  0
M  CHG  1   1   1
M  END
>  <score>  (6) 
-7.427

$$$$
=
     RDKit          3D

 30 31  0  0  0  0  0  0  0  0999 V2000
    2.4500   60.1090   73.2990 N   0  0  0  0  0  4  0  0  0  0  0  0
    3.1610   59.1680   72.6510 C   0  0  0  0  0  0  0  0  0  0  0  0
    3.0580   57.8580   72.9880 N   0  0  0  0  0  0  0  0  0  0  0  0
    4.0810   59.5080   71.7140 N   0  0  0  0  0  0  0  0  0  0  0  0
    1.9610   57.2470   73.6570 C   0  0  0  0  0  0  0  0  0  0  0  0
    0.7650   56.9100   73.0170 C   0  0  0  0  0  0  0  0  0  0  0  0
   -0.2630   56.2880   73.7310 C   0  0  0  0  0  0  0  0  0  0  0  0
   -0.0920   55.9850   75.0810 C   0  0  0  0  0  0  0  0  0  0  0  0
    1.1110   56.2890   75.7150 C   0  0  0  0  0  0  0  0  0  0  0  0
    2.1380   56.9090   75.0000 C   0  0  0  0  0  0  0  0  0  0  0  0
    4.1160   60.7230   70.9730 C   0  0  0  0  0  0  0  0  0  0  0  0
    3.2760   60.8190   69.8620 C   0  0  0  0  0  0  0  0  0  0  0  0
    3.2450   61.9890   69.1000 C   0  0  0  0  0  0  0  0  0  0  0  0
    4.0370   63.0760   69.4620 C   0  0  0  0  0  0  0  0  0  0  0  0
    4.8500   62.9980   70.5890 C   0  0  0  0  0  0  0  0  0  0  0  0
    4.8850   61.8270   71.3500 C   0  0  0  0  0  0  0  0  0  0  0  0
    2.5405   61.0991   73.0300 H   0  0  0  0  0  0  0  0  0  0  0  0
    1.8153   59.8391   74.0640 H   0  0  0  0  0  0  0  0  0  0  0  0
    3.8487   57.2480   72.7357 H   0  0  0  0  0  0  0  0  0  0  0  0
    4.8246   58.8222   71.5203 H   0  0  0  0  0  0  0  0  0  0  0  0
    0.6324   57.1349   71.9484 H   0  0  0  0  0  0  0  0  0  0  0  0
   -1.2081   56.0372   73.2271 H   0  0  0  0  0  0  0  0  0  0  0  0
   -0.9060   55.5064   75.6452 H   0  0  0  0  0  0  0  0  0  0  0  0
    1.2516   56.0409   76.7774 H   0  0  0  0  0  0  0  0  0  0  0  0
    3.0928   57.1326   75.4983 H   0  0  0  0  0  0  0  0  0  0  0  0
    2.6353   59.9687   69.5854 H   0  0  0  0  0  0  0  0  0  0  0  0
    2.5955   62.0520   68.2145 H   0  0  0  0  0  0  0  0  0  0  0  0
    4.0200   63.9951   68.8579 H   0  0  0  0  0  0  0  0  0  0  0  0
    5.4666   63.8607   70.8813 H   0  0  0  0  0  0  0  0  0  0  0  0
    5.5189   61.7740   72.2474 H   0  0  0  0  0  0  0  0  0  0  0  0
  2  1  2  3
  3  2  1  0
  4  2  1  0
  5  3  1  0
  6  5  2  0
  7  6  1  0
  8  7  2  0
  9  8  1  0
 10  5  1  0
 10  9  2  0
 11  4  1  0
 12 11  2  0
 13 12  1  0
 14 13  2  0
 15 14  1  0
 16 15  2  0
 16 11  1  0
  1 17  1  0
  1 18  1  0
  3 19  1  0
  4 20  1  0
  6 21  1  0
  7 22  1  0
  8 23  1  0
  9 24  1  0
 10 25  1  0
 12 26  1  0
 13 27  1  0
 14 28  1  0
 15 29  1  0
 16 30  1  0
M  CHG  1   1   1
M  END
>  <score>  (7) 
-7.246

$$$$
=
     RDKit          3D

 30 31  0  0  0  0  0  0  0  0999 V2000
    2.2530   60.2780   73.2750 N   0  0  0  0  0  4  0  0  0  0  0  0
    3.1460   59.3870   72.8070 C   0  0  0  0  0  0  0  0  0  0  0  0
    3.1660   58.1090   73.2630 N   0  0  0  0  0  0  0  0  0  0  0  0
    4.1240   59.7640   71.9450 N   0  0  0  0  0  0  0  0  0  0  0  0
    2.0790   57.4180   73.8680 C   0  0  0  0  0  0  0  0  0  0  0  0
    1.9530   57.2490   75.2500 C   0  0  0  0  0  0  0  0  0  0  0  0
    0.8450   56.5820   75.7780 C   0  0  0  0  0  0  0  0  0  0  0  0
   -0.1480   56.0970   74.9290 C   0  0  0  0  0  0  0  0  0  0  0  0
   -0.0440   56.2920   73.5540 C   0  0  0  0  0  0  0  0  0  0  0  0
    1.0630   56.9610   73.0260 C   0  0  0  0  0  0  0  0  0  0  0  0
    4.0990   60.9040   71.0930 C   0  0  0  0  0  0  0  0  0  0  0  0
    4.9080   61.9850   71.4470 C   0  0  0  0  0  0  0  0  0  0  0  0
    4.9470   63.1290   70.6470 C   0  0  0  0  0  0  0  0  0  0  0  0
    4.1940   63.1860   69.4770 C   0  0  0  0  0  0  0  0  0  0  0  0
    3.4120   62.0970   69.1010 C   0  0  0  0  0  0  0  0  0  0  0  0
    3.3700   60.9530   69.9020 C   0  0  0  0  0  0  0  0  0  0  0  0
    2.2530   61.2438   72.9169 H   0  0  0  0  0  0  0  0  0  0  0  0
    1.5694   59.9943   73.9913 H   0  0  0  0  0  0  0  0  0  0  0  0
    4.0504   57.5908   73.1618 H   0  0  0  0  0  0  0  0  0  0  0  0
    4.9637   59.1690   71.9033 H   0  0  0  0  0  0  0  0  0  0  0  0
    2.7286   57.6424   75.9236 H   0  0  0  0  0  0  0  0  0  0  0  0
    0.7562   56.4394   76.8651 H   0  0  0  0  0  0  0  0  0  0  0  0
   -1.0136   55.5604   75.3447 H   0  0  0  0  0  0  0  0  0  0  0  0
   -0.8330   55.9195   72.8841 H   0  0  0  0  0  0  0  0  0  0  0  0
    1.1347   57.1287   71.9412 H   0  0  0  0  0  0  0  0  0  0  0  0
    5.5181   61.9355   72.3610 H   0  0  0  0  0  0  0  0  0  0  0  0
    5.5724   63.9848   70.9410 H   0  0  0  0  0  0  0  0  0  0  0  0
    4.2169   64.0900   68.8507 H   0  0  0  0  0  0  0  0  0  0  0  0
    2.8259   62.1375   68.1711 H   0  0  0  0  0  0  0  0  0  0  0  0
    2.7620   60.0894   69.5945 H   0  0  0  0  0  0  0  0  0  0  0  0
  2  1  2  3
  3  2  1  0
  4  2  1  0
  5  3  1  0
  6  5  2  0
  7  6  1  0
  8  7  2  0
  9  8  1  0
 10  5  1  0
 10  9  2  0
 11  4  1  0
 12 11  2  0
 13 12  1  0
 14 13  2  0
 15 14  1  0
 16 15  2  0
 16 11  1  0
  1 17  1  0
  1 18  1  0
  3 19  1  0
  4 20  1  0
  6 21  1  0
  7 22  1  0
  8 23  1  0
  9 24  1  0
 10 25  1  0
 12 26  1  0
 13 27  1  0
 14 28  1  0
 15 29  1  0
 16 30  1  0
M  CHG  1   1   1
M  END
>  <score>  (8) 
-7.216

$$$$
=
     RDKit          3D

 30 31  0  0  0  0  0  0  0  0999 V2000
    2.9940   57.9790   71.7900 N   0  0  0  0  0  4  0  0  0  0  0  0
    3.0810   58.4090   73.0620 C   0  0  0  0  0  0  0  0  0  0  0  0
    3.6750   59.5920   73.3630 N   0  0  0  0  0  0  0  0  0  0  0  0
    2.6740   57.6270   74.0940 N   0  0  0  0  0  0  0  0  0  0  0  0
    3.8490   60.6910   72.4770 C   0  0  0  0  0  0  0  0  0  0  0  0
    2.8320   61.6020   72.1770 C   0  0  0  0  0  0  0  0  0  0  0  0
    3.0820   62.6750   71.3170 C   0  0  0  0  0  0  0  0  0  0  0  0
    4.3510   62.8510   70.7700 C   0  0  0  0  0  0  0  0  0  0  0  0
    5.3770   61.9660   71.0920 C   0  0  0  0  0  0  0  0  0  0  0  0
    5.1280   60.8940   71.9530 C   0  0  0  0  0  0  0  0  0  0  0  0
    1.7430   56.5540   74.0180 C   0  0  0  0  0  0  0  0  0  0  0  0
    2.2100   55.2780   74.3400 C   0  0  0  0  0  0  0  0  0  0  0  0
    1.3470   54.1810   74.3050 C   0  0  0  0  0  0  0  0  0  0  0  0
    0.0070   54.3610   73.9700 C   0  0  0  0  0  0  0  0  0  0  0  0
   -0.4730   55.6360   73.6840 C   0  0  0  0  0  0  0  0  0  0  0  0
    0.3910   56.7340   73.7150 C   0  0  0  0  0  0  0  0  0  0  0  0
    2.5397   57.0786   71.5807 H   0  0  0  0  0  0  0  0  0  0  0  0
    3.3817   58.5502   71.0256 H   0  0  0  0  0  0  0  0  0  0  0  0
    4.0330   59.7042   74.3222 H   0  0  0  0  0  0  0  0  0  0  0  0
    3.0774   57.8296   75.0198 H   0  0  0  0  0  0  0  0  0  0  0  0
    1.8328   61.4741   72.6188 H   0  0  0  0  0  0  0  0  0  0  0  0
    2.2754   63.3816   71.0717 H   0  0  0  0  0  0  0  0  0  0  0  0
    4.5427   63.6890   70.0837 H   0  0  0  0  0  0  0  0  0  0  0  0
    6.3821   62.1107   70.6691 H   0  0  0  0  0  0  0  0  0  0  0  0
    5.9438   60.2060   72.2197 H   0  0  0  0  0  0  0  0  0  0  0  0
    3.2636   55.1363   74.6228 H   0  0  0  0  0  0  0  0  0  0  0  0
    1.7250   53.1755   74.5418 H   0  0  0  0  0  0  0  0  0  0  0  0
   -0.6716   53.4961   73.9315 H   0  0  0  0  0  0  0  0  0  0  0  0
   -1.5344   55.7795   73.4331 H   0  0  0  0  0  0  0  0  0  0  0  0
    0.0059   57.7418   73.5005 H   0  0  0  0  0  0  0  0  0  0  0  0
  2  1  2  3
  3  2  1  0
  4  2  1  0
  5  3  1  0
  6  5  2  0
  7  6  1  0
  8  7  2  0
  9  8  1  0
 10  5  1  0
 10  9  2  0
 11  4  1  0
 12 11  2  0
 13 12  1  0
 14 13  2  0
 15 14  1  0
 16 15  2  0
 16 11  1  0
  1 17  1  0
  1 18  1  0
  3 19  1  0
  4 20  1  0
  6 21  1  0
  7 22  1  0
  8 23  1  0
  9 24  1  0
 10 25  1  0
 12 26  1  0
 13 27  1  0
 14 28  1  0
 15 29  1  0
 16 30  1  0
M  CHG  1   1   1
M  END
>  <score>  (9) 
-7.021

$$$$
