=
     RDKit          3D

 73 75  0  0  0  0  0  0  0  0999 V2000
    0.6390   60.2170   72.8710 C   0  0  2  0  0  0  0  0  0  0  0  0
   -0.2540   61.4180   73.3050 C   0  0  2  0  0  0  0  0  0  0  0  0
   -1.7300   61.0060   73.4590 C   0  0  0  0  0  0  0  0  0  0  0  0
   -1.8670   59.8580   74.4670 C   0  0  2  0  0  0  0  0  0  0  0  0
   -1.0150   58.6130   74.0630 C   0  0  1  0  0  0  0  0  0  0  0  0
    0.4770   59.0630   73.9190 C   0  0  1  0  0  0  0  0  0  0  0  0
   -0.1410   62.5430   72.3210 N   0  0  0  0  0  4  0  0  0  0  0  0
   -3.3040   59.4760   74.6500 N   0  0  0  0  0  4  0  0  0  0  0  0
    1.3510   57.9850   73.5470 O   0  0  0  0  0  0  0  0  0  0  0  0
    2.0230   60.6590   72.7980 O   0  0  0  0  0  0  0  0  0  0  0  0
    3.8390   62.2570   70.5080 C   0  0  0  0  0  0  0  0  0  0  0  0
    4.9580   62.0040   71.2100 C   0  0  0  0  0  0  0  0  0  0  0  0
    5.0870   60.8520   72.1570 C   0  0  0  0  0  0  0  0  0  0  0  0
    4.1100   59.7470   71.7710 C   0  0  2  0  0  0  0  0  0  0  0  0
    2.6860   60.3410   71.5400 C   0  0  2  0  0  0  0  0  0  0  0  0
    2.6780   61.5000   70.6700 O   0  0  0  0  0  0  0  0  0  0  0  0
    4.1220   58.6730   72.8120 N   0  0  0  0  0  4  0  0  0  0  0  0
    3.7130   63.3620   69.4520 C   0  0  0  0  0  0  0  0  0  0  0  0
    3.5990   62.9350   68.0370 N   0  0  0  0  0  4  0  0  0  0  0  0
   -1.2030   57.6640   75.1230 O   0  0  0  0  0  0  0  0  0  0  0  0
   -0.8990   56.2830   74.8430 C   0  0  1  0  0  0  0  0  0  0  0  0
    0.1610   55.8650   75.6930 O   0  0  0  0  0  0  0  0  0  0  0  0
    0.6110   54.5180   75.4030 C   0  0  0  0  0  0  0  0  0  0  0  0
   -0.5260   53.5150   75.0580 C   0  0  2  0  0  0  0  0  0  0  0  0
   -1.8310   54.0260   75.7080 C   0  0  1  0  0  0  0  0  0  0  0  0
   -2.1710   55.4200   75.1040 C   0  0  1  0  0  0  0  0  0  0  0  0
   -0.1190   52.0970   75.4500 C   0  0  0  0  0  0  0  0  0  0  0  0
   -3.0220   53.1120   75.4430 N   0  0  0  0  0  4  0  0  0  0  0  0
   -3.7230   52.5400   76.6340 C   0  0  0  0  0  0  0  0  0  0  0  0
   -3.1320   56.0780   75.9430 O   0  0  0  0  0  0  0  0  0  0  0  0
   -0.7480   53.5460   73.6350 O   0  0  0  0  0  0  0  0  0  0  0  0
    0.3357   59.8439   71.8816 H   0  0  0  0  0  0  0  0  0  0  0  0
    0.1102   61.7561   74.2864 H   0  0  0  0  0  0  0  0  0  0  0  0
   -2.3115   61.8698   73.8135 H   0  0  0  0  0  0  0  0  0  0  0  0
   -2.1079   60.6681   72.4828 H   0  0  0  0  0  0  0  0  0  0  0  0
   -1.4748   60.2253   75.4268 H   0  0  0  0  0  0  0  0  0  0  0  0
   -1.3086   58.1639   73.1028 H   0  0  0  0  0  0  0  0  0  0  0  0
    0.7658   59.4233   74.9174 H   0  0  0  0  0  0  0  0  0  0  0  0
   -0.0514   63.4350   72.8281 H   0  0  0  0  0  0  0  0  0  0  0  0
    0.6898   62.3995   71.7293 H   0  0  0  0  0  0  0  0  0  0  0  0
   -0.9838   62.5676   71.7293 H   0  0  0  0  0  0  0  0  0  0  0  0
   -3.5187   59.4189   75.6558 H   0  0  0  0  0  0  0  0  0  0  0  0
   -3.9067   60.1860   74.2100 H   0  0  0  0  0  0  0  0  0  0  0  0
   -3.4746   58.5605   74.2100 H   0  0  0  0  0  0  0  0  0  0  0  0
    1.7039   57.5497   74.3631 H   0  0  0  0  0  0  0  0  0  0  0  0
    5.8196   62.6758   71.0821 H   0  0  0  0  0  0  0  0  0  0  0  0
    6.1142   60.4605   72.1164 H   0  0  0  0  0  0  0  0  0  0  0  0
    4.8585   61.1957   73.1766 H   0  0  0  0  0  0  0  0  0  0  0  0
    4.4228   59.2878   70.8216 H   0  0  0  0  0  0  0  0  0  0  0  0
    2.1226   59.5471   71.0279 H   0  0  0  0  0  0  0  0  0  0  0  0
    4.1172   59.1023   73.7483 H   0  0  0  0  0  0  0  0  0  0  0  0
    3.2876   58.0792   72.7023 H   0  0  0  0  0  0  0  0  0  0  0  0
    4.9695   58.0980   72.7023 H   0  0  0  0  0  0  0  0  0  0  0  0
    2.8156   63.9504   69.6937 H   0  0  0  0  0  0  0  0  0  0  0  0
    4.6616   63.9163   69.5061 H   0  0  0  0  0  0  0  0  0  0  0  0
    3.3335   61.9405   67.9988 H   0  0  0  0  0  0  0  0  0  0  0  0
    2.8796   63.5008   67.5645 H   0  0  0  0  0  0  0  0  0  0  0  0
    4.5047   63.0670   67.5645 H   0  0  0  0  0  0  0  0  0  0  0  0
   -0.5917   56.1622   73.7937 H   0  0  0  0  0  0  0  0  0  0  0  0
    1.2998   54.5635   74.5465 H   0  0  0  0  0  0  0  0  0  0  0  0
    1.0877   54.1445   76.3213 H   0  0  0  0  0  0  0  0  0  0  0  0
   -1.6598   54.0646   76.7939 H   0  0  0  0  0  0  0  0  0  0  0  0
   -2.6211   55.2763   74.1106 H   0  0  0  0  0  0  0  0  0  0  0  0
   -0.0947   52.0124   76.5465 H   0  0  0  0  0  0  0  0  0  0  0  0
   -0.8478   51.3806   75.0430 H   0  0  0  0  0  0  0  0  0  0  0  0
    0.8788   51.8762   75.0430 H   0  0  0  0  0  0  0  0  0  0  0  0
   -3.7146   53.6533   74.9062 H   0  0  0  0  0  0  0  0  0  0  0  0
   -2.6274   52.2978   74.9508 H   0  0  0  0  0  0  0  0  0  0  0  0
   -3.2550   52.9219   77.5533 H   0  0  0  0  0  0  0  0  0  0  0  0
   -4.7826   52.8346   76.6123 H   0  0  0  0  0  0  0  0  0  0  0  0
   -3.6470   51.4428   76.6123 H   0  0  0  0  0  0  0  0  0  0  0  0
   -2.9028   55.9211   76.8932 H   0  0  0  0  0  0  0  0  0  0  0  0
   -1.7120   53.6806   73.4543 H   0  0  0  0  0  0  0  0  0  0  0  0
  2  1  1  0
  3  2  1  0
  4  3  1  0
  5  4  1  0
  6  5  1  0
  6  1  1  0
  7  2  1  0
  8  4  1  0
  9  6  1  0
 10  1  1  0
 12 11  2  0
 13 12  1  0
 14 13  1  0
 15 14  1  0
 15 10  1  0
 16 11  1  0
 16 15  1  0
 17 14  1  0
 18 11  1  0
 19 18  1  0
 20  5  1  0
 21 20  1  0
 22 21  1  0
 23 22  1  0
 24 23  1  0
 25 24  1  0
 26 25  1  0
 26 21  1  0
 27 24  1  0
 28 25  1  0
 29 28  1  0
 30 26  1  0
 24 31  1  6
  1 32  1  6
  2 33  1  1
  3 34  1  0
  3 35  1  0
  4 36  1  1
  5 37  1  6
  6 38  1  1
  7 39  1  0
  7 40  1  0
  7 41  1  0
  8 42  1  0
  8 43  1  0
  8 44  1  0
  9 45  1  0
 12 46  1  0
 13 47  1  0
 13 48  1  0
 14 49  1  6
 15 50  1  6
 17 51  1  0
 17 52  1  0
 17 53  1  0
 18 54  1  0
 18 55  1  0
 19 56  1  0
 19 57  1  0
 19 58  1  0
 21 59  1  6
 23 60  1  0
 23 61  1  0
 25 62  1  1
 26 63  1  6
 27 64  1  0
 27 65  1  0
 27 66  1  0
 28 67  1  0
 28 68  1  0
 29 69  1  0
 29 70  1  0
 29 71  1  0
 30 72  1  0
 31 73  1  0
M  CHG  5   7   1   8   1  17   1  19   1  28   1
M  END
>  <score>  (1) 
-6.91

$$$$
=
     RDKit          3D

 73 75  0  0  0  0  0  0  0  0999 V2000
    2.5950   60.0130   73.3410 C   0  0  2  0  0  0  0  0  0  0  0  0
    2.8210   61.0180   74.5110 C   0  0  2  0  0  0  0  0  0  0  0  0
    2.1360   60.5490   75.8070 C   0  0  0  0  0  0  0  0  0  0  0  0
    2.6360   59.1550   76.2070 C   0  0  2  0  0  0  0  0  0  0  0  0
    2.4040   58.0990   75.0810 C   0  0  1  0  0  0  0  0  0  0  0  0
    3.1160   58.6020   73.7810 C   0  0  1  0  0  0  0  0  0  0  0  0
    2.3250   62.3820   74.1390 N   0  0  0  0  0  4  0  0  0  0  0  0
    2.0000   58.7070   77.4880 N   0  0  0  0  0  4  0  0  0  0  0  0
    2.9610   57.6960   72.6750 O   0  0  0  0  0  0  0  0  0  0  0  0
    3.3120   60.4850   72.1670 O   0  0  0  0  0  0  0  0  0  0  0  0
    2.8090   63.1030   70.1690 C   0  0  0  0  0  0  0  0  0  0  0  0
    3.7850   62.6730   69.3500 C   0  0  0  0  0  0  0  0  0  0  0  0
    4.1990   61.2370   69.2540 C   0  0  0  0  0  0  0  0  0  0  0  0
    3.0510   60.3320   69.6870 C   0  0  2  0  0  0  0  0  0  0  0  0
    2.4520   60.8270   71.0400 C   0  0  2  0  0  0  0  0  0  0  0  0
    2.1570   62.2460   71.0560 O   0  0  0  0  0  0  0  0  0  0  0  0
    3.5200   58.9130   69.7510 N   0  0  0  0  0  4  0  0  0  0  0  0
    2.2890   64.5460   70.2100 C   0  0  0  0  0  0  0  0  0  0  0  0
    0.8190   64.7360   70.1620 N   0  0  0  0  0  4  0  0  0  0  0  0
    2.9710   56.8790   75.5820 O   0  0  0  0  0  0  0  0  0  0  0  0
    2.0660   55.8930   76.1180 C   0  0  1  0  0  0  0  0  0  0  0  0
    0.7550   56.4420   76.1460 O   0  0  0  0  0  0  0  0  0  0  0  0
   -0.2060   55.5570   76.7750 C   0  0  0  0  0  0  0  0  0  0  0  0
   -0.0200   54.0510   76.4380 C   0  0  2  0  0  0  0  0  0  0  0  0
    0.7050   53.9500   75.0770 C   0  0  1  0  0  0  0  0  0  0  0  0
    2.1010   54.6260   75.2090 C   0  0  1  0  0  0  0  0  0  0  0  0
   -1.3590   53.3220   76.5140 C   0  0  0  0  0  0  0  0  0  0  0  0
    0.9370   52.5090   74.6350 N   0  0  0  0  0  4  0  0  0  0  0  0
   -0.1630   51.8440   73.8700 C   0  0  0  0  0  0  0  0  0  0  0  0
    2.6260   54.8890   73.9000 O   0  0  0  0  0  0  0  0  0  0  0  0
    0.8700   53.4700   77.4100 O   0  0  0  0  0  0  0  0  0  0  0  0
    1.5258   59.9371   73.0941 H   0  0  0  0  0  0  0  0  0  0  0  0
    3.9045   61.0640   74.6954 H   0  0  0  0  0  0  0  0  0  0  0  0
    2.3639   61.2604   76.6144 H   0  0  0  0  0  0  0  0  0  0  0  0
    1.0502   60.5015   75.6375 H   0  0  0  0  0  0  0  0  0  0  0  0
    3.7222   59.2356   76.3609 H   0  0  0  0  0  0  0  0  0  0  0  0
    1.3453   57.9421   74.8268 H   0  0  0  0  0  0  0  0  0  0  0  0
    4.1828   58.6628   74.0423 H   0  0  0  0  0  0  0  0  0  0  0  0
    2.1289   62.9211   74.9944 H   0  0  0  0  0  0  0  0  0  0  0  0
    3.0429   62.8687   73.5834 H   0  0  0  0  0  0  0  0  0  0  0  0
    1.4622   62.2939   73.5834 H   0  0  0  0  0  0  0  0  0  0  0  0
    2.5329   59.0824   78.2855 H   0  0  0  0  0  0  0  0  0  0  0  0
    1.0307   59.0529   77.5294 H   0  0  0  0  0  0  0  0  0  0  0  0
    1.9993   57.6778   77.5294 H   0  0  0  0  0  0  0  0  0  0  0  0
    2.8044   56.7805   73.0178 H   0  0  0  0  0  0  0  0  0  0  0  0
    4.3039   63.4110   68.7207 H   0  0  0  0  0  0  0  0  0  0  0  0
    4.4725   61.0057   68.2139 H   0  0  0  0  0  0  0  0  0  0  0  0
    5.0620   61.0656   69.9143 H   0  0  0  0  0  0  0  0  0  0  0  0
    2.2409   60.3768   68.9442 H   0  0  0  0  0  0  0  0  0  0  0  0
    1.4944   60.2957   71.1436 H   0  0  0  0  0  0  0  0  0  0  0  0
    3.6146   58.6268   70.7359 H   0  0  0  0  0  0  0  0  0  0  0  0
    2.8357   58.3037   69.2806 H   0  0  0  0  0  0  0  0  0  0  0  0
    4.4327   58.8315   69.2806 H   0  0  0  0  0  0  0  0  0  0  0  0
    2.6519   65.0026   71.1427 H   0  0  0  0  0  0  0  0  0  0  0  0
    2.6663   65.0108   69.2871 H   0  0  0  0  0  0  0  0  0  0  0  0
    0.4475   64.7840   71.1215 H   0  0  0  0  0  0  0  0  0  0  0  0
    0.6021   65.6120   69.6656 H   0  0  0  0  0  0  0  0  0  0  0  0
    0.3865   63.9439   69.6656 H   0  0  0  0  0  0  0  0  0  0  0  0
    2.3631   55.6115   77.1390 H   0  0  0  0  0  0  0  0  0  0  0  0
   -0.1202   55.6773   77.8650 H   0  0  0  0  0  0  0  0  0  0  0  0
   -1.1937   55.8430   76.3843 H   0  0  0  0  0  0  0  0  0  0  0  0
    0.0643   54.4421   74.3304 H   0  0  0  0  0  0  0  0  0  0  0  0
    2.7845   53.9326   75.7209 H   0  0  0  0  0  0  0  0  0  0  0  0
   -1.6353   53.1716   77.5681 H   0  0  0  0  0  0  0  0  0  0  0  0
   -2.1328   53.9234   76.0144 H   0  0  0  0  0  0  0  0  0  0  0  0
   -1.2739   52.3457   76.0144 H   0  0  0  0  0  0  0  0  0  0  0  0
    1.7782   52.4986   74.0407 H   0  0  0  0  0  0  0  0  0  0  0  0
    1.0147   51.9717   75.5103 H   0  0  0  0  0  0  0  0  0  0  0  0
   -0.8865   51.4066   74.5737 H   0  0  0  0  0  0  0  0  0  0  0  0
   -0.6704   52.5868   73.2369 H   0  0  0  0  0  0  0  0  0  0  0  0
    0.2590   51.0496   73.2369 H   0  0  0  0  0  0  0  0  0  0  0  0
    3.5082   55.3309   73.9809 H   0  0  0  0  0  0  0  0  0  0  0  0
    0.5465   53.6812   78.3215 H   0  0  0  0  0  0  0  0  0  0  0  0
  2  1  1  0
  3  2  1  0
  4  3  1  0
  5  4  1  0
  6  5  1  0
  6  1  1  0
  7  2  1  0
  8  4  1  0
  9  6  1  0
 10  1  1  0
 12 11  2  0
 13 12  1  0
 14 13  1  0
 15 14  1  0
 15 10  1  0
 16 11  1  0
 16 15  1  0
 17 14  1  0
 18 11  1  0
 19 18  1  0
 20  5  1  0
 21 20  1  0
 22 21  1  0
 23 22  1  0
 24 23  1  0
 25 24  1  0
 26 25  1  0
 26 21  1  0
 27 24  1  0
 28 25  1  0
 29 28  1  0
 30 26  1  0
 24 31  1  1
  1 32  1  6
  2 33  1  1
  3 34  1  0
  3 35  1  0
  4 36  1  1
  5 37  1  6
  6 38  1  1
  7 39  1  0
  7 40  1  0
  7 41  1  0
  8 42  1  0
  8 43  1  0
  8 44  1  0
  9 45  1  0
 12 46  1  0
 13 47  1  0
 13 48  1  0
 14 49  1  6
 15 50  1  1
 17 51  1  0
 17 52  1  0
 17 53  1  0
 18 54  1  0
 18 55  1  0
 19 56  1  0
 19 57  1  0
 19 58  1  0
 21 59  1  1
 23 60  1  0
 23 61  1  0
 25 62  1  6
 26 63  1  1
 27 64  1  0
 27 65  1  0
 27 66  1  0
 28 67  1  0
 28 68  1  0
 29 69  1  0
 29 70  1  0
 29 71  1  0
 30 72  1  0
 31 73  1  0
M  CHG  5   7   1   8   1  17   1  19   1  28   1
M  END
>  <score>  (2) 
-6.809

$$$$
=
     RDKit          3D

 73 75  0  0  0  0  0  0  0  0999 V2000
    3.2200   59.2280   72.8470 C   0  0  2  0  0  0  0  0  0  0  0  0
    2.4920   58.1500   71.9880 C   0  0  2  0  0  0  0  0  0  0  0  0
    1.9060   57.0250   72.8590 C   0  0  0  0  0  0  0  0  0  0  0  0
    0.9440   57.5990   73.9070 C   0  0  2  0  0  0  0  0  0  0  0  0
    1.6310   58.6630   74.8190 C   0  0  1  0  0  0  0  0  0  0  0  0
    2.2120   59.7940   73.9050 C   0  0  1  0  0  0  0  0  0  0  0  0
    3.4250   57.5700   70.9680 N   0  0  0  0  0  4  0  0  0  0  0  0
    0.3410   56.5060   74.7350 N   0  0  0  0  0  4  0  0  0  0  0  0
    2.8710   60.8310   74.6520 O   0  0  0  0  0  0  0  0  0  0  0  0
    3.6990   60.2870   71.9730 O   0  0  0  0  0  0  0  0  0  0  0  0
    1.9740   63.1050   71.5490 C   0  0  0  0  0  0  0  0  0  0  0  0
    2.9750   63.6130   70.8080 C   0  0  0  0  0  0  0  0  0  0  0  0
    3.9560   62.7610   70.0630 C   0  0  0  0  0  0  0  0  0  0  0  0
    3.3410   61.3980   69.7640 C   0  0  2  0  0  0  0  0  0  0  0  0
    2.6930   60.8020   71.0530 C   0  0  2  0  0  0  0  0  0  0  0  0
    1.8220   61.7310   71.7430 O   0  0  0  0  0  0  0  0  0  0  0  0
    4.3760   60.4940   69.1710 N   0  0  0  0  0  4  0  0  0  0  0  0
    0.8920   63.9490   72.2340 C   0  0  0  0  0  0  0  0  0  0  0  0
   -0.3290   63.2420   72.6900 N   0  0  0  0  0  4  0  0  0  0  0  0
    0.5970   59.1400   75.6930 O   0  0  0  0  0  0  0  0  0  0  0  0
   -0.5910   59.6850   75.0850 C   0  0  1  0  0  0  0  0  0  0  0  0
   -1.7110   58.9070   75.4870 O   0  0  0  0  0  0  0  0  0  0  0  0
   -2.9380   59.3160   74.8330 C   0  0  0  0  0  0  0  0  0  0  0  0
   -3.1020   60.8530   74.6640 C   0  0  2  0  0  0  0  0  0  0  0  0
   -2.2600   61.5480   75.7570 C   0  0  1  0  0  0  0  0  0  0  0  0
   -0.7670   61.1630   75.5500 C   0  0  1  0  0  0  0  0  0  0  0  0
   -4.5820   61.2290   74.6480 C   0  0  0  0  0  0  0  0  0  0  0  0
   -2.3510   63.0700   75.6960 N   0  0  0  0  0  4  0  0  0  0  0  0
   -2.8760   63.7720   76.9080 C   0  0  0  0  0  0  0  0  0  0  0  0
   -0.0300   61.4660   76.7440 O   0  0  0  0  0  0  0  0  0  0  0  0
   -2.5210   61.2400   73.4030 O   0  0  0  0  0  0  0  0  0  0  0  0
    4.0809   58.7894   73.3728 H   0  0  0  0  0  0  0  0  0  0  0  0
    1.6586   58.6516   71.4744 H   0  0  0  0  0  0  0  0  0  0  0  0
    1.3609   56.3174   72.2170 H   0  0  0  0  0  0  0  0  0  0  0  0
    2.7297   56.5120   73.3770 H   0  0  0  0  0  0  0  0  0  0  0  0
    0.1395   58.1098   73.3576 H   0  0  0  0  0  0  0  0  0  0  0  0
    2.4686   58.2675   75.4123 H   0  0  0  0  0  0  0  0  0  0  0  0
    1.3394   60.2267   73.3937 H   0  0  0  0  0  0  0  0  0  0  0  0
    4.1998   57.0883   71.4460 H   0  0  0  0  0  0  0  0  0  0  0  0
    2.9141   56.8974   70.3786 H   0  0  0  0  0  0  0  0  0  0  0  0
    3.8021   58.3258   70.3786 H   0  0  0  0  0  0  0  0  0  0  0  0
    0.4621   56.7255   75.7340 H   0  0  0  0  0  0  0  0  0  0  0  0
   -0.6632   56.4267   74.5202 H   0  0  0  0  0  0  0  0  0  0  0  0
    0.8095   55.6142   74.5202 H   0  0  0  0  0  0  0  0  0  0  0  0
    2.7622   60.6597   75.6210 H   0  0  0  0  0  0  0  0  0  0  0  0
    3.0781   64.7064   70.7462 H   0  0  0  0  0  0  0  0  0  0  0  0
    4.2235   63.2553   69.1174 H   0  0  0  0  0  0  0  0  0  0  0  0
    4.8564   62.6235   70.6797 H   0  0  0  0  0  0  0  0  0  0  0  0
    2.5356   61.5070   69.0227 H   0  0  0  0  0  0  0  0  0  0  0  0
    2.0661   59.9689   70.7023 H   0  0  0  0  0  0  0  0  0  0  0  0
    4.9032   60.0335   69.9266 H   0  0  0  0  0  0  0  0  0  0  0  0
    3.9153   59.7798   68.5892 H   0  0  0  0  0  0  0  0  0  0  0  0
    5.0218   61.0466   68.5892 H   0  0  0  0  0  0  0  0  0  0  0  0
    1.3495   64.4221   73.1154 H   0  0  0  0  0  0  0  0  0  0  0  0
    0.5434   64.6476   71.4591 H   0  0  0  0  0  0  0  0  0  0  0  0
   -0.3533   63.2279   73.7196 H   0  0  0  0  0  0  0  0  0  0  0  0
   -1.1624   63.7313   72.3336 H   0  0  0  0  0  0  0  0  0  0  0  0
   -0.3195   62.2757   72.3336 H   0  0  0  0  0  0  0  0  0  0  0  0
   -0.5073   59.6604   73.9885 H   0  0  0  0  0  0  0  0  0  0  0  0
   -2.9635   58.8566   73.8338 H   0  0  0  0  0  0  0  0  0  0  0  0
   -3.7619   58.9848   75.4822 H   0  0  0  0  0  0  0  0  0  0  0  0
   -2.6522   61.2165   76.7298 H   0  0  0  0  0  0  0  0  0  0  0  0
   -0.3556   61.7666   74.7275 H   0  0  0  0  0  0  0  0  0  0  0  0
   -4.9479   61.3220   75.6812 H   0  0  0  0  0  0  0  0  0  0  0  0
   -4.7109   62.1884   74.1256 H   0  0  0  0  0  0  0  0  0  0  0  0
   -5.1532   60.4475   74.1256 H   0  0  0  0  0  0  0  0  0  0  0  0
   -1.4031   63.4302   75.5154 H   0  0  0  0  0  0  0  0  0  0  0  0
   -3.0404   63.2655   74.9562 H   0  0  0  0  0  0  0  0  0  0  0  0
   -2.5014   63.2711   77.8129 H   0  0  0  0  0  0  0  0  0  0  0  0
   -2.5371   64.8185   76.9012 H   0  0  0  0  0  0  0  0  0  0  0  0
   -3.9756   63.7427   76.9012 H   0  0  0  0  0  0  0  0  0  0  0  0
   -0.5786   61.2404   77.5366 H   0  0  0  0  0  0  0  0  0  0  0  0
   -1.7083   61.7813   73.5664 H   0  0  0  0  0  0  0  0  0  0  0  0
  2  1  1  0
  3  2  1  0
  4  3  1  0
  5  4  1  0
  6  5  1  0
  6  1  1  0
  7  2  1  0
  8  4  1  0
  9  6  1  0
 10  1  1  0
 12 11  2  0
 13 12  1  0
 14 13  1  0
 15 14  1  0
 15 10  1  0
 16 11  1  0
 16 15  1  0
 17 14  1  0
 18 11  1  0
 19 18  1  0
 20  5  1  0
 21 20  1  0
 22 21  1  0
 23 22  1  0
 24 23  1  0
 25 24  1  0
 26 25  1  0
 26 21  1  0
 27 24  1  0
 28 25  1  0
 29 28  1  0
 30 26  1  0
 24 31  1  6
  1 32  1  1
  2 33  1  6
  3 34  1  0
  3 35  1  0
  4 36  1  6
  5 37  1  1
  6 38  1  6
  7 39  1  0
  7 40  1  0
  7 41  1  0
  8 42  1  0
  8 43  1  0
  8 44  1  0
  9 45  1  0
 12 46  1  0
 13 47  1  0
 13 48  1  0
 14 49  1  6
 15 50  1  6
 17 51  1  0
 17 52  1  0
 17 53  1  0
 18 54  1  0
 18 55  1  0
 19 56  1  0
 19 57  1  0
 19 58  1  0
 21 59  1  6
 23 60  1  0
 23 61  1  0
 25 62  1  1
 26 63  1  6
 27 64  1  0
 27 65  1  0
 27 66  1  0
 28 67  1  0
 28 68  1  0
 29 69  1  0
 29 70  1  0
 29 71  1  0
 30 72  1  0
 31 73  1  0
M  CHG  5   7   1   8   1  17   1  19   1  28   1
M  END
>  <score>  (3) 
-6.658

$$$$
=
     RDKit          3D

 73 75  0  0  0  0  0  0  0  0999 V2000
    3.1400   61.8620   71.4680 C   0  0  2  0  0  0  0  0  0  0  0  0
    2.6130   61.2130   70.1530 C   0  0  2  0  0  0  0  0  0  0  0  0
    3.3220   59.8800   69.8490 C   0  0  0  0  0  0  0  0  0  0  0  0
    3.1570   58.9030   71.0210 C   0  0  2  0  0  0  0  0  0  0  0  0
    3.7000   59.4920   72.3610 C   0  0  1  0  0  0  0  0  0  0  0  0
    2.9580   60.8410   72.6430 C   0  0  1  0  0  0  0  0  0  0  0  0
    2.7810   62.1520   68.9970 N   0  0  0  0  0  4  0  0  0  0  0  0
    3.8130   57.5910   70.7170 N   0  0  0  0  0  4  0  0  0  0  0  0
    3.3880   61.4690   73.8620 O   0  0  0  0  0  0  0  0  0  0  0  0
    2.3940   63.0840   71.7250 O   0  0  0  0  0  0  0  0  0  0  0  0
    0.4660   64.1730   74.2140 C   0  0  0  0  0  0  0  0  0  0  0  0
    0.0760   65.2180   73.4620 C   0  0  0  0  0  0  0  0  0  0  0  0
    0.0910   65.2000   71.9650 C   0  0  0  0  0  0  0  0  0  0  0  0
    0.0050   63.7640   71.4590 C   0  0  2  0  0  0  0  0  0  0  0  0
    1.0370   62.8630   72.2080 C   0  0  2  0  0  0  0  0  0  0  0  0
    0.9930   63.0120   73.6480 O   0  0  0  0  0  0  0  0  0  0  0  0
    0.1900   63.7370   69.9750 N   0  0  0  0  0  4  0  0  0  0  0  0
    0.3580   64.1220   75.7430 C   0  0  0  0  0  0  0  0  0  0  0  0
    1.5580   64.5200   76.5180 N   0  0  0  0  0  4  0  0  0  0  0  0
    3.4220   58.4940   73.3540 O   0  0  0  0  0  0  0  0  0  0  0  0
    2.0410   58.1470   73.5830 C   0  0  1  0  0  0  0  0  0  0  0  0
    1.8550   56.7740   73.2680 O   0  0  0  0  0  0  0  0  0  0  0  0
    0.4670   56.3640   73.3620 C   0  0  0  0  0  0  0  0  0  0  0  0
   -0.3120   56.9820   74.5570 C   0  0  2  0  0  0  0  0  0  0  0  0
    0.7090   57.3510   75.6570 C   0  0  1  0  0  0  0  0  0  0  0  0
    1.6940   58.4090   75.0810 C   0  0  1  0  0  0  0  0  0  0  0  0
   -1.4320   56.0440   75.0010 C   0  0  0  0  0  0  0  0  0  0  0  0
    0.0550   57.9630   76.8910 N   0  0  0  0  0  4  0  0  0  0  0  0
    0.2650   57.2600   78.1950 C   0  0  0  0  0  0  0  0  0  0  0  0
    2.8560   58.4810   75.9210 O   0  0  0  0  0  0  0  0  0  0  0  0
   -0.9030   58.2230   74.1260 O   0  0  0  0  0  0  0  0  0  0  0  0
    4.2070   62.1134   71.3770 H   0  0  0  0  0  0  0  0  0  0  0  0
    1.5430   61.0044   70.2996 H   0  0  0  0  0  0  0  0  0  0  0  0
    2.8841   59.4356   68.9431 H   0  0  0  0  0  0  0  0  0  0  0  0
    4.3939   60.0743   69.6965 H   0  0  0  0  0  0  0  0  0  0  0  0
    2.0776   58.7362   71.1519 H   0  0  0  0  0  0  0  0  0  0  0  0
    4.7769   59.7156   72.3463 H   0  0  0  0  0  0  0  0  0  0  0  0
    1.8962   60.5705   72.7405 H   0  0  0  0  0  0  0  0  0  0  0  0
    2.9514   63.1044   69.3503 H   0  0  0  0  0  0  0  0  0  0  0  0
    3.5814   61.8503   68.4231 H   0  0  0  0  0  0  0  0  0  0  0  0
    1.9257   62.1466   68.4231 H   0  0  0  0  0  0  0  0  0  0  0  0
    4.0515   57.1140   71.5982 H   0  0  0  0  0  0  0  0  0  0  0  0
    3.1671   57.0023   70.1719 H   0  0  0  0  0  0  0  0  0  0  0  0
    4.6715   57.7545   70.1719 H   0  0  0  0  0  0  0  0  0  0  0  0
    3.0394   60.9599   74.6362 H   0  0  0  0  0  0  0  0  0  0  0  0
   -0.2705   66.1293   73.9713 H   0  0  0  0  0  0  0  0  0  0  0  0
   -0.7685   65.7719   71.5853 H   0  0  0  0  0  0  0  0  0  0  0  0
    1.0279   65.6527   71.6082 H   0  0  0  0  0  0  0  0  0  0  0  0
   -0.9926   63.3530   71.6733 H   0  0  0  0  0  0  0  0  0  0  0  0
    0.7387   61.8290   71.9804 H   0  0  0  0  0  0  0  0  0  0  0  0
    1.1858   63.5917   69.7557 H   0  0  0  0  0  0  0  0  0  0  0  0
   -0.3657   62.9682   69.5737 H   0  0  0  0  0  0  0  0  0  0  0  0
   -0.1228   64.6325   69.5737 H   0  0  0  0  0  0  0  0  0  0  0  0
   -0.4646   64.7894   76.0397 H   0  0  0  0  0  0  0  0  0  0  0  0
    0.2038   63.0595   75.9824 H   0  0  0  0  0  0  0  0  0  0  0  0
    1.3541   64.4524   77.5254 H   0  0  0  0  0  0  0  0  0  0  0  0
    2.3414   63.8938   76.2835 H   0  0  0  0  0  0  0  0  0  0  0  0
    1.8119   65.4903   76.2835 H   0  0  0  0  0  0  0  0  0  0  0  0
    1.3805   58.7567   72.9490 H   0  0  0  0  0  0  0  0  0  0  0  0
   -0.0413   56.6588   72.4321 H   0  0  0  0  0  0  0  0  0  0  0  0
    0.4741   55.2761   73.5243 H   0  0  0  0  0  0  0  0  0  0  0  0
    1.2131   56.4208   75.9580 H   0  0  0  0  0  0  0  0  0  0  0  0
    1.2021   59.3929   75.0873 H   0  0  0  0  0  0  0  0  0  0  0  0
   -1.4698   56.0124   76.0999 H   0  0  0  0  0  0  0  0  0  0  0  0
   -2.3932   56.4105   74.6115 H   0  0  0  0  0  0  0  0  0  0  0  0
   -1.2399   55.0334   74.6115 H   0  0  0  0  0  0  0  0  0  0  0  0
    0.4204   58.9206   76.9927 H   0  0  0  0  0  0  0  0  0  0  0  0
   -0.9577   57.8988   76.7145 H   0  0  0  0  0  0  0  0  0  0  0  0
    0.0578   57.9538   79.0231 H   0  0  0  0  0  0  0  0  0  0  0  0
   -0.4148   56.3976   78.2603 H   0  0  0  0  0  0  0  0  0  0  0  0
    1.3064   56.9118   78.2603 H   0  0  0  0  0  0  0  0  0  0  0  0
    2.5780   58.4638   76.8710 H   0  0  0  0  0  0  0  0  0  0  0  0
   -1.1585   58.7594   74.9179 H   0  0  0  0  0  0  0  0  0  0  0  0
  2  1  1  0
  3  2  1  0
  4  3  1  0
  5  4  1  0
  6  5  1  0
  6  1  1  0
  7  2  1  0
  8  4  1  0
  9  6  1  0
 10  1  1  0
 12 11  2  0
 13 12  1  0
 14 13  1  0
 15 14  1  0
 15 10  1  0
 16 11  1  0
 16 15  1  0
 17 14  1  0
 18 11  1  0
 19 18  1  0
 20  5  1  0
 21 20  1  0
 22 21  1  0
 23 22  1  0
 24 23  1  0
 25 24  1  0
 26 25  1  0
 26 21  1  0
 27 24  1  0
 28 25  1  0
 29 28  1  0
 30 26  1  0
 24 31  1  6
  1 32  1  6
  2 33  1  1
  3 34  1  0
  3 35  1  0
  4 36  1  1
  5 37  1  6
  6 38  1  1
  7 39  1  0
  7 40  1  0
  7 41  1  0
  8 42  1  0
  8 43  1  0
  8 44  1  0
  9 45  1  0
 12 46  1  0
 13 47  1  0
 13 48  1  0
 14 49  1  6
 15 50  1  1
 17 51  1  0
 17 52  1  0
 17 53  1  0
 18 54  1  0
 18 55  1  0
 19 56  1  0
 19 57  1  0
 19 58  1  0
 21 59  1  6
 23 60  1  0
 23 61  1  0
 25 62  1  1
 26 63  1  6
 27 64  1  0
 27 65  1  0
 27 66  1  0
 28 67  1  0
 28 68  1  0
 29 69  1  0
 29 70  1  0
 29 71  1  0
 30 72  1  0
 31 73  1  0
M  CHG  5   7   1   8   1  17   1  19   1  28   1
M  END
>  <score>  (4) 
-6.599

$$$$
=
     RDKit          3D

 73 75  0  0  0  0  0  0  0  0999 V2000
    2.3120   61.1730   72.8620 C   0  0  2  0  0  0  0  0  0  0  0  0
    1.5510   62.5180   72.6510 C   0  0  2  0  0  0  0  0  0  0  0  0
    0.0540   62.2900   72.3740 C   0  0  0  0  0  0  0  0  0  0  0  0
   -0.5910   61.4940   73.5150 C   0  0  2  0  0  0  0  0  0  0  0  0
    0.1130   60.1210   73.7480 C   0  0  1  0  0  0  0  0  0  0  0  0
    1.6290   60.3860   74.0330 C   0  0  1  0  0  0  0  0  0  0  0  0
    2.1630   63.3000   71.5290 N   0  0  0  0  0  4  0  0  0  0  0  0
   -2.0560   61.3000   73.2690 N   0  0  0  0  0  4  0  0  0  0  0  0
    2.3730   59.1780   74.2620 O   0  0  0  0  0  0  0  0  0  0  0  0
    3.7030   61.4610   73.1740 O   0  0  0  0  0  0  0  0  0  0  0  0
    3.6140   58.9270   71.0120 C   0  0  0  0  0  0  0  0  0  0  0  0
    3.5700   59.7960   69.9870 C   0  0  0  0  0  0  0  0  0  0  0  0
    4.1020   61.1930   70.0750 C   0  0  0  0  0  0  0  0  0  0  0  0
    5.1700   61.2780   71.1600 C   0  0  2  0  0  0  0  0  0  0  0  0
    4.6590   60.6110   72.4750 C   0  0  2  0  0  0  0  0  0  0  0  0
    4.0930   59.2930   72.2710 O   0  0  0  0  0  0  0  0  0  0  0  0
    5.5770   62.7040   71.3600 N   0  0  0  0  0  4  0  0  0  0  0  0
    3.1780   57.4600   70.9200 C   0  0  0  0  0  0  0  0  0  0  0  0
    2.5760   56.8560   72.1330 N   0  0  0  0  0  4  0  0  0  0  0  0
   -0.5620   59.5340   74.8720 O   0  0  0  0  0  0  0  0  0  0  0  0
   -0.8580   58.1240   74.8090 C   0  0  1  0  0  0  0  0  0  0  0  0
   -0.1990   57.5670   73.6800 O   0  0  0  0  0  0  0  0  0  0  0  0
   -0.5300   56.1700   73.4740 C   0  0  0  0  0  0  0  0  0  0  0  0
   -0.6450   55.3310   74.7780 C   0  0  2  0  0  0  0  0  0  0  0  0
    0.2130   56.0150   75.8660 C   0  0  1  0  0  0  0  0  0  0  0  0
   -0.3550   57.4420   76.1190 C   0  0  1  0  0  0  0  0  0  0  0  0
   -0.2960   53.8710   74.5010 C   0  0  0  0  0  0  0  0  0  0  0  0
    0.1860   55.2720   77.1970 N   0  0  0  0  0  4  0  0  0  0  0  0
    1.5020   54.8660   77.7800 C   0  0  0  0  0  0  0  0  0  0  0  0
    0.6240   58.2250   76.8180 O   0  0  0  0  0  0  0  0  0  0  0  0
   -2.0060   55.3920   75.2450 O   0  0  0  0  0  0  0  0  0  0  0  0
    2.2758   60.5575   71.9510 H   0  0  0  0  0  0  0  0  0  0  0  0
    1.6405   63.0928   73.5846 H   0  0  0  0  0  0  0  0  0  0  0  0
   -0.4492   63.2639   72.2831 H   0  0  0  0  0  0  0  0  0  0  0  0
   -0.0508   61.7188   71.4398 H   0  0  0  0  0  0  0  0  0  0  0  0
   -0.4627   62.0868   74.4327 H   0  0  0  0  0  0  0  0  0  0  0  0
    0.0626   59.4421   72.8840 H   0  0  0  0  0  0  0  0  0  0  0  0
    1.6471   60.9917   74.9511 H   0  0  0  0  0  0  0  0  0  0  0  0
    2.7514   64.0519   71.9155 H   0  0  0  0  0  0  0  0  0  0  0  0
    2.7414   62.6745   70.9501 H   0  0  0  0  0  0  0  0  0  0  0  0
    1.4169   63.7112   70.9501 H   0  0  0  0  0  0  0  0  0  0  0  0
   -2.5498   61.2346   74.1705 H   0  0  0  0  0  0  0  0  0  0  0  0
   -2.4231   62.0997   72.7337 H   0  0  0  0  0  0  0  0  0  0  0  0
   -2.2023   60.4323   72.7337 H   0  0  0  0  0  0  0  0  0  0  0  0
    2.4658   59.0273   75.2360 H   0  0  0  0  0  0  0  0  0  0  0  0
    3.1218   59.4650   69.0385 H   0  0  0  0  0  0  0  0  0  0  0  0
    4.5423   61.4765   69.1077 H   0  0  0  0  0  0  0  0  0  0  0  0
    3.2782   61.8775   70.3254 H   0  0  0  0  0  0  0  0  0  0  0  0
    6.0655   60.7214   70.8463 H   0  0  0  0  0  0  0  0  0  0  0  0
    5.5539   60.4855   73.1022 H   0  0  0  0  0  0  0  0  0  0  0  0
    5.6348   62.9064   72.3683 H   0  0  0  0  0  0  0  0  0  0  0  0
    6.4969   62.8628   70.9247 H   0  0  0  0  0  0  0  0  0  0  0  0
    4.8795   63.3244   70.9247 H   0  0  0  0  0  0  0  0  0  0  0  0
    2.4374   57.3848   70.1102 H   0  0  0  0  0  0  0  0  0  0  0  0
    4.1083   56.8970   70.7540 H   0  0  0  0  0  0  0  0  0  0  0  0
    2.9974   57.2788   72.9724 H   0  0  0  0  0  0  0  0  0  0  0  0
    1.5605   57.0285   72.1346 H   0  0  0  0  0  0  0  0  0  0  0  0
    2.7519   55.8411   72.1346 H   0  0  0  0  0  0  0  0  0  0  0  0
   -1.9416   57.9616   74.7119 H   0  0  0  0  0  0  0  0  0  0  0  0
   -1.4950   56.1203   72.9483 H   0  0  0  0  0  0  0  0  0  0  0  0
    0.2997   55.7357   72.8970 H   0  0  0  0  0  0  0  0  0  0  0  0
    1.2500   56.0296   75.4995 H   0  0  0  0  0  0  0  0  0  0  0  0
   -1.2491   57.3607   76.7547 H   0  0  0  0  0  0  0  0  0  0  0  0
   -0.1684   53.3373   75.4543 H   0  0  0  0  0  0  0  0  0  0  0  0
   -1.1076   53.4030   73.9245 H   0  0  0  0  0  0  0  0  0  0  0  0
    0.6395   53.8206   73.9245 H   0  0  0  0  0  0  0  0  0  0  0  0
   -0.2818   55.8817   77.8828 H   0  0  0  0  0  0  0  0  0  0  0  0
   -0.3002   54.3863   76.9968 H   0  0  0  0  0  0  0  0  0  0  0  0
    1.4383   54.8856   78.8780 H   0  0  0  0  0  0  0  0  0  0  0  0
    1.7530   53.8486   77.4454 H   0  0  0  0  0  0  0  0  0  0  0  0
    2.2826   55.5651   77.4454 H   0  0  0  0  0  0  0  0  0  0  0  0
    0.4941   58.1211   77.7939 H   0  0  0  0  0  0  0  0  0  0  0  0
   -2.0155   55.3924   76.2350 H   0  0  0  0  0  0  0  0  0  0  0  0
  2  1  1  0
  3  2  1  0
  4  3  1  0
  5  4  1  0
  6  5  1  0
  6  1  1  0
  7  2  1  0
  8  4  1  0
  9  6  1  0
 10  1  1  0
 12 11  2  0
 13 12  1  0
 14 13  1  0
 15 14  1  0
 15 10  1  0
 16 11  1  0
 16 15  1  0
 17 14  1  0
 18 11  1  0
 19 18  1  0
 20  5  1  0
 21 20  1  0
 22 21  1  0
 23 22  1  0
 24 23  1  0
 25 24  1  0
 26 25  1  0
 26 21  1  0
 27 24  1  0
 28 25  1  0
 29 28  1  0
 30 26  1  0
 24 31  1  1
  1 32  1  6
  2 33  1  1
  3 34  1  0
  3 35  1  0
  4 36  1  1
  5 37  1  6
  6 38  1  1
  7 39  1  0
  7 40  1  0
  7 41  1  0
  8 42  1  0
  8 43  1  0
  8 44  1  0
  9 45  1  0
 12 46  1  0
 13 47  1  0
 13 48  1  0
 14 49  1  6
 15 50  1  1
 17 51  1  0
 17 52  1  0
 17 53  1  0
 18 54  1  0
 18 55  1  0
 19 56  1  0
 19 57  1  0
 19 58  1  0
 21 59  1  6
 23 60  1  0
 23 61  1  0
 25 62  1  6
 26 63  1  1
 27 64  1  0
 27 65  1  0
 27 66  1  0
 28 67  1  0
 28 68  1  0
 29 69  1  0
 29 70  1  0
 29 71  1  0
 30 72  1  0
 31 73  1  0
M  CHG  5   7   1   8   1  17   1  19   1  28   1
M  END
>  <score>  (5) 
-6.556

$$$$
=
     RDKit          3D

 73 75  0  0  0  0  0  0  0  0999 V2000
   -0.0820   62.1990   72.8910 C   0  0  2  0  0  0  0  0  0  0  0  0
    0.3850   63.4410   73.7090 C   0  0  2  0  0  0  0  0  0  0  0  0
   -0.2560   63.4760   75.1090 C   0  0  0  0  0  0  0  0  0  0  0  0
    0.0600   62.1880   75.8800 C   0  0  2  0  0  0  0  0  0  0  0  0
   -0.4160   60.9120   75.1190 C   0  0  1  0  0  0  0  0  0  0  0  0
    0.2560   60.9020   73.7040 C   0  0  1  0  0  0  0  0  0  0  0  0
    0.0690   64.7070   72.9740 N   0  0  0  0  0  4  0  0  0  0  0  0
   -0.5300   62.2320   77.2570 N   0  0  0  0  0  4  0  0  0  0  0  0
   -0.1200   59.7610   72.9160 O   0  0  0  0  0  0  0  0  0  0  0  0
    0.6000   62.1950   71.6070 O   0  0  0  0  0  0  0  0  0  0  0  0
    3.1470   60.2050   70.7990 C   0  0  0  0  0  0  0  0  0  0  0  0
    3.1770   60.7350   69.5640 C   0  0  0  0  0  0  0  0  0  0  0  0
    2.6670   62.1070   69.2490 C   0  0  0  0  0  0  0  0  0  0  0  0
    2.7000   62.9760   70.5020 C   0  0  2  0  0  0  0  0  0  0  0  0
    2.0540   62.2180   71.7030 C   0  0  2  0  0  0  0  0  0  0  0  0
    2.5610   60.8720   71.8760 O   0  0  0  0  0  0  0  0  0  0  0  0
    2.0360   64.2880   70.2260 N   0  0  0  0  0  4  0  0  0  0  0  0
    3.7590   58.8490   71.1730 C   0  0  0  0  0  0  0  0  0  0  0  0
    2.8850   57.8850   71.8820 N   0  0  0  0  0  4  0  0  0  0  0  0
    0.0010   59.8060   75.9330 O   0  0  0  0  0  0  0  0  0  0  0  0
    1.3490   59.3240   75.7610 C   0  0  1  0  0  0  0  0  0  0  0  0
    1.9990   59.3200   77.0250 O   0  0  0  0  0  0  0  0  0  0  0  0
    3.3990   58.9540   76.9320 C   0  0  0  0  0  0  0  0  0  0  0  0
    3.7060   57.8170   75.9160 C   0  0  2  0  0  0  0  0  0  0  0  0
    2.4270   56.9680   75.7460 C   0  0  1  0  0  0  0  0  0  0  0  0
    1.3010   57.8790   75.1760 C   0  0  1  0  0  0  0  0  0  0  0  0
    4.9460   57.0400   76.3500 C   0  0  0  0  0  0  0  0  0  0  0  0
    2.6110   55.8090   74.7720 N   0  0  0  0  0  4  0  0  0  0  0  0
    2.1520   54.4580   75.2230 C   0  0  0  0  0  0  0  0  0  0  0  0
    0.0310   57.2390   75.3670 O   0  0  0  0  0  0  0  0  0  0  0  0
    3.9680   58.4100   74.6300 O   0  0  0  0  0  0  0  0  0  0  0  0
   -1.1671   62.2358   72.7143 H   0  0  0  0  0  0  0  0  0  0  0  0
    1.4746   63.3572   73.8343 H   0  0  0  0  0  0  0  0  0  0  0  0
    0.1402   64.3375   75.6665 H   0  0  0  0  0  0  0  0  0  0  0  0
   -1.3468   63.5639   74.9974 H   0  0  0  0  0  0  0  0  0  0  0  0
    1.1548   62.1262   75.9667 H   0  0  0  0  0  0  0  0  0  0  0  0
   -1.5033   60.8686   74.9580 H   0  0  0  0  0  0  0  0  0  0  0  0
    1.3375   60.8548   73.8995 H   0  0  0  0  0  0  0  0  0  0  0  0
   -0.1189   65.4596   73.6516 H   0  0  0  0  0  0  0  0  0  0  0  0
    0.8702   64.9697   72.3824 H   0  0  0  0  0  0  0  0  0  0  0  0
   -0.7617   64.5624   72.3824 H   0  0  0  0  0  0  0  0  0  0  0  0
    0.2246   62.1757   77.9558 H   0  0  0  0  0  0  0  0  0  0  0  0
   -1.0475   63.1139   77.3808 H   0  0  0  0  0  0  0  0  0  0  0  0
   -1.1726   61.4366   77.3808 H   0  0  0  0  0  0  0  0  0  0  0  0
   -0.3666   59.0127   73.5155 H   0  0  0  0  0  0  0  0  0  0  0  0
    3.5964   60.1317   68.7454 H   0  0  0  0  0  0  0  0  0  0  0  0
    3.3005   62.5620   68.4733 H   0  0  0  0  0  0  0  0  0  0  0  0
    1.6306   62.0330   68.8880 H   0  0  0  0  0  0  0  0  0  0  0  0
    3.7425   63.1878   70.7820 H   0  0  0  0  0  0  0  0  0  0  0  0
    2.3454   62.7904   72.5960 H   0  0  0  0  0  0  0  0  0  0  0  0
    1.8027   64.7489   71.1171 H   0  0  0  0  0  0  0  0  0  0  0  0
    2.6744   64.8889   69.6854 H   0  0  0  0  0  0  0  0  0  0  0  0
    1.1737   64.1294   69.6854 H   0  0  0  0  0  0  0  0  0  0  0  0
    4.0944   58.3690   70.2418 H   0  0  0  0  0  0  0  0  0  0  0  0
    4.5594   59.0865   71.8892 H   0  0  0  0  0  0  0  0  0  0  0  0
    2.9946   58.0059   72.8990 H   0  0  0  0  0  0  0  0  0  0  0  0
    1.9034   58.0544   71.6199 H   0  0  0  0  0  0  0  0  0  0  0  0
    3.1495   56.9247   71.6199 H   0  0  0  0  0  0  0  0  0  0  0  0
    1.9044   59.9740   75.0689 H   0  0  0  0  0  0  0  0  0  0  0  0
    3.9673   59.8462   76.6303 H   0  0  0  0  0  0  0  0  0  0  0  0
    3.6875   58.5726   77.9226 H   0  0  0  0  0  0  0  0  0  0  0  0
    2.1782   56.5539   76.7342 H   0  0  0  0  0  0  0  0  0  0  0  0
    1.4627   58.0085   74.0957 H   0  0  0  0  0  0  0  0  0  0  0  0
    4.9940   57.0099   77.4485 H   0  0  0  0  0  0  0  0  0  0  0  0
    4.8919   56.0140   75.9571 H   0  0  0  0  0  0  0  0  0  0  0  0
    5.8457   57.5361   75.9571 H   0  0  0  0  0  0  0  0  0  0  0  0
    2.0932   56.0413   73.9124 H   0  0  0  0  0  0  0  0  0  0  0  0
    3.6305   55.7184   74.6563 H   0  0  0  0  0  0  0  0  0  0  0  0
    2.1401   54.4229   76.3224 H   0  0  0  0  0  0  0  0  0  0  0  0
    1.1389   54.2679   74.8391 H   0  0  0  0  0  0  0  0  0  0  0  0
    2.8397   53.6901   74.8391 H   0  0  0  0  0  0  0  0  0  0  0  0
   -0.1501   57.1477   76.3360 H   0  0  0  0  0  0  0  0  0  0  0  0
    4.3649   59.3082   74.7555 H   0  0  0  0  0  0  0  0  0  0  0  0
  2  1  1  0
  3  2  1  0
  4  3  1  0
  5  4  1  0
  6  5  1  0
  6  1  1  0
  7  2  1  0
  8  4  1  0
  9  6  1  0
 10  1  1  0
 12 11  2  0
 13 12  1  0
 14 13  1  0
 15 14  1  0
 15 10  1  0
 16 11  1  0
 16 15  1  0
 17 14  1  0
 18 11  1  0
 19 18  1  0
 20  5  1  0
 21 20  1  0
 22 21  1  0
 23 22  1  0
 24 23  1  0
 25 24  1  0
 26 25  1  0
 26 21  1  0
 27 24  1  0
 28 25  1  0
 29 28  1  0
 30 26  1  0
 24 31  1  6
  1 32  1  6
  2 33  1  1
  3 34  1  0
  3 35  1  0
  4 36  1  1
  5 37  1  6
  6 38  1  1
  7 39  1  0
  7 40  1  0
  7 41  1  0
  8 42  1  0
  8 43  1  0
  8 44  1  0
  9 45  1  0
 12 46  1  0
 13 47  1  0
 13 48  1  0
 14 49  1  1
 15 50  1  1
 17 51  1  0
 17 52  1  0
 17 53  1  0
 18 54  1  0
 18 55  1  0
 19 56  1  0
 19 57  1  0
 19 58  1  0
 21 59  1  6
 23 60  1  0
 23 61  1  0
 25 62  1  1
 26 63  1  6
 27 64  1  0
 27 65  1  0
 27 66  1  0
 28 67  1  0
 28 68  1  0
 29 69  1  0
 29 70  1  0
 29 71  1  0
 30 72  1  0
 31 73  1  0
M  CHG  5   7   1   8   1  17   1  19   1  28   1
M  END
>  <score>  (6) 
-6.529

$$$$
=
     RDKit          3D

 73 75  0  0  0  0  0  0  0  0999 V2000
    3.0320   61.1540   72.0170 C   0  0  2  0  0  0  0  0  0  0  0  0
    3.0400   60.7360   70.5150 C   0  0  2  0  0  0  0  0  0  0  0  0
    3.6280   59.3270   70.3170 C   0  0  0  0  0  0  0  0  0  0  0  0
    2.8520   58.2960   71.1460 C   0  0  2  0  0  0  0  0  0  0  0  0
    2.8410   58.6490   72.6660 C   0  0  1  0  0  0  0  0  0  0  0  0
    2.2330   60.0820   72.8350 C   0  0  1  0  0  0  0  0  0  0  0  0
    3.8070   61.7280   69.6950 N   0  0  0  0  0  4  0  0  0  0  0  0
    3.3970   56.9170   70.9290 N   0  0  0  0  0  4  0  0  0  0  0  0
    2.1770   60.5060   74.2070 O   0  0  0  0  0  0  0  0  0  0  0  0
    2.4150   62.4650   72.1410 O   0  0  0  0  0  0  0  0  0  0  0  0
    0.1170   63.9160   74.0680 C   0  0  0  0  0  0  0  0  0  0  0  0
    0.0440   64.9500   73.2110 C   0  0  0  0  0  0  0  0  0  0  0  0
    0.4000   64.8390   71.7610 C   0  0  0  0  0  0  0  0  0  0  0  0
    0.2540   63.3930   71.2970 C   0  0  2  0  0  0  0  0  0  0  0  0
    0.9660   62.4290   72.2970 C   0  0  2  0  0  0  0  0  0  0  0  0
    0.6120   62.6700   73.6810 O   0  0  0  0  0  0  0  0  0  0  0  0
    0.7700   63.2550   69.9000 N   0  0  0  0  0  4  0  0  0  0  0  0
   -0.3430   63.9710   75.5300 C   0  0  0  0  0  0  0  0  0  0  0  0
   -1.3560   64.9950   75.8820 N   0  0  0  0  0  4  0  0  0  0  0  0
    2.0360   57.6350   73.2860 O   0  0  0  0  0  0  0  0  0  0  0  0
    2.3480   57.2740   74.6470 C   0  0  1  0  0  0  0  0  0  0  0  0
    1.4540   57.9540   75.5180 O   0  0  0  0  0  0  0  0  0  0  0  0
    1.7670   57.7370   76.9170 C   0  0  0  0  0  0  0  0  0  0  0  0
    2.2140   56.2890   77.2650 C   0  0  2  0  0  0  0  0  0  0  0  0
    1.6220   55.3360   76.2030 C   0  0  1  0  0  0  0  0  0  0  0  0
    2.1930   55.7310   74.8110 C   0  0  1  0  0  0  0  0  0  0  0  0
    1.8510   55.9560   78.7100 C   0  0  0  0  0  0  0  0  0  0  0  0
    1.9900   53.8760   76.4480 N   0  0  0  0  0  4  0  0  0  0  0  0
    0.8650   52.8920   76.5230 C   0  0  0  0  0  0  0  0  0  0  0  0
    1.3880   55.1360   73.7820 O   0  0  0  0  0  0  0  0  0  0  0  0
    3.6460   56.2060   77.1260 O   0  0  0  0  0  0  0  0  0  0  0  0
    4.0577   61.2098   72.4104 H   0  0  0  0  0  0  0  0  0  0  0  0
    1.9935   60.7183   70.1765 H   0  0  0  0  0  0  0  0  0  0  0  0
    3.5658   59.0557   69.2528 H   0  0  0  0  0  0  0  0  0  0  0  0
    4.6769   59.3310   70.6483 H   0  0  0  0  0  0  0  0  0  0  0  0
    1.8092   58.3223   70.7969 H   0  0  0  0  0  0  0  0  0  0  0  0
    3.8398   58.6675   73.1264 H   0  0  0  0  0  0  0  0  0  0  0  0
    1.2066   60.0058   72.4469 H   0  0  0  0  0  0  0  0  0  0  0  0
    4.3079   62.3758   70.3198 H   0  0  0  0  0  0  0  0  0  0  0  0
    4.4855   61.2307   69.1007 H   0  0  0  0  0  0  0  0  0  0  0  0
    3.1549   62.2595   69.1007 H   0  0  0  0  0  0  0  0  0  0  0  0
    3.5735   56.4703   71.8401 H   0  0  0  0  0  0  0  0  0  0  0  0
    2.7139   56.3573   70.3989 H   0  0  0  0  0  0  0  0  0  0  0  0
    4.2781   56.9756   70.3989 H   0  0  0  0  0  0  0  0  0  0  0  0
    2.2808   59.7199   74.7998 H   0  0  0  0  0  0  0  0  0  0  0  0
   -0.2936   65.9244   73.5940 H   0  0  0  0  0  0  0  0  0  0  0  0
   -0.2712   65.4804   71.1710 H   0  0  0  0  0  0  0  0  0  0  0  0
    1.4426   65.1600   71.6196 H   0  0  0  0  0  0  0  0  0  0  0  0
   -0.8092   63.1110   71.2842 H   0  0  0  0  0  0  0  0  0  0  0  0
    0.6013   61.4238   72.0389 H   0  0  0  0  0  0  0  0  0  0  0  0
    1.7647   62.9890   69.9261 H   0  0  0  0  0  0  0  0  0  0  0  0
    0.2330   62.5281   69.4059 H   0  0  0  0  0  0  0  0  0  0  0  0
    0.6676   64.1529   69.4059 H   0  0  0  0  0  0  0  0  0  0  0  0
   -0.7654   62.9870   75.7816 H   0  0  0  0  0  0  0  0  0  0  0  0
    0.5549   64.2516   76.1001 H   0  0  0  0  0  0  0  0  0  0  0  0
   -1.4284   65.0682   76.9068 H   0  0  0  0  0  0  0  0  0  0  0  0
   -1.0737   65.9055   75.4918 H   0  0  0  0  0  0  0  0  0  0  0  0
   -2.2695   64.7226   75.4918 H   0  0  0  0  0  0  0  0  0  0  0  0
    3.3813   57.5592   74.8939 H   0  0  0  0  0  0  0  0  0  0  0  0
    2.5799   58.4233   77.1968 H   0  0  0  0  0  0  0  0  0  0  0  0
    0.8368   57.9180   77.4755 H   0  0  0  0  0  0  0  0  0  0  0  0
    0.5273   55.4312   76.2547 H   0  0  0  0  0  0  0  0  0  0  0  0
    3.2152   55.3348   74.7210 H   0  0  0  0  0  0  0  0  0  0  0  0
    2.4872   56.5396   79.3917 H   0  0  0  0  0  0  0  0  0  0  0  0
    0.7950   56.2061   78.8897 H   0  0  0  0  0  0  0  0  0  0  0  0
    2.0093   54.8824   78.8897 H   0  0  0  0  0  0  0  0  0  0  0  0
    2.6106   53.5797   75.6812 H   0  0  0  0  0  0  0  0  0  0  0  0
    2.4179   53.8630   77.3848 H   0  0  0  0  0  0  0  0  0  0  0  0
    0.6285   52.6851   77.5772 H   0  0  0  0  0  0  0  0  0  0  0  0
   -0.0215   53.3098   76.0235 H   0  0  0  0  0  0  0  0  0  0  0  0
    1.1611   51.9578   76.0235 H   0  0  0  0  0  0  0  0  0  0  0  0
    0.6649   54.6016   74.1963 H   0  0  0  0  0  0  0  0  0  0  0  0
    4.0638   56.1818   78.0232 H   0  0  0  0  0  0  0  0  0  0  0  0
  2  1  1  0
  3  2  1  0
  4  3  1  0
  5  4  1  0
  6  5  1  0
  6  1  1  0
  7  2  1  0
  8  4  1  0
  9  6  1  0
 10  1  1  0
 12 11  2  0
 13 12  1  0
 14 13  1  0
 15 14  1  0
 15 10  1  0
 16 11  1  0
 16 15  1  0
 17 14  1  0
 18 11  1  0
 19 18  1  0
 20  5  1  0
 21 20  1  0
 22 21  1  0
 23 22  1  0
 24 23  1  0
 25 24  1  0
 26 25  1  0
 26 21  1  0
 27 24  1  0
 28 25  1  0
 29 28  1  0
 30 26  1  0
 24 31  1  1
  1 32  1  1
  2 33  1  6
  3 34  1  0
  3 35  1  0
  4 36  1  6
  5 37  1  1
  6 38  1  6
  7 39  1  0
  7 40  1  0
  7 41  1  0
  8 42  1  0
  8 43  1  0
  8 44  1  0
  9 45  1  0
 12 46  1  0
 13 47  1  0
 13 48  1  0
 14 49  1  6
 15 50  1  6
 17 51  1  0
 17 52  1  0
 17 53  1  0
 18 54  1  0
 18 55  1  0
 19 56  1  0
 19 57  1  0
 19 58  1  0
 21 59  1  1
 23 60  1  0
 23 61  1  0
 25 62  1  6
 26 63  1  1
 27 64  1  0
 27 65  1  0
 27 66  1  0
 28 67  1  0
 28 68  1  0
 29 69  1  0
 29 70  1  0
 29 71  1  0
 30 72  1  0
 31 73  1  0
M  CHG  5   7   1   8   1  17   1  19   1  28   1
M  END
>  <score>  (7) 
-6.509

$$$$
=
     RDKit          3D

 73 75  0  0  0  0  0  0  0  0999 V2000
    2.3050   60.3640   73.4930 C   0  0  2  0  0  0  0  0  0  0  0  0
    2.2330   61.2710   74.7590 C   0  0  2  0  0  0  0  0  0  0  0  0
    1.1810   60.7680   75.7640 C   0  0  0  0  0  0  0  0  0  0  0  0
    1.4740   59.3180   76.1710 C   0  0  2  0  0  0  0  0  0  0  0  0
    1.5250   58.3580   74.9410 C   0  0  1  0  0  0  0  0  0  0  0  0
    2.6050   58.8930   73.9420 C   0  0  1  0  0  0  0  0  0  0  0  0
    1.9340   62.6890   74.3760 N   0  0  0  0  0  4  0  0  0  0  0  0
    0.4750   58.8340   77.1770 N   0  0  0  0  0  4  0  0  0  0  0  0
    2.7310   58.0760   72.7670 O   0  0  0  0  0  0  0  0  0  0  0  0
    3.3520   60.8600   72.6140 O   0  0  0  0  0  0  0  0  0  0  0  0
    1.8580   63.2770   70.8740 C   0  0  0  0  0  0  0  0  0  0  0  0
    3.0500   63.8530   70.6410 C   0  0  0  0  0  0  0  0  0  0  0  0
    4.3410   63.0960   70.6490 C   0  0  0  0  0  0  0  0  0  0  0  0
    4.0850   61.6230   70.3500 C   0  0  2  0  0  0  0  0  0  0  0  0
    2.9210   61.0850   71.2400 C   0  0  2  0  0  0  0  0  0  0  0  0
    1.7440   61.9300   71.2220 O   0  0  0  0  0  0  0  0  0  0  0  0
    5.3490   60.8420   70.5250 N   0  0  0  0  0  4  0  0  0  0  0  0
    0.5110   64.0020   70.7650 C   0  0  0  0  0  0  0  0  0  0  0  0
    0.4510   65.1850   69.8730 N   0  0  0  0  0  4  0  0  0  0  0  0
    1.8630   57.0700   75.4780 O   0  0  0  0  0  0  0  0  0  0  0  0
    1.2120   55.9180   74.9060 C   0  0  1  0  0  0  0  0  0  0  0  0
    2.1820   54.9020   74.6930 O   0  0  0  0  0  0  0  0  0  0  0  0
    1.6350   53.7420   74.0160 C   0  0  0  0  0  0  0  0  0  0  0  0
    0.2020   53.3420   74.4680 C   0  0  2  0  0  0  0  0  0  0  0  0
   -0.0100   53.8650   75.9060 C   0  0  1  0  0  0  0  0  0  0  0  0
    0.1120   55.4160   75.8920 C   0  0  1  0  0  0  0  0  0  0  0  0
   -0.0110   51.8410   74.2850 C   0  0  0  0  0  0  0  0  0  0  0  0
   -1.3880   53.5220   76.4630 N   0  0  0  0  0  4  0  0  0  0  0  0
   -1.4350   52.6650   77.6890 C   0  0  0  0  0  0  0  0  0  0  0  0
    0.3040   55.8890   77.2330 O   0  0  0  0  0  0  0  0  0  0  0  0
   -0.7500   54.0400   73.6430 O   0  0  0  0  0  0  0  0  0  0  0  0
    1.3499   60.3816   72.9475 H   0  0  0  0  0  0  0  0  0  0  0  0
    3.2178   61.2269   75.2471 H   0  0  0  0  0  0  0  0  0  0  0  0
    1.2022   61.4063   76.6596 H   0  0  0  0  0  0  0  0  0  0  0  0
    0.1890   60.8102   75.2905 H   0  0  0  0  0  0  0  0  0  0  0  0
    2.4724   59.3095   76.6328 H   0  0  0  0  0  0  0  0  0  0  0  0
    0.5778   58.2947   74.3853 H   0  0  0  0  0  0  0  0  0  0  0  0
    3.5530   58.8592   74.4989 H   0  0  0  0  0  0  0  0  0  0  0  0
    1.8143   63.2566   75.2271 H   0  0  0  0  0  0  0  0  0  0  0  0
    2.7140   63.0659   73.8188 H   0  0  0  0  0  0  0  0  0  0  0  0
    1.0682   62.7189   73.8188 H   0  0  0  0  0  0  0  0  0  0  0  0
    0.8329   59.0074   78.1271 H   0  0  0  0  0  0  0  0  0  0  0  0
   -0.4141   59.3378   77.0478 H   0  0  0  0  0  0  0  0  0  0  0  0
    0.3193   57.8241   77.0478 H   0  0  0  0  0  0  0  0  0  0  0  0
    2.8763   57.1339   73.0342 H   0  0  0  0  0  0  0  0  0  0  0  0
    3.0779   64.9331   70.4344 H   0  0  0  0  0  0  0  0  0  0  0  0
    5.0116   63.5118   69.8826 H   0  0  0  0  0  0  0  0  0  0  0  0
    4.8062   63.1869   71.6417 H   0  0  0  0  0  0  0  0  0  0  0  0
    3.7685   61.5052   69.3031 H   0  0  0  0  0  0  0  0  0  0  0  0
    2.6357   60.1219   70.7916 H   0  0  0  0  0  0  0  0  0  0  0  0
    5.5424   60.7225   71.5296 H   0  0  0  0  0  0  0  0  0  0  0  0
    5.2453   59.9175   70.0829 H   0  0  0  0  0  0  0  0  0  0  0  0
    6.1294   61.3484   70.0829 H   0  0  0  0  0  0  0  0  0  0  0  0
   -0.2286   63.2740   70.4002 H   0  0  0  0  0  0  0  0  0  0  0  0
    0.3174   64.3959   71.7736 H   0  0  0  0  0  0  0  0  0  0  0  0
    0.4075   66.0423   70.4422 H   0  0  0  0  0  0  0  0  0  0  0  0
    1.2918   65.2098   69.2786 H   0  0  0  0  0  0  0  0  0  0  0  0
   -0.3880   65.1246   69.2786 H   0  0  0  0  0  0  0  0  0  0  0  0
    0.7429   56.1778   73.9456 H   0  0  0  0  0  0  0  0  0  0  0  0
    1.6068   53.9563   72.9374 H   0  0  0  0  0  0  0  0  0  0  0  0
    2.2892   52.8956   74.2719 H   0  0  0  0  0  0  0  0  0  0  0  0
    0.7499   53.3861   76.5410 H   0  0  0  0  0  0  0  0  0  0  0  0
   -0.8263   55.8423   75.5075 H   0  0  0  0  0  0  0  0  0  0  0  0
   -0.0796   51.3575   75.2707 H   0  0  0  0  0  0  0  0  0  0  0  0
   -0.9427   51.6683   73.7262 H   0  0  0  0  0  0  0  0  0  0  0  0
    0.8358   51.4159   73.7262 H   0  0  0  0  0  0  0  0  0  0  0  0
   -1.8617   54.4089   76.6863 H   0  0  0  0  0  0  0  0  0  0  0  0
   -1.8396   52.9595   75.7278 H   0  0  0  0  0  0  0  0  0  0  0  0
   -1.4000   53.3033   78.5841 H   0  0  0  0  0  0  0  0  0  0  0  0
   -2.3666   52.0801   77.6920 H   0  0  0  0  0  0  0  0  0  0  0  0
   -0.5730   51.9817   77.6920 H   0  0  0  0  0  0  0  0  0  0  0  0
    0.0201   55.1895   77.8735 H   0  0  0  0  0  0  0  0  0  0  0  0
   -1.3993   54.5161   74.2190 H   0  0  0  0  0  0  0  0  0  0  0  0
  2  1  1  0
  3  2  1  0
  4  3  1  0
  5  4  1  0
  6  5  1  0
  6  1  1  0
  7  2  1  0
  8  4  1  0
  9  6  1  0
 10  1  1  0
 12 11  2  0
 13 12  1  0
 14 13  1  0
 15 14  1  0
 15 10  1  0
 16 11  1  0
 16 15  1  0
 17 14  1  0
 18 11  1  0
 19 18  1  0
 20  5  1  0
 21 20  1  0
 22 21  1  0
 23 22  1  0
 24 23  1  0
 25 24  1  0
 26 25  1  0
 26 21  1  0
 27 24  1  0
 28 25  1  0
 29 28  1  0
 30 26  1  0
 24 31  1  6
  1 32  1  6
  2 33  1  1
  3 34  1  0
  3 35  1  0
  4 36  1  1
  5 37  1  6
  6 38  1  1
  7 39  1  0
  7 40  1  0
  7 41  1  0
  8 42  1  0
  8 43  1  0
  8 44  1  0
  9 45  1  0
 12 46  1  0
 13 47  1  0
 13 48  1  0
 14 49  1  6
 15 50  1  6
 17 51  1  0
 17 52  1  0
 17 53  1  0
 18 54  1  0
 18 55  1  0
 19 56  1  0
 19 57  1  0
 19 58  1  0
 21 59  1  6
 23 60  1  0
 23 61  1  0
 25 62  1  1
 26 63  1  6
 27 64  1  0
 27 65  1  0
 27 66  1  0
 28 67  1  0
 28 68  1  0
 29 69  1  0
 29 70  1  0
 29 71  1  0
 30 72  1  0
 31 73  1  0
M  CHG  5   7   1   8   1  17   1  19   1  28   1
M  END
>  <score>  (8) 
-6.496

$$$$
=
     RDKit          3D

 73 75  0  0  0  0  0  0  0  0999 V2000
    0.2480   62.2740   72.8440 C   0  0  2  0  0  0  0  0  0  0  0  0
    0.5080   63.6370   73.5540 C   0  0  2  0  0  0  0  0  0  0  0  0
   -0.0670   63.6570   74.9820 C   0  0  0  0  0  0  0  0  0  0  0  0
    0.5180   62.5100   75.8150 C   0  0  2  0  0  0  0  0  0  0  0  0
    0.2570   61.1150   75.1650 C   0  0  1  0  0  0  0  0  0  0  0  0
    0.8580   61.1260   73.7190 C   0  0  1  0  0  0  0  0  0  0  0  0
   -0.0710   64.7670   72.7570 N   0  0  0  0  0  4  0  0  0  0  0  0
   -0.0100   62.5450   77.2170 N   0  0  0  0  0  4  0  0  0  0  0  0
    0.6690   59.8790   73.0280 O   0  0  0  0  0  0  0  0  0  0  0  0
    0.8630   62.3010   71.5260 O   0  0  0  0  0  0  0  0  0  0  0  0
    3.4530   60.3260   70.8260 C   0  0  0  0  0  0  0  0  0  0  0  0
    3.4050   60.7100   69.5390 C   0  0  0  0  0  0  0  0  0  0  0  0
    2.8250   62.0180   69.0960 C   0  0  0  0  0  0  0  0  0  0  0  0
    2.8780   63.0260   70.2390 C   0  0  2  0  0  0  0  0  0  0  0  0
    2.3180   62.3890   71.5490 C   0  0  2  0  0  0  0  0  0  0  0  0
    2.8870   61.0910   71.8480 O   0  0  0  0  0  0  0  0  0  0  0  0
    2.1480   64.2720   69.8490 N   0  0  0  0  0  4  0  0  0  0  0  0
    4.1370   59.0450   71.3210 C   0  0  0  0  0  0  0  0  0  0  0  0
    3.4150   58.2420   72.3370 N   0  0  0  0  0  4  0  0  0  0  0  0
    0.9100   60.1680   76.0240 O   0  0  0  0  0  0  0  0  0  0  0  0
    0.2690   58.8900   76.2160 C   0  0  1  0  0  0  0  0  0  0  0  0
   -0.8690   58.8170   75.3680 O   0  0  0  0  0  0  0  0  0  0  0  0
   -1.6420   57.6070   75.5760 C   0  0  0  0  0  0  0  0  0  0  0  0
   -0.7910   56.3280   75.8190 C   0  0  2  0  0  0  0  0  0  0  0  0
    0.5940   56.5430   75.1700 C   0  0  1  0  0  0  0  0  0  0  0  0
    1.2810   57.7570   75.8600 C   0  0  1  0  0  0  0  0  0  0  0  0
   -1.5470   55.0910   75.3400 C   0  0  0  0  0  0  0  0  0  0  0  0
    1.5190   55.3420   75.3370 N   0  0  0  0  0  4  0  0  0  0  0  0
    2.0200   54.6860   74.0900 C   0  0  0  0  0  0  0  0  0  0  0  0
    2.3690   58.2140   75.0430 O   0  0  0  0  0  0  0  0  0  0  0  0
   -0.5550   56.1970   77.2340 O   0  0  0  0  0  0  0  0  0  0  0  0
   -0.8312   62.0971   72.7251 H   0  0  0  0  0  0  0  0  0  0  0  0
    1.5984   63.7637   73.6242 H   0  0  0  0  0  0  0  0  0  0  0  0
    0.1843   64.6155   75.4596 H   0  0  0  0  0  0  0  0  0  0  0  0
   -1.1587   63.5344   74.9267 H   0  0  0  0  0  0  0  0  0  0  0  0
    1.6076   62.6580   75.8440 H   0  0  0  0  0  0  0  0  0  0  0  0
   -0.8086   60.8596   75.0682 H   0  0  0  0  0  0  0  0  0  0  0  0
    1.9362   61.2947   73.8566 H   0  0  0  0  0  0  0  0  0  0  0  0
   -0.4390   65.4853   73.3970 H   0  0  0  0  0  0  0  0  0  0  0  0
    0.6626   65.1796   72.1632 H   0  0  0  0  0  0  0  0  0  0  0  0
   -0.8343   64.4126   72.1632 H   0  0  0  0  0  0  0  0  0  0  0  0
    0.7756   62.4929   77.8811 H   0  0  0  0  0  0  0  0  0  0  0  0
   -0.5286   63.4222   77.3668 H   0  0  0  0  0  0  0  0  0  0  0  0
   -0.6399   61.7439   77.3668 H   0  0  0  0  0  0  0  0  0  0  0  0
    0.5584   59.1494   73.6880 H   0  0  0  0  0  0  0  0  0  0  0  0
    3.8110   60.0313   68.7744 H   0  0  0  0  0  0  0  0  0  0  0  0
    3.4039   62.4031   68.2436 H   0  0  0  0  0  0  0  0  0  0  0  0
    1.7774   61.8657   68.7973 H   0  0  0  0  0  0  0  0  0  0  0  0
    3.9224   63.3058   70.4414 H   0  0  0  0  0  0  0  0  0  0  0  0
    2.6244   63.0710   72.3559 H   0  0  0  0  0  0  0  0  0  0  0  0
    1.8525   64.7764   70.6970 H   0  0  0  0  0  0  0  0  0  0  0  0
    2.7701   64.8739   69.2907 H   0  0  0  0  0  0  0  0  0  0  0  0
    1.3188   64.0236   69.2907 H   0  0  0  0  0  0  0  0  0  0  0  0
    4.3039   58.3994   70.4461 H   0  0  0  0  0  0  0  0  0  0  0  0
    5.0511   59.3885   71.8274 H   0  0  0  0  0  0  0  0  0  0  0  0
    3.6927   58.5509   73.2795 H   0  0  0  0  0  0  0  0  0  0  0  0
    2.4000   58.3709   72.2186 H   0  0  0  0  0  0  0  0  0  0  0  0
    3.6507   57.2463   72.2186 H   0  0  0  0  0  0  0  0  0  0  0  0
   -0.0500   58.7716   77.2621 H   0  0  0  0  0  0  0  0  0  0  0  0
   -2.2893   57.7599   76.4522 H   0  0  0  0  0  0  0  0  0  0  0  0
   -2.2059   57.4342   74.6475 H   0  0  0  0  0  0  0  0  0  0  0  0
    0.4269   56.7050   74.0949 H   0  0  0  0  0  0  0  0  0  0  0  0
    1.6905   57.4309   76.8275 H   0  0  0  0  0  0  0  0  0  0  0  0
   -1.8982   54.5163   76.2097 H   0  0  0  0  0  0  0  0  0  0  0  0
   -2.4101   55.4011   74.7326 H   0  0  0  0  0  0  0  0  0  0  0  0
   -0.8774   54.4644   74.7326 H   0  0  0  0  0  0  0  0  0  0  0  0
    2.3404   55.6559   75.8734 H   0  0  0  0  0  0  0  0  0  0  0  0
    0.9423   54.6254   75.8004 H   0  0  0  0  0  0  0  0  0  0  0  0
    2.6677   53.8379   74.3567 H   0  0  0  0  0  0  0  0  0  0  0  0
    1.1666   54.3237   73.4980 H   0  0  0  0  0  0  0  0  0  0  0  0
    2.5942   55.4139   73.4980 H   0  0  0  0  0  0  0  0  0  0  0  0
    3.1090   58.5248   75.6226 H   0  0  0  0  0  0  0  0  0  0  0  0
   -1.3026   56.6120   77.7330 H   0  0  0  0  0  0  0  0  0  0  0  0
  2  1  1  0
  3  2  1  0
  4  3  1  0
  5  4  1  0
  6  5  1  0
  6  1  1  0
  7  2  1  0
  8  4  1  0
  9  6  1  0
 10  1  1  0
 12 11  2  0
 13 12  1  0
 14 13  1  0
 15 14  1  0
 15 10  1  0
 16 11  1  0
 16 15  1  0
 17 14  1  0
 18 11  1  0
 19 18  1  0
 20  5  1  0
 21 20  1  0
 22 21  1  0
 23 22  1  0
 24 23  1  0
 25 24  1  0
 26 25  1  0
 26 21  1  0
 27 24  1  0
 28 25  1  0
 29 28  1  0
 30 26  1  0
 24 31  1  1
  1 32  1  6
  2 33  1  1
  3 34  1  0
  3 35  1  0
  4 36  1  1
  5 37  1  6
  6 38  1  1
  7 39  1  0
  7 40  1  0
  7 41  1  0
  8 42  1  0
  8 43  1  0
  8 44  1  0
  9 45  1  0
 12 46  1  0
 13 47  1  0
 13 48  1  0
 14 49  1  1
 15 50  1  1
 17 51  1  0
 17 52  1  0
 17 53  1  0
 18 54  1  0
 18 55  1  0
 19 56  1  0
 19 57  1  0
 19 58  1  0
 21 59  1  1
 23 60  1  0
 23 61  1  0
 25 62  1  6
 26 63  1  1
 27 64  1  0
 27 65  1  0
 27 66  1  0
 28 67  1  0
 28 68  1  0
 29 69  1  0
 29 70  1  0
 29 71  1  0
 30 72  1  0
 31 73  1  0
M  CHG  5   7   1   8   1  17   1  19   1  28   1
M  END
>  <score>  (9) 
-6.391

$$$$
