=
     RDKit          3D

 12 12  0  0  0  0  0  0  0  0999 V2000
    3.7360   70.8670   69.8870 O   0  0  0  0  0  0  0  0  0  0  0  0
    4.1290   70.5180   68.7830 C   0  0  0  0  0  0  0  0  0  0  0  0
    3.2340   69.8290   67.8320 C   0  0  0  0  0  0  0  0  0  0  0  0
    3.6630   69.4470   66.6250 C   0  0  0  0  0  0  0  0  0  0  0  0
    5.0520   69.6980   66.1910 C   0  0  0  0  0  0  0  0  0  0  0  0
    5.4450   69.3490   65.0870 O   0  0  0  0  0  0  0  0  0  0  0  0
    5.9470   70.3870   67.1420 C   0  0  0  0  0  0  0  0  0  0  0  0
    5.5180   70.7690   68.3490 C   0  0  0  0  0  0  0  0  0  0  0  0
    2.1928   69.6259   68.1228 H   0  0  0  0  0  0  0  0  0  0  0  0
    2.9683   68.9360   65.9422 H   0  0  0  0  0  0  0  0  0  0  0  0
    6.9882   70.5901   66.8512 H   0  0  0  0  0  0  0  0  0  0  0  0
    6.2127   71.2800   69.0318 H   0  0  0  0  0  0  0  0  0  0  0  0
  2  1  2  0
  3  2  1  0
  4  3  2  0
  5  4  1  0
  6  5  2  0
  7  5  1  0
  8  2  1  0
  8  7  2  0
  3  9  1  0
  4 10  1  0
  7 11  1  0
  8 12  1  0
M  END
>  <score>  (1) 
-5.711

$$$$
=
     RDKit          3D

 12 12  0  0  0  0  0  0  0  0999 V2000
    5.5350   69.5040   65.0550 O   0  0  0  0  0  0  0  0  0  0  0  0
    5.1180   69.8010   66.1670 C   0  0  0  0  0  0  0  0  0  0  0  0
    3.7360   69.4830   66.5780 C   0  0  0  0  0  0  0  0  0  0  0  0
    3.2810   69.8080   67.7920 C   0  0  0  0  0  0  0  0  0  0  0  0
    4.1410   70.4980   68.7740 C   0  0  0  0  0  0  0  0  0  0  0  0
    3.7240   70.7940   69.8860 O   0  0  0  0  0  0  0  0  0  0  0  0
    5.5230   70.8150   68.3630 C   0  0  0  0  0  0  0  0  0  0  0  0
    5.9780   70.4910   67.1490 C   0  0  0  0  0  0  0  0  0  0  0  0
    3.0680   68.9687   65.8715 H   0  0  0  0  0  0  0  0  0  0  0  0
    2.2455   69.5565   68.0649 H   0  0  0  0  0  0  0  0  0  0  0  0
    6.1915   71.3281   69.0700 H   0  0  0  0  0  0  0  0  0  0  0  0
    7.0133   70.7432   66.8760 H   0  0  0  0  0  0  0  0  0  0  0  0
  2  1  2  0
  3  2  1  0
  4  3  2  0
  5  4  1  0
  6  5  2  0
  7  5  1  0
  8  2  1  0
  8  7  2  0
  3  9  1  0
  4 10  1  0
  7 11  1  0
  8 12  1  0
M  END
>  <score>  (2) 
-5.706

$$$$
=
     RDKit          3D

 12 12  0  0  0  0  0  0  0  0999 V2000
    3.7600   70.9050   69.8950 O   0  0  0  0  0  0  0  0  0  0  0  0
    4.1470   70.5570   68.7880 C   0  0  0  0  0  0  0  0  0  0  0  0
    5.5230   70.8380   68.3320 C   0  0  0  0  0  0  0  0  0  0  0  0
    5.9450   70.4580   67.1220 C   0  0  0  0  0  0  0  0  0  0  0  0
    5.0530   69.7390   66.1900 C   0  0  0  0  0  0  0  0  0  0  0  0
    5.4400   69.3910   65.0830 O   0  0  0  0  0  0  0  0  0  0  0  0
    3.6770   69.4580   66.6470 C   0  0  0  0  0  0  0  0  0  0  0  0
    3.2550   69.8380   67.8560 C   0  0  0  0  0  0  0  0  0  0  0  0
    6.2145   71.3706   69.0014 H   0  0  0  0  0  0  0  0  0  0  0  0
    6.9764   70.6851   66.8145 H   0  0  0  0  0  0  0  0  0  0  0  0
    2.9855   68.9248   65.9780 H   0  0  0  0  0  0  0  0  0  0  0  0
    2.2235   69.6111   68.1633 H   0  0  0  0  0  0  0  0  0  0  0  0
  2  1  2  0
  3  2  1  0
  4  3  2  0
  5  4  1  0
  6  5  2  0
  7  5  1  0
  8  2  1  0
  8  7  2  0
  3  9  1  0
  4 10  1  0
  7 11  1  0
  8 12  1  0
M  END
>  <score>  (3) 
-5.687

$$$$
=
     RDKit          3D

 12 12  0  0  0  0  0  0  0  0999 V2000
    3.4580   69.3570   66.3960 O   0  0  0  0  0  0  0  0  0  0  0  0
    4.3820   69.8370   67.0380 C   0  0  0  0  0  0  0  0  0  0  0  0
    5.7480   69.9100   66.4820 C   0  0  0  0  0  0  0  0  0  0  0  0
    6.7560   70.4350   67.1840 C   0  0  0  0  0  0  0  0  0  0  0  0
    6.5480   70.9650   68.5460 C   0  0  0  0  0  0  0  0  0  0  0  0
    7.4720   71.4460   69.1880 O   0  0  0  0  0  0  0  0  0  0  0  0
    5.1820   70.8930   69.1020 C   0  0  0  0  0  0  0  0  0  0  0  0
    4.1740   70.3680   68.4010 C   0  0  0  0  0  0  0  0  0  0  0  0
    5.9393   69.5244   65.4697 H   0  0  0  0  0  0  0  0  0  0  0  0
    7.7609   70.4731   66.7383 H   0  0  0  0  0  0  0  0  0  0  0  0
    4.9909   71.2796   70.1139 H   0  0  0  0  0  0  0  0  0  0  0  0
    3.1692   70.3301   68.8470 H   0  0  0  0  0  0  0  0  0  0  0  0
  2  1  2  0
  3  2  1  0
  4  3  2  0
  5  4  1  0
  6  5  2  0
  7  5  1  0
  8  2  1  0
  8  7  2  0
  3  9  1  0
  4 10  1  0
  7 11  1  0
  8 12  1  0
M  END
>  <score>  (4) 
-5.683

$$$$
=
     RDKit          3D

 12 12  0  0  0  0  0  0  0  0999 V2000
    7.1310   71.6760   68.7740 O   0  0  0  0  0  0  0  0  0  0  0  0
    6.2080   71.0850   68.2290 C   0  0  0  0  0  0  0  0  0  0  0  0
    4.9000   70.9240   68.8950 C   0  0  0  0  0  0  0  0  0  0  0  0
    3.8920   70.2790   68.3000 C   0  0  0  0  0  0  0  0  0  0  0  0
    4.0440   69.6990   66.9510 C   0  0  0  0  0  0  0  0  0  0  0  0
    3.1210   69.1080   66.4060 O   0  0  0  0  0  0  0  0  0  0  0  0
    5.3520   69.8590   66.2850 C   0  0  0  0  0  0  0  0  0  0  0  0
    6.3600   70.5050   66.8800 C   0  0  0  0  0  0  0  0  0  0  0  0
    4.7523   71.3434   69.9011 H   0  0  0  0  0  0  0  0  0  0  0  0
    2.9309   70.1784   68.8254 H   0  0  0  0  0  0  0  0  0  0  0  0
    5.5000   69.4384   65.2794 H   0  0  0  0  0  0  0  0  0  0  0  0
    7.3210   70.6063   66.3543 H   0  0  0  0  0  0  0  0  0  0  0  0
  2  1  2  0
  3  2  1  0
  4  3  2  0
  5  4  1  0
  6  5  2  0
  7  5  1  0
  8  2  1  0
  8  7  2  0
  3  9  1  0
  4 10  1  0
  7 11  1  0
  8 12  1  0
M  END
>  <score>  (5) 
-5.648

$$$$
=
     RDKit          3D

 12 12  0  0  0  0  0  0  0  0999 V2000
    3.5660   69.4380   66.0950 O   0  0  0  0  0  0  0  0  0  0  0  0
    4.4370   69.8440   66.8530 C   0  0  0  0  0  0  0  0  0  0  0  0
    4.1240   70.2380   68.2410 C   0  0  0  0  0  0  0  0  0  0  0  0
    5.0750   70.6810   69.0680 C   0  0  0  0  0  0  0  0  0  0  0  0
    6.4810   70.7950   68.6300 C   0  0  0  0  0  0  0  0  0  0  0  0
    7.3510   71.2000   69.3880 O   0  0  0  0  0  0  0  0  0  0  0  0
    6.7940   70.4000   67.2420 C   0  0  0  0  0  0  0  0  0  0  0  0
    5.8420   69.9570   66.4140 C   0  0  0  0  0  0  0  0  0  0  0  0
    3.0872   70.1653   68.6013 H   0  0  0  0  0  0  0  0  0  0  0  0
    4.8056   70.9666   70.0956 H   0  0  0  0  0  0  0  0  0  0  0  0
    7.8310   70.4716   66.8820 H   0  0  0  0  0  0  0  0  0  0  0  0
    6.1108   69.6714   65.3863 H   0  0  0  0  0  0  0  0  0  0  0  0
  2  1  2  0
  3  2  1  0
  4  3  2  0
  5  4  1  0
  6  5  2  0
  7  5  1  0
  8  2  1  0
  8  7  2  0
  3  9  1  0
  4 10  1  0
  7 11  1  0
  8 12  1  0
M  END
>  <score>  (6) 
-5.615

$$$$
=
     RDKit          3D

 12 12  0  0  0  0  0  0  0  0999 V2000
    5.6210   69.4560   63.3480 O   0  0  0  0  0  0  0  0  0  0  0  0
    4.9740   69.4500   64.3850 C   0  0  0  0  0  0  0  0  0  0  0  0
    3.5730   68.9820   64.4130 C   0  0  0  0  0  0  0  0  0  0  0  0
    2.8660   68.9750   65.5470 C   0  0  0  0  0  0  0  0  0  0  0  0
    3.4550   69.4350   66.8210 C   0  0  0  0  0  0  0  0  0  0  0  0
    2.8070   69.4280   67.8590 O   0  0  0  0  0  0  0  0  0  0  0  0
    4.8550   69.9030   66.7930 C   0  0  0  0  0  0  0  0  0  0  0  0
    5.5620   69.9090   65.6590 C   0  0  0  0  0  0  0  0  0  0  0  0
    3.1026   68.6324   63.4821 H   0  0  0  0  0  0  0  0  0  0  0  0
    1.8251   68.6197   65.5313 H   0  0  0  0  0  0  0  0  0  0  0  0
    5.3252   70.2535   67.7236 H   0  0  0  0  0  0  0  0  0  0  0  0
    6.6033   70.2632   65.6752 H   0  0  0  0  0  0  0  0  0  0  0  0
  2  1  2  0
  3  2  1  0
  4  3  2  0
  5  4  1  0
  6  5  2  0
  7  5  1  0
  8  2  1  0
  8  7  2  0
  3  9  1  0
  4 10  1  0
  7 11  1  0
  8 12  1  0
M  END
>  <score>  (7) 
-5.292

$$$$
=
     RDKit          3D

 12 12  0  0  0  0  0  0  0  0999 V2000
    3.4020   68.7190   63.4060 O   0  0  0  0  0  0  0  0  0  0  0  0
    3.8170   69.0760   64.5000 C   0  0  0  0  0  0  0  0  0  0  0  0
    5.2030   69.5530   64.6770 C   0  0  0  0  0  0  0  0  0  0  0  0
    5.6560   69.9430   65.8720 C   0  0  0  0  0  0  0  0  0  0  0  0
    4.7890   69.9140   67.0670 C   0  0  0  0  0  0  0  0  0  0  0  0
    5.2040   70.2720   68.1610 O   0  0  0  0  0  0  0  0  0  0  0  0
    3.4030   69.4380   66.8900 C   0  0  0  0  0  0  0  0  0  0  0  0
    2.9500   69.0470   65.6950 C   0  0  0  0  0  0  0  0  0  0  0  0
    5.8761   69.5880   63.8077 H   0  0  0  0  0  0  0  0  0  0  0  0
    6.6947   70.2924   65.9674 H   0  0  0  0  0  0  0  0  0  0  0  0
    2.7295   69.4044   67.7591 H   0  0  0  0  0  0  0  0  0  0  0  0
    1.9116   68.6969   65.5998 H   0  0  0  0  0  0  0  0  0  0  0  0
  2  1  2  0
  3  2  1  0
  4  3  2  0
  5  4  1  0
  6  5  2  0
  7  5  1  0
  8  2  1  0
  8  7  2  0
  3  9  1  0
  4 10  1  0
  7 11  1  0
  8 12  1  0
M  END
>  <score>  (8) 
-5.242

$$$$
=
     RDKit          3D

 12 12  0  0  0  0  0  0  0  0999 V2000
    5.2530   69.8980   67.2360 O   0  0  0  0  0  0  0  0  0  0  0  0
    4.6530   69.5810   66.2180 C   0  0  0  0  0  0  0  0  0  0  0  0
    5.3190   69.5900   64.9000 C   0  0  0  0  0  0  0  0  0  0  0  0
    4.6630   69.2430   63.7890 C   0  0  0  0  0  0  0  0  0  0  0  0
    3.2440   68.8360   63.8310 C   0  0  0  0  0  0  0  0  0  0  0  0
    2.6450   68.5180   62.8130 O   0  0  0  0  0  0  0  0  0  0  0  0
    2.5790   68.8260   65.1490 C   0  0  0  0  0  0  0  0  0  0  0  0
    3.2350   69.1730   66.2610 C   0  0  0  0  0  0  0  0  0  0  0  0
    6.3756   69.8882   64.8316 H   0  0  0  0  0  0  0  0  0  0  0  0
    5.1903   69.2608   62.8238 H   0  0  0  0  0  0  0  0  0  0  0  0
    1.5226   68.5271   65.2175 H   0  0  0  0  0  0  0  0  0  0  0  0
    2.7081   69.1541   67.2264 H   0  0  0  0  0  0  0  0  0  0  0  0
  2  1  2  0
  3  2  1  0
  4  3  2  0
  5  4  1  0
  6  5  2  0
  7  5  1  0
  8  2  1  0
  8  7  2  0
  3  9  1  0
  4 10  1  0
  7 11  1  0
  8 12  1  0
M  END
>  <score>  (9) 
-5.096

$$$$
