=
     RDKit          3D

 14 14  0  0  0  0  0  0  0  0999 V2000
    4.0530   66.0210   63.3420 C   0  0  0  0  0  0  0  0  0  0  0  0
    3.1410   66.0150   64.3910 C   0  0  0  0  0  0  0  0  0  0  0  0
    3.0190   64.9700   65.2480 N   0  0  0  0  0  0  0  0  0  0  0  0
    3.8640   63.9380   65.0210 C   0  0  0  0  0  0  0  0  0  0  0  0
    4.7820   63.9440   63.9830 C   0  0  0  0  0  0  0  0  0  0  0  0
    4.8960   64.9800   63.1200 N   0  0  0  0  0  0  0  0  0  0  0  0
    5.4020   67.5840   62.0200 N   0  0  0  0  0  0  0  0  0  0  0  0
    4.1460   67.1850   62.4150 C   0  0  0  0  0  0  0  0  0  0  0  0
    3.1600   67.7970   62.0210 O   0  0  0  0  0  0  0  0  0  0  0  0
    2.4924   66.8922   64.5320 H   0  0  0  0  0  0  0  0  0  0  0  0
    3.8207   63.0620   65.6849 H   0  0  0  0  0  0  0  0  0  0  0  0
    5.4429   63.0739   63.8558 H   0  0  0  0  0  0  0  0  0  0  0  0
    5.5108   68.3838   61.3802 H   0  0  0  0  0  0  0  0  0  0  0  0
    6.2335   67.0829   62.3641 H   0  0  0  0  0  0  0  0  0  0  0  0
  2  1  2  0
  3  2  1  0
  4  3  2  0
  5  4  1  0
  6  5  2  0
  6  1  1  0
  8  7  1  0
  8  1  1  0
  9  8  2  0
  2 10  1  0
  4 11  1  0
  5 12  1  0
  7 13  1  0
  7 14  1  0
M  END
>  <score>  (1) 
-5.283

$$$$
=
     RDKit          3D

 14 14  0  0  0  0  0  0  0  0999 V2000
    3.6400   69.8970   67.3560 C   0  0  0  0  0  0  0  0  0  0  0  0
    2.9110   69.2260   66.3820 C   0  0  0  0  0  0  0  0  0  0  0  0
    3.4380   68.8860   65.1780 N   0  0  0  0  0  0  0  0  0  0  0  0
    4.7340   69.2310   65.0000 C   0  0  0  0  0  0  0  0  0  0  0  0
    5.4680   69.8910   65.9730 C   0  0  0  0  0  0  0  0  0  0  0  0
    4.9400   70.2420   67.1680 N   0  0  0  0  0  0  0  0  0  0  0  0
    1.6850   70.5990   68.6590 N   0  0  0  0  0  0  0  0  0  0  0  0
    3.0180   70.2630   68.6620 C   0  0  0  0  0  0  0  0  0  0  0  0
    3.6530   70.2950   69.7100 O   0  0  0  0  0  0  0  0  0  0  0  0
    1.8652   68.9596   66.5949 H   0  0  0  0  0  0  0  0  0  0  0  0
    5.2233   68.9784   64.0478 H   0  0  0  0  0  0  0  0  0  0  0  0
    6.5195   70.1387   65.7657 H   0  0  0  0  0  0  0  0  0  0  0  0
    1.2172   70.8580   69.5393 H   0  0  0  0  0  0  0  0  0  0  0  0
    1.1541   70.5918   67.7764 H   0  0  0  0  0  0  0  0  0  0  0  0
  2  1  2  0
  3  2  1  0
  4  3  2  0
  5  4  1  0
  6  5  2  0
  6  1  1  0
  8  7  1  0
  8  1  1  0
  9  8  2  0
  2 10  1  0
  4 11  1  0
  5 12  1  0
  7 13  1  0
  7 14  1  0
M  END
>  <score>  (2) 
-5.037

$$$$
=
     RDKit          3D

 14 14  0  0  0  0  0  0  0  0999 V2000
    3.1000   65.9590   64.5220 C   0  0  0  0  0  0  0  0  0  0  0  0
    3.9900   66.0740   63.4610 C   0  0  0  0  0  0  0  0  0  0  0  0
    4.8470   65.0810   63.1140 N   0  0  0  0  0  0  0  0  0  0  0  0
    4.7620   63.9580   63.8650 C   0  0  0  0  0  0  0  0  0  0  0  0
    3.8690   63.8350   64.9180 C   0  0  0  0  0  0  0  0  0  0  0  0
    3.0230   64.8290   65.2720 N   0  0  0  0  0  0  0  0  0  0  0  0
    0.9880   66.7560   65.4760 N   0  0  0  0  0  0  0  0  0  0  0  0
    2.1830   67.0790   64.8780 C   0  0  0  0  0  0  0  0  0  0  0  0
    2.4480   68.2510   64.6380 O   0  0  0  0  0  0  0  0  0  0  0  0
    4.0001   67.0075   62.8792 H   0  0  0  0  0  0  0  0  0  0  0  0
    5.4256   63.1124   63.6312 H   0  0  0  0  0  0  0  0  0  0  0  0
    3.8476   62.8938   65.4869 H   0  0  0  0  0  0  0  0  0  0  0  0
    0.3256   67.4999   65.7381 H   0  0  0  0  0  0  0  0  0  0  0  0
    0.7551   65.7701   65.6620 H   0  0  0  0  0  0  0  0  0  0  0  0
  2  1  2  0
  3  2  1  0
  4  3  2  0
  5  4  1  0
  6  5  2  0
  6  1  1  0
  8  7  1  0
  8  1  1  0
  9  8  2  0
  2 10  1  0
  4 11  1  0
  5 12  1  0
  7 13  1  0
  7 14  1  0
M  END
>  <score>  (3) 
-4.965

$$$$
=
     RDKit          3D

 14 14  0  0  0  0  0  0  0  0999 V2000
    1.9760   68.6730   62.0560 C   0  0  0  0  0  0  0  0  0  0  0  0
    1.6290   68.0730   63.2600 C   0  0  0  0  0  0  0  0  0  0  0  0
    0.4340   68.2890   63.8670 N   0  0  0  0  0  0  0  0  0  0  0  0
   -0.4050   69.1180   63.2060 C   0  0  0  0  0  0  0  0  0  0  0  0
   -0.0670   69.7110   61.9990 C   0  0  0  0  0  0  0  0  0  0  0  0
    1.1280   69.5070   61.3990 N   0  0  0  0  0  0  0  0  0  0  0  0
    3.6240   69.1400   60.3020 N   0  0  0  0  0  0  0  0  0  0  0  0
    3.3050   68.4180   61.4280 C   0  0  0  0  0  0  0  0  0  0  0  0
    4.0930   67.5880   61.8640 O   0  0  0  0  0  0  0  0  0  0  0  0
    2.3509   67.3962   63.7404 H   0  0  0  0  0  0  0  0  0  0  0  0
   -1.3924   69.3299   63.6419 H   0  0  0  0  0  0  0  0  0  0  0  0
   -0.7982   70.3722   61.5110 H   0  0  0  0  0  0  0  0  0  0  0  0
    4.5316   68.9948   59.8371 H   0  0  0  0  0  0  0  0  0  0  0  0
    2.9554   69.8260   59.9235 H   0  0  0  0  0  0  0  0  0  0  0  0
  2  1  2  0
  3  2  1  0
  4  3  2  0
  5  4  1  0
  6  5  2  0
  6  1  1  0
  8  7  1  0
  8  1  1  0
  9  8  2  0
  2 10  1  0
  4 11  1  0
  5 12  1  0
  7 13  1  0
  7 14  1  0
M  END
>  <score>  (4) 
-4.927

$$$$
=
     RDKit          3D

 14 14  0  0  0  0  0  0  0  0999 V2000
    4.0570   65.7200   63.5600 C   0  0  0  0  0  0  0  0  0  0  0  0
    3.2540   66.4840   64.3980 C   0  0  0  0  0  0  0  0  0  0  0  0
    2.8410   67.7350   64.0750 N   0  0  0  0  0  0  0  0  0  0  0  0
    3.2520   68.1820   62.8660 C   0  0  0  0  0  0  0  0  0  0  0  0
    4.0450   67.4200   62.0220 C   0  0  0  0  0  0  0  0  0  0  0  0
    4.4680   66.1780   62.3490 N   0  0  0  0  0  0  0  0  0  0  0  0
    3.8410   63.7540   65.0080 N   0  0  0  0  0  0  0  0  0  0  0  0
    4.4990   64.3530   63.9600 C   0  0  0  0  0  0  0  0  0  0  0  0
    5.4250   63.7700   63.4080 O   0  0  0  0  0  0  0  0  0  0  0  0
    2.9406   66.0571   65.3621 H   0  0  0  0  0  0  0  0  0  0  0  0
    2.9456   69.1872   62.5407 H   0  0  0  0  0  0  0  0  0  0  0  0
    4.3412   67.8414   61.0501 H   0  0  0  0  0  0  0  0  0  0  0  0
    4.1150   62.8101   65.3161 H   0  0  0  0  0  0  0  0  0  0  0  0
    3.0740   64.2491   65.4850 H   0  0  0  0  0  0  0  0  0  0  0  0
  2  1  2  0
  3  2  1  0
  4  3  2  0
  5  4  1  0
  6  5  2  0
  6  1  1  0
  8  7  1  0
  8  1  1  0
  9  8  2  0
  2 10  1  0
  4 11  1  0
  5 12  1  0
  7 13  1  0
  7 14  1  0
M  END
>  <score>  (5) 
-4.91

$$$$
=
     RDKit          3D

 14 14  0  0  0  0  0  0  0  0999 V2000
   -1.0250   67.9770   67.1230 C   0  0  0  0  0  0  0  0  0  0  0  0
   -1.2010   66.8800   67.9580 C   0  0  0  0  0  0  0  0  0  0  0  0
   -0.2440   66.4560   68.8220 N   0  0  0  0  0  0  0  0  0  0  0  0
    0.8920   67.1900   68.8260 C   0  0  0  0  0  0  0  0  0  0  0  0
    1.0690   68.2920   68.0030 C   0  0  0  0  0  0  0  0  0  0  0  0
    0.1200   68.7070   67.1330 N   0  0  0  0  0  0  0  0  0  0  0  0
   -3.3910   68.4050   66.6490 N   0  0  0  0  0  0  0  0  0  0  0  0
   -2.0980   68.4020   66.1800 C   0  0  0  0  0  0  0  0  0  0  0  0
   -1.8700   68.7200   65.0190 O   0  0  0  0  0  0  0  0  0  0  0  0
   -2.1546   66.3332   67.9170 H   0  0  0  0  0  0  0  0  0  0  0  0
    1.7060   66.9021   69.5076 H   0  0  0  0  0  0  0  0  0  0  0  0
    2.0158   68.8491   68.0597 H   0  0  0  0  0  0  0  0  0  0  0  0
   -4.1627   68.6919   66.0300 H   0  0  0  0  0  0  0  0  0  0  0  0
   -3.5876   68.1204   67.6192 H   0  0  0  0  0  0  0  0  0  0  0  0
  2  1  2  0
  3  2  1  0
  4  3  2  0
  5  4  1  0
  6  5  2  0
  6  1  1  0
  8  7  1  0
  8  1  1  0
  9  8  2  0
  2 10  1  0
  4 11  1  0
  5 12  1  0
  7 13  1  0
  7 14  1  0
M  END
>  <score>  (6) 
-4.907

$$$$
=
     RDKit          3D

 14 14  0  0  0  0  0  0  0  0999 V2000
    3.5130   68.7760   63.4510 C   0  0  0  0  0  0  0  0  0  0  0  0
    4.8100   69.2430   63.6210 C   0  0  0  0  0  0  0  0  0  0  0  0
    5.2870   69.6620   64.8210 N   0  0  0  0  0  0  0  0  0  0  0  0
    4.4120   69.5750   65.8490 C   0  0  0  0  0  0  0  0  0  0  0  0
    3.1190   69.1000   65.6870 C   0  0  0  0  0  0  0  0  0  0  0  0
    2.6400   68.6940   64.4890 N   0  0  0  0  0  0  0  0  0  0  0  0
    1.7880   68.7800   61.7100 N   0  0  0  0  0  0  0  0  0  0  0  0
    3.0260   68.3360   62.1120 C   0  0  0  0  0  0  0  0  0  0  0  0
    3.6720   67.5900   61.3860 O   0  0  0  0  0  0  0  0  0  0  0  0
    5.4780   69.2746   62.7476 H   0  0  0  0  0  0  0  0  0  0  0  0
    4.7380   69.8927   66.8504 H   0  0  0  0  0  0  0  0  0  0  0  0
    2.4586   69.0517   66.5654 H   0  0  0  0  0  0  0  0  0  0  0  0
    1.4135   68.5000   60.7923 H   0  0  0  0  0  0  0  0  0  0  0  0
    1.2354   69.3926   62.3266 H   0  0  0  0  0  0  0  0  0  0  0  0
  2  1  2  0
  3  2  1  0
  4  3  2  0
  5  4  1  0
  6  5  2  0
  6  1  1  0
  8  7  1  0
  8  1  1  0
  9  8  2  0
  2 10  1  0
  4 11  1  0
  5 12  1  0
  7 13  1  0
  7 14  1  0
M  END
>  <score>  (7) 
-4.768

$$$$
=
     RDKit          3D

 14 14  0  0  0  0  0  0  0  0999 V2000
    4.4720   69.8490   66.8290 C   0  0  0  0  0  0  0  0  0  0  0  0
    5.6030   70.3130   67.4890 C   0  0  0  0  0  0  0  0  0  0  0  0
    5.5840   70.7010   68.7890 N   0  0  0  0  0  0  0  0  0  0  0  0
    4.3850   70.5860   69.4060 C   0  0  0  0  0  0  0  0  0  0  0  0
    3.2560   70.1140   68.7540 C   0  0  0  0  0  0  0  0  0  0  0  0
    3.2720   69.7400   67.4550 N   0  0  0  0  0  0  0  0  0  0  0  0
    5.7380   69.5880   64.7450 N   0  0  0  0  0  0  0  0  0  0  0  0
    4.5340   69.4440   65.3950 C   0  0  0  0  0  0  0  0  0  0  0  0
    3.5600   69.0170   64.7860 O   0  0  0  0  0  0  0  0  0  0  0  0
    6.5520   70.3680   66.9354 H   0  0  0  0  0  0  0  0  0  0  0  0
    4.3031   70.8777   70.4635 H   0  0  0  0  0  0  0  0  0  0  0  0
    2.3123   70.0412   69.3145 H   0  0  0  0  0  0  0  0  0  0  0  0
    5.8236   69.3201   63.7541 H   0  0  0  0  0  0  0  0  0  0  0  0
    6.5538   69.9637   65.2492 H   0  0  0  0  0  0  0  0  0  0  0  0
  2  1  2  0
  3  2  1  0
  4  3  2  0
  5  4  1  0
  6  5  2  0
  6  1  1  0
  8  7  1  0
  8  1  1  0
  9  8  2  0
  2 10  1  0
  4 11  1  0
  5 12  1  0
  7 13  1  0
  7 14  1  0
M  END
>  <score>  (8) 
-4.691

$$$$
=
     RDKit          3D

 14 14  0  0  0  0  0  0  0  0999 V2000
   -0.5570   68.7140   64.9540 C   0  0  0  0  0  0  0  0  0  0  0  0
    0.7870   68.6580   65.3000 C   0  0  0  0  0  0  0  0  0  0  0  0
    1.7800   68.6080   64.3760 N   0  0  0  0  0  0  0  0  0  0  0  0
    1.3680   68.6360   63.0880 C   0  0  0  0  0  0  0  0  0  0  0  0
    0.0280   68.7030   62.7370 C   0  0  0  0  0  0  0  0  0  0  0  0
   -0.9620   68.7400   63.6580 N   0  0  0  0  0  0  0  0  0  0  0  0
   -2.8700   69.1750   65.6220 N   0  0  0  0  0  0  0  0  0  0  0  0
   -1.6170   68.7560   66.0020 C   0  0  0  0  0  0  0  0  0  0  0  0
   -1.4040   68.4550   67.1700 O   0  0  0  0  0  0  0  0  0  0  0  0
    1.0577   68.6540   66.3662 H   0  0  0  0  0  0  0  0  0  0  0  0
    2.1238   68.6045   62.2894 H   0  0  0  0  0  0  0  0  0  0  0  0
   -0.2396   68.7269   61.6703 H   0  0  0  0  0  0  0  0  0  0  0  0
   -3.6307   69.2186   66.3151 H   0  0  0  0  0  0  0  0  0  0  0  0
   -3.0481   69.4453   64.6442 H   0  0  0  0  0  0  0  0  0  0  0  0
  2  1  2  0
  3  2  1  0
  4  3  2  0
  5  4  1  0
  6  5  2  0
  6  1  1  0
  8  7  1  0
  8  1  1  0
  9  8  2  0
  2 10  1  0
  4 11  1  0
  5 12  1  0
  7 13  1  0
  7 14  1  0
M  END
>  <score>  (9) 
-4.647

$$$$
